301484.cdx
  Mrv1902 05222410192D          

 33 34  0  0  0  0            999 V2000
    1.3336   -5.9752    0.0000 C   0  0  0  0  0  0  0  0  0  0  0  0
    9.1928   -7.2127    0.0000 C   0  0  0  0  0  0  0  0  0  0  0  0
    9.9072   -7.6252    0.0000 C   0  0  0  0  0  0  0  0  0  0  0  0
   11.3362   -7.6252    0.0000 O   0  0  0  0  0  0  0  0  0  0  0  0
   10.6217   -7.2127    0.0000 C   0  0  0  0  0  0  0  0  0  0  0  0
   12.0507   -6.3877    0.0000 C   0  0  0  0  0  0  0  0  0  0  0  0
   11.3362   -5.9752    0.0000 O   0  0  0  0  0  0  0  0  0  0  0  0
   10.6217   -6.3877    0.0000 C   0  0  0  0  0  0  0  0  0  0  0  0
    9.9072   -5.9752    0.0000 C   0  0  0  0  0  0  0  0  0  0  0  0
    9.1928   -6.3877    0.0000 C   0  0  0  0  0  0  0  0  0  0  0  0
    8.4783   -5.9752    0.0000 C   0  0  0  0  0  0  0  0  0  0  0  0
    7.7638   -6.3877    0.0000 N   0  0  0  0  0  0  0  0  0  0  0  0
    7.0494   -5.1502    0.0000 O   0  0  0  0  0  0  0  0  0  0  0  0
    2.0481   -7.2127    0.0000 C   0  0  0  0  0  0  0  0  0  0  0  0
    2.0481   -6.3877    0.0000 C   0  0  0  0  0  0  0  0  0  0  0  0
    2.7625   -5.9752    0.0000 C   0  0  0  0  0  0  0  0  0  0  0  0
    3.4770   -6.3877    0.0000 C   0  0  0  0  0  0  0  0  0  0  0  0
    4.1915   -5.9752    0.0000 C   0  0  0  0  0  0  0  0  0  0  0  0
    4.9059   -6.3877    0.0000 C   0  0  0  0  0  0  0  0  0  0  0  0
    5.6204   -5.9752    0.0000 C   0  0  0  0  0  0  0  0  0  0  0  0
    6.3349   -6.3877    0.0000 C   0  0  0  0  0  0  0  0  0  0  0  0
    7.0494   -5.9752    0.0000 C   0  0  0  0  0  0  0  0  0  0  0  0
   10.6258   -9.6849    0.0000 C   0  0  2  0  0  0  0  0  0  0  0  0
   11.3413  -10.0956    0.0000 C   0  0  2  0  0  0  0  0  0  0  0  0
   12.0547   -9.6812    0.0000 C   0  0  1  0  0  0  0  0  0  0  0  0
   12.0526   -8.8562    0.0000 C   0  0  2  0  0  0  0  0  0  0  0  0
   11.3371   -8.4456    0.0000 C   0  0  1  0  0  0  0  0  0  0  0  0
   10.6236   -8.8599    0.0000 O   0  0  0  0  0  0  0  0  0  0  0  0
    9.9124  -10.0992    0.0000 C   0  0  0  0  0  0  0  0  0  0  0  0
   12.7702  -10.0919    0.0000 O   0  0  0  0  0  0  0  0  0  0  0  0
   11.3434  -10.9206    0.0000 O   0  0  0  0  0  0  0  0  0  0  0  0
   12.7660   -8.4419    0.0000 O   0  0  0  0  0  0  0  0  0  0  0  0
    9.9145  -10.9242    0.0000 O   0  0  0  0  0  0  0  0  0  0  0  0
 15  1  1  0  0  0  0
 12 11  1  0  0  0  0
 10  2  2  0  0  0  0
  3  2  1  0  0  0  0
  5  3  2  0  0  0  0
  5  4  1  0  0  0  0
  8  5  1  0  0  0  0
  7  6  1  0  0  0  0
  8  7  1  0  0  0  0
  9  8  2  0  0  0  0
 10  9  1  0  0  0  0
 11 10  1  0  0  0  0
 22 12  1  0  0  0  0
 22 13  2  0  0  0  0
 15 14  1  0  0  0  0
 16 15  1  0  0  0  0
 17 16  1  0  0  0  0
 18 17  1  0  0  0  0
 19 18  1  0  0  0  0
 20 19  1  0  0  0  0
 21 20  1  0  0  0  0
 22 21  1  0  0  0  0
 23 24  1  0  0  0  0
 24 25  1  0  0  0  0
 25 26  1  0  0  0  0
 26 27  1  0  0  0  0
 27 28  1  0  0  0  0
 28 23  1  0  0  0  0
 23 29  1  1  0  0  0
 25 30  1  1  0  0  0
 24 31  1  6  0  0  0
 26 32  1  6  0  0  0
 29 33  1  0  0  0  0
 27  4  1  1  0  0  0
M  END
>  <cdx:fragmentId>
5

$$$$
