301411.cdx
  Mrv1902 05222410252D          

 17 19  0  0  0  0            999 V2000
    8.7261   -5.8231    0.0000 O   0  0  0  0  0  0  0  0  0  0  0  0
    7.9044   -5.8971    0.0000 C   0  0  0  0  0  0  0  0  0  0  0  0
    7.7208   -6.7014    0.0000 C   0  0  0  0  0  0  0  0  0  0  0  0
    8.4290   -7.1245    0.0000 C   0  0  0  0  0  0  0  0  0  0  0  0
    9.0503   -6.5817    0.0000 C   0  0  0  0  0  0  0  0  0  0  0  0
    5.2289   -5.8231    0.0000 C   0  0  0  0  0  0  0  0  0  0  0  0
    4.9047   -6.5817    0.0000 C   0  0  0  0  0  0  0  0  0  0  0  0
    5.5260   -7.1245    0.0000 C   0  0  2  0  0  0  0  0  0  0  0  0
    6.2342   -6.7014    0.0000 C   0  0  0  0  0  0  0  0  0  0  0  0
    6.9775   -7.0593    0.0000 C   0  0  0  0  0  0  0  0  0  0  0  0
    7.3900   -5.2520    0.0000 C   0  0  0  0  0  0  0  0  0  0  0  0
    6.5650   -5.2520    0.0000 C   0  0  0  0  0  0  0  0  0  0  0  0
    6.0506   -5.8971    0.0000 C   0  0  0  0  0  0  0  0  0  0  0  0
    9.8546   -6.7653    0.0000 O   0  0  0  0  0  0  0  0  0  0  0  0
    8.5030   -7.9462    0.0000 C   0  0  0  0  0  0  0  0  0  0  0  0
    5.4520   -7.9462    0.0000 C   0  0  0  0  0  0  0  0  0  0  0  0
    6.2070   -4.5087    0.0000 C   0  0  0  0  0  0  0  0  0  0  0  0
  1  2  1  0  0  0  0
  2  3  1  0  0  0  0
  3  4  2  0  0  0  0
  4  5  1  0  0  0  0
  1  5  1  0  0  0  0
  6  7  1  0  0  0  0
  7  8  1  0  0  0  0
  8  9  1  0  0  0  0
  9 10  2  0  0  0  0
 11 12  1  0  0  0  0
  6 13  1  0  0  0  0
  9 13  1  0  0  0  0
 11  2  2  0  0  0  0
 10  3  1  0  0  0  0
  5 14  2  0  0  0  0
 12 13  2  0  0  0  0
  4 15  1  0  0  0  0
  8 16  1  6  0  0  0
 12 17  1  0  0  0  0
M  END
>  <cdx:groupId>
397

>  <cdx:fragmentId>
357

$$$$
