301453.cdx
  Mrv1902 05222410192D          

 12 13  0  0  0  0            999 V2000
    6.2529   -9.6888    0.0000 N   0  0  0  0  0  0  0  0  0  0  0  0
    7.0779   -9.6906    0.0000 C   0  0  0  0  0  0  0  0  0  0  0  0
    7.3345   -8.9065    0.0000 C   0  0  1  0  0  0  0  0  0  0  0  0
    6.6681   -8.4202    0.0000 O   0  0  0  0  0  0  0  0  0  0  0  0
    5.9996   -8.9037    0.0000 C   0  0  1  0  0  0  0  0  0  0  0  0
    5.2145   -9.1570    0.0000 C   0  0  0  0  0  0  0  0  0  0  0  0
    5.4678   -9.9421    0.0000 C   0  0  0  0  0  0  0  0  0  0  0  0
    5.0917  -10.6764    0.0000 O   0  0  0  0  0  0  0  0  0  0  0  0
    8.1197   -8.6532    0.0000 C   0  0  0  0  0  0  0  0  0  0  0  0
    8.2929   -7.8466    0.0000 C   0  0  0  0  0  0  0  0  0  0  0  0
    9.0781   -7.5933    0.0000 O   0  0  0  0  0  0  0  0  0  0  0  0
    5.6266   -8.1678    0.0000 H   0  0  0  0  0  0  0  0  0  0  0  0
  1  2  1  0  0  0  0
  2  3  1  0  0  0  0
  3  4  1  0  0  0  0
  4  5  1  0  0  0  0
  5  6  1  0  0  0  0
  6  7  1  0  0  0  0
  1  7  1  0  0  0  0
  1  5  1  0  0  0  0
  7  8  2  0  0  0  0
  9 10  1  0  0  0  0
 10 11  1  0  0  0  0
  3  9  1  1  0  0  0
  5 12  1  1  0  0  0
M  END
>  <cdx:fragmentId>
5

$$$$
