301468.cdx
  Mrv1902 05222410182D          

 56 62  0  0  0  0            999 V2000
   10.2829   -4.6872    0.0000 C   0  0  1  0  0  0  0  0  0  0  0  0
   10.9974   -4.2747    0.0000 C   0  0  2  0  0  0  0  0  0  0  0  0
   11.7118   -4.6872    0.0000 C   0  0  0  0  0  0  0  0  0  0  0  0
   11.7118   -5.5122    0.0000 C   0  0  0  0  0  0  0  0  0  0  0  0
   10.9974   -5.9247    0.0000 C   0  0  2  0  0  0  0  0  0  0  0  0
   10.9974   -6.7497    0.0000 C   0  0  0  0  0  0  0  0  0  0  0  0
   10.2829   -7.1622    0.0000 C   0  0  0  0  0  0  0  0  0  0  0  0
    9.5684   -6.7497    0.0000 C   0  0  2  0  0  0  0  0  0  0  0  0
    8.8539   -7.1622    0.0000 C   0  0  1  0  0  0  0  0  0  0  0  0
    8.8539   -7.9872    0.0000 C   0  0  0  0  0  0  0  0  0  0  0  0
    8.1395   -8.3997    0.0000 C   0  0  0  0  0  0  0  0  0  0  0  0
    7.4250   -7.9872    0.0000 C   0  0  1  0  0  0  0  0  0  0  0  0
    6.7105   -8.3997    0.0000 C   0  0  0  0  0  0  0  0  0  0  0  0
    5.9961   -7.9872    0.0000 C   0  0  2  0  0  0  0  0  0  0  0  0
    5.9961   -7.1622    0.0000 C   0  0  0  0  0  0  0  0  0  0  0  0
    6.7105   -6.7497    0.0000 C   0  0  0  0  0  0  0  0  0  0  0  0
    7.4250   -7.1622    0.0000 C   0  0  1  0  0  0  0  0  0  0  0  0
    8.1395   -6.7497    0.0000 C   0  0  0  0  0  0  0  0  0  0  0  0
    8.1395   -5.9247    0.0000 C   0  0  0  0  0  0  0  0  0  0  0  0
    8.8539   -5.5122    0.0000 C   0  0  0  0  0  0  0  0  0  0  0  0
    9.5684   -5.9247    0.0000 C   0  0  0  0  0  0  0  0  0  0  0  0
   10.2829   -5.5122    0.0000 C   0  0  2  0  0  0  0  0  0  0  0  0
   11.7118   -6.3372    0.0000 C   0  0  0  0  0  0  0  0  0  0  0  0
   11.7118   -7.1622    0.0000 O   0  0  0  0  0  0  0  0  0  0  0  0
   12.4263   -5.9247    0.0000 O   0  0  0  0  0  0  0  0  0  0  0  0
    7.4250   -6.3372    0.0000 C   0  0  0  0  0  0  0  0  0  0  0  0
    7.1230   -9.1142    0.0000 C   0  0  0  0  0  0  0  0  0  0  0  0
    6.2980   -9.1142    0.0000 C   0  0  0  0  0  0  0  0  0  0  0  0
    9.5684   -7.5747    0.0000 C   0  0  0  0  0  0  0  0  0  0  0  0
   10.9974   -3.4497    0.0000 C   0  0  0  0  0  0  0  0  0  0  0  0
    9.8704   -3.9727    0.0000 C   0  0  0  0  0  0  0  0  0  0  0  0
    9.4579   -4.6872    0.0000 O   0  0  0  0  0  0  0  0  0  0  0  0
    5.2816   -8.3997    0.0000 O   0  0  0  0  0  0  0  0  0  0  0  0
    3.8526   -8.3997    0.0000 O   0  0  0  0  0  0  0  0  0  0  0  0
    4.5671   -7.9872    0.0000 C   0  0  2  0  0  0  0  0  0  0  0  0
    4.5671   -7.1622    0.0000 C   0  0  1  0  0  0  0  0  0  0  0  0
    3.8526   -6.7497    0.0000 C   0  0  2  0  0  0  0  0  0  0  0  0
    3.1382   -7.1622    0.0000 C   0  0  1  0  0  0  0  0  0  0  0  0
    3.1382   -7.9872    0.0000 C   0  0  0  0  0  0  0  0  0  0  0  0
    5.2816   -6.7497    0.0000 O   0  0  0  0  0  0  0  0  0  0  0  0
    4.5671   -5.5122    0.0000 O   0  0  0  0  0  0  0  0  0  0  0  0
    5.2816   -5.9247    0.0000 C   0  0  2  0  0  0  0  0  0  0  0  0
    5.9961   -5.5122    0.0000 C   0  0  1  0  0  0  0  0  0  0  0  0
    5.9961   -4.6872    0.0000 C   0  0  2  0  0  0  0  0  0  0  0  0
    5.2816   -4.2747    0.0000 C   0  0  1  0  0  0  0  0  0  0  0  0
    4.5671   -4.6872    0.0000 C   0  0  1  0  0  0  0  0  0  0  0  0
    3.8526   -4.2747    0.0000 C   0  0  0  0  0  0  0  0  0  0  0  0
    3.1382   -4.6872    0.0000 O   0  0  0  0  0  0  0  0  0  0  0  0
    5.2816   -3.4497    0.0000 O   0  0  0  0  0  0  0  0  0  0  0  0
    6.7105   -4.2747    0.0000 O   0  0  0  0  0  0  0  0  0  0  0  0
    6.7105   -5.9247    0.0000 O   0  0  0  0  0  0  0  0  0  0  0  0
    2.4237   -6.7497    0.0000 O   0  0  0  0  0  0  0  0  0  0  0  0
    3.8526   -5.9247    0.0000 O   0  0  0  0  0  0  0  0  0  0  0  0
    7.4250   -8.8122    0.0000 H   0  0  0  0  0  0  0  0  0  0  0  0
   10.2829   -6.3372    0.0000 H   0  0  0  0  0  0  0  0  0  0  0  0
    9.4373   -7.7455    0.0000 C   0  0  0  0  0  0  0  0  0  0  0  0
  1  2  1  0  0  0  0
  2  3  1  0  0  0  0
  3  4  1  0  0  0  0
  4  5  1  0  0  0  0
  5  6  1  0  0  0  0
  6  7  1  0  0  0  0
  7  8  1  0  0  0  0
  8  9  1  0  0  0  0
  9 10  1  0  0  0  0
 10 11  1  0  0  0  0
 11 12  1  0  0  0  0
 12 13  1  0  0  0  0
 13 14  1  0  0  0  0
 14 15  1  0  0  0  0
 15 16  1  0  0  0  0
 16 17  1  0  0  0  0
 12 17  1  0  0  0  0
 17 18  1  0  0  0  0
  9 18  1  0  0  0  0
 18 19  1  0  0  0  0
 19 20  1  0  0  0  0
 20 21  2  0  0  0  0
  8 21  1  0  0  0  0
 21 22  1  0  0  0  0
  5 22  1  0  0  0  0
  1 22  1  0  0  0  0
 23 24  2  0  0  0  0
 23 25  1  0  0  0  0
  5 23  1  1  0  0  0
 17 26  1  6  0  0  0
 13 27  1  0  0  0  0
 13 28  1  0  0  0  0
  8 29  1  1  0  0  0
  2 30  1  1  0  0  0
  1 31  1  1  0  0  0
  1 32  1  6  0  0  0
 34 35  1  0  0  0  0
 35 36  1  0  0  0  0
 36 37  1  0  0  0  0
 37 38  1  0  0  0  0
 38 39  1  0  0  0  0
 34 39  1  0  0  0  0
 41 42  1  0  0  0  0
 42 43  1  0  0  0  0
 43 44  1  0  0  0  0
 44 45  1  0  0  0  0
 45 46  1  0  0  0  0
 41 46  1  0  0  0  0
 47 48  1  0  0  0  0
 46 47  1  6  0  0  0
 45 49  1  1  0  0  0
 44 50  1  6  0  0  0
 43 51  1  1  0  0  0
 42 40  1  6  0  0  0
 36 40  1  1  0  0  0
 38 52  1  1  0  0  0
 37 53  1  6  0  0  0
 35 33  1  6  0  0  0
 14 33  1  1  0  0  0
 12 54  1  6  0  0  0
 22 55  1  1  0  0  0
  9 56  1  6  0  0  0
M  END
>  <cdx:groupId>
307

>  <cdx:fragmentId>
136

$$$$
