301441.cdx
  Mrv1902 05222410182D          

 15 15  0  0  0  0            999 V2000
    5.9995   -5.8649    0.0000 C   0  0  0  0  0  0  0  0  0  0  0  0
    5.2850   -6.2774    0.0000 C   0  0  0  0  0  0  0  0  0  0  0  0
    5.2850   -7.1024    0.0000 C   0  0  0  0  0  0  0  0  0  0  0  0
    4.5706   -7.5149    0.0000 C   0  0  0  0  0  0  0  0  0  0  0  0
    3.8561   -7.1024    0.0000 C   0  0  0  0  0  0  0  0  0  0  0  0
    3.8561   -6.2774    0.0000 C   0  0  0  0  0  0  0  0  0  0  0  0
    4.5706   -5.8649    0.0000 C   0  0  0  0  0  0  0  0  0  0  0  0
    5.9995   -5.0399    0.0000 O   0  0  0  0  0  0  0  0  0  0  0  0
    6.7140   -6.2774    0.0000 O   0  0  0  0  0  0  0  0  0  0  0  0
    7.4284   -5.8649    0.0000 C   0  0  0  0  0  0  0  0  0  0  0  0
    8.1429   -6.2774    0.0000 C   0  0  0  0  0  0  0  0  0  0  0  0
    8.8574   -5.8649    0.0000 C   0  0  0  0  0  0  0  0  0  0  0  0
    9.5719   -6.2774    0.0000 C   0  0  0  0  0  0  0  0  0  0  0  0
   10.2863   -5.8649    0.0000 C   0  0  0  0  0  0  0  0  0  0  0  0
   11.0008   -6.2774    0.0000 C   0  0  0  0  0  0  0  0  0  0  0  0
  1  2  1  0  0  0  0
  2  3  1  0  0  0  0
  3  4  2  0  0  0  0
  4  5  1  0  0  0  0
  5  6  2  0  0  0  0
  6  7  1  0  0  0  0
  2  7  2  0  0  0  0
  1  8  2  0  0  0  0
  1  9  1  0  0  0  0
 10 11  1  0  0  0  0
 11 12  1  0  0  0  0
 12 13  1  0  0  0  0
 13 14  1  0  0  0  0
 14 15  1  0  0  0  0
  9 10  1  0  0  0  0
M  END
>  <cdx:groupId>
81

>  <cdx:fragmentId>
39

$$$$
