301435.cdx
  Mrv1902 05222410212D          

 44 47  0  0  0  0            999 V2000
   15.0234  -10.0460    0.0000 O   0  0  0  0  0  0  0  0  0  0  0  0
   15.7379   -8.8085    0.0000 C   0  0  0  0  0  0  0  0  0  0  0  0
   15.0234   -8.3960    0.0000 O   0  0  0  0  0  0  0  0  0  0  0  0
   12.8800   -8.8085    0.0000 C   0  0  0  0  0  0  0  0  0  0  0  0
   13.5945   -8.3960    0.0000 C   0  0  0  0  0  0  0  0  0  0  0  0
   14.3090   -8.8085    0.0000 C   0  0  0  0  0  0  0  0  0  0  0  0
   14.3090   -9.6335    0.0000 C   0  0  0  0  0  0  0  0  0  0  0  0
   13.5945  -10.0460    0.0000 C   0  0  0  0  0  0  0  0  0  0  0  0
   12.8800   -9.6335    0.0000 C   0  0  0  0  0  0  0  0  0  0  0  0
    9.3077  -10.8710    0.0000 O   0  0  0  0  0  0  0  0  0  0  0  0
   11.4511   -8.8085    0.0000 C   0  0  0  0  0  0  0  0  0  0  0  0
   10.7366   -8.3960    0.0000 O   0  0  0  0  0  0  0  0  0  0  0  0
    7.8787  -10.0460    0.0000 O   0  0  0  0  0  0  0  0  0  0  0  0
    6.4498  -10.8710    0.0000 O   0  0  0  0  0  0  0  0  0  0  0  0
    5.0208  -10.0460    0.0000 O   0  0  0  0  0  0  0  0  0  0  0  0
    4.3064   -7.1585    0.0000 O   0  0  0  0  0  0  0  0  0  0  0  0
    2.8774   -6.3335    0.0000 O   0  0  0  0  0  0  0  0  0  0  0  0
    1.4485   -7.1585    0.0000 O   0  0  0  0  0  0  0  0  0  0  0  0
    1.4485   -8.8085    0.0000 C   0  0  0  0  0  0  0  0  0  0  0  0
    2.1629   -8.3960    0.0000 C   0  0  1  0  0  0  0  0  0  0  0  0
    2.1629   -7.5710    0.0000 C   0  0  1  0  0  0  0  0  0  0  0  0
    2.8774   -7.1585    0.0000 C   0  0  2  0  0  0  0  0  0  0  0  0
    3.5919   -7.5710    0.0000 C   0  0  2  0  0  0  0  0  0  0  0  0
    3.5919   -8.3960    0.0000 C   0  0  1  0  0  0  0  0  0  0  0  0
    2.8774   -8.8085    0.0000 O   0  0  0  0  0  0  0  0  0  0  0  0
    4.3064   -8.8085    0.0000 O   0  0  0  0  0  0  0  0  0  0  0  0
    5.0208   -8.3960    0.0000 C   0  0  0  0  0  0  0  0  0  0  0  0
    5.7353   -8.8085    0.0000 C   0  0  2  0  0  0  0  0  0  0  0  0
    5.7353   -9.6335    0.0000 C   0  0  2  0  0  0  0  0  0  0  0  0
    6.4498  -10.0460    0.0000 C   0  0  1  0  0  0  0  0  0  0  0  0
    7.1642   -9.6335    0.0000 C   0  0  2  0  0  0  0  0  0  0  0  0
    7.1642   -8.8085    0.0000 C   0  0  1  0  0  0  0  0  0  0  0  0
    6.4498   -8.3960    0.0000 O   0  0  0  0  0  0  0  0  0  0  0  0
    7.8787   -8.3960    0.0000 O   0  0  0  0  0  0  0  0  0  0  0  0
   10.0221   -8.8085    0.0000 C   0  0  0  0  0  0  0  0  0  0  0  0
    9.3077   -8.3960    0.0000 C   0  0  0  0  0  0  0  0  0  0  0  0
    8.5932   -8.8085    0.0000 C   0  0  0  0  0  0  0  0  0  0  0  0
    8.5932   -9.6335    0.0000 C   0  0  0  0  0  0  0  0  0  0  0  0
    9.3077  -10.0460    0.0000 C   0  0  0  0  0  0  0  0  0  0  0  0
   10.0221   -9.6335    0.0000 C   0  0  0  0  0  0  0  0  0  0  0  0
   10.7366  -10.8710    0.0000 O   0  0  0  0  0  0  0  0  0  0  0  0
   12.1655  -10.0460    0.0000 C   0  0  0  0  0  0  0  0  0  0  0  0
   11.4511   -9.6335    0.0000 C   0  0  0  0  0  0  0  0  0  0  0  0
   10.7366  -10.0460    0.0000 C   0  0  0  0  0  0  0  0  0  0  0  0
 42  9  1  0  0  0  0
  7  1  1  0  0  0  0
  6  3  1  0  0  0  0
  3  2  1  0  0  0  0
  9  4  2  0  0  0  0
  5  4  1  0  0  0  0
  6  5  2  0  0  0  0
  7  6  1  0  0  0  0
  8  7  2  0  0  0  0
  9  8  1  0  0  0  0
 44 40  1  0  0  0  0
 39 10  1  0  0  0  0
 35 12  1  0  0  0  0
 12 11  1  0  0  0  0
 37 34  1  0  0  0  0
 32 34  1  1  0  0  0
 31 13  1  6  0  0  0
 30 14  1  1  0  0  0
 29 15  1  6  0  0  0
 28 27  1  1  0  0  0
 27 26  1  0  0  0  0
 24 26  1  6  0  0  0
 23 16  1  1  0  0  0
 22 17  1  1  0  0  0
 21 18  1  6  0  0  0
 20 19  1  1  0  0  0
 25 20  1  0  0  0  0
 21 20  1  0  0  0  0
 22 21  1  0  0  0  0
 23 22  1  0  0  0  0
 24 23  1  0  0  0  0
 25 24  1  0  0  0  0
 33 28  1  0  0  0  0
 29 28  1  0  0  0  0
 30 29  1  0  0  0  0
 31 30  1  0  0  0  0
 32 31  1  0  0  0  0
 33 32  1  0  0  0  0
 40 35  2  0  0  0  0
 36 35  1  0  0  0  0
 37 36  2  0  0  0  0
 38 37  1  0  0  0  0
 39 38  2  0  0  0  0
 40 39  1  0  0  0  0
 44 41  2  0  0  0  0
 43 42  2  0  0  0  0
 44 43  1  0  0  0  0
M  END
>  <cdx:fragmentId>
43

$$$$
