301460.cdx
  Mrv1902 05222410262D          

 21 22  0  0  0  0            999 V2000
    5.6388   -4.9929    0.0000 O   0  0  0  0  0  0  0  0  0  0  0  0
    6.3533   -5.4054    0.0000 C   0  0  2  0  0  0  0  0  0  0  0  0
    6.3533   -6.2304    0.0000 C   0  0  1  0  0  0  0  0  0  0  0  0
    5.6388   -6.6429    0.0000 C   0  0  2  0  0  0  0  0  0  0  0  0
    4.9244   -6.2304    0.0000 C   0  0  1  0  0  0  0  0  0  0  0  0
    4.9244   -5.4054    0.0000 C   0  0  1  0  0  0  0  0  0  0  0  0
    7.0678   -6.6429    0.0000 O   0  0  0  0  0  0  0  0  0  0  0  0
    5.6388   -7.4679    0.0000 O   0  0  0  0  0  0  0  0  0  0  0  0
    4.2099   -6.6429    0.0000 O   0  0  0  0  0  0  0  0  0  0  0  0
    4.2099   -4.9929    0.0000 C   0  0  0  0  0  0  0  0  0  0  0  0
    3.4954   -5.4054    0.0000 O   0  0  0  0  0  0  0  0  0  0  0  0
    7.0678   -4.9929    0.0000 O   0  0  0  0  0  0  0  0  0  0  0  0
    7.7822   -5.4054    0.0000 C   0  0  0  0  0  0  0  0  0  0  0  0
    8.4967   -4.9929    0.0000 C   0  0  0  0  0  0  0  0  0  0  0  0
    9.2112   -5.4054    0.0000 C   0  0  0  0  0  0  0  0  0  0  0  0
    9.2112   -6.2304    0.0000 C   0  0  0  0  0  0  0  0  0  0  0  0
    8.4967   -6.6429    0.0000 C   0  0  0  0  0  0  0  0  0  0  0  0
    7.7822   -6.2304    0.0000 C   0  0  0  0  0  0  0  0  0  0  0  0
    9.9256   -6.6429    0.0000 C   0  0  0  0  0  0  0  0  0  0  0  0
   10.6401   -6.2304    0.0000 C   0  0  0  0  0  0  0  0  0  0  0  0
   11.3546   -6.6429    0.0000 O   0  0  0  0  0  0  0  0  0  0  0  0
  1  2  1  0  0  0  0
  2  3  1  0  0  0  0
  3  4  1  0  0  0  0
  4  5  1  0  0  0  0
  5  6  1  0  0  0  0
  1  6  1  0  0  0  0
  3  7  1  6  0  0  0
  4  8  1  1  0  0  0
  5  9  1  6  0  0  0
 10 11  1  0  0  0  0
  6 10  1  1  0  0  0
 13 14  1  0  0  0  0
 14 15  2  0  0  0  0
 15 16  1  0  0  0  0
 16 17  2  0  0  0  0
 17 18  1  0  0  0  0
 13 18  2  0  0  0  0
 12 13  1  0  0  0  0
 19 20  1  0  0  0  0
 20 21  1  0  0  0  0
 16 19  1  0  0  0  0
  2 12  1  1  0  0  0
M  END
>  <cdx:groupId>
417

>  <cdx:fragmentId>
356

$$$$
