301490.cdx
  Mrv1902 05222410192D          

 13 13  0  0  0  0            999 V2000
    5.9220   -7.5802    0.0000 O   0  0  0  0  0  0  0  0  0  0  0  0
    7.1496   -8.4754    0.0000 O   0  0  0  0  0  0  0  0  0  0  0  0
    7.5621   -7.7609    0.0000 C   0  0  0  0  0  0  0  0  0  0  0  0
    7.2303   -7.0056    0.0000 C   0  0  0  0  0  0  0  0  0  0  0  0
    6.4103   -6.9152    0.0000 C   0  0  0  0  0  0  0  0  0  0  0  0
    8.1416   -4.2481    0.0000 C   0  0  0  0  0  0  0  0  0  0  0  0
    6.5593   -4.4803    0.0000 O   0  0  0  0  0  0  0  0  0  0  0  0
    6.6843   -5.2958    0.0000 C   0  0  0  0  0  0  0  0  0  0  0  0
    8.1375   -5.0731    0.0000 C   0  0  1  0  0  0  0  0  0  0  0  0
    8.8025   -5.5614    0.0000 C   0  0  0  0  0  0  0  0  0  0  0  0
    8.5436   -6.3447    0.0000 C   0  0  0  0  0  0  0  0  0  0  0  0
    7.7186   -6.3406    0.0000 C   0  0  1  0  0  0  0  0  0  0  0  0
    7.4676   -5.5547    0.0000 C   0  0  2  0  0  0  0  0  0  0  0  0
 12  4  1  6  0  0  0
  5  1  1  0  0  0  0
  3  2  2  0  0  0  0
  4  3  1  0  0  0  0
  5  4  2  0  0  0  0
  9  6  1  1  0  0  0
 13  8  1  6  0  0  0
  8  7  2  0  0  0  0
 13  9  1  0  0  0  0
 10  9  1  0  0  0  0
 11 10  1  0  0  0  0
 12 11  1  0  0  0  0
 13 12  1  0  0  0  0
M  END
>  <cdx:fragmentId>
368

$$$$
