301403.cdx
  Mrv1902 05222410232D          

 25 25  0  0  0  0            999 V2000
    7.6327   -6.6981    0.0000 C   0  0  0  0  0  0  0  0  0  0  0  0
    6.9183   -7.1106    0.0000 C   0  0  0  0  0  0  0  0  0  0  0  0
    6.2038   -6.6981    0.0000 C   0  0  0  0  0  0  0  0  0  0  0  0
    5.4893   -7.1106    0.0000 C   0  0  0  0  0  0  0  0  0  0  0  0
    4.7749   -6.6981    0.0000 C   0  0  0  0  0  0  0  0  0  0  0  0
    7.6327   -5.8731    0.0000 S   0  0  0  0  0  0  0  0  0  0  0  0
    8.3472   -7.1106    0.0000 N   0  0  0  0  0  0  0  0  0  0  0  0
    8.3472   -7.9356    0.0000 O   0  0  0  0  0  0  0  0  0  0  0  0
    9.0617   -8.3481    0.0000 S   0  0  0  0  0  0  0  0  0  0  0  0
    8.6492   -9.0626    0.0000 O   0  0  0  0  0  0  0  0  0  0  0  0
    9.4742   -7.6336    0.0000 O   0  0  0  0  0  0  0  0  0  0  0  0
    9.7762   -8.7606    0.0000 O   0  0  0  0  0  0  0  0  0  0  0  0
    4.0604   -7.1106    0.0000 S   0  0  0  0  0  0  0  0  0  0  0  0
    3.3459   -6.6981    0.0000 C   0  0  0  0  0  0  0  0  0  0  0  0
    9.0617   -5.8731    0.0000 O   0  0  0  0  0  0  0  0  0  0  0  0
    8.3472   -5.4606    0.0000 C   0  0  0  0  0  0  0  0  0  0  0  0
    8.3472   -4.6356    0.0000 C   0  0  0  0  0  0  0  0  0  0  0  0
    9.0617   -4.2231    0.0000 C   0  0  0  0  0  0  0  0  0  0  0  0
    9.7762   -4.6356    0.0000 C   0  0  0  0  0  0  0  0  0  0  0  0
    9.7762   -5.4606    0.0000 C   0  0  0  0  0  0  0  0  0  0  0  0
   10.4906   -5.8731    0.0000 C   0  0  0  0  0  0  0  0  0  0  0  0
   11.2051   -5.4606    0.0000 O   0  0  0  0  0  0  0  0  0  0  0  0
   10.4906   -4.2231    0.0000 O   0  0  0  0  0  0  0  0  0  0  0  0
    9.0617   -3.3981    0.0000 O   0  0  0  0  0  0  0  0  0  0  0  0
    7.6327   -4.2231    0.0000 O   0  0  0  0  0  0  0  0  0  0  0  0
  1  2  1  0  0  0  0
  2  3  1  0  0  0  0
  3  4  1  0  0  0  0
  4  5  1  0  0  0  0
  1  6  1  0  0  0  0
  1  7  2  0  0  0  0
  9 10  2  0  0  0  0
  9 11  2  0  0  0  0
  9 12  1  0  0  0  0
  8  9  1  0  0  0  0
  7  8  1  0  0  0  0
 13 14  1  0  0  0  0
  5 13  1  0  0  0  0
 15 16  1  0  0  0  0
 16 17  1  0  0  0  0
 17 18  1  0  0  0  0
 18 19  1  0  0  0  0
 19 20  1  0  0  0  0
 15 20  1  0  0  0  0
 21 22  1  0  0  0  0
 20 21  1  0  0  0  0
 19 23  1  0  0  0  0
 18 24  1  0  0  0  0
 17 25  1  0  0  0  0
  6 16  1  0  0  0  0
M  END
>  <cdx:groupId>
194

>  <cdx:fragmentId>
122

$$$$
