301410.cdx
  Mrv1902 05222410242D          

 13 13  0  0  0  0            999 V2000
    8.4967   -7.0554    0.0000 C   0  0  0  0  0  0  0  0  0  0  0  0
    9.2112   -6.6429    0.0000 C   0  0  0  0  0  0  0  0  0  0  0  0
    9.9256   -7.0554    0.0000 C   0  0  0  0  0  0  0  0  0  0  0  0
    9.2112   -5.8179    0.0000 O   0  0  0  0  0  0  0  0  0  0  0  0
    7.7822   -6.6429    0.0000 C   0  0  0  0  0  0  0  0  0  0  0  0
    7.0678   -7.0554    0.0000 C   0  0  0  0  0  0  0  0  0  0  0  0
    6.3533   -6.6429    0.0000 C   0  0  0  0  0  0  0  0  0  0  0  0
    6.3533   -5.8179    0.0000 C   0  0  0  0  0  0  0  0  0  0  0  0
    7.0678   -5.4054    0.0000 C   0  0  0  0  0  0  0  0  0  0  0  0
    7.7822   -5.8179    0.0000 C   0  0  0  0  0  0  0  0  0  0  0  0
    5.6388   -7.0554    0.0000 O   0  0  0  0  0  0  0  0  0  0  0  0
    4.9244   -6.6429    0.0000 C   0  0  0  0  0  0  0  0  0  0  0  0
    5.6388   -5.4054    0.0000 O   0  0  0  0  0  0  0  0  0  0  0  0
  1  2  1  0  0  0  0
  2  3  1  0  0  0  0
  2  4  2  0  0  0  0
  5  6  1  0  0  0  0
  6  7  2  0  0  0  0
  7  8  1  0  0  0  0
  8  9  2  0  0  0  0
  9 10  1  0  0  0  0
  5 10  2  0  0  0  0
 11 12  1  0  0  0  0
  7 11  1  0  0  0  0
  8 13  1  0  0  0  0
  1  5  1  0  0  0  0
M  END
>  <cdx:groupId>
280

>  <cdx:fragmentId>
252

$$$$
