301469.cdx
  Mrv1902 05222410182D          

 67 74  0  0  0  0            999 V2000
    8.4967   -4.6872    0.0000 C   0  0  1  0  0  0  0  0  0  0  0  0
    9.2112   -4.2747    0.0000 C   0  0  1  0  0  0  0  0  0  0  0  0
    9.9256   -4.6872    0.0000 C   0  0  0  0  0  0  0  0  0  0  0  0
    9.9256   -5.5122    0.0000 C   0  0  0  0  0  0  0  0  0  0  0  0
    9.2112   -5.9247    0.0000 C   0  0  2  0  0  0  0  0  0  0  0  0
    9.2112   -6.7497    0.0000 C   0  0  0  0  0  0  0  0  0  0  0  0
    8.4967   -7.1622    0.0000 C   0  0  0  0  0  0  0  0  0  0  0  0
    7.7822   -6.7497    0.0000 C   0  0  2  0  0  0  0  0  0  0  0  0
    7.0678   -7.1622    0.0000 C   0  0  1  0  0  0  0  0  0  0  0  0
    7.0678   -7.9872    0.0000 C   0  0  0  0  0  0  0  0  0  0  0  0
    6.3533   -8.3997    0.0000 C   0  0  0  0  0  0  0  0  0  0  0  0
    5.6388   -7.9872    0.0000 C   0  0  1  0  0  0  0  0  0  0  0  0
    4.9244   -8.3997    0.0000 C   0  0  0  0  0  0  0  0  0  0  0  0
    4.2099   -7.9872    0.0000 C   0  0  2  0  0  0  0  0  0  0  0  0
    4.2099   -7.1622    0.0000 C   0  0  0  0  0  0  0  0  0  0  0  0
    4.9244   -6.7497    0.0000 C   0  0  0  0  0  0  0  0  0  0  0  0
    5.6388   -7.1622    0.0000 C   0  0  1  0  0  0  0  0  0  0  0  0
    6.3533   -6.7497    0.0000 C   0  0  0  0  0  0  0  0  0  0  0  0
    6.3533   -5.9247    0.0000 C   0  0  0  0  0  0  0  0  0  0  0  0
    7.0678   -5.5122    0.0000 C   0  0  0  0  0  0  0  0  0  0  0  0
    7.7822   -5.9247    0.0000 C   0  0  0  0  0  0  0  0  0  0  0  0
    8.4967   -5.5122    0.0000 C   0  0  2  0  0  0  0  0  0  0  0  0
    9.9256   -6.3372    0.0000 C   0  0  0  0  0  0  0  0  0  0  0  0
    9.9256   -7.1622    0.0000 O   0  0  0  0  0  0  0  0  0  0  0  0
   10.6401   -5.9247    0.0000 O   0  0  0  0  0  0  0  0  0  0  0  0
    5.6388   -6.3372    0.0000 C   0  0  0  0  0  0  0  0  0  0  0  0
    5.3369   -9.1142    0.0000 C   0  0  0  0  0  0  0  0  0  0  0  0
    4.5119   -9.1142    0.0000 C   0  0  0  0  0  0  0  0  0  0  0  0
    7.7822   -7.5747    0.0000 C   0  0  0  0  0  0  0  0  0  0  0  0
    9.2112   -3.4497    0.0000 C   0  0  0  0  0  0  0  0  0  0  0  0
    8.0842   -3.9727    0.0000 C   0  0  0  0  0  0  0  0  0  0  0  0
    7.6717   -4.6872    0.0000 O   0  0  0  0  0  0  0  0  0  0  0  0
    3.4954   -8.3997    0.0000 O   0  0  0  0  0  0  0  0  0  0  0  0
    2.0665   -8.3997    0.0000 O   0  0  0  0  0  0  0  0  0  0  0  0
    2.7809   -7.9872    0.0000 C   0  0  2  0  0  0  0  0  0  0  0  0
    2.7809   -7.1622    0.0000 C   0  0  1  0  0  0  0  0  0  0  0  0
    2.0665   -6.7497    0.0000 C   0  0  2  0  0  0  0  0  0  0  0  0
    1.3520   -7.1622    0.0000 C   0  0  1  0  0  0  0  0  0  0  0  0
    1.3520   -7.9872    0.0000 C   0  0  0  0  0  0  0  0  0  0  0  0
    3.4954   -6.7497    0.0000 O   0  0  0  0  0  0  0  0  0  0  0  0
    2.7809   -5.5122    0.0000 O   0  0  0  0  0  0  0  0  0  0  0  0
    3.4954   -5.9247    0.0000 C   0  0  2  0  0  0  0  0  0  0  0  0
    4.2099   -5.5122    0.0000 C   0  0  1  0  0  0  0  0  0  0  0  0
    4.2099   -4.6872    0.0000 C   0  0  2  0  0  0  0  0  0  0  0  0
    3.4954   -4.2747    0.0000 C   0  0  1  0  0  0  0  0  0  0  0  0
    2.7809   -4.6872    0.0000 C   0  0  1  0  0  0  0  0  0  0  0  0
    2.0665   -4.2747    0.0000 C   0  0  0  0  0  0  0  0  0  0  0  0
    1.3520   -4.6872    0.0000 O   0  0  0  0  0  0  0  0  0  0  0  0
    3.4954   -3.4497    0.0000 O   0  0  0  0  0  0  0  0  0  0  0  0
    4.9244   -4.2747    0.0000 O   0  0  0  0  0  0  0  0  0  0  0  0
    4.9244   -5.9247    0.0000 O   0  0  0  0  0  0  0  0  0  0  0  0
    0.6375   -6.7497    0.0000 O   0  0  0  0  0  0  0  0  0  0  0  0
    2.0665   -5.9247    0.0000 O   0  0  0  0  0  0  0  0  0  0  0  0
    5.6388   -8.8122    0.0000 H   0  0  0  0  0  0  0  0  0  0  0  0
    8.4967   -6.3372    0.0000 H   0  0  0  0  0  0  0  0  0  0  0  0
   12.0691   -5.9247    0.0000 O   0  0  0  0  0  0  0  0  0  0  0  0
   11.3546   -6.3372    0.0000 C   0  0  2  0  0  0  0  0  0  0  0  0
   11.3546   -7.1622    0.0000 C   0  0  1  0  0  0  0  0  0  0  0  0
   12.0691   -7.5747    0.0000 C   0  0  2  0  0  0  0  0  0  0  0  0
   12.7835   -7.1622    0.0000 C   0  0  1  0  0  0  0  0  0  0  0  0
   12.7835   -6.3372    0.0000 C   0  0  1  0  0  0  0  0  0  0  0  0
   13.4980   -5.9247    0.0000 C   0  0  0  0  0  0  0  0  0  0  0  0
   14.2125   -6.3372    0.0000 O   0  0  0  0  0  0  0  0  0  0  0  0
   13.4980   -7.5747    0.0000 O   0  0  0  0  0  0  0  0  0  0  0  0
   12.0691   -8.3997    0.0000 O   0  0  0  0  0  0  0  0  0  0  0  0
   10.6401   -7.5747    0.0000 O   0  0  0  0  0  0  0  0  0  0  0  0
    7.6511   -7.7455    0.0000 C   0  0  0  0  0  0  0  0  0  0  0  0
  1  2  1  0  0  0  0
  2  3  1  0  0  0  0
  3  4  1  0  0  0  0
  4  5  1  0  0  0  0
  5  6  1  0  0  0  0
  6  7  1  0  0  0  0
  7  8  1  0  0  0  0
  8  9  1  0  0  0  0
  9 10  1  0  0  0  0
 10 11  1  0  0  0  0
 11 12  1  0  0  0  0
 12 13  1  0  0  0  0
 13 14  1  0  0  0  0
 14 15  1  0  0  0  0
 15 16  1  0  0  0  0
 16 17  1  0  0  0  0
 12 17  1  0  0  0  0
 17 18  1  0  0  0  0
  9 18  1  0  0  0  0
 18 19  1  0  0  0  0
 19 20  1  0  0  0  0
 20 21  2  0  0  0  0
  8 21  1  0  0  0  0
 21 22  1  0  0  0  0
  5 22  1  0  0  0  0
  1 22  1  0  0  0  0
 23 24  2  0  0  0  0
 23 25  1  0  0  0  0
  5 23  1  1  0  0  0
 17 26  1  6  0  0  0
 13 27  1  0  0  0  0
 13 28  1  0  0  0  0
  8 29  1  1  0  0  0
  2 30  1  6  0  0  0
  1 31  1  1  0  0  0
  1 32  1  6  0  0  0
 34 35  1  0  0  0  0
 35 36  1  0  0  0  0
 36 37  1  0  0  0  0
 37 38  1  0  0  0  0
 38 39  1  0  0  0  0
 34 39  1  0  0  0  0
 41 42  1  0  0  0  0
 42 43  1  0  0  0  0
 43 44  1  0  0  0  0
 44 45  1  0  0  0  0
 45 46  1  0  0  0  0
 41 46  1  0  0  0  0
 47 48  1  0  0  0  0
 46 47  1  6  0  0  0
 45 49  1  1  0  0  0
 44 50  1  6  0  0  0
 43 51  1  1  0  0  0
 42 40  1  6  0  0  0
 36 40  1  1  0  0  0
 38 52  1  1  0  0  0
 37 53  1  6  0  0  0
 35 33  1  6  0  0  0
 14 33  1  1  0  0  0
 12 54  1  6  0  0  0
 22 55  1  1  0  0  0
 56 57  1  0  0  0  0
 57 58  1  0  0  0  0
 58 59  1  0  0  0  0
 59 60  1  0  0  0  0
 60 61  1  0  0  0  0
 56 61  1  0  0  0  0
 62 63  1  0  0  0  0
 61 62  1  6  0  0  0
 60 64  1  1  0  0  0
 59 65  1  6  0  0  0
 58 66  1  1  0  0  0
 57 25  1  6  0  0  0
  9 67  1  6  0  0  0
M  END
>  <cdx:groupId>
524

>  <cdx:fragmentId>
319

$$$$
