30146.cdx
  Mrv1902 05222410222D          

 19 20  0  0  0  0            999 V2000
    4.5906   -6.2276    0.0000 C   0  0  0  0  0  0  0  0  0  0  0  0
    4.5906   -7.0526    0.0000 C   0  0  2  0  0  0  0  0  0  0  0  0
    5.3050   -7.4651    0.0000 C   0  0  0  0  0  0  0  0  0  0  0  0
    6.0195   -7.0526    0.0000 C   0  0  2  0  0  0  0  0  0  0  0  0
    6.0195   -6.2276    0.0000 C   0  0  1  0  0  0  0  0  0  0  0  0
    5.3050   -5.8151    0.0000 C   0  0  0  0  0  0  0  0  0  0  0  0
    6.7340   -7.4651    0.0000 C   0  0  2  0  0  0  0  0  0  0  0  0
    7.4484   -7.0526    0.0000 C   0  0  2  0  0  0  0  0  0  0  0  0
    7.4484   -6.2276    0.0000 C   0  0  0  0  0  0  0  0  0  0  0  0
    6.7340   -5.8151    0.0000 C   0  0  0  0  0  0  0  0  0  0  0  0
    5.3050   -8.2901    0.0000 C   0  0  0  0  0  0  0  0  0  0  0  0
    8.1629   -7.4651    0.0000 C   0  0  0  0  0  0  0  0  0  0  0  0
    8.8774   -7.0526    0.0000 C   0  0  0  0  0  0  0  0  0  0  0  0
    8.1629   -8.2901    0.0000 C   0  0  0  0  0  0  0  0  0  0  0  0
    8.8774   -7.8776    0.0000 O   0  0  0  0  0  0  0  0  0  0  0  0
    3.8761   -7.4651    0.0000 O   0  0  0  0  0  0  0  0  0  0  0  0
    6.0195   -5.4026    0.0000 C   0  0  0  0  0  0  0  0  0  0  0  0
    6.7340   -8.2901    0.0000 O   0  0  0  0  0  0  0  0  0  0  0  0
    6.7340   -6.6401    0.0000 O   0  0  0  0  0  0  0  0  0  0  0  0
  1  2  1  0  0  0  0
  2  3  1  0  0  0  0
  3  4  1  0  0  0  0
  4  5  1  0  0  0  0
  5  6  1  0  0  0  0
  6  1  1  0  0  0  0
  4  7  1  0  0  0  0
  7  8  1  0  0  0  0
  8  9  1  0  0  0  0
  9 10  1  0  0  0  0
 10  5  1  0  0  0  0
  3 11  2  0  0  0  0
  8 12  1  6  0  0  0
 12 13  1  0  0  0  0
 12 14  1  0  0  0  0
 12 15  1  0  0  0  0
  2 16  1  6  0  0  0
  5 17  1  6  0  0  0
  7 18  1  6  0  0  0
  4 19  1  1  0  0  0
M  END
>  <cdx:fragmentId>
5

$$$$
