301405.cdx
  Mrv1902 05222410252D          

 44 43  0  0  0  0            999 V2000
   13.8375   -9.1697    0.0000 C   0  0  0  0  0  0  0  0  0  0  0  0
   14.5520   -9.5822    0.0000 C   0  0  0  0  0  0  0  0  0  0  0  0
   15.2665   -9.1697    0.0000 C   0  0  0  0  0  0  0  0  0  0  0  0
   15.9809   -9.5822    0.0000 C   0  0  0  0  0  0  0  0  0  0  0  0
   16.6954   -9.1697    0.0000 C   0  0  0  0  0  0  0  0  0  0  0  0
   17.4099   -9.5822    0.0000 C   0  0  0  0  0  0  0  0  0  0  0  0
   18.1244   -9.1697    0.0000 C   0  0  0  0  0  0  0  0  0  0  0  0
   18.8388   -9.5822    0.0000 C   0  0  0  0  0  0  0  0  0  0  0  0
   19.5533   -9.1697    0.0000 C   0  0  0  0  0  0  0  0  0  0  0  0
   20.2681   -9.5816    0.0000 C   0  0  0  0  0  0  0  0  0  0  0  0
   20.2675  -10.4066    0.0000 C   0  0  0  0  0  0  0  0  0  0  0  0
   20.9817  -10.8196    0.0000 C   0  0  0  0  0  0  0  0  0  0  0  0
   20.9811  -11.6446    0.0000 C   0  0  0  0  0  0  0  0  0  0  0  0
   21.6953  -12.0576    0.0000 C   0  0  0  0  0  0  0  0  0  0  0  0
   21.6947  -12.8826    0.0000 C   0  0  0  0  0  0  0  0  0  0  0  0
   22.4088  -13.2956    0.0000 C   0  0  0  0  0  0  0  0  0  0  0  0
   22.4082  -14.1206    0.0000 C   0  0  0  0  0  0  0  0  0  0  0  0
   23.1224  -14.5337    0.0000 C   0  0  0  0  0  0  0  0  0  0  0  0
   13.8375   -8.3447    0.0000 O   0  0  0  0  0  0  0  0  0  0  0  0
   13.1231   -9.5822    0.0000 O   0  0  0  0  0  0  0  0  0  0  0  0
   12.4086   -9.1697    0.0000 C   0  0  0  0  0  0  0  0  0  0  0  0
   11.6941   -9.5822    0.0000 C   0  0  0  0  0  0  0  0  0  0  0  0
   10.9796   -9.1697    0.0000 C   0  0  0  0  0  0  0  0  0  0  0  0
   10.2652   -9.5822    0.0000 O   0  0  0  0  0  0  0  0  0  0  0  0
    9.5507   -9.1697    0.0000 C   0  0  0  0  0  0  0  0  0  0  0  0
    8.8362   -9.5822    0.0000 C   0  0  0  0  0  0  0  0  0  0  0  0
    8.1218   -9.1697    0.0000 C   0  0  0  0  0  0  0  0  0  0  0  0
    7.4073   -9.5822    0.0000 C   0  0  0  0  0  0  0  0  0  0  0  0
    6.6928   -9.1697    0.0000 C   0  0  0  0  0  0  0  0  0  0  0  0
    5.9783   -9.5822    0.0000 C   0  0  0  0  0  0  0  0  0  0  0  0
    5.2639   -9.1697    0.0000 C   0  0  0  0  0  0  0  0  0  0  0  0
    4.5494   -9.5822    0.0000 C   0  0  0  0  0  0  0  0  0  0  0  0
    3.8349   -9.1697    0.0000 C   0  0  0  0  0  0  0  0  0  0  0  0
    3.1205   -9.5822    0.0000 C   0  0  0  0  0  0  0  0  0  0  0  0
    3.1205  -10.4072    0.0000 C   0  0  0  0  0  0  0  0  0  0  0  0
    2.4061  -10.8198    0.0000 C   0  0  0  0  0  0  0  0  0  0  0  0
    2.4061  -11.6448    0.0000 C   0  0  0  0  0  0  0  0  0  0  0  0
    1.6916  -12.0573    0.0000 C   0  0  0  0  0  0  0  0  0  0  0  0
    1.6916  -12.8823    0.0000 C   0  0  0  0  0  0  0  0  0  0  0  0
    0.9772  -13.2948    0.0000 C   0  0  0  0  0  0  0  0  0  0  0  0
    0.9772  -14.1198    0.0000 C   0  0  0  0  0  0  0  0  0  0  0  0
    0.2628  -14.5323    0.0000 C   0  0  0  0  0  0  0  0  0  0  0  0
    9.5507   -8.3447    0.0000 O   0  0  0  0  0  0  0  0  0  0  0  0
   11.6941  -10.4072    0.0000 O   0  0  0  0  0  0  0  0  0  0  0  0
  1  2  1  0  0  0  0
  2  3  1  0  0  0  0
  3  4  1  0  0  0  0
  4  5  1  0  0  0  0
  5  6  1  0  0  0  0
  6  7  1  0  0  0  0
  7  8  1  0  0  0  0
  8  9  1  0  0  0  0
  9 10  2  0  0  0  0
 10 11  1  0  0  0  0
 11 12  1  0  0  0  0
 12 13  1  0  0  0  0
 13 14  1  0  0  0  0
 14 15  1  0  0  0  0
 15 16  1  0  0  0  0
 16 17  1  0  0  0  0
 17 18  1  0  0  0  0
  1 19  2  0  0  0  0
  1 20  1  0  0  0  0
 21 22  1  0  0  0  0
 22 23  1  0  0  0  0
 25 26  1  0  0  0  0
 26 27  1  0  0  0  0
 27 28  1  0  0  0  0
 28 29  1  0  0  0  0
 29 30  1  0  0  0  0
 30 31  1  0  0  0  0
 31 32  1  0  0  0  0
 32 33  1  0  0  0  0
 33 34  2  0  0  0  0
 34 35  1  0  0  0  0
 35 36  1  0  0  0  0
 36 37  1  0  0  0  0
 37 38  1  0  0  0  0
 38 39  1  0  0  0  0
 39 40  1  0  0  0  0
 40 41  1  0  0  0  0
 41 42  1  0  0  0  0
 25 43  2  0  0  0  0
 24 25  1  0  0  0  0
 23 24  1  0  0  0  0
 22 44  1  0  0  0  0
 20 21  1  0  0  0  0
M  END
>  <cdx:fragmentId>
53

$$$$
