301427.cdx
  Mrv1902 05222410232D          

 16 18  0  0  0  0            999 V2000
    7.1509   -6.2658    0.0000 C   0  0  0  0  0  0  0  0  0  0  0  0
    6.4364   -5.8533    0.0000 C   0  0  0  0  0  0  0  0  0  0  0  0
    5.7220   -6.2658    0.0000 C   0  0  0  0  0  0  0  0  0  0  0  0
    5.7220   -7.0908    0.0000 C   0  0  0  0  0  0  0  0  0  0  0  0
    6.4364   -7.5033    0.0000 C   0  0  0  0  0  0  0  0  0  0  0  0
    7.1509   -7.0908    0.0000 C   0  0  1  0  0  0  0  0  0  0  0  0
    7.9355   -7.3458    0.0000 C   0  0  2  0  0  0  0  0  0  0  0  0
    8.4204   -6.6783    0.0000 C   0  0  0  0  0  0  0  0  0  0  0  0
    7.9355   -6.0109    0.0000 C   0  0  0  0  0  0  0  0  0  0  0  0
    7.7550   -6.2975    0.0000 C   0  0  0  0  0  0  0  0  0  0  0  0
    8.0850   -6.7100    0.0000 C   0  0  0  0  0  0  0  0  0  0  0  0
    7.2371   -7.9113    0.0000 C   0  0  0  0  0  0  0  0  0  0  0  0
    6.4364   -5.0283    0.0000 C   0  0  0  0  0  0  0  0  0  0  0  0
    8.1905   -8.1304    0.0000 H   0  0  0  0  0  0  0  0  0  0  0  0
    8.5859   -6.2091    0.0000 C   0  0  0  0  0  0  0  0  0  0  0  0
    8.7994   -7.0060    0.0000 C   0  0  0  0  0  0  0  0  0  0  0  0
  1  2  1  0  0  0  0
  2  3  1  0  0  0  0
  3  4  1  0  0  0  0
  4  5  1  0  0  0  0
  5  6  1  0  0  0  0
  6  7  1  0  0  0  0
  7  8  1  0  0  0  0
  8  9  1  0  0  0  0
 10 11  1  0  0  0  0
  1  9  1  0  0  0  0
  1 10  1  0  0  0  0
  7 11  1  0  0  0  0
  1  6  1  0  0  0  0
  6 12  1  1  0  0  0
  2 13  1  0  0  0  0
  7 14  1  6  0  0  0
 11 15  1  0  0  0  0
 11 16  1  0  0  0  0
M  END
>  <cdx:groupId>
73

>  <cdx:fragmentId>
74

$$$$
