301454.cdx
  Mrv1902 05222410182D          

 12 11  0  0  0  0            999 V2000
    9.7762   -6.0241    0.0000 C   0  0  0  0  0  0  0  0  0  0  0  0
    9.0617   -6.4366    0.0000 C   0  0  0  0  0  0  0  0  0  0  0  0
    8.3472   -6.0241    0.0000 C   0  0  0  0  0  0  0  0  0  0  0  0
    7.6327   -6.4366    0.0000 C   0  0  0  0  0  0  0  0  0  0  0  0
    6.9183   -6.0241    0.0000 C   0  0  0  0  0  0  0  0  0  0  0  0
    6.2038   -6.4366    0.0000 C   0  0  0  0  0  0  0  0  0  0  0  0
    5.4893   -6.0241    0.0000 C   0  0  0  0  0  0  0  0  0  0  0  0
    4.7749   -6.4366    0.0000 C   0  0  0  0  0  0  0  0  0  0  0  0
    4.0604   -6.0241    0.0000 C   0  0  0  0  0  0  0  0  0  0  0  0
    9.7762   -5.1991    0.0000 O   0  0  0  0  0  0  0  0  0  0  0  0
   10.4906   -6.4366    0.0000 O   0  0  0  0  0  0  0  0  0  0  0  0
    9.0617   -7.2616    0.0000 O   0  0  0  0  0  0  0  0  0  0  0  0
  1  2  1  0  0  0  0
  2  3  2  0  0  0  0
  3  4  1  0  0  0  0
  4  5  1  0  0  0  0
  5  6  1  0  0  0  0
  6  7  1  0  0  0  0
  7  8  1  0  0  0  0
  8  9  1  0  0  0  0
  1 10  2  0  0  0  0
  1 11  1  0  0  0  0
  2 12  1  0  0  0  0
M  END
>  <cdx:fragmentId>
45

$$$$
