301412.cdx
  Mrv1902 05222410252D          

  8  7  0  0  0  0            999 V2000
    5.6388   -6.0241    0.0000 C   0  0  0  0  0  0  0  0  0  0  0  0
    6.3533   -6.4366    0.0000 C   0  0  0  0  0  0  0  0  0  0  0  0
    7.7822   -6.4366    0.0000 S   0  0  0  0  0  0  0  0  0  0  0  0
    7.0678   -6.0241    0.0000 S   0  0  0  0  0  0  0  0  0  0  0  0
    8.4967   -6.0241    0.0000 C   0  0  0  0  0  0  0  0  0  0  0  0
    9.2112   -6.4366    0.0000 C   0  0  0  0  0  0  0  0  0  0  0  0
    9.9256   -6.0241    0.0000 O   0  0  0  0  0  0  0  0  0  0  0  0
    4.9244   -6.4366    0.0000 O   0  0  0  0  0  0  0  0  0  0  0  0
  1  2  1  0  0  0  0
  3  4  1  0  0  0  0
  5  6  1  0  0  0  0
  3  5  1  0  0  0  0
  6  7  1  0  0  0  0
  2  4  1  0  0  0  0
  1  8  1  0  0  0  0
M  END
>  <cdx:groupId>
25

>  <cdx:fragmentId>
13

$$$$
