301440.cdx
  Mrv1902 05222410182D          

 11 10  0  0  0  0            999 V2000
    8.1395   -6.4366    0.0000 C   0  0  0  0  0  0  0  0  0  0  0  0
    7.4250   -6.8491    0.0000 C   0  0  0  0  0  0  0  0  0  0  0  0
    6.7105   -6.4366    0.0000 C   0  0  0  0  0  0  0  0  0  0  0  0
    5.9961   -6.8491    0.0000 C   0  0  0  0  0  0  0  0  0  0  0  0
    5.2816   -6.4366    0.0000 C   0  0  0  0  0  0  0  0  0  0  0  0
    4.5671   -6.8491    0.0000 C   0  0  0  0  0  0  0  0  0  0  0  0
    8.1395   -5.6116    0.0000 O   0  0  0  0  0  0  0  0  0  0  0  0
    8.8539   -6.8491    0.0000 O   0  0  0  0  0  0  0  0  0  0  0  0
    6.7105   -5.6116    0.0000 O   0  0  0  0  0  0  0  0  0  0  0  0
    9.5684   -6.4366    0.0000 C   0  0  0  0  0  0  0  0  0  0  0  0
   10.2829   -6.8491    0.0000 C   0  0  0  0  0  0  0  0  0  0  0  0
  1  2  1  0  0  0  0
  2  3  1  0  0  0  0
  3  4  1  0  0  0  0
  4  5  1  0  0  0  0
  5  6  1  0  0  0  0
  1  7  2  0  0  0  0
  1  8  1  0  0  0  0
  3  9  1  0  0  0  0
 10 11  1  0  0  0  0
  8 10  1  0  0  0  0
M  END
>  <cdx:groupId>
34

>  <cdx:fragmentId>
5

$$$$
