301408.cdx
  Mrv1902 05222410212D          

 25 28  0  0  0  0            999 V2000
    6.4925   -6.7530    0.0000 C   0  0  1  0  0  0  0  0  0  0  0  0
    7.2069   -7.1655    0.0000 C   0  0  0  0  0  0  0  0  0  0  0  0
    7.9214   -6.7530    0.0000 C   0  0  0  0  0  0  0  0  0  0  0  0
    7.9214   -5.9280    0.0000 C   0  0  2  0  0  0  0  0  0  0  0  0
    8.6359   -5.5155    0.0000 C   0  0  1  0  0  0  0  0  0  0  0  0
    8.6359   -4.6905    0.0000 C   0  0  0  0  0  0  0  0  0  0  0  0
    7.9214   -4.2780    0.0000 C   0  0  0  0  0  0  0  0  0  0  0  0
    7.2069   -4.6905    0.0000 C   0  0  0  0  0  0  0  0  0  0  0  0
    7.2069   -5.5155    0.0000 C   0  0  1  0  0  0  0  0  0  0  0  0
    6.4925   -5.9280    0.0000 C   0  0  2  0  0  0  0  0  0  0  0  0
    5.8475   -5.4136    0.0000 C   0  0  0  0  0  0  0  0  0  0  0  0
    5.0432   -5.5972    0.0000 C   0  0  0  0  0  0  0  0  0  0  0  0
    4.6852   -6.3405    0.0000 C   0  0  0  0  0  0  0  0  0  0  0  0
    5.0432   -7.0838    0.0000 C   0  0  0  0  0  0  0  0  0  0  0  0
    5.8475   -7.2673    0.0000 C   0  0  2  0  0  0  0  0  0  0  0  0
    5.7069   -6.0253    0.0000 C   0  0  0  0  0  0  0  0  0  0  0  0
    9.3504   -5.9280    0.0000 C   0  0  0  0  0  0  0  0  0  0  0  0
    9.3504   -6.7530    0.0000 O   0  0  0  0  0  0  0  0  0  0  0  0
   10.0648   -5.5155    0.0000 O   0  0  0  0  0  0  0  0  0  0  0  0
    4.5288   -7.7288    0.0000 C   0  0  0  0  0  0  0  0  0  0  0  0
    7.2069   -6.3405    0.0000 C   0  0  0  0  0  0  0  0  0  0  0  0
    9.3504   -5.1030    0.0000 C   0  0  0  0  0  0  0  0  0  0  0  0
    6.0310   -8.0717    0.0000 O   0  0  0  0  0  0  0  0  0  0  0  0
    8.6359   -6.3405    0.0000 H   0  0  0  0  0  0  0  0  0  0  0  0
    6.4925   -5.1030    0.0000 H   0  0  0  0  0  0  0  0  0  0  0  0
  1  2  1  0  0  0  0
  2  3  1  0  0  0  0
  3  4  1  0  0  0  0
  4  5  1  0  0  0  0
  5  6  1  0  0  0  0
  6  7  1  0  0  0  0
  7  8  1  0  0  0  0
  8  9  1  0  0  0  0
  9 10  1  0  0  0  0
 10 11  1  0  0  0  0
 11 12  1  0  0  0  0
 12 13  1  0  0  0  0
 13 14  1  0  0  0  0
 14 15  1  0  0  0  0
  1 15  1  0  0  0  0
  1 16  1  1  0  0  0
 16 13  1  0  0  0  0
  1 10  1  0  0  0  0
  4  9  1  0  0  0  0
 17 18  2  0  0  0  0
 17 19  1  0  0  0  0
  5 17  1  0  0  0  0
 14 20  2  0  0  0  0
  9 21  1  1  0  0  0
  5 22  1  6  0  0  0
 15 23  1  1  0  0  0
  4 24  1  6  0  0  0
 10 25  1  6  0  0  0
M  END
>  <cdx:groupId>
80

>  <cdx:fragmentId>
5

$$$$
