301449.cdx
  Mrv1902 05222410262D          

 34 38  0  0  0  0            999 V2000
    5.7883   -6.0241    0.0000 C   0  0  0  0  0  0  0  0  0  0  0  0
    5.7883   -6.8491    0.0000 C   0  0  0  0  0  0  0  0  0  0  0  0
    5.0738   -7.2616    0.0000 C   0  0  0  0  0  0  0  0  0  0  0  0
    4.3594   -6.8491    0.0000 C   0  0  0  0  0  0  0  0  0  0  0  0
    3.6449   -7.2616    0.0000 C   0  0  0  0  0  0  0  0  0  0  0  0
    2.9304   -6.8491    0.0000 C   0  0  0  0  0  0  0  0  0  0  0  0
    2.9304   -6.0241    0.0000 C   0  0  0  0  0  0  0  0  0  0  0  0
    3.6449   -5.6116    0.0000 C   0  0  0  0  0  0  0  0  0  0  0  0
    4.3594   -6.0241    0.0000 C   0  0  0  0  0  0  0  0  0  0  0  0
    5.0738   -5.6116    0.0000 O   0  0  0  0  0  0  0  0  0  0  0  0
    5.0738   -8.0866    0.0000 O   0  0  0  0  0  0  0  0  0  0  0  0
    8.6462   -4.3741    0.0000 O   0  0  0  0  0  0  0  0  0  0  0  0
    9.3607   -4.7866    0.0000 C   0  0  1  0  0  0  0  0  0  0  0  0
    9.3607   -5.6116    0.0000 C   0  0  2  0  0  0  0  0  0  0  0  0
    8.6462   -6.0241    0.0000 O   0  0  0  0  0  0  0  0  0  0  0  0
    7.9317   -5.6116    0.0000 C   0  0  0  0  0  0  0  0  0  0  0  0
    7.9317   -4.7866    0.0000 C   0  0  0  0  0  0  0  0  0  0  0  0
    7.2172   -6.0241    0.0000 C   0  0  0  0  0  0  0  0  0  0  0  0
    6.5028   -5.6116    0.0000 C   0  0  0  0  0  0  0  0  0  0  0  0
    6.5028   -4.7866    0.0000 C   0  0  0  0  0  0  0  0  0  0  0  0
    7.2172   -4.3741    0.0000 C   0  0  0  0  0  0  0  0  0  0  0  0
   10.0751   -4.3741    0.0000 C   0  0  0  0  0  0  0  0  0  0  0  0
   10.7896   -4.7866    0.0000 O   0  0  0  0  0  0  0  0  0  0  0  0
   10.0751   -6.0241    0.0000 C   0  0  0  0  0  0  0  0  0  0  0  0
   10.7896   -5.6116    0.0000 C   0  0  0  0  0  0  0  0  0  0  0  0
   11.5041   -6.0241    0.0000 C   0  0  0  0  0  0  0  0  0  0  0  0
   11.5041   -6.8491    0.0000 C   0  0  0  0  0  0  0  0  0  0  0  0
   10.7896   -7.2616    0.0000 C   0  0  0  0  0  0  0  0  0  0  0  0
   10.0751   -6.8491    0.0000 C   0  0  0  0  0  0  0  0  0  0  0  0
   12.2185   -5.6116    0.0000 O   0  0  0  0  0  0  0  0  0  0  0  0
   12.9330   -6.0241    0.0000 C   0  0  0  0  0  0  0  0  0  0  0  0
   12.2185   -7.2616    0.0000 O   0  0  0  0  0  0  0  0  0  0  0  0
    2.2160   -5.6116    0.0000 O   0  0  0  0  0  0  0  0  0  0  0  0
    3.6449   -8.0866    0.0000 O   0  0  0  0  0  0  0  0  0  0  0  0
  1  2  2  0  0  0  0
  2  3  1  0  0  0  0
  3  4  1  0  0  0  0
  4  5  1  0  0  0  0
  5  6  2  0  0  0  0
  6  7  1  0  0  0  0
  7  8  2  0  0  0  0
  8  9  1  0  0  0  0
  4  9  2  0  0  0  0
  9 10  1  0  0  0  0
  1 10  1  0  0  0  0
  3 11  2  0  0  0  0
 12 13  1  0  0  0  0
 13 14  1  0  0  0  0
 14 15  1  0  0  0  0
 15 16  1  0  0  0  0
 16 17  1  0  0  0  0
 12 17  1  0  0  0  0
 18 19  1  0  0  0  0
 19 20  2  0  0  0  0
 20 21  1  0  0  0  0
 21 17  2  0  0  0  0
 18 16  2  0  0  0  0
 22 23  1  0  0  0  0
 13 22  1  6  0  0  0
 24 25  1  0  0  0  0
 25 26  2  0  0  0  0
 26 27  1  0  0  0  0
 27 28  2  0  0  0  0
 28 29  1  0  0  0  0
 24 29  2  0  0  0  0
 30 31  1  0  0  0  0
 26 30  1  0  0  0  0
 27 32  1  0  0  0  0
 14 24  1  1  0  0  0
  1 19  1  0  0  0  0
  7 33  1  0  0  0  0
  5 34  1  0  0  0  0
M  END
>  <cdx:groupId>
108

>  <cdx:fragmentId>
27

$$$$
