301442.cdx
  Mrv1902 05222410192D          

 11 10  0  0  0  0            999 V2000
    5.6388   -6.4366    0.0000 C   0  0  0  0  0  0  0  0  0  0  0  0
    4.9244   -6.8491    0.0000 C   0  0  0  0  0  0  0  0  0  0  0  0
    4.2099   -6.4366    0.0000 C   0  0  0  0  0  0  0  0  0  0  0  0
    5.6388   -5.6116    0.0000 O   0  0  0  0  0  0  0  0  0  0  0  0
    6.3533   -6.8491    0.0000 O   0  0  0  0  0  0  0  0  0  0  0  0
    7.0678   -6.4366    0.0000 C   0  0  0  0  0  0  0  0  0  0  0  0
    7.7822   -6.8491    0.0000 C   0  0  0  0  0  0  0  0  0  0  0  0
    8.4967   -6.4366    0.0000 C   0  0  0  0  0  0  0  0  0  0  0  0
    9.2112   -6.8491    0.0000 C   0  0  0  0  0  0  0  0  0  0  0  0
    9.9256   -6.4366    0.0000 C   0  0  0  0  0  0  0  0  0  0  0  0
   10.6401   -6.8491    0.0000 C   0  0  0  0  0  0  0  0  0  0  0  0
  1  2  1  0  0  0  0
  2  3  1  0  0  0  0
  1  4  2  0  0  0  0
  1  5  1  0  0  0  0
  6  7  1  0  0  0  0
  7  8  1  0  0  0  0
  8  9  1  0  0  0  0
  9 10  1  0  0  0  0
 10 11  1  0  0  0  0
  5  6  1  0  0  0  0
M  END
>  <cdx:groupId>
117

>  <cdx:fragmentId>
98

$$$$
