30144.cdx
  Mrv1902 05222410232D          

 40 43  0  0  0  0            999 V2000
    3.6281   -9.4589    0.0000 O   0  0  0  0  0  0  0  0  0  0  0  0
    4.3425  -10.6964    0.0000 O   0  0  0  0  0  0  0  0  0  0  0  0
    5.0570  -10.2839    0.0000 C   0  0  2  0  0  0  0  0  0  0  0  0
    5.0570   -9.4589    0.0000 C   0  0  1  0  0  0  0  0  0  0  0  0
    4.3425   -9.0464    0.0000 C   0  0  0  0  0  0  0  0  0  0  0  0
    5.7715  -10.6964    0.0000 C   0  0  1  0  0  0  0  0  0  0  0  0
    6.4859  -10.2839    0.0000 C   0  0  2  0  0  0  0  0  0  0  0  0
    6.4859   -9.4589    0.0000 C   0  0  1  0  0  0  0  0  0  0  0  0
    5.7715   -9.0464    0.0000 O   0  0  0  0  0  0  0  0  0  0  0  0
    8.8158   -6.1688    0.0000 O   0  0  0  0  0  0  0  0  0  0  0  0
    2.6374   -6.9579    0.0000 O   0  0  0  0  0  0  0  0  0  0  0  0
    4.6911   -6.2186    0.0000 C   0  0  0  0  0  0  0  0  0  0  0  0
    3.8662   -6.2285    0.0000 C   0  0  0  0  0  0  0  0  0  0  0  0
    3.4623   -6.9479    0.0000 C   0  0  0  0  0  0  0  0  0  0  0  0
    3.8834   -7.6574    0.0000 C   0  0  0  0  0  0  0  0  0  0  0  0
    5.1122   -6.9280    0.0000 C   0  0  0  0  0  0  0  0  0  0  0  0
    4.7083   -7.6474    0.0000 C   0  0  0  0  0  0  0  0  0  0  0  0
    5.9371   -6.9181    0.0000 C   0  0  0  0  0  0  0  0  0  0  0  0
    6.3582   -7.6275    0.0000 C   0  0  0  0  0  0  0  0  0  0  0  0
    8.8330   -7.5977    0.0000 C   0  0  0  0  0  0  0  0  0  0  0  0
    8.4120   -6.8882    0.0000 C   0  0  0  0  0  0  0  0  0  0  0  0
    7.5870   -6.8982    0.0000 C   0  0  0  0  0  0  0  0  0  0  0  0
    7.1832   -7.6176    0.0000 C   0  0  0  0  0  0  0  0  0  0  0  0
    8.8503   -9.0265    0.0000 O   0  0  0  0  0  0  0  0  0  0  0  0
    8.4292   -8.3171    0.0000 C   0  0  0  0  0  0  0  0  0  0  0  0
    7.6043   -8.3270    0.0000 C   0  0  0  0  0  0  0  0  0  0  0  0
    7.2004   -9.0464    0.0000 O   0  0  0  0  0  0  0  0  0  0  0  0
    5.7715  -11.5214    0.0000 O   0  0  0  0  0  0  0  0  0  0  0  0
    7.2004  -10.6964    0.0000 O   0  0  0  0  0  0  0  0  0  0  0  0
    7.6723  -11.3731    0.0000 C   0  0  2  0  0  0  0  0  0  0  0  0
    7.4021  -12.1527    0.0000 O   0  0  0  0  0  0  0  0  0  0  0  0
    8.0600  -12.6505    0.0000 C   0  0  1  0  0  0  0  0  0  0  0  0
    8.7368  -12.1786    0.0000 C   0  0  2  0  0  0  0  0  0  0  0  0
    8.4971  -11.3892    0.0000 C   0  0  2  0  0  0  0  0  0  0  0  0
    7.8858  -10.5762    0.0000 C   0  0  0  0  0  0  0  0  0  0  0  0
    8.9949  -10.7313    0.0000 O   0  0  0  0  0  0  0  0  0  0  0  0
    9.5163  -12.4487    0.0000 O   0  0  0  0  0  0  0  0  0  0  0  0
    8.0440  -13.4753    0.0000 C   0  0  0  0  0  0  0  0  0  0  0  0
    8.7503  -13.9016    0.0000 O   0  0  0  0  0  0  0  0  0  0  0  0
    7.3024   -9.9929    0.0000 O   0  0  0  0  0  0  0  0  0  0  0  0
  3  2  1  6  0  0  0
  3  4  1  0  0  0  0
  4  5  1  1  0  0  0
  5  1  1  0  0  0  0
  3  6  1  0  0  0  0
  6  7  1  0  0  0  0
  7  8  1  0  0  0  0
  8  9  1  0  0  0  0
  9  4  1  0  0  0  0
 21 10  1  0  0  0  0
 14 11  1  0  0  0  0
  8 27  1  1  0  0  0
 12 16  2  0  0  0  0
 13 12  1  0  0  0  0
 14 13  2  0  0  0  0
 15 14  1  0  0  0  0
 17 15  2  0  0  0  0
 16 18  1  0  0  0  0
 17 16  1  0  0  0  0
 19 18  2  0  0  0  0
 23 19  1  0  0  0  0
 20 25  1  0  0  0  0
 21 20  2  0  0  0  0
 22 21  1  0  0  0  0
 23 22  2  0  0  0  0
 26 23  1  0  0  0  0
 25 24  1  0  0  0  0
 26 25  2  0  0  0  0
 27 26  1  0  0  0  0
  6 28  1  1  0  0  0
  7 29  1  6  0  0  0
 30 29  1  1  0  0  0
 30 31  1  0  0  0  0
 31 32  1  0  0  0  0
 32 33  1  0  0  0  0
 33 34  1  0  0  0  0
 34 30  1  0  0  0  0
 30 35  1  6  0  0  0
 34 36  1  1  0  0  0
 33 37  1  6  0  0  0
 32 38  1  1  0  0  0
 38 39  1  0  0  0  0
 35 40  1  0  0  0  0
M  END
>  <cdx:fragmentId>
5

$$$$
