301499.cdx
  Mrv1902 05222410272D          

 31 33  0  0  0  0            999 V2000
    7.4250   -7.9750    0.0000 C   0  0  0  0  0  0  0  0  0  0  0  0
    7.2115   -8.7719    0.0000 C   0  0  1  0  0  0  0  0  0  0  0  0
    7.9259   -9.1844    0.0000 C   0  0  0  0  0  0  0  0  0  0  0  0
    8.6404   -8.7719    0.0000 C   0  0  1  0  0  0  0  0  0  0  0  0
    9.5975   -8.9925    0.0000 O   0  0  0  0  0  0  0  0  0  0  0  0
    9.9550   -8.0300    0.0000 C   0  0  0  0  0  0  0  0  0  0  0  0
    8.9364   -7.7760    0.0000 C   0  0  2  0  0  0  0  0  0  0  0  0
    8.3530   -7.1927    0.0000 C   0  0  1  0  0  0  0  0  0  0  0  0
    8.5665   -6.3958    0.0000 C   0  0  0  0  0  0  0  0  0  0  0  0
    7.6385   -6.7802    0.0000 O   0  0  0  0  0  0  0  0  0  0  0  0
    9.3634   -6.1822    0.0000 C   0  0  0  0  0  0  0  0  0  0  0  0
    9.5769   -5.3854    0.0000 C   0  0  0  0  0  0  0  0  0  0  0  0
    8.9936   -4.8020    0.0000 C   0  0  0  0  0  0  0  0  0  0  0  0
   10.3738   -5.1718    0.0000 C   0  0  0  0  0  0  0  0  0  0  0  0
   10.9572   -5.7552    0.0000 C   0  0  0  0  0  0  0  0  0  0  0  0
   11.7541   -5.5417    0.0000 O   0  0  0  0  0  0  0  0  0  0  0  0
   10.7437   -6.5521    0.0000 O   0  0  0  0  0  0  0  0  0  0  0  0
    9.1499   -6.9791    0.0000 C   0  0  0  0  0  0  0  0  0  0  0  0
    8.4269   -9.5688    0.0000 C   0  0  0  0  0  0  0  0  0  0  0  0
    6.4970   -9.1844    0.0000 O   0  0  0  0  0  0  0  0  0  0  0  0
    5.7825   -8.7719    0.0000 C   0  0  2  0  0  0  0  0  0  0  0  0
    5.7825   -7.9469    0.0000 O   0  0  0  0  0  0  0  0  0  0  0  0
    5.0681   -7.5344    0.0000 C   0  0  1  0  0  0  0  0  0  0  0  0
    4.3536   -7.9469    0.0000 C   0  0  2  0  0  0  0  0  0  0  0  0
    4.3536   -8.7719    0.0000 C   0  0  1  0  0  0  0  0  0  0  0  0
    5.0681   -9.1844    0.0000 C   0  0  1  0  0  0  0  0  0  0  0  0
    5.0681   -6.7094    0.0000 C   0  0  0  0  0  0  0  0  0  0  0  0
    3.6391   -9.1844    0.0000 O   0  0  0  0  0  0  0  0  0  0  0  0
    5.0681  -10.0094    0.0000 O   0  0  0  0  0  0  0  0  0  0  0  0
    3.6391   -7.5344    0.0000 O   0  0  0  0  0  0  0  0  0  0  0  0
    4.3536   -6.2969    0.0000 O   0  0  0  0  0  0  0  0  0  0  0  0
  1  2  1  0  0  0  0
  2  3  1  0  0  0  0
  3  4  1  0  0  0  0
  4  5  1  0  0  0  0
  5  6  1  0  0  0  0
  6  7  1  0  0  0  0
  7  1  1  0  0  0  0
  7  8  1  0  0  0  0
  8  4  1  0  0  0  0
  8  9  1  0  0  0  0
  8 10  1  1  0  0  0
  9 11  2  0  0  0  0
 11 12  1  0  0  0  0
 12 13  1  0  0  0  0
 12 14  2  0  0  0  0
 14 15  1  0  0  0  0
 15 16  1  0  0  0  0
 15 17  2  0  0  0  0
  7 18  1  6  0  0  0
  4 19  1  1  0  0  0
  2 20  1  1  0  0  0
 21 20  1  1  0  0  0
 21 22  1  0  0  0  0
 22 23  1  0  0  0  0
 23 24  1  0  0  0  0
 24 25  1  0  0  0  0
 25 26  1  0  0  0  0
 26 21  1  0  0  0  0
 23 27  1  1  0  0  0
 25 28  1  1  0  0  0
 26 29  1  6  0  0  0
 24 30  1  6  0  0  0
 27 31  1  0  0  0  0
M  END
>  <cdx:fragmentId>
325

$$$$
