301420.cdx
  Mrv1902 05222410212D          

 34 36  0  0  0  0            999 V2000
    3.4954   -6.0241    0.0000 C   0  0  0  0  0  0  0  0  0  0  0  0
    3.4954   -5.1991    0.0000 C   0  0  0  0  0  0  0  0  0  0  0  0
    4.2099   -4.7866    0.0000 C   0  0  2  0  0  0  0  0  0  0  0  0
    4.9244   -5.1991    0.0000 C   0  0  2  0  0  0  0  0  0  0  0  0
    4.9244   -6.0241    0.0000 C   0  0  1  0  0  0  0  0  0  0  0  0
    4.2099   -6.4366    0.0000 C   0  0  0  0  0  0  0  0  0  0  0  0
    2.7809   -6.4366    0.0000 C   0  0  0  0  0  0  0  0  0  0  0  0
    2.7809   -7.2616    0.0000 O   0  0  0  0  0  0  0  0  0  0  0  0
    2.0665   -6.0241    0.0000 O   0  0  0  0  0  0  0  0  0  0  0  0
    5.6388   -4.7866    0.0000 O   0  0  0  0  0  0  0  0  0  0  0  0
    4.2099   -3.9616    0.0000 O   0  0  0  0  0  0  0  0  0  0  0  0
    5.6388   -6.4366    0.0000 O   0  0  0  0  0  0  0  0  0  0  0  0
    6.3533   -6.0241    0.0000 C   0  0  0  0  0  0  0  0  0  0  0  0
    7.0678   -6.4366    0.0000 C   0  0  0  0  0  0  0  0  0  0  0  0
    7.0678   -7.2616    0.0000 C   0  0  0  0  0  0  0  0  0  0  0  0
    7.7822   -7.6741    0.0000 C   0  0  0  0  0  0  0  0  0  0  0  0
    8.4967   -7.2616    0.0000 C   0  0  0  0  0  0  0  0  0  0  0  0
    8.4967   -6.4366    0.0000 C   0  0  0  0  0  0  0  0  0  0  0  0
    7.7822   -6.0241    0.0000 C   0  0  0  0  0  0  0  0  0  0  0  0
    6.3533   -5.1991    0.0000 O   0  0  0  0  0  0  0  0  0  0  0  0
    9.2112   -6.0241    0.0000 O   0  0  0  0  0  0  0  0  0  0  0  0
    9.9256   -6.4366    0.0000 C   0  0  0  0  0  0  0  0  0  0  0  0
   10.6401   -6.0241    0.0000 C   0  0  0  0  0  0  0  0  0  0  0  0
   11.3546   -6.4366    0.0000 C   0  0  0  0  0  0  0  0  0  0  0  0
   12.0691   -6.0241    0.0000 C   0  0  0  0  0  0  0  0  0  0  0  0
   12.0691   -5.1991    0.0000 C   0  0  0  0  0  0  0  0  0  0  0  0
   11.3546   -4.7866    0.0000 C   0  0  0  0  0  0  0  0  0  0  0  0
   10.6401   -5.1991    0.0000 C   0  0  0  0  0  0  0  0  0  0  0  0
    9.9256   -7.2616    0.0000 O   0  0  0  0  0  0  0  0  0  0  0  0
   11.3546   -3.9616    0.0000 O   0  0  0  0  0  0  0  0  0  0  0  0
   12.7835   -4.7866    0.0000 O   0  0  0  0  0  0  0  0  0  0  0  0
   12.7835   -6.4366    0.0000 O   0  0  0  0  0  0  0  0  0  0  0  0
    9.2112   -7.6741    0.0000 O   0  0  0  0  0  0  0  0  0  0  0  0
    7.7822   -8.4991    0.0000 O   0  0  0  0  0  0  0  0  0  0  0  0
  1  2  2  0  0  0  0
  2  3  1  0  0  0  0
  3  4  1  0  0  0  0
  4  5  1  0  0  0  0
  5  6  1  0  0  0  0
  1  6  1  0  0  0  0
  7  8  2  0  0  0  0
  7  9  1  0  0  0  0
  1  7  1  0  0  0  0
  4 10  1  1  0  0  0
  3 11  1  1  0  0  0
 13 14  1  0  0  0  0
 14 15  1  0  0  0  0
 15 16  2  0  0  0  0
 16 17  1  0  0  0  0
 17 18  2  0  0  0  0
 18 19  1  0  0  0  0
 14 19  2  0  0  0  0
 13 20  2  0  0  0  0
 22 23  1  0  0  0  0
 23 24  1  0  0  0  0
 24 25  2  0  0  0  0
 25 26  1  0  0  0  0
 26 27  2  0  0  0  0
 27 28  1  0  0  0  0
 23 28  2  0  0  0  0
 22 29  2  0  0  0  0
 27 30  1  0  0  0  0
 26 31  1  0  0  0  0
 25 32  1  0  0  0  0
 21 22  1  0  0  0  0
 18 21  1  0  0  0  0
 17 33  1  0  0  0  0
 16 34  1  0  0  0  0
 12 13  1  0  0  0  0
  5 12  1  6  0  0  0
M  END
>  <cdx:groupId>
131

>  <cdx:fragmentId>
72

$$$$
