301492.cdx
  Mrv1902 05222410202D          

 12 11  0  0  0  0            999 V2000
    4.9209   -5.9773    0.0000 C   0  0  0  0  0  0  0  0  0  0  0  0
    5.6354   -7.2148    0.0000 C   0  0  0  0  0  0  0  0  0  0  0  0
    5.6354   -6.3898    0.0000 C   0  0  0  0  0  0  0  0  0  0  0  0
    6.3499   -5.9773    0.0000 C   0  0  0  0  0  0  0  0  0  0  0  0
    7.0643   -6.3898    0.0000 C   0  0  0  0  0  0  0  0  0  0  0  0
    9.2077   -5.1523    0.0000 C   0  0  0  0  0  0  0  0  0  0  0  0
    7.7788   -5.9773    0.0000 O   0  0  0  0  0  0  0  0  0  0  0  0
    8.4933   -7.2148    0.0000 O   0  0  0  0  0  0  0  0  0  0  0  0
    9.9222   -7.2148    0.0000 C   0  0  0  0  0  0  0  0  0  0  0  0
    9.9222   -6.3898    0.0000 C   0  0  0  0  0  0  0  0  0  0  0  0
    9.2077   -5.9773    0.0000 C   0  0  0  0  0  0  0  0  0  0  0  0
    8.4933   -6.3898    0.0000 C   0  0  0  0  0  0  0  0  0  0  0  0
  7  5  1  0  0  0  0
  3  1  1  0  0  0  0
  3  2  1  0  0  0  0
  4  3  1  0  0  0  0
  5  4  1  0  0  0  0
 11  6  1  0  0  0  0
 12  7  1  0  0  0  0
 12  8  2  0  0  0  0
 10  9  1  0  0  0  0
 11 10  2  0  0  0  0
 12 11  1  0  0  0  0
M  END
>  <cdx:fragmentId>
469

$$$$
