301486.cdx
  Mrv1902 05222410202D          

 20 21  0  0  0  0            999 V2000
    8.3472   -5.6113    0.0000 C   0  0  2  0  0  0  0  0  0  0  0  0
    9.0617   -6.0238    0.0000 C   0  0  2  0  0  0  0  0  0  0  0  0
    9.0617   -6.8488    0.0000 C   0  0  0  0  0  0  0  0  0  0  0  0
    8.3472   -7.2613    0.0000 C   0  0  0  0  0  0  0  0  0  0  0  0
    7.6327   -6.8488    0.0000 C   0  0  2  0  0  0  0  0  0  0  0  0
    6.9183   -7.2613    0.0000 C   0  0  0  0  0  0  0  0  0  0  0  0
    6.2038   -6.8488    0.0000 C   0  0  2  0  0  0  0  0  0  0  0  0
    6.2038   -6.0238    0.0000 C   0  0  2  0  0  0  0  0  0  0  0  0
    6.9183   -5.6113    0.0000 C   0  0  0  0  0  0  0  0  0  0  0  0
    7.6327   -6.0238    0.0000 C   0  0  1  0  0  0  0  0  0  0  0  0
    7.9347   -4.8969    0.0000 O   0  0  0  0  0  0  0  0  0  0  0  0
    9.7762   -5.6113    0.0000 O   0  0  0  0  0  0  0  0  0  0  0  0
    5.4893   -7.2613    0.0000 O   0  0  0  0  0  0  0  0  0  0  0  0
    6.2038   -5.1988    0.0000 O   0  0  0  0  0  0  0  0  0  0  0  0
    5.4893   -4.7863    0.0000 C   0  0  0  0  0  0  0  0  0  0  0  0
    5.4893   -5.6113    0.0000 C   0  0  0  0  0  0  0  0  0  0  0  0
    4.7749   -6.0238    0.0000 C   0  0  0  0  0  0  0  0  0  0  0  0
    7.6327   -7.6738    0.0000 C   0  0  0  0  0  0  0  0  0  0  0  0
    8.7597   -4.8969    0.0000 C   0  0  0  0  0  0  0  0  0  0  0  0
    7.6327   -5.1988    0.0000 H   0  0  0  0  0  0  0  0  0  0  0  0
  1  2  1  0  0  0  0
  2  3  1  0  0  0  0
  3  4  1  0  0  0  0
  4  5  1  0  0  0  0
  5  6  1  0  0  0  0
  6  7  1  0  0  0  0
  7  8  1  0  0  0  0
  8  9  1  0  0  0  0
  9 10  1  0  0  0  0
  1 10  1  0  0  0  0
  5 10  1  0  0  0  0
  1 11  1  6  0  0  0
  2 12  1  1  0  0  0
  7 13  1  1  0  0  0
  8 14  1  1  0  0  0
 15 16  2  0  0  0  0
 16 17  1  0  0  0  0
  8 16  1  0  0  0  0
  5 18  1  1  0  0  0
  1 19  1  1  0  0  0
 10 20  1  6  0  0  0
M  END
>  <cdx:groupId>
328

>  <cdx:fragmentId>
270

$$$$
