301496.cdx
  Mrv1902 05222410182D          

 14 15  0  0  0  0            999 V2000
    6.3499   -6.7888    0.0000 C   0  0  0  0  0  0  0  0  0  0  0  0
    6.3499   -5.9638    0.0000 C   0  0  0  0  0  0  0  0  0  0  0  0
    7.0643   -5.5513    0.0000 C   0  0  0  0  0  0  0  0  0  0  0  0
    7.7788   -5.9638    0.0000 C   0  0  0  0  0  0  0  0  0  0  0  0
    8.4933   -5.5513    0.0000 C   0  0  0  0  0  0  0  0  0  0  0  0
    9.2077   -5.9638    0.0000 C   0  0  0  0  0  0  0  0  0  0  0  0
    9.2077   -6.7888    0.0000 C   0  0  0  0  0  0  0  0  0  0  0  0
    8.4933   -7.2013    0.0000 C   0  0  0  0  0  0  0  0  0  0  0  0
    7.7788   -6.7888    0.0000 C   0  0  0  0  0  0  0  0  0  0  0  0
    7.0643   -7.2013    0.0000 O   0  0  0  0  0  0  0  0  0  0  0  0
    7.7788   -7.6138    0.0000 C   0  0  0  0  0  0  0  0  0  0  0  0
    8.0808   -4.8368    0.0000 C   0  0  0  0  0  0  0  0  0  0  0  0
    8.9058   -4.8368    0.0000 C   0  0  0  0  0  0  0  0  0  0  0  0
    5.6354   -7.2013    0.0000 C   0  0  0  0  0  0  0  0  0  0  0  0
  1  2  1  0  0  0  0
  2  3  1  0  0  0  0
  3  4  1  0  0  0  0
  4  5  1  0  0  0  0
  5  6  1  0  0  0  0
  6  7  1  0  0  0  0
  7  8  2  0  0  0  0
  8  9  1  0  0  0  0
  4  9  1  0  0  0  0
  9 10  1  0  0  0  0
  1 10  1  0  0  0  0
  9 11  1  0  0  0  0
  5 12  1  0  0  0  0
  5 13  1  0  0  0  0
  1 14  1  0  0  0  0
M  END
>  <cdx:groupId>
45

>  <cdx:fragmentId>
5

$$$$
