301436.cdx
  Mrv1902 05222410212D          

 78 84  0  0  0  0            999 V2000
    9.6321   -4.5537    0.0000 C   0  0  0  0  0  0  0  0  0  0  0  0
    8.7156   -5.7945    0.0000 C   0  0  0  0  0  0  0  0  0  0  0  0
   10.4472   -4.6810    0.0000 C   0  0  0  0  0  0  0  0  0  0  0  0
   10.7446   -5.4506    0.0000 C   0  0  0  0  0  0  0  0  0  0  0  0
   11.5597   -5.5778    0.0000 C   0  0  0  0  0  0  0  0  0  0  0  0
   12.0775   -4.9356    0.0000 C   0  0  0  0  0  0  0  0  0  0  0  0
   11.7801   -4.1660    0.0000 C   0  0  0  0  0  0  0  0  0  0  0  0
   10.9650   -4.0387    0.0000 C   0  0  0  0  0  0  0  0  0  0  0  0
   12.2979   -3.5237    0.0000 O   0  0  0  0  0  0  0  0  0  0  0  0
   12.8926   -5.0628    0.0000 O   0  0  0  0  0  0  0  0  0  0  0  0
   11.8570   -6.3474    0.0000 O   0  0  0  0  0  0  0  0  0  0  0  0
    6.9335   -5.2306    0.0000 O   0  0  0  0  0  0  0  0  0  0  0  0
    7.6559   -5.6290    0.0000 C   0  0  1  0  0  0  0  0  0  0  0  0
    7.6721   -6.4538    0.0000 C   0  0  1  0  0  0  0  0  0  0  0  0
    6.9659   -6.8803    0.0000 C   0  0  2  0  0  0  0  0  0  0  0  0
    6.2434   -6.4819    0.0000 C   0  0  1  0  0  0  0  0  0  0  0  0
    6.2272   -5.6571    0.0000 C   0  0  0  0  0  0  0  0  0  0  0  0
    5.4121   -5.5298    0.0000 C   0  0  0  0  0  0  0  0  0  0  0  0
    4.9364   -4.2985    0.0000 C   0  0  0  0  0  0  0  0  0  0  0  0
    4.1212   -4.1713    0.0000 C   0  0  0  0  0  0  0  0  0  0  0  0
    3.8239   -3.4017    0.0000 C   0  0  0  0  0  0  0  0  0  0  0  0
    4.3417   -2.7594    0.0000 C   0  0  0  0  0  0  0  0  0  0  0  0
    5.1568   -2.8867    0.0000 C   0  0  0  0  0  0  0  0  0  0  0  0
    5.4541   -3.6562    0.0000 C   0  0  0  0  0  0  0  0  0  0  0  0
    4.8943   -6.1721    0.0000 O   0  0  0  0  0  0  0  0  0  0  0  0
    5.6746   -2.2444    0.0000 O   0  0  0  0  0  0  0  0  0  0  0  0
    4.0443   -1.9899    0.0000 O   0  0  0  0  0  0  0  0  0  0  0  0
    3.0088   -3.2744    0.0000 O   0  0  0  0  0  0  0  0  0  0  0  0
    5.6220   -7.0245    0.0000 C   0  0  0  0  0  0  0  0  0  0  0  0
    4.8069   -6.8973    0.0000 C   0  0  0  0  0  0  0  0  0  0  0  0
    4.4085   -7.6197    0.0000 C   0  0  0  0  0  0  0  0  0  0  0  0
    3.5837   -7.6359    0.0000 C   0  0  0  0  0  0  0  0  0  0  0  0
    3.1572   -6.9297    0.0000 C   0  0  0  0  0  0  0  0  0  0  0  0
    3.5556   -6.2072    0.0000 C   0  0  0  0  0  0  0  0  0  0  0  0
    4.3804   -6.1910    0.0000 C   0  0  0  0  0  0  0  0  0  0  0  0
    5.8511   -7.8171    0.0000 O   0  0  0  0  0  0  0  0  0  0  0  0
    3.1291   -5.5010    0.0000 O   0  0  0  0  0  0  0  0  0  0  0  0
    2.3324   -6.9459    0.0000 O   0  0  0  0  0  0  0  0  0  0  0  0
    3.1853   -8.3584    0.0000 O   0  0  0  0  0  0  0  0  0  0  0  0
    6.9918   -8.2001    0.0000 C   0  0  0  0  0  0  0  0  0  0  0  0
    6.2856   -8.6265    0.0000 C   0  0  0  0  0  0  0  0  0  0  0  0
    5.5632   -8.2281    0.0000 C   0  0  0  0  0  0  0  0  0  0  0  0
    4.8569   -8.6546    0.0000 C   0  0  0  0  0  0  0  0  0  0  0  0
    4.8731   -9.4794    0.0000 C   0  0  0  0  0  0  0  0  0  0  0  0
    5.5956   -9.8778    0.0000 C   0  0  0  0  0  0  0  0  0  0  0  0
    6.3018   -9.4514    0.0000 C   0  0  0  0  0  0  0  0  0  0  0  0
    7.7143   -8.5984    0.0000 O   0  0  0  0  0  0  0  0  0  0  0  0
    5.6118  -10.7026    0.0000 O   0  0  0  0  0  0  0  0  0  0  0  0
    4.1669   -9.9059    0.0000 O   0  0  0  0  0  0  0  0  0  0  0  0
    4.1345   -8.2562    0.0000 O   0  0  0  0  0  0  0  0  0  0  0  0
    9.2615   -7.3303    0.0000 C   0  0  0  0  0  0  0  0  0  0  0  0
    9.2825   -8.4026    0.0000 C   0  0  0  0  0  0  0  0  0  0  0  0
    8.5763   -8.8290    0.0000 C   0  0  0  0  0  0  0  0  0  0  0  0
    8.5925   -9.6539    0.0000 C   0  0  0  0  0  0  0  0  0  0  0  0
    9.3150  -10.0523    0.0000 C   0  0  0  0  0  0  0  0  0  0  0  0
   10.0212   -9.6258    0.0000 C   0  0  0  0  0  0  0  0  0  0  0  0
   10.0050   -8.8010    0.0000 C   0  0  0  0  0  0  0  0  0  0  0  0
    9.9677   -6.9038    0.0000 O   0  0  0  0  0  0  0  0  0  0  0  0
   10.7436  -10.0242    0.0000 O   0  0  0  0  0  0  0  0  0  0  0  0
    9.3312  -10.8771    0.0000 O   0  0  0  0  0  0  0  0  0  0  0  0
    7.8863  -10.0803    0.0000 O   0  0  0  0  0  0  0  0  0  0  0  0
    8.3916   -4.5331    0.0000 C   0  0  0  0  0  0  0  0  0  0  0  0
    8.0284   -3.7924    0.0000 C   0  0  0  0  0  0  0  0  0  0  0  0
    7.2052   -3.7366    0.0000 C   0  0  0  0  0  0  0  0  0  0  0  0
    6.8420   -2.9959    0.0000 C   0  0  0  0  0  0  0  0  0  0  0  0
    7.3018   -2.3109    0.0000 C   0  0  0  0  0  0  0  0  0  0  0  0
    8.1249   -2.3667    0.0000 C   0  0  0  0  0  0  0  0  0  0  0  0
    8.4882   -3.1074    0.0000 C   0  0  0  0  0  0  0  0  0  0  0  0
    9.2147   -4.5888    0.0000 O   0  0  0  0  0  0  0  0  0  0  0  0
    8.5847   -1.6817    0.0000 O   0  0  0  0  0  0  0  0  0  0  0  0
    6.9385   -1.5702    0.0000 O   0  0  0  0  0  0  0  0  0  0  0  0
    6.0188   -2.9402    0.0000 O   0  0  0  0  0  0  0  0  0  0  0  0
    6.0680   -4.8476    0.0000 O   0  0  0  0  0  0  0  0  0  0  0  0
    5.4890   -6.1480    0.0000 O   0  0  0  0  0  0  0  0  0  0  0  0
    6.2597   -7.3068    0.0000 O   0  0  0  0  0  0  0  0  0  0  0  0
    7.6883   -7.2787    0.0000 O   0  0  0  0  0  0  0  0  0  0  0  0
    9.0129   -6.5640    0.0000 O   0  0  0  0  0  0  0  0  0  0  0  0
    9.3348   -3.7842    0.0000 O   0  0  0  0  0  0  0  0  0  0  0  0
  1  2  1  0  0  0  0
  3  4  1  0  0  0  0
  4  5  2  0  0  0  0
  5  6  1  0  0  0  0
  6  7  2  0  0  0  0
  7  8  1  0  0  0  0
  3  8  2  0  0  0  0
  7  9  1  0  0  0  0
  6 10  1  0  0  0  0
  5 11  1  0  0  0  0
  1  3  1  0  0  0  0
 12 13  1  0  0  0  0
 13 14  1  0  0  0  0
 14 15  1  0  0  0  0
 15 16  1  0  0  0  0
 16 17  1  0  0  0  0
 12 17  1  0  0  0  0
 18 19  1  0  0  0  0
 19 20  1  0  0  0  0
 20 21  2  0  0  0  0
 21 22  1  0  0  0  0
 22 23  2  0  0  0  0
 23 24  1  0  0  0  0
 19 24  2  0  0  0  0
 18 25  2  0  0  0  0
 23 26  1  0  0  0  0
 22 27  1  0  0  0  0
 21 28  1  0  0  0  0
 17 18  1  0  0  0  0
 29 30  1  0  0  0  0
 30 31  1  0  0  0  0
 31 32  2  0  0  0  0
 32 33  1  0  0  0  0
 33 34  2  0  0  0  0
 34 35  1  0  0  0  0
 30 35  2  0  0  0  0
 29 36  2  0  0  0  0
 34 37  1  0  0  0  0
 33 38  1  0  0  0  0
 32 39  1  0  0  0  0
 16 29  1  0  0  0  0
 40 41  1  0  0  0  0
 41 42  1  0  0  0  0
 42 43  2  0  0  0  0
 43 44  1  0  0  0  0
 44 45  2  0  0  0  0
 45 46  1  0  0  0  0
 41 46  2  0  0  0  0
 40 47  2  0  0  0  0
 45 48  1  0  0  0  0
 44 49  1  0  0  0  0
 43 50  1  0  0  0  0
 15 40  1  0  0  0  0
 51 52  1  0  0  0  0
 52 53  1  0  0  0  0
 53 54  2  0  0  0  0
 54 55  1  0  0  0  0
 55 56  2  0  0  0  0
 56 57  1  0  0  0  0
 52 57  2  0  0  0  0
 51 58  2  0  0  0  0
 56 59  1  0  0  0  0
 55 60  1  0  0  0  0
 54 61  1  0  0  0  0
 14 51  1  0  0  0  0
 62 63  1  0  0  0  0
 63 64  1  0  0  0  0
 64 65  2  0  0  0  0
 65 66  1  0  0  0  0
 66 67  2  0  0  0  0
 67 68  1  0  0  0  0
 63 68  2  0  0  0  0
 62 69  2  0  0  0  0
 67 70  1  0  0  0  0
 66 71  1  0  0  0  0
 65 72  1  0  0  0  0
 13 62  1  1  0  0  0
 17 73  1  0  0  0  0
 16 74  1  1  0  0  0
 15 75  1  6  0  0  0
 14 76  1  1  0  0  0
  2 13  1  0  0  0  0
  2 77  1  0  0  0  0
  1 78  2  0  0  0  0
M  END
>  <cdx:groupId>
1146

>  <cdx:fragmentId>
943

$$$$
