301433.cdx
  Mrv1902 05222410232D          

 12 12  0  0  0  0            999 V2000
    8.0503   -8.5530    0.0000 C   0  0  0  0  0  0  0  0  0  0  0  0
    8.0518   -9.3780    0.0000 C   0  0  0  0  0  0  0  0  0  0  0  0
    7.3381   -9.7918    0.0000 C   0  0  0  0  0  0  0  0  0  0  0  0
    6.6229   -9.3805    0.0000 C   0  0  0  0  0  0  0  0  0  0  0  0
    6.6214   -8.5555    0.0000 C   0  0  0  0  0  0  0  0  0  0  0  0
    7.3351   -8.1418    0.0000 O   0  0  0  0  0  0  0  0  0  0  0  0
    8.7670   -9.7892    0.0000 O   0  0  0  0  0  0  0  0  0  0  0  0
    6.2076   -7.8418    0.0000 C   0  0  0  0  0  0  0  0  0  0  0  0
    5.3826   -7.8433    0.0000 C   0  0  0  0  0  0  0  0  0  0  0  0
    5.7964   -8.5570    0.0000 C   0  0  0  0  0  0  0  0  0  0  0  0
    8.4616   -7.8378    0.0000 C   0  0  0  0  0  0  0  0  0  0  0  0
    8.8753   -8.5515    0.0000 C   0  0  0  0  0  0  0  0  0  0  0  0
  1  2  1  0  0  0  0
  2  3  1  0  0  0  0
  3  4  1  0  0  0  0
  4  5  1  0  0  0  0
  5  6  1  0  0  0  0
  1  6  1  0  0  0  0
  2  7  2  0  0  0  0
  8  9  2  0  0  0  0
  5  8  1  0  0  0  0
  5 10  1  0  0  0  0
  1 11  1  0  0  0  0
  1 12  1  0  0  0  0
M  END
>  <cdx:fragmentId>
5

$$$$
