301438.cdx
  Mrv1902 05222410242D          

 15 16  0  0  0  0            999 V2000
    9.0617   -5.2462    0.0000 C   0  0  0  0  0  0  0  0  0  0  0  0
    9.0617   -6.0712    0.0000 C   0  0  0  0  0  0  0  0  0  0  0  0
    8.3472   -6.4837    0.0000 C   0  0  0  0  0  0  0  0  0  0  0  0
    7.6327   -6.0712    0.0000 C   0  0  0  0  0  0  0  0  0  0  0  0
    7.6327   -5.2462    0.0000 C   0  0  0  0  0  0  0  0  0  0  0  0
    8.3472   -4.8337    0.0000 C   0  0  0  0  0  0  0  0  0  0  0  0
    9.7762   -4.8337    0.0000 O   0  0  0  0  0  0  0  0  0  0  0  0
    9.7762   -6.4837    0.0000 O   0  0  0  0  0  0  0  0  0  0  0  0
    5.4893   -7.3087    0.0000 N   0  0  0  0  0  0  0  0  0  0  0  0
    5.4893   -6.4837    0.0000 C   0  0  0  0  0  0  0  0  0  0  0  0
    6.2038   -6.0712    0.0000 C   0  0  0  0  0  0  0  0  0  0  0  0
    6.9183   -6.4837    0.0000 C   0  0  0  0  0  0  0  0  0  0  0  0
    6.9183   -7.3087    0.0000 C   0  0  0  0  0  0  0  0  0  0  0  0
    6.2038   -7.7212    0.0000 C   0  0  0  0  0  0  0  0  0  0  0  0
    4.7749   -7.7212    0.0000 C   0  0  0  0  0  0  0  0  0  0  0  0
  1  2  1  0  0  0  0
  2  3  2  0  0  0  0
  3  4  1  0  0  0  0
  4  5  2  0  0  0  0
  5  6  1  0  0  0  0
  1  6  2  0  0  0  0
  1  7  1  0  0  0  0
  2  8  1  0  0  0  0
  9 10  1  0  0  0  0
 10 11  1  0  0  0  0
 11 12  1  0  0  0  0
 12 13  1  0  0  0  0
 13 14  1  0  0  0  0
  9 14  1  0  0  0  0
  9 15  1  0  0  0  0
  4 12  1  0  0  0  0
M  END
>  <cdx:groupId>
1274

>  <cdx:fragmentId>
1231

$$$$
