3014.cdx
  Mrv1902 05222410252D          

 18 20  0  0  0  0            999 V2000
    8.4112   -8.1489    0.0000 C   0  0  0  0  0  0  0  0  0  0  0  0
    8.9632   -8.7620    0.0000 N   0  0  0  0  0  0  0  0  0  0  0  0
    8.7083   -9.5466    0.0000 C   0  0  0  0  0  0  0  0  0  0  0  0
    7.9013   -9.7181    0.0000 C   0  0  0  0  0  0  0  0  0  0  0  0
    7.3493   -9.1050    0.0000 C   0  0  0  0  0  0  0  0  0  0  0  0
    6.5243   -9.1050    0.0000 C   0  0  0  0  0  0  0  0  0  0  0  0
    5.9722   -9.7181    0.0000 C   0  0  0  0  0  0  0  0  0  0  0  0
    5.1653   -9.5466    0.0000 C   0  0  0  0  0  0  0  0  0  0  0  0
    4.9103   -8.7620    0.0000 C   0  0  0  0  0  0  0  0  0  0  0  0
    5.4623   -8.1489    0.0000 C   0  0  0  0  0  0  0  0  0  0  0  0
    6.2693   -8.3204    0.0000 C   0  0  0  0  0  0  0  0  0  0  0  0
    6.9368   -7.8355    0.0000 N   0  0  0  0  0  0  0  0  0  0  0  0
    7.6042   -8.3204    0.0000 C   0  0  0  0  0  0  0  0  0  0  0  0
    8.6661   -7.3643    0.0000 C   0  0  0  0  0  0  0  0  0  0  0  0
    9.4731   -7.1927    0.0000 O   0  0  0  0  0  0  0  0  0  0  0  0
    8.1141   -6.7512    0.0000 O   0  0  0  0  0  0  0  0  0  0  0  0
    9.7280   -6.4081    0.0000 C   0  0  0  0  0  0  0  0  0  0  0  0
   10.5350   -6.2366    0.0000 C   0  0  0  0  0  0  0  0  0  0  0  0
  1  2  2  0  0  0  0
  2  3  1  0  0  0  0
  3  4  2  0  0  0  0
  4  5  1  0  0  0  0
  5  6  1  0  0  0  0
  6  7  1  0  0  0  0
  7  8  2  0  0  0  0
  8  9  1  0  0  0  0
  9 10  2  0  0  0  0
 10 11  1  0  0  0  0
  6 11  2  0  0  0  0
 11 12  1  0  0  0  0
 12 13  1  0  0  0  0
  5 13  2  0  0  0  0
  1 13  1  0  0  0  0
 14 15  1  0  0  0  0
  1 14  1  0  0  0  0
 14 16  2  0  0  0  0
 15 17  1  0  0  0  0
 17 18  1  0  0  0  0
M  END
>  <cdx:groupId>
49

>  <cdx:fragmentId>
97

$$$$
