301439.cdx
  Mrv1902 05222410252D          

 26 25  0  0  0  0            999 V2000
   10.0224   -6.4366    0.0000 C   0  0  0  0  0  0  0  0  0  0  0  0
    9.3080   -6.0241    0.0000 C   0  0  0  0  0  0  0  0  0  0  0  0
    8.5935   -6.4366    0.0000 C   0  0  0  0  0  0  0  0  0  0  0  0
    7.8790   -6.0241    0.0000 C   0  0  0  0  0  0  0  0  0  0  0  0
    7.1645   -6.4366    0.0000 C   0  0  0  0  0  0  0  0  0  0  0  0
    6.4501   -6.0241    0.0000 C   0  0  0  0  0  0  0  0  0  0  0  0
   10.0224   -7.2616    0.0000 O   0  0  0  0  0  0  0  0  0  0  0  0
   10.7369   -6.0241    0.0000 O   0  0  0  0  0  0  0  0  0  0  0  0
    6.4501   -5.1991    0.0000 O   0  0  0  0  0  0  0  0  0  0  0  0
    5.7356   -6.4366    0.0000 O   0  0  0  0  0  0  0  0  0  0  0  0
   11.4514   -6.4366    0.0000 C   0  0  0  0  0  0  0  0  0  0  0  0
   12.1658   -6.0241    0.0000 C   0  0  0  0  0  0  0  0  0  0  0  0
   12.8803   -6.4366    0.0000 C   0  0  0  0  0  0  0  0  0  0  0  0
   13.5948   -6.0241    0.0000 C   0  0  0  0  0  0  0  0  0  0  0  0
   14.3093   -6.4366    0.0000 C   0  0  0  0  0  0  0  0  0  0  0  0
   15.0237   -6.0241    0.0000 C   0  0  0  0  0  0  0  0  0  0  0  0
   15.7382   -6.4366    0.0000 C   0  0  0  0  0  0  0  0  0  0  0  0
   16.4527   -6.0241    0.0000 C   0  0  0  0  0  0  0  0  0  0  0  0
    5.0211   -6.0241    0.0000 C   0  0  0  0  0  0  0  0  0  0  0  0
    4.3067   -6.4366    0.0000 C   0  0  0  0  0  0  0  0  0  0  0  0
    3.5922   -6.0241    0.0000 C   0  0  0  0  0  0  0  0  0  0  0  0
    2.8777   -6.4366    0.0000 C   0  0  0  0  0  0  0  0  0  0  0  0
    2.1632   -6.0241    0.0000 C   0  0  0  0  0  0  0  0  0  0  0  0
    1.4488   -6.4366    0.0000 C   0  0  0  0  0  0  0  0  0  0  0  0
    0.7343   -6.0241    0.0000 C   0  0  0  0  0  0  0  0  0  0  0  0
    0.0198   -6.4366    0.0000 C   0  0  0  0  0  0  0  0  0  0  0  0
  1  2  1  0  0  0  0
  2  3  1  0  0  0  0
  3  4  1  0  0  0  0
  4  5  1  0  0  0  0
  5  6  1  0  0  0  0
  1  7  2  0  0  0  0
  1  8  1  0  0  0  0
  6  9  2  0  0  0  0
  6 10  1  0  0  0  0
 11 12  1  0  0  0  0
 12 13  1  0  0  0  0
 13 14  1  0  0  0  0
 14 15  1  0  0  0  0
 15 16  1  0  0  0  0
 16 17  1  0  0  0  0
 17 18  1  0  0  0  0
  8 11  1  0  0  0  0
 19 20  1  0  0  0  0
 20 21  1  0  0  0  0
 21 22  1  0  0  0  0
 22 23  1  0  0  0  0
 23 24  1  0  0  0  0
 24 25  1  0  0  0  0
 25 26  1  0  0  0  0
 10 19  1  0  0  0  0
M  END
>  <cdx:groupId>
1354

>  <cdx:fragmentId>
1280

$$$$
