30142.cdx
  Mrv1902 05222410212D          

 40 43  0  0  0  0            999 V2000
    6.6806   -9.6239    0.0000 O   0  0  0  0  0  0  0  0  0  0  0  0
    7.3950  -10.8614    0.0000 O   0  0  0  0  0  0  0  0  0  0  0  0
    8.1095  -10.4489    0.0000 C   0  0  2  0  0  0  0  0  0  0  0  0
    8.1095   -9.6239    0.0000 C   0  0  1  0  0  0  0  0  0  0  0  0
    7.3950   -9.2114    0.0000 C   0  0  0  0  0  0  0  0  0  0  0  0
    8.8240  -10.8614    0.0000 C   0  0  1  0  0  0  0  0  0  0  0  0
    9.5384  -10.4489    0.0000 C   0  0  2  0  0  0  0  0  0  0  0  0
    9.5384   -9.6239    0.0000 C   0  0  1  0  0  0  0  0  0  0  0  0
    8.8240   -9.2114    0.0000 O   0  0  0  0  0  0  0  0  0  0  0  0
   11.8683   -6.3338    0.0000 O   0  0  0  0  0  0  0  0  0  0  0  0
    5.6899   -7.1229    0.0000 O   0  0  0  0  0  0  0  0  0  0  0  0
    7.7436   -6.3836    0.0000 C   0  0  0  0  0  0  0  0  0  0  0  0
    6.9187   -6.3935    0.0000 C   0  0  0  0  0  0  0  0  0  0  0  0
    6.5148   -7.1129    0.0000 C   0  0  0  0  0  0  0  0  0  0  0  0
    6.9359   -7.8224    0.0000 C   0  0  0  0  0  0  0  0  0  0  0  0
    8.1647   -7.0930    0.0000 C   0  0  0  0  0  0  0  0  0  0  0  0
    7.7608   -7.8124    0.0000 C   0  0  0  0  0  0  0  0  0  0  0  0
    8.9896   -7.0831    0.0000 C   0  0  0  0  0  0  0  0  0  0  0  0
    9.4107   -7.7925    0.0000 C   0  0  0  0  0  0  0  0  0  0  0  0
   11.8855   -7.7627    0.0000 C   0  0  0  0  0  0  0  0  0  0  0  0
   11.4645   -7.0532    0.0000 C   0  0  0  0  0  0  0  0  0  0  0  0
   10.6395   -7.0632    0.0000 C   0  0  0  0  0  0  0  0  0  0  0  0
   10.2357   -7.7826    0.0000 C   0  0  0  0  0  0  0  0  0  0  0  0
   11.9028   -9.1915    0.0000 O   0  0  0  0  0  0  0  0  0  0  0  0
   11.4817   -8.4821    0.0000 C   0  0  0  0  0  0  0  0  0  0  0  0
   10.6568   -8.4920    0.0000 C   0  0  0  0  0  0  0  0  0  0  0  0
   10.2529   -9.2114    0.0000 O   0  0  0  0  0  0  0  0  0  0  0  0
    8.8240  -11.6864    0.0000 O   0  0  0  0  0  0  0  0  0  0  0  0
   10.2529  -10.8614    0.0000 O   0  0  0  0  0  0  0  0  0  0  0  0
    5.2688   -6.4134    0.0000 C   0  0  1  0  0  0  0  0  0  0  0  0
    5.6639   -5.6892    0.0000 O   0  0  0  0  0  0  0  0  0  0  0  0
    5.2343   -4.9849    0.0000 C   0  0  1  0  0  0  0  0  0  0  0  0
    4.4096   -4.9849    0.0000 C   0  0  2  0  0  0  0  0  0  0  0  0
    4.0144   -5.6892    0.0000 C   0  0  1  0  0  0  0  0  0  0  0  0
    4.4440   -6.4134    0.0000 C   0  0  1  0  0  0  0  0  0  0  0  0
    5.6382   -4.2655    0.0000 C   0  0  0  0  0  0  0  0  0  0  0  0
    3.1895   -5.6992    0.0000 O   0  0  0  0  0  0  0  0  0  0  0  0
    3.9927   -4.2730    0.0000 O   0  0  0  0  0  0  0  0  0  0  0  0
    4.0358   -7.1303    0.0000 O   0  0  0  0  0  0  0  0  0  0  0  0
    5.2171   -3.5561    0.0000 O   0  0  0  0  0  0  0  0  0  0  0  0
  3  2  1  6  0  0  0
  3  4  1  0  0  0  0
  4  5  1  1  0  0  0
  5  1  1  0  0  0  0
  3  6  1  0  0  0  0
  6  7  1  0  0  0  0
  7  8  1  0  0  0  0
  8  9  1  0  0  0  0
  9  4  1  0  0  0  0
 21 10  1  0  0  0  0
 14 11  1  0  0  0  0
  8 27  1  1  0  0  0
 12 16  2  0  0  0  0
 13 12  1  0  0  0  0
 14 13  2  0  0  0  0
 15 14  1  0  0  0  0
 17 15  2  0  0  0  0
 16 18  1  0  0  0  0
 17 16  1  0  0  0  0
 19 18  2  0  0  0  0
 23 19  1  0  0  0  0
 20 25  1  0  0  0  0
 21 20  2  0  0  0  0
 22 21  1  0  0  0  0
 23 22  2  0  0  0  0
 26 23  1  0  0  0  0
 25 24  1  0  0  0  0
 26 25  2  0  0  0  0
 27 26  1  0  0  0  0
  6 28  1  1  0  0  0
  7 29  1  6  0  0  0
 30 11  1  6  0  0  0
 30 31  1  0  0  0  0
 31 32  1  0  0  0  0
 32 33  1  0  0  0  0
 33 34  1  0  0  0  0
 34 35  1  0  0  0  0
 35 30  1  0  0  0  0
 32 36  1  1  0  0  0
 34 37  1  1  0  0  0
 33 38  1  6  0  0  0
 35 39  1  6  0  0  0
 36 40  1  0  0  0  0
M  END
>  <cdx:fragmentId>
5

$$$$
