301404.cdx
  Mrv1902 05222410242D          

 61 60  0  0  0  0            999 V2000
   13.9538   -6.0638    0.0000 C   0  0  0  0  0  0  0  0  0  0  0  0
   14.6652   -7.3030    0.0000 C   0  0  0  0  0  0  0  0  0  0  0  0
   13.9497   -7.7138    0.0000 O   0  0  0  0  0  0  0  0  0  0  0  0
   13.9477   -8.5388    0.0000 C   0  0  0  0  0  0  0  0  0  0  0  0
   13.2322   -8.9495    0.0000 C   0  0  0  0  0  0  0  0  0  0  0  0
   13.2302   -9.7745    0.0000 C   0  0  0  0  0  0  0  0  0  0  0  0
   12.5147  -10.1852    0.0000 C   0  0  0  0  0  0  0  0  0  0  0  0
   12.5127  -11.0102    0.0000 C   0  0  0  0  0  0  0  0  0  0  0  0
   11.7972  -11.4210    0.0000 C   0  0  0  0  0  0  0  0  0  0  0  0
   11.7952  -12.2460    0.0000 C   0  0  0  0  0  0  0  0  0  0  0  0
   11.0797  -12.6567    0.0000 C   0  0  0  0  0  0  0  0  0  0  0  0
   11.0776  -13.4817    0.0000 C   0  0  0  0  0  0  0  0  0  0  0  0
   10.3621  -13.8924    0.0000 C   0  0  0  0  0  0  0  0  0  0  0  0
   10.3601  -14.7174    0.0000 C   0  0  0  0  0  0  0  0  0  0  0  0
    9.6446  -15.1282    0.0000 C   0  0  0  0  0  0  0  0  0  0  0  0
    9.6426  -15.9532    0.0000 C   0  0  0  0  0  0  0  0  0  0  0  0
    8.9271  -16.3639    0.0000 C   0  0  0  0  0  0  0  0  0  0  0  0
    8.9251  -17.1889    0.0000 C   0  0  0  0  0  0  0  0  0  0  0  0
    8.2096  -17.5997    0.0000 C   0  0  0  0  0  0  0  0  0  0  0  0
   14.6612   -8.9530    0.0000 O   0  0  0  0  0  0  0  0  0  0  0  0
   13.2383   -6.4745    0.0000 O   0  0  0  0  0  0  0  0  0  0  0  0
   12.5269   -5.2353    0.0000 O   0  0  0  0  0  0  0  0  0  0  0  0
    0.3779   -6.4428    0.0000 C   0  0  0  0  0  0  0  0  0  0  0  0
    1.0934   -6.0321    0.0000 C   0  0  0  0  0  0  0  0  0  0  0  0
    1.8068   -6.4463    0.0000 C   0  0  0  0  0  0  0  0  0  0  0  0
    2.5223   -6.0356    0.0000 C   0  0  0  0  0  0  0  0  0  0  0  0
    3.2358   -6.4499    0.0000 C   0  0  0  0  0  0  0  0  0  0  0  0
    3.9512   -6.0391    0.0000 C   0  0  0  0  0  0  0  0  0  0  0  0
    4.6647   -6.4534    0.0000 C   0  0  0  0  0  0  0  0  0  0  0  0
    5.3802   -6.0426    0.0000 C   0  0  0  0  0  0  0  0  0  0  0  0
    6.0936   -6.4569    0.0000 C   0  0  0  0  0  0  0  0  0  0  0  0
    6.8091   -6.0462    0.0000 C   0  0  0  0  0  0  0  0  0  0  0  0
    7.5226   -6.4604    0.0000 C   0  0  0  0  0  0  0  0  0  0  0  0
    8.2381   -6.0497    0.0000 C   0  0  0  0  0  0  0  0  0  0  0  0
    8.9515   -6.4639    0.0000 C   0  0  0  0  0  0  0  0  0  0  0  0
    9.6670   -6.0532    0.0000 C   0  0  0  0  0  0  0  0  0  0  0  0
   10.3804   -6.4675    0.0000 C   0  0  0  0  0  0  0  0  0  0  0  0
   11.0959   -6.0567    0.0000 C   0  0  0  0  0  0  0  0  0  0  0  0
   11.8094   -6.4710    0.0000 C   0  0  0  0  0  0  0  0  0  0  0  0
   16.0942   -7.3066    0.0000 O   0  0  0  0  0  0  0  0  0  0  0  0
   28.2432   -6.0990    0.0000 C   0  0  0  0  0  0  0  0  0  0  0  0
   27.5277   -6.5097    0.0000 C   0  0  0  0  0  0  0  0  0  0  0  0
   26.8142   -6.0955    0.0000 C   0  0  0  0  0  0  0  0  0  0  0  0
   26.0988   -6.5062    0.0000 C   0  0  0  0  0  0  0  0  0  0  0  0
   25.3853   -6.0919    0.0000 C   0  0  0  0  0  0  0  0  0  0  0  0
   24.6698   -6.5027    0.0000 C   0  0  0  0  0  0  0  0  0  0  0  0
   23.9564   -6.0884    0.0000 C   0  0  0  0  0  0  0  0  0  0  0  0
   23.2409   -6.4992    0.0000 C   0  0  0  0  0  0  0  0  0  0  0  0
   22.5274   -6.0849    0.0000 C   0  0  0  0  0  0  0  0  0  0  0  0
   21.8119   -6.4956    0.0000 C   0  0  0  0  0  0  0  0  0  0  0  0
   21.0985   -6.0814    0.0000 C   0  0  0  0  0  0  0  0  0  0  0  0
   20.3830   -6.4921    0.0000 C   0  0  0  0  0  0  0  0  0  0  0  0
   19.6696   -6.0779    0.0000 C   0  0  0  0  0  0  0  0  0  0  0  0
   18.9541   -6.4886    0.0000 C   0  0  0  0  0  0  0  0  0  0  0  0
   18.2406   -6.0743    0.0000 C   0  0  0  0  0  0  0  0  0  0  0  0
   17.5251   -6.4851    0.0000 C   0  0  0  0  0  0  0  0  0  0  0  0
   16.8117   -6.0708    0.0000 C   0  0  0  0  0  0  0  0  0  0  0  0
   16.0962   -6.4816    0.0000 C   0  0  0  0  0  0  0  0  0  0  0  0
   15.3827   -6.0673    0.0000 O   0  0  0  0  0  0  0  0  0  0  0  0
   14.6673   -6.4780    0.0000 C   0  0  0  0  0  0  0  0  0  0  0  0
   12.5249   -6.0603    0.0000 C   0  0  0  0  0  0  0  0  0  0  0  0
 21  1  1  0  0  0  0
 61 21  1  0  0  0  0
 61 22  2  0  0  0  0
 24 23  1  0  0  0  0
 25 24  1  0  0  0  0
 26 25  1  0  0  0  0
 27 26  1  0  0  0  0
 28 27  1  0  0  0  0
 29 28  2  0  0  0  0
 30 29  1  0  0  0  0
 31 30  1  0  0  0  0
 32 31  2  0  0  0  0
 33 32  1  0  0  0  0
 34 33  1  0  0  0  0
 35 34  1  0  0  0  0
 36 35  1  0  0  0  0
 37 36  1  0  0  0  0
 38 37  1  0  0  0  0
 39 38  1  0  0  0  0
 61 39  1  0  0  0  0
 60 59  1  0  0  0  0
 59 58  1  0  0  0  0
 58 40  2  0  0  0  0
 42 41  1  0  0  0  0
 43 42  1  0  0  0  0
 44 43  1  0  0  0  0
 45 44  1  0  0  0  0
 46 45  1  0  0  0  0
 47 46  2  0  0  0  0
 48 47  1  0  0  0  0
 49 48  1  0  0  0  0
 50 49  2  0  0  0  0
 51 50  1  0  0  0  0
 52 51  1  0  0  0  0
 53 52  1  0  0  0  0
 54 53  1  0  0  0  0
 55 54  1  0  0  0  0
 56 55  1  0  0  0  0
 57 56  1  0  0  0  0
 58 57  1  0  0  0  0
 60  2  1  0  0  0  0
  1 60  1  0  0  0  0
  4  5  1  0  0  0  0
  5  6  1  0  0  0  0
  6  7  1  0  0  0  0
  7  8  1  0  0  0  0
  8  9  1  0  0  0  0
  9 10  1  0  0  0  0
 10 11  1  0  0  0  0
 11 12  1  0  0  0  0
 12 13  1  0  0  0  0
 13 14  1  0  0  0  0
 14 15  1  0  0  0  0
 15 16  1  0  0  0  0
 16 17  1  0  0  0  0
 17 18  1  0  0  0  0
 18 19  1  0  0  0  0
  4 20  2  0  0  0  0
  3  4  1  0  0  0  0
  2  3  1  0  0  0  0
M  END
>  <cdx:fragmentId>
252

$$$$
