301457.cdx
  Mrv1902 05222410192D          

 14 14  0  0  0  0            999 V2000
    7.6979   -4.1272    0.0000 O   0  0  0  0  0  0  0  0  0  0  0  0
    6.8729   -4.9522    0.0000 C   0  0  0  0  0  0  0  0  0  0  0  0
    7.6979   -4.9522    0.0000 C   0  0  0  0  0  0  0  0  0  0  0  0
    8.5229   -4.9537    0.0000 C   0  0  0  0  0  0  0  0  0  0  0  0
    7.6964   -5.7772    0.0000 C   0  0  0  0  0  0  0  0  0  0  0  0
    8.4101   -6.1910    0.0000 C   0  0  0  0  0  0  0  0  0  0  0  0
    8.4086   -7.0160    0.0000 C   0  0  0  0  0  0  0  0  0  0  0  0
    7.6933   -7.4272    0.0000 C   0  0  0  0  0  0  0  0  0  0  0  0
    6.9796   -7.0134    0.0000 C   0  0  0  0  0  0  0  0  0  0  0  0
    6.9811   -6.1884    0.0000 C   0  0  0  0  0  0  0  0  0  0  0  0
    7.6918   -8.2522    0.0000 C   0  0  0  0  0  0  0  0  0  0  0  0
    8.4123   -3.7147    0.0000 C   0  0  0  0  0  0  0  0  0  0  0  0
    8.4123   -2.8897    0.0000 C   0  0  0  0  0  0  0  0  0  0  0  0
    9.1268   -4.1272    0.0000 O   0  0  0  0  0  0  0  0  0  0  0  0
  2  3  1  0  0  0  0
  3  4  1  0  0  0  0
  5  6  1  0  0  0  0
  6  7  1  0  0  0  0
  7  8  1  0  0  0  0
  8  9  1  0  0  0  0
  9 10  1  0  0  0  0
  5 10  1  0  0  0  0
  8 11  1  0  0  0  0
  3  5  1  0  0  0  0
  1  3  1  0  0  0  0
  1 12  1  0  0  0  0
 12 13  1  0  0  0  0
 12 14  2  0  0  0  0
M  END
>  <cdx:fragmentId>
19

$$$$
