301489.cdx
  Mrv1902 05222410262D          

 11 10  0  0  0  0            999 V2000
    5.6352   -6.8014    0.0000 C   0  0  0  0  0  0  0  0  0  0  0  0
    5.6401   -5.9764    0.0000 C   0  0  0  0  0  0  0  0  0  0  0  0
    6.3570   -5.5681    0.0000 C   0  0  0  0  0  0  0  0  0  0  0  0
    7.0690   -5.9849    0.0000 C   0  0  0  0  0  0  0  0  0  0  0  0
    7.7860   -5.5767    0.0000 C   0  0  0  0  0  0  0  0  0  0  0  0
    8.4980   -5.9934    0.0000 C   0  0  0  0  0  0  0  0  0  0  0  0
    9.2149   -5.5852    0.0000 C   0  0  0  0  0  0  0  0  0  0  0  0
    9.9269   -6.0019    0.0000 C   0  0  0  0  0  0  0  0  0  0  0  0
    7.0641   -6.8099    0.0000 O   0  0  0  0  0  0  0  0  0  0  0  0
    8.4930   -6.8184    0.0000 C   0  0  0  0  0  0  0  0  0  0  0  0
    4.9281   -5.5596    0.0000 C   0  0  0  0  0  0  0  0  0  0  0  0
  1  2  1  0  0  0  0
  2  3  2  0  0  0  0
  3  4  1  0  0  0  0
  4  5  1  0  0  0  0
  5  6  1  0  0  0  0
  6  7  1  0  0  0  0
  7  8  2  0  0  0  0
  4  9  1  0  0  0  0
  6 10  2  0  0  0  0
  2 11  1  0  0  0  0
M  END
>  <cdx:fragmentId>
333

$$$$
