301461.cdx
  Mrv1902 05222410262D          

 18 20  0  0  0  0            999 V2000
    7.0991   -5.3419    0.0000 N   0  0  0  0  0  0  0  0  0  0  0  0
    7.8135   -5.7544    0.0000 C   0  0  0  0  0  0  0  0  0  0  0  0
    7.8135   -6.5794    0.0000 C   0  0  0  0  0  0  0  0  0  0  0  0
    7.0991   -6.9919    0.0000 C   0  0  0  0  0  0  0  0  0  0  0  0
    6.3846   -6.5794    0.0000 C   0  0  0  0  0  0  0  0  0  0  0  0
    5.6701   -6.9919    0.0000 C   0  0  0  0  0  0  0  0  0  0  0  0
    4.9557   -6.5794    0.0000 C   0  0  0  0  0  0  0  0  0  0  0  0
    4.9557   -5.7544    0.0000 C   0  0  0  0  0  0  0  0  0  0  0  0
    5.6701   -5.3419    0.0000 C   0  0  0  0  0  0  0  0  0  0  0  0
    6.3846   -5.7544    0.0000 C   0  0  0  0  0  0  0  0  0  0  0  0
    8.5982   -5.4994    0.0000 O   0  0  0  0  0  0  0  0  0  0  0  0
    8.5982   -6.8343    0.0000 C   0  0  0  0  0  0  0  0  0  0  0  0
    9.0831   -6.1669    0.0000 C   0  0  0  0  0  0  0  0  0  0  0  0
    7.0991   -7.8169    0.0000 O   0  0  0  0  0  0  0  0  0  0  0  0
    7.0991   -4.5169    0.0000 C   0  0  0  0  0  0  0  0  0  0  0  0
    9.2113   -7.3863    0.0000 C   0  0  0  0  0  0  0  0  0  0  0  0
    8.4266   -7.6413    0.0000 C   0  0  0  0  0  0  0  0  0  0  0  0
    9.9081   -6.1669    0.0000 C   0  0  0  0  0  0  0  0  0  0  0  0
  1  2  1  0  0  0  0
  2  3  2  0  0  0  0
  3  4  1  0  0  0  0
  4  5  1  0  0  0  0
  5  6  1  0  0  0  0
  6  7  2  0  0  0  0
  7  8  1  0  0  0  0
  8  9  2  0  0  0  0
  9 10  1  0  0  0  0
  1 10  1  0  0  0  0
  5 10  2  0  0  0  0
 12 13  1  0  0  0  0
 11 13  1  0  0  0  0
 11  2  1  0  0  0  0
 12  3  1  0  0  0  0
  4 14  2  0  0  0  0
  1 15  1  0  0  0  0
 12 16  1  0  0  0  0
 12 17  1  0  0  0  0
 13 18  1  0  0  0  0
M  END
>  <cdx:groupId>
478

>  <cdx:fragmentId>
425

$$$$
