301416.cdx
  Mrv1902 05222410232D          

 34 36  0  0  0  0            999 V2000
    5.8093   -8.3138    0.0000 O   0  0  0  0  0  0  0  0  0  0  0  0
    7.2036   -8.4834    0.0000 O   0  0  0  0  0  0  0  0  0  0  0  0
    8.1789   -6.6348    0.0000 O   0  0  0  0  0  0  0  0  0  0  0  0
    7.5095  -11.7692    0.0000 O   0  0  0  0  0  0  0  0  0  0  0  0
    9.0088  -12.4581    0.0000 O   0  0  0  0  0  0  0  0  0  0  0  0
   10.3551  -11.5042    0.0000 O   0  0  0  0  0  0  0  0  0  0  0  0
    9.3760   -8.6954    0.0000 O   0  0  0  0  0  0  0  0  0  0  0  0
    9.5290  -10.3383    0.0000 C   0  0  0  0  0  0  0  0  0  0  0  0
    9.6055  -11.1597    0.0000 C   0  0  0  0  0  0  0  0  0  0  0  0
    8.9323  -11.6367    0.0000 C   0  0  0  0  0  0  0  0  0  0  0  0
    8.1827  -11.2922    0.0000 C   0  0  0  0  0  0  0  0  0  0  0  0
    8.1062  -10.4708    0.0000 C   0  0  0  0  0  0  0  0  0  0  0  0
    8.7793   -9.9938    0.0000 C   0  0  0  0  0  0  0  0  0  0  0  0
    8.7028   -9.1723    0.0000 C   0  0  0  0  0  0  0  0  0  0  0  0
    7.9532   -8.8279    0.0000 O   0  0  0  0  0  0  0  0  0  0  0  0
    7.8767   -8.0064    0.0000 C   0  0  0  0  0  0  0  0  0  0  0  0
    7.3913   -6.8804    0.0000 C   0  0  0  0  0  0  0  0  0  0  0  0
    7.1271   -7.6619    0.0000 C   0  0  2  0  0  0  0  0  0  0  0  0
    6.3022   -7.6521    0.0000 C   0  0  2  0  0  0  0  0  0  0  0  0
    6.0565   -6.8645    0.0000 C   0  0  1  0  0  0  0  0  0  0  0  0
    6.7297   -6.3876    0.0000 O   0  0  0  0  0  0  0  0  0  0  0  0
    5.2750   -6.6003    0.0000 C   0  0  0  0  0  0  0  0  0  0  0  0
    5.2469   -2.8198    0.0000 O   0  0  0  0  0  0  0  0  0  0  0  0
    3.6838   -2.2913    0.0000 O   0  0  0  0  0  0  0  0  0  0  0  0
    2.4446   -3.3807    0.0000 O   0  0  0  0  0  0  0  0  0  0  0  0
    5.1131   -5.7913    0.0000 O   0  0  0  0  0  0  0  0  0  0  0  0
    3.7119   -6.0718    0.0000 O   0  0  0  0  0  0  0  0  0  0  0  0
    3.3881   -4.4539    0.0000 C   0  0  0  0  0  0  0  0  0  0  0  0
    3.2261   -3.6450    0.0000 C   0  0  0  0  0  0  0  0  0  0  0  0
    3.8458   -3.1002    0.0000 C   0  0  0  0  0  0  0  0  0  0  0  0
    4.6273   -3.3645    0.0000 C   0  0  0  0  0  0  0  0  0  0  0  0
    4.7892   -4.1734    0.0000 C   0  0  0  0  0  0  0  0  0  0  0  0
    4.1696   -4.7181    0.0000 C   0  0  0  0  0  0  0  0  0  0  0  0
    4.3315   -5.5271    0.0000 C   0  0  0  0  0  0  0  0  0  0  0  0
 26 22  1  0  0  0  0
 20 22  1  6  0  0  0
 19  1  1  1  0  0  0
 18  2  1  1  0  0  0
 17  3  1  0  0  0  0
 18 16  1  0  0  0  0
 16 15  1  0  0  0  0
 15 14  1  0  0  0  0
 11  4  1  0  0  0  0
 10  5  1  0  0  0  0
  9  6  1  0  0  0  0
 14  7  2  0  0  0  0
 13  8  2  0  0  0  0
  9  8  1  0  0  0  0
 10  9  2  0  0  0  0
 11 10  1  0  0  0  0
 12 11  2  0  0  0  0
 13 12  1  0  0  0  0
 14 13  1  0  0  0  0
 21 17  1  0  0  0  0
 18 17  1  0  0  0  0
 19 18  1  0  0  0  0
 20 19  1  0  0  0  0
 21 20  1  0  0  0  0
 31 23  1  0  0  0  0
 30 24  1  0  0  0  0
 29 25  1  0  0  0  0
 34 26  1  0  0  0  0
 34 27  2  0  0  0  0
 33 28  2  0  0  0  0
 29 28  1  0  0  0  0
 30 29  2  0  0  0  0
 31 30  1  0  0  0  0
 32 31  2  0  0  0  0
 33 32  1  0  0  0  0
 34 33  1  0  0  0  0
M  END
>  <cdx:fragmentId>
484

$$$$
