301450.cdx
  Mrv1902 05222410202D          

 14 14  0  0  0  0            999 V2000
    5.6388   -3.0538    0.0000 C   0  0  0  0  0  0  0  0  0  0  0  0
    4.9244   -3.4663    0.0000 C   0  0  0  0  0  0  0  0  0  0  0  0
    5.6388   -2.2288    0.0000 O   0  0  0  0  0  0  0  0  0  0  0  0
    6.3533   -3.4663    0.0000 O   0  0  0  0  0  0  0  0  0  0  0  0
    7.0678   -3.0538    0.0000 C   0  0  1  0  0  0  0  0  0  0  0  0
    7.0678   -2.2288    0.0000 C   0  0  2  0  0  0  0  0  0  0  0  0
    7.7822   -1.8163    0.0000 C   0  0  0  0  0  0  0  0  0  0  0  0
    8.4967   -2.2288    0.0000 C   0  0  0  0  0  0  0  0  0  0  0  0
    8.4967   -3.0538    0.0000 C   0  0  1  0  0  0  0  0  0  0  0  0
    7.7822   -3.4663    0.0000 C   0  0  0  0  0  0  0  0  0  0  0  0
    9.2112   -4.2913    0.0000 C   0  0  0  0  0  0  0  0  0  0  0  0
    9.2112   -3.4663    0.0000 C   0  0  0  0  0  0  0  0  0  0  0  0
    9.9256   -3.0538    0.0000 C   0  0  0  0  0  0  0  0  0  0  0  0
    6.3533   -1.8163    0.0000 C   0  0  0  0  0  0  0  0  0  0  0  0
  1  2  1  0  0  0  0
  1  3  2  0  0  0  0
  1  4  1  0  0  0  0
  5  6  1  0  0  0  0
  6  7  1  0  0  0  0
  7  8  1  0  0  0  0
  8  9  1  0  0  0  0
  9 10  1  0  0  0  0
  5 10  1  0  0  0  0
 11 12  2  0  0  0  0
 12 13  1  0  0  0  0
  9 12  1  6  0  0  0
  6 14  1  1  0  0  0
  5  4  1  1  0  0  0
M  END
>  <cdx:groupId>
267

>  <cdx:fragmentId>
236

$$$$
