301487.cdx
  Mrv1902 05222410202D          

 22 23  0  0  0  0            999 V2000
   10.4532   -7.5104    0.0000 C   0  0  1  0  0  0  0  0  0  0  0  0
   11.0958   -6.9931    0.0000 C   0  0  0  0  0  0  0  0  0  0  0  0
    5.0622   -7.2503    0.0000 O   0  0  0  0  0  0  0  0  0  0  0  0
    8.7878   -6.0994    0.0000 O   0  0  0  0  0  0  0  0  0  0  0  0
    9.3860   -7.9819    0.0000 O   0  0  0  0  0  0  0  0  0  0  0  0
   10.5799   -8.3256    0.0000 O   0  0  0  0  0  0  0  0  0  0  0  0
    9.9817   -6.4432    0.0000 C   0  0  0  0  0  0  0  0  0  0  0  0
    9.6838   -7.2125    0.0000 C   0  0  0  0  0  0  0  0  0  0  0  0
    8.9145   -6.9147    0.0000 C   0  0  0  0  0  0  0  0  0  0  0  0
    8.2719   -7.4320    0.0000 O   0  0  0  0  0  0  0  0  0  0  0  0
    7.4516   -7.3434    0.0000 C   0  0  0  0  0  0  0  0  0  0  0  0
    5.3956   -8.0049    0.0000 C   0  0  2  0  0  0  0  0  0  0  0  0
    4.9087   -8.6709    0.0000 C   0  0  0  0  0  0  0  0  0  0  0  0
    5.3917   -9.3398    0.0000 C   0  0  0  0  0  0  0  0  0  0  0  0
    6.9648   -8.0094    0.0000 C   0  0  0  0  0  0  0  0  0  0  0  0
    6.1794   -8.2621    0.0000 C   0  0  1  0  0  0  0  0  0  0  0  0
    6.1771   -9.0871    0.0000 N   0  0  0  0  0  0  0  0  0  0  0  0
    6.9609   -9.3443    0.0000 C   0  0  0  0  0  0  0  0  0  0  0  0
    7.4478   -8.6783    0.0000 C   0  0  0  0  0  0  0  0  0  0  0  0
    6.1818   -7.4371    0.0000 H   0  0  0  0  0  0  0  0  0  0  0  0
    9.4644   -5.8005    0.0000 C   0  0  0  0  0  0  0  0  0  0  0  0
   10.7969   -6.3165    0.0000 C   0  0  0  0  0  0  0  0  0  0  0  0
 12  3  1  1  0  0  0
  8  5  1  1  0  0  0
  9  4  2  0  0  0  0
  1  2  1  0  0  0  0
  8  7  1  6  0  0  0
  8  1  1  0  0  0  0
  1  6  1  1  0  0  0
  9  8  1  0  0  0  0
 10  9  1  0  0  0  0
 11 10  1  0  0  0  0
 15 11  1  0  0  0  0
 12 16  1  0  0  0  0
 13 12  1  0  0  0  0
 14 13  1  0  0  0  0
 17 14  1  0  0  0  0
 15 19  2  0  0  0  0
 16 15  1  0  0  0  0
 17 16  1  0  0  0  0
 18 17  1  0  0  0  0
 19 18  1  0  0  0  0
 16 20  1  6  0  0  0
  7 21  1  0  0  0  0
  7 22  1  0  0  0  0
M  END
>  <cdx:fragmentId>
5

$$$$
