301444.cdx
  Mrv1902 05222410202D          

 26 30  0  0  0  0            999 V2000
    7.2009   -6.4146    0.0000 C   0  0  0  0  0  0  0  0  0  0  0  0
    7.9153   -6.0021    0.0000 C   0  0  1  0  0  0  0  0  0  0  0  0
    7.9153   -5.1771    0.0000 C   0  0  2  0  0  0  0  0  0  0  0  0
    7.3023   -4.6251    0.0000 N   0  0  0  0  0  0  0  0  0  0  0  0
    7.6378   -3.8714    0.0000 C   0  0  0  0  0  0  0  0  0  0  0  0
    8.4583   -3.9576    0.0000 C   0  0  0  0  0  0  0  0  0  0  0  0
    8.6298   -4.7646    0.0000 C   0  0  0  0  0  0  0  0  0  0  0  0
    9.3443   -5.1771    0.0000 C   0  0  0  0  0  0  0  0  0  0  0  0
    9.3443   -6.0021    0.0000 C   0  0  1  0  0  0  0  0  0  0  0  0
    8.6298   -6.4146    0.0000 C   0  0  1  0  0  0  0  0  0  0  0  0
    8.6298   -7.2396    0.0000 O   0  0  0  0  0  0  0  0  0  0  0  0
    7.9153   -7.6521    0.0000 C   0  0  0  0  0  0  0  0  0  0  0  0
    7.2009   -7.2396    0.0000 C   0  0  0  0  0  0  0  0  0  0  0  0
    6.4864   -7.6521    0.0000 C   0  0  0  0  0  0  0  0  0  0  0  0
    5.7719   -7.2396    0.0000 C   0  0  0  0  0  0  0  0  0  0  0  0
    4.9873   -7.4945    0.0000 O   0  0  0  0  0  0  0  0  0  0  0  0
    4.5024   -6.8271    0.0000 C   0  0  0  0  0  0  0  0  0  0  0  0
    4.9873   -6.1596    0.0000 O   0  0  0  0  0  0  0  0  0  0  0  0
    5.7719   -6.4146    0.0000 C   0  0  0  0  0  0  0  0  0  0  0  0
    6.4864   -6.0021    0.0000 C   0  0  0  0  0  0  0  0  0  0  0  0
    7.9153   -8.4771    0.0000 O   0  0  0  0  0  0  0  0  0  0  0  0
    6.4953   -4.7966    0.0000 C   0  0  0  0  0  0  0  0  0  0  0  0
   10.0588   -6.4146    0.0000 O   0  0  0  0  0  0  0  0  0  0  0  0
    7.9153   -6.8271    0.0000 H   0  0  0  0  0  0  0  0  0  0  0  0
    7.9153   -4.3521    0.0000 H   0  0  0  0  0  0  0  0  0  0  0  0
    9.3443   -6.8271    0.0000 H   0  0  0  0  0  0  0  0  0  0  0  0
  1  2  1  0  0  0  0
  2  3  1  0  0  0  0
  3  4  1  0  0  0  0
  4  5  1  0  0  0  0
  5  6  1  0  0  0  0
  6  7  1  0  0  0  0
  7  8  2  0  0  0  0
  8  9  1  0  0  0  0
  9 10  1  0  0  0  0
 10 11  1  0  0  0  0
 11 12  1  0  0  0  0
 12 13  1  0  0  0  0
 13 14  2  0  0  0  0
 14 15  1  0  0  0  0
 15 16  1  0  0  0  0
 16 17  1  0  0  0  0
 17 18  1  0  0  0  0
 18 19  1  0  0  0  0
 19 20  1  0  0  0  0
  1 20  2  0  0  0  0
  1 13  1  0  0  0  0
 15 19  2  0  0  0  0
  2 10  1  0  0  0  0
  3  7  1  0  0  0  0
 12 21  2  0  0  0  0
  4 22  1  0  0  0  0
  9 23  1  6  0  0  0
  2 24  1  6  0  0  0
  3 25  1  1  0  0  0
 10 26  1  6  0  0  0
M  END
>  <cdx:groupId>
84

>  <cdx:fragmentId>
5

$$$$
