301409.cdx
  Mrv1902 05222410212D          

 46 50  0  0  0  0            999 V2000
    4.6383   -8.7747    0.0000 O   0  0  0  0  0  0  0  0  0  0  0  0
    4.1534   -8.1073    0.0000 C   0  0  1  0  0  0  0  0  0  0  0  0
    4.6383   -7.4398    0.0000 C   0  0  2  0  0  0  0  0  0  0  0  0
    5.4229   -7.6948    0.0000 C   0  0  0  0  0  0  0  0  0  0  0  0
    6.1374   -7.2823    0.0000 C   0  0  0  0  0  0  0  0  0  0  0  0
    6.8519   -7.6948    0.0000 C   0  0  0  0  0  0  0  0  0  0  0  0
    6.8519   -8.5198    0.0000 C   0  0  0  0  0  0  0  0  0  0  0  0
    6.1374   -8.9323    0.0000 C   0  0  0  0  0  0  0  0  0  0  0  0
    5.4229   -8.5198    0.0000 C   0  0  0  0  0  0  0  0  0  0  0  0
    4.3834   -6.6552    0.0000 C   0  0  0  0  0  0  0  0  0  0  0  0
    4.9354   -6.0421    0.0000 O   0  0  0  0  0  0  0  0  0  0  0  0
    3.5764   -6.4837    0.0000 N   0  0  0  0  0  0  0  0  0  0  0  0
    6.1374   -9.7573    0.0000 O   0  0  0  0  0  0  0  0  0  0  0  0
    5.4229  -10.1698    0.0000 C   0  0  0  0  0  0  0  0  0  0  0  0
    7.5664   -7.2823    0.0000 C   0  0  0  0  0  0  0  0  0  0  0  0
    8.2808   -7.6948    0.0000 C   0  0  0  0  0  0  0  0  0  0  0  0
    8.9953   -7.2823    0.0000 C   0  0  0  0  0  0  0  0  0  0  0  0
    8.9953   -6.4573    0.0000 O   0  0  0  0  0  0  0  0  0  0  0  0
    9.7098   -7.6948    0.0000 N   0  0  0  0  0  0  0  0  0  0  0  0
   10.4242   -7.2823    0.0000 C   0  0  0  0  0  0  0  0  0  0  0  0
   11.1387   -7.6948    0.0000 C   0  0  0  0  0  0  0  0  0  0  0  0
   11.8532   -7.2823    0.0000 C   0  0  0  0  0  0  0  0  0  0  0  0
   11.8532   -6.4573    0.0000 C   0  0  0  0  0  0  0  0  0  0  0  0
   12.5677   -6.0448    0.0000 C   0  0  0  0  0  0  0  0  0  0  0  0
   13.2821   -6.4573    0.0000 C   0  0  0  0  0  0  0  0  0  0  0  0
   13.2821   -7.2823    0.0000 C   0  0  0  0  0  0  0  0  0  0  0  0
   12.5677   -7.6948    0.0000 C   0  0  0  0  0  0  0  0  0  0  0  0
   13.9966   -6.0448    0.0000 O   0  0  0  0  0  0  0  0  0  0  0  0
    3.3215   -5.6991    0.0000 C   0  0  0  0  0  0  0  0  0  0  0  0
    2.5145   -5.5275    0.0000 C   0  0  0  0  0  0  0  0  0  0  0  0
    2.2596   -4.7429    0.0000 C   0  0  0  0  0  0  0  0  0  0  0  0
    1.4526   -4.5714    0.0000 C   0  0  0  0  0  0  0  0  0  0  0  0
    1.1977   -3.7868    0.0000 C   0  0  0  0  0  0  0  0  0  0  0  0
    1.7497   -3.1737    0.0000 C   0  0  0  0  0  0  0  0  0  0  0  0
    2.5567   -3.3452    0.0000 C   0  0  0  0  0  0  0  0  0  0  0  0
    2.8116   -4.1298    0.0000 C   0  0  0  0  0  0  0  0  0  0  0  0
    1.4947   -2.3890    0.0000 O   0  0  0  0  0  0  0  0  0  0  0  0
    3.3284   -8.1073    0.0000 C   0  0  0  0  0  0  0  0  0  0  0  0
    2.9159   -8.8217    0.0000 C   0  0  0  0  0  0  0  0  0  0  0  0
    2.0909   -8.8217    0.0000 C   0  0  0  0  0  0  0  0  0  0  0  0
    1.6784   -8.1073    0.0000 C   0  0  0  0  0  0  0  0  0  0  0  0
    2.0909   -7.3928    0.0000 C   0  0  0  0  0  0  0  0  0  0  0  0
    2.9159   -7.3928    0.0000 C   0  0  0  0  0  0  0  0  0  0  0  0
    1.6784   -9.5362    0.0000 O   0  0  0  0  0  0  0  0  0  0  0  0
    0.8534   -9.5362    0.0000 C   0  0  0  0  0  0  0  0  0  0  0  0
    0.8534   -8.1073    0.0000 O   0  0  0  0  0  0  0  0  0  0  0  0
  1  2  1  0  0  0  0
  2  3  1  0  0  0  0
  3  4  1  0  0  0  0
  4  5  1  0  0  0  0
  5  6  2  0  0  0  0
  6  7  1  0  0  0  0
  7  8  2  0  0  0  0
  8  9  1  0  0  0  0
  4  9  2  0  0  0  0
  1  9  1  0  0  0  0
 10 11  2  0  0  0  0
 10 12  1  0  0  0  0
  3 10  1  1  0  0  0
 13 14  1  0  0  0  0
  8 13  1  0  0  0  0
 15 16  2  0  0  0  0
 16 17  1  0  0  0  0
 17 18  2  0  0  0  0
 20 21  1  0  0  0  0
 22 23  1  0  0  0  0
 23 24  2  0  0  0  0
 24 25  1  0  0  0  0
 25 26  2  0  0  0  0
 26 27  1  0  0  0  0
 22 27  2  0  0  0  0
 25 28  1  0  0  0  0
 21 22  1  0  0  0  0
 19 20  1  0  0  0  0
 17 19  1  0  0  0  0
  6 15  1  0  0  0  0
 29 30  1  0  0  0  0
 31 32  1  0  0  0  0
 32 33  2  0  0  0  0
 33 34  1  0  0  0  0
 34 35  2  0  0  0  0
 35 36  1  0  0  0  0
 31 36  2  0  0  0  0
 34 37  1  0  0  0  0
 30 31  1  0  0  0  0
 12 29  1  0  0  0  0
 38 39  1  0  0  0  0
 39 40  2  0  0  0  0
 40 41  1  0  0  0  0
 41 42  2  0  0  0  0
 42 43  1  0  0  0  0
 38 43  2  0  0  0  0
 44 45  1  0  0  0  0
 40 44  1  0  0  0  0
 41 46  1  0  0  0  0
  2 38  1  6  0  0  0
M  END
>  <cdx:groupId>
228

>  <cdx:fragmentId>
89

$$$$
