301402.cdx
  Mrv1902 05222410232D          

 46 52  0  0  0  0            999 V2000
    3.3344   -6.6962    0.0000 C   0  0  0  0  0  0  0  0  0  0  0  0
    4.1594   -6.6962    0.0000 C   0  0  0  0  0  0  0  0  0  0  0  0
    4.5719   -5.9818    0.0000 C   0  0  0  0  0  0  0  0  0  0  0  0
    4.1594   -5.2673    0.0000 C   0  0  0  0  0  0  0  0  0  0  0  0
    3.3344   -5.2673    0.0000 C   0  0  0  0  0  0  0  0  0  0  0  0
    2.9219   -5.9818    0.0000 C   0  0  0  0  0  0  0  0  0  0  0  0
    5.3969   -5.9818    0.0000 C   0  0  0  0  0  0  0  0  0  0  0  0
    5.8094   -5.2673    0.0000 C   0  0  0  0  0  0  0  0  0  0  0  0
    5.3969   -4.5528    0.0000 C   0  0  0  0  0  0  0  0  0  0  0  0
    4.5719   -4.5528    0.0000 C   0  0  0  0  0  0  0  0  0  0  0  0
    5.8094   -3.8384    0.0000 C   0  0  0  0  0  0  0  0  0  0  0  0
    5.3969   -3.1239    0.0000 C   0  0  0  0  0  0  0  0  0  0  0  0
    4.5719   -3.1239    0.0000 C   0  0  0  0  0  0  0  0  0  0  0  0
    4.1594   -3.8384    0.0000 C   0  0  0  0  0  0  0  0  0  0  0  0
    6.1938   -4.3393    0.0000 C   0  0  0  0  0  0  0  0  0  0  0  0
    6.6063   -3.6248    0.0000 C   0  0  0  0  0  0  0  0  0  0  0  0
    6.9082   -4.7518    0.0000 C   0  0  0  0  0  0  0  0  0  0  0  0
    7.3207   -4.0373    0.0000 C   0  0  0  0  0  0  0  0  0  0  0  0
    7.3207   -5.4663    0.0000 C   0  0  0  0  0  0  0  0  0  0  0  0
    8.1457   -5.4663    0.0000 C   0  0  0  0  0  0  0  0  0  0  0  0
    8.5582   -4.7518    0.0000 C   0  0  0  0  0  0  0  0  0  0  0  0
    8.1457   -4.0373    0.0000 C   0  0  0  0  0  0  0  0  0  0  0  0
    6.9082   -6.1808    0.0000 C   0  0  0  0  0  0  0  0  0  0  0  0
    7.3207   -6.8952    0.0000 C   0  0  0  0  0  0  0  0  0  0  0  0
    8.1457   -6.8952    0.0000 C   0  0  0  0  0  0  0  0  0  0  0  0
    8.5582   -6.1808    0.0000 C   0  0  0  0  0  0  0  0  0  0  0  0
    6.4957   -5.4663    0.0000 C   0  0  0  0  0  0  0  0  0  0  0  0
    9.2727   -6.5933    0.0000 C   0  0  0  0  0  0  0  0  0  0  0  0
    6.1938   -3.5143    0.0000 C   0  0  0  0  0  0  0  0  0  0  0  0
    6.6063   -2.7998    0.0000 C   0  0  0  0  0  0  0  0  0  0  0  0
    3.9885   -2.5405    0.0000 O   0  0  0  0  0  0  0  0  0  0  0  0
    5.3969   -3.3008    0.0000 O   0  0  0  0  0  0  0  0  0  0  0  0
    4.5719   -7.4107    0.0000 C   0  0  0  0  0  0  0  0  0  0  0  0
    3.7469   -4.5528    0.0000 C   0  0  0  0  0  0  0  0  0  0  0  0
    6.1113   -2.7114    0.0000 O   0  0  0  0  0  0  0  0  0  0  0  0
    7.3207   -2.3873    0.0000 O   0  0  0  0  0  0  0  0  0  0  0  0
    6.1938   -2.0854    0.0000 C   0  0  0  0  0  0  0  0  0  0  0  0
    5.3969   -2.2989    0.0000 C   0  0  0  0  0  0  0  0  0  0  0  0
    4.6824   -1.8864    0.0000 C   0  0  0  0  0  0  0  0  0  0  0  0
    5.6104   -1.5020    0.0000 C   0  0  0  0  0  0  0  0  0  0  0  0
    5.7813   -1.3709    0.0000 C   0  0  0  0  0  0  0  0  0  0  0  0
    6.7771   -1.5020    0.0000 C   0  0  0  0  0  0  0  0  0  0  0  0
    8.9707   -5.4663    0.0000 H   0  0  0  0  0  0  0  0  0  0  0  0
    9.3551   -5.9672    0.0000 C   0  0  0  0  0  0  0  0  0  0  0  0
    4.9844   -6.6962    0.0000 H   0  0  0  0  0  0  0  0  0  0  0  0
    4.8738   -7.1088    0.0000 C   0  0  0  0  0  0  0  0  0  0  0  0
  1  2  1  0  0  0  0
  2  3  1  0  0  0  0
  3  4  1  0  0  0  0
  4  5  1  0  0  0  0
  5  6  1  0  0  0  0
  6  1  1  0  0  0  0
  3  7  1  0  0  0  0
  7  8  1  0  0  0  0
  8  9  1  0  0  0  0
  9 10  1  0  0  0  0
 10  4  1  0  0  0  0
  9 11  1  0  0  0  0
 11 12  1  0  0  0  0
 12 13  1  0  0  0  0
 13 14  1  0  0  0  0
 14 10  2  0  0  0  0
  9 15  1  1  0  0  0
 11 16  1  1  0  0  0
 15 17  1  0  0  0  0
 17 18  2  0  0  0  0
 16 18  1  0  0  0  0
 17 19  1  0  0  0  0
 19 20  1  0  0  0  0
 20 21  1  0  0  0  0
 21 22  1  0  0  0  0
 22 18  1  0  0  0  0
 19 23  1  0  0  0  0
 23 24  1  0  0  0  0
 24 25  1  0  0  0  0
 25 26  1  0  0  0  0
 26 20  1  0  0  0  0
 19 27  1  1  0  0  0
 26 28  1  1  0  0  0
 15 29  1  0  0  0  0
 16 30  1  0  0  0  0
 29 30  1  0  0  0  0
 13 31  2  0  0  0  0
 29 32  2  0  0  0  0
  2 33  1  1  0  0  0
  4 34  1  1  0  0  0
 12 35  1  1  0  0  0
 30 36  1  1  0  0  0
 30 37  1  0  0  0  0
 12 38  1  0  0  0  0
 38 39  1  0  0  0  0
 38 40  1  0  0  0  0
 37 41  1  0  0  0  0
 37 42  1  0  0  0  0
 20 43  1  0  0  0  0
 26 44  1  0  0  0  0
  3 45  1  0  0  0  0
  2 46  1  0  0  0  0
M  END
>  <cdx:fragmentId>
5

$$$$
