301400.cdx
  Mrv1902 05222410242D          

 37 40  0  0  0  0            999 V2000
    4.3399   -6.1110    0.0000 C   0  0  0  0  0  0  0  0  0  0  0  0
    5.0544   -6.5235    0.0000 O   0  0  0  0  0  0  0  0  0  0  0  0
    2.9110   -7.7610    0.0000 C   0  0  0  0  0  0  0  0  0  0  0  0
    3.6255   -7.3485    0.0000 O   0  0  0  0  0  0  0  0  0  0  0  0
    3.6255   -8.9985    0.0000 O   0  0  0  0  0  0  0  0  0  0  0  0
    8.6268   -6.1110    0.0000 C   0  0  0  0  0  0  0  0  0  0  0  0
    7.9123   -6.5235    0.0000 O   0  0  0  0  0  0  0  0  0  0  0  0
    9.3412   -8.9985    0.0000 C   0  0  0  0  0  0  0  0  0  0  0  0
   10.7702   -6.5235    0.0000 O   0  0  0  0  0  0  0  0  0  0  0  0
   12.1991   -7.3485    0.0000 O   0  0  0  0  0  0  0  0  0  0  0  0
   12.1991   -8.9985    0.0000 O   0  0  0  0  0  0  0  0  0  0  0  0
   11.4847  -10.2360    0.0000 O   0  0  0  0  0  0  0  0  0  0  0  0
   10.7702   -9.8235    0.0000 C   0  0  0  0  0  0  0  0  0  0  0  0
   10.7702   -8.9985    0.0000 C   0  0  2  0  0  0  0  0  0  0  0  0
   11.4847   -8.5860    0.0000 C   0  0  2  0  0  0  0  0  0  0  0  0
   11.4847   -7.7610    0.0000 C   0  0  1  0  0  0  0  0  0  0  0  0
   10.7702   -7.3485    0.0000 C   0  0  2  0  0  0  0  0  0  0  0  0
   10.0557   -7.7610    0.0000 C   0  0  1  0  0  0  0  0  0  0  0  0
   10.0557   -8.5860    0.0000 O   0  0  0  0  0  0  0  0  0  0  0  0
    9.3412   -7.3485    0.0000 O   0  0  0  0  0  0  0  0  0  0  0  0
    6.4834   -9.8235    0.0000 O   0  0  0  0  0  0  0  0  0  0  0  0
    6.4834   -6.5235    0.0000 O   0  0  0  0  0  0  0  0  0  0  0  0
    5.7689   -7.7610    0.0000 C   0  0  0  0  0  0  0  0  0  0  0  0
    6.4834   -7.3485    0.0000 C   0  0  0  0  0  0  0  0  0  0  0  0
    7.1978   -7.7610    0.0000 C   0  0  0  0  0  0  0  0  0  0  0  0
    7.9123   -7.3485    0.0000 C   0  0  0  0  0  0  0  0  0  0  0  0
    8.6268   -7.7610    0.0000 C   0  0  0  0  0  0  0  0  0  0  0  0
    8.6268   -8.5860    0.0000 C   0  0  0  0  0  0  0  0  0  0  0  0
    7.9123   -8.9985    0.0000 C   0  0  0  0  0  0  0  0  0  0  0  0
    7.1978   -8.5860    0.0000 C   0  0  0  0  0  0  0  0  0  0  0  0
    6.4834   -8.9985    0.0000 C   0  0  0  0  0  0  0  0  0  0  0  0
    5.7689   -8.5860    0.0000 C   0  0  0  0  0  0  0  0  0  0  0  0
    5.0544   -8.9985    0.0000 C   0  0  0  0  0  0  0  0  0  0  0  0
    4.3399   -8.5860    0.0000 C   0  0  0  0  0  0  0  0  0  0  0  0
    4.3399   -7.7610    0.0000 C   0  0  0  0  0  0  0  0  0  0  0  0
    5.0544   -7.3485    0.0000 C   0  0  0  0  0  0  0  0  0  0  0  0
    3.6255   -9.8235    0.0000 C   0  0  0  0  0  0  0  0  0  0  0  0
 36  2  1  0  0  0  0
  2  1  1  0  0  0  0
 35  4  1  0  0  0  0
  4  3  1  0  0  0  0
 34  5  1  0  0  0  0
 26  7  1  0  0  0  0
  7  6  1  0  0  0  0
 28  8  1  0  0  0  0
 27 20  1  0  0  0  0
 18 20  1  1  0  0  0
 17  9  1  6  0  0  0
 16 10  1  1  0  0  0
 15 11  1  6  0  0  0
 14 13  1  1  0  0  0
 13 12  1  0  0  0  0
 19 14  1  0  0  0  0
 15 14  1  0  0  0  0
 16 15  1  0  0  0  0
 17 16  1  0  0  0  0
 18 17  1  0  0  0  0
 19 18  1  0  0  0  0
 31 21  2  0  0  0  0
 24 22  2  0  0  0  0
 36 23  2  0  0  0  0
 32 23  1  0  0  0  0
 24 23  1  0  0  0  0
 25 24  1  0  0  0  0
 30 25  2  0  0  0  0
 26 25  1  0  0  0  0
 27 26  2  0  0  0  0
 28 27  1  0  0  0  0
 29 28  2  0  0  0  0
 30 29  1  0  0  0  0
 31 30  1  0  0  0  0
 32 31  1  0  0  0  0
 33 32  2  0  0  0  0
 34 33  1  0  0  0  0
 35 34  2  0  0  0  0
 36 35  1  0  0  0  0
  5 37  1  0  0  0  0
M  END
>  <cdx:fragmentId>
5

$$$$
