301488.cdx
  Mrv1902 05222410272D          

 23 24  0  0  0  0            999 V2000
   10.0132   -7.9779    0.0000 C   0  0  1  0  0  0  0  0  0  0  0  0
   10.6558   -7.4606    0.0000 C   0  0  0  0  0  0  0  0  0  0  0  0
    4.6222   -7.7178    0.0000 O   0  0  0  0  0  0  0  0  0  0  0  0
    8.3478   -6.5669    0.0000 O   0  0  0  0  0  0  0  0  0  0  0  0
    8.9460   -8.4494    0.0000 O   0  0  0  0  0  0  0  0  0  0  0  0
   10.1399   -8.7931    0.0000 O   0  0  0  0  0  0  0  0  0  0  0  0
    9.5417   -6.9107    0.0000 C   0  0  0  0  0  0  0  0  0  0  0  0
    9.2438   -7.6800    0.0000 C   0  0  0  0  0  0  0  0  0  0  0  0
    8.4745   -7.3822    0.0000 C   0  0  0  0  0  0  0  0  0  0  0  0
    7.8319   -7.8995    0.0000 O   0  0  0  0  0  0  0  0  0  0  0  0
    7.0116   -7.8109    0.0000 C   0  0  0  0  0  0  0  0  0  0  0  0
    4.9556   -8.4724    0.0000 C   0  0  2  0  0  0  0  0  0  0  0  0
    4.4687   -9.1384    0.0000 C   0  0  0  0  0  0  0  0  0  0  0  0
    4.9517   -9.8073    0.0000 C   0  0  0  0  0  0  0  0  0  0  0  0
    6.5248   -8.4769    0.0000 C   0  0  0  0  0  0  0  0  0  0  0  0
    5.7394   -8.7296    0.0000 C   0  0  1  0  0  0  0  0  0  0  0  0
    5.7371   -9.5546    0.0000 N   0  3  0  0  0  0  0  0  0  0  0  0
    6.5209   -9.8118    0.0000 C   0  0  0  0  0  0  0  0  0  0  0  0
    7.0078   -9.1458    0.0000 C   0  0  0  0  0  0  0  0  0  0  0  0
    5.7418   -7.9046    0.0000 H   0  0  0  0  0  0  0  0  0  0  0  0
    9.0244   -6.2680    0.0000 C   0  0  0  0  0  0  0  0  0  0  0  0
   10.3569   -6.7840    0.0000 C   0  0  0  0  0  0  0  0  0  0  0  0
    5.7347  -10.3796    0.0000 O   0  5  0  0  0  0  0  0  0  0  0  0
 12  3  1  1  0  0  0
  8  5  1  1  0  0  0
  9  4  2  0  0  0  0
  1  2  1  0  0  0  0
  8  7  1  6  0  0  0
  8  1  1  0  0  0  0
  1  6  1  1  0  0  0
  9  8  1  0  0  0  0
 10  9  1  0  0  0  0
 11 10  1  0  0  0  0
 15 11  1  0  0  0  0
 12 16  1  0  0  0  0
 13 12  1  0  0  0  0
 14 13  1  0  0  0  0
 17 14  1  0  0  0  0
 15 19  2  0  0  0  0
 16 15  1  0  0  0  0
 17 16  1  0  0  0  0
 18 17  1  0  0  0  0
 19 18  1  0  0  0  0
 16 20  1  6  0  0  0
  7 21  1  0  0  0  0
  7 22  1  0  0  0  0
 17 23  1  0  0  0  0
M  CHG  2  17   1  23  -1
M  END
>  <cdx:fragmentId>
5

$$$$
