30147.cdx
  Mrv1902 05222410222D          

 47 51  0  0  0  0            999 V2000
   16.1453   -8.9082    0.0000 C   0  0  2  0  0  0  0  0  0  0  0  0
   12.2204  -10.6718    0.0000 C   0  0  0  0  0  0  0  0  0  0  0  0
   11.5060  -11.0843    0.0000 C   0  0  0  0  0  0  0  0  0  0  0  0
   11.5060  -11.9093    0.0000 C   0  0  1  0  0  0  0  0  0  0  0  0
   12.2204  -12.3218    0.0000 C   0  0  0  0  0  0  0  0  0  0  0  0
   12.9349  -11.9093    0.0000 C   0  0  2  0  0  0  0  0  0  0  0  0
   13.6494  -12.3218    0.0000 C   0  0  1  0  0  0  0  0  0  0  0  0
   14.3638  -11.9093    0.0000 C   0  0  0  0  0  0  0  0  0  0  0  0
   14.3638  -11.0843    0.0000 C   0  0  1  0  0  0  0  0  0  0  0  0
   15.0783  -10.6718    0.0000 C   0  0  2  0  0  0  0  0  0  0  0  0
   15.8629  -10.9267    0.0000 C   0  0  0  0  0  0  0  0  0  0  0  0
   16.3479  -10.2593    0.0000 C   0  0  0  0  0  0  0  0  0  0  0  0
   15.8629   -9.5919    0.0000 C   0  0  0  0  0  0  0  0  0  0  0  0
   15.0783   -9.8468    0.0000 C   0  0  1  0  0  0  0  0  0  0  0  0
   14.3638   -9.4343    0.0000 C   0  0  1  0  0  0  0  0  0  0  0  0
   13.6494   -9.8468    0.0000 C   0  0  0  0  0  0  0  0  0  0  0  0
   13.6494  -10.6718    0.0000 C   0  0  2  0  0  0  0  0  0  0  0  0
   12.9349  -11.0843    0.0000 C   0  0  1  0  0  0  0  0  0  0  0  0
   15.0783  -11.4968    0.0000 C   0  0  0  0  0  0  0  0  0  0  0  0
   12.9349  -10.2593    0.0000 C   0  0  0  0  0  0  0  0  0  0  0  0
   14.3638  -10.2593    0.0000 C   0  0  0  0  0  0  0  0  0  0  0  0
   12.6329  -13.0363    0.0000 C   0  0  0  0  0  0  0  0  0  0  0  0
   11.8079  -13.0363    0.0000 C   0  0  0  0  0  0  0  0  0  0  0  0
   14.3638   -8.6093    0.0000 O   0  0  0  0  0  0  0  0  0  0  0  0
   10.7915  -12.3218    0.0000 O   0  0  0  0  0  0  0  0  0  0  0  0
   12.9349  -12.7343    0.0000 H   0  0  0  0  0  0  0  0  0  0  0  0
   13.6494  -11.4968    0.0000 H   0  0  0  0  0  0  0  0  0  0  0  0
   15.1646   -9.0263    0.0000 H   0  0  0  0  0  0  0  0  0  0  0  0
   16.7286   -9.4916    0.0000 C   0  0  0  0  0  0  0  0  0  0  0  0
   16.9256   -8.6406    0.0000 C   0  0  0  0  0  0  0  0  0  0  0  0
   16.9123   -7.8157    0.0000 C   0  0  0  0  0  0  0  0  0  0  0  0
   16.1236   -7.5735    0.0000 C   0  0  2  0  0  0  0  0  0  0  0  0
   15.6496   -8.2487    0.0000 O   0  0  0  0  0  0  0  0  0  0  0  0
   15.8560   -6.7931    0.0000 C   0  0  0  0  0  0  0  0  0  0  0  0
   15.0463   -6.6347    0.0000 C   0  0  0  0  0  0  0  0  0  0  0  0
   16.3980   -6.1712    0.0000 C   0  0  0  0  0  0  0  0  0  0  0  0
   15.5883   -6.0128    0.0000 O   0  0  0  0  0  0  0  0  0  0  0  0
   10.0770  -11.9093    0.0000 C   0  0  0  0  0  0  0  0  0  0  0  0
    9.3626  -12.3218    0.0000 C   0  0  0  0  0  0  0  0  0  0  0  0
   10.0770  -11.0843    0.0000 O   0  0  0  0  0  0  0  0  0  0  0  0
   13.6494  -13.1468    0.0000 O   0  0  0  0  0  0  0  0  0  0  0  0
   14.3638  -13.5593    0.0000 C   0  0  0  0  0  0  0  0  0  0  0  0
   15.0783  -13.1468    0.0000 C   0  0  0  0  0  0  0  0  0  0  0  0
   14.3638  -14.3843    0.0000 O   0  0  0  0  0  0  0  0  0  0  0  0
   13.6494   -8.1968    0.0000 C   0  0  0  0  0  0  0  0  0  0  0  0
   13.6494   -7.3718    0.0000 O   0  0  0  0  0  0  0  0  0  0  0  0
   12.9349   -8.6093    0.0000 C   0  0  0  0  0  0  0  0  0  0  0  0
  2  3  1  0  0  0  0
  3  4  1  0  0  0  0
  4  5  1  0  0  0  0
  5  6  1  0  0  0  0
  6  7  1  0  0  0  0
  7  8  1  0  0  0  0
  8  9  1  0  0  0  0
  9 10  1  0  0  0  0
 10 11  1  0  0  0  0
 11 12  1  0  0  0  0
 13 12  1  0  0  0  0
 13 14  1  0  0  0  0
 10 14  1  0  0  0  0
 14 15  1  0  0  0  0
 15 16  1  0  0  0  0
 16 17  1  0  0  0  0
  9 17  1  0  0  0  0
 17 18  1  0  0  0  0
  6 18  1  0  0  0  0
  2 18  1  0  0  0  0
 10 19  1  6  0  0  0
 18 20  1  1  0  0  0
  9 21  1  1  0  0  0
  5 22  1  0  0  0  0
  5 23  1  0  0  0  0
 15 24  1  1  0  0  0
  4 25  1  1  0  0  0
  1 13  1  0  0  0  0
  6 26  1  6  0  0  0
 17 27  1  6  0  0  0
 14 28  1  1  0  0  0
  1 29  1  6  0  0  0
  1 30  1  0  0  0  0
 30 31  1  0  0  0  0
 31 32  1  0  0  0  0
 32 33  1  0  0  0  0
 33  1  1  0  0  0  0
 32 34  1  6  0  0  0
 34 35  1  0  0  0  0
 34 36  1  0  0  0  0
 34 37  1  0  0  0  0
 25 38  1  0  0  0  0
 38 39  1  0  0  0  0
 38 40  2  0  0  0  0
  7 41  1  1  0  0  0
 41 42  1  0  0  0  0
 42 43  1  0  0  0  0
 42 44  2  0  0  0  0
 24 45  1  0  0  0  0
 45 46  2  0  0  0  0
 45 47  1  0  0  0  0
M  END
>  <cdx:fragmentId>
32433

$$$$
