301456.cdx
  Mrv1902 05222410192D          

 78 86  0  0  0  0            999 V2000
    9.6816   -7.1431    0.0000 C   0  0  0  0  0  0  0  0  0  0  0  0
    8.9671   -7.5556    0.0000 C   0  0  0  0  0  0  0  0  0  0  0  0
    8.9671   -8.3806    0.0000 C   0  0  1  0  0  0  0  0  0  0  0  0
    9.6816   -8.7931    0.0000 C   0  0  1  0  0  0  0  0  0  0  0  0
   10.3961   -8.3806    0.0000 C   0  0  2  0  0  0  0  0  0  0  0  0
   11.1105   -8.7931    0.0000 C   0  0  0  0  0  0  0  0  0  0  0  0
   11.8250   -8.3806    0.0000 C   0  0  0  0  0  0  0  0  0  0  0  0
   11.8250   -7.5556    0.0000 C   0  0  1  0  0  0  0  0  0  0  0  0
   12.5395   -7.1431    0.0000 C   0  0  2  0  0  0  0  0  0  0  0  0
   13.2539   -7.5556    0.0000 C   0  0  0  0  0  0  0  0  0  0  0  0
   13.9684   -7.1431    0.0000 C   0  0  0  0  0  0  0  0  0  0  0  0
   13.9684   -6.3181    0.0000 C   0  0  1  0  0  0  0  0  0  0  0  0
   14.6829   -5.9056    0.0000 C   0  0  0  0  0  0  0  0  0  0  0  0
   14.6829   -5.0806    0.0000 C   0  0  0  0  0  0  0  0  0  0  0  0
   13.9684   -4.6681    0.0000 C   0  0  1  0  0  0  0  0  0  0  0  0
   13.2539   -5.0806    0.0000 C   0  0  1  0  0  0  0  0  0  0  0  0
   13.2539   -5.9056    0.0000 C   0  0  1  0  0  0  0  0  0  0  0  0
   12.5395   -6.3181    0.0000 C   0  0  0  0  0  0  0  0  0  0  0  0
   11.8250   -5.9056    0.0000 C   0  0  0  0  0  0  0  0  0  0  0  0
   11.1105   -6.3181    0.0000 C   0  0  0  0  0  0  0  0  0  0  0  0
   11.1105   -7.1431    0.0000 C   0  0  2  0  0  0  0  0  0  0  0  0
   10.3961   -7.5556    0.0000 C   0  0  1  0  0  0  0  0  0  0  0  0
    9.2691   -9.5076    0.0000 C   0  0  0  0  0  0  0  0  0  0  0  0
   14.6829   -6.7306    0.0000 C   0  0  0  0  0  0  0  0  0  0  0  0
   14.6829   -7.5556    0.0000 O   0  0  0  0  0  0  0  0  0  0  0  0
   15.3974   -6.3181    0.0000 O   0  0  0  0  0  0  0  0  0  0  0  0
   10.3961   -6.7306    0.0000 C   0  0  0  0  0  0  0  0  0  0  0  0
   12.8414   -4.3662    0.0000 C   0  0  0  0  0  0  0  0  0  0  0  0
   13.9684   -3.8431    0.0000 C   0  0  0  0  0  0  0  0  0  0  0  0
   12.5395   -7.9681    0.0000 C   0  0  0  0  0  0  0  0  0  0  0  0
   11.8250   -6.7306    0.0000 C   0  0  0  0  0  0  0  0  0  0  0  0
   10.0941   -9.5076    0.0000 C   0  0  0  0  0  0  0  0  0  0  0  0
   12.4289   -5.0806    0.0000 O   0  0  0  0  0  0  0  0  0  0  0  0
    8.2526   -8.7931    0.0000 O   0  0  0  0  0  0  0  0  0  0  0  0
   10.3961   -9.2056    0.0000 H   0  0  0  0  0  0  0  0  0  0  0  0
   13.2539   -6.7306    0.0000 H   0  0  0  0  0  0  0  0  0  0  0  0
   11.1105   -7.9681    0.0000 H   0  0  0  0  0  0  0  0  0  0  0  0
   15.3974   -7.9681    0.0000 C   0  0  2  0  0  0  0  0  0  0  0  0
   15.3974   -8.7931    0.0000 O   0  0  0  0  0  0  0  0  0  0  0  0
   16.1118   -9.2056    0.0000 C   0  0  1  0  0  0  0  0  0  0  0  0
   16.8263   -8.7931    0.0000 C   0  0  2  0  0  0  0  0  0  0  0  0
   16.8263   -7.9681    0.0000 C   0  0  1  0  0  0  0  0  0  0  0  0
   16.1118   -7.5556    0.0000 C   0  0  1  0  0  0  0  0  0  0  0  0
   16.1118  -10.0306    0.0000 C   0  0  0  0  0  0  0  0  0  0  0  0
   17.5408   -7.5556    0.0000 O   0  0  0  0  0  0  0  0  0  0  0  0
   16.1118   -6.7306    0.0000 O   0  0  0  0  0  0  0  0  0  0  0  0
   17.5408   -9.2056    0.0000 O   0  0  0  0  0  0  0  0  0  0  0  0
   16.8263  -10.4431    0.0000 O   0  0  0  0  0  0  0  0  0  0  0  0
    7.5382   -8.3806    0.0000 C   0  0  2  0  0  0  0  0  0  0  0  0
    7.5382   -7.5556    0.0000 O   0  0  0  0  0  0  0  0  0  0  0  0
    6.8237   -7.1431    0.0000 C   0  0  0  0  0  0  0  0  0  0  0  0
    6.1092   -7.5556    0.0000 C   0  0  2  0  0  0  0  0  0  0  0  0
    6.1092   -8.3806    0.0000 C   0  0  1  0  0  0  0  0  0  0  0  0
    6.8237   -8.7931    0.0000 C   0  0  1  0  0  0  0  0  0  0  0  0
    6.8237   -9.6181    0.0000 O   0  0  0  0  0  0  0  0  0  0  0  0
    5.3948   -8.7931    0.0000 O   0  0  0  0  0  0  0  0  0  0  0  0
    5.3948   -7.1431    0.0000 O   0  0  0  0  0  0  0  0  0  0  0  0
    6.1092  -10.0306    0.0000 C   0  0  2  0  0  0  0  0  0  0  0  0
    5.3948   -9.6181    0.0000 O   0  0  0  0  0  0  0  0  0  0  0  0
    4.6803  -10.0306    0.0000 C   0  0  1  0  0  0  0  0  0  0  0  0
    4.6803  -10.8556    0.0000 C   0  0  2  0  0  0  0  0  0  0  0  0
    5.3948  -11.2681    0.0000 C   0  0  1  0  0  0  0  0  0  0  0  0
    6.1092  -10.8556    0.0000 C   0  0  1  0  0  0  0  0  0  0  0  0
    3.9658   -9.6181    0.0000 C   0  0  0  0  0  0  0  0  0  0  0  0
    5.3948  -12.0931    0.0000 O   0  0  0  0  0  0  0  0  0  0  0  0
    3.9658  -11.2681    0.0000 O   0  0  0  0  0  0  0  0  0  0  0  0
    6.8237  -11.2681    0.0000 O   0  0  0  0  0  0  0  0  0  0  0  0
    3.2513  -10.0306    0.0000 O   0  0  0  0  0  0  0  0  0  0  0  0
    7.2362  -11.9826    0.0000 C   0  0  2  0  0  0  0  0  0  0  0  0
    6.8237  -12.6971    0.0000 O   0  0  0  0  0  0  0  0  0  0  0  0
    7.2362  -13.4115    0.0000 C   0  0  2  0  0  0  0  0  0  0  0  0
    8.0612  -13.4115    0.0000 C   0  0  1  0  0  0  0  0  0  0  0  0
    8.4737  -12.6971    0.0000 C   0  0  2  0  0  0  0  0  0  0  0  0
    8.0612  -11.9826    0.0000 C   0  0  1  0  0  0  0  0  0  0  0  0
    8.4737  -14.1260    0.0000 O   0  0  0  0  0  0  0  0  0  0  0  0
    9.2987  -12.6971    0.0000 O   0  0  0  0  0  0  0  0  0  0  0  0
    8.4737  -11.2681    0.0000 O   0  0  0  0  0  0  0  0  0  0  0  0
    6.8237  -14.1260    0.0000 C   0  0  0  0  0  0  0  0  0  0  0  0
  1  2  1  0  0  0  0
  2  3  1  0  0  0  0
  3  4  1  0  0  0  0
  4  5  1  0  0  0  0
  5  6  1  0  0  0  0
  6  7  1  0  0  0  0
  7  8  1  0  0  0  0
  8  9  1  0  0  0  0
  9 10  1  0  0  0  0
 10 11  1  0  0  0  0
 11 12  1  0  0  0  0
 12 13  1  0  0  0  0
 13 14  1  0  0  0  0
 14 15  1  0  0  0  0
 15 16  1  0  0  0  0
 16 17  1  0  0  0  0
 12 17  1  0  0  0  0
 17 18  1  0  0  0  0
  9 18  1  0  0  0  0
 18 19  2  0  0  0  0
 19 20  1  0  0  0  0
 20 21  1  0  0  0  0
  8 21  1  0  0  0  0
 21 22  1  0  0  0  0
  5 22  1  0  0  0  0
  1 22  1  0  0  0  0
  4 23  1  1  0  0  0
 24 25  1  0  0  0  0
 24 26  2  0  0  0  0
 12 24  1  1  0  0  0
 22 27  1  1  0  0  0
 16 28  1  1  0  0  0
 15 29  1  1  0  0  0
  9 30  1  6  0  0  0
  8 31  1  1  0  0  0
  4 32  1  6  0  0  0
 16 33  1  6  0  0  0
  3 34  1  1  0  0  0
  5 35  1  6  0  0  0
 17 36  1  1  0  0  0
 21 37  1  6  0  0  0
 38 25  1  1  0  0  0
 38 39  1  0  0  0  0
 39 40  1  0  0  0  0
 40 41  1  0  0  0  0
 41 42  1  0  0  0  0
 42 43  1  0  0  0  0
 43 38  1  0  0  0  0
 40 44  1  1  0  0  0
 42 45  1  1  0  0  0
 43 46  1  6  0  0  0
 41 47  1  6  0  0  0
 44 48  1  0  0  0  0
 49 34  1  1  0  0  0
 49 50  1  0  0  0  0
 50 51  1  0  0  0  0
 51 52  1  0  0  0  0
 52 53  1  0  0  0  0
 53 54  1  0  0  0  0
 54 49  1  0  0  0  0
 54 55  1  6  0  0  0
 53 56  1  1  0  0  0
 52 57  1  6  0  0  0
 58 55  1  1  0  0  0
 58 59  1  0  0  0  0
 59 60  1  0  0  0  0
 60 61  1  0  0  0  0
 61 62  1  0  0  0  0
 62 63  1  0  0  0  0
 63 58  1  0  0  0  0
 60 64  1  1  0  0  0
 62 65  1  1  0  0  0
 61 66  1  6  0  0  0
 63 67  1  6  0  0  0
 64 68  1  0  0  0  0
 69 67  1  1  0  0  0
 69 70  1  0  0  0  0
 70 71  1  0  0  0  0
 71 72  1  0  0  0  0
 72 73  1  0  0  0  0
 73 74  1  0  0  0  0
 74 69  1  0  0  0  0
 72 75  1  1  0  0  0
 73 76  1  6  0  0  0
 74 77  1  6  0  0  0
 71 78  1  6  0  0  0
M  END
>  <cdx:fragmentId>
5

$$$$
