301406.cdx
  Mrv1902 05222410252D          

 79 87  0  0  0  0            999 V2000
    7.1567   -9.0745    0.0000 O   0  0  0  0  0  0  0  0  0  0  0  0
    5.9334   -8.3359    0.0000 O   0  0  0  0  0  0  0  0  0  0  0  0
    6.3318   -9.0583    0.0000 C   0  0  2  0  0  0  0  0  0  0  0  0
    5.9053   -9.7645    0.0000 C   0  0  1  0  0  0  0  0  0  0  0  0
    5.0805   -9.7483    0.0000 C   0  0  2  0  0  0  0  0  0  0  0  0
    4.6821   -9.0258    0.0000 C   0  0  1  0  0  0  0  0  0  0  0  0
    5.1086   -8.3196    0.0000 C   0  0  1  0  0  0  0  0  0  0  0  0
    4.7102   -7.5972    0.0000 C   0  0  0  0  0  0  0  0  0  0  0  0
    3.8854   -7.5809    0.0000 O   0  0  0  0  0  0  0  0  0  0  0  0
    3.8573   -9.0096    0.0000 O   0  0  0  0  0  0  0  0  0  0  0  0
    4.6540  -10.4545    0.0000 O   0  0  0  0  0  0  0  0  0  0  0  0
    6.3037  -10.4870    0.0000 O   0  0  0  0  0  0  0  0  0  0  0  0
   13.6861   -9.5686    0.0000 C   0  0  1  0  0  0  0  0  0  0  0  0
   14.4006   -9.1561    0.0000 C   0  0  2  0  0  0  0  0  0  0  0  0
   15.1852   -9.4111    0.0000 C   0  0  0  0  0  0  0  0  0  0  0  0
   15.6701   -8.7436    0.0000 C   0  0  2  0  0  0  0  0  0  0  0  0
   16.4547   -8.4887    0.0000 O   0  0  0  0  0  0  0  0  0  0  0  0
   16.4547   -7.6637    0.0000 C   0  0  0  0  0  0  0  0  0  0  0  0
   15.6701   -7.4087    0.0000 C   0  0  2  0  0  0  0  0  0  0  0  0
   15.1852   -8.0762    0.0000 C   0  0  2  0  0  0  0  0  0  0  0  0
   14.4006   -8.3311    0.0000 C   0  0  1  0  0  0  0  0  0  0  0  0
   13.6861   -7.9186    0.0000 C   0  0  0  0  0  0  0  0  0  0  0  0
   12.9716   -8.3311    0.0000 C   0  0  0  0  0  0  0  0  0  0  0  0
   12.9716   -9.1561    0.0000 C   0  0  2  0  0  0  0  0  0  0  0  0
   12.2572   -9.5686    0.0000 C   0  0  1  0  0  0  0  0  0  0  0  0
   11.5427   -9.1561    0.0000 C   0  0  0  0  0  0  0  0  0  0  0  0
   10.8282   -9.5686    0.0000 C   0  0  0  0  0  0  0  0  0  0  0  0
   10.8282  -10.3936    0.0000 C   0  0  1  0  0  0  0  0  0  0  0  0
   11.5427  -10.8061    0.0000 C   0  0  0  0  0  0  0  0  0  0  0  0
   12.2572  -10.3936    0.0000 C   0  0  0  0  0  0  0  0  0  0  0  0
   12.9716  -10.8061    0.0000 C   0  0  0  0  0  0  0  0  0  0  0  0
   13.6861  -10.3936    0.0000 C   0  0  0  0  0  0  0  0  0  0  0  0
   17.2752   -7.5774    0.0000 C   0  0  0  0  0  0  0  0  0  0  0  0
   17.7601   -8.2449    0.0000 C   0  0  0  0  0  0  0  0  0  0  0  0
   18.5806   -8.1587    0.0000 C   0  0  2  0  0  0  0  0  0  0  0  0
   19.0655   -8.8261    0.0000 C   0  0  0  0  0  0  0  0  0  0  0  0
   18.9162   -7.4050    0.0000 C   0  0  0  0  0  0  0  0  0  0  0  0
   12.2572   -8.7436    0.0000 C   0  0  0  0  0  0  0  0  0  0  0  0
   14.4006   -7.5061    0.0000 C   0  0  0  0  0  0  0  0  0  0  0  0
   15.4152   -6.6241    0.0000 C   0  0  0  0  0  0  0  0  0  0  0  0
   16.7903   -6.9100    0.0000 O   0  0  0  0  0  0  0  0  0  0  0  0
   13.6861   -8.7436    0.0000 H   0  0  0  0  0  0  0  0  0  0  0  0
   14.4006   -9.9811    0.0000 H   0  0  0  0  0  0  0  0  0  0  0  0
   16.1550   -9.4111    0.0000 H   0  0  0  0  0  0  0  0  0  0  0  0
   14.8235   -7.3347    0.0000 H   0  0  0  0  0  0  0  0  0  0  0  0
   12.9716   -9.9811    0.0000 H   0  0  0  0  0  0  0  0  0  0  0  0
    7.2559  -10.8069    0.0000 O   0  0  0  0  0  0  0  0  0  0  0  0
    7.9695   -7.9192    0.0000 O   0  0  0  0  0  0  0  0  0  0  0  0
    8.6841   -8.3315    0.0000 C   0  0  0  0  0  0  0  0  0  0  0  0
   10.1137  -10.8061    0.0000 O   0  0  0  0  0  0  0  0  0  0  0  0
    8.6843   -9.1565    0.0000 C   0  0  2  0  0  0  0  0  0  0  0  0
    7.9700   -9.5692    0.0000 C   0  0  2  0  0  0  0  0  0  0  0  0
    7.9702  -10.3942    0.0000 C   0  0  1  0  0  0  0  0  0  0  0  0
    8.6848  -10.8065    0.0000 C   0  0  2  0  0  0  0  0  0  0  0  0
    9.3992  -10.3938    0.0000 C   0  0  1  0  0  0  0  0  0  0  0  0
    9.3989   -9.5688    0.0000 O   0  0  0  0  0  0  0  0  0  0  0  0
    8.6850  -11.6315    0.0000 O   0  0  0  0  0  0  0  0  0  0  0  0
    5.8272  -11.6323    0.0000 C   0  0  0  0  0  0  0  0  0  0  0  0
    5.8276  -13.2823    0.0000 O   0  0  0  0  0  0  0  0  0  0  0  0
    7.2568  -14.1069    0.0000 O   0  0  0  0  0  0  0  0  0  0  0  0
    8.6855  -13.2815    0.0000 O   0  0  0  0  0  0  0  0  0  0  0  0
   21.5357   -8.7747    0.0000 O   0  0  0  0  0  0  0  0  0  0  0  0
   22.3303  -10.2207    0.0000 O   0  0  0  0  0  0  0  0  0  0  0  0
   21.4754  -11.6319    0.0000 O   0  0  0  0  0  0  0  0  0  0  0  0
   20.2231  -12.3201    0.0000 O   0  0  0  0  0  0  0  0  0  0  0  0
   19.8257  -11.5971    0.0000 C   0  0  0  0  0  0  0  0  0  0  0  0
   20.2532  -10.8915    0.0000 C   0  0  2  0  0  0  0  0  0  0  0  0
   21.0780  -10.9089    0.0000 C   0  0  2  0  0  0  0  0  0  0  0  0
   21.5055  -10.2033    0.0000 C   0  0  1  0  0  0  0  0  0  0  0  0
   21.1082   -9.4803    0.0000 C   0  0  2  0  0  0  0  0  0  0  0  0
   20.2834   -9.4629    0.0000 C   0  0  1  0  0  0  0  0  0  0  0  0
   19.8559  -10.1685    0.0000 O   0  0  0  0  0  0  0  0  0  0  0  0
   19.8860   -8.7399    0.0000 O   0  0  0  0  0  0  0  0  0  0  0  0
    6.5417  -12.0446    0.0000 C   0  0  1  0  0  0  0  0  0  0  0  0
    6.5420  -12.8696    0.0000 C   0  0  1  0  0  0  0  0  0  0  0  0
    7.2566  -13.2819    0.0000 C   0  0  2  0  0  0  0  0  0  0  0  0
    7.9709  -12.8692    0.0000 C   0  0  2  0  0  0  0  0  0  0  0  0
    7.9707  -12.0442    0.0000 C   0  0  1  0  0  0  0  0  0  0  0  0
    7.2561  -11.6319    0.0000 O   0  0  0  0  0  0  0  0  0  0  0  0
 78 57  1  1  0  0  0
 54 57  1  6  0  0  0
 53 47  1  1  0  0  0
 51 49  1  1  0  0  0
 49 48  1  0  0  0  0
 55 50  1  1  0  0  0
 52  1  1  6  0  0  0
 56 51  1  0  0  0  0
 52 51  1  0  0  0  0
 53 52  1  0  0  0  0
 54 53  1  0  0  0  0
 55 54  1  0  0  0  0
 56 55  1  0  0  0  0
 74 58  1  6  0  0  0
 75 59  1  1  0  0  0
 76 60  1  6  0  0  0
 77 61  1  6  0  0  0
 79 74  1  0  0  0  0
 71 73  1  1  0  0  0
 70 62  1  6  0  0  0
 69 63  1  1  0  0  0
 68 64  1  6  0  0  0
 67 66  1  1  0  0  0
 66 65  1  0  0  0  0
 72 67  1  0  0  0  0
 68 67  1  0  0  0  0
 69 68  1  0  0  0  0
 70 69  1  0  0  0  0
 71 70  1  0  0  0  0
 72 71  1  0  0  0  0
 75 74  1  0  0  0  0
 76 75  1  0  0  0  0
 77 76  1  0  0  0  0
 78 77  1  0  0  0  0
 79 78  1  0  0  0  0
  2  3  1  0  0  0  0
  3  4  1  0  0  0  0
  4  5  1  0  0  0  0
  5  6  1  0  0  0  0
  6  7  1  0  0  0  0
  2  7  1  0  0  0  0
  8  9  1  0  0  0  0
  7  8  1  1  0  0  0
  6 10  1  6  0  0  0
  5 11  1  1  0  0  0
  4 12  1  6  0  0  0
  3  1  1  1  0  0  0
 13 14  1  0  0  0  0
 14 15  1  0  0  0  0
 15 16  1  0  0  0  0
 16 17  1  0  0  0  0
 17 18  1  0  0  0  0
 18 19  1  0  0  0  0
 19 20  1  0  0  0  0
 20 21  1  0  0  0  0
 21 22  1  0  0  0  0
 22 23  1  0  0  0  0
 23 24  1  0  0  0  0
 24 25  1  0  0  0  0
 25 26  1  0  0  0  0
 26 27  1  0  0  0  0
 27 28  1  0  0  0  0
 28 29  1  0  0  0  0
 29 30  1  0  0  0  0
 30 31  2  0  0  0  0
 31 32  1  0  0  0  0
 13 32  1  0  0  0  0
 13 24  1  0  0  0  0
 25 30  1  0  0  0  0
 14 21  1  0  0  0  0
 16 20  1  0  0  0  0
 33 34  1  0  0  0  0
 34 35  1  0  0  0  0
 35 36  1  0  0  0  0
 36 73  1  0  0  0  0
 35 37  1  1  0  0  0
 18 33  1  0  0  0  0
 25 38  1  1  0  0  0
 21 39  1  1  0  0  0
 19 40  1  6  0  0  0
 18 41  1  0  0  0  0
 28 50  1  1  0  0  0
 13 42  1  1  0  0  0
 14 43  1  6  0  0  0
 16 44  1  6  0  0  0
 20 45  1  6  0  0  0
 24 46  1  6  0  0  0
M  END
>  <cdx:fragmentId>
65

$$$$
