301475.cdx
  Mrv1902 05222410262D          

 18 20  0  0  0  0            999 V2000
    6.4969   -6.9528    0.0000 C   0  0  1  0  0  0  0  0  0  0  0  0
    6.0120   -6.2854    0.0000 C   0  0  0  0  0  0  0  0  0  0  0  0
    6.4969   -5.6179    0.0000 C   0  0  0  0  0  0  0  0  0  0  0  0
    7.2816   -5.8729    0.0000 C   0  0  0  0  0  0  0  0  0  0  0  0
    7.9960   -5.4604    0.0000 C   0  0  0  0  0  0  0  0  0  0  0  0
    8.7105   -5.8729    0.0000 C   0  0  2  0  0  0  0  0  0  0  0  0
    8.7105   -6.6979    0.0000 C   0  0  0  0  0  0  0  0  0  0  0  0
    7.9960   -7.1104    0.0000 C   0  0  0  0  0  0  0  0  0  0  0  0
    7.2816   -6.6979    0.0000 C   0  0  0  0  0  0  0  0  0  0  0  0
    9.5355   -6.6979    0.0000 C   0  0  0  0  0  0  0  0  0  0  0  0
    9.1230   -7.4123    0.0000 C   0  0  0  0  0  0  0  0  0  0  0  0
    7.9960   -4.6354    0.0000 O   0  0  0  0  0  0  0  0  0  0  0  0
    7.9960   -7.9354    0.0000 C   0  0  0  0  0  0  0  0  0  0  0  0
    9.5355   -5.8729    0.0000 C   0  0  0  0  0  0  0  0  0  0  0  0
    5.2976   -6.6979    0.0000 C   0  0  0  0  0  0  0  0  0  0  0  0
    5.2976   -5.8729    0.0000 C   0  0  0  0  0  0  0  0  0  0  0  0
    9.1230   -5.1584    0.0000 O   0  0  0  0  0  0  0  0  0  0  0  0
    6.2420   -7.7374    0.0000 O   0  0  0  0  0  0  0  0  0  0  0  0
  1  2  1  0  0  0  0
  2  3  1  0  0  0  0
  3  4  2  0  0  0  0
  4  5  1  0  0  0  0
  5  6  1  0  0  0  0
  6  7  1  0  0  0  0
  7  8  1  0  0  0  0
  8  9  2  0  0  0  0
  1  9  1  0  0  0  0
  4  9  1  0  0  0  0
 10 11  1  0  0  0  0
 10  7  1  0  0  0  0
 11  7  1  0  0  0  0
  5 12  2  0  0  0  0
  8 13  1  0  0  0  0
  6 14  1  1  0  0  0
  2 15  1  0  0  0  0
  2 16  1  0  0  0  0
  6 17  1  6  0  0  0
  1 18  1  1  0  0  0
M  END
>  <cdx:groupId>
1594

>  <cdx:fragmentId>
1541

$$$$
