301464.cdx
  Mrv1902 05222410282D          

 60 66  0  0  0  0            999 V2000
    2.4581   -8.2294    0.0000 O   0  0  0  0  0  0  0  0  0  0  0  0
    1.7436   -7.8169    0.0000 C   0  0  1  0  0  0  0  0  0  0  0  0
    1.7436   -6.9919    0.0000 C   0  0  2  0  0  0  0  0  0  0  0  0
    2.4581   -6.5794    0.0000 C   0  0  1  0  0  0  0  0  0  0  0  0
    3.1725   -6.9919    0.0000 C   0  0  2  0  0  0  0  0  0  0  0  0
    3.1725   -7.8169    0.0000 C   0  0  2  0  0  0  0  0  0  0  0  0
    1.0291   -8.2294    0.0000 C   0  0  0  0  0  0  0  0  0  0  0  0
    1.0291   -9.0544    0.0000 O   0  0  0  0  0  0  0  0  0  0  0  0
    0.3147   -7.8169    0.0000 O   0  0  0  0  0  0  0  0  0  0  0  0
    3.8870   -6.5794    0.0000 O   0  0  0  0  0  0  0  0  0  0  0  0
    2.4581   -5.7544    0.0000 O   0  0  0  0  0  0  0  0  0  0  0  0
    1.0291   -6.5794    0.0000 O   0  0  0  0  0  0  0  0  0  0  0  0
    3.8870   -8.2294    0.0000 O   0  0  0  0  0  0  0  0  0  0  0  0
    5.3160   -6.5794    0.0000 C   0  0  0  0  0  0  0  0  0  0  0  0
    4.6015   -6.9919    0.0000 C   0  0  0  0  0  0  0  0  0  0  0  0
    4.6015   -7.8169    0.0000 C   0  0  1  0  0  0  0  0  0  0  0  0
    5.3160   -8.2294    0.0000 C   0  0  0  0  0  0  0  0  0  0  0  0
    6.0304   -7.8169    0.0000 C   0  0  2  0  0  0  0  0  0  0  0  0
    6.7449   -8.2294    0.0000 C   0  0  0  0  0  0  0  0  0  0  0  0
    7.4594   -7.8169    0.0000 C   0  0  0  0  0  0  0  0  0  0  0  0
    7.4594   -6.9919    0.0000 C   0  0  1  0  0  0  0  0  0  0  0  0
    8.1738   -6.5794    0.0000 C   0  0  2  0  0  0  0  0  0  0  0  0
    8.8883   -6.9919    0.0000 C   0  0  0  0  0  0  0  0  0  0  0  0
    9.6028   -6.5794    0.0000 C   0  0  0  0  0  0  0  0  0  0  0  0
    9.6028   -5.7544    0.0000 C   0  0  1  0  0  0  0  0  0  0  0  0
   10.3173   -5.3419    0.0000 C   0  0  0  0  0  0  0  0  0  0  0  0
   10.3173   -4.5169    0.0000 C   0  0  0  0  0  0  0  0  0  0  0  0
    9.6028   -4.1044    0.0000 C   0  0  2  0  0  0  0  0  0  0  0  0
    8.8883   -4.5169    0.0000 C   0  0  1  0  0  0  0  0  0  0  0  0
    8.8883   -5.3419    0.0000 C   0  0  1  0  0  0  0  0  0  0  0  0
    8.1738   -5.7544    0.0000 C   0  0  0  0  0  0  0  0  0  0  0  0
    7.4594   -5.3419    0.0000 C   0  0  0  0  0  0  0  0  0  0  0  0
    6.7449   -5.7544    0.0000 C   0  0  0  0  0  0  0  0  0  0  0  0
    6.7449   -6.5794    0.0000 C   0  0  2  0  0  0  0  0  0  0  0  0
    6.0304   -6.9919    0.0000 C   0  0  1  0  0  0  0  0  0  0  0  0
   10.3173   -6.1669    0.0000 C   0  0  0  0  0  0  0  0  0  0  0  0
   10.3173   -6.9919    0.0000 O   0  0  0  0  0  0  0  0  0  0  0  0
   11.0317   -5.7544    0.0000 O   0  0  0  0  0  0  0  0  0  0  0  0
   12.4607   -5.7544    0.0000 O   0  0  0  0  0  0  0  0  0  0  0  0
   11.7462   -6.1669    0.0000 C   0  0  2  0  0  0  0  0  0  0  0  0
   11.7462   -6.9919    0.0000 C   0  0  1  0  0  0  0  0  0  0  0  0
   12.4607   -7.4044    0.0000 C   0  0  2  0  0  0  0  0  0  0  0  0
   13.1751   -6.9919    0.0000 C   0  0  1  0  0  0  0  0  0  0  0  0
   13.1751   -6.1669    0.0000 C   0  0  1  0  0  0  0  0  0  0  0  0
   13.8896   -5.7544    0.0000 C   0  0  0  0  0  0  0  0  0  0  0  0
   14.6041   -6.1669    0.0000 O   0  0  0  0  0  0  0  0  0  0  0  0
   13.8896   -7.4044    0.0000 O   0  0  0  0  0  0  0  0  0  0  0  0
   12.4607   -8.2294    0.0000 O   0  0  0  0  0  0  0  0  0  0  0  0
   11.0317   -7.4044    0.0000 O   0  0  0  0  0  0  0  0  0  0  0  0
    6.0304   -6.1669    0.0000 C   0  0  0  0  0  0  0  0  0  0  0  0
    8.4758   -3.8024    0.0000 C   0  0  0  0  0  0  0  0  0  0  0  0
    9.6028   -3.2794    0.0000 C   0  0  0  0  0  0  0  0  0  0  0  0
    8.1738   -7.4044    0.0000 C   0  0  0  0  0  0  0  0  0  0  0  0
    7.4594   -6.1669    0.0000 C   0  0  0  0  0  0  0  0  0  0  0  0
    5.7285   -8.9438    0.0000 C   0  0  0  0  0  0  0  0  0  0  0  0
    4.9035   -8.9438    0.0000 C   0  0  0  0  0  0  0  0  0  0  0  0
    8.0633   -4.5169    0.0000 O   0  0  0  0  0  0  0  0  0  0  0  0
    6.0304   -8.6419    0.0000 H   0  0  0  0  0  0  0  0  0  0  0  0
    8.8883   -6.1669    0.0000 H   0  0  0  0  0  0  0  0  0  0  0  0
    6.7449   -7.4044    0.0000 H   0  0  0  0  0  0  0  0  0  0  0  0
  1  2  1  0  0  0  0
  2  3  1  0  0  0  0
  3  4  1  0  0  0  0
  4  5  1  0  0  0  0
  5  6  1  0  0  0  0
  1  6  1  0  0  0  0
  7  8  2  0  0  0  0
  7  9  1  0  0  0  0
  2  7  1  6  0  0  0
  5 10  1  1  0  0  0
  4 11  1  6  0  0  0
  3 12  1  1  0  0  0
 14 15  1  0  0  0  0
 15 16  1  0  0  0  0
 16 17  1  0  0  0  0
 17 18  1  0  0  0  0
 18 19  1  0  0  0  0
 19 20  1  0  0  0  0
 20 21  1  0  0  0  0
 21 22  1  0  0  0  0
 22 23  1  0  0  0  0
 23 24  1  0  0  0  0
 24 25  1  0  0  0  0
 25 26  1  0  0  0  0
 26 27  1  0  0  0  0
 27 28  1  0  0  0  0
 28 29  1  0  0  0  0
 29 30  1  0  0  0  0
 25 30  1  0  0  0  0
 30 31  1  0  0  0  0
 22 31  1  0  0  0  0
 31 32  2  0  0  0  0
 32 33  1  0  0  0  0
 33 34  1  0  0  0  0
 21 34  1  0  0  0  0
 34 35  1  0  0  0  0
 18 35  1  0  0  0  0
 14 35  1  0  0  0  0
 36 37  2  0  0  0  0
 39 40  1  0  0  0  0
 40 41  1  0  0  0  0
 41 42  1  0  0  0  0
 42 43  1  0  0  0  0
 43 44  1  0  0  0  0
 39 44  1  0  0  0  0
 45 46  1  0  0  0  0
 44 45  1  6  0  0  0
 43 47  1  1  0  0  0
 42 48  1  6  0  0  0
 41 49  1  1  0  0  0
 40 38  1  6  0  0  0
 36 38  1  0  0  0  0
 25 36  1  1  0  0  0
 35 50  1  1  0  0  0
 29 51  1  1  0  0  0
 28 52  1  6  0  0  0
 22 53  1  6  0  0  0
 21 54  1  1  0  0  0
 17 55  1  0  0  0  0
 17 56  1  0  0  0  0
 29 57  1  6  0  0  0
 16 13  1  1  0  0  0
  6 13  1  6  0  0  0
 18 58  1  6  0  0  0
 30 59  1  1  0  0  0
 34 60  1  6  0  0  0
M  END
>  <cdx:groupId>
969

>  <cdx:fragmentId>
812

$$$$
