301470.cdx
  Mrv1902 05222410282D          

 59 65  0  0  0  0            999 V2000
    5.2816   -4.2149    0.0000 C   0  0  1  0  0  0  0  0  0  0  0  0
    5.9961   -3.8024    0.0000 C   0  0  1  0  0  0  0  0  0  0  0  0
    6.7105   -4.2149    0.0000 C   0  0  0  0  0  0  0  0  0  0  0  0
    6.7105   -5.0399    0.0000 C   0  0  0  0  0  0  0  0  0  0  0  0
    5.9961   -5.4524    0.0000 C   0  0  2  0  0  0  0  0  0  0  0  0
    5.9961   -6.2774    0.0000 C   0  0  0  0  0  0  0  0  0  0  0  0
    5.2816   -6.6899    0.0000 C   0  0  0  0  0  0  0  0  0  0  0  0
    4.5671   -6.2774    0.0000 C   0  0  1  0  0  0  0  0  0  0  0  0
    3.8526   -6.6899    0.0000 C   0  0  2  0  0  0  0  0  0  0  0  0
    3.8526   -7.5149    0.0000 C   0  0  0  0  0  0  0  0  0  0  0  0
    3.1382   -7.9274    0.0000 C   0  0  0  0  0  0  0  0  0  0  0  0
    2.4237   -7.5149    0.0000 C   0  0  1  0  0  0  0  0  0  0  0  0
    1.7092   -7.9274    0.0000 C   0  0  2  0  0  0  0  0  0  0  0  0
    0.9948   -7.5149    0.0000 C   0  0  2  0  0  0  0  0  0  0  0  0
    0.9948   -6.6899    0.0000 C   0  0  0  0  0  0  0  0  0  0  0  0
    1.7092   -6.2774    0.0000 C   0  0  0  0  0  0  0  0  0  0  0  0
    2.4237   -6.6899    0.0000 C   0  0  1  0  0  0  0  0  0  0  0  0
    3.1382   -6.2774    0.0000 C   0  0  0  0  0  0  0  0  0  0  0  0
    3.1382   -5.4524    0.0000 C   0  0  0  0  0  0  0  0  0  0  0  0
    3.8526   -5.0399    0.0000 C   0  0  0  0  0  0  0  0  0  0  0  0
    4.5671   -5.4524    0.0000 C   0  0  0  0  0  0  0  0  0  0  0  0
    5.2816   -5.0399    0.0000 C   0  0  2  0  0  0  0  0  0  0  0  0
    6.7105   -5.8649    0.0000 C   0  0  0  0  0  0  0  0  0  0  0  0
    6.7105   -6.6899    0.0000 O   0  0  0  0  0  0  0  0  0  0  0  0
    7.4250   -5.4524    0.0000 O   0  0  0  0  0  0  0  0  0  0  0  0
    2.4237   -5.8649    0.0000 C   0  0  0  0  0  0  0  0  0  0  0  0
    1.2967   -8.6419    0.0000 C   0  0  0  0  0  0  0  0  0  0  0  0
    5.9961   -2.9774    0.0000 C   0  0  0  0  0  0  0  0  0  0  0  0
    4.8691   -3.5004    0.0000 C   0  0  0  0  0  0  0  0  0  0  0  0
    2.1217   -8.6419    0.0000 C   0  0  0  0  0  0  0  0  0  0  0  0
    1.7092   -9.3563    0.0000 O   0  0  0  0  0  0  0  0  0  0  0  0
    0.2803   -7.9274    0.0000 O   0  0  0  0  0  0  0  0  0  0  0  0
    4.4566   -4.2149    0.0000 O   0  0  0  0  0  0  0  0  0  0  0  0
    2.4237   -8.3399    0.0000 H   0  0  0  0  0  0  0  0  0  0  0  0
    5.2816   -5.8649    0.0000 H   0  0  0  0  0  0  0  0  0  0  0  0
    8.8539   -5.4524    0.0000 O   0  0  0  0  0  0  0  0  0  0  0  0
    8.1395   -5.8649    0.0000 C   0  0  2  0  0  0  0  0  0  0  0  0
    8.1395   -6.6899    0.0000 C   0  0  1  0  0  0  0  0  0  0  0  0
    8.8539   -7.1024    0.0000 C   0  0  2  0  0  0  0  0  0  0  0  0
    9.5684   -6.6899    0.0000 C   0  0  1  0  0  0  0  0  0  0  0  0
    9.5684   -5.8649    0.0000 C   0  0  1  0  0  0  0  0  0  0  0  0
   10.2829   -5.4524    0.0000 C   0  0  0  0  0  0  0  0  0  0  0  0
   10.9974   -5.8649    0.0000 O   0  0  0  0  0  0  0  0  0  0  0  0
   12.4263   -5.8649    0.0000 O   0  0  0  0  0  0  0  0  0  0  0  0
   11.7118   -5.4524    0.0000 C   0  0  1  0  0  0  0  0  0  0  0  0
   11.7118   -4.6274    0.0000 C   0  0  1  0  0  0  0  0  0  0  0  0
   12.4263   -4.2149    0.0000 C   0  0  2  0  0  0  0  0  0  0  0  0
   13.1408   -4.6274    0.0000 C   0  0  1  0  0  0  0  0  0  0  0  0
   13.1408   -5.4524    0.0000 C   0  0  1  0  0  0  0  0  0  0  0  0
   13.8552   -5.8649    0.0000 C   0  0  0  0  0  0  0  0  0  0  0  0
   14.5697   -5.4524    0.0000 O   0  0  0  0  0  0  0  0  0  0  0  0
   13.8552   -4.2149    0.0000 O   0  0  0  0  0  0  0  0  0  0  0  0
   12.4263   -3.3899    0.0000 O   0  0  0  0  0  0  0  0  0  0  0  0
   10.9974   -4.2149    0.0000 O   0  0  0  0  0  0  0  0  0  0  0  0
   10.2829   -7.1024    0.0000 O   0  0  0  0  0  0  0  0  0  0  0  0
    8.8539   -7.9274    0.0000 O   0  0  0  0  0  0  0  0  0  0  0  0
    7.4250   -7.1024    0.0000 O   0  0  0  0  0  0  0  0  0  0  0  0
    4.5671   -7.1024    0.0000 C   0  0  0  0  0  0  0  0  0  0  0  0
    4.4360   -7.2733    0.0000 C   0  0  0  0  0  0  0  0  0  0  0  0
  1  2  1  0  0  0  0
  2  3  1  0  0  0  0
  3  4  1  0  0  0  0
  4  5  1  0  0  0  0
  5  6  1  0  0  0  0
  6  7  1  0  0  0  0
  7  8  1  0  0  0  0
  8  9  1  0  0  0  0
  9 10  1  0  0  0  0
 10 11  1  0  0  0  0
 11 12  1  0  0  0  0
 12 13  1  0  0  0  0
 13 14  1  0  0  0  0
 14 15  1  0  0  0  0
 15 16  1  0  0  0  0
 16 17  1  0  0  0  0
 12 17  1  0  0  0  0
 17 18  1  0  0  0  0
  9 18  1  0  0  0  0
 18 19  1  0  0  0  0
 19 20  1  0  0  0  0
 20 21  2  0  0  0  0
  8 21  1  0  0  0  0
 21 22  1  0  0  0  0
  5 22  1  0  0  0  0
  1 22  1  0  0  0  0
 23 24  2  0  0  0  0
 23 25  1  0  0  0  0
  5 23  1  1  0  0  0
 17 26  1  6  0  0  0
 13 27  1  1  0  0  0
  2 28  1  6  0  0  0
  1 29  1  1  0  0  0
 30 31  1  0  0  0  0
 13 30  1  6  0  0  0
 14 32  1  1  0  0  0
  1 33  1  6  0  0  0
 12 34  1  6  0  0  0
 22 35  1  1  0  0  0
 36 37  1  0  0  0  0
 37 38  1  0  0  0  0
 38 39  1  0  0  0  0
 39 40  1  0  0  0  0
 40 41  1  0  0  0  0
 36 41  1  0  0  0  0
 44 45  1  0  0  0  0
 45 46  1  0  0  0  0
 46 47  1  0  0  0  0
 47 48  1  0  0  0  0
 48 49  1  0  0  0  0
 44 49  1  0  0  0  0
 50 51  1  0  0  0  0
 49 50  1  1  0  0  0
 48 52  1  6  0  0  0
 47 53  1  1  0  0  0
 46 54  1  6  0  0  0
 45 43  1  6  0  0  0
 42 43  1  0  0  0  0
 41 42  1  6  0  0  0
 40 55  1  1  0  0  0
 39 56  1  6  0  0  0
 38 57  1  1  0  0  0
 37 25  1  6  0  0  0
  8 58  1  6  0  0  0
  9 59  1  1  0  0  0
M  END
>  <cdx:groupId>
720

>  <cdx:fragmentId>
540

$$$$
