301415.cdx
  Mrv1902 05222410242D          

 22 22  0  0  0  0            999 V2000
    7.0612   -5.6432    0.0000 C   0  0  0  0  0  0  0  0  0  0  0  0
    7.7712   -5.2229    0.0000 O   0  0  0  0  0  0  0  0  0  0  0  0
    7.0702   -6.4681    0.0000 N   0  0  0  0  0  0  0  0  0  0  0  0
    8.4991   -6.4526    0.0000 C   0  0  0  0  0  0  0  0  0  0  0  0
    9.2180   -6.8573    0.0000 O   0  0  0  0  0  0  0  0  0  0  0  0
    6.3333   -4.4135    0.0000 N   0  0  0  0  0  0  0  0  0  0  0  0
    8.4901   -5.6276    0.0000 O   0  0  0  0  0  0  0  0  0  0  0  0
   10.6738   -9.3166    0.0000 O   0  0  0  0  0  0  0  0  0  0  0  0
    9.2270   -7.6822    0.0000 C   0  0  0  0  0  0  0  0  0  0  0  0
    9.9459   -8.0869    0.0000 C   0  0  0  0  0  0  0  0  0  0  0  0
    9.9549   -8.9119    0.0000 C   0  0  0  0  0  0  0  0  0  0  0  0
    9.2449   -9.3321    0.0000 C   0  0  0  0  0  0  0  0  0  0  0  0
    8.5260   -8.9274    0.0000 C   0  0  0  0  0  0  0  0  0  0  0  0
    8.5170   -8.1025    0.0000 C   0  0  0  0  0  0  0  0  0  0  0  0
    7.7981   -7.6978    0.0000 C   0  0  0  0  0  0  0  0  0  0  0  0
    7.7891   -6.8728    0.0000 C   0  0  2  0  0  0  0  0  0  0  0  0
    3.4846   -5.2696    0.0000 O   0  0  0  0  0  0  0  0  0  0  0  0
    4.2125   -6.4992    0.0000 O   0  0  0  0  0  0  0  0  0  0  0  0
    6.3423   -5.2385    0.0000 C   0  0  1  0  0  0  0  0  0  0  0  0
    5.6324   -5.6587    0.0000 C   0  0  0  0  0  0  0  0  0  0  0  0
    4.9135   -5.2540    0.0000 C   0  0  0  0  0  0  0  0  0  0  0  0
    4.2035   -5.6743    0.0000 C   0  0  0  0  0  0  0  0  0  0  0  0
 19  6  1  6  0  0  0
 16  4  1  0  0  0  0
 15 14  1  0  0  0  0
 11  8  1  0  0  0  0
 14  9  2  0  0  0  0
 10  9  1  0  0  0  0
 11 10  2  0  0  0  0
 12 11  1  0  0  0  0
 13 12  2  0  0  0  0
 14 13  1  0  0  0  0
 16 15  1  0  0  0  0
 22 17  1  0  0  0  0
 22 18  2  0  0  0  0
 19  1  1  0  0  0  0
 20 19  1  0  0  0  0
 21 20  1  0  0  0  0
 22 21  1  0  0  0  0
  1  2  2  0  0  0  0
  4  5  2  0  0  0  0
  4  7  1  0  0  0  0
 16  3  1  6  0  0  0
  1  3  1  0  0  0  0
M  END
>  <cdx:groupId>
390

>  <cdx:fragmentId>
391

$$$$
