301477.cdx
  Mrv1902 05222410272D          

 22 23  0  0  0  0            999 V2000
   10.6193   -7.2151    0.0000 O   0  0  0  0  0  0  0  0  0  0  0  0
    4.5906   -7.5697    0.0000 O   0  0  0  0  0  0  0  0  0  0  0  0
    8.2971   -6.3589    0.0000 O   0  0  0  0  0  0  0  0  0  0  0  0
    8.9256   -8.2314    0.0000 O   0  0  0  0  0  0  0  0  0  0  0  0
   10.1249   -8.5559    0.0000 C   0  0  0  0  0  0  0  0  0  0  0  0
    9.4964   -6.6833    0.0000 C   0  0  0  0  0  0  0  0  0  0  0  0
    9.9851   -7.7428    0.0000 C   0  0  1  0  0  0  0  0  0  0  0  0
    9.2110   -7.4574    0.0000 C   0  0  0  0  0  0  0  0  0  0  0  0
    8.4370   -7.1720    0.0000 C   0  0  0  0  0  0  0  0  0  0  0  0
    7.8028   -7.6996    0.0000 O   0  0  0  0  0  0  0  0  0  0  0  0
    6.9812   -7.6243    0.0000 C   0  0  0  0  0  0  0  0  0  0  0  0
    4.9361   -8.3189    0.0000 C   0  0  2  0  0  0  0  0  0  0  0  0
    4.4601   -8.9927    0.0000 C   0  0  0  0  0  0  0  0  0  0  0  0
    4.9538   -9.6536    0.0000 C   0  0  0  0  0  0  0  0  0  0  0  0
    6.5052   -8.2981    0.0000 C   0  0  0  0  0  0  0  0  0  0  0  0
    5.7240   -8.5634    0.0000 C   0  0  1  0  0  0  0  0  0  0  0  0
    5.7350   -9.3883    0.0000 N   0  0  0  0  0  0  0  0  0  0  0  0
    6.5229   -9.6328    0.0000 C   0  0  0  0  0  0  0  0  0  0  0  0
    6.9989   -8.9590    0.0000 C   0  0  0  0  0  0  0  0  0  0  0  0
    5.7131   -7.7385    0.0000 H   0  0  0  0  0  0  0  0  0  0  0  0
    8.9688   -6.0491    0.0000 C   0  0  0  0  0  0  0  0  0  0  0  0
   10.3095   -6.5435    0.0000 C   0  0  0  0  0  0  0  0  0  0  0  0
  7  1  1  1  0  0  0
  8  4  1  6  0  0  0
 12  2  1  1  0  0  0
  9  3  2  0  0  0  0
  7  5  1  0  0  0  0
  8  6  1  0  0  0  0
  8  7  1  0  0  0  0
  9  8  1  0  0  0  0
 10  9  1  0  0  0  0
 11 10  1  0  0  0  0
 15 11  1  0  0  0  0
 12 16  1  0  0  0  0
 13 12  1  0  0  0  0
 14 13  1  0  0  0  0
 17 14  1  0  0  0  0
 15 19  2  0  0  0  0
 16 15  1  0  0  0  0
 17 16  1  0  0  0  0
 18 17  1  0  0  0  0
 19 18  1  0  0  0  0
 16 20  1  6  0  0  0
  6 21  1  0  0  0  0
  6 22  1  0  0  0  0
M  END
>  <cdx:fragmentId>
5

$$$$
