301417.cdx
  Mrv1902 05222410232D          

 53 57  0  0  0  0            999 V2000
    6.3533   -7.2616    0.0000 C   0  0  0  0  0  0  0  0  0  0  0  0
    5.6388   -7.6741    0.0000 C   0  0  0  0  0  0  0  0  0  0  0  0
    4.9244   -7.2616    0.0000 C   0  0  0  0  0  0  0  0  0  0  0  0
    6.3533   -6.4366    0.0000 O   0  0  0  0  0  0  0  0  0  0  0  0
    7.0678   -7.6741    0.0000 O   0  0  0  0  0  0  0  0  0  0  0  0
    4.2099   -7.6741    0.0000 C   0  0  0  0  0  0  0  0  0  0  0  0
    3.4954   -7.2616    0.0000 C   0  0  0  0  0  0  0  0  0  0  0  0
    2.7809   -7.6741    0.0000 C   0  0  0  0  0  0  0  0  0  0  0  0
    2.7809   -8.4991    0.0000 C   0  0  0  0  0  0  0  0  0  0  0  0
    3.4954   -8.9116    0.0000 C   0  0  0  0  0  0  0  0  0  0  0  0
    4.2099   -8.4991    0.0000 C   0  0  0  0  0  0  0  0  0  0  0  0
    2.0665   -8.9116    0.0000 O   0  0  0  0  0  0  0  0  0  0  0  0
    2.0665   -7.2616    0.0000 O   0  0  0  0  0  0  0  0  0  0  0  0
    8.4967   -6.0241    0.0000 O   0  0  0  0  0  0  0  0  0  0  0  0
    7.7822   -6.4366    0.0000 C   0  0  1  0  0  0  0  0  0  0  0  0
    7.7822   -7.2616    0.0000 C   0  0  2  0  0  0  0  0  0  0  0  0
    8.4967   -7.6741    0.0000 C   0  0  1  0  0  0  0  0  0  0  0  0
    9.2112   -7.2616    0.0000 C   0  0  2  0  0  0  0  0  0  0  0  0
    9.2112   -6.4366    0.0000 C   0  0  2  0  0  0  0  0  0  0  0  0
    8.4967   -8.4991    0.0000 O   0  0  0  0  0  0  0  0  0  0  0  0
    7.0678   -8.4991    0.0000 O   0  0  0  0  0  0  0  0  0  0  0  0
    7.7822   -8.9116    0.0000 C   0  0  2  0  0  0  0  0  0  0  0  0
    7.7822   -9.7366    0.0000 C   0  0  1  0  0  0  0  0  0  0  0  0
    7.0678  -10.1491    0.0000 C   0  0  1  0  0  0  0  0  0  0  0  0
    6.3533   -9.7366    0.0000 C   0  0  2  0  0  0  0  0  0  0  0  0
    6.3533   -8.9116    0.0000 C   0  0  2  0  0  0  0  0  0  0  0  0
    5.6388   -8.4991    0.0000 C   0  0  0  0  0  0  0  0  0  0  0  0
    5.6388  -10.1491    0.0000 O   0  0  0  0  0  0  0  0  0  0  0  0
    7.0678  -10.9741    0.0000 O   0  0  0  0  0  0  0  0  0  0  0  0
    8.4967  -10.1491    0.0000 O   0  0  0  0  0  0  0  0  0  0  0  0
    7.0678   -6.0241    0.0000 C   0  0  0  0  0  0  0  0  0  0  0  0
    7.0678   -5.1991    0.0000 O   0  0  0  0  0  0  0  0  0  0  0  0
    9.9256   -6.0241    0.0000 O   0  0  0  0  0  0  0  0  0  0  0  0
    9.9256   -5.1991    0.0000 C   0  0  0  0  0  0  0  0  0  0  0  0
   10.6401   -4.7866    0.0000 C   0  0  0  0  0  0  0  0  0  0  0  0
   10.6401   -3.9616    0.0000 C   0  0  0  0  0  0  0  0  0  0  0  0
    9.9256   -3.5491    0.0000 C   0  0  0  0  0  0  0  0  0  0  0  0
    9.9256   -2.7241    0.0000 C   0  0  0  0  0  0  0  0  0  0  0  0
   10.6401   -2.3116    0.0000 C   0  0  0  0  0  0  0  0  0  0  0  0
   11.3546   -2.7241    0.0000 C   0  0  0  0  0  0  0  0  0  0  0  0
   11.3546   -3.5491    0.0000 C   0  0  0  0  0  0  0  0  0  0  0  0
   10.6401   -1.4866    0.0000 O   0  0  0  0  0  0  0  0  0  0  0  0
    9.2112   -2.3116    0.0000 O   0  0  0  0  0  0  0  0  0  0  0  0
   11.3546   -8.4991    0.0000 O   0  0  0  0  0  0  0  0  0  0  0  0
   11.3546  -10.1491    0.0000 O   0  0  0  0  0  0  0  0  0  0  0  0
    9.9256  -10.9741    0.0000 O   0  0  0  0  0  0  0  0  0  0  0  0
    9.2112   -9.7366    0.0000 C   0  0  0  0  0  0  0  0  0  0  0  0
    9.9256  -10.1491    0.0000 C   0  0  1  0  0  0  0  0  0  0  0  0
   10.6401   -9.7366    0.0000 C   0  0  2  0  0  0  0  0  0  0  0  0
   10.6401   -8.9116    0.0000 C   0  0  1  0  0  0  0  0  0  0  0  0
    9.9256   -8.4991    0.0000 C   0  0  1  0  0  0  0  0  0  0  0  0
    9.2112   -8.9116    0.0000 O   0  0  0  0  0  0  0  0  0  0  0  0
    9.9256   -7.6741    0.0000 O   0  0  0  0  0  0  0  0  0  0  0  0
 51 53  1  1  0  0  0
 50 44  1  1  0  0  0
 49 45  1  6  0  0  0
 48 46  1  1  0  0  0
 52 47  1  0  0  0  0
 48 47  1  0  0  0  0
 49 48  1  0  0  0  0
 50 49  1  0  0  0  0
 51 50  1  0  0  0  0
 52 51  1  0  0  0  0
  1  2  1  0  0  0  0
  2  3  2  0  0  0  0
  1  4  2  0  0  0  0
  1  5  1  0  0  0  0
  6  7  1  0  0  0  0
  7  8  2  0  0  0  0
  8  9  1  0  0  0  0
  9 10  2  0  0  0  0
 10 11  1  0  0  0  0
  6 11  2  0  0  0  0
  9 12  1  0  0  0  0
  8 13  1  0  0  0  0
  3  6  1  0  0  0  0
 14 15  1  0  0  0  0
 15 16  1  0  0  0  0
 16 17  1  0  0  0  0
 17 18  1  0  0  0  0
 18 19  1  0  0  0  0
 14 19  1  0  0  0  0
 18 53  1  6  0  0  0
 21 22  1  0  0  0  0
 22 23  1  0  0  0  0
 23 24  1  0  0  0  0
 24 25  1  0  0  0  0
 25 26  1  0  0  0  0
 21 26  1  0  0  0  0
 26 27  1  6  0  0  0
 25 28  1  1  0  0  0
 24 29  1  6  0  0  0
 23 30  1  6  0  0  0
 22 20  1  1  0  0  0
 17 20  1  1  0  0  0
 31 32  1  0  0  0  0
 15 31  1  1  0  0  0
 34 35  1  0  0  0  0
 33 34  1  0  0  0  0
 36 37  1  0  0  0  0
 37 38  2  0  0  0  0
 38 39  1  0  0  0  0
 39 40  2  0  0  0  0
 40 41  1  0  0  0  0
 36 41  2  0  0  0  0
 39 42  1  0  0  0  0
 38 43  1  0  0  0  0
 35 36  1  0  0  0  0
 19 33  1  1  0  0  0
 16  5  1  6  0  0  0
M  END
>  <cdx:fragmentId>
599

$$$$
