301421.cdx
  Mrv1902 05222410212D          

 37 40  0  0  0  0            999 V2000
    6.7379   -6.3731    0.0000 C   0  0  1  0  0  0  0  0  0  0  0  0
    7.4524   -5.9606    0.0000 C   0  0  1  0  0  0  0  0  0  0  0  0
    7.4524   -5.1356    0.0000 C   0  0  1  0  0  0  0  0  0  0  0  0
    6.7379   -4.7231    0.0000 C   0  0  0  0  0  0  0  0  0  0  0  0
    6.0234   -5.1356    0.0000 C   0  0  0  0  0  0  0  0  0  0  0  0
    6.0234   -5.9606    0.0000 O   0  0  0  0  0  0  0  0  0  0  0  0
    8.2370   -4.8807    0.0000 C   0  0  0  0  0  0  0  0  0  0  0  0
    8.7219   -5.5481    0.0000 C   0  0  0  0  0  0  0  0  0  0  0  0
    8.2370   -6.2156    0.0000 C   0  0  0  0  0  0  0  0  0  0  0  0
    6.7379   -3.8981    0.0000 C   0  0  0  0  0  0  0  0  0  0  0  0
    7.4524   -3.4856    0.0000 O   0  0  0  0  0  0  0  0  0  0  0  0
    6.0234   -3.4856    0.0000 O   0  0  0  0  0  0  0  0  0  0  0  0
    6.7379   -7.1981    0.0000 O   0  0  0  0  0  0  0  0  0  0  0  0
    5.3090   -7.1981    0.0000 O   0  0  0  0  0  0  0  0  0  0  0  0
    6.0234   -7.6106    0.0000 C   0  0  2  0  0  0  0  0  0  0  0  0
    6.0234   -8.4356    0.0000 C   0  0  1  0  0  0  0  0  0  0  0  0
    5.3090   -8.8481    0.0000 C   0  0  2  0  0  0  0  0  0  0  0  0
    4.5945   -8.4356    0.0000 C   0  0  1  0  0  0  0  0  0  0  0  0
    4.5945   -7.6106    0.0000 C   0  0  1  0  0  0  0  0  0  0  0  0
    3.8800   -7.1981    0.0000 C   0  0  0  0  0  0  0  0  0  0  0  0
    3.1656   -7.6106    0.0000 O   0  0  0  0  0  0  0  0  0  0  0  0
    3.8800   -8.8481    0.0000 O   0  0  0  0  0  0  0  0  0  0  0  0
    5.3090   -9.6731    0.0000 O   0  0  0  0  0  0  0  0  0  0  0  0
    6.7379   -8.8481    0.0000 O   0  0  0  0  0  0  0  0  0  0  0  0
    8.4919   -7.0002    0.0000 C   0  0  0  0  0  0  0  0  0  0  0  0
    9.2989   -7.1717    0.0000 O   0  0  0  0  0  0  0  0  0  0  0  0
    9.5538   -7.9563    0.0000 C   0  0  0  0  0  0  0  0  0  0  0  0
   10.3608   -8.1279    0.0000 C   0  0  0  0  0  0  0  0  0  0  0  0
   10.9129   -7.5148    0.0000 C   0  0  0  0  0  0  0  0  0  0  0  0
   11.7198   -7.6863    0.0000 C   0  0  0  0  0  0  0  0  0  0  0  0
   11.9748   -8.4709    0.0000 C   0  0  0  0  0  0  0  0  0  0  0  0
   11.4227   -9.0840    0.0000 C   0  0  0  0  0  0  0  0  0  0  0  0
   10.6158   -8.9125    0.0000 C   0  0  0  0  0  0  0  0  0  0  0  0
    9.0018   -8.5694    0.0000 O   0  0  0  0  0  0  0  0  0  0  0  0
    7.5386   -4.3151    0.0000 H   0  0  0  0  0  0  0  0  0  0  0  0
    7.5386   -6.7811    0.0000 H   0  0  0  0  0  0  0  0  0  0  0  0
    6.0234   -2.6606    0.0000 C   0  0  0  0  0  0  0  0  0  0  0  0
  1  2  1  0  0  0  0
  2  3  1  0  0  0  0
  3  4  1  0  0  0  0
  4  5  2  0  0  0  0
  5  6  1  0  0  0  0
  1  6  1  0  0  0  0
  7  8  1  0  0  0  0
  8  9  2  0  0  0  0
  9  2  1  0  0  0  0
  7  3  1  0  0  0  0
 10 11  2  0  0  0  0
 10 12  1  0  0  0  0
  4 10  1  0  0  0  0
 14 15  1  0  0  0  0
 15 16  1  0  0  0  0
 16 17  1  0  0  0  0
 17 18  1  0  0  0  0
 18 19  1  0  0  0  0
 14 19  1  0  0  0  0
 20 21  1  0  0  0  0
 19 20  1  1  0  0  0
 18 22  1  6  0  0  0
 17 23  1  1  0  0  0
 16 24  1  6  0  0  0
 15 13  1  1  0  0  0
  1 13  1  6  0  0  0
 27 28  1  0  0  0  0
 28 29  1  0  0  0  0
 29 30  2  0  0  0  0
 30 31  1  0  0  0  0
 31 32  2  0  0  0  0
 32 33  1  0  0  0  0
 28 33  2  0  0  0  0
 27 34  2  0  0  0  0
 26 27  1  0  0  0  0
 25 26  1  0  0  0  0
  9 25  1  0  0  0  0
  3 35  1  6  0  0  0
  2 36  1  6  0  0  0
 12 37  1  0  0  0  0
M  END
>  <cdx:groupId>
1184

>  <cdx:fragmentId>
1073

$$$$
