301407.cdx
  Mrv1902 05222410252D          

 30 31  0  0  0  0            999 V2000
    6.7105   -5.8179    0.0000 C   0  0  0  0  0  0  0  0  0  0  0  0
    7.4250   -6.2304    0.0000 C   0  0  1  0  0  0  0  0  0  0  0  0
    8.1395   -5.8179    0.0000 C   0  0  0  0  0  0  0  0  0  0  0  0
    6.7105   -4.9929    0.0000 O   0  0  0  0  0  0  0  0  0  0  0  0
    8.8539   -6.2304    0.0000 C   0  0  0  0  0  0  0  0  0  0  0  0
    9.5684   -5.8179    0.0000 C   0  0  0  0  0  0  0  0  0  0  0  0
   10.2829   -6.2304    0.0000 C   0  0  0  0  0  0  0  0  0  0  0  0
   10.2829   -7.0554    0.0000 C   0  0  0  0  0  0  0  0  0  0  0  0
    9.5684   -7.4679    0.0000 C   0  0  0  0  0  0  0  0  0  0  0  0
    8.8539   -7.0554    0.0000 C   0  0  0  0  0  0  0  0  0  0  0  0
   10.9974   -5.8179    0.0000 C   0  0  0  0  0  0  0  0  0  0  0  0
   11.7118   -6.2304    0.0000 C   0  0  0  0  0  0  0  0  0  0  0  0
   12.4263   -5.8179    0.0000 C   0  0  0  0  0  0  0  0  0  0  0  0
   12.4263   -4.9929    0.0000 C   0  0  0  0  0  0  0  0  0  0  0  0
   13.1408   -6.2304    0.0000 C   0  0  0  0  0  0  0  0  0  0  0  0
   10.9974   -7.4679    0.0000 O   0  0  0  0  0  0  0  0  0  0  0  0
    7.4250   -7.0554    0.0000 O   0  0  0  0  0  0  0  0  0  0  0  0
    5.9961   -6.2304    0.0000 C   0  0  0  0  0  0  0  0  0  0  0  0
    5.2816   -5.8179    0.0000 C   0  0  0  0  0  0  0  0  0  0  0  0
    4.5671   -6.2304    0.0000 C   0  0  0  0  0  0  0  0  0  0  0  0
    4.5671   -7.0554    0.0000 C   0  0  0  0  0  0  0  0  0  0  0  0
    5.2816   -7.4679    0.0000 C   0  0  0  0  0  0  0  0  0  0  0  0
    5.9961   -7.0554    0.0000 C   0  0  0  0  0  0  0  0  0  0  0  0
    3.8526   -5.8179    0.0000 C   0  0  0  0  0  0  0  0  0  0  0  0
    3.1382   -6.2304    0.0000 C   0  0  0  0  0  0  0  0  0  0  0  0
    2.4237   -5.8179    0.0000 C   0  0  0  0  0  0  0  0  0  0  0  0
    2.4237   -4.9929    0.0000 C   0  0  0  0  0  0  0  0  0  0  0  0
    1.7092   -6.2304    0.0000 C   0  0  0  0  0  0  0  0  0  0  0  0
    3.8526   -7.4679    0.0000 O   0  0  0  0  0  0  0  0  0  0  0  0
    5.2816   -4.9929    0.0000 O   0  0  0  0  0  0  0  0  0  0  0  0
  1  2  1  0  0  0  0
  2  3  1  0  0  0  0
  1  4  2  0  0  0  0
  5  6  1  0  0  0  0
  6  7  2  0  0  0  0
  7  8  1  0  0  0  0
  8  9  2  0  0  0  0
  9 10  1  0  0  0  0
  5 10  2  0  0  0  0
 11 12  1  0  0  0  0
 12 13  2  0  0  0  0
 13 14  1  0  0  0  0
 13 15  1  0  0  0  0
  7 11  1  0  0  0  0
  8 16  1  0  0  0  0
  3  5  1  0  0  0  0
  2 17  1  1  0  0  0
 18 19  1  0  0  0  0
 19 20  2  0  0  0  0
 20 21  1  0  0  0  0
 21 22  2  0  0  0  0
 22 23  1  0  0  0  0
 18 23  2  0  0  0  0
 24 25  1  0  0  0  0
 25 26  2  0  0  0  0
 26 27  1  0  0  0  0
 26 28  1  0  0  0  0
 20 24  1  0  0  0  0
 21 29  1  0  0  0  0
 19 30  1  0  0  0  0
  1 18  1  0  0  0  0
M  END
>  <cdx:groupId>
93

>  <cdx:fragmentId>
13

$$$$
