30148.cdx
  Mrv1902 05222410232D          

 17 17  0  0  0  0            999 V2000
    8.0086   -5.1307    0.0000 C   0  0  0  0  0  0  0  0  0  0  0  0
    7.2946   -4.7175    0.0000 C   0  0  2  0  0  0  0  0  0  0  0  0
    6.5796   -5.1292    0.0000 C   0  0  0  0  0  0  0  0  0  0  0  0
    6.5787   -5.9542    0.0000 C   0  0  0  0  0  0  0  0  0  0  0  0
    7.2928   -6.3675    0.0000 C   0  0  1  0  0  0  0  0  0  0  0  0
    8.0077   -5.9557    0.0000 C   0  0  0  0  0  0  0  0  0  0  0  0
    6.5770   -7.6042    0.0000 C   0  0  0  0  0  0  0  0  0  0  0  0
    7.2919   -7.1925    0.0000 C   0  0  2  0  0  0  0  0  0  0  0  0
    6.8821   -4.0030    0.0000 C   0  0  0  0  0  0  0  0  0  0  0  0
    7.7071   -4.0030    0.0000 O   0  0  0  0  0  0  0  0  0  0  0  0
    8.0059   -7.6057    0.0000 C   0  0  0  0  0  0  0  0  0  0  0  0
    8.0068   -6.7807    0.0000 H   0  0  0  0  0  0  0  0  0  0  0  0
    6.5761   -8.4292    0.0000 C   0  0  0  0  0  0  0  0  0  0  0  0
    5.8616   -8.8417    0.0000 C   0  0  0  0  0  0  0  0  0  0  0  0
    5.8616   -9.6667    0.0000 C   0  0  0  0  0  0  0  0  0  0  0  0
    6.5761  -10.0792    0.0000 C   0  0  0  0  0  0  0  0  0  0  0  0
    5.1471  -10.0792    0.0000 C   0  0  0  0  0  0  0  0  0  0  0  0
  1  2  1  0  0  0  0
  2  3  1  0  0  0  0
  3  4  1  0  0  0  0
  4  5  1  0  0  0  0
  5  6  1  0  0  0  0
  6  1  2  0  0  0  0
  7  8  1  0  0  0  0
  8  5  1  0  0  0  0
  2  9  1  0  0  0  0
  2 10  1  1  0  0  0
  8 11  1  1  0  0  0
  5 12  1  6  0  0  0
  7 13  1  0  0  0  0
 13 14  1  0  0  0  0
 14 15  2  0  0  0  0
 15 16  1  0  0  0  0
 15 17  1  0  0  0  0
M  END
>  <cdx:fragmentId>
5

$$$$
