301476.cdx
  Mrv1902 05222410262D          

 23 25  0  0  0  0            999 V2000
    6.4217   -5.8657    0.0000 N   0  0  0  0  0  0  0  0  0  0  0  0
    7.1361   -6.2782    0.0000 C   0  0  0  0  0  0  0  0  0  0  0  0
    7.1361   -7.1032    0.0000 C   0  0  0  0  0  0  0  0  0  0  0  0
    6.4217   -7.5157    0.0000 C   0  0  0  0  0  0  0  0  0  0  0  0
    5.7072   -7.1032    0.0000 C   0  0  0  0  0  0  0  0  0  0  0  0
    4.9927   -7.5157    0.0000 C   0  0  0  0  0  0  0  0  0  0  0  0
    4.2782   -7.1032    0.0000 C   0  0  0  0  0  0  0  0  0  0  0  0
    4.2782   -6.2782    0.0000 C   0  0  0  0  0  0  0  0  0  0  0  0
    4.9927   -5.8657    0.0000 C   0  0  0  0  0  0  0  0  0  0  0  0
    5.7072   -6.2782    0.0000 C   0  0  0  0  0  0  0  0  0  0  0  0
    7.8506   -7.5157    0.0000 C   0  0  0  0  0  0  0  0  0  0  0  0
    7.8506   -8.3407    0.0000 O   0  0  0  0  0  0  0  0  0  0  0  0
    8.5651   -7.1032    0.0000 O   0  0  0  0  0  0  0  0  0  0  0  0
    7.8506   -5.8657    0.0000 C   0  0  0  0  0  0  0  0  0  0  0  0
    8.6043   -6.2013    0.0000 N   0  0  0  0  0  0  0  0  0  0  0  0
    9.1563   -5.5882    0.0000 C   0  0  0  0  0  0  0  0  0  0  0  0
    8.7438   -4.8737    0.0000 C   0  0  0  0  0  0  0  0  0  0  0  0
    7.9368   -5.0452    0.0000 N   0  0  0  0  0  0  0  0  0  0  0  0
    9.9962   -4.4321    0.0000 C   0  0  0  0  0  0  0  0  0  0  0  0
    9.9100   -5.2526    0.0000 C   0  0  0  0  0  0  0  0  0  0  0  0
   10.5774   -5.7375    0.0000 C   0  0  0  0  0  0  0  0  0  0  0  0
    9.0794   -4.1200    0.0000 O   0  0  0  0  0  0  0  0  0  0  0  0
    9.8237   -6.0731    0.0000 C   0  0  0  0  0  0  0  0  0  0  0  0
  1  2  2  0  0  0  0
  2  3  1  0  0  0  0
  3  4  2  0  0  0  0
  4  5  1  0  0  0  0
  5  6  2  0  0  0  0
  6  7  1  0  0  0  0
  7  8  2  0  0  0  0
  8  9  1  0  0  0  0
  9 10  2  0  0  0  0
  1 10  1  0  0  0  0
  5 10  1  0  0  0  0
 11 12  2  0  0  0  0
 11 13  1  0  0  0  0
  3 11  1  0  0  0  0
 14 15  2  0  0  0  0
 15 16  1  0  0  0  0
 16 17  1  0  0  0  0
 17 18  1  0  0  0  0
 14 18  1  0  0  0  0
 19 20  1  0  0  0  0
 20 21  1  0  0  0  0
 16 20  1  0  0  0  0
 17 22  2  0  0  0  0
 16 23  1  0  0  0  0
  2 14  1  0  0  0  0
M  END
>  <cdx:groupId>
1670

>  <cdx:fragmentId>
1602

$$$$
