301479.cdx
  Mrv1902 05222410202D          

 15 16  0  0  0  0            999 V2000
    7.8301   -7.1455    0.0000 N   0  0  0  0  0  0  0  0  0  0  0  0
    8.3150   -6.4780    0.0000 C   0  0  0  0  0  0  0  0  0  0  0  0
    7.8301   -5.8106    0.0000 C   0  0  0  0  0  0  0  0  0  0  0  0
    7.0454   -6.0655    0.0000 C   0  0  0  0  0  0  0  0  0  0  0  0
    6.3310   -5.6530    0.0000 C   0  0  0  0  0  0  0  0  0  0  0  0
    5.6165   -6.0655    0.0000 C   0  0  0  0  0  0  0  0  0  0  0  0
    5.6165   -6.8905    0.0000 C   0  0  0  0  0  0  0  0  0  0  0  0
    6.3310   -7.3030    0.0000 C   0  0  0  0  0  0  0  0  0  0  0  0
    7.0454   -6.8905    0.0000 C   0  0  0  0  0  0  0  0  0  0  0  0
    9.1400   -6.4780    0.0000 O   0  0  0  0  0  0  0  0  0  0  0  0
    7.6585   -5.0036    0.0000 C   0  0  0  0  0  0  0  0  0  0  0  0
    8.4432   -5.2586    0.0000 C   0  0  0  0  0  0  0  0  0  0  0  0
    6.3310   -4.8280    0.0000 O   0  0  0  0  0  0  0  0  0  0  0  0
    5.6165   -4.4155    0.0000 C   0  0  0  0  0  0  0  0  0  0  0  0
    8.0850   -7.9301    0.0000 O   0  0  0  0  0  0  0  0  0  0  0  0
  1  2  1  0  0  0  0
  2  3  1  0  0  0  0
  3  4  1  0  0  0  0
  4  5  1  0  0  0  0
  5  6  2  0  0  0  0
  6  7  1  0  0  0  0
  7  8  2  0  0  0  0
  8  9  1  0  0  0  0
  1  9  1  0  0  0  0
  4  9  2  0  0  0  0
  2 10  2  0  0  0  0
  3 11  1  0  0  0  0
  3 12  1  0  0  0  0
 13 14  1  0  0  0  0
  5 13  1  0  0  0  0
  1 15  1  0  0  0  0
M  END
>  <cdx:groupId>
1721

>  <cdx:fragmentId>
1678

$$$$
