301480.cdx
  Mrv1902 05222410192D          

 19 21  0  0  0  0            999 V2000
    9.3041   -5.0395    0.0000 C   0  0  0  0  0  0  0  0  0  0  0  0
    9.0492   -5.8241    0.0000 C   0  0  0  0  0  0  0  0  0  0  0  0
    8.2422   -5.9957    0.0000 C   0  0  0  0  0  0  0  0  0  0  0  0
    8.7521   -4.4264    0.0000 O   0  0  0  0  0  0  0  0  0  0  0  0
   10.1111   -4.8680    0.0000 O   0  0  0  0  0  0  0  0  0  0  0  0
    6.5129   -6.4669    0.0000 N   0  0  0  0  0  0  0  0  0  0  0  0
    7.1803   -6.9518    0.0000 C   0  0  0  0  0  0  0  0  0  0  0  0
    6.9254   -7.7364    0.0000 C   0  0  0  0  0  0  0  0  0  0  0  0
    6.1004   -7.7364    0.0000 C   0  0  0  0  0  0  0  0  0  0  0  0
    5.5483   -8.3495    0.0000 C   0  0  0  0  0  0  0  0  0  0  0  0
    4.7414   -8.1780    0.0000 C   0  0  0  0  0  0  0  0  0  0  0  0
    4.4864   -7.3934    0.0000 C   0  0  0  0  0  0  0  0  0  0  0  0
    5.0385   -6.7803    0.0000 C   0  0  0  0  0  0  0  0  0  0  0  0
    5.8454   -6.9518    0.0000 C   0  0  0  0  0  0  0  0  0  0  0  0
    7.9873   -6.7803    0.0000 C   0  0  0  0  0  0  0  0  0  0  0  0
    7.4774   -8.3495    0.0000 C   0  0  0  0  0  0  0  0  0  0  0  0
    8.2844   -8.1780    0.0000 C   0  0  0  0  0  0  0  0  0  0  0  0
    8.5393   -7.3934    0.0000 N   0  0  0  0  0  0  0  0  0  0  0  0
   10.3660   -4.0834    0.0000 C   0  0  0  0  0  0  0  0  0  0  0  0
  1  2  1  0  0  0  0
  2  3  1  0  0  0  0
  1  4  2  0  0  0  0
  1  5  1  0  0  0  0
  6  7  1  0  0  0  0
  7  8  2  0  0  0  0
  8  9  1  0  0  0  0
  9 10  1  0  0  0  0
 10 11  2  0  0  0  0
 11 12  1  0  0  0  0
 12 13  2  0  0  0  0
 13 14  1  0  0  0  0
  6 14  1  0  0  0  0
  9 14  2  0  0  0  0
 16 17  2  0  0  0  0
 17 18  1  0  0  0  0
 15 18  2  0  0  0  0
 15  7  1  0  0  0  0
 16  8  1  0  0  0  0
  3 15  1  0  0  0  0
  5 19  1  0  0  0  0
M  END
>  <cdx:groupId>
1782

>  <cdx:fragmentId>
1736

$$$$
