301432.cdx
  Mrv1902 05222410222D          

 33 36  0  0  0  0            999 V2000
    4.4731   -6.4435    0.0000 O   0  0  0  0  0  0  0  0  0  0  0  0
   10.9033   -6.8560    0.0000 O   0  0  0  0  0  0  0  0  0  0  0  0
   11.6178   -5.6185    0.0000 C   0  0  0  0  0  0  0  0  0  0  0  0
   10.9033   -5.2060    0.0000 O   0  0  0  0  0  0  0  0  0  0  0  0
    8.7599   -5.6185    0.0000 C   0  0  0  0  0  0  0  0  0  0  0  0
    9.4744   -5.2060    0.0000 C   0  0  0  0  0  0  0  0  0  0  0  0
   10.1889   -5.6185    0.0000 C   0  0  0  0  0  0  0  0  0  0  0  0
   10.1889   -6.4435    0.0000 C   0  0  0  0  0  0  0  0  0  0  0  0
    9.4744   -6.8560    0.0000 C   0  0  0  0  0  0  0  0  0  0  0  0
    8.7599   -6.4435    0.0000 C   0  0  0  0  0  0  0  0  0  0  0  0
    5.9020  -10.5685    0.0000 O   0  0  0  0  0  0  0  0  0  0  0  0
    4.4731  -11.3935    0.0000 O   0  0  0  0  0  0  0  0  0  0  0  0
    3.0441  -10.5685    0.0000 O   0  0  0  0  0  0  0  0  0  0  0  0
    2.3297   -9.3310    0.0000 O   0  0  0  0  0  0  0  0  0  0  0  0
    3.0441   -8.9185    0.0000 C   0  0  0  0  0  0  0  0  0  0  0  0
    3.7586   -9.3310    0.0000 C   0  0  2  0  0  0  0  0  0  0  0  0
    3.7586  -10.1560    0.0000 C   0  0  2  0  0  0  0  0  0  0  0  0
    4.4731  -10.5685    0.0000 C   0  0  1  0  0  0  0  0  0  0  0  0
    5.1876  -10.1560    0.0000 C   0  0  2  0  0  0  0  0  0  0  0  0
    5.1876   -9.3310    0.0000 C   0  0  1  0  0  0  0  0  0  0  0  0
    4.4731   -8.9185    0.0000 O   0  0  0  0  0  0  0  0  0  0  0  0
    5.9020   -8.9185    0.0000 O   0  0  0  0  0  0  0  0  0  0  0  0
    7.3310   -8.9185    0.0000 O   0  0  0  0  0  0  0  0  0  0  0  0
    7.3310   -6.4435    0.0000 O   0  0  0  0  0  0  0  0  0  0  0  0
    6.6165   -6.8560    0.0000 C   0  0  0  0  0  0  0  0  0  0  0  0
    5.9020   -6.4435    0.0000 C   0  0  0  0  0  0  0  0  0  0  0  0
    5.1876   -6.8560    0.0000 C   0  0  0  0  0  0  0  0  0  0  0  0
    5.1876   -7.6810    0.0000 C   0  0  0  0  0  0  0  0  0  0  0  0
    5.9020   -8.0935    0.0000 C   0  0  0  0  0  0  0  0  0  0  0  0
    6.6165   -7.6810    0.0000 C   0  0  0  0  0  0  0  0  0  0  0  0
    7.3310   -8.0935    0.0000 C   0  0  0  0  0  0  0  0  0  0  0  0
    8.0454   -7.6810    0.0000 C   0  0  0  0  0  0  0  0  0  0  0  0
    8.0454   -6.8560    0.0000 C   0  0  1  0  0  0  0  0  0  0  0  0
 27  1  1  0  0  0  0
 33 10  1  6  0  0  0
  8  2  1  0  0  0  0
  7  4  1  0  0  0  0
  4  3  1  0  0  0  0
 10  5  2  0  0  0  0
  6  5  1  0  0  0  0
  7  6  2  0  0  0  0
  8  7  1  0  0  0  0
  9  8  2  0  0  0  0
 10  9  1  0  0  0  0
 29 22  1  0  0  0  0
 20 22  1  1  0  0  0
 19 11  1  6  0  0  0
 18 12  1  1  0  0  0
 17 13  1  6  0  0  0
 16 15  1  1  0  0  0
 15 14  1  0  0  0  0
 21 16  1  0  0  0  0
 17 16  1  0  0  0  0
 18 17  1  0  0  0  0
 19 18  1  0  0  0  0
 20 19  1  0  0  0  0
 21 20  1  0  0  0  0
 31 23  2  0  0  0  0
 33 24  1  0  0  0  0
 25 24  1  0  0  0  0
 30 25  2  0  0  0  0
 26 25  1  0  0  0  0
 27 26  2  0  0  0  0
 28 27  1  0  0  0  0
 29 28  2  0  0  0  0
 30 29  1  0  0  0  0
 31 30  1  0  0  0  0
 32 31  1  0  0  0  0
 33 32  1  0  0  0  0
M  END
>  <cdx:fragmentId>
29

$$$$
