301431.cdx
  Mrv1902 05222410222D          

  8  7  0  0  0  0            999 V2000
    9.0617   -6.4428    0.0000 C   0  0  0  0  0  0  0  0  0  0  0  0
    8.3472   -6.0303    0.0000 C   0  0  0  0  0  0  0  0  0  0  0  0
    7.6327   -6.4428    0.0000 C   0  0  0  0  0  0  0  0  0  0  0  0
    6.9183   -6.0303    0.0000 C   0  0  0  0  0  0  0  0  0  0  0  0
    6.2038   -6.4428    0.0000 C   0  0  0  0  0  0  0  0  0  0  0  0
    5.4893   -6.0303    0.0000 C   0  0  0  0  0  0  0  0  0  0  0  0
    4.7749   -6.4428    0.0000 C   0  0  0  0  0  0  0  0  0  0  0  0
    9.7762   -6.0303    0.0000 O   0  0  0  0  0  0  0  0  0  0  0  0
  1  2  2  0  0  0  0
  2  3  1  0  0  0  0
  3  4  1  0  0  0  0
  4  5  1  0  0  0  0
  5  6  1  0  0  0  0
  6  7  1  0  0  0  0
  1  8  1  0  0  0  0
M  END
>  <cdx:groupId>
538

>  <cdx:fragmentId>
518

$$$$
