301448.cdx
  Mrv1902 05222410262D          

 97107  0  0  0  0            999 V2000
   17.2345   -5.8025    0.0000 C   0  0  0  0  0  0  0  0  0  0  0  0
   17.9490   -5.3900    0.0000 C   0  0  0  0  0  0  0  0  0  0  0  0
   18.6635   -5.8025    0.0000 C   0  0  0  0  0  0  0  0  0  0  0  0
   18.6635   -6.6275    0.0000 C   0  0  0  0  0  0  0  0  0  0  0  0
   17.9490   -7.0400    0.0000 C   0  0  2  0  0  0  0  0  0  0  0  0
   17.9490   -7.8650    0.0000 C   0  0  0  0  0  0  0  0  0  0  0  0
   17.2345   -8.2775    0.0000 C   0  0  0  0  0  0  0  0  0  0  0  0
   16.5200   -7.8650    0.0000 C   0  0  1  0  0  0  0  0  0  0  0  0
   15.8056   -8.2775    0.0000 C   0  0  2  0  0  0  0  0  0  0  0  0
   15.8056   -9.1025    0.0000 C   0  0  0  0  0  0  0  0  0  0  0  0
   15.0911   -9.5150    0.0000 C   0  0  0  0  0  0  0  0  0  0  0  0
   14.3766   -9.1025    0.0000 C   0  0  1  0  0  0  0  0  0  0  0  0
   13.6622   -9.5150    0.0000 C   0  0  1  0  0  0  0  0  0  0  0  0
   12.9477   -9.1025    0.0000 C   0  0  2  0  0  0  0  0  0  0  0  0
   12.9477   -8.2775    0.0000 C   0  0  0  0  0  0  0  0  0  0  0  0
   13.6622   -7.8650    0.0000 C   0  0  0  0  0  0  0  0  0  0  0  0
   14.3766   -8.2775    0.0000 C   0  0  2  0  0  0  0  0  0  0  0  0
   15.0911   -7.8650    0.0000 C   0  0  1  0  0  0  0  0  0  0  0  0
   15.0911   -7.0400    0.0000 C   0  0  0  0  0  0  0  0  0  0  0  0
   15.8056   -6.6275    0.0000 C   0  0  0  0  0  0  0  0  0  0  0  0
   16.5200   -7.0400    0.0000 C   0  0  0  0  0  0  0  0  0  0  0  0
   17.2345   -6.6275    0.0000 C   0  0  2  0  0  0  0  0  0  0  0  0
   18.6635   -7.4525    0.0000 C   0  0  0  0  0  0  0  0  0  0  0  0
   18.6635   -8.2775    0.0000 O   0  0  0  0  0  0  0  0  0  0  0  0
   14.0747  -10.2294    0.0000 C   0  0  0  0  0  0  0  0  0  0  0  0
   13.2497  -10.2294    0.0000 C   0  0  0  0  0  0  0  0  0  0  0  0
   17.5365   -4.6755    0.0000 C   0  0  0  0  0  0  0  0  0  0  0  0
   18.3615   -4.6755    0.0000 C   0  0  0  0  0  0  0  0  0  0  0  0
   12.2332   -9.5150    0.0000 O   0  0  0  0  0  0  0  0  0  0  0  0
   11.5187   -8.2775    0.0000 O   0  0  0  0  0  0  0  0  0  0  0  0
   11.5187   -9.1025    0.0000 C   0  0  2  0  0  0  0  0  0  0  0  0
   10.8043   -9.5150    0.0000 C   0  0  1  0  0  0  0  0  0  0  0  0
   10.0898   -9.1025    0.0000 C   0  0  2  0  0  0  0  0  0  0  0  0
   10.0898   -8.2775    0.0000 C   0  0  2  0  0  0  0  0  0  0  0  0
   10.8043   -7.8650    0.0000 C   0  0  0  0  0  0  0  0  0  0  0  0
    9.3753   -7.8650    0.0000 O   0  0  0  0  0  0  0  0  0  0  0  0
    9.3753   -9.5150    0.0000 O   0  0  0  0  0  0  0  0  0  0  0  0
   10.8043  -10.3400    0.0000 O   0  0  0  0  0  0  0  0  0  0  0  0
    9.3753  -10.3400    0.0000 O   0  0  0  0  0  0  0  0  0  0  0  0
   10.0898  -10.7525    0.0000 C   0  0  2  0  0  0  0  0  0  0  0  0
   10.0898  -11.5775    0.0000 C   0  0  1  0  0  0  0  0  0  0  0  0
    9.3753  -11.9900    0.0000 C   0  0  1  0  0  0  0  0  0  0  0  0
    8.6609  -11.5775    0.0000 C   0  0  2  0  0  0  0  0  0  0  0  0
    8.6609  -10.7525    0.0000 C   0  0  2  0  0  0  0  0  0  0  0  0
    7.9464  -10.3400    0.0000 C   0  0  0  0  0  0  0  0  0  0  0  0
    7.9464  -11.9900    0.0000 O   0  0  0  0  0  0  0  0  0  0  0  0
   10.8043  -11.9900    0.0000 O   0  0  0  0  0  0  0  0  0  0  0  0
    6.5091  -14.4479    0.0000 O   0  0  0  0  0  0  0  0  0  0  0  0
   14.3766   -9.9275    0.0000 H   0  0  0  0  0  0  0  0  0  0  0  0
   17.2345   -7.4525    0.0000 H   0  0  0  0  0  0  0  0  0  0  0  0
   21.5284   -9.9222    0.0000 O   0  0  0  0  0  0  0  0  0  0  0  0
   20.7976  -11.1501    0.0000 O   0  0  0  0  0  0  0  0  0  0  0  0
   21.5175  -10.7471    0.0000 C   0  0  2  0  0  0  0  0  0  0  0  0
   22.2265  -11.1690    0.0000 C   0  0  1  0  0  0  0  0  0  0  0  0
   22.2155  -11.9940    0.0000 C   0  0  2  0  0  0  0  0  0  0  0  0
   21.4957  -12.3970    0.0000 C   0  0  1  0  0  0  0  0  0  0  0  0
   20.7867  -11.9751    0.0000 C   0  0  1  0  0  0  0  0  0  0  0  0
   20.0669  -12.3781    0.0000 C   0  0  0  0  0  0  0  0  0  0  0  0
   19.3524  -11.9656    0.0000 O   0  0  0  0  0  0  0  0  0  0  0  0
   22.9245  -12.4159    0.0000 O   0  0  0  0  0  0  0  0  0  0  0  0
   22.9463  -10.7660    0.0000 O   0  0  0  0  0  0  0  0  0  0  0  0
    9.3753  -14.4650    0.0000 O   0  0  0  0  0  0  0  0  0  0  0  0
    7.2319  -13.2275    0.0000 C   0  0  0  0  0  0  0  0  0  0  0  0
    7.2319  -14.0525    0.0000 C   0  0  2  0  0  0  0  0  0  0  0  0
    7.9464  -14.4650    0.0000 C   0  0  2  0  0  0  0  0  0  0  0  0
    8.6609  -14.0525    0.0000 C   0  0  2  0  0  0  0  0  0  0  0  0
    8.6609  -13.2275    0.0000 C   0  0  1  0  0  0  0  0  0  0  0  0
    7.9464  -12.8150    0.0000 O   0  0  0  0  0  0  0  0  0  0  0  0
    9.3753  -12.8150    0.0000 O   0  0  0  0  0  0  0  0  0  0  0  0
   21.4865  -14.8719    0.0000 O   0  0  0  0  0  0  0  0  0  0  0  0
   20.0584  -15.6984    0.0000 O   0  0  0  0  0  0  0  0  0  0  0  0
   18.6286  -14.8749    0.0000 O   0  0  0  0  0  0  0  0  0  0  0  0
   18.6269  -13.2249    0.0000 C   0  0  0  0  0  0  0  0  0  0  0  0
   19.3418  -13.6366    0.0000 C   0  0  1  0  0  0  0  0  0  0  0  0
   19.3426  -14.4616    0.0000 C   0  0  1  0  0  0  0  0  0  0  0  0
   20.0575  -14.8734    0.0000 C   0  0  2  0  0  0  0  0  0  0  0  0
   20.7716  -14.4602    0.0000 C   0  0  2  0  0  0  0  0  0  0  0  0
   20.7707  -13.6352    0.0000 C   0  0  1  0  0  0  0  0  0  0  0  0
   20.0558  -13.2234    0.0000 O   0  0  0  0  0  0  0  0  0  0  0  0
   21.4848  -13.2219    0.0000 O   0  0  0  0  0  0  0  0  0  0  0  0
   20.8130   -9.5115    0.0000 C   0  0  0  0  0  0  0  0  0  0  0  0
   20.8048   -6.2115    0.0000 O   0  0  0  0  0  0  0  0  0  0  0  0
   22.2358   -7.0329    0.0000 O   0  0  0  0  0  0  0  0  0  0  0  0
   22.2399   -8.6829    0.0000 O   0  0  0  0  0  0  0  0  0  0  0  0
   20.8109   -8.6865    0.0000 C   0  0  2  0  0  0  0  0  0  0  0  0
   21.5244   -8.2722    0.0000 C   0  0  2  0  0  0  0  0  0  0  0  0
   21.5223   -7.4472    0.0000 C   0  0  1  0  0  0  0  0  0  0  0  0
   20.8069   -7.0365    0.0000 C   0  0  2  0  0  0  0  0  0  0  0  0
   20.0934   -7.4507    0.0000 C   0  0  1  0  0  0  0  0  0  0  0  0
   20.0954   -8.2757    0.0000 O   0  0  0  0  0  0  0  0  0  0  0  0
   19.3779   -7.0400    0.0000 O   0  0  0  0  0  0  0  0  0  0  0  0
   14.3766   -7.4525    0.0000 C   0  0  0  0  0  0  0  0  0  0  0  0
   15.8056   -7.4525    0.0000 C   0  0  0  0  0  0  0  0  0  0  0  0
   16.5200   -8.6900    0.0000 C   0  0  0  0  0  0  0  0  0  0  0  0
   15.0911   -8.6900    0.0000 H   0  0  0  0  0  0  0  0  0  0  0  0
    7.9464  -15.2900    0.0000 O   0  0  0  0  0  0  0  0  0  0  0  0
   13.6622  -10.9439    0.0000 O   0  0  0  0  0  0  0  0  0  0  0  0
 89 91  1  1  0  0  0
 67 69  1  1  0  0  0
 66 62  1  6  0  0  0
 68 63  1  0  0  0  0
 64 63  1  0  0  0  0
 65 64  1  0  0  0  0
 85 81  1  1  0  0  0
 81 51  1  0  0  0  0
 78 80  1  1  0  0  0
 77 70  1  6  0  0  0
 76 71  1  6  0  0  0
 75 72  1  1  0  0  0
 74 73  1  6  0  0  0
 79 74  1  0  0  0  0
 75 74  1  0  0  0  0
 76 75  1  0  0  0  0
 77 76  1  0  0  0  0
 78 77  1  0  0  0  0
 79 78  1  0  0  0  0
 52 53  1  0  0  0  0
 88 82  1  6  0  0  0
 87 83  1  1  0  0  0
 86 84  1  6  0  0  0
 90 85  1  0  0  0  0
 86 85  1  0  0  0  0
 87 86  1  0  0  0  0
 88 87  1  0  0  0  0
  1  2  1  0  0  0  0
  2  3  1  0  0  0  0
  3  4  1  0  0  0  0
  4  5  1  0  0  0  0
  5  6  1  0  0  0  0
  6  7  1  0  0  0  0
  7  8  1  0  0  0  0
  8  9  1  0  0  0  0
  9 10  1  0  0  0  0
 10 11  1  0  0  0  0
 11 12  1  0  0  0  0
 12 13  1  0  0  0  0
 13 14  1  0  0  0  0
 14 15  1  0  0  0  0
 15 16  1  0  0  0  0
 16 17  1  0  0  0  0
 12 17  1  0  0  0  0
 17 18  1  0  0  0  0
  9 18  1  0  0  0  0
 18 19  1  0  0  0  0
 19 20  1  0  0  0  0
 20 21  2  0  0  0  0
  8 21  1  0  0  0  0
 21 22  1  0  0  0  0
  5 22  1  0  0  0  0
  1 22  1  0  0  0  0
 23 24  2  0  0  0  0
 23 91  1  0  0  0  0
  5 23  1  1  0  0  0
 13 25  1  0  0  0  0
 13 26  1  1  0  0  0
  2 27  1  0  0  0  0
  2 28  1  0  0  0  0
 30 31  1  0  0  0  0
 31 32  1  0  0  0  0
 32 33  1  0  0  0  0
 33 34  1  0  0  0  0
 34 35  1  0  0  0  0
 30 35  1  0  0  0  0
 34 36  1  1  0  0  0
 33 37  1  1  0  0  0
 39 40  1  0  0  0  0
 40 41  1  0  0  0  0
 41 42  1  0  0  0  0
 42 43  1  0  0  0  0
 43 44  1  0  0  0  0
 39 44  1  0  0  0  0
 44 45  1  6  0  0  0
 43 46  1  1  0  0  0
 41 47  1  6  0  0  0
 66 65  1  0  0  0  0
 67 66  1  0  0  0  0
 68 67  1  0  0  0  0
 42 69  1  6  0  0  0
 40 38  1  1  0  0  0
 32 38  1  6  0  0  0
 31 29  1  1  0  0  0
 14 29  1  1  0  0  0
 12 49  1  6  0  0  0
 22 50  1  1  0  0  0
 89 88  1  0  0  0  0
 90 89  1  0  0  0  0
 53 54  1  0  0  0  0
 54 55  1  0  0  0  0
 55 56  1  0  0  0  0
 56 57  1  0  0  0  0
 52 57  1  0  0  0  0
 56 80  1  6  0  0  0
 58 59  1  0  0  0  0
 57 58  1  1  0  0  0
 55 60  1  1  0  0  0
 54 61  1  6  0  0  0
 53 51  1  1  0  0  0
 17 92  1  1  0  0  0
  9 93  1  1  0  0  0
  8 94  1  6  0  0  0
 18 95  1  6  0  0  0
 65 96  1  6  0  0  0
 64 48  1  6  0  0  0
 25 97  1  0  0  0  0
M  END
>  <cdx:groupId>
181687

>  <cdx:fragmentId>
181457

$$$$
