301498.cdx
  Mrv1902 05222410272D          

 10  9  0  0  0  0            999 V2000
    9.2112   -6.8486    0.0000 C   0  0  0  0  0  0  0  0  0  0  0  0
    9.2112   -6.0236    0.0000 C   0  0  0  0  0  0  0  0  0  0  0  0
    8.4967   -5.6111    0.0000 C   0  0  0  0  0  0  0  0  0  0  0  0
    7.7822   -6.0236    0.0000 C   0  0  0  0  0  0  0  0  0  0  0  0
    7.0678   -5.6111    0.0000 C   0  0  0  0  0  0  0  0  0  0  0  0
    6.3533   -6.0236    0.0000 C   0  0  0  0  0  0  0  0  0  0  0  0
    5.6388   -5.6111    0.0000 C   0  0  0  0  0  0  0  0  0  0  0  0
    4.9244   -6.0236    0.0000 C   0  0  0  0  0  0  0  0  0  0  0  0
    6.3533   -6.8486    0.0000 C   0  0  0  0  0  0  0  0  0  0  0  0
    9.9256   -5.6111    0.0000 C   0  0  0  0  0  0  0  0  0  0  0  0
  1  2  1  0  0  0  0
  2  3  2  0  0  0  0
  3  4  1  0  0  0  0
  4  5  1  0  0  0  0
  5  6  1  0  0  0  0
  6  7  2  0  0  0  0
  7  8  1  0  0  0  0
  6  9  1  0  0  0  0
  2 10  1  0  0  0  0
M  END
>  <cdx:fragmentId>
154

$$$$
