301579.cdx
  Mrv1902 05222410222D          

 17 18  0  0  0  0            999 V2000
    5.0738   -5.6111    0.0000 C   0  0  0  0  0  0  0  0  0  0  0  0
    4.3594   -6.0236    0.0000 O   0  0  0  0  0  0  0  0  0  0  0  0
    6.5028   -7.2611    0.0000 N   0  0  0  0  0  0  0  0  0  0  0  0
    5.7883   -6.8486    0.0000 C   0  0  0  0  0  0  0  0  0  0  0  0
    5.7883   -6.0236    0.0000 C   0  0  2  0  0  0  0  0  0  0  0  0
    6.5028   -5.6111    0.0000 C   0  0  0  0  0  0  0  0  0  0  0  0
    7.2172   -6.0236    0.0000 C   0  0  2  0  0  0  0  0  0  0  0  0
    7.2172   -6.8486    0.0000 C   0  0  0  0  0  0  0  0  0  0  0  0
    6.5028   -8.0861    0.0000 C   0  0  0  0  0  0  0  0  0  0  0  0
    7.9317   -5.6111    0.0000 C   0  0  0  0  0  0  0  0  0  0  0  0
    7.9317   -4.7861    0.0000 C   0  0  0  0  0  0  0  0  0  0  0  0
    8.6462   -4.3736    0.0000 C   0  0  0  0  0  0  0  0  0  0  0  0
    9.3607   -4.7861    0.0000 C   0  0  0  0  0  0  0  0  0  0  0  0
    9.3607   -5.6111    0.0000 C   0  0  0  0  0  0  0  0  0  0  0  0
    8.6462   -6.0236    0.0000 N   0  0  0  0  0  0  0  0  0  0  0  0
   10.0751   -6.0236    0.0000 O   0  0  0  0  0  0  0  0  0  0  0  0
   10.7896   -5.6111    0.0000 C   0  0  0  0  0  0  0  0  0  0  0  0
  1  2  1  0  0  0  0
  3  4  1  0  0  0  0
  4  5  1  0  0  0  0
  5  6  1  0  0  0  0
  6  7  1  0  0  0  0
  7  8  1  0  0  0  0
  3  8  1  0  0  0  0
  3  9  1  0  0  0  0
 10 11  1  0  0  0  0
 11 12  2  0  0  0  0
 12 13  1  0  0  0  0
 13 14  2  0  0  0  0
 14 15  1  0  0  0  0
 10 15  2  0  0  0  0
 16 17  1  0  0  0  0
 14 16  1  0  0  0  0
  7 10  1  1  0  0  0
  5  1  1  1  0  0  0
M  END
>  <cdx:groupId>
2238

>  <cdx:fragmentId>
2207

$$$$
