301574.cdx
  Mrv1902 05222410242D          

 32 33  0  0  0  0            999 V2000
    6.5484   -8.6673    0.0000 C   0  0  0  0  0  0  0  0  0  0  0  0
    5.7235   -8.6831    0.0000 O   0  0  0  0  0  0  0  0  0  0  0  0
    5.8082   -7.4736    0.0000 O   0  0  0  0  0  0  0  0  0  0  0  0
    7.9162   -8.6357    0.0000 H   0  0  0  0  0  0  0  0  0  0  0  0
    9.9250   -4.0236    0.0000 C   0  0  0  0  0  0  0  0  0  0  0  0
    8.4970   -4.0749    0.0000 O   0  0  0  0  0  0  0  0  0  0  0  0
    9.2258   -4.4615    0.0000 C   0  0  0  0  0  0  0  0  0  0  0  0
    9.2554   -5.2860    0.0000 O   0  0  0  0  0  0  0  0  0  0  0  0
    8.5562   -5.7238    0.0000 C   0  0  0  0  0  0  0  0  0  0  0  0
    7.3416   -8.8939    0.0000 O   0  0  0  0  0  0  0  0  0  0  0  0
   10.1036   -9.0261    0.0000 O   0  0  0  0  0  0  0  0  0  0  0  0
   10.0985  -10.6761    0.0000 C   0  0  0  0  0  0  0  0  0  0  0  0
    9.3853  -10.2614    0.0000 C   0  0  0  0  0  0  0  0  0  0  0  0
    9.3879   -9.4364    0.0000 C   0  0  0  0  0  0  0  0  0  0  0  0
    8.6747   -9.0217    0.0000 O   0  0  0  0  0  0  0  0  0  0  0  0
    7.1413   -8.0936    0.0000 C   0  0  1  0  0  0  0  0  0  0  0  0
    6.6327   -7.4440    0.0000 C   0  0  2  0  0  0  0  0  0  0  0  0
    7.0934   -6.7596    0.0000 C   0  0  0  0  0  0  0  0  0  0  0  0
    9.3443   -7.7594    0.0000 O   0  0  0  0  0  0  0  0  0  0  0  0
    9.3146   -6.9349    0.0000 C   0  0  0  0  0  0  0  0  0  0  0  0
    8.5858   -6.5483    0.0000 C   0  0  0  0  0  0  0  0  0  0  0  0
    7.8866   -6.9862    0.0000 C   0  0  0  0  0  0  0  0  0  0  0  0
    7.9162   -7.8107    0.0000 C   0  0  2  0  0  0  0  0  0  0  0  0
    8.6450   -8.1973    0.0000 C   0  0  2  0  0  0  0  0  0  0  0  0
   10.0960  -11.5011    0.0000 C   0  0  0  0  0  0  0  0  0  0  0  0
   10.8143  -10.2658    0.0000 C   0  0  0  0  0  0  0  0  0  0  0  0
    5.0936   -7.0614    0.0000 C   0  0  0  0  0  0  0  0  0  0  0  0
    4.3793   -7.4741    0.0000 C   0  0  0  0  0  0  0  0  0  0  0  0
    5.0933   -6.2364    0.0000 O   0  0  0  0  0  0  0  0  0  0  0  0
    3.6647   -7.0619    0.0000 C   0  0  0  0  0  0  0  0  0  0  0  0
    2.9504   -7.4746    0.0000 C   0  0  0  0  0  0  0  0  0  0  0  0
    3.6644   -6.2369    0.0000 C   0  0  0  0  0  0  0  0  0  0  0  0
 23  4  1  1  0  0  0
 17  3  1  1  0  0  0
 21  9  1  0  0  0  0
  9  8  1  0  0  0  0
  8  7  1  0  0  0  0
  7  5  1  0  0  0  0
  7  6  2  0  0  0  0
 16 10  1  6  0  0  0
 16  1  1  1  0  0  0
 24 15  1  1  0  0  0
 15 14  1  0  0  0  0
 14 11  2  0  0  0  0
 13 12  1  0  0  0  0
 14 13  1  0  0  0  0
 18 22  2  0  0  0  0
 16 23  1  0  0  0  0
 17 16  1  0  0  0  0
 18 17  1  0  0  0  0
 24 19  1  0  0  0  0
 20 19  1  0  0  0  0
 21 20  2  0  0  0  0
 22 21  1  0  0  0  0
 23 22  1  0  0  0  0
 24 23  1  0  0  0  0
  1  2  1  0  0  0  0
 12 25  1  0  0  0  0
 12 26  1  0  0  0  0
  3 27  1  0  0  0  0
 27 28  1  0  0  0  0
 27 29  2  0  0  0  0
 28 30  1  0  0  0  0
 30 31  1  0  0  0  0
 30 32  1  0  0  0  0
M  END
>  <cdx:groupId>
120

>  <cdx:fragmentId>
21

$$$$
