301525.cdx
  Mrv1902 05222410202D          

 20 21  0  0  0  0            999 V2000
    8.8574   -5.8240    0.0000 C   0  0  0  0  0  0  0  0  0  0  0  0
    8.1429   -6.2365    0.0000 C   0  0  0  0  0  0  0  0  0  0  0  0
    8.1429   -7.0615    0.0000 C   0  0  0  0  0  0  0  0  0  0  0  0
    8.8574   -7.4740    0.0000 C   0  0  0  0  0  0  0  0  0  0  0  0
    9.5719   -7.0615    0.0000 C   0  0  0  0  0  0  0  0  0  0  0  0
    9.5719   -6.2365    0.0000 C   0  0  0  0  0  0  0  0  0  0  0  0
    8.8574   -4.9990    0.0000 O   0  0  0  0  0  0  0  0  0  0  0  0
    7.4284   -7.4740    0.0000 C   0  0  0  0  0  0  0  0  0  0  0  0
    6.7140   -7.0615    0.0000 C   0  0  0  0  0  0  0  0  0  0  0  0
    5.9995   -7.4740    0.0000 C   0  0  0  0  0  0  0  0  0  0  0  0
    5.2850   -7.0615    0.0000 C   0  0  0  0  0  0  0  0  0  0  0  0
    4.5706   -7.4740    0.0000 C   0  0  0  0  0  0  0  0  0  0  0  0
    3.8561   -7.0615    0.0000 C   0  0  0  0  0  0  0  0  0  0  0  0
    3.8561   -6.2365    0.0000 C   0  0  0  0  0  0  0  0  0  0  0  0
    4.5706   -5.8240    0.0000 C   0  0  0  0  0  0  0  0  0  0  0  0
    5.2850   -6.2365    0.0000 C   0  0  0  0  0  0  0  0  0  0  0  0
   10.2863   -5.8240    0.0000 O   0  0  0  0  0  0  0  0  0  0  0  0
   11.0008   -6.2365    0.0000 C   0  0  0  0  0  0  0  0  0  0  0  0
    7.4284   -5.8240    0.0000 O   0  0  0  0  0  0  0  0  0  0  0  0
    6.7140   -6.2365    0.0000 C   0  0  0  0  0  0  0  0  0  0  0  0
  1  2  1  0  0  0  0
  2  3  2  0  0  0  0
  3  4  1  0  0  0  0
  4  5  2  0  0  0  0
  5  6  1  0  0  0  0
  1  6  2  0  0  0  0
  1  7  1  0  0  0  0
  8  9  1  0  0  0  0
  9 10  2  0  0  0  0
 11 12  1  0  0  0  0
 12 13  2  0  0  0  0
 13 14  1  0  0  0  0
 14 15  2  0  0  0  0
 15 16  1  0  0  0  0
 11 16  2  0  0  0  0
 10 11  1  0  0  0  0
  3  8  1  0  0  0  0
 17 18  1  0  0  0  0
  6 17  1  0  0  0  0
 19 20  1  0  0  0  0
  2 19  1  0  0  0  0
M  END
>  <cdx:groupId>
1358

>  <cdx:fragmentId>
1320

$$$$
