301575.cdx
  Mrv1902 05222410242D          

 36 38  0  0  0  0            999 V2000
   10.5443   -6.6671    0.0000 C   0  0  0  0  0  0  0  0  0  0  0  0
   11.2588   -7.9046    0.0000 C   0  0  0  0  0  0  0  0  0  0  0  0
   10.5443   -7.4921    0.0000 C   0  0  0  0  0  0  0  0  0  0  0  0
    9.1154   -6.6671    0.0000 O   0  0  0  0  0  0  0  0  0  0  0  0
    9.8298   -7.9046    0.0000 C   0  0  0  0  0  0  0  0  0  0  0  0
    9.1154   -7.4921    0.0000 C   0  0  0  0  0  0  0  0  0  0  0  0
    6.9719   -6.2546    0.0000 C   0  0  0  0  0  0  0  0  0  0  0  0
    8.4009   -6.2546    0.0000 C   0  0  0  0  0  0  0  0  0  0  0  0
    7.6864   -6.6671    0.0000 C   0  0  0  0  0  0  0  0  0  0  0  0
    8.4009   -7.9046    0.0000 O   0  0  0  0  0  0  0  0  0  0  0  0
    6.9719  -12.8546    0.0000 C   0  0  0  0  0  0  0  0  0  0  0  0
    6.9719  -13.6796    0.0000 C   0  0  0  0  0  0  0  0  0  0  0  0
    7.6864  -14.0921    0.0000 C   0  0  0  0  0  0  0  0  0  0  0  0
    7.6864  -14.9171    0.0000 C   0  0  0  0  0  0  0  0  0  0  0  0
    7.6864  -12.4421    0.0000 O   0  0  0  0  0  0  0  0  0  0  0  0
    4.7584  -11.4595    0.0000 C   0  0  2  0  0  0  0  0  0  0  0  0
    4.9299  -12.2665    0.0000 O   0  0  0  0  0  0  0  0  0  0  0  0
    4.1453  -12.0115    0.0000 C   0  0  0  0  0  0  0  0  0  0  0  0
    5.5430  -12.0296    0.0000 H   0  0  0  0  0  0  0  0  0  0  0  0
    7.6864   -7.4921    0.0000 C   0  0  0  0  0  0  0  0  0  0  0  0
    6.2575   -7.4921    0.0000 O   0  0  0  0  0  0  0  0  0  0  0  0
    6.9719   -7.9046    0.0000 C   0  0  0  0  0  0  0  0  0  0  0  0
    6.9719   -8.7296    0.0000 O   0  0  0  0  0  0  0  0  0  0  0  0
    6.2575   -9.1421    0.0000 C   0  0  0  0  0  0  0  0  0  0  0  0
    8.4009  -13.6796    0.0000 C   0  0  0  0  0  0  0  0  0  0  0  0
    6.2575  -12.4421    0.0000 O   0  0  0  0  0  0  0  0  0  0  0  0
    4.2734  -10.7921    0.0000 C   0  0  2  0  0  0  0  0  0  0  0  0
    4.7584  -10.1246    0.0000 C   0  0  0  0  0  0  0  0  0  0  0  0
    6.9719  -11.2046    0.0000 O   0  0  0  0  0  0  0  0  0  0  0  0
    6.9719  -10.3796    0.0000 C   0  0  0  0  0  0  0  0  0  0  0  0
    6.2575   -9.9671    0.0000 C   0  0  0  0  0  0  0  0  0  0  0  0
    5.5430  -10.3796    0.0000 C   0  0  2  0  0  0  0  0  0  0  0  0
    5.5430  -11.2046    0.0000 C   0  0  2  0  0  0  0  0  0  0  0  0
    6.2575  -11.6171    0.0000 C   0  0  2  0  0  0  0  0  0  0  0  0
    3.4484  -10.7921    0.0000 O   0  0  0  0  0  0  0  0  0  0  0  0
    5.5430   -9.5546    0.0000 O   0  0  0  0  0  0  0  0  0  0  0  0
  3  1  1  0  0  0  0
  3  2  1  0  0  0  0
  5  3  1  0  0  0  0
  6  4  2  0  0  0  0
  6  5  1  0  0  0  0
 10  6  1  0  0  0  0
  9  7  1  0  0  0  0
  9  8  1  0  0  0  0
 20  9  1  0  0  0  0
 20 10  1  0  0  0  0
 33 19  1  1  0  0  0
 27 35  1  1  0  0  0
 31 24  1  0  0  0  0
 24 23  1  0  0  0  0
 23 22  1  0  0  0  0
 22 20  1  0  0  0  0
 22 21  2  0  0  0  0
 34 26  1  1  0  0  0
 26 11  1  0  0  0  0
 32 28  1  0  0  0  0
 33 16  1  0  0  0  0
 27 16  1  0  0  0  0
 28 27  1  0  0  0  0
 34 29  1  0  0  0  0
 30 29  1  0  0  0  0
 31 30  2  0  0  0  0
 32 31  1  0  0  0  0
 33 32  1  0  0  0  0
 34 33  1  0  0  0  0
 11 12  1  0  0  0  0
 12 13  1  0  0  0  0
 13 14  1  0  0  0  0
 11 15  2  0  0  0  0
 13 25  1  0  0  0  0
 17 18  1  0  0  0  0
 16 17  1  6  0  0  0
 16 18  1  0  0  0  0
 32 36  1  1  0  0  0
M  END
>  <cdx:fragmentId>
11516

$$$$
