301531.cdx
  Mrv1902 05222410202D          

 38 41  0  0  0  0            999 V2000
   10.6467   -7.3166    0.0000 C   0  0  0  0  0  0  0  0  0  0  0  0
   11.3612   -7.7291    0.0000 C   0  0  0  0  0  0  0  0  0  0  0  0
   12.0757   -7.3166    0.0000 C   0  0  0  0  0  0  0  0  0  0  0  0
    9.9322   -7.7291    0.0000 O   0  0  0  0  0  0  0  0  0  0  0  0
   11.3612   -8.5541    0.0000 C   0  0  0  0  0  0  0  0  0  0  0  0
   10.6467   -6.4916    0.0000 C   0  0  0  0  0  0  0  0  0  0  0  0
    9.9322   -6.0791    0.0000 C   0  0  0  0  0  0  0  0  0  0  0  0
    9.9322   -5.2541    0.0000 C   0  0  0  0  0  0  0  0  0  0  0  0
   10.6467   -4.8416    0.0000 C   0  0  0  0  0  0  0  0  0  0  0  0
   11.3612   -5.2541    0.0000 C   0  0  0  0  0  0  0  0  0  0  0  0
   11.3612   -6.0791    0.0000 C   0  0  0  0  0  0  0  0  0  0  0  0
   12.0757   -4.8416    0.0000 C   0  0  0  0  0  0  0  0  0  0  0  0
   12.0757   -6.4916    0.0000 O   0  0  0  0  0  0  0  0  0  0  0  0
   12.7901   -6.0791    0.0000 C   0  0  0  0  0  0  0  0  0  0  0  0
   10.6467   -4.0166    0.0000 O   0  0  0  0  0  0  0  0  0  0  0  0
    9.2178   -6.4916    0.0000 O   0  0  0  0  0  0  0  0  0  0  0  0
    9.0034   -4.7179    0.0000 C   0  0  0  0  0  0  0  0  0  0  0  0
    5.2167   -6.0791    0.0000 C   0  0  2  0  0  0  0  0  0  0  0  0
    5.2167   -5.2541    0.0000 C   0  0  2  0  0  0  0  0  0  0  0  0
    5.9312   -4.8416    0.0000 C   0  0  0  0  0  0  0  0  0  0  0  0
    6.6457   -5.2541    0.0000 C   0  0  0  0  0  0  0  0  0  0  0  0
    7.3601   -4.8416    0.0000 C   0  0  0  0  0  0  0  0  0  0  0  0
    8.0746   -5.2541    0.0000 C   0  0  0  0  0  0  0  0  0  0  0  0
    8.0746   -6.0791    0.0000 C   0  0  0  0  0  0  0  0  0  0  0  0
    7.3601   -6.4916    0.0000 C   0  0  0  0  0  0  0  0  0  0  0  0
    6.6457   -6.0791    0.0000 C   0  0  0  0  0  0  0  0  0  0  0  0
    5.9312   -6.4916    0.0000 O   0  0  0  0  0  0  0  0  0  0  0  0
    8.7891   -6.4916    0.0000 O   0  0  0  0  0  0  0  0  0  0  0  0
    7.3601   -4.0166    0.0000 O   0  0  0  0  0  0  0  0  0  0  0  0
    4.5023   -4.8416    0.0000 O   0  0  0  0  0  0  0  0  0  0  0  0
    4.5023   -6.4916    0.0000 C   0  0  0  0  0  0  0  0  0  0  0  0
    3.7878   -6.0791    0.0000 C   0  0  0  0  0  0  0  0  0  0  0  0
    3.0733   -6.4916    0.0000 C   0  0  0  0  0  0  0  0  0  0  0  0
    3.0733   -7.3166    0.0000 C   0  0  0  0  0  0  0  0  0  0  0  0
    3.7878   -7.7291    0.0000 C   0  0  0  0  0  0  0  0  0  0  0  0
    4.5023   -7.3166    0.0000 C   0  0  0  0  0  0  0  0  0  0  0  0
    2.3588   -7.7291    0.0000 O   0  0  0  0  0  0  0  0  0  0  0  0
    2.3588   -6.0791    0.0000 O   0  0  0  0  0  0  0  0  0  0  0  0
  1  2  1  0  0  0  0
  2  3  1  0  0  0  0
  1  4  2  0  0  0  0
  2  5  1  0  0  0  0
  6  7  1  0  0  0  0
  7  8  2  0  0  0  0
  8  9  1  0  0  0  0
  9 10  2  0  0  0  0
 10 11  1  0  0  0  0
  6 11  2  0  0  0  0
 10 12  1  0  0  0  0
 13 14  1  0  0  0  0
 11 13  1  0  0  0  0
  9 15  1  0  0  0  0
  7 16  1  0  0  0  0
 18 19  1  0  0  0  0
 19 20  1  0  0  0  0
 20 21  1  0  0  0  0
 21 22  1  0  0  0  0
 22 23  2  0  0  0  0
 23 24  1  0  0  0  0
 24 25  2  0  0  0  0
 25 26  1  0  0  0  0
 21 26  2  0  0  0  0
 26 27  1  0  0  0  0
 18 27  1  0  0  0  0
 24 28  1  0  0  0  0
 22 29  1  0  0  0  0
 19 30  1  1  0  0  0
 31 32  1  0  0  0  0
 32 33  2  0  0  0  0
 33 34  1  0  0  0  0
 34 35  2  0  0  0  0
 35 36  1  0  0  0  0
 31 36  2  0  0  0  0
 34 37  1  0  0  0  0
 33 38  1  0  0  0  0
 18 31  1  6  0  0  0
 17 23  1  0  0  0  0
  8 17  1  0  0  0  0
  1  6  1  0  0  0  0
M  END
>  <cdx:groupId>
286

>  <cdx:fragmentId>
206

$$$$
