301536.cdx
  Mrv1902 05222410192D          

 17 17  0  0  0  0            999 V2000
    8.8539   -5.8179    0.0000 C   0  0  0  0  0  0  0  0  0  0  0  0
    8.1395   -6.2304    0.0000 C   0  0  0  0  0  0  0  0  0  0  0  0
    7.4250   -5.8179    0.0000 C   0  0  0  0  0  0  0  0  0  0  0  0
    8.8539   -4.9929    0.0000 O   0  0  0  0  0  0  0  0  0  0  0  0
    9.5684   -6.2304    0.0000 O   0  0  0  0  0  0  0  0  0  0  0  0
    6.7105   -6.2304    0.0000 C   0  0  0  0  0  0  0  0  0  0  0  0
    5.9961   -5.8179    0.0000 C   0  0  0  0  0  0  0  0  0  0  0  0
    5.2816   -6.2304    0.0000 C   0  0  0  0  0  0  0  0  0  0  0  0
    5.2816   -7.0554    0.0000 C   0  0  0  0  0  0  0  0  0  0  0  0
    5.9961   -7.4679    0.0000 C   0  0  0  0  0  0  0  0  0  0  0  0
    6.7105   -7.0554    0.0000 C   0  0  0  0  0  0  0  0  0  0  0  0
    4.5671   -5.8179    0.0000 O   0  0  0  0  0  0  0  0  0  0  0  0
    3.8526   -6.2304    0.0000 C   0  0  0  0  0  0  0  0  0  0  0  0
    4.5671   -7.4679    0.0000 O   0  0  0  0  0  0  0  0  0  0  0  0
   10.2829   -4.9929    0.0000 C   0  0  0  0  0  0  0  0  0  0  0  0
   10.2829   -5.8179    0.0000 C   0  0  0  0  0  0  0  0  0  0  0  0
   10.9974   -6.2304    0.0000 C   0  0  0  0  0  0  0  0  0  0  0  0
  1  2  1  0  0  0  0
  2  3  2  0  0  0  0
  1  4  2  0  0  0  0
  1  5  1  0  0  0  0
  6  7  1  0  0  0  0
  7  8  2  0  0  0  0
  8  9  1  0  0  0  0
  9 10  2  0  0  0  0
 10 11  1  0  0  0  0
  6 11  2  0  0  0  0
 12 13  1  0  0  0  0
  8 12  1  0  0  0  0
  9 14  1  0  0  0  0
  3  6  1  0  0  0  0
 15 16  1  0  0  0  0
 16 17  1  0  0  0  0
  5 16  1  0  0  0  0
M  END
>  <cdx:fragmentId>
596

$$$$
