30158.cdx
  Mrv1902 05222410252D          

  9  8  0  0  0  0            999 V2000
    4.2600   -9.6651    0.0000 C   0  0  0  0  0  0  0  0  0  0  0  0
    4.9745   -9.2526    0.0000 C   0  0  0  0  0  0  0  0  0  0  0  0
    5.6890   -8.8401    0.0000 C   0  0  0  0  0  0  0  0  0  0  0  0
    6.4034   -9.2526    0.0000 C   0  0  0  0  0  0  0  0  0  0  0  0
    7.1179   -8.8401    0.0000 C   0  0  0  0  0  0  0  0  0  0  0  0
    6.4034   -9.6789    0.0000 H   0  0  0  0  0  0  0  0  0  0  0  0
    5.6752   -8.4964    0.0000 H   0  0  0  0  0  0  0  0  0  0  0  0
    4.5620   -8.5382    0.0000 C   0  0  0  0  0  0  0  0  0  0  0  0
    5.3870   -9.9671    0.0000 C   0  0  0  0  0  0  0  0  0  0  0  0
  1  2  1  0  0  0  0
  2  3  1  0  0  0  0
  3  4  2  0  0  0  0
  4  5  1  0  0  0  0
  4  6  1  0  0  0  0
  3  7  1  0  0  0  0
  2  8  1  0  0  0  0
  2  9  1  0  0  0  0
M  END
>  <cdx:fragmentId>
3

$$$$
