30153.cdx
  Mrv1902 05222410222D          

 15 14  0  0  0  0            999 V2000
    2.9788   -5.6906    0.0000 C   0  0  0  0  0  0  0  0  0  0  0  0
    3.7044   -6.0831    0.0000 C   0  0  0  0  0  0  0  0  0  0  0  0
    3.7273   -6.9078    0.0000 C   0  0  0  0  0  0  0  0  0  0  0  0
    4.4530   -7.3003    0.0000 C   0  0  0  0  0  0  0  0  0  0  0  0
    4.4759   -8.1250    0.0000 C   0  0  0  0  0  0  0  0  0  0  0  0
    5.2015   -8.5175    0.0000 C   0  0  0  0  0  0  0  0  0  0  0  0
    5.2244   -9.3422    0.0000 C   0  0  0  0  0  0  0  0  0  0  0  0
    5.9501   -9.7347    0.0000 C   0  0  0  0  0  0  0  0  0  0  0  0
    6.6645   -9.3222    0.0000 C   0  0  0  0  0  0  0  0  0  0  0  0
    7.3790   -9.7347    0.0000 C   0  0  0  0  0  0  0  0  0  0  0  0
    8.0935   -9.3222    0.0000 C   0  0  0  0  0  0  0  0  0  0  0  0
    8.8079   -9.7347    0.0000 C   0  0  0  0  0  0  0  0  0  0  0  0
    9.5224   -9.3222    0.0000 C   0  0  0  0  0  0  0  0  0  0  0  0
   10.2369   -9.7347    0.0000 C   0  0  0  0  0  0  0  0  0  0  0  0
   10.9514   -9.3222    0.0000 O   0  0  0  0  0  0  0  0  0  0  0  0
  1  2  1  0  0  0  0
  2  3  1  0  0  0  0
  3  4  1  0  0  0  0
  4  5  1  0  0  0  0
  5  6  1  0  0  0  0
  6  7  1  0  0  0  0
  7  8  2  0  0  0  0
  8  9  1  0  0  0  0
  9 10  1  0  0  0  0
 10 11  1  0  0  0  0
 11 12  1  0  0  0  0
 12 13  1  0  0  0  0
 13 14  1  0  0  0  0
 14 15  2  0  0  0  0
M  END
>  <cdx:fragmentId>
3

$$$$
