301535.cdx
  Mrv1902 05222410182D          

 11 11  0  0  0  0            999 V2000
    8.1051   -7.4514    0.0000 C   0  0  0  0  0  0  0  0  0  0  0  0
    7.3906   -7.0389    0.0000 C   0  0  0  0  0  0  0  0  0  0  0  0
    7.3906   -6.2139    0.0000 C   0  0  0  0  0  0  0  0  0  0  0  0
    6.6762   -5.8014    0.0000 C   0  0  0  0  0  0  0  0  0  0  0  0
    5.9617   -6.2139    0.0000 C   0  0  0  0  0  0  0  0  0  0  0  0
    5.9617   -7.0389    0.0000 C   0  0  0  0  0  0  0  0  0  0  0  0
    6.6762   -7.4514    0.0000 C   0  0  0  0  0  0  0  0  0  0  0  0
    8.8196   -7.0389    0.0000 O   0  0  0  0  0  0  0  0  0  0  0  0
    8.1051   -4.9764    0.0000 C   0  0  0  0  0  0  0  0  0  0  0  0
    8.1051   -5.8014    0.0000 C   0  0  0  0  0  0  0  0  0  0  0  0
    8.8196   -6.2139    0.0000 C   0  0  0  0  0  0  0  0  0  0  0  0
  1  2  1  0  0  0  0
  2  3  1  0  0  0  0
  3  4  2  0  0  0  0
  4  5  1  0  0  0  0
  5  6  2  0  0  0  0
  6  7  1  0  0  0  0
  2  7  2  0  0  0  0
  1  8  2  0  0  0  0
  9 10  1  0  0  0  0
 10 11  1  0  0  0  0
  3 10  1  0  0  0  0
M  END
>  <cdx:groupId>
580

>  <cdx:fragmentId>
550

$$$$
