30157.cdx
  Mrv1902 05222410212D          

 20 21  0  0  0  0            999 V2000
    4.7972   -9.1579    0.0000 C   0  0  0  0  0  0  0  0  0  0  0  0
    4.0830   -9.5710    0.0000 C   0  0  0  0  0  0  0  0  0  0  0  0
    4.0837  -10.3960    0.0000 C   0  0  0  0  0  0  0  0  0  0  0  0
    4.7986  -10.8079    0.0000 C   0  0  0  0  0  0  0  0  0  0  0  0
    5.5127  -10.3948    0.0000 C   0  0  0  0  0  0  0  0  0  0  0  0
    5.5120   -9.5698    0.0000 C   0  0  0  0  0  0  0  0  0  0  0  0
    6.9409   -9.5686    0.0000 C   0  0  0  0  0  0  0  0  0  0  0  0
    6.2261   -9.1567    0.0000 C   0  0  0  0  0  0  0  0  0  0  0  0
    7.6550   -9.1555    0.0000 C   0  0  0  0  0  0  0  0  0  0  0  0
    7.6543   -8.3305    0.0000 C   0  0  0  0  0  0  0  0  0  0  0  0
    8.3699   -9.5674    0.0000 C   0  0  0  0  0  0  0  0  0  0  0  0
    9.0840   -9.1543    0.0000 C   0  0  0  0  0  0  0  0  0  0  0  0
    9.0833   -8.3293    0.0000 C   0  0  0  0  0  0  0  0  0  0  0  0
    8.3685   -7.9174    0.0000 C   0  0  0  0  0  0  0  0  0  0  0  0
    9.7988   -9.5662    0.0000 O   0  0  0  0  0  0  0  0  0  0  0  0
    9.7974   -7.9162    0.0000 O   0  0  0  0  0  0  0  0  0  0  0  0
    9.7967   -7.0912    0.0000 C   0  0  0  0  0  0  0  0  0  0  0  0
    3.3682   -9.1591    0.0000 O   0  0  0  0  0  0  0  0  0  0  0  0
    3.3696  -10.8091    0.0000 O   0  0  0  0  0  0  0  0  0  0  0  0
    3.3703  -11.6341    0.0000 C   0  0  0  0  0  0  0  0  0  0  0  0
  1  2  2  0  0  0  0
  2  3  1  0  0  0  0
  3  4  2  0  0  0  0
  4  5  1  0  0  0  0
  5  6  2  0  0  0  0
  6  1  1  0  0  0  0
  7  8  2  0  0  0  0
  8  6  1  0  0  0  0
  7  9  1  0  0  0  0
  9 10  2  0  0  0  0
  9 11  1  0  0  0  0
 11 12  2  0  0  0  0
 12 13  1  0  0  0  0
 13 14  2  0  0  0  0
 14 10  1  0  0  0  0
 12 15  1  0  0  0  0
 13 16  1  0  0  0  0
 16 17  1  0  0  0  0
  2 18  1  0  0  0  0
  3 19  1  0  0  0  0
 19 20  1  0  0  0  0
M  END
>  <cdx:fragmentId>
5

$$$$
