301510.cdx
  Mrv1902 05222410282D          

 12 11  0  0  0  0            999 V2000
    7.7822   -6.0791    0.0000 C   0  0  0  0  0  0  0  0  0  0  0  0
    7.0678   -6.4916    0.0000 C   0  0  0  0  0  0  0  0  0  0  0  0
    6.3533   -6.0791    0.0000 C   0  0  0  0  0  0  0  0  0  0  0  0
    5.6388   -6.4916    0.0000 C   0  0  0  0  0  0  0  0  0  0  0  0
    4.9244   -6.0791    0.0000 C   0  0  0  0  0  0  0  0  0  0  0  0
    4.2099   -6.4916    0.0000 C   0  0  0  0  0  0  0  0  0  0  0  0
    7.7822   -5.2541    0.0000 O   0  0  0  0  0  0  0  0  0  0  0  0
    8.4967   -6.4916    0.0000 O   0  0  0  0  0  0  0  0  0  0  0  0
    9.2112   -6.0791    0.0000 C   0  0  0  0  0  0  0  0  0  0  0  0
    9.9256   -6.4916    0.0000 C   0  0  0  0  0  0  0  0  0  0  0  0
   10.6401   -6.0791    0.0000 C   0  0  0  0  0  0  0  0  0  0  0  0
    9.9256   -7.3166    0.0000 C   0  0  0  0  0  0  0  0  0  0  0  0
  1  2  1  0  0  0  0
  2  3  1  0  0  0  0
  3  4  1  0  0  0  0
  4  5  1  0  0  0  0
  5  6  1  0  0  0  0
  1  7  2  0  0  0  0
  1  8  1  0  0  0  0
  9 10  1  0  0  0  0
 10 11  1  0  0  0  0
 10 12  1  0  0  0  0
  8  9  1  0  0  0  0
M  END
>  <cdx:groupId>
72

>  <cdx:fragmentId>
40

$$$$
