301550.cdx
  Mrv1902 05222410222D          

 18 20  0  0  0  0            999 V2000
    5.5005   -7.3150    0.0000 C   0  0  2  0  0  0  0  0  0  0  0  0
    5.5005   -8.1400    0.0000 C   0  0  1  0  0  0  0  0  0  0  0  0
    6.2150   -8.5525    0.0000 C   0  0  0  0  0  0  0  0  0  0  0  0
    6.9295   -8.1400    0.0000 C   0  0  0  0  0  0  0  0  0  0  0  0
    6.9295   -7.3150    0.0000 C   0  0  1  0  0  0  0  0  0  0  0  0
    6.2150   -6.9025    0.0000 C   0  0  2  0  0  0  0  0  0  0  0  0
    4.7861   -8.5525    0.0000 C   0  0  0  0  0  0  0  0  0  0  0  0
    4.0716   -8.1400    0.0000 C   0  0  0  0  0  0  0  0  0  0  0  0
    4.7861   -9.3775    0.0000 C   0  0  0  0  0  0  0  0  0  0  0  0
    7.5426   -6.7630    0.0000 C   0  0  0  0  0  0  0  0  0  0  0  0
    7.2070   -6.0093    0.0000 C   0  0  2  0  0  0  0  0  0  0  0  0
    6.3865   -6.0955    0.0000 C   0  0  0  0  0  0  0  0  0  0  0  0
    7.6195   -5.2948    0.0000 H   0  0  0  0  0  0  0  0  0  0  0  0
    8.3495   -6.9345    0.0000 C   0  0  0  0  0  0  0  0  0  0  0  0
    7.6439   -7.7275    0.0000 C   0  0  0  0  0  0  0  0  0  0  0  0
    5.5005   -6.4900    0.0000 H   0  0  0  0  0  0  0  0  0  0  0  0
    4.7861   -6.9025    0.0000 H   0  0  0  0  0  0  0  0  0  0  0  0
    5.7750   -6.1600    0.0000 C   0  0  0  0  0  0  0  0  0  0  0  0
  1  2  1  0  0  0  0
  2  3  1  0  0  0  0
  3  4  1  0  0  0  0
  4  5  1  0  0  0  0
  5  6  1  0  0  0  0
  6  1  1  0  0  0  0
  2  7  1  1  0  0  0
  7  8  1  0  0  0  0
  7  9  1  0  0  0  0
  5 10  1  0  0  0  0
 10 11  1  0  0  0  0
 11 12  1  0  0  0  0
 12  6  1  0  0  0  0
 11 13  1  1  0  0  0
 10 14  2  0  0  0  0
  5 15  1  6  0  0  0
  6 16  1  6  0  0  0
  1 17  1  6  0  0  0
 12 18  1  0  0  0  0
 18  1  1  0  0  0  0
M  END
>  <cdx:fragmentId>
1459

$$$$
