301594.cdx
  Mrv1902 05222410202D          

 37 40  0  0  0  0            999 V2000
    8.2860   -5.4054    0.0000 O   0  0  0  0  0  0  0  0  0  0  0  0
    8.9878   -4.1606    0.0000 O   0  0  0  0  0  0  0  0  0  0  0  0
    8.2776   -4.5804    0.0000 C   0  0  2  0  0  0  0  0  0  0  0  0
    7.5589   -4.1752    0.0000 C   0  0  1  0  0  0  0  0  0  0  0  0
    7.5505   -3.3503    0.0000 C   0  0  2  0  0  0  0  0  0  0  0  0
    8.2607   -2.9305    0.0000 C   0  0  1  0  0  0  0  0  0  0  0  0
    8.9794   -3.3357    0.0000 C   0  0  1  0  0  0  0  0  0  0  0  0
    9.6896   -2.9159    0.0000 C   0  0  0  0  0  0  0  0  0  0  0  0
    9.6896   -2.0909    0.0000 O   0  0  0  0  0  0  0  0  0  0  0  0
    8.2523   -2.1055    0.0000 O   0  0  0  0  0  0  0  0  0  0  0  0
    6.8319   -2.9451    0.0000 O   0  0  0  0  0  0  0  0  0  0  0  0
    6.8487   -4.5950    0.0000 O   0  0  0  0  0  0  0  0  0  0  0  0
    8.2860   -9.5304    0.0000 C   0  0  0  0  0  0  0  0  0  0  0  0
    8.2860  -10.3554    0.0000 C   0  0  0  0  0  0  0  0  0  0  0  0
    9.0004  -10.7679    0.0000 C   0  0  0  0  0  0  0  0  0  0  0  0
    9.7149  -10.3555    0.0000 C   0  0  0  0  0  0  0  0  0  0  0  0
    9.0005   -9.1179    0.0000 O   0  0  0  0  0  0  0  0  0  0  0  0
    7.5716   -9.1179    0.0000 O   0  0  0  0  0  0  0  0  0  0  0  0
    6.8571   -8.7054    0.0000 H   0  0  0  0  0  0  0  0  0  0  0  0
    4.8731   -7.8804    0.0000 H   0  0  0  0  0  0  0  0  0  0  0  0
    6.2440   -5.9934    0.0000 H   0  0  0  0  0  0  0  0  0  0  0  0
    6.8571   -6.2304    0.0000 H   0  0  0  0  0  0  0  0  0  0  0  0
    6.2440   -8.9423    0.0000 O   0  0  0  0  0  0  0  0  0  0  0  0
    4.6748   -8.4324    0.0000 O   0  0  0  0  0  0  0  0  0  0  0  0
    5.4594   -8.6873    0.0000 C   0  0  0  0  0  0  0  0  0  0  0  0
    7.5716   -5.8179    0.0000 C   0  0  0  0  0  0  0  0  0  0  0  0
    7.5716   -6.6429    0.0000 C   0  0  0  0  0  0  0  0  0  0  0  0
    8.2860   -7.0554    0.0000 C   0  0  0  0  0  0  0  0  0  0  0  0
    8.2860   -7.8804    0.0000 O   0  0  0  0  0  0  0  0  0  0  0  0
    7.5716   -8.2929    0.0000 C   0  0  2  0  0  0  0  0  0  0  0  0
    6.8571   -7.8804    0.0000 C   0  0  2  0  0  0  0  0  0  0  0  0
    6.0725   -8.1353    0.0000 C   0  0  2  0  0  0  0  0  0  0  0  0
    5.5875   -7.4679    0.0000 C   0  0  1  0  0  0  0  0  0  0  0  0
    5.2520   -6.7142    0.0000 O   0  0  0  0  0  0  0  0  0  0  0  0
    6.0725   -6.8004    0.0000 C   0  0  1  0  0  0  0  0  0  0  0  0
    6.8571   -7.0554    0.0000 C   0  0  2  0  0  0  0  0  0  0  0  0
    9.0004  -11.5929    0.0000 C   0  0  0  0  0  0  0  0  0  0  0  0
 31 19  1  1  0  0  0
 33 20  1  6  0  0  0
 35 21  1  6  0  0  0
 36 22  1  1  0  0  0
 30 18  1  1  0  0  0
 32 23  1  1  0  0  0
 32 25  1  6  0  0  0
 25 24  1  0  0  0  0
 27 26  1  0  0  0  0
 26  1  1  0  0  0  0
 35 33  1  0  0  0  0
 36 31  1  0  0  0  0
 36 27  1  0  0  0  0
 28 27  2  0  0  0  0
 29 28  1  0  0  0  0
 30 29  1  0  0  0  0
 31 30  1  0  0  0  0
 32 31  1  0  0  0  0
 33 32  1  0  0  0  0
 34 33  1  0  0  0  0
 35 34  1  0  0  0  0
 36 35  1  0  0  0  0
  2  3  1  0  0  0  0
  3  4  1  0  0  0  0
  4  5  1  0  0  0  0
  5  6  1  0  0  0  0
  6  7  1  0  0  0  0
  2  7  1  0  0  0  0
  8  9  1  0  0  0  0
  7  8  1  1  0  0  0
  6 10  1  6  0  0  0
  5 11  1  1  0  0  0
  4 12  1  6  0  0  0
  3  1  1  1  0  0  0
 13 14  1  0  0  0  0
 14 15  1  0  0  0  0
 15 16  1  0  0  0  0
 13 17  2  0  0  0  0
 13 18  1  0  0  0  0
 15 37  1  0  0  0  0
M  END
>  <cdx:groupId>
3809

>  <cdx:fragmentId>
3736

$$$$
