301595.cdx
  Mrv1902 05222410212D          

 48 52  0  0  0  0            999 V2000
    6.7533   -8.7466    0.0000 O   0  0  0  0  0  0  0  0  0  0  0  0
    7.4473   -7.4975    0.0000 O   0  0  0  0  0  0  0  0  0  0  0  0
    6.7397   -7.9217    0.0000 C   0  0  2  0  0  0  0  0  0  0  0  0
    6.0186   -7.5210    0.0000 C   0  0  1  0  0  0  0  0  0  0  0  0
    6.0050   -6.6961    0.0000 C   0  0  2  0  0  0  0  0  0  0  0  0
    6.7126   -6.2719    0.0000 C   0  0  1  0  0  0  0  0  0  0  0  0
    7.4337   -6.6726    0.0000 C   0  0  1  0  0  0  0  0  0  0  0  0
    8.1413   -6.2484    0.0000 C   0  0  0  0  0  0  0  0  0  0  0  0
    8.8625   -6.6491    0.0000 O   0  0  0  0  0  0  0  0  0  0  0  0
   10.2912   -6.6256    0.0000 O   0  0  0  0  0  0  0  0  0  0  0  0
    9.5701   -6.2249    0.0000 C   0  0  2  0  0  0  0  0  0  0  0  0
    9.5565   -5.4001    0.0000 C   0  0  1  0  0  0  0  0  0  0  0  0
   10.2641   -4.9759    0.0000 C   0  0  2  0  0  0  0  0  0  0  0  0
   10.9853   -5.3766    0.0000 C   0  0  1  0  0  0  0  0  0  0  0  0
   10.9988   -6.2015    0.0000 C   0  0  1  0  0  0  0  0  0  0  0  0
   11.7200   -6.6021    0.0000 C   0  0  0  0  0  0  0  0  0  0  0  0
   12.4276   -6.1780    0.0000 O   0  0  0  0  0  0  0  0  0  0  0  0
   11.6929   -4.9524    0.0000 O   0  0  0  0  0  0  0  0  0  0  0  0
   10.2505   -4.1510    0.0000 O   0  0  0  0  0  0  0  0  0  0  0  0
    8.8354   -4.9994    0.0000 O   0  0  0  0  0  0  0  0  0  0  0  0
    6.6990   -5.4470    0.0000 O   0  0  0  0  0  0  0  0  0  0  0  0
    5.2838   -6.2954    0.0000 O   0  0  0  0  0  0  0  0  0  0  0  0
    5.3110   -7.9452    0.0000 O   0  0  0  0  0  0  0  0  0  0  0  0
    6.7539  -12.8706    0.0000 C   0  0  0  0  0  0  0  0  0  0  0  0
    6.7550  -13.6956    0.0000 C   0  0  0  0  0  0  0  0  0  0  0  0
    7.4701  -14.1071    0.0000 C   0  0  0  0  0  0  0  0  0  0  0  0
    8.1840  -13.6935    0.0000 C   0  0  0  0  0  0  0  0  0  0  0  0
    7.4677  -12.4571    0.0000 O   0  0  0  0  0  0  0  0  0  0  0  0
    6.0388  -12.4591    0.0000 O   0  0  0  0  0  0  0  0  0  0  0  0
    5.3243  -12.0466    0.0000 H   0  0  0  0  0  0  0  0  0  0  0  0
    3.3403  -11.2216    0.0000 H   0  0  0  0  0  0  0  0  0  0  0  0
    4.7112   -9.3347    0.0000 H   0  0  0  0  0  0  0  0  0  0  0  0
    5.3243   -9.5716    0.0000 H   0  0  0  0  0  0  0  0  0  0  0  0
    4.7112  -12.2835    0.0000 O   0  0  0  0  0  0  0  0  0  0  0  0
    3.1420  -11.7736    0.0000 O   0  0  0  0  0  0  0  0  0  0  0  0
    3.9266  -12.0286    0.0000 C   0  0  0  0  0  0  0  0  0  0  0  0
    6.0388   -9.1591    0.0000 C   0  0  0  0  0  0  0  0  0  0  0  0
    6.0388   -9.9841    0.0000 C   0  0  0  0  0  0  0  0  0  0  0  0
    6.7533  -10.3966    0.0000 C   0  0  0  0  0  0  0  0  0  0  0  0
    6.7533  -11.2216    0.0000 O   0  0  0  0  0  0  0  0  0  0  0  0
    6.0388  -11.6341    0.0000 C   0  0  2  0  0  0  0  0  0  0  0  0
    5.3243  -11.2216    0.0000 C   0  0  2  0  0  0  0  0  0  0  0  0
    4.5397  -11.4765    0.0000 C   0  0  2  0  0  0  0  0  0  0  0  0
    4.0548  -10.8091    0.0000 C   0  0  1  0  0  0  0  0  0  0  0  0
    3.7192  -10.0554    0.0000 O   0  0  0  0  0  0  0  0  0  0  0  0
    4.5397  -10.1417    0.0000 C   0  0  1  0  0  0  0  0  0  0  0  0
    5.3243  -10.3966    0.0000 C   0  0  2  0  0  0  0  0  0  0  0  0
    7.4713  -14.9321    0.0000 C   0  0  0  0  0  0  0  0  0  0  0  0
 42 30  1  1  0  0  0
 44 31  1  6  0  0  0
 46 32  1  6  0  0  0
 47 33  1  1  0  0  0
 41 29  1  1  0  0  0
 43 34  1  1  0  0  0
 43 36  1  6  0  0  0
 36 35  1  0  0  0  0
 38 37  1  0  0  0  0
 37  1  1  0  0  0  0
  2  3  1  0  0  0  0
 46 44  1  0  0  0  0
 47 42  1  0  0  0  0
 47 38  1  0  0  0  0
 39 38  2  0  0  0  0
 40 39  1  0  0  0  0
 41 40  1  0  0  0  0
 42 41  1  0  0  0  0
 43 42  1  0  0  0  0
 44 43  1  0  0  0  0
 45 44  1  0  0  0  0
 46 45  1  0  0  0  0
 47 46  1  0  0  0  0
  3  4  1  0  0  0  0
  4  5  1  0  0  0  0
  5  6  1  0  0  0  0
  6  7  1  0  0  0  0
  2  7  1  0  0  0  0
 10 11  1  0  0  0  0
 11 12  1  0  0  0  0
 12 13  1  0  0  0  0
 13 14  1  0  0  0  0
 14 15  1  0  0  0  0
 10 15  1  0  0  0  0
 16 17  1  0  0  0  0
 15 16  1  1  0  0  0
 14 18  1  6  0  0  0
 13 19  1  1  0  0  0
 12 20  1  6  0  0  0
 11  9  1  1  0  0  0
  8  9  1  0  0  0  0
  7  8  1  1  0  0  0
  6 21  1  6  0  0  0
  5 22  1  1  0  0  0
  4 23  1  6  0  0  0
  3  1  1  1  0  0  0
 24 25  1  0  0  0  0
 25 26  1  0  0  0  0
 26 27  1  0  0  0  0
 24 28  2  0  0  0  0
 24 29  1  0  0  0  0
 26 48  1  0  0  0  0
M  END
>  <cdx:groupId>
3973

>  <cdx:fragmentId>
3882

$$$$
