301505.cdx
  Mrv1902 05222410282D          

 23 25  0  0  0  0            999 V2000
    2.6331   -5.2938    0.0000 C   0  0  0  0  0  0  0  0  0  0  0  0
    2.6331   -6.1188    0.0000 C   0  0  0  0  0  0  0  0  0  0  0  0
    3.3476   -6.5313    0.0000 C   0  0  0  0  0  0  0  0  0  0  0  0
    4.0621   -6.1188    0.0000 C   0  0  0  0  0  0  0  0  0  0  0  0
    4.0621   -5.2938    0.0000 C   0  0  0  0  0  0  0  0  0  0  0  0
    3.3476   -4.8812    0.0000 C   0  0  0  0  0  0  0  0  0  0  0  0
    4.7765   -6.5313    0.0000 C   0  0  0  0  0  0  0  0  0  0  0  0
    5.4910   -6.1188    0.0000 C   0  0  0  0  0  0  0  0  0  0  0  0
    5.4910   -5.2938    0.0000 C   0  0  0  0  0  0  0  0  0  0  0  0
    4.7765   -4.8812    0.0000 O   0  0  0  0  0  0  0  0  0  0  0  0
    6.2055   -4.8812    0.0000 C   0  0  0  0  0  0  0  0  0  0  0  0
    6.9200   -5.2938    0.0000 C   0  0  0  0  0  0  0  0  0  0  0  0
    7.6344   -4.8812    0.0000 C   0  0  0  0  0  0  0  0  0  0  0  0
    7.6344   -4.0563    0.0000 C   0  0  0  0  0  0  0  0  0  0  0  0
    6.9200   -3.6437    0.0000 C   0  0  0  0  0  0  0  0  0  0  0  0
    6.2055   -4.0563    0.0000 C   0  0  0  0  0  0  0  0  0  0  0  0
    4.7765   -7.3563    0.0000 O   0  0  0  0  0  0  0  0  0  0  0  0
    3.3476   -7.3563    0.0000 O   0  0  0  0  0  0  0  0  0  0  0  0
    6.9200   -2.8188    0.0000 O   0  0  0  0  0  0  0  0  0  0  0  0
    2.0498   -4.7104    0.0000 O   0  0  0  0  0  0  0  0  0  0  0  0
    3.1341   -4.0844    0.0000 O   0  0  0  0  0  0  0  0  0  0  0  0
    8.4313   -3.8427    0.0000 O   0  0  0  0  0  0  0  0  0  0  0  0
    8.3489   -5.2938    0.0000 O   0  0  0  0  0  0  0  0  0  0  0  0
  1  2  2  0  0  0  0
  2  3  1  0  0  0  0
  3  4  2  0  0  0  0
  4  5  1  0  0  0  0
  5  6  2  0  0  0  0
  6  1  1  0  0  0  0
  4  7  1  0  0  0  0
  7  8  1  0  0  0  0
  8  9  2  0  0  0  0
  9 10  1  0  0  0  0
 10  5  1  0  0  0  0
  9 11  1  0  0  0  0
 11 12  2  0  0  0  0
 12 13  1  0  0  0  0
 13 14  2  0  0  0  0
 14 15  1  0  0  0  0
 15 16  2  0  0  0  0
 16 11  1  0  0  0  0
  7 17  2  0  0  0  0
  3 18  1  0  0  0  0
 15 19  1  0  0  0  0
  1 20  1  0  0  0  0
  6 21  1  0  0  0  0
 14 22  1  0  0  0  0
 13 23  1  0  0  0  0
M  END
>  <cdx:fragmentId>
192

$$$$
