301547.cdx
  Mrv1902 05222410232D          

 32 35  0  0  0  0            999 V2000
    6.9878  -11.1966    0.0000 O   0  0  0  0  0  0  0  0  0  0  0  0
   12.7035   -7.8966    0.0000 C   0  0  0  0  0  0  0  0  0  0  0  0
   11.9890   -7.4841    0.0000 O   0  0  0  0  0  0  0  0  0  0  0  0
    9.8456   -7.8966    0.0000 C   0  0  0  0  0  0  0  0  0  0  0  0
   10.5601   -7.4841    0.0000 C   0  0  0  0  0  0  0  0  0  0  0  0
   11.2746   -7.8966    0.0000 C   0  0  0  0  0  0  0  0  0  0  0  0
   11.2746   -8.7216    0.0000 C   0  0  0  0  0  0  0  0  0  0  0  0
   10.5601   -9.1341    0.0000 C   0  0  0  0  0  0  0  0  0  0  0  0
    9.8456   -8.7216    0.0000 C   0  0  0  0  0  0  0  0  0  0  0  0
    5.5588  -10.3716    0.0000 O   0  0  0  0  0  0  0  0  0  0  0  0
    4.1299  -11.1966    0.0000 O   0  0  0  0  0  0  0  0  0  0  0  0
    2.7009  -10.3716    0.0000 O   0  0  0  0  0  0  0  0  0  0  0  0
    1.9865   -9.1341    0.0000 O   0  0  0  0  0  0  0  0  0  0  0  0
    2.7009   -8.7216    0.0000 C   0  0  0  0  0  0  0  0  0  0  0  0
    3.4154   -9.1341    0.0000 C   0  0  2  0  0  0  0  0  0  0  0  0
    3.4154   -9.9591    0.0000 C   0  0  2  0  0  0  0  0  0  0  0  0
    4.1299  -10.3716    0.0000 C   0  0  1  0  0  0  0  0  0  0  0  0
    4.8443   -9.9591    0.0000 C   0  0  2  0  0  0  0  0  0  0  0  0
    4.8443   -9.1341    0.0000 C   0  0  1  0  0  0  0  0  0  0  0  0
    4.1299   -8.7216    0.0000 O   0  0  0  0  0  0  0  0  0  0  0  0
    5.5588   -8.7216    0.0000 O   0  0  0  0  0  0  0  0  0  0  0  0
    8.4167  -11.1966    0.0000 O   0  0  0  0  0  0  0  0  0  0  0  0
    8.4167   -8.7216    0.0000 O   0  0  0  0  0  0  0  0  0  0  0  0
    7.7022   -9.1341    0.0000 C   0  0  0  0  0  0  0  0  0  0  0  0
    6.9878   -8.7216    0.0000 C   0  0  0  0  0  0  0  0  0  0  0  0
    6.2733   -9.1341    0.0000 C   0  0  0  0  0  0  0  0  0  0  0  0
    6.2733   -9.9591    0.0000 C   0  0  0  0  0  0  0  0  0  0  0  0
    6.9878  -10.3716    0.0000 C   0  0  0  0  0  0  0  0  0  0  0  0
    7.7022   -9.9591    0.0000 C   0  0  0  0  0  0  0  0  0  0  0  0
    8.4167  -10.3716    0.0000 C   0  0  0  0  0  0  0  0  0  0  0  0
    9.1312   -9.9591    0.0000 C   0  0  0  0  0  0  0  0  0  0  0  0
    9.1312   -9.1341    0.0000 C   0  0  1  0  0  0  0  0  0  0  0  0
 28  1  1  0  0  0  0
 32  9  1  6  0  0  0
  6  3  1  0  0  0  0
  3  2  1  0  0  0  0
  9  4  2  0  0  0  0
  5  4  1  0  0  0  0
  6  5  2  0  0  0  0
  7  6  1  0  0  0  0
  8  7  2  0  0  0  0
  9  8  1  0  0  0  0
 26 21  1  0  0  0  0
 19 21  1  1  0  0  0
 18 10  1  6  0  0  0
 17 11  1  1  0  0  0
 16 12  1  6  0  0  0
 15 14  1  1  0  0  0
 14 13  1  0  0  0  0
 20 15  1  0  0  0  0
 16 15  1  0  0  0  0
 17 16  1  0  0  0  0
 18 17  1  0  0  0  0
 19 18  1  0  0  0  0
 20 19  1  0  0  0  0
 30 22  2  0  0  0  0
 32 23  1  0  0  0  0
 24 23  1  0  0  0  0
 29 24  2  0  0  0  0
 25 24  1  0  0  0  0
 26 25  2  0  0  0  0
 27 26  1  0  0  0  0
 28 27  2  0  0  0  0
 29 28  1  0  0  0  0
 30 29  1  0  0  0  0
 31 30  1  0  0  0  0
 32 31  1  0  0  0  0
M  END
>  <cdx:fragmentId>
29

$$$$
