301583.cdx
  Mrv1902 05222410212D          

 35 37  0  0  0  0            999 V2000
    4.8504  -10.8496    0.0000 C   0  0  0  0  0  0  0  0  0  0  0  0
    4.2617  -10.2716    0.0000 C   0  0  0  0  0  0  0  0  0  0  0  0
    5.6453  -10.6287    0.0000 O   0  0  0  0  0  0  0  0  0  0  0  0
    4.6443  -11.6484    0.0000 O   0  0  0  0  0  0  0  0  0  0  0  0
    7.2936   -8.0081    0.0000 C   0  0  0  0  0  0  0  0  0  0  0  0
    7.2860   -5.5331    0.0000 C   0  0  0  0  0  0  0  0  0  0  0  0
   10.1208   -3.8567    0.0000 C   0  0  0  0  0  0  0  0  0  0  0  0
   10.1285   -4.6817    0.0000 C   0  0  0  0  0  0  0  0  0  0  0  0
   10.8467   -5.0876    0.0000 C   0  0  0  0  0  0  0  0  0  0  0  0
    6.4990   -6.1104    0.0000 C   0  0  0  0  0  0  0  0  0  0  0  0
    6.0203   -6.7823    0.0000 C   0  0  0  0  0  0  0  0  0  0  0  0
    6.5114   -7.4452    0.0000 C   0  0  0  0  0  0  0  0  0  0  0  0
    7.9966   -5.9390    0.0000 C   0  0  2  0  0  0  0  0  0  0  0  0
    7.9890   -5.1140    0.0000 C   0  0  0  0  0  0  0  0  0  0  0  0
    8.6996   -4.6949    0.0000 C   0  0  0  0  0  0  0  0  0  0  0  0
    9.4178   -5.1008    0.0000 C   0  0  2  0  0  0  0  0  0  0  0  0
    9.4255   -5.9258    0.0000 C   0  0  1  0  0  0  0  0  0  0  0  0
    8.7149   -6.3449    0.0000 C   0  0  0  0  0  0  0  0  0  0  0  0
    8.7225   -7.1698    0.0000 C   0  0  0  0  0  0  0  0  0  0  0  0
    8.0119   -7.5889    0.0000 C   0  0  0  0  0  0  0  0  0  0  0  0
    7.2936   -7.1831    0.0000 C   0  0  2  0  0  0  0  0  0  0  0  0
    7.2860   -6.3581    0.0000 C   0  0  2  0  0  0  0  0  0  0  0  0
    3.4668  -10.4925    0.0000 C   0  0  0  0  0  0  0  0  0  0  0  0
    6.8214   -8.8401    0.0000 C   0  0  0  0  0  0  0  0  0  0  0  0
    6.2637   -8.2322    0.0000 C   0  0  2  0  0  0  0  0  0  0  0  0
    5.4688   -8.4531    0.0000 C   0  0  0  0  0  0  0  0  0  0  0  0
    5.2627   -9.2519    0.0000 C   0  0  0  0  0  0  0  0  0  0  0  0
    4.4678   -9.4728    0.0000 C   0  0  0  0  0  0  0  0  0  0  0  0
    8.0042   -6.7640    0.0000 H   0  0  0  0  0  0  0  0  0  0  0  0
   10.2505   -5.9258    0.0000 C   0  0  0  0  0  0  0  0  0  0  0  0
    9.8380   -6.6402    0.0000 C   0  0  0  0  0  0  0  0  0  0  0  0
   10.6630   -6.6402    0.0000 C   0  0  0  0  0  0  0  0  0  0  0  0
   11.4880   -6.6402    0.0000 C   0  0  0  0  0  0  0  0  0  0  0  0
   11.9005   -5.9258    0.0000 O   0  0  0  0  0  0  0  0  0  0  0  0
   11.9005   -7.3547    0.0000 O   0  0  0  0  0  0  0  0  0  0  0  0
 25 12  1  0  0  0  0
 21  5  1  1  0  0  0
 22  6  1  6  0  0  0
 16  8  1  1  0  0  0
  8  7  1  0  0  0  0
  9  8  2  0  0  0  0
 12 21  1  0  0  0  0
 10 22  1  0  0  0  0
 11 10  1  0  0  0  0
 12 11  1  0  0  0  0
 18 13  1  0  0  0  0
 22 13  1  0  0  0  0
 14 13  1  0  0  0  0
 15 14  1  0  0  0  0
 16 15  1  0  0  0  0
 17 16  1  0  0  0  0
 18 17  1  0  0  0  0
 19 18  2  0  0  0  0
 20 19  1  0  0  0  0
 21 20  1  0  0  0  0
 22 21  1  0  0  0  0
 25 24  1  6  0  0  0
 26 25  1  0  0  0  0
 27 26  1  0  0  0  0
 28 27  1  0  0  0  0
  2 28  2  0  0  0  0
  1  2  1  0  0  0  0
  1  3  2  0  0  0  0
  1  4  1  0  0  0  0
  2 23  1  0  0  0  0
 13 29  1  1  0  0  0
 17 30  1  0  0  0  0
 17 31  1  1  0  0  0
 30 32  1  0  0  0  0
 32 33  1  0  0  0  0
 33 34  2  0  0  0  0
 33 35  1  0  0  0  0
M  END
>  <cdx:fragmentId>
2413

$$$$
