301580.cdx
  Mrv1902 05222410202D          

 21 23  0  0  0  0            999 V2000
    6.3567   -7.8248    0.0000 C   0  0  0  0  0  0  0  0  0  0  0  0
    7.0712   -8.2373    0.0000 O   0  0  0  0  0  0  0  0  0  0  0  0
    6.3567   -6.9998    0.0000 C   0  0  1  0  0  0  0  0  0  0  0  0
    7.0712   -6.5873    0.0000 C   0  0  0  0  0  0  0  0  0  0  0  0
    7.0712   -5.7623    0.0000 C   0  0  2  0  0  0  0  0  0  0  0  0
    6.3567   -5.3498    0.0000 C   0  0  0  0  0  0  0  0  0  0  0  0
    5.6423   -5.7623    0.0000 N   0  0  0  0  0  0  0  0  0  0  0  0
    4.9278   -5.3498    0.0000 C   0  0  0  0  0  0  0  0  0  0  0  0
    4.2133   -5.7623    0.0000 C   0  0  0  0  0  0  0  0  0  0  0  0
    4.2133   -6.5873    0.0000 C   0  0  0  0  0  0  0  0  0  0  0  0
    4.9278   -6.9998    0.0000 C   0  0  0  0  0  0  0  0  0  0  0  0
    5.6423   -6.5873    0.0000 C   0  0  2  0  0  0  0  0  0  0  0  0
    7.7857   -5.3498    0.0000 C   0  0  0  0  0  0  0  0  0  0  0  0
    7.7857   -4.5248    0.0000 C   0  0  0  0  0  0  0  0  0  0  0  0
    8.5001   -4.1123    0.0000 C   0  0  0  0  0  0  0  0  0  0  0  0
    9.2146   -4.5248    0.0000 C   0  0  0  0  0  0  0  0  0  0  0  0
    9.2146   -5.3498    0.0000 C   0  0  0  0  0  0  0  0  0  0  0  0
    8.5001   -5.7623    0.0000 N   0  0  0  0  0  0  0  0  0  0  0  0
    9.9291   -5.7623    0.0000 O   0  0  0  0  0  0  0  0  0  0  0  0
   10.6436   -5.3498    0.0000 C   0  0  0  0  0  0  0  0  0  0  0  0
    5.6423   -7.4123    0.0000 H   0  0  0  0  0  0  0  0  0  0  0  0
  1  2  1  0  0  0  0
  3  4  1  0  0  0  0
  4  5  1  0  0  0  0
  5  6  1  0  0  0  0
  6  7  1  0  0  0  0
  7  8  1  0  0  0  0
  8  9  1  0  0  0  0
  9 10  1  0  0  0  0
 10 11  1  0  0  0  0
 11 12  1  0  0  0  0
  7 12  1  0  0  0  0
  3 12  1  0  0  0  0
 13 14  1  0  0  0  0
 14 15  2  0  0  0  0
 15 16  1  0  0  0  0
 16 17  2  0  0  0  0
 17 18  1  0  0  0  0
 13 18  2  0  0  0  0
 19 20  1  0  0  0  0
 17 19  1  0  0  0  0
  5 13  1  6  0  0  0
  3  1  1  6  0  0  0
 12 21  1  6  0  0  0
M  END
>  <cdx:groupId>
2307

>  <cdx:fragmentId>
2249

$$$$
