301599.cdx
  Mrv1902 05222410252D          

 55 59  0  0  0  0            999 V2000
    6.6903   -7.4572    0.0000 C   0  0  0  0  0  0  0  0  0  0  0  0
    6.6903   -8.2822    0.0000 C   0  0  0  0  0  0  0  0  0  0  0  0
    7.4048   -8.6947    0.0000 C   0  0  0  0  0  0  0  0  0  0  0  0
    7.4048   -9.5197    0.0000 C   0  0  0  0  0  0  0  0  0  0  0  0
    6.6903   -9.9322    0.0000 C   0  0  0  0  0  0  0  0  0  0  0  0
    5.9758   -9.5197    0.0000 C   0  0  0  0  0  0  0  0  0  0  0  0
    5.9758   -8.6947    0.0000 C   0  0  0  0  0  0  0  0  0  0  0  0
    6.1544   -7.1479    0.0000 O   0  0  0  0  0  0  0  0  0  0  0  0
    7.4048   -7.0447    0.0000 O   0  0  0  0  0  0  0  0  0  0  0  0
    6.6903   -4.9822    0.0000 C   0  0  2  0  0  0  0  0  0  0  0  0
    7.4048   -4.5697    0.0000 C   0  0  0  0  0  0  0  0  0  0  0  0
    7.4048   -3.7447    0.0000 C   0  0  2  0  0  0  0  0  0  0  0  0
    8.1192   -3.3322    0.0000 C   0  0  1  0  0  0  0  0  0  0  0  0
    8.8337   -2.9197    0.0000 O   0  0  0  0  0  0  0  0  0  0  0  0
    8.8337   -3.7447    0.0000 C   0  0  2  0  0  0  0  0  0  0  0  0
    8.8337   -4.5697    0.0000 C   0  0  0  0  0  0  0  0  0  0  0  0
    9.5482   -4.9822    0.0000 C   0  0  0  0  0  0  0  0  0  0  0  0
    9.5482   -5.8072    0.0000 C   0  0  1  0  0  0  0  0  0  0  0  0
    8.8337   -6.2197    0.0000 C   0  0  2  0  0  0  0  0  0  0  0  0
    8.1192   -5.8072    0.0000 C   0  0  0  0  0  0  0  0  0  0  0  0
    7.4048   -6.2197    0.0000 C   0  0  1  0  0  0  0  0  0  0  0  0
    6.6903   -5.8072    0.0000 C   0  0  1  0  0  0  0  0  0  0  0  0
    5.9057   -6.0622    0.0000 C   0  0  2  0  0  0  0  0  0  0  0  0
    5.4207   -5.3947    0.0000 C   0  0  2  0  0  0  0  0  0  0  0  0
    5.9057   -4.7273    0.0000 C   0  0  2  0  0  0  0  0  0  0  0  0
   10.2626   -4.5697    0.0000 O   0  0  0  0  0  0  0  0  0  0  0  0
    8.1800   -4.8519    0.0000 O   0  0  0  0  0  0  0  0  0  0  0  0
    7.9760   -4.9948    0.0000 C   0  0  0  0  0  0  0  0  0  0  0  0
    4.7063   -4.9822    0.0000 C   0  0  0  0  0  0  0  0  0  0  0  0
    8.4212   -5.2842    0.0000 C   0  0  0  0  0  0  0  0  0  0  0  0
    8.0087   -4.5697    0.0000 C   0  0  0  0  0  0  0  0  0  0  0  0
    6.6903   -3.3322    0.0000 C   0  0  0  0  0  0  0  0  0  0  0  0
    4.7063   -5.8072    0.0000 O   0  0  0  0  0  0  0  0  0  0  0  0
   10.2626   -6.2197    0.0000 O   0  0  0  0  0  0  0  0  0  0  0  0
    6.6041   -4.1618    0.0000 O   0  0  0  0  0  0  0  0  0  0  0  0
    8.8337   -7.0447    0.0000 O   0  0  0  0  0  0  0  0  0  0  0  0
    9.5482   -7.4572    0.0000 C   0  0  0  0  0  0  0  0  0  0  0  0
    9.5482   -8.2822    0.0000 C   0  0  0  0  0  0  0  0  0  0  0  0
   10.2626   -8.6947    0.0000 C   0  0  0  0  0  0  0  0  0  0  0  0
   10.2626   -9.5197    0.0000 C   0  0  0  0  0  0  0  0  0  0  0  0
    9.5482   -9.9322    0.0000 C   0  0  0  0  0  0  0  0  0  0  0  0
    8.8337   -9.5197    0.0000 C   0  0  0  0  0  0  0  0  0  0  0  0
    8.8337   -8.6947    0.0000 C   0  0  0  0  0  0  0  0  0  0  0  0
   10.2626   -7.0447    0.0000 O   0  0  0  0  0  0  0  0  0  0  0  0
    5.6507   -3.9427    0.0000 O   0  0  0  0  0  0  0  0  0  0  0  0
    4.8438   -3.7712    0.0000 C   0  0  0  0  0  0  0  0  0  0  0  0
    4.5888   -2.9865    0.0000 O   0  0  0  0  0  0  0  0  0  0  0  0
    4.2917   -4.3843    0.0000 C   0  0  0  0  0  0  0  0  0  0  0  0
    5.6507   -6.8468    0.0000 O   0  0  0  0  0  0  0  0  0  0  0  0
    4.8438   -7.0183    0.0000 C   0  0  0  0  0  0  0  0  0  0  0  0
    4.5888   -7.8030    0.0000 O   0  0  0  0  0  0  0  0  0  0  0  0
    4.2917   -6.4052    0.0000 C   0  0  0  0  0  0  0  0  0  0  0  0
    7.7067   -2.6178    0.0000 H   0  0  0  0  0  0  0  0  0  0  0  0
    9.6587   -3.7447    0.0000 H   0  0  0  0  0  0  0  0  0  0  0  0
    6.6041   -6.6277    0.0000 H   0  0  0  0  0  0  0  0  0  0  0  0
  1  2  1  0  0  0  0
  2  3  1  0  0  0  0
  3  4  2  0  0  0  0
  4  5  1  0  0  0  0
  5  6  2  0  0  0  0
  6  7  1  0  0  0  0
  2  7  2  0  0  0  0
  1  8  2  0  0  0  0
  1  9  1  0  0  0  0
 10 11  1  0  0  0  0
 11 12  1  0  0  0  0
 12 13  1  0  0  0  0
 13 14  1  0  0  0  0
 14 15  1  0  0  0  0
 15 16  1  0  0  0  0
 16 17  1  0  0  0  0
 17 18  1  0  0  0  0
 18 19  1  0  0  0  0
 19 20  1  0  0  0  0
 20 21  1  0  0  0  0
 21 22  1  0  0  0  0
 22 23  1  0  0  0  0
 23 24  1  0  0  0  0
 24 25  1  0  0  0  0
 10 25  1  0  0  0  0
 10 22  1  0  0  0  0
 13 15  1  0  0  0  0
 17 26  2  0  0  0  0
 11 27  2  0  0  0  0
 20 28  2  0  0  0  0
 24 29  1  1  0  0  0
 16 30  1  0  0  0  0
 16 31  1  0  0  0  0
 12 32  1  1  0  0  0
 24 33  1  6  0  0  0
 18 34  1  6  0  0  0
 10 35  1  1  0  0  0
 37 38  1  0  0  0  0
 38 39  1  0  0  0  0
 39 40  2  0  0  0  0
 40 41  1  0  0  0  0
 41 42  2  0  0  0  0
 42 43  1  0  0  0  0
 38 43  2  0  0  0  0
 37 44  2  0  0  0  0
 36 37  1  0  0  0  0
 19 36  1  1  0  0  0
 46 47  2  0  0  0  0
 46 48  1  0  0  0  0
 45 46  1  0  0  0  0
 25 45  1  6  0  0  0
 50 51  2  0  0  0  0
 50 52  1  0  0  0  0
 49 50  1  0  0  0  0
 23 49  1  1  0  0  0
 21  9  1  6  0  0  0
 13 53  1  6  0  0  0
 15 54  1  1  0  0  0
 22 55  1  6  0  0  0
M  END
>  <cdx:groupId>
4476

>  <cdx:fragmentId>
4328

$$$$
