30152.cdx
  Mrv1902 05222410222D          

 16 16  0  0  0  0            999 V2000
    5.2643   -6.9151    0.0000 C   0  0  0  0  0  0  0  0  0  0  0  0
    5.2643   -7.7401    0.0000 C   0  0  0  0  0  0  0  0  0  0  0  0
    5.9788   -8.1526    0.0000 C   0  0  0  0  0  0  0  0  0  0  0  0
    6.6932   -7.7401    0.0000 C   0  0  0  0  0  0  0  0  0  0  0  0
    6.6932   -6.9151    0.0000 C   0  0  0  0  0  0  0  0  0  0  0  0
    5.9788   -6.5026    0.0000 C   0  0  0  0  0  0  0  0  0  0  0  0
    5.9788   -8.9776    0.0000 C   0  0  0  0  0  0  0  0  0  0  0  0
    6.6932   -9.3901    0.0000 C   0  0  0  0  0  0  0  0  0  0  0  0
    6.6932  -10.2151    0.0000 C   0  0  0  0  0  0  0  0  0  0  0  0
    4.5498   -6.5026    0.0000 O   0  0  0  0  0  0  0  0  0  0  0  0
    3.8354   -6.9151    0.0000 C   0  0  0  0  0  0  0  0  0  0  0  0
    5.9788   -5.6776    0.0000 O   0  0  0  0  0  0  0  0  0  0  0  0
    6.6932   -5.2651    0.0000 Si  0  0  0  0  0  0  0  0  0  0  0  0
    7.4077   -4.8526    0.0000 C   0  0  0  0  0  0  0  0  0  0  0  0
    6.2807   -4.5507    0.0000 C   0  0  0  0  0  0  0  0  0  0  0  0
    7.1057   -5.9796    0.0000 C   0  0  0  0  0  0  0  0  0  0  0  0
  1  2  2  0  0  0  0
  2  3  1  0  0  0  0
  3  4  2  0  0  0  0
  4  5  1  0  0  0  0
  5  6  2  0  0  0  0
  6  1  1  0  0  0  0
  3  7  1  0  0  0  0
  7  8  1  0  0  0  0
  8  9  2  0  0  0  0
  1 10  1  0  0  0  0
 10 11  1  0  0  0  0
  6 12  1  0  0  0  0
 12 13  1  0  0  0  0
 13 14  1  0  0  0  0
 13 15  1  0  0  0  0
 13 16  1  0  0  0  0
M  END
>  <cdx:fragmentId>
5

$$$$
