301542.cdx
  Mrv1902 05222410212D          

 21 23  0  0  0  0            999 V2000
    5.4320   -8.0911    0.0000 O   0  0  0  0  0  0  0  0  0  0  0  0
    4.0017   -5.6168    0.0000 O   0  0  0  0  0  0  0  0  0  0  0  0
   11.1460   -4.7879    0.0000 C   0  0  0  0  0  0  0  0  0  0  0  0
   10.4313   -4.3758    0.0000 O   0  0  0  0  0  0  0  0  0  0  0  0
    8.2881   -4.7895    0.0000 C   0  0  0  0  0  0  0  0  0  0  0  0
    9.0023   -4.3766    0.0000 C   0  0  0  0  0  0  0  0  0  0  0  0
    9.7170   -4.7887    0.0000 C   0  0  0  0  0  0  0  0  0  0  0  0
    9.7175   -5.6137    0.0000 C   0  0  0  0  0  0  0  0  0  0  0  0
    9.0032   -6.0266    0.0000 C   0  0  0  0  0  0  0  0  0  0  0  0
    8.2885   -5.6145    0.0000 C   0  0  0  0  0  0  0  0  0  0  0  0
    6.8610   -8.0903    0.0000 O   0  0  0  0  0  0  0  0  0  0  0  0
    6.8596   -5.6153    0.0000 O   0  0  0  0  0  0  0  0  0  0  0  0
    6.1454   -6.0282    0.0000 C   0  0  0  0  0  0  0  0  0  0  0  0
    5.4307   -5.6161    0.0000 C   0  0  0  0  0  0  0  0  0  0  0  0
    4.7164   -6.0290    0.0000 C   0  0  0  0  0  0  0  0  0  0  0  0
    4.7169   -6.8540    0.0000 C   0  0  0  0  0  0  0  0  0  0  0  0
    5.4316   -7.2661    0.0000 C   0  0  0  0  0  0  0  0  0  0  0  0
    6.1458   -6.8532    0.0000 C   0  0  0  0  0  0  0  0  0  0  0  0
    6.8605   -7.2653    0.0000 C   0  0  0  0  0  0  0  0  0  0  0  0
    7.5748   -6.8524    0.0000 C   0  0  0  0  0  0  0  0  0  0  0  0
    7.5743   -6.0274    0.0000 C   0  0  1  0  0  0  0  0  0  0  0  0
 17  1  1  0  0  0  0
 15  2  1  0  0  0  0
 21 10  1  6  0  0  0
  7  4  1  0  0  0  0
  4  3  1  0  0  0  0
 10  5  2  0  0  0  0
  6  5  1  0  0  0  0
  7  6  2  0  0  0  0
  8  7  1  0  0  0  0
  9  8  2  0  0  0  0
 10  9  1  0  0  0  0
 19 11  2  0  0  0  0
 21 12  1  0  0  0  0
 13 12  1  0  0  0  0
 18 13  2  0  0  0  0
 14 13  1  0  0  0  0
 15 14  2  0  0  0  0
 16 15  1  0  0  0  0
 17 16  2  0  0  0  0
 18 17  1  0  0  0  0
 19 18  1  0  0  0  0
 20 19  1  0  0  0  0
 21 20  1  0  0  0  0
M  END
>  <cdx:groupId>
1178

>  <cdx:fragmentId>
1116

$$$$
