301524.cdx
  Mrv1902 05222410202D          

 30 34  0  0  0  0            999 V2000
    9.7223   -8.5160    0.0000 C   0  0  0  0  0  0  0  0  0  0  0  0
    8.2812   -4.3953    0.0000 H   0  0  0  0  0  0  0  0  0  0  0  0
    6.8710   -6.8744    0.0000 H   0  0  0  0  0  0  0  0  0  0  0  0
    8.2885   -6.8703    0.0000 H   0  0  0  0  0  0  0  0  0  0  0  0
    8.9944   -3.9807    0.0000 C   0  0  0  0  0  0  0  0  0  0  0  0
    9.7198   -7.6910    0.0000 O   0  0  0  0  0  0  0  0  0  0  0  0
    8.2909   -7.6953    0.0000 O   0  0  0  0  0  0  0  0  0  0  0  0
    9.0041   -7.2807    0.0000 C   0  0  0  0  0  0  0  0  0  0  0  0
    9.7125   -5.2161    0.0000 O   0  0  0  0  0  0  0  0  0  0  0  0
    9.7150   -6.0411    0.0000 C   0  0  0  0  0  0  0  0  0  0  0  0
    9.0017   -6.4557    0.0000 C   0  0  0  0  0  0  0  0  0  0  0  0
    8.9968   -4.8057    0.0000 C   0  0  2  0  0  0  0  0  0  0  0  0
    6.8571   -6.0495    0.0000 C   0  0  2  0  0  0  0  0  0  0  0  0
    7.5728   -6.4599    0.0000 C   0  0  0  0  0  0  0  0  0  0  0  0
    8.2860   -6.0453    0.0000 C   0  0  1  0  0  0  0  0  0  0  0  0
    8.2836   -5.2203    0.0000 C   0  0  2  0  0  0  0  0  0  0  0  0
    7.5679   -4.8099    0.0000 C   0  0  0  0  0  0  0  0  0  0  0  0
    6.8547   -5.2245    0.0000 N   0  0  0  0  0  0  0  0  0  0  0  0
    6.0693   -4.9719    0.0000 C   0  0  0  0  0  0  0  0  0  0  0  0
    5.5863   -5.6407    0.0000 C   0  0  0  0  0  0  0  0  0  0  0  0
    6.0732   -6.3067    0.0000 C   0  0  1  0  0  0  0  0  0  0  0  0
    5.2894   -6.5640    0.0000 C   0  0  0  0  0  0  0  0  0  0  0  0
    5.2918   -7.3890    0.0000 N   0  0  0  0  0  0  0  0  0  0  0  0
    6.0772   -7.6416    0.0000 C   0  0  0  0  0  0  0  0  0  0  0  0
    6.5601   -6.9727    0.0000 C   0  0  0  0  0  0  0  0  0  0  0  0
    6.4149   -8.3943    0.0000 C   0  0  0  0  0  0  0  0  0  0  0  0
    7.2357   -8.4781    0.0000 C   0  0  0  0  0  0  0  0  0  0  0  0
    7.7186   -7.8092    0.0000 C   0  0  0  0  0  0  0  0  0  0  0  0
    7.3808   -7.0566    0.0000 C   0  0  0  0  0  0  0  0  0  0  0  0
    4.6205   -6.0810    0.0000 O   0  0  0  0  0  0  0  0  0  0  0  0
  6  1  1  0  0  0  0
 16  2  1  1  0  0  0
 13  3  1  6  0  0  0
 15  4  1  6  0  0  0
 12  5  1  6  0  0  0
 11  8  1  0  0  0  0
  8  6  1  0  0  0  0
  8  7  2  0  0  0  0
 11 15  1  0  0  0  0
 12 16  1  0  0  0  0
 12  9  1  0  0  0  0
 10  9  1  0  0  0  0
 11 10  2  0  0  0  0
 18 13  1  0  0  0  0
 21 13  1  0  0  0  0
 14 13  1  0  0  0  0
 15 14  1  0  0  0  0
 16 15  1  0  0  0  0
 17 16  1  0  0  0  0
 18 17  1  0  0  0  0
 19 18  1  0  0  0  0
 20 19  1  0  0  0  0
 21 20  1  1  0  0  0
 21 22  1  0  0  0  0
 22 23  1  0  0  0  0
 23 24  1  0  0  0  0
 24 25  2  0  0  0  0
 25 21  1  0  0  0  0
 24 26  1  0  0  0  0
 26 27  2  0  0  0  0
 27 28  1  0  0  0  0
 28 29  2  0  0  0  0
 29 25  1  0  0  0  0
 22 30  2  0  0  0  0
M  END
>  <cdx:fragmentId>
1978

$$$$
