301514.cdx
  Mrv1902 05222410262D          

 15 17  0  0  0  0            999 V2000
    7.5031   -5.3419    0.0000 N   0  0  0  0  0  0  0  0  0  0  0  0
    8.2175   -5.7544    0.0000 C   0  0  0  0  0  0  0  0  0  0  0  0
    8.2175   -6.5794    0.0000 C   0  0  0  0  0  0  0  0  0  0  0  0
    7.5031   -6.9919    0.0000 C   0  0  0  0  0  0  0  0  0  0  0  0
    6.7886   -6.5794    0.0000 C   0  0  0  0  0  0  0  0  0  0  0  0
    6.0741   -6.9919    0.0000 C   0  0  0  0  0  0  0  0  0  0  0  0
    5.3597   -6.5794    0.0000 C   0  0  0  0  0  0  0  0  0  0  0  0
    5.3597   -5.7544    0.0000 C   0  0  0  0  0  0  0  0  0  0  0  0
    6.0741   -5.3419    0.0000 C   0  0  0  0  0  0  0  0  0  0  0  0
    6.7886   -5.7544    0.0000 C   0  0  0  0  0  0  0  0  0  0  0  0
    9.0022   -5.4994    0.0000 O   0  0  0  0  0  0  0  0  0  0  0  0
    9.0022   -6.8343    0.0000 C   0  0  0  0  0  0  0  0  0  0  0  0
    9.4871   -6.1669    0.0000 C   0  0  0  0  0  0  0  0  0  0  0  0
    7.5031   -7.8169    0.0000 O   0  0  0  0  0  0  0  0  0  0  0  0
    7.5031   -4.5169    0.0000 C   0  0  0  0  0  0  0  0  0  0  0  0
  1  2  1  0  0  0  0
  2  3  2  0  0  0  0
  3  4  1  0  0  0  0
  4  5  1  0  0  0  0
  5  6  1  0  0  0  0
  6  7  2  0  0  0  0
  7  8  1  0  0  0  0
  8  9  2  0  0  0  0
  9 10  1  0  0  0  0
  1 10  1  0  0  0  0
  5 10  2  0  0  0  0
 12 13  2  0  0  0  0
 11 13  1  0  0  0  0
 11  2  1  0  0  0  0
 12  3  1  0  0  0  0
  4 14  2  0  0  0  0
  1 15  1  0  0  0  0
M  END
>  <cdx:groupId>
318

>  <cdx:fragmentId>
274

$$$$
