30156.cdx
  Mrv1902 05222410212D          

 27 29  0  0  0  0            999 V2000
    3.7898   -7.9096    0.0000 C   0  0  0  0  0  0  0  0  0  0  0  0
    4.2029   -8.6238    0.0000 C   0  0  0  0  0  0  0  0  0  0  0  0
    5.0279   -8.6231    0.0000 C   0  0  0  0  0  0  0  0  0  0  0  0
    5.4398   -7.9083    0.0000 C   0  0  0  0  0  0  0  0  0  0  0  0
    5.0268   -7.1942    0.0000 C   0  0  0  0  0  0  0  0  0  0  0  0
    4.2018   -7.1948    0.0000 C   0  0  0  0  0  0  0  0  0  0  0  0
    2.9648   -7.9102    0.0000 O   0  0  0  0  0  0  0  0  0  0  0  0
    6.2648   -7.9077    0.0000 C   0  0  0  0  0  0  0  0  0  0  0  0
    6.6779   -8.6218    0.0000 C   0  0  0  0  0  0  0  0  0  0  0  0
    7.5029   -8.6212    0.0000 C   0  0  0  0  0  0  0  0  0  0  0  0
    7.9159   -9.3354    0.0000 C   0  0  0  0  0  0  0  0  0  0  0  0
    8.7409   -9.3347    0.0000 C   0  0  0  0  0  0  0  0  0  0  0  0
    9.1529   -8.6199    0.0000 C   0  0  0  0  0  0  0  0  0  0  0  0
    8.7398   -7.9058    0.0000 C   0  0  0  0  0  0  0  0  0  0  0  0
    7.9148   -7.9064    0.0000 C   0  0  0  0  0  0  0  0  0  0  0  0
    9.1540  -10.0489    0.0000 O   0  0  0  0  0  0  0  0  0  0  0  0
    7.5040  -10.0501    0.0000 O   0  0  0  0  0  0  0  0  0  0  0  0
    9.1518   -7.1910    0.0000 O   0  0  0  0  0  0  0  0  0  0  0  0
    5.3056  -10.4901    0.0000 C   0  0  0  0  0  0  0  0  0  0  0  0
    5.3056  -11.3151    0.0000 C   0  0  2  0  0  0  0  0  0  0  0  0
    6.0200  -11.7276    0.0000 C   0  0  1  0  0  0  0  0  0  0  0  0
    6.7345  -11.3151    0.0000 C   0  0  2  0  0  0  0  0  0  0  0  0
    6.7345  -10.4901    0.0000 C   0  0  1  0  0  0  0  0  0  0  0  0
    6.0200  -10.0776    0.0000 O   0  0  0  0  0  0  0  0  0  0  0  0
    6.0200  -12.5526    0.0000 O   0  0  0  0  0  0  0  0  0  0  0  0
    4.5911  -11.7276    0.0000 O   0  0  0  0  0  0  0  0  0  0  0  0
    7.4490  -11.7276    0.0000 O   0  0  0  0  0  0  0  0  0  0  0  0
  1  2  2  0  0  0  0
  2  3  1  0  0  0  0
  3  4  2  0  0  0  0
  4  5  1  0  0  0  0
  5  6  2  0  0  0  0
  6  1  1  0  0  0  0
  1  7  1  0  0  0  0
  4  8  1  0  0  0  0
  8  9  2  0  0  0  0
  9 10  1  0  0  0  0
 10 11  2  0  0  0  0
 11 12  1  0  0  0  0
 12 13  2  0  0  0  0
 13 14  1  0  0  0  0
 14 15  2  0  0  0  0
 15 10  1  0  0  0  0
 12 16  1  0  0  0  0
 11 17  1  0  0  0  0
 14 18  1  0  0  0  0
 19 20  1  0  0  0  0
 20 21  1  0  0  0  0
 21 22  1  0  0  0  0
 22 23  1  0  0  0  0
 23 24  1  0  0  0  0
 24 19  1  0  0  0  0
 21 25  1  1  0  0  0
 20 26  1  6  0  0  0
 22 27  1  6  0  0  0
 23 17  1  1  0  0  0
M  END
>  <cdx:fragmentId>
5

$$$$
