301533.cdx
  Mrv1902 05222410192D          

 20 21  0  0  0  0            999 V2000
    8.7793   -6.2298    0.0000 C   0  0  0  0  0  0  0  0  0  0  0  0
    8.0648   -6.6423    0.0000 C   0  0  0  0  0  0  0  0  0  0  0  0
    7.3504   -6.2298    0.0000 C   0  0  0  0  0  0  0  0  0  0  0  0
    7.3504   -5.4048    0.0000 C   0  0  0  0  0  0  0  0  0  0  0  0
    6.6359   -4.9923    0.0000 C   0  0  0  0  0  0  0  0  0  0  0  0
    8.7793   -5.4048    0.0000 O   0  0  0  0  0  0  0  0  0  0  0  0
    9.4938   -6.6423    0.0000 N   0  0  0  0  0  0  0  0  0  0  0  0
   10.2082   -6.2298    0.0000 C   0  0  0  0  0  0  0  0  0  0  0  0
   10.9227   -6.6423    0.0000 C   0  0  0  0  0  0  0  0  0  0  0  0
   10.9227   -7.4673    0.0000 C   0  0  0  0  0  0  0  0  0  0  0  0
   11.6372   -6.2298    0.0000 C   0  0  0  0  0  0  0  0  0  0  0  0
    3.7079   -6.4848    0.0000 O   0  0  0  0  0  0  0  0  0  0  0  0
    3.2229   -5.8173    0.0000 C   0  0  0  0  0  0  0  0  0  0  0  0
    3.7079   -5.1499    0.0000 O   0  0  0  0  0  0  0  0  0  0  0  0
    4.4925   -5.4048    0.0000 C   0  0  0  0  0  0  0  0  0  0  0  0
    4.4925   -6.2298    0.0000 C   0  0  0  0  0  0  0  0  0  0  0  0
    5.2069   -4.9923    0.0000 C   0  0  0  0  0  0  0  0  0  0  0  0
    5.9214   -5.4048    0.0000 C   0  0  0  0  0  0  0  0  0  0  0  0
    5.9214   -6.2298    0.0000 C   0  0  0  0  0  0  0  0  0  0  0  0
    5.2069   -6.6423    0.0000 C   0  0  0  0  0  0  0  0  0  0  0  0
  1  2  1  0  0  0  0
  2  3  2  0  0  0  0
  3  4  1  0  0  0  0
  4  5  2  0  0  0  0
  1  6  2  0  0  0  0
  1  7  1  0  0  0  0
  8  9  1  0  0  0  0
  9 10  1  0  0  0  0
  9 11  1  0  0  0  0
  7  8  1  0  0  0  0
 12 13  1  0  0  0  0
 13 14  1  0  0  0  0
 14 15  1  0  0  0  0
 15 16  1  0  0  0  0
 12 16  1  0  0  0  0
 17 18  1  0  0  0  0
 18 19  2  0  0  0  0
 19 20  1  0  0  0  0
 20 16  2  0  0  0  0
 17 15  2  0  0  0  0
  5 18  1  0  0  0  0
M  END
>  <cdx:groupId>
479

>  <cdx:fragmentId>
421

$$$$
