301539.cdx
  Mrv1902 05222410282D          

 36 39  0  0  0  0            999 V2000
    6.6950   -9.6653    0.0000 O   0  0  0  0  0  0  0  0  0  0  0  0
    5.2661   -7.1903    0.0000 O   0  0  0  0  0  0  0  0  0  0  0  0
   11.6963   -5.9528    0.0000 O   0  0  0  0  0  0  0  0  0  0  0  0
   12.4108   -7.1903    0.0000 C   0  0  0  0  0  0  0  0  0  0  0  0
   11.6963   -7.6028    0.0000 O   0  0  0  0  0  0  0  0  0  0  0  0
   10.9818   -4.7153    0.0000 C   0  0  0  0  0  0  0  0  0  0  0  0
   10.2674   -5.1278    0.0000 O   0  0  0  0  0  0  0  0  0  0  0  0
    9.5529   -6.3653    0.0000 C   0  0  0  0  0  0  0  0  0  0  0  0
   10.2674   -5.9528    0.0000 C   0  0  0  0  0  0  0  0  0  0  0  0
   10.9818   -6.3653    0.0000 C   0  0  0  0  0  0  0  0  0  0  0  0
   10.9818   -7.1903    0.0000 C   0  0  0  0  0  0  0  0  0  0  0  0
   10.2674   -7.6028    0.0000 C   0  0  0  0  0  0  0  0  0  0  0  0
    9.5529   -7.1903    0.0000 C   0  0  0  0  0  0  0  0  0  0  0  0
    5.9805  -10.0778    0.0000 O   0  0  0  0  0  0  0  0  0  0  0  0
    4.5516  -10.9028    0.0000 O   0  0  0  0  0  0  0  0  0  0  0  0
    3.1227  -10.0778    0.0000 O   0  0  0  0  0  0  0  0  0  0  0  0
    2.4082   -8.8403    0.0000 O   0  0  0  0  0  0  0  0  0  0  0  0
    3.1227   -8.4278    0.0000 C   0  0  0  0  0  0  0  0  0  0  0  0
    3.8371   -8.8403    0.0000 C   0  0  2  0  0  0  0  0  0  0  0  0
    3.8371   -9.6653    0.0000 C   0  0  2  0  0  0  0  0  0  0  0  0
    4.5516  -10.0778    0.0000 C   0  0  1  0  0  0  0  0  0  0  0  0
    5.2661   -9.6653    0.0000 C   0  0  2  0  0  0  0  0  0  0  0  0
    5.2661   -8.8403    0.0000 C   0  0  1  0  0  0  0  0  0  0  0  0
    4.5516   -8.4278    0.0000 O   0  0  0  0  0  0  0  0  0  0  0  0
    8.1240   -9.6653    0.0000 O   0  0  0  0  0  0  0  0  0  0  0  0
    8.1240   -7.1903    0.0000 O   0  0  0  0  0  0  0  0  0  0  0  0
    7.4095   -7.6028    0.0000 C   0  0  0  0  0  0  0  0  0  0  0  0
    6.6950   -7.1903    0.0000 C   0  0  0  0  0  0  0  0  0  0  0  0
    5.9805   -7.6028    0.0000 C   0  0  0  0  0  0  0  0  0  0  0  0
    5.9805   -8.4278    0.0000 C   0  0  0  0  0  0  0  0  0  0  0  0
    6.6950   -8.8403    0.0000 C   0  0  0  0  0  0  0  0  0  0  0  0
    7.4095   -8.4278    0.0000 C   0  0  0  0  0  0  0  0  0  0  0  0
    8.1240   -8.8403    0.0000 C   0  0  0  0  0  0  0  0  0  0  0  0
    8.8384   -8.4278    0.0000 C   0  0  0  0  0  0  0  0  0  0  0  0
    8.8384   -7.6028    0.0000 C   0  0  0  0  0  0  0  0  0  0  0  0
    5.2661   -8.0153    0.0000 H   0  0  0  0  0  0  0  0  0  0  0  0
 31  1  1  0  0  0  0
 29  2  1  0  0  0  0
 35 13  1  0  0  0  0
 10  3  1  0  0  0  0
 11  5  1  0  0  0  0
  5  4  1  0  0  0  0
  9  7  1  0  0  0  0
  7  6  1  0  0  0  0
 13  8  2  0  0  0  0
  9  8  1  0  0  0  0
 10  9  2  0  0  0  0
 11 10  1  0  0  0  0
 12 11  2  0  0  0  0
 13 12  1  0  0  0  0
 23 30  1  0  0  0  0
 22 14  1  6  0  0  0
 21 15  1  1  0  0  0
 20 16  1  6  0  0  0
 19 18  1  1  0  0  0
 18 17  1  0  0  0  0
 24 19  1  0  0  0  0
 20 19  1  0  0  0  0
 21 20  1  0  0  0  0
 22 21  1  0  0  0  0
 23 22  1  0  0  0  0
 24 23  1  0  0  0  0
 33 25  2  0  0  0  0
 35 26  1  0  0  0  0
 27 26  1  0  0  0  0
 32 27  2  0  0  0  0
 28 27  1  0  0  0  0
 29 28  2  0  0  0  0
 30 29  1  0  0  0  0
 31 30  2  0  0  0  0
 32 31  1  0  0  0  0
 33 32  1  0  0  0  0
 34 33  1  0  0  0  0
 35 34  2  0  0  0  0
 23 36  1  6  0  0  0
M  END
>  <cdx:fragmentId>
728

$$$$
