30151.cdx
  Mrv1902 05222410222D          

 15 14  0  0  0  0            999 V2000
    6.3794   -8.3797    0.0000 C   0  0  0  0  0  0  0  0  0  0  0  0
    5.6767   -8.8119    0.0000 C   0  0  0  0  0  0  0  0  0  0  0  0
    4.9510   -8.4193    0.0000 C   0  0  0  0  0  0  0  0  0  0  0  0
    4.2483   -8.8515    0.0000 C   0  0  0  0  0  0  0  0  0  0  0  0
    3.5226   -8.4590    0.0000 C   0  0  0  0  0  0  0  0  0  0  0  0
    7.1051   -8.7722    0.0000 C   0  0  0  0  0  0  0  0  0  0  0  0
    7.8195   -8.3597    0.0000 C   0  0  0  0  0  0  0  0  0  0  0  0
    8.5340   -8.7722    0.0000 C   0  0  0  0  0  0  0  0  0  0  0  0
    9.2485   -8.3597    0.0000 C   0  0  0  0  0  0  0  0  0  0  0  0
    9.9629   -8.7722    0.0000 C   0  0  0  0  0  0  0  0  0  0  0  0
   10.6774   -8.3597    0.0000 C   0  0  0  0  0  0  0  0  0  0  0  0
   11.3919   -8.7722    0.0000 C   0  0  0  0  0  0  0  0  0  0  0  0
   12.1064   -8.3597    0.0000 O   0  0  0  0  0  0  0  0  0  0  0  0
    2.8199   -8.8912    0.0000 C   0  0  0  0  0  0  0  0  0  0  0  0
    2.0942   -8.4987    0.0000 C   0  0  0  0  0  0  0  0  0  0  0  0
  2  1  1  0  0  0  0
  3  2  1  0  0  0  0
  4  3  1  0  0  0  0
  5  4  1  0  0  0  0
 14  5  1  0  0  0  0
 15 14  1  0  0  0  0
  1  6  2  0  0  0  0
  6  7  1  0  0  0  0
  7  8  1  0  0  0  0
  8  9  1  0  0  0  0
  9 10  1  0  0  0  0
 10 11  1  0  0  0  0
 11 12  1  0  0  0  0
 12 13  2  0  0  0  0
M  END
>  <cdx:fragmentId>
3

$$$$
