301534.cdx
  Mrv1902 05222410182D          

 19 21  0  0  0  0            999 V2000
    6.5337   -5.3419    0.0000 N   0  0  0  0  0  0  0  0  0  0  0  0
    7.2481   -5.7544    0.0000 C   0  0  0  0  0  0  0  0  0  0  0  0
    7.2481   -6.5794    0.0000 C   0  0  0  0  0  0  0  0  0  0  0  0
    6.5337   -6.9919    0.0000 C   0  0  0  0  0  0  0  0  0  0  0  0
    5.8192   -6.5794    0.0000 C   0  0  0  0  0  0  0  0  0  0  0  0
    5.1047   -6.9919    0.0000 C   0  0  0  0  0  0  0  0  0  0  0  0
    4.3902   -6.5794    0.0000 C   0  0  0  0  0  0  0  0  0  0  0  0
    4.3902   -5.7544    0.0000 C   0  0  0  0  0  0  0  0  0  0  0  0
    5.1047   -5.3419    0.0000 C   0  0  0  0  0  0  0  0  0  0  0  0
    5.8192   -5.7544    0.0000 C   0  0  0  0  0  0  0  0  0  0  0  0
    8.0327   -5.4994    0.0000 O   0  0  0  0  0  0  0  0  0  0  0  0
    8.0327   -6.8343    0.0000 C   0  0  0  0  0  0  0  0  0  0  0  0
    8.5177   -6.1669    0.0000 C   0  0  0  0  0  0  0  0  0  0  0  0
    6.5337   -7.8169    0.0000 O   0  0  0  0  0  0  0  0  0  0  0  0
    6.5337   -4.5169    0.0000 C   0  0  0  0  0  0  0  0  0  0  0  0
    9.3427   -6.9919    0.0000 C   0  0  0  0  0  0  0  0  0  0  0  0
    9.3427   -6.1669    0.0000 C   0  0  0  0  0  0  0  0  0  0  0  0
    9.3427   -5.3419    0.0000 C   0  0  0  0  0  0  0  0  0  0  0  0
   10.1677   -6.1669    0.0000 O   0  0  0  0  0  0  0  0  0  0  0  0
  1  2  1  0  0  0  0
  2  3  2  0  0  0  0
  3  4  1  0  0  0  0
  4  5  1  0  0  0  0
  5  6  1  0  0  0  0
  6  7  2  0  0  0  0
  7  8  1  0  0  0  0
  8  9  2  0  0  0  0
  9 10  1  0  0  0  0
  1 10  1  0  0  0  0
  5 10  2  0  0  0  0
 12 13  1  0  0  0  0
 11 13  1  0  0  0  0
 11  2  1  0  0  0  0
 12  3  1  0  0  0  0
  4 14  2  0  0  0  0
  1 15  1  0  0  0  0
 16 17  1  0  0  0  0
 17 18  1  0  0  0  0
 17 19  1  0  0  0  0
 13 17  1  0  0  0  0
M  END
>  <cdx:groupId>
543

>  <cdx:fragmentId>
487

$$$$
