301513.cdx
  Mrv1902 05222410272D          

 15 16  0  0  0  0            999 V2000
    8.6011   -7.3297    0.0000 C   0  0  0  0  0  0  0  0  0  0  0  0
    9.0860   -6.6623    0.0000 C   0  0  0  0  0  0  0  0  0  0  0  0
    8.6011   -5.9948    0.0000 C   0  0  0  0  0  0  0  0  0  0  0  0
    7.8164   -6.2498    0.0000 C   0  0  0  0  0  0  0  0  0  0  0  0
    7.1714   -5.7354    0.0000 C   0  0  0  0  0  0  0  0  0  0  0  0
    6.3671   -5.9190    0.0000 C   0  0  0  0  0  0  0  0  0  0  0  0
    6.0092   -6.6623    0.0000 C   0  0  0  0  0  0  0  0  0  0  0  0
    6.3671   -7.4056    0.0000 C   0  0  0  0  0  0  0  0  0  0  0  0
    7.1714   -7.5891    0.0000 C   0  0  0  0  0  0  0  0  0  0  0  0
    7.8164   -7.0748    0.0000 C   0  0  0  0  0  0  0  0  0  0  0  0
    8.3040   -4.5971    0.0000 C   0  0  0  0  0  0  0  0  0  0  0  0
    8.8560   -5.2102    0.0000 C   0  0  0  0  0  0  0  0  0  0  0  0
    9.6630   -5.0387    0.0000 C   0  0  0  0  0  0  0  0  0  0  0  0
    7.9638   -7.8865    0.0000 C   0  0  0  0  0  0  0  0  0  0  0  0
    5.1842   -6.6623    0.0000 C   0  0  0  0  0  0  0  0  0  0  0  0
  1  2  1  0  0  0  0
  2  3  1  0  0  0  0
  3  4  1  0  0  0  0
  4  5  1  0  0  0  0
  5  6  1  0  0  0  0
  6  7  1  0  0  0  0
  7  8  2  0  0  0  0
  8  9  1  0  0  0  0
  9 10  1  0  0  0  0
  1 10  1  0  0  0  0
  4 10  1  0  0  0  0
 11 12  2  0  0  0  0
 12 13  1  0  0  0  0
  3 12  1  0  0  0  0
 10 14  1  0  0  0  0
  7 15  1  0  0  0  0
M  END
>  <cdx:groupId>
268

>  <cdx:fragmentId>
225

$$$$
