301521.cdx
  Mrv1902 05222410182D          

 20 21  0  0  0  0            999 V2000
    4.7537   -8.2011    0.0000 C   0  0  0  0  0  0  0  0  0  0  0  0
    5.4690   -7.7901    0.0000 C   0  0  0  0  0  0  0  0  0  0  0  0
    6.1826   -8.2041    0.0000 C   0  0  0  0  0  0  0  0  0  0  0  0
    6.1809   -9.0291    0.0000 C   0  0  0  0  0  0  0  0  0  0  0  0
    5.4656   -9.4401    0.0000 C   0  0  0  0  0  0  0  0  0  0  0  0
    4.7519   -9.0261    0.0000 C   0  0  0  0  0  0  0  0  0  0  0  0
    4.0401   -7.7871    0.0000 O   0  0  0  0  0  0  0  0  0  0  0  0
    6.8945   -9.4431    0.0000 C   0  0  0  0  0  0  0  0  0  0  0  0
    6.8928  -10.2681    0.0000 C   0  0  0  0  0  0  0  0  0  0  0  0
    7.6064  -10.6820    0.0000 C   0  0  0  0  0  0  0  0  0  0  0  0
    9.0491   -4.0850    0.0000 C   0  0  0  0  0  0  0  0  0  0  0  0
    8.3337   -4.4960    0.0000 C   0  0  0  0  0  0  0  0  0  0  0  0
    8.3320   -5.3210    0.0000 C   0  0  0  0  0  0  0  0  0  0  0  0
    6.1878   -5.7291    0.0000 C   0  0  0  0  0  0  0  0  0  0  0  0
    6.9031   -5.3181    0.0000 C   0  0  0  0  0  0  0  0  0  0  0  0
    7.6167   -5.7321    0.0000 C   0  0  0  0  0  0  0  0  0  0  0  0
    7.6150   -6.5570    0.0000 C   0  0  0  0  0  0  0  0  0  0  0  0
    6.8997   -6.9681    0.0000 C   0  0  0  0  0  0  0  0  0  0  0  0
    6.1860   -6.5541    0.0000 C   0  0  0  0  0  0  0  0  0  0  0  0
    5.4707   -6.9651    0.0000 O   0  0  0  0  0  0  0  0  0  0  0  0
 16 13  1  0  0  0  0
 12 11  2  0  0  0  0
 13 12  1  0  0  0  0
 20 19  1  0  0  0  0
 19 14  2  0  0  0  0
 15 14  1  0  0  0  0
 16 15  2  0  0  0  0
 17 16  1  0  0  0  0
 18 17  2  0  0  0  0
 19 18  1  0  0  0  0
  1  2  1  0  0  0  0
  2  3  2  0  0  0  0
  3  4  1  0  0  0  0
  4  5  2  0  0  0  0
  5  6  1  0  0  0  0
  1  6  2  0  0  0  0
  1  7  1  0  0  0  0
  2 20  1  0  0  0  0
  8  9  1  0  0  0  0
  9 10  2  0  0  0  0
  4  8  1  0  0  0  0
M  END
>  <cdx:fragmentId>
929

$$$$
