301560.cdx
  Mrv1902 05222410242D          

 21 23  0  0  0  0            999 V2000
    9.0478   -5.4070    0.0000 O   0  0  0  0  0  0  0  0  0  0  0  0
    9.5327   -6.0744    0.0000 C   0  0  0  0  0  0  0  0  0  0  0  0
    9.0478   -6.7419    0.0000 C   0  0  0  0  0  0  0  0  0  0  0  0
    8.2632   -6.4869    0.0000 C   0  0  1  0  0  0  0  0  0  0  0  0
    7.5487   -6.8994    0.0000 C   0  0  0  0  0  0  0  0  0  0  0  0
    6.8343   -6.4869    0.0000 C   0  0  2  0  0  0  0  0  0  0  0  0
    6.8343   -5.6619    0.0000 C   0  0  1  0  0  0  0  0  0  0  0  0
    7.5487   -5.2494    0.0000 C   0  0  0  0  0  0  0  0  0  0  0  0
    8.2632   -5.6619    0.0000 C   0  0  1  0  0  0  0  0  0  0  0  0
    6.1198   -5.2494    0.0000 C   0  0  0  0  0  0  0  0  0  0  0  0
    5.4053   -5.6619    0.0000 C   0  0  2  0  0  0  0  0  0  0  0  0
    5.4053   -6.4869    0.0000 C   0  0  0  0  0  0  0  0  0  0  0  0
    6.1198   -6.8994    0.0000 C   0  0  0  0  0  0  0  0  0  0  0  0
   10.3577   -6.0744    0.0000 O   0  0  0  0  0  0  0  0  0  0  0  0
    6.1198   -7.7244    0.0000 C   0  0  0  0  0  0  0  0  0  0  0  0
    9.3028   -7.5265    0.0000 C   0  0  0  0  0  0  0  0  0  0  0  0
    6.8343   -4.8369    0.0000 C   0  0  0  0  0  0  0  0  0  0  0  0
    4.6908   -5.2494    0.0000 O   0  0  0  0  0  0  0  0  0  0  0  0
    8.3494   -7.3074    0.0000 H   0  0  0  0  0  0  0  0  0  0  0  0
    6.8343   -7.3119    0.0000 H   0  0  0  0  0  0  0  0  0  0  0  0
    8.3494   -4.8415    0.0000 H   0  0  0  0  0  0  0  0  0  0  0  0
  1  2  1  0  0  0  0
  2  3  1  0  0  0  0
  3  4  1  0  0  0  0
  4  5  1  0  0  0  0
  5  6  1  0  0  0  0
  6  7  1  0  0  0  0
  7  8  1  0  0  0  0
  8  9  1  0  0  0  0
  4  9  1  0  0  0  0
  1  9  1  0  0  0  0
 10 11  1  0  0  0  0
 11 12  1  0  0  0  0
 12 13  1  0  0  0  0
 13  6  1  0  0  0  0
 10  7  1  0  0  0  0
  2 14  2  0  0  0  0
 13 15  2  0  0  0  0
  3 16  2  0  0  0  0
  7 17  1  1  0  0  0
 11 18  1  6  0  0  0
  4 19  1  6  0  0  0
  6 20  1  6  0  0  0
  9 21  1  6  0  0  0
M  END
>  <cdx:groupId>
250

>  <cdx:fragmentId>
188

$$$$
