301522.cdx
  Mrv1902 05222410192D          

 34 36  0  0  0  0            999 V2000
    9.2112   -4.7866    0.0000 O   0  0  0  0  0  0  0  0  0  0  0  0
    7.7822   -3.9616    0.0000 O   0  0  0  0  0  0  0  0  0  0  0  0
    6.3533   -4.7866    0.0000 O   0  0  0  0  0  0  0  0  0  0  0  0
    5.6388   -7.6741    0.0000 O   0  0  0  0  0  0  0  0  0  0  0  0
    4.2099   -8.4991    0.0000 O   0  0  0  0  0  0  0  0  0  0  0  0
    2.7809   -7.6741    0.0000 O   0  0  0  0  0  0  0  0  0  0  0  0
    2.0665   -6.4366    0.0000 O   0  0  0  0  0  0  0  0  0  0  0  0
    2.7809   -6.0241    0.0000 C   0  0  0  0  0  0  0  0  0  0  0  0
    3.4954   -6.4366    0.0000 C   0  0  2  0  0  0  0  0  0  0  0  0
    3.4954   -7.2616    0.0000 C   0  0  2  0  0  0  0  0  0  0  0  0
    4.2099   -7.6741    0.0000 C   0  0  1  0  0  0  0  0  0  0  0  0
    4.9244   -7.2616    0.0000 C   0  0  2  0  0  0  0  0  0  0  0  0
    4.9244   -6.4366    0.0000 C   0  0  2  0  0  0  0  0  0  0  0  0
    4.2099   -6.0241    0.0000 O   0  0  0  0  0  0  0  0  0  0  0  0
    5.6388   -6.0241    0.0000 O   0  0  0  0  0  0  0  0  0  0  0  0
    6.3533   -6.4366    0.0000 C   0  0  0  0  0  0  0  0  0  0  0  0
    7.0678   -6.0241    0.0000 C   0  0  2  0  0  0  0  0  0  0  0  0
    7.0678   -5.1991    0.0000 C   0  0  2  0  0  0  0  0  0  0  0  0
    7.7822   -4.7866    0.0000 C   0  0  1  0  0  0  0  0  0  0  0  0
    8.4967   -5.1991    0.0000 C   0  0  2  0  0  0  0  0  0  0  0  0
    8.4967   -6.0241    0.0000 C   0  0  2  0  0  0  0  0  0  0  0  0
    7.7822   -6.4366    0.0000 O   0  0  0  0  0  0  0  0  0  0  0  0
    9.2112   -6.4366    0.0000 O   0  0  0  0  0  0  0  0  0  0  0  0
    9.9256   -6.0241    0.0000 C   0  0  0  0  0  0  0  0  0  0  0  0
    9.9256   -7.6741    0.0000 O   0  0  0  0  0  0  0  0  0  0  0  0
   11.3546   -8.4991    0.0000 O   0  0  0  0  0  0  0  0  0  0  0  0
   12.7835   -7.6741    0.0000 O   0  0  0  0  0  0  0  0  0  0  0  0
   12.7835   -6.0241    0.0000 O   0  0  0  0  0  0  0  0  0  0  0  0
   10.6401   -6.4366    0.0000 C   0  0  2  0  0  0  0  0  0  0  0  0
   10.6401   -7.2616    0.0000 C   0  0  2  0  0  0  0  0  0  0  0  0
   11.3546   -7.6741    0.0000 C   0  0  1  0  0  0  0  0  0  0  0  0
   12.0691   -7.2616    0.0000 C   0  0  2  0  0  0  0  0  0  0  0  0
   12.0691   -6.4366    0.0000 C   0  0  0  0  0  0  0  0  0  0  0  0
   11.3546   -6.0241    0.0000 O   0  0  0  0  0  0  0  0  0  0  0  0
 29 24  1  1  0  0  0
 24 23  1  0  0  0  0
 21 23  1  1  0  0  0
 20  1  1  1  0  0  0
 19  2  1  6  0  0  0
 18  3  1  1  0  0  0
 17 16  1  6  0  0  0
 16 15  1  0  0  0  0
 13 15  1  6  0  0  0
 12  4  1  6  0  0  0
 11  5  1  1  0  0  0
 10  6  1  6  0  0  0
  9  8  1  1  0  0  0
  8  7  1  0  0  0  0
 14  9  1  0  0  0  0
 10  9  1  0  0  0  0
 11 10  1  0  0  0  0
 12 11  1  0  0  0  0
 13 12  1  0  0  0  0
 14 13  1  0  0  0  0
 22 17  1  0  0  0  0
 18 17  1  0  0  0  0
 19 18  1  0  0  0  0
 20 19  1  0  0  0  0
 21 20  1  0  0  0  0
 22 21  1  0  0  0  0
 30 25  1  6  0  0  0
 31 26  1  1  0  0  0
 32 27  1  6  0  0  0
 33 28  1  0  0  0  0
 34 29  1  0  0  0  0
 30 29  1  0  0  0  0
 31 30  1  0  0  0  0
 32 31  1  0  0  0  0
 33 32  1  0  0  0  0
 34 33  1  0  0  0  0
M  END
>  <cdx:groupId>
1078

>  <cdx:fragmentId>
1017

$$$$
