301578.cdx
  Mrv1902 05222410222D          

 49 53  0  0  0  0            999 V2000
    8.9398   -5.3527    0.0000 N   0  0  0  0  0  0  0  0  0  0  0  0
    8.8536   -6.1731    0.0000 C   0  0  0  0  0  0  0  0  0  0  0  0
    9.6073   -6.5087    0.0000 C   0  0  0  0  0  0  0  0  0  0  0  0
   10.1593   -5.8956    0.0000 C   0  0  0  0  0  0  0  0  0  0  0  0
    9.7468   -5.1811    0.0000 C   0  0  0  0  0  0  0  0  0  0  0  0
    8.1391   -6.5856    0.0000 C   0  0  0  0  0  0  0  0  0  0  0  0
    8.1391   -7.4106    0.0000 O   0  0  0  0  0  0  0  0  0  0  0  0
    7.4247   -6.1731    0.0000 N   0  0  0  0  0  0  0  0  0  0  0  0
    8.3267   -4.8006    0.0000 C   0  0  0  0  0  0  0  0  0  0  0  0
    8.4983   -3.9936    0.0000 C   0  0  0  0  0  0  0  0  0  0  0  0
    7.8571   -3.4745    0.0000 C   0  0  0  0  0  0  0  0  0  0  0  0
    7.9862   -2.6596    0.0000 C   0  0  0  0  0  0  0  0  0  0  0  0
    7.3450   -2.1404    0.0000 C   0  0  0  0  0  0  0  0  0  0  0  0
    7.5421   -5.0556    0.0000 O   0  0  0  0  0  0  0  0  0  0  0  0
    7.0869   -3.7701    0.0000 C   0  0  0  0  0  0  0  0  0  0  0  0
    9.2685   -3.6980    0.0000 N   0  0  0  0  0  0  0  0  0  0  0  0
    9.9096   -4.2172    0.0000 C   0  0  0  0  0  0  0  0  0  0  0  0
    9.3975   -2.8832    0.0000 C   0  0  0  0  0  0  0  0  0  0  0  0
    5.2813   -7.4106    0.0000 C   0  0  0  0  0  0  0  0  0  0  0  0
    5.2813   -6.5856    0.0000 O   0  0  0  0  0  0  0  0  0  0  0  0
    5.9957   -6.1731    0.0000 C   0  0  0  0  0  0  0  0  0  0  0  0
    6.7102   -6.5856    0.0000 C   0  0  0  0  0  0  0  0  0  0  0  0
    6.7102   -7.4106    0.0000 C   0  0  0  0  0  0  0  0  0  0  0  0
    7.4247   -7.8231    0.0000 N   0  0  0  0  0  0  0  0  0  0  0  0
    7.4247   -8.6481    0.0000 C   0  0  0  0  0  0  0  0  0  0  0  0
    6.7102   -9.0606    0.0000 C   0  0  0  0  0  0  0  0  0  0  0  0
    6.7102   -9.8856    0.0000 N   0  0  0  0  0  0  0  0  0  0  0  0
    5.9957  -10.2981    0.0000 C   0  0  0  0  0  0  0  0  0  0  0  0
    5.2813   -9.8856    0.0000 C   0  0  0  0  0  0  0  0  0  0  0  0
    5.2813   -9.0606    0.0000 C   0  0  0  0  0  0  0  0  0  0  0  0
    5.9957   -8.6481    0.0000 C   0  0  0  0  0  0  0  0  0  0  0  0
    5.9957   -7.8231    0.0000 C   0  0  0  0  0  0  0  0  0  0  0  0
    4.5675   -7.8243    0.0000 C   0  0  0  0  0  0  0  0  0  0  0  0
    4.5675   -8.6493    0.0000 C   0  0  0  0  0  0  0  0  0  0  0  0
    5.9957   -5.3481    0.0000 C   0  0  0  0  0  0  0  0  0  0  0  0
    5.2813   -4.9356    0.0000 C   0  0  0  0  0  0  0  0  0  0  0  0
    5.2813   -4.1106    0.0000 C   0  0  0  0  0  0  0  0  0  0  0  0
    5.9957   -3.6981    0.0000 C   0  0  0  0  0  0  0  0  0  0  0  0
    6.7102   -4.1106    0.0000 C   0  0  0  0  0  0  0  0  0  0  0  0
    6.7102   -4.9356    0.0000 C   0  0  0  0  0  0  0  0  0  0  0  0
    5.9133   -9.2742    0.0000 O   0  0  0  0  0  0  0  0  0  0  0  0
    5.9133   -7.1971    0.0000 O   0  0  0  0  0  0  0  0  0  0  0  0
    8.1391   -9.0606    0.0000 C   0  0  0  0  0  0  0  0  0  0  0  0
    8.8536   -8.6481    0.0000 C   0  0  0  0  0  0  0  0  0  0  0  0
    8.8536   -7.8231    0.0000 C   0  0  0  0  0  0  0  0  0  0  0  0
    9.5681   -7.4106    0.0000 C   0  0  0  0  0  0  0  0  0  0  0  0
   10.2825   -7.8231    0.0000 C   0  0  0  0  0  0  0  0  0  0  0  0
   10.2825   -8.6481    0.0000 C   0  0  0  0  0  0  0  0  0  0  0  0
    9.5681   -9.0606    0.0000 C   0  0  0  0  0  0  0  0  0  0  0  0
  1  2  1  0  0  0  0
  2  3  1  0  0  0  0
  3  4  1  0  0  0  0
  4  5  1  0  0  0  0
  1  5  1  0  0  0  0
  6  7  2  0  0  0  0
  6  8  1  0  0  0  0
  2  6  1  0  0  0  0
  9 10  1  0  0  0  0
 10 11  1  0  0  0  0
 11 12  1  0  0  0  0
 12 13  1  0  0  0  0
  9 14  2  0  0  0  0
 11 15  1  0  0  0  0
 16 17  1  0  0  0  0
 16 18  1  0  0  0  0
 10 16  1  0  0  0  0
  1  9  1  0  0  0  0
 19 20  1  0  0  0  0
 20 21  1  0  0  0  0
 21 22  1  0  0  0  0
 22 23  1  0  0  0  0
 23 24  1  0  0  0  0
 24 25  1  0  0  0  0
 25 26  1  0  0  0  0
 26 27  1  0  0  0  0
 27 28  1  0  0  0  0
 28 29  2  0  0  0  0
 29 30  1  0  0  0  0
 30 31  2  0  0  0  0
 31 32  1  0  0  0  0
 33 34  2  0  0  0  0
 19 32  2  0  0  0  0
 19 33  1  0  0  0  0
 34 30  1  0  0  0  0
 35 36  1  0  0  0  0
 36 37  2  0  0  0  0
 37 38  1  0  0  0  0
 38 39  2  0  0  0  0
 39 40  1  0  0  0  0
 35 40  2  0  0  0  0
 21 35  1  0  0  0  0
 26 41  2  0  0  0  0
 23 42  2  0  0  0  0
 43 44  1  0  0  0  0
 44 45  1  0  0  0  0
 45 46  2  0  0  0  0
 46 47  1  0  0  0  0
 47 48  2  0  0  0  0
 48 49  1  0  0  0  0
 44 49  2  0  0  0  0
 25 43  1  0  0  0  0
  8 22  1  0  0  0  0
M  END
>  <cdx:fragmentId>
2063

$$$$
