301565.cdx
  Mrv1902 05222410252D          

 39 43  0  0  0  0            999 V2000
    7.9604   -6.8727    0.0000 C   0  0  1  0  0  0  0  0  0  0  0  0
    7.2171   -7.2307    0.0000 C   0  0  0  0  0  0  0  0  0  0  0  0
    6.4738   -6.8727    0.0000 C   0  0  0  0  0  0  0  0  0  0  0  0
    5.8691   -7.4338    0.0000 C   0  0  0  0  0  0  0  0  0  0  0  0
    5.0807   -7.1907    0.0000 C   0  0  0  0  0  0  0  0  0  0  0  0
    4.8971   -6.3864    0.0000 C   0  0  1  0  0  0  0  0  0  0  0  0
    4.1088   -6.1432    0.0000 C   0  0  0  0  0  0  0  0  0  0  0  0
    3.9252   -5.3389    0.0000 C   0  0  1  0  0  0  0  0  0  0  0  0
    4.5300   -4.7777    0.0000 C   0  0  0  0  0  0  0  0  0  0  0  0
    5.3183   -5.0209    0.0000 C   0  0  0  0  0  0  0  0  0  0  0  0
    5.5019   -5.8252    0.0000 C   0  0  2  0  0  0  0  0  0  0  0  0
    6.2902   -6.0684    0.0000 C   0  0  1  0  0  0  0  0  0  0  0  0
    6.8046   -5.4234    0.0000 C   0  0  1  0  0  0  0  0  0  0  0  0
    7.6296   -5.4234    0.0000 C   0  0  0  0  0  0  0  0  0  0  0  0
    8.1440   -6.0684    0.0000 C   0  0  2  0  0  0  0  0  0  0  0  0
    8.9324   -5.8252    0.0000 C   0  0  1  0  0  0  0  0  0  0  0  0
    9.1159   -5.0209    0.0000 C   0  0  0  0  0  0  0  0  0  0  0  0
    9.9043   -4.7777    0.0000 C   0  0  0  0  0  0  0  0  0  0  0  0
   10.5090   -5.3389    0.0000 C   0  0  2  0  0  0  0  0  0  0  0  0
   10.3255   -6.1432    0.0000 C   0  0  2  0  0  0  0  0  0  0  0  0
    9.5371   -6.3864    0.0000 C   0  0  2  0  0  0  0  0  0  0  0  0
    9.3535   -7.1907    0.0000 C   0  0  0  0  0  0  0  0  0  0  0  0
    8.5652   -7.4338    0.0000 C   0  0  0  0  0  0  0  0  0  0  0  0
    4.4759   -7.7518    0.0000 O   0  0  0  0  0  0  0  0  0  0  0  0
   10.5686   -6.9315    0.0000 C   0  0  0  0  0  0  0  0  0  0  0  0
    8.9324   -6.6502    0.0000 C   0  0  0  0  0  0  0  0  0  0  0  0
    5.5019   -6.6502    0.0000 C   0  0  0  0  0  0  0  0  0  0  0  0
    3.8656   -6.9315    0.0000 C   0  0  0  0  0  0  0  0  0  0  0  0
    3.3045   -6.3268    0.0000 C   0  0  0  0  0  0  0  0  0  0  0  0
    7.8375   -7.6885    0.0000 C   0  0  0  0  0  0  0  0  0  0  0  0
   11.1298   -6.3268    0.0000 C   0  0  0  0  0  0  0  0  0  0  0  0
   11.7131   -5.7434    0.0000 O   0  0  0  0  0  0  0  0  0  0  0  0
   11.2974   -5.0957    0.0000 O   0  0  0  0  0  0  0  0  0  0  0  0
    6.3921   -4.7089    0.0000 O   0  0  0  0  0  0  0  0  0  0  0  0
    3.1369   -5.0957    0.0000 O   0  0  0  0  0  0  0  0  0  0  0  0
    4.2924   -6.9475    0.0000 H   0  0  0  0  0  0  0  0  0  0  0  0
    6.2902   -5.2434    0.0000 H   0  0  0  0  0  0  0  0  0  0  0  0
    8.1440   -5.2434    0.0000 H   0  0  0  0  0  0  0  0  0  0  0  0
   10.1419   -6.9475    0.0000 H   0  0  0  0  0  0  0  0  0  0  0  0
  1  2  1  0  0  0  0
  2  3  1  0  0  0  0
  3  4  2  0  0  0  0
  4  5  1  0  0  0  0
  5  6  1  0  0  0  0
  6  7  1  0  0  0  0
  7  8  1  0  0  0  0
  8  9  1  0  0  0  0
  9 10  1  0  0  0  0
 10 11  1  0  0  0  0
 11 12  1  0  0  0  0
 12 13  1  0  0  0  0
 13 14  1  0  0  0  0
 14 15  1  0  0  0  0
 15 16  1  0  0  0  0
 16 17  1  0  0  0  0
 17 18  1  0  0  0  0
 18 19  1  0  0  0  0
 19 20  1  0  0  0  0
 20 21  1  0  0  0  0
 21 22  1  0  0  0  0
 22 23  1  0  0  0  0
  1 23  1  0  0  0  0
  1 15  1  0  0  0  0
 16 21  1  0  0  0  0
  3 12  1  0  0  0  0
  6 11  1  0  0  0  0
  5 24  2  0  0  0  0
 20 25  1  1  0  0  0
 16 26  1  6  0  0  0
 11 27  1  1  0  0  0
  7 28  1  0  0  0  0
  7 29  1  0  0  0  0
  1 30  1  6  0  0  0
 31 32  1  0  0  0  0
 20 31  1  6  0  0  0
 19 33  1  1  0  0  0
 13 34  1  6  0  0  0
  8 35  1  6  0  0  0
  6 36  1  6  0  0  0
 12 37  1  6  0  0  0
 15 38  1  1  0  0  0
 21 39  1  1  0  0  0
M  END
>  <cdx:groupId>
807

>  <cdx:fragmentId>
689

$$$$
