301581.cdx
  Mrv1902 05222410212D          

 22 24  0  0  0  0            999 V2000
    5.4311   -6.9998    0.0000 C   0  0  0  0  0  0  0  0  0  0  0  0
    4.7166   -6.5873    0.0000 C   0  0  0  0  0  0  0  0  0  0  0  0
    4.7166   -5.7623    0.0000 C   0  0  1  0  0  0  0  0  0  0  0  0
    5.4311   -5.3498    0.0000 C   0  0  0  0  0  0  0  0  0  0  0  0
    6.1455   -5.7623    0.0000 N   0  0  0  0  0  0  0  0  0  0  0  0
    6.8600   -5.3498    0.0000 C   0  0  0  0  0  0  0  0  0  0  0  0
    7.5745   -5.7623    0.0000 C   0  0  1  0  0  0  0  0  0  0  0  0
    7.5745   -6.5873    0.0000 C   0  0  0  0  0  0  0  0  0  0  0  0
    6.8600   -6.9998    0.0000 C   0  0  1  0  0  0  0  0  0  0  0  0
    6.1455   -6.5873    0.0000 C   0  0  1  0  0  0  0  0  0  0  0  0
    4.0021   -5.3498    0.0000 O   0  0  0  0  0  0  0  0  0  0  0  0
    8.2890   -5.3498    0.0000 C   0  0  0  0  0  0  0  0  0  0  0  0
    8.2890   -4.5248    0.0000 C   0  0  0  0  0  0  0  0  0  0  0  0
    9.0034   -4.1123    0.0000 C   0  0  0  0  0  0  0  0  0  0  0  0
    9.7179   -4.5248    0.0000 C   0  0  0  0  0  0  0  0  0  0  0  0
    9.7179   -5.3498    0.0000 C   0  0  0  0  0  0  0  0  0  0  0  0
    9.0034   -5.7623    0.0000 N   0  0  0  0  0  0  0  0  0  0  0  0
   10.4324   -5.7623    0.0000 O   0  0  0  0  0  0  0  0  0  0  0  0
   11.1468   -5.3498    0.0000 C   0  0  0  0  0  0  0  0  0  0  0  0
    6.8600   -7.8248    0.0000 C   0  0  0  0  0  0  0  0  0  0  0  0
    7.5745   -8.2373    0.0000 O   0  0  0  0  0  0  0  0  0  0  0  0
    6.1455   -7.4123    0.0000 H   0  0  0  0  0  0  0  0  0  0  0  0
  1  2  1  0  0  0  0
  2  3  1  0  0  0  0
  3  4  1  0  0  0  0
  4  5  1  0  0  0  0
  5  6  1  0  0  0  0
  6  7  1  0  0  0  0
  7  8  1  0  0  0  0
  8  9  1  0  0  0  0
  9 10  1  0  0  0  0
  5 10  1  0  0  0  0
  1 10  1  0  0  0  0
  3 11  1  6  0  0  0
 12 13  1  0  0  0  0
 13 14  2  0  0  0  0
 14 15  1  0  0  0  0
 15 16  2  0  0  0  0
 16 17  1  0  0  0  0
 12 17  2  0  0  0  0
 18 19  1  0  0  0  0
 16 18  1  0  0  0  0
  7 12  1  6  0  0  0
 20 21  1  0  0  0  0
  9 20  1  6  0  0  0
 10 22  1  6  0  0  0
M  END
>  <cdx:groupId>
2381

>  <cdx:fragmentId>
2316

$$$$
