301523.cdx
  Mrv1902 05222410182D          

 34 36  0  0  0  0            999 V2000
    5.7119   -9.0864    0.0000 O   0  0  0  0  0  0  0  0  0  0  0  0
    6.4220   -9.5063    0.0000 C   0  0  1  0  0  0  0  0  0  0  0  0
    6.4134  -10.3313    0.0000 C   0  0  1  0  0  0  0  0  0  0  0  0
    5.6946  -10.7363    0.0000 C   0  0  2  0  0  0  0  0  0  0  0  0
    4.9845  -10.3163    0.0000 C   0  0  1  0  0  0  0  0  0  0  0  0
    4.9932   -9.4913    0.0000 C   0  0  1  0  0  0  0  0  0  0  0  0
    7.1235  -10.7513    0.0000 O   0  0  0  0  0  0  0  0  0  0  0  0
    5.6859  -11.5612    0.0000 O   0  0  0  0  0  0  0  0  0  0  0  0
    4.2657  -10.7212    0.0000 O   0  0  0  0  0  0  0  0  0  0  0  0
    4.2831   -9.0713    0.0000 C   0  0  0  0  0  0  0  0  0  0  0  0
    3.5686   -9.4838    0.0000 O   0  0  0  0  0  0  0  0  0  0  0  0
   11.0479   -5.4911    0.0000 O   0  0  0  0  0  0  0  0  0  0  0  0
    8.7621   -9.0239    0.0000 O   0  0  0  0  0  0  0  0  0  0  0  0
   10.0041   -7.7282    0.0000 O   0  0  0  0  0  0  0  0  0  0  0  0
    7.9931   -5.7078    0.0000 O   0  0  0  0  0  0  0  0  0  0  0  0
    8.7360   -6.0667    0.0000 C   0  0  0  0  0  0  0  0  0  0  0  0
    8.7966   -6.8894    0.0000 C   0  0  2  0  0  0  0  0  0  0  0  0
   11.0264   -3.8412    0.0000 O   0  0  0  0  0  0  0  0  0  0  0  0
    9.5869   -3.0349    0.0000 O   0  0  0  0  0  0  0  0  0  0  0  0
    8.1581   -3.0535    0.0000 O   0  0  0  0  0  0  0  0  0  0  0  0
    8.1688   -3.8784    0.0000 C   0  0  0  0  0  0  0  0  0  0  0  0
    8.8886   -4.2816    0.0000 C   0  0  2  0  0  0  0  0  0  0  0  0
    9.5976   -3.8598    0.0000 C   0  0  2  0  0  0  0  0  0  0  0  0
   10.3174   -4.2630    0.0000 C   0  0  1  0  0  0  0  0  0  0  0  0
   10.3281   -5.0879    0.0000 C   0  0  2  0  0  0  0  0  0  0  0  0
    9.6191   -5.5097    0.0000 C   0  0  2  0  0  0  0  0  0  0  0  0
    8.8993   -5.1065    0.0000 O   0  0  0  0  0  0  0  0  0  0  0  0
    9.1867   -7.6164    0.0000 C   0  0  2  0  0  0  0  0  0  0  0  0
    8.6158   -8.2120    0.0000 C   0  0  1  0  0  0  0  0  0  0  0  0
    7.8729   -7.8532    0.0000 C   0  0  2  0  0  0  0  0  0  0  0  0
    7.9847   -7.0358    0.0000 O   0  0  0  0  0  0  0  0  0  0  0  0
    7.1460   -8.2432    0.0000 C   0  0  0  0  0  0  0  0  0  0  0  0
    7.1408   -9.1014    0.0000 O   0  0  0  0  0  0  0  0  0  0  0  0
    9.6298   -6.3346    0.0000 O   0  0  0  0  0  0  0  0  0  0  0  0
 30 32  1  1  0  0  0
 29 13  1  6  0  0  0
 28 14  1  1  0  0  0
 17 16  1  0  0  0  0
 16 15  1  0  0  0  0
 31 17  1  0  0  0  0
 28 17  1  0  0  0  0
 25 12  1  1  0  0  0
 24 18  1  6  0  0  0
 23 19  1  1  0  0  0
 22 21  1  6  0  0  0
 21 20  1  0  0  0  0
 27 22  1  0  0  0  0
 23 22  1  0  0  0  0
 24 23  1  0  0  0  0
 25 24  1  0  0  0  0
 26 25  1  0  0  0  0
 27 26  1  0  0  0  0
 29 28  1  0  0  0  0
 30 29  1  0  0  0  0
 31 30  1  0  0  0  0
  1  2  1  0  0  0  0
  2  3  1  0  0  0  0
  3  4  1  0  0  0  0
  4  5  1  0  0  0  0
  5  6  1  0  0  0  0
  1  6  1  0  0  0  0
  3  7  1  6  0  0  0
  4  8  1  1  0  0  0
  5  9  1  6  0  0  0
 10 11  1  0  0  0  0
  6 10  1  1  0  0  0
  2 33  1  6  0  0  0
 32 33  1  0  0  0  0
 26 34  1  1  0  0  0
 17 34  1  1  0  0  0
M  END
>  <cdx:groupId>
1189

>  <cdx:fragmentId>
1192

$$$$
