301557.cdx
  Mrv1902 05222410202D          

 16 17  0  0  0  0            999 V2000
    5.4240   -7.2314    0.0000 C   0  0  0  0  0  0  0  0  0  0  0  0
    6.1385   -7.6439    0.0000 C   0  0  0  0  0  0  0  0  0  0  0  0
    6.1385   -8.4689    0.0000 C   0  0  0  0  0  0  0  0  0  0  0  0
    5.4240   -8.0564    0.0000 C   0  0  0  0  0  0  0  0  0  0  0  0
    4.7096   -8.4689    0.0000 C   0  0  0  0  0  0  0  0  0  0  0  0
    4.7096   -9.2939    0.0000 C   0  0  0  0  0  0  0  0  0  0  0  0
    5.4240   -9.7064    0.0000 C   0  0  0  0  0  0  0  0  0  0  0  0
    6.1385   -9.2939    0.0000 C   0  0  0  0  0  0  0  0  0  0  0  0
    6.8530   -9.7064    0.0000 C   0  0  0  0  0  0  0  0  0  0  0  0
    7.5674   -9.2939    0.0000 C   0  0  0  0  0  0  0  0  0  0  0  0
    7.5674   -8.4689    0.0000 C   0  0  0  0  0  0  0  0  0  0  0  0
    6.8530   -8.0564    0.0000 C   0  0  0  0  0  0  0  0  0  0  0  0
    9.7109   -8.0564    0.0000 O   0  0  0  0  0  0  0  0  0  0  0  0
    8.2819   -7.2314    0.0000 C   0  0  0  0  0  0  0  0  0  0  0  0
    8.2819   -8.0564    0.0000 C   0  0  0  0  0  0  0  0  0  0  0  0
    8.9964   -8.4689    0.0000 C   0  0  0  0  0  0  0  0  0  0  0  0
 15 11  2  0  0  0  0
  4  1  1  0  0  0  0
  3  2  1  0  0  0  0
  8  3  1  0  0  0  0
 12  3  1  0  0  0  0
  4  3  1  0  0  0  0
  5  4  1  0  0  0  0
  6  5  1  0  0  0  0
  7  6  1  0  0  0  0
  8  7  2  0  0  0  0
  9  8  1  0  0  0  0
 10  9  1  0  0  0  0
 11 10  1  0  0  0  0
 12 11  1  0  0  0  0
 16 13  1  0  0  0  0
 15 14  1  0  0  0  0
 16 15  1  0  0  0  0
M  END
>  <cdx:fragmentId>
76

$$$$
