301530.cdx
  Mrv1902 05222410202D          

 39 42  0  0  0  0            999 V2000
   10.6467   -7.1044    0.0000 C   0  0  0  0  0  0  0  0  0  0  0  0
   11.3612   -7.5169    0.0000 C   0  0  0  0  0  0  0  0  0  0  0  0
   11.3612   -8.3419    0.0000 C   0  0  0  0  0  0  0  0  0  0  0  0
   12.0757   -8.7544    0.0000 C   0  0  0  0  0  0  0  0  0  0  0  0
    9.9322   -7.5169    0.0000 O   0  0  0  0  0  0  0  0  0  0  0  0
   12.0757   -7.1044    0.0000 C   0  0  0  0  0  0  0  0  0  0  0  0
   10.6467   -6.2794    0.0000 C   0  0  0  0  0  0  0  0  0  0  0  0
    9.9322   -5.8669    0.0000 C   0  0  0  0  0  0  0  0  0  0  0  0
    9.9322   -5.0419    0.0000 C   0  0  0  0  0  0  0  0  0  0  0  0
   10.6467   -4.6294    0.0000 C   0  0  0  0  0  0  0  0  0  0  0  0
   11.3612   -5.0419    0.0000 C   0  0  0  0  0  0  0  0  0  0  0  0
   11.3612   -5.8669    0.0000 C   0  0  0  0  0  0  0  0  0  0  0  0
   12.0757   -4.6294    0.0000 C   0  0  0  0  0  0  0  0  0  0  0  0
   12.0757   -6.2794    0.0000 O   0  0  0  0  0  0  0  0  0  0  0  0
   12.7901   -5.8669    0.0000 C   0  0  0  0  0  0  0  0  0  0  0  0
   10.6467   -3.8044    0.0000 O   0  0  0  0  0  0  0  0  0  0  0  0
    9.2178   -6.2794    0.0000 O   0  0  0  0  0  0  0  0  0  0  0  0
    9.0034   -4.5056    0.0000 C   0  0  0  0  0  0  0  0  0  0  0  0
    5.2167   -5.8669    0.0000 C   0  0  2  0  0  0  0  0  0  0  0  0
    5.2167   -5.0419    0.0000 C   0  0  2  0  0  0  0  0  0  0  0  0
    5.9312   -4.6294    0.0000 C   0  0  0  0  0  0  0  0  0  0  0  0
    6.6457   -5.0419    0.0000 C   0  0  0  0  0  0  0  0  0  0  0  0
    7.3601   -4.6294    0.0000 C   0  0  0  0  0  0  0  0  0  0  0  0
    8.0746   -5.0419    0.0000 C   0  0  0  0  0  0  0  0  0  0  0  0
    8.0746   -5.8669    0.0000 C   0  0  0  0  0  0  0  0  0  0  0  0
    7.3601   -6.2794    0.0000 C   0  0  0  0  0  0  0  0  0  0  0  0
    6.6457   -5.8669    0.0000 C   0  0  0  0  0  0  0  0  0  0  0  0
    5.9312   -6.2794    0.0000 O   0  0  0  0  0  0  0  0  0  0  0  0
    8.7891   -6.2794    0.0000 O   0  0  0  0  0  0  0  0  0  0  0  0
    7.3601   -3.8044    0.0000 O   0  0  0  0  0  0  0  0  0  0  0  0
    4.5023   -4.6294    0.0000 O   0  0  0  0  0  0  0  0  0  0  0  0
    4.5023   -6.2794    0.0000 C   0  0  0  0  0  0  0  0  0  0  0  0
    3.7878   -5.8669    0.0000 C   0  0  0  0  0  0  0  0  0  0  0  0
    3.0733   -6.2794    0.0000 C   0  0  0  0  0  0  0  0  0  0  0  0
    3.0733   -7.1044    0.0000 C   0  0  0  0  0  0  0  0  0  0  0  0
    3.7878   -7.5169    0.0000 C   0  0  0  0  0  0  0  0  0  0  0  0
    4.5023   -7.1044    0.0000 C   0  0  0  0  0  0  0  0  0  0  0  0
    2.3588   -7.5169    0.0000 O   0  0  0  0  0  0  0  0  0  0  0  0
    2.3588   -5.8669    0.0000 O   0  0  0  0  0  0  0  0  0  0  0  0
  1  2  1  0  0  0  0
  2  3  1  0  0  0  0
  3  4  1  0  0  0  0
  1  5  2  0  0  0  0
  2  6  1  0  0  0  0
  7  8  1  0  0  0  0
  8  9  2  0  0  0  0
  9 10  1  0  0  0  0
 10 11  2  0  0  0  0
 11 12  1  0  0  0  0
  7 12  2  0  0  0  0
 11 13  1  0  0  0  0
 14 15  1  0  0  0  0
 12 14  1  0  0  0  0
 10 16  1  0  0  0  0
  8 17  1  0  0  0  0
 19 20  1  0  0  0  0
 20 21  1  0  0  0  0
 21 22  1  0  0  0  0
 22 23  1  0  0  0  0
 23 24  2  0  0  0  0
 24 25  1  0  0  0  0
 25 26  2  0  0  0  0
 26 27  1  0  0  0  0
 22 27  2  0  0  0  0
 27 28  1  0  0  0  0
 19 28  1  0  0  0  0
 25 29  1  0  0  0  0
 23 30  1  0  0  0  0
 20 31  1  1  0  0  0
 32 33  1  0  0  0  0
 33 34  2  0  0  0  0
 34 35  1  0  0  0  0
 35 36  2  0  0  0  0
 36 37  1  0  0  0  0
 32 37  2  0  0  0  0
 35 38  1  0  0  0  0
 34 39  1  0  0  0  0
 19 32  1  6  0  0  0
 18 24  1  0  0  0  0
  9 18  1  0  0  0  0
  1  7  1  0  0  0  0
M  END
>  <cdx:groupId>
160

>  <cdx:fragmentId>
79

$$$$
