301576.cdx
  Mrv1902 05222410232D          

 28 30  0  0  0  0            999 V2000
    8.3469  -11.1496    0.0000 C   0  0  0  0  0  0  0  0  0  0  0  0
    8.3469  -11.9746    0.0000 C   0  0  0  0  0  0  0  0  0  0  0  0
    9.0614  -12.3871    0.0000 C   0  0  0  0  0  0  0  0  0  0  0  0
    9.0614  -13.2121    0.0000 C   0  0  0  0  0  0  0  0  0  0  0  0
    9.0614  -10.7371    0.0000 O   0  0  0  0  0  0  0  0  0  0  0  0
    6.1334   -9.7545    0.0000 C   0  0  2  0  0  0  0  0  0  0  0  0
    6.3049  -10.5615    0.0000 O   0  0  0  0  0  0  0  0  0  0  0  0
    5.5203  -10.3065    0.0000 C   0  0  0  0  0  0  0  0  0  0  0  0
    6.9180  -10.3246    0.0000 H   0  0  0  0  0  0  0  0  0  0  0  0
    9.0614   -5.7871    0.0000 C   0  0  0  0  0  0  0  0  0  0  0  0
    8.3469   -6.1996    0.0000 C   0  0  0  0  0  0  0  0  0  0  0  0
    8.3469   -7.0246    0.0000 O   0  0  0  0  0  0  0  0  0  0  0  0
    7.6325   -7.4371    0.0000 C   0  0  0  0  0  0  0  0  0  0  0  0
    9.7759  -11.9746    0.0000 C   0  0  0  0  0  0  0  0  0  0  0  0
    7.6325  -10.7371    0.0000 O   0  0  0  0  0  0  0  0  0  0  0  0
    5.6484   -9.0871    0.0000 C   0  0  2  0  0  0  0  0  0  0  0  0
    6.1334   -8.4196    0.0000 C   0  0  0  0  0  0  0  0  0  0  0  0
    8.3469   -9.4996    0.0000 O   0  0  0  0  0  0  0  0  0  0  0  0
    8.3469   -8.6746    0.0000 C   0  0  0  0  0  0  0  0  0  0  0  0
    7.6325   -8.2621    0.0000 C   0  0  0  0  0  0  0  0  0  0  0  0
    6.9180   -8.6746    0.0000 C   0  0  2  0  0  0  0  0  0  0  0  0
    6.9180   -9.4996    0.0000 C   0  0  2  0  0  0  0  0  0  0  0  0
    7.6325   -9.9121    0.0000 C   0  0  2  0  0  0  0  0  0  0  0  0
    4.8234   -9.0871    0.0000 O   0  0  0  0  0  0  0  0  0  0  0  0
    6.9180   -7.8496    0.0000 O   0  0  0  0  0  0  0  0  0  0  0  0
    4.1087   -8.6750    0.0000 C   0  0  0  0  0  0  0  0  0  0  0  0
    4.1082   -7.8500    0.0000 O   0  0  0  0  0  0  0  0  0  0  0  0
    3.3945   -9.0880    0.0000 C   0  0  0  0  0  0  0  0  0  0  0  0
 22  9  1  1  0  0  0
 16 24  1  1  0  0  0
 20 13  1  0  0  0  0
 13 12  1  0  0  0  0
 12 11  1  0  0  0  0
 11 10  1  0  0  0  0
 23 15  1  1  0  0  0
 15  1  1  0  0  0  0
 21 17  1  0  0  0  0
 22  6  1  0  0  0  0
 16  6  1  0  0  0  0
 17 16  1  0  0  0  0
 23 18  1  0  0  0  0
 19 18  1  0  0  0  0
 20 19  2  0  0  0  0
 21 20  1  0  0  0  0
 22 21  1  0  0  0  0
 23 22  1  0  0  0  0
  1  2  1  0  0  0  0
  2  3  1  0  0  0  0
  3  4  1  0  0  0  0
  1  5  2  0  0  0  0
  3 14  1  0  0  0  0
  7  8  1  0  0  0  0
  6  7  1  6  0  0  0
  6  8  1  0  0  0  0
 21 25  1  1  0  0  0
 24 26  1  0  0  0  0
 26 27  2  0  0  0  0
 26 28  1  0  0  0  0
M  END
>  <cdx:fragmentId>
11516

$$$$
