301563.cdx
  Mrv1902 05222410242D          

 27 30  0  0  0  0            999 V2000
    6.0788   -9.0868    0.0000 C   0  0  2  0  0  0  0  0  0  0  0  0
    5.6018   -9.7599    0.0000 C   0  0  0  0  0  0  0  0  0  0  0  0
    6.0945  -10.4216    0.0000 C   0  0  0  0  0  0  0  0  0  0  0  0
    6.8761  -10.1575    0.0000 N   0  3  0  0  0  0  0  0  0  0  0  0
    6.8664   -9.3326    0.0000 C   0  0  2  0  0  0  0  0  0  0  0  0
    7.6636  -10.4032    0.0000 C   0  0  0  0  0  0  0  0  0  0  0  0
    8.1407   -9.7301    0.0000 C   0  0  0  0  0  0  0  0  0  0  0  0
    7.6480   -9.0684    0.0000 C   0  0  0  0  0  0  0  0  0  0  0  0
    6.1476   -8.2618    0.0000 O   0  0  0  0  0  0  0  0  0  0  0  0
    6.8620   -7.0243    0.0000 C   0  0  2  0  0  0  0  0  0  0  0  0
    6.1476   -6.6118    0.0000 C   0  0  0  0  0  0  0  0  0  0  0  0
    5.4331   -7.0243    0.0000 C   0  0  1  0  0  0  0  0  0  0  0  0
    5.4331   -7.8493    0.0000 C   0  0  0  0  0  0  0  0  0  0  0  0
    7.5765   -8.2618    0.0000 C   0  0  0  0  0  0  0  0  0  0  0  0
    8.2910   -7.8493    0.0000 O   0  0  0  0  0  0  0  0  0  0  0  0
    8.2910   -7.0243    0.0000 C   0  0  0  0  0  0  0  0  0  0  0  0
    7.5765   -6.6118    0.0000 C   0  0  2  0  0  0  0  0  0  0  0  0
    4.7186   -6.6118    0.0000 C   0  0  2  0  0  0  0  0  0  0  0  0
    4.0042   -7.0243    0.0000 C   0  0  0  0  0  0  0  0  0  0  0  0
    4.7186   -8.2618    0.0000 O   0  0  0  0  0  0  0  0  0  0  0  0
    9.0055   -6.6118    0.0000 O   0  0  0  0  0  0  0  0  0  0  0  0
    6.8620   -6.1993    0.0000 O   0  0  0  0  0  0  0  0  0  0  0  0
    7.9890   -5.8974    0.0000 C   0  0  0  0  0  0  0  0  0  0  0  0
    6.8567   -8.5076    0.0000 H   0  0  0  0  0  0  0  0  0  0  0  0
    5.4331   -6.1993    0.0000 O   0  0  0  0  0  0  0  0  0  0  0  0
    6.8620   -7.8493    0.0000 C   0  0  0  0  0  0  0  0  0  0  0  0
    6.8857  -10.9824    0.0000 O   0  5  0  0  0  0  0  0  0  0  0  0
  1  2  1  0  0  0  0
  2  3  1  0  0  0  0
  3  4  1  0  0  0  0
  4  5  1  0  0  0  0
  5  1  1  0  0  0  0
  4  6  1  0  0  0  0
  6  7  1  0  0  0  0
  7  8  2  0  0  0  0
  8  5  1  0  0  0  0
  1  9  1  1  0  0  0
 10 11  1  0  0  0  0
 11 12  1  0  0  0  0
 12 13  1  0  0  0  0
 13  9  1  0  0  0  0
 14 15  1  0  0  0  0
 15 16  1  0  0  0  0
 16 17  1  0  0  0  0
 17 10  1  0  0  0  0
  8 14  1  0  0  0  0
 12 18  1  0  0  0  0
 18 19  1  0  0  0  0
 20 13  2  0  0  0  0
 16 21  2  0  0  0  0
 17 22  1  1  0  0  0
 17 23  1  6  0  0  0
  5 24  1  6  0  0  0
 18 25  1  6  0  0  0
 12 25  1  6  0  0  0
 10 26  1  6  0  0  0
  4 27  1  0  0  0  0
M  CHG  2   4   1  27  -1
M  END
>  <cdx:fragmentId>
5

$$$$
