301502.cdx
  Mrv1902 05222410262D          

 13 13  0  0  0  0            999 V2000
    9.2112   -5.8179    0.0000 C   0  0  0  0  0  0  0  0  0  0  0  0
    8.4967   -6.2304    0.0000 C   0  0  0  0  0  0  0  0  0  0  0  0
    7.7822   -5.8179    0.0000 C   0  0  0  0  0  0  0  0  0  0  0  0
    9.2112   -4.9929    0.0000 O   0  0  0  0  0  0  0  0  0  0  0  0
    9.9256   -6.2304    0.0000 O   0  0  0  0  0  0  0  0  0  0  0  0
    7.0678   -6.2304    0.0000 C   0  0  0  0  0  0  0  0  0  0  0  0
    7.0678   -7.0554    0.0000 C   0  0  0  0  0  0  0  0  0  0  0  0
    6.3533   -7.4679    0.0000 C   0  0  0  0  0  0  0  0  0  0  0  0
    5.6388   -7.0554    0.0000 C   0  0  0  0  0  0  0  0  0  0  0  0
    5.6388   -6.2304    0.0000 C   0  0  0  0  0  0  0  0  0  0  0  0
    6.3533   -5.8179    0.0000 C   0  0  0  0  0  0  0  0  0  0  0  0
    4.9244   -5.8179    0.0000 O   0  0  0  0  0  0  0  0  0  0  0  0
    4.9244   -7.4679    0.0000 O   0  0  0  0  0  0  0  0  0  0  0  0
  1  2  1  0  0  0  0
  2  3  1  0  0  0  0
  1  4  2  0  0  0  0
  1  5  1  0  0  0  0
  6  7  1  0  0  0  0
  7  8  2  0  0  0  0
  8  9  1  0  0  0  0
  9 10  2  0  0  0  0
 10 11  1  0  0  0  0
  6 11  2  0  0  0  0
 10 12  1  0  0  0  0
  3  6  1  0  0  0  0
  9 13  1  0  0  0  0
M  END
>  <cdx:groupId>
41

>  <cdx:fragmentId>
15

$$$$
