301529.cdx
  Mrv1902 05222410262D          

 12 12  0  0  0  0            999 V2000
    6.7105   -6.2774    0.0000 C   0  0  0  0  0  0  0  0  0  0  0  0
    7.4250   -5.8649    0.0000 C   0  0  0  0  0  0  0  0  0  0  0  0
    8.1395   -6.2774    0.0000 C   0  0  0  0  0  0  0  0  0  0  0  0
    8.1395   -7.1024    0.0000 C   0  0  0  0  0  0  0  0  0  0  0  0
    7.4250   -7.5149    0.0000 C   0  0  0  0  0  0  0  0  0  0  0  0
    6.7105   -7.1024    0.0000 C   0  0  0  0  0  0  0  0  0  0  0  0
    5.9961   -5.8649    0.0000 C   0  0  0  0  0  0  0  0  0  0  0  0
    5.9961   -5.0399    0.0000 O   0  0  0  0  0  0  0  0  0  0  0  0
    5.2816   -6.2774    0.0000 O   0  0  0  0  0  0  0  0  0  0  0  0
    8.8539   -5.8649    0.0000 C   0  0  0  0  0  0  0  0  0  0  0  0
    8.8539   -5.0399    0.0000 O   0  0  0  0  0  0  0  0  0  0  0  0
    9.5684   -6.2774    0.0000 O   0  0  0  0  0  0  0  0  0  0  0  0
  1  2  1  0  0  0  0
  2  3  2  0  0  0  0
  3  4  1  0  0  0  0
  4  5  2  0  0  0  0
  5  6  1  0  0  0  0
  1  6  2  0  0  0  0
  7  8  2  0  0  0  0
  7  9  1  0  0  0  0
  1  7  1  0  0  0  0
 10 11  2  0  0  0  0
 10 12  1  0  0  0  0
  3 10  1  0  0  0  0
M  END
>  <cdx:groupId>
38

>  <cdx:fragmentId>
5

$$$$
