301564.cdx
  Mrv1902 05222410242D          

 38 42  0  0  0  0            999 V2000
    7.9604   -6.9532    0.0000 C   0  0  1  0  0  0  0  0  0  0  0  0
    7.2171   -7.3112    0.0000 C   0  0  0  0  0  0  0  0  0  0  0  0
    6.4738   -6.9532    0.0000 C   0  0  0  0  0  0  0  0  0  0  0  0
    5.8691   -7.5144    0.0000 C   0  0  0  0  0  0  0  0  0  0  0  0
    5.0807   -7.2712    0.0000 C   0  0  0  0  0  0  0  0  0  0  0  0
    4.8971   -6.4669    0.0000 C   0  0  1  0  0  0  0  0  0  0  0  0
    4.1088   -6.2237    0.0000 C   0  0  0  0  0  0  0  0  0  0  0  0
    3.9252   -5.4194    0.0000 C   0  0  1  0  0  0  0  0  0  0  0  0
    4.5300   -4.8582    0.0000 C   0  0  0  0  0  0  0  0  0  0  0  0
    5.3183   -5.1014    0.0000 C   0  0  0  0  0  0  0  0  0  0  0  0
    5.5019   -5.9057    0.0000 C   0  0  2  0  0  0  0  0  0  0  0  0
    6.2902   -6.1489    0.0000 C   0  0  1  0  0  0  0  0  0  0  0  0
    6.8046   -5.5039    0.0000 C   0  0  1  0  0  0  0  0  0  0  0  0
    7.6296   -5.5039    0.0000 C   0  0  0  0  0  0  0  0  0  0  0  0
    8.1440   -6.1489    0.0000 C   0  0  2  0  0  0  0  0  0  0  0  0
    8.9324   -5.9057    0.0000 C   0  0  1  0  0  0  0  0  0  0  0  0
    9.1159   -5.1014    0.0000 C   0  0  0  0  0  0  0  0  0  0  0  0
    9.9043   -4.8582    0.0000 C   0  0  0  0  0  0  0  0  0  0  0  0
   10.5090   -5.4194    0.0000 C   0  0  2  0  0  0  0  0  0  0  0  0
   10.3255   -6.2237    0.0000 C   0  0  2  0  0  0  0  0  0  0  0  0
    9.5371   -6.4669    0.0000 C   0  0  2  0  0  0  0  0  0  0  0  0
    9.3535   -7.2712    0.0000 C   0  0  0  0  0  0  0  0  0  0  0  0
    8.5652   -7.5144    0.0000 C   0  0  0  0  0  0  0  0  0  0  0  0
    3.1369   -5.1762    0.0000 O   0  0  0  0  0  0  0  0  0  0  0  0
    6.3921   -4.7894    0.0000 O   0  0  0  0  0  0  0  0  0  0  0  0
   11.2974   -5.1762    0.0000 O   0  0  0  0  0  0  0  0  0  0  0  0
   10.5686   -7.0120    0.0000 C   0  0  0  0  0  0  0  0  0  0  0  0
    8.9324   -6.7307    0.0000 C   0  0  0  0  0  0  0  0  0  0  0  0
    5.5019   -6.7307    0.0000 C   0  0  0  0  0  0  0  0  0  0  0  0
    3.8656   -7.0120    0.0000 C   0  0  0  0  0  0  0  0  0  0  0  0
    3.3045   -6.4073    0.0000 C   0  0  0  0  0  0  0  0  0  0  0  0
    7.8375   -7.7690    0.0000 C   0  0  0  0  0  0  0  0  0  0  0  0
   11.1298   -6.4073    0.0000 C   0  0  0  0  0  0  0  0  0  0  0  0
   11.7131   -5.8239    0.0000 O   0  0  0  0  0  0  0  0  0  0  0  0
    4.2924   -7.0280    0.0000 H   0  0  0  0  0  0  0  0  0  0  0  0
    6.2902   -5.3239    0.0000 H   0  0  0  0  0  0  0  0  0  0  0  0
    8.1440   -5.3239    0.0000 H   0  0  0  0  0  0  0  0  0  0  0  0
   10.1419   -7.0280    0.0000 H   0  0  0  0  0  0  0  0  0  0  0  0
  1  2  1  0  0  0  0
  2  3  1  0  0  0  0
  3  4  2  0  0  0  0
  4  5  1  0  0  0  0
  5  6  1  0  0  0  0
  6  7  1  0  0  0  0
  7  8  1  0  0  0  0
  8  9  1  0  0  0  0
  9 10  1  0  0  0  0
 10 11  1  0  0  0  0
 11 12  1  0  0  0  0
 12 13  1  0  0  0  0
 13 14  1  0  0  0  0
 14 15  1  0  0  0  0
 15 16  1  0  0  0  0
 16 17  1  0  0  0  0
 17 18  1  0  0  0  0
 18 19  1  0  0  0  0
 19 20  1  0  0  0  0
 20 21  1  0  0  0  0
 21 22  1  0  0  0  0
 22 23  1  0  0  0  0
  1 23  1  0  0  0  0
  1 15  1  0  0  0  0
 16 21  1  0  0  0  0
  3 12  1  0  0  0  0
  6 11  1  0  0  0  0
  8 24  1  6  0  0  0
 13 25  1  6  0  0  0
 19 26  1  1  0  0  0
 20 27  1  1  0  0  0
 16 28  1  6  0  0  0
 11 29  1  1  0  0  0
  7 30  1  0  0  0  0
  7 31  1  0  0  0  0
  1 32  1  6  0  0  0
 33 34  1  0  0  0  0
 20 33  1  6  0  0  0
  6 35  1  6  0  0  0
 12 36  1  6  0  0  0
 15 37  1  1  0  0  0
 21 38  1  1  0  0  0
M  END
>  <cdx:groupId>
679

>  <cdx:fragmentId>
564

$$$$
