301566.cdx
  Mrv1902 05222410262D          

 14 15  0  0  0  0            999 V2000
    6.3782  -10.7833    0.0000 C   0  0  0  0  0  0  0  0  0  0  0  0
    6.8558  -11.4559    0.0000 C   0  0  0  0  0  0  0  0  0  0  0  0
    7.6432  -11.2095    0.0000 C   0  0  1  0  0  0  0  0  0  0  0  0
    7.6521  -10.3845    0.0000 C   0  0  2  0  0  0  0  0  0  0  0  0
    6.8703  -10.1211    0.0000 C   0  0  0  0  0  0  0  0  0  0  0  0
    8.4250  -11.4729    0.0000 O   0  0  0  0  0  0  0  0  0  0  0  0
    8.9171  -10.8107    0.0000 C   0  0  0  0  0  0  0  0  0  0  0  0
    8.4394  -10.1381    0.0000 C   0  0  0  0  0  0  0  0  0  0  0  0
    8.5773   -9.3247    0.0000 C   0  0  0  0  0  0  0  0  0  0  0  0
    7.6521   -9.5595    0.0000 H   0  0  0  0  0  0  0  0  0  0  0  0
    6.5924  -12.2377    0.0000 C   0  0  0  0  0  0  0  0  0  0  0  0
    5.7837  -12.4005    0.0000 O   0  0  0  0  0  0  0  0  0  0  0  0
    7.6343  -12.0344    0.0000 C   0  0  0  0  0  0  0  0  0  0  0  0
    8.3442  -12.4546    0.0000 O   0  0  0  0  0  0  0  0  0  0  0  0
  1  2  2  0  0  0  0
  2  3  1  0  0  0  0
  3  4  1  0  0  0  0
  4  5  1  0  0  0  0
  5  1  1  0  0  0  0
  3  6  1  0  0  0  0
  6  7  1  0  0  0  0
  7  8  1  0  0  0  0
  8  4  1  0  0  0  0
  8  9  2  0  0  0  0
  4 10  1  1  0  0  0
  2 11  1  0  0  0  0
 11 12  1  0  0  0  0
  3 13  1  6  0  0  0
 13 14  1  0  0  0  0
M  END
>  <cdx:fragmentId>
1336

$$$$
