30159.cdx
  Mrv1902 05222410252D          

 17 16  0  0  0  0            999 V2000
    2.4725   -7.5614    0.0000 O   0  0  0  0  0  0  0  0  0  0  0  0
    3.1870   -7.9739    0.0000 C   0  0  0  0  0  0  0  0  0  0  0  0
    3.9015   -7.5614    0.0000 C   0  0  0  0  0  0  0  0  0  0  0  0
    4.6159   -7.9739    0.0000 C   0  0  0  0  0  0  0  0  0  0  0  0
    5.3304   -7.5614    0.0000 C   0  0  0  0  0  0  0  0  0  0  0  0
    6.0449   -7.9739    0.0000 C   0  0  0  0  0  0  0  0  0  0  0  0
    6.7594   -7.5614    0.0000 C   0  0  0  0  0  0  0  0  0  0  0  0
    7.4738   -7.9739    0.0000 C   0  0  0  0  0  0  0  0  0  0  0  0
    8.1883   -7.5614    0.0000 C   0  0  0  0  0  0  0  0  0  0  0  0
    8.9028   -7.9739    0.0000 C   0  0  0  0  0  0  0  0  0  0  0  0
    9.6172   -7.5614    0.0000 C   0  0  0  0  0  0  0  0  0  0  0  0
   10.3317   -7.9739    0.0000 C   0  0  0  0  0  0  0  0  0  0  0  0
   11.0462   -7.5614    0.0000 C   0  0  0  0  0  0  0  0  0  0  0  0
   11.7606   -7.9739    0.0000 O   0  0  0  0  0  0  0  0  0  0  0  0
    3.1870   -8.7989    0.0000 O   0  0  0  0  0  0  0  0  0  0  0  0
   11.0462   -6.7364    0.0000 O   0  0  0  0  0  0  0  0  0  0  0  0
    8.9028   -8.7989    0.0000 O   0  0  0  0  0  0  0  0  0  0  0  0
  2  1  1  0  0  0  0
  3  2  1  0  0  0  0
  4  3  1  0  0  0  0
  5  4  1  0  0  0  0
  6  5  1  0  0  0  0
  7  6  1  0  0  0  0
  8  7  1  0  0  0  0
  9  8  1  0  0  0  0
 10  9  1  0  0  0  0
 11 10  1  0  0  0  0
 12 11  2  0  0  0  0
 13 12  1  0  0  0  0
 14 13  1  0  0  0  0
  2 15  2  0  0  0  0
 13 16  2  0  0  0  0
 10 17  1  0  0  0  0
M  END
>  <cdx:fragmentId>
3

$$$$
