301500.cdx
  Mrv1902 05222410262D          

 14 16  0  0  0  0            999 V2000
    9.2112   -6.0156    0.0000 C   0  0  0  0  0  0  0  0  0  0  0  0
    9.2112   -5.1906    0.0000 C   0  0  0  0  0  0  0  0  0  0  0  0
    8.4967   -4.7781    0.0000 C   0  0  0  0  0  0  0  0  0  0  0  0
    7.7822   -5.1906    0.0000 C   0  0  0  0  0  0  0  0  0  0  0  0
    7.7822   -6.0156    0.0000 C   0  0  0  0  0  0  0  0  0  0  0  0
    7.0678   -6.4281    0.0000 C   0  0  0  0  0  0  0  0  0  0  0  0
    6.3533   -6.0156    0.0000 C   0  0  0  0  0  0  0  0  0  0  0  0
    5.6388   -6.4281    0.0000 C   0  0  0  0  0  0  0  0  0  0  0  0
    5.6388   -7.2531    0.0000 C   0  0  0  0  0  0  0  0  0  0  0  0
    6.3533   -7.6656    0.0000 C   0  0  0  0  0  0  0  0  0  0  0  0
    7.0678   -7.2531    0.0000 C   0  0  0  0  0  0  0  0  0  0  0  0
    7.7822   -7.6656    0.0000 C   0  0  0  0  0  0  0  0  0  0  0  0
    8.4967   -7.2531    0.0000 C   0  0  0  0  0  0  0  0  0  0  0  0
    8.4967   -6.4281    0.0000 C   0  0  0  0  0  0  0  0  0  0  0  0
  1  2  1  0  0  0  0
  2  3  1  0  0  0  0
  3  4  2  0  0  0  0
  4  5  1  0  0  0  0
  5  6  1  0  0  0  0
  6  7  1  0  0  0  0
  7  8  2  0  0  0  0
  8  9  1  0  0  0  0
  9 10  2  0  0  0  0
 10 11  1  0  0  0  0
  6 11  2  0  0  0  0
 11 12  1  0  0  0  0
 12 13  2  0  0  0  0
 13 14  1  0  0  0  0
  1 14  1  0  0  0  0
  5 14  2  0  0  0  0
M  END
>  <cdx:groupId>
46

>  <cdx:fragmentId>
5

$$$$
