301577.cdx
  Mrv1902 05222410232D          

 25 28  0  0  0  0            999 V2000
    5.5426   -5.8655    0.0000 O   0  0  0  0  0  0  0  0  0  0  0  0
    5.0577   -6.5329    0.0000 C   0  0  0  0  0  0  0  0  0  0  0  0
    5.5426   -7.2003    0.0000 C   0  0  0  0  0  0  0  0  0  0  0  0
    6.3272   -6.9454    0.0000 C   0  0  0  0  0  0  0  0  0  0  0  0
    7.0417   -7.3579    0.0000 C   0  0  0  0  0  0  0  0  0  0  0  0
    7.7562   -6.9454    0.0000 C   0  0  0  0  0  0  0  0  0  0  0  0
    7.7562   -6.1204    0.0000 C   0  0  1  0  0  0  0  0  0  0  0  0
    7.0417   -5.7079    0.0000 C   0  0  0  0  0  0  0  0  0  0  0  0
    6.3272   -6.1204    0.0000 C   0  0  1  0  0  0  0  0  0  0  0  0
    8.4706   -7.3579    0.0000 C   0  0  0  0  0  0  0  0  0  0  0  0
    9.1851   -6.9454    0.0000 C   0  0  0  0  0  0  0  0  0  0  0  0
    9.1851   -6.1204    0.0000 C   0  0  2  0  0  0  0  0  0  0  0  0
    9.8996   -5.7079    0.0000 C   0  0  0  0  0  0  0  0  0  0  0  0
    9.8996   -4.8829    0.0000 C   0  0  0  0  0  0  0  0  0  0  0  0
    9.1851   -4.4704    0.0000 C   0  0  0  0  0  0  0  0  0  0  0  0
    8.4706   -4.8829    0.0000 C   0  0  0  0  0  0  0  0  0  0  0  0
    8.4706   -5.7079    0.0000 C   0  0  1  0  0  0  0  0  0  0  0  0
    4.2327   -6.5329    0.0000 O   0  0  0  0  0  0  0  0  0  0  0  0
    8.4706   -6.5329    0.0000 C   0  0  0  0  0  0  0  0  0  0  0  0
    5.2877   -7.9850    0.0000 C   0  0  0  0  0  0  0  0  0  0  0  0
   10.7246   -5.7079    0.0000 C   0  0  0  0  0  0  0  0  0  0  0  0
   10.3121   -6.4224    0.0000 C   0  0  0  0  0  0  0  0  0  0  0  0
    9.8996   -6.5329    0.0000 H   0  0  0  0  0  0  0  0  0  0  0  0
    6.2410   -5.2999    0.0000 H   0  0  0  0  0  0  0  0  0  0  0  0
    7.7562   -5.2954    0.0000 H   0  0  0  0  0  0  0  0  0  0  0  0
  1  2  1  0  0  0  0
  2  3  1  0  0  0  0
  3  4  2  0  0  0  0
  4  5  1  0  0  0  0
  5  6  2  0  0  0  0
  6  7  1  0  0  0  0
  7  8  1  0  0  0  0
  8  9  1  0  0  0  0
  4  9  1  0  0  0  0
  1  9  1  0  0  0  0
 10 11  1  0  0  0  0
 11 12  1  0  0  0  0
 12 13  1  0  0  0  0
 13 14  1  0  0  0  0
 14 15  1  0  0  0  0
 15 16  1  0  0  0  0
 16 17  1  0  0  0  0
 12 17  1  0  0  0  0
 10  6  1  0  0  0  0
 17  7  1  0  0  0  0
  2 18  2  0  0  0  0
 17 19  1  1  0  0  0
  3 20  1  0  0  0  0
 13 21  1  0  0  0  0
 13 22  1  0  0  0  0
 12 23  1  6  0  0  0
  9 24  1  1  0  0  0
  7 25  1  6  0  0  0
M  END
>  <cdx:groupId>
2017

>  <cdx:fragmentId>
1942

$$$$
