301584.cdx
  Mrv1902 05222410232D          

 29 32  0  0  0  0            999 V2000
    9.0811   -7.4426    0.0000 O   0  0  0  0  0  0  0  0  0  0  0  0
    8.3667   -7.0301    0.0000 C   0  0  1  0  0  0  0  0  0  0  0  0
    7.6522   -7.4426    0.0000 C   0  0  0  0  0  0  0  0  0  0  0  0
    7.6522   -8.2676    0.0000 C   0  0  1  0  0  0  0  0  0  0  0  0
    6.9377   -8.6801    0.0000 C   0  0  1  0  0  0  0  0  0  0  0  0
    6.9377   -9.5051    0.0000 C   0  0  2  0  0  0  0  0  0  0  0  0
    7.6522   -9.9176    0.0000 C   0  0  0  0  0  0  0  0  0  0  0  0
    8.3667   -9.5051    0.0000 C   0  0  0  0  0  0  0  0  0  0  0  0
    8.3667   -8.6801    0.0000 C   0  0  2  0  0  0  0  0  0  0  0  0
    9.0811   -8.2676    0.0000 C   0  0  0  0  0  0  0  0  0  0  0  0
    6.2232   -9.9176    0.0000 C   0  0  1  0  0  0  0  0  0  0  0  0
    5.5088   -9.5051    0.0000 C   0  0  0  0  0  0  0  0  0  0  0  0
    5.5088   -8.6801    0.0000 C   0  0  1  0  0  0  0  0  0  0  0  0
    6.2232   -8.2676    0.0000 C   0  0  0  0  0  0  0  0  0  0  0  0
    6.2232  -10.7426    0.0000 C   0  0  0  0  0  0  0  0  0  0  0  0
    6.9377  -11.1551    0.0000 O   0  0  0  0  0  0  0  0  0  0  0  0
    5.5088  -11.1551    0.0000 O   0  0  0  0  0  0  0  0  0  0  0  0
    7.6522  -10.7426    0.0000 O   0  0  0  0  0  0  0  0  0  0  0  0
    9.7956   -8.6801    0.0000 O   0  0  0  0  0  0  0  0  0  0  0  0
    7.6522   -9.0926    0.0000 C   0  0  0  0  0  0  0  0  0  0  0  0
    4.7943   -8.2676    0.0000 O   0  0  0  0  0  0  0  0  0  0  0  0
    6.9377  -10.3301    0.0000 O   0  0  0  0  0  0  0  0  0  0  0  0
    8.7792   -4.9356    0.0000 O   0  0  0  0  0  0  0  0  0  0  0  0
    9.0341   -5.7202    0.0000 C   0  0  0  0  0  0  0  0  0  0  0  0
    8.3667   -6.2051    0.0000 C   0  0  0  0  0  0  0  0  0  0  0  0
    7.6992   -5.7202    0.0000 C   0  0  0  0  0  0  0  0  0  0  0  0
    7.9542   -4.9356    0.0000 C   0  0  0  0  0  0  0  0  0  0  0  0
    9.0811   -9.0926    0.0000 H   0  0  0  0  0  0  0  0  0  0  0  0
    6.9377   -7.8551    0.0000 H   0  0  0  0  0  0  0  0  0  0  0  0
  1  2  1  0  0  0  0
  2  3  1  0  0  0  0
  3  4  1  0  0  0  0
  4  5  1  0  0  0  0
  5  6  1  0  0  0  0
  6  7  1  0  0  0  0
  7  8  1  0  0  0  0
  8  9  1  0  0  0  0
  4  9  1  0  0  0  0
  9 10  1  0  0  0  0
  1 10  1  0  0  0  0
 11 12  1  0  0  0  0
 12 13  1  0  0  0  0
 13 14  1  0  0  0  0
 14  5  1  0  0  0  0
 11  6  1  0  0  0  0
 15 16  2  0  0  0  0
 15 17  1  0  0  0  0
 11 15  1  6  0  0  0
  7 18  2  0  0  0  0
 10 19  2  0  0  0  0
  4 20  1  1  0  0  0
 13 21  1  6  0  0  0
  6 22  1  1  0  0  0
 23 24  1  0  0  0  0
 24 25  2  0  0  0  0
 25 26  1  0  0  0  0
 26 27  2  0  0  0  0
 23 27  1  0  0  0  0
  2 25  1  1  0  0  0
  9 28  1  6  0  0  0
  5 29  1  6  0  0  0
M  END
>  <cdx:fragmentId>
5

$$$$
