301567.cdx
  Mrv1902 05222410252D          

 50 51  0  0  0  0            999 V2000
    5.4691   -9.3521    0.0000 O   0  0  0  0  0  0  0  0  0  0  0  0
    4.7594   -8.9314    0.0000 C   0  0  0  0  0  0  0  0  0  0  0  0
    4.0402   -9.3358    0.0000 C   0  0  0  0  0  0  0  0  0  0  0  0
    4.7688   -8.1065    0.0000 O   0  0  0  0  0  0  0  0  0  0  0  0
    8.9902  -11.4187    0.0000 C   0  0  0  0  0  0  0  0  0  0  0  0
    8.9854  -12.2437    0.0000 C   0  0  0  0  0  0  0  0  0  0  0  0
    9.6975  -12.6603    0.0000 C   0  0  0  0  0  0  0  0  0  0  0  0
   10.4143  -12.2519    0.0000 C   0  0  0  0  0  0  0  0  0  0  0  0
    9.7070  -11.0103    0.0000 O   0  0  0  0  0  0  0  0  0  0  0  0
    8.2781  -11.0021    0.0000 O   0  0  0  0  0  0  0  0  0  0  0  0
    7.5636  -10.5896    0.0000 H   0  0  0  0  0  0  0  0  0  0  0  0
    7.5636   -8.1146    0.0000 O   0  0  0  0  0  0  0  0  0  0  0  0
    9.7071   -6.0521    0.0000 C   0  0  0  0  0  0  0  0  0  0  0  0
    8.2781   -6.0521    0.0000 O   0  0  0  0  0  0  0  0  0  0  0  0
    8.9926   -6.4646    0.0000 C   0  0  0  0  0  0  0  0  0  0  0  0
    8.9926   -7.2896    0.0000 O   0  0  0  0  0  0  0  0  0  0  0  0
    8.2781   -7.7021    0.0000 C   0  0  0  0  0  0  0  0  0  0  0  0
    6.1957  -10.6029    0.0000 C   0  0  0  0  0  0  0  0  0  0  0  0
    6.7790  -10.0195    0.0000 C   0  0  1  0  0  0  0  0  0  0  0  0
    6.2941   -9.3521    0.0000 C   0  0  2  0  0  0  0  0  0  0  0  0
    6.7790   -8.6846    0.0000 C   0  0  0  0  0  0  0  0  0  0  0  0
    8.9926   -9.7646    0.0000 O   0  0  0  0  0  0  0  0  0  0  0  0
    8.9926   -8.9396    0.0000 C   0  0  0  0  0  0  0  0  0  0  0  0
    8.2781   -8.5271    0.0000 C   0  0  0  0  0  0  0  0  0  0  0  0
    7.5636   -8.9396    0.0000 C   0  0  1  0  0  0  0  0  0  0  0  0
    7.5636   -9.7646    0.0000 C   0  0  2  0  0  0  0  0  0  0  0  0
    8.2781  -10.1771    0.0000 C   0  0  2  0  0  0  0  0  0  0  0  0
    9.6927  -13.4853    0.0000 C   0  0  0  0  0  0  0  0  0  0  0  0
    6.9925  -10.8164    0.0000 O   0  0  0  0  0  0  0  0  0  0  0  0
    5.3707  -10.6029    0.0000 O   0  0  0  0  0  0  0  0  0  0  0  0
    4.9582  -11.3173    0.0000 C   0  0  0  0  0  0  0  0  0  0  0  0
    4.1332  -11.3173    0.0000 C   0  0  0  0  0  0  0  0  0  0  0  0
    5.3707  -12.0318    0.0000 O   0  0  0  0  0  0  0  0  0  0  0  0
    9.7071   -5.2271    0.0000 C   0  0  0  0  0  0  0  0  0  0  0  0
    8.9926   -4.8146    0.0000 C   0  0  0  0  0  0  0  0  0  0  0  0
   10.4215   -4.8146    0.0000 C   0  0  0  0  0  0  0  0  0  0  0  0
   10.4215   -6.4646    0.0000 O   0  0  0  0  0  0  0  0  0  0  0  0
   11.1360   -6.0521    0.0000 C   0  0  0  0  0  0  0  0  0  0  0  0
   11.8505   -6.4646    0.0000 C   0  0  0  0  0  0  0  0  0  0  0  0
   11.1360   -5.2271    0.0000 O   0  0  0  0  0  0  0  0  0  0  0  0
   12.5649   -6.0521    0.0000 C   0  0  0  0  0  0  0  0  0  0  0  0
   13.2794   -6.4646    0.0000 C   0  0  0  0  0  0  0  0  0  0  0  0
   12.5649   -5.2271    0.0000 C   0  0  0  0  0  0  0  0  0  0  0  0
    3.7207  -12.0318    0.0000 C   0  0  0  0  0  0  0  0  0  0  0  0
    3.0062  -11.6193    0.0000 C   0  0  0  0  0  0  0  0  0  0  0  0
    4.4351  -12.4443    0.0000 C   0  0  0  0  0  0  0  0  0  0  0  0
    3.3082  -12.7463    0.0000 O   0  0  0  0  0  0  0  0  0  0  0  0
    2.4832  -12.7463    0.0000 C   0  0  0  0  0  0  0  0  0  0  0  0
    2.0707  -13.4607    0.0000 C   0  0  0  0  0  0  0  0  0  0  0  0
    2.0707  -12.0318    0.0000 O   0  0  0  0  0  0  0  0  0  0  0  0
 26 11  1  1  0  0  0
 25 12  1  1  0  0  0
 27 10  1  1  0  0  0
 24 17  1  0  0  0  0
 17 16  1  0  0  0  0
 16 15  1  0  0  0  0
 15 13  1  0  0  0  0
 15 14  2  0  0  0  0
 20  1  1  1  0  0  0
 19 18  1  1  0  0  0
 25 21  1  0  0  0  0
 26 19  1  0  0  0  0
 20 19  1  0  0  0  0
 21 20  1  0  0  0  0
 27 22  1  0  0  0  0
 23 22  1  0  0  0  0
 24 23  2  0  0  0  0
 25 24  1  0  0  0  0
 26 25  1  0  0  0  0
 27 26  1  0  0  0  0
  2  3  1  0  0  0  0
  2  4  2  0  0  0  0
  1  2  1  0  0  0  0
  5  6  1  0  0  0  0
  6  7  1  0  0  0  0
  7  8  1  0  0  0  0
  5  9  2  0  0  0  0
  5 10  1  0  0  0  0
  7 28  1  0  0  0  0
 19 29  1  6  0  0  0
 18 30  1  0  0  0  0
 30 31  1  0  0  0  0
 31 32  1  0  0  0  0
 31 33  2  0  0  0  0
 13 34  1  0  0  0  0
 34 35  1  0  0  0  0
 34 36  1  0  0  0  0
 13 37  1  0  0  0  0
 37 38  1  0  0  0  0
 38 39  1  0  0  0  0
 38 40  2  0  0  0  0
 39 41  1  0  0  0  0
 41 42  1  0  0  0  0
 41 43  1  0  0  0  0
 32 44  1  0  0  0  0
 44 45  1  0  0  0  0
 44 46  1  0  0  0  0
 44 47  1  0  0  0  0
 47 48  1  0  0  0  0
 48 49  1  0  0  0  0
 48 50  2  0  0  0  0
M  END
>  <cdx:fragmentId>
7704

$$$$
