301509.cdx
  Mrv1902 05222410182D          

 11 10  0  0  0  0            999 V2000
    7.0678   -6.0791    0.0000 C   0  0  0  0  0  0  0  0  0  0  0  0
    6.3533   -6.4916    0.0000 C   0  0  0  0  0  0  0  0  0  0  0  0
    5.6388   -6.0791    0.0000 C   0  0  0  0  0  0  0  0  0  0  0  0
    4.9244   -6.4916    0.0000 C   0  0  0  0  0  0  0  0  0  0  0  0
    7.0678   -5.2541    0.0000 O   0  0  0  0  0  0  0  0  0  0  0  0
    7.7822   -6.4916    0.0000 O   0  0  0  0  0  0  0  0  0  0  0  0
    6.3533   -7.3166    0.0000 C   0  0  0  0  0  0  0  0  0  0  0  0
    8.4967   -6.0791    0.0000 C   0  0  0  0  0  0  0  0  0  0  0  0
    9.2112   -6.4916    0.0000 C   0  0  0  0  0  0  0  0  0  0  0  0
    9.9256   -6.0791    0.0000 C   0  0  0  0  0  0  0  0  0  0  0  0
    9.2112   -7.3166    0.0000 C   0  0  0  0  0  0  0  0  0  0  0  0
  1  2  1  0  0  0  0
  2  3  1  0  0  0  0
  3  4  1  0  0  0  0
  1  5  2  0  0  0  0
  1  6  1  0  0  0  0
  2  7  1  0  0  0  0
  8  9  1  0  0  0  0
  9 10  1  0  0  0  0
  9 11  1  0  0  0  0
  6  8  1  0  0  0  0
M  END
>  <cdx:groupId>
34

>  <cdx:fragmentId>
5

$$$$
