301551.cdx
  Mrv1902 05222410222D          

 25 28  0  0  0  0            999 V2000
    7.2755   -7.8228    0.0000 C   0  0  0  0  0  0  0  0  0  0  0  0
    7.9900   -7.4103    0.0000 N   0  0  0  0  0  0  0  0  0  0  0  0
    7.9900   -6.5853    0.0000 C   0  0  1  0  0  0  0  0  0  0  0  0
    7.2755   -6.1728    0.0000 C   0  0  0  0  0  0  0  0  0  0  0  0
    6.5610   -6.5853    0.0000 C   0  0  0  0  0  0  0  0  0  0  0  0
    5.8466   -6.1728    0.0000 C   0  0  0  0  0  0  0  0  0  0  0  0
    5.1321   -6.5853    0.0000 C   0  0  0  0  0  0  0  0  0  0  0  0
    5.1321   -7.4103    0.0000 C   0  0  0  0  0  0  0  0  0  0  0  0
    5.8466   -7.8228    0.0000 C   0  0  0  0  0  0  0  0  0  0  0  0
    6.5610   -7.4103    0.0000 C   0  0  0  0  0  0  0  0  0  0  0  0
    8.7045   -7.8228    0.0000 C   0  0  0  0  0  0  0  0  0  0  0  0
    9.4189   -7.4103    0.0000 C   0  0  0  0  0  0  0  0  0  0  0  0
    9.4189   -6.5853    0.0000 C   0  0  0  0  0  0  0  0  0  0  0  0
   10.1334   -6.1728    0.0000 C   0  0  0  0  0  0  0  0  0  0  0  0
   10.1334   -5.3478    0.0000 C   0  0  0  0  0  0  0  0  0  0  0  0
    9.4189   -4.9353    0.0000 C   0  0  0  0  0  0  0  0  0  0  0  0
    8.7045   -5.3478    0.0000 C   0  0  0  0  0  0  0  0  0  0  0  0
    8.7045   -6.1728    0.0000 C   0  0  0  0  0  0  0  0  0  0  0  0
   10.8479   -4.9353    0.0000 O   0  0  0  0  0  0  0  0  0  0  0  0
    5.8466   -8.6478    0.0000 O   0  0  0  0  0  0  0  0  0  0  0  0
    4.4176   -7.8228    0.0000 O   0  0  0  0  0  0  0  0  0  0  0  0
    3.7032   -7.4103    0.0000 C   0  0  0  0  0  0  0  0  0  0  0  0
    9.4189   -4.1103    0.0000 O   0  0  0  0  0  0  0  0  0  0  0  0
   10.1334   -3.6978    0.0000 C   0  0  0  0  0  0  0  0  0  0  0  0
    7.9900   -5.7603    0.0000 H   0  0  0  0  0  0  0  0  0  0  0  0
  1  2  1  0  0  0  0
  2  3  1  0  0  0  0
  3  4  1  0  0  0  0
  4  5  1  0  0  0  0
  5  6  1  0  0  0  0
  6  7  2  0  0  0  0
  7  8  1  0  0  0  0
  8  9  2  0  0  0  0
  9 10  1  0  0  0  0
  1 10  1  0  0  0  0
  5 10  2  0  0  0  0
 11 12  1  0  0  0  0
 12 13  1  0  0  0  0
 13 14  1  0  0  0  0
 14 15  2  0  0  0  0
 15 16  1  0  0  0  0
 16 17  2  0  0  0  0
 17 18  1  0  0  0  0
 13 18  2  0  0  0  0
 11  2  1  0  0  0  0
 18  3  1  0  0  0  0
 15 19  1  0  0  0  0
  9 20  1  0  0  0  0
 21 22  1  0  0  0  0
  8 21  1  0  0  0  0
 23 24  1  0  0  0  0
 16 23  1  0  0  0  0
  3 25  1  6  0  0  0
M  END
>  <cdx:groupId>
1517

>  <cdx:fragmentId>
1442

$$$$
