301520.cdx
  Mrv1902 05222410182D          

 19 21  0  0  0  0            999 V2000
    8.2141   -5.5541    0.0000 N   0  0  0  0  0  0  0  0  0  0  0  0
    8.9286   -5.9666    0.0000 C   0  0  0  0  0  0  0  0  0  0  0  0
    8.9286   -6.7916    0.0000 C   0  0  0  0  0  0  0  0  0  0  0  0
    8.2141   -7.2041    0.0000 C   0  0  0  0  0  0  0  0  0  0  0  0
    7.4996   -6.7916    0.0000 C   0  0  0  0  0  0  0  0  0  0  0  0
    6.7852   -7.2041    0.0000 C   0  0  0  0  0  0  0  0  0  0  0  0
    6.0707   -6.7916    0.0000 C   0  0  0  0  0  0  0  0  0  0  0  0
    6.0707   -5.9666    0.0000 C   0  0  0  0  0  0  0  0  0  0  0  0
    6.7852   -5.5541    0.0000 C   0  0  0  0  0  0  0  0  0  0  0  0
    7.4996   -5.9666    0.0000 C   0  0  0  0  0  0  0  0  0  0  0  0
    9.7132   -5.7116    0.0000 O   0  0  0  0  0  0  0  0  0  0  0  0
    9.7132   -7.0465    0.0000 C   0  0  0  0  0  0  0  0  0  0  0  0
   10.1981   -6.3791    0.0000 C   0  0  0  0  0  0  0  0  0  0  0  0
    8.2141   -8.0291    0.0000 O   0  0  0  0  0  0  0  0  0  0  0  0
    8.2141   -4.7291    0.0000 C   0  0  0  0  0  0  0  0  0  0  0  0
    6.7852   -4.7291    0.0000 O   0  0  0  0  0  0  0  0  0  0  0  0
    6.0707   -4.3166    0.0000 C   0  0  0  0  0  0  0  0  0  0  0  0
    5.3562   -7.2041    0.0000 O   0  0  0  0  0  0  0  0  0  0  0  0
    4.6418   -6.7916    0.0000 C   0  0  0  0  0  0  0  0  0  0  0  0
  1  2  1  0  0  0  0
  2  3  2  0  0  0  0
  3  4  1  0  0  0  0
  4  5  1  0  0  0  0
  5  6  1  0  0  0  0
  6  7  2  0  0  0  0
  7  8  1  0  0  0  0
  8  9  2  0  0  0  0
  9 10  1  0  0  0  0
  1 10  1  0  0  0  0
  5 10  2  0  0  0  0
 12 13  2  0  0  0  0
 11 13  1  0  0  0  0
 11  2  1  0  0  0  0
 12  3  1  0  0  0  0
  4 14  2  0  0  0  0
  1 15  1  0  0  0  0
 16 17  1  0  0  0  0
  9 16  1  0  0  0  0
 18 19  1  0  0  0  0
  7 18  1  0  0  0  0
M  END
>  <cdx:groupId>
907

>  <cdx:fragmentId>
851

$$$$
