301562.cdx
  Mrv1902 05222410232D          

 26 28  0  0  0  0            999 V2000
    7.7822   -6.4366    0.0000 C   0  0  0  0  0  0  0  0  0  0  0  0
    7.7822   -5.6116    0.0000 C   0  0  0  0  0  0  0  0  0  0  0  0
    7.0678   -5.1991    0.0000 C   0  0  0  0  0  0  0  0  0  0  0  0
    6.3533   -5.6116    0.0000 C   0  0  0  0  0  0  0  0  0  0  0  0
    5.6388   -5.1991    0.0000 C   0  0  0  0  0  0  0  0  0  0  0  0
    4.9244   -5.6116    0.0000 C   0  0  0  0  0  0  0  0  0  0  0  0
    4.9244   -6.4366    0.0000 C   0  0  0  0  0  0  0  0  0  0  0  0
    5.6388   -6.8491    0.0000 C   0  0  0  0  0  0  0  0  0  0  0  0
    6.3533   -6.4366    0.0000 C   0  0  0  0  0  0  0  0  0  0  0  0
    7.0678   -6.8491    0.0000 O   0  0  0  0  0  0  0  0  0  0  0  0
    7.0678   -4.3741    0.0000 O   0  0  0  0  0  0  0  0  0  0  0  0
    4.2099   -5.1991    0.0000 O   0  0  0  0  0  0  0  0  0  0  0  0
    3.4954   -5.6116    0.0000 C   0  0  0  0  0  0  0  0  0  0  0  0
    8.4967   -5.1991    0.0000 O   0  0  0  0  0  0  0  0  0  0  0  0
    9.2112   -5.6116    0.0000 C   0  0  0  0  0  0  0  0  0  0  0  0
    8.4967   -6.8491    0.0000 C   0  0  0  0  0  0  0  0  0  0  0  0
    9.2112   -6.4366    0.0000 C   0  0  0  0  0  0  0  0  0  0  0  0
    9.9256   -6.8491    0.0000 C   0  0  0  0  0  0  0  0  0  0  0  0
    9.9256   -7.6741    0.0000 C   0  0  0  0  0  0  0  0  0  0  0  0
    9.2112   -8.0866    0.0000 C   0  0  0  0  0  0  0  0  0  0  0  0
    8.4967   -7.6741    0.0000 C   0  0  0  0  0  0  0  0  0  0  0  0
   10.6401   -6.4366    0.0000 O   0  0  0  0  0  0  0  0  0  0  0  0
   11.3546   -6.8491    0.0000 C   0  0  0  0  0  0  0  0  0  0  0  0
   10.6401   -8.0866    0.0000 O   0  0  0  0  0  0  0  0  0  0  0  0
    4.2099   -6.8491    0.0000 O   0  0  0  0  0  0  0  0  0  0  0  0
    5.6388   -4.3741    0.0000 O   0  0  0  0  0  0  0  0  0  0  0  0
  1  2  2  0  0  0  0
  2  3  1  0  0  0  0
  3  4  1  0  0  0  0
  4  5  1  0  0  0  0
  5  6  2  0  0  0  0
  6  7  1  0  0  0  0
  7  8  2  0  0  0  0
  8  9  1  0  0  0  0
  4  9  2  0  0  0  0
  9 10  1  0  0  0  0
  1 10  1  0  0  0  0
  3 11  2  0  0  0  0
 12 13  1  0  0  0  0
  6 12  1  0  0  0  0
 14 15  1  0  0  0  0
  2 14  1  0  0  0  0
 16 17  1  0  0  0  0
 17 18  2  0  0  0  0
 18 19  1  0  0  0  0
 19 20  2  0  0  0  0
 20 21  1  0  0  0  0
 16 21  2  0  0  0  0
 22 23  1  0  0  0  0
 18 22  1  0  0  0  0
 19 24  1  0  0  0  0
  1 16  1  0  0  0  0
  7 25  1  0  0  0  0
  5 26  1  0  0  0  0
M  END
>  <cdx:groupId>
461

>  <cdx:fragmentId>
384

$$$$
