301501.cdx
  Mrv1902 05222410262D          

 23 26  0  0  0  0            999 V2000
    9.2353   -5.9958    0.0000 O   0  0  0  0  0  0  0  0  0  0  0  0
    9.7202   -5.3284    0.0000 C   0  0  0  0  0  0  0  0  0  0  0  0
    9.2353   -4.6610    0.0000 C   0  0  0  0  0  0  0  0  0  0  0  0
    8.4506   -4.9159    0.0000 C   0  0  0  0  0  0  0  0  0  0  0  0
    7.7362   -4.5034    0.0000 C   0  0  0  0  0  0  0  0  0  0  0  0
    7.0217   -4.9159    0.0000 C   0  0  0  0  0  0  0  0  0  0  0  0
    7.0217   -5.7409    0.0000 C   0  0  0  0  0  0  0  0  0  0  0  0
    7.7362   -6.1534    0.0000 C   0  0  0  0  0  0  0  0  0  0  0  0
    8.4506   -5.7409    0.0000 C   0  0  0  0  0  0  0  0  0  0  0  0
    7.7362   -6.9784    0.0000 C   0  0  0  0  0  0  0  0  0  0  0  0
    7.0217   -7.3909    0.0000 C   0  0  0  0  0  0  0  0  0  0  0  0
    6.3072   -6.9784    0.0000 C   0  0  0  0  0  0  0  0  0  0  0  0
    5.5927   -7.3909    0.0000 C   0  0  0  0  0  0  0  0  0  0  0  0
    4.8783   -6.9784    0.0000 C   0  0  0  0  0  0  0  0  0  0  0  0
    4.8783   -6.1534    0.0000 C   0  0  0  0  0  0  0  0  0  0  0  0
    5.5927   -5.7409    0.0000 C   0  0  0  0  0  0  0  0  0  0  0  0
    6.3072   -6.1534    0.0000 C   0  0  0  0  0  0  0  0  0  0  0  0
    6.3072   -4.5034    0.0000 O   0  0  0  0  0  0  0  0  0  0  0  0
    7.7362   -3.6784    0.0000 O   0  0  0  0  0  0  0  0  0  0  0  0
    6.0052   -8.1054    0.0000 C   0  0  0  0  0  0  0  0  0  0  0  0
    5.1802   -8.1054    0.0000 C   0  0  0  0  0  0  0  0  0  0  0  0
    9.4902   -3.8763    0.0000 C   0  0  0  0  0  0  0  0  0  0  0  0
    5.5927   -4.9159    0.0000 O   0  0  0  0  0  0  0  0  0  0  0  0
  1  2  1  0  0  0  0
  2  3  2  0  0  0  0
  3  4  1  0  0  0  0
  4  5  1  0  0  0  0
  5  6  1  0  0  0  0
  6  7  1  0  0  0  0
  7  8  1  0  0  0  0
  8  9  1  0  0  0  0
  4  9  2  0  0  0  0
  1  9  1  0  0  0  0
 10 11  1  0  0  0  0
 11 12  2  0  0  0  0
 12 13  1  0  0  0  0
 13 14  1  0  0  0  0
 14 15  1  0  0  0  0
 15 16  1  0  0  0  0
 16 17  1  0  0  0  0
 12 17  1  0  0  0  0
 17  7  2  0  0  0  0
 10  8  2  0  0  0  0
  6 18  2  0  0  0  0
  5 19  2  0  0  0  0
 13 20  1  0  0  0  0
 13 21  1  0  0  0  0
  3 22  1  0  0  0  0
 16 23  1  0  0  0  0
M  END
>  <cdx:fragmentId>
9932

$$$$
