301516.cdx
  Mrv1902 05222410262D          

 15 15  0  0  0  0            999 V2000
    8.0334   -5.0203    0.0000 C   0  0  0  0  0  0  0  0  0  0  0  0
    8.2529   -5.8155    0.0000 C   0  0  0  0  0  0  0  0  0  0  0  0
    9.0375   -6.0705    0.0000 C   0  0  0  0  0  0  0  0  0  0  0  0
    9.0375   -6.8955    0.0000 C   0  0  0  0  0  0  0  0  0  0  0  0
    8.2529   -7.1504    0.0000 C   0  0  0  0  0  0  0  0  0  0  0  0
    7.7679   -6.4830    0.0000 C   0  0  0  0  0  0  0  0  0  0  0  0
    6.9438   -6.5200    0.0000 C   0  0  1  0  0  0  0  0  0  0  0  0
    6.4010   -5.8987    0.0000 C   0  0  0  0  0  0  0  0  0  0  0  0
    6.5483   -5.0870    0.0000 C   0  0  0  0  0  0  0  0  0  0  0  0
    7.2748   -4.6960    0.0000 C   0  0  0  0  0  0  0  0  0  0  0  0
    7.1144   -7.9387    0.0000 C   0  0  0  0  0  0  0  0  0  0  0  0
    6.6195   -7.2786    0.0000 C   0  0  0  0  0  0  0  0  0  0  0  0
    5.8004   -7.3771    0.0000 C   0  0  0  0  0  0  0  0  0  0  0  0
    7.9979   -7.9350    0.0000 C   0  0  0  0  0  0  0  0  0  0  0  0
    8.6547   -4.4775    0.0000 C   0  0  0  0  0  0  0  0  0  0  0  0
  1  2  2  0  0  0  0
  2  3  1  0  0  0  0
  3  4  1  0  0  0  0
  4  5  1  0  0  0  0
  5  6  2  0  0  0  0
  6  7  1  0  0  0  0
  7  8  1  0  0  0  0
  8  9  1  0  0  0  0
  9 10  1  0  0  0  0
  1 10  1  0  0  0  0
 11 12  2  0  0  0  0
 12 13  1  0  0  0  0
  7 12  1  6  0  0  0
  5 14  1  0  0  0  0
  1 15  1  0  0  0  0
M  END
>  <cdx:groupId>
462

>  <cdx:fragmentId>
420

$$$$
