301598.cdx
  Mrv1902 05222410252D          

 18 20  0  0  0  0            999 V2000
    7.6840   -5.9606    0.0000 C   0  0  2  0  0  0  0  0  0  0  0  0
    8.3985   -6.3731    0.0000 C   0  0  1  0  0  0  0  0  0  0  0  0
    8.3985   -7.1981    0.0000 C   0  0  0  0  0  0  0  0  0  0  0  0
    7.6840   -7.6106    0.0000 C   0  0  0  0  0  0  0  0  0  0  0  0
    6.9696   -7.1981    0.0000 C   0  0  0  0  0  0  0  0  0  0  0  0
    6.2551   -7.6106    0.0000 C   0  0  0  0  0  0  0  0  0  0  0  0
    5.5406   -7.1981    0.0000 C   0  0  0  0  0  0  0  0  0  0  0  0
    5.5406   -6.3731    0.0000 C   0  0  0  0  0  0  0  0  0  0  0  0
    6.2551   -5.9606    0.0000 C   0  0  2  0  0  0  0  0  0  0  0  0
    6.9696   -6.3731    0.0000 C   0  0  2  0  0  0  0  0  0  0  0  0
    8.3985   -5.5481    0.0000 C   0  0  0  0  0  0  0  0  0  0  0  0
    9.1130   -7.6106    0.0000 O   0  0  0  0  0  0  0  0  0  0  0  0
    6.9696   -5.5481    0.0000 C   0  0  0  0  0  0  0  0  0  0  0  0
    6.2551   -5.1356    0.0000 C   0  0  0  0  0  0  0  0  0  0  0  0
    8.3985   -4.7231    0.0000 C   0  0  0  0  0  0  0  0  0  0  0  0
    9.1130   -5.1356    0.0000 C   0  0  0  0  0  0  0  0  0  0  0  0
    9.2235   -6.3731    0.0000 H   0  0  0  0  0  0  0  0  0  0  0  0
    7.2715   -5.2462    0.0000 H   0  0  0  0  0  0  0  0  0  0  0  0
  1  2  1  0  0  0  0
  2  3  1  0  0  0  0
  3  4  1  0  0  0  0
  4  5  2  0  0  0  0
  5  6  1  0  0  0  0
  6  7  2  0  0  0  0
  7  8  1  0  0  0  0
  8  9  1  0  0  0  0
  9 10  1  0  0  0  0
  1 10  1  0  0  0  0
  5 10  1  0  0  0  0
 11  1  1  0  0  0  0
 11  2  1  0  0  0  0
  3 12  2  0  0  0  0
 10 13  1  1  0  0  0
  9 14  1  1  0  0  0
 11 15  1  0  0  0  0
 11 16  1  0  0  0  0
  2 17  1  1  0  0  0
  1 18  1  1  0  0  0
M  END
>  <cdx:groupId>
4304

>  <cdx:fragmentId>
4251

$$$$
