301527.cdx
  Mrv1902 05222410192D          

 48 51  0  0  0  0            999 V2000
    5.3150   -5.3969    0.0000 C   0  0  0  0  0  0  0  0  0  0  0  0
    6.0295   -5.8094    0.0000 C   0  0  0  0  0  0  0  0  0  0  0  0
    6.0295   -6.6344    0.0000 C   0  0  2  0  0  0  0  0  0  0  0  0
    5.3150   -7.0469    0.0000 C   0  0  0  0  0  0  0  0  0  0  0  0
    4.6005   -6.6344    0.0000 C   0  0  1  0  0  0  0  0  0  0  0  0
    4.6005   -5.8094    0.0000 O   0  0  0  0  0  0  0  0  0  0  0  0
    6.7440   -5.3969    0.0000 C   0  0  0  0  0  0  0  0  0  0  0  0
    7.4584   -5.8094    0.0000 O   0  0  0  0  0  0  0  0  0  0  0  0
    6.7440   -4.5719    0.0000 O   0  0  0  0  0  0  0  0  0  0  0  0
    3.8861   -7.0469    0.0000 O   0  0  0  0  0  0  0  0  0  0  0  0
    2.4571   -7.0469    0.0000 O   0  0  0  0  0  0  0  0  0  0  0  0
    3.1716   -6.6344    0.0000 C   0  0  2  0  0  0  0  0  0  0  0  0
    3.1716   -5.8094    0.0000 C   0  0  1  0  0  0  0  0  0  0  0  0
    2.4571   -5.3969    0.0000 C   0  0  2  0  0  0  0  0  0  0  0  0
    1.7427   -5.8094    0.0000 C   0  0  1  0  0  0  0  0  0  0  0  0
    1.7427   -6.6344    0.0000 C   0  0  1  0  0  0  0  0  0  0  0  0
    1.0282   -7.0469    0.0000 C   0  0  0  0  0  0  0  0  0  0  0  0
    0.3137   -6.6344    0.0000 O   0  0  0  0  0  0  0  0  0  0  0  0
    1.0282   -5.3969    0.0000 O   0  0  0  0  0  0  0  0  0  0  0  0
    2.4571   -4.5719    0.0000 O   0  0  0  0  0  0  0  0  0  0  0  0
    3.8861   -5.3969    0.0000 O   0  0  0  0  0  0  0  0  0  0  0  0
    5.3150   -7.8719    0.0000 C   0  0  0  0  0  0  0  0  0  0  0  0
    6.0295   -8.2844    0.0000 C   0  0  0  0  0  0  0  0  0  0  0  0
    7.1726   -7.2944    0.0000 C   0  0  0  0  0  0  0  0  0  0  0  0
    7.8871   -6.8819    0.0000 C   0  0  0  0  0  0  0  0  0  0  0  0
    7.8871   -6.0569    0.0000 O   0  0  0  0  0  0  0  0  0  0  0  0
    8.6016   -7.2944    0.0000 O   0  0  0  0  0  0  0  0  0  0  0  0
   10.0305   -5.6444    0.0000 O   0  0  0  0  0  0  0  0  0  0  0  0
    9.3160   -6.0569    0.0000 C   0  0  1  0  0  0  0  0  0  0  0  0
    9.3160   -6.8819    0.0000 C   0  0  2  0  0  0  0  0  0  0  0  0
   10.0305   -7.2944    0.0000 C   0  0  1  0  0  0  0  0  0  0  0  0
   10.7450   -6.8819    0.0000 C   0  0  2  0  0  0  0  0  0  0  0  0
   10.7450   -6.0569    0.0000 C   0  0  2  0  0  0  0  0  0  0  0  0
   11.4595   -5.6444    0.0000 O   0  0  0  0  0  0  0  0  0  0  0  0
   12.1739   -6.0569    0.0000 C   0  0  0  0  0  0  0  0  0  0  0  0
   12.8884   -5.6444    0.0000 C   0  0  0  0  0  0  0  0  0  0  0  0
   13.6029   -6.0569    0.0000 C   0  0  0  0  0  0  0  0  0  0  0  0
   14.3173   -5.6444    0.0000 C   0  0  0  0  0  0  0  0  0  0  0  0
   15.0318   -6.0569    0.0000 C   0  0  0  0  0  0  0  0  0  0  0  0
   15.0318   -6.8819    0.0000 C   0  0  0  0  0  0  0  0  0  0  0  0
   14.3173   -7.2944    0.0000 C   0  0  0  0  0  0  0  0  0  0  0  0
   13.6029   -6.8819    0.0000 C   0  0  0  0  0  0  0  0  0  0  0  0
   15.7463   -7.2944    0.0000 O   0  0  0  0  0  0  0  0  0  0  0  0
    8.6016   -5.6444    0.0000 C   0  0  0  0  0  0  0  0  0  0  0  0
    8.6016   -4.8194    0.0000 O   0  0  0  0  0  0  0  0  0  0  0  0
   11.4595   -7.2944    0.0000 O   0  0  0  0  0  0  0  0  0  0  0  0
   10.0305   -8.1194    0.0000 O   0  0  0  0  0  0  0  0  0  0  0  0
    7.4584   -4.1594    0.0000 C   0  0  0  0  0  0  0  0  0  0  0  0
  1  2  2  0  0  0  0
  2  3  1  0  0  0  0
  3  4  1  0  0  0  0
  4  5  1  0  0  0  0
  5  6  1  0  0  0  0
  1  6  1  0  0  0  0
  7  8  2  0  0  0  0
  7  9  1  0  0  0  0
  2  7  1  0  0  0  0
 11 12  1  0  0  0  0
 12 13  1  0  0  0  0
 13 14  1  0  0  0  0
 14 15  1  0  0  0  0
 15 16  1  0  0  0  0
 11 16  1  0  0  0  0
 17 18  1  0  0  0  0
 16 17  1  6  0  0  0
 15 19  1  1  0  0  0
 14 20  1  6  0  0  0
 13 21  1  1  0  0  0
 12 10  1  6  0  0  0
  5 10  1  6  0  0  0
 22 23  1  0  0  0  0
  4 22  2  0  0  0  0
 24 25  1  0  0  0  0
 25 26  2  0  0  0  0
 28 29  1  0  0  0  0
 29 30  1  0  0  0  0
 30 31  1  0  0  0  0
 31 32  1  0  0  0  0
 32 33  1  0  0  0  0
 28 33  1  0  0  0  0
 35 36  1  0  0  0  0
 34 35  1  0  0  0  0
 37 38  1  0  0  0  0
 38 39  2  0  0  0  0
 39 40  1  0  0  0  0
 40 41  2  0  0  0  0
 41 42  1  0  0  0  0
 37 42  2  0  0  0  0
 40 43  1  0  0  0  0
 36 37  1  0  0  0  0
 33 34  1  1  0  0  0
 44 45  1  0  0  0  0
 29 44  1  1  0  0  0
 32 46  1  6  0  0  0
 31 47  1  1  0  0  0
 30 27  1  6  0  0  0
 25 27  1  0  0  0  0
  3 24  1  1  0  0  0
  9 48  1  0  0  0  0
M  END
>  <cdx:groupId>
1576

>  <cdx:fragmentId>
1504

$$$$
