301546.cdx
  Mrv1902 05222410222D          

 28 27  0  0  0  0            999 V2000
   13.3494   -8.7413    0.0000 Si  0  0  0  0  0  0  0  0  0  0  0  0
   12.6349   -9.1538    0.0000 O   0  0  0  0  0  0  0  0  0  0  0  0
   11.9205   -8.7413    0.0000 C   0  0  0  0  0  0  0  0  0  0  0  0
   11.2060   -9.1538    0.0000 C   0  0  0  0  0  0  0  0  0  0  0  0
   10.4915   -8.7413    0.0000 C   0  0  0  0  0  0  0  0  0  0  0  0
    9.7770   -9.1538    0.0000 C   0  0  0  0  0  0  0  0  0  0  0  0
    9.0626   -8.7413    0.0000 C   0  0  0  0  0  0  0  0  0  0  0  0
    8.3481   -9.1538    0.0000 C   0  0  0  0  0  0  0  0  0  0  0  0
    7.6336   -8.7413    0.0000 C   0  0  0  0  0  0  0  0  0  0  0  0
    6.9192   -9.1538    0.0000 C   0  0  0  0  0  0  0  0  0  0  0  0
    6.2047   -8.7413    0.0000 C   0  0  0  0  0  0  0  0  0  0  0  0
    5.4902   -9.1538    0.0000 C   0  0  0  0  0  0  0  0  0  0  0  0
    4.7757   -8.7413    0.0000 C   0  0  0  0  0  0  0  0  0  0  0  0
    4.0613   -9.1538    0.0000 C   0  0  0  0  0  0  0  0  0  0  0  0
    3.3468   -8.7413    0.0000 C   0  0  0  0  0  0  0  0  0  0  0  0
    2.6323   -9.1538    0.0000 C   0  0  0  0  0  0  0  0  0  0  0  0
   13.7619   -8.0268    0.0000 C   0  0  0  0  0  0  0  0  0  0  0  0
   12.9369   -8.0268    0.0000 C   0  0  0  0  0  0  0  0  0  0  0  0
   14.0639   -9.1538    0.0000 O   0  0  0  0  0  0  0  0  0  0  0  0
   14.7783   -8.7413    0.0000 Si  0  0  0  0  0  0  0  0  0  0  0  0
   15.4928   -9.1538    0.0000 O   0  0  0  0  0  0  0  0  0  0  0  0
   16.2073   -8.7413    0.0000 C   0  0  0  0  0  0  0  0  0  0  0  0
   16.9218   -9.1538    0.0000 C   0  0  0  0  0  0  0  0  0  0  0  0
   17.6362   -8.7413    0.0000 C   0  0  0  0  0  0  0  0  0  0  0  0
   18.3507   -9.1538    0.0000 C   0  0  0  0  0  0  0  0  0  0  0  0
   19.0652   -8.7413    0.0000 C   0  0  0  0  0  0  0  0  0  0  0  0
   15.1908   -8.0268    0.0000 C   0  0  0  0  0  0  0  0  0  0  0  0
   14.3658   -8.0268    0.0000 C   0  0  0  0  0  0  0  0  0  0  0  0
  3  4  1  0  0  0  0
  4  5  1  0  0  0  0
  5  6  1  0  0  0  0
  6  7  1  0  0  0  0
  7  8  1  0  0  0  0
  8  9  1  0  0  0  0
  9 10  1  0  0  0  0
 10 11  1  0  0  0  0
 11 12  1  0  0  0  0
 12 13  1  0  0  0  0
 13 14  1  0  0  0  0
 14 15  1  0  0  0  0
 15 16  1  0  0  0  0
  2  3  1  0  0  0  0
  1  2  1  0  0  0  0
  1 17  1  0  0  0  0
  1 18  1  0  0  0  0
 22 23  1  0  0  0  0
 23 24  1  0  0  0  0
 24 25  1  0  0  0  0
 25 26  1  0  0  0  0
 21 22  1  0  0  0  0
 20 21  1  0  0  0  0
 20 27  1  0  0  0  0
 20 28  1  0  0  0  0
 19 20  1  0  0  0  0
  1 19  1  0  0  0  0
M  END
>  <cdx:groupId>
1046

>  <cdx:fragmentId>
970

$$$$
