301518.cdx
  Mrv1902 05222410202D          

 36 40  0  0  0  0            999 V2000
    9.8063   -4.2465    0.0000 O   0  0  0  0  0  0  0  0  0  0  0  0
   10.1418   -5.0001    0.0000 C   0  0  0  0  0  0  0  0  0  0  0  0
    9.5287   -5.5522    0.0000 C   0  0  0  0  0  0  0  0  0  0  0  0
    8.8143   -5.1397    0.0000 C   0  0  1  0  0  0  0  0  0  0  0  0
    8.9858   -4.3327    0.0000 C   0  0  0  0  0  0  0  0  0  0  0  0
    8.0998   -5.5522    0.0000 C   0  0  0  0  0  0  0  0  0  0  0  0
    8.0998   -6.3772    0.0000 C   0  0  1  0  0  0  0  0  0  0  0  0
    8.8143   -6.7897    0.0000 C   0  0  0  0  0  0  0  0  0  0  0  0
    9.5287   -6.3772    0.0000 C   0  0  0  0  0  0  0  0  0  0  0  0
    7.3853   -6.7897    0.0000 C   0  0  1  0  0  0  0  0  0  0  0  0
    6.6709   -6.3772    0.0000 C   0  0  2  0  0  0  0  0  0  0  0  0
    6.6709   -5.5522    0.0000 C   0  0  0  0  0  0  0  0  0  0  0  0
    7.3853   -5.1397    0.0000 C   0  0  0  0  0  0  0  0  0  0  0  0
    7.9156   -7.4217    0.0000 O   0  0  0  0  0  0  0  0  0  0  0  0
    7.1032   -7.5649    0.0000 C   0  0  2  0  0  0  0  0  0  0  0  0
    8.8143   -7.6147    0.0000 O   0  0  0  0  0  0  0  0  0  0  0  0
    6.6709   -7.2022    0.0000 C   0  0  0  0  0  0  0  0  0  0  0  0
    8.3133   -7.1741    0.0000 C   0  0  0  0  0  0  0  0  0  0  0  0
   10.9265   -4.7452    0.0000 C   0  0  0  0  0  0  0  0  0  0  0  0
   10.7549   -5.5522    0.0000 C   0  0  0  0  0  0  0  0  0  0  0  0
    5.9564   -6.7897    0.0000 C   0  0  1  0  0  0  0  0  0  0  0  0
    5.9564   -7.6147    0.0000 O   0  0  0  0  0  0  0  0  0  0  0  0
    4.3487   -5.3852    0.0000 O   0  0  0  0  0  0  0  0  0  0  0  0
    5.1557   -5.5567    0.0000 C   0  0  0  0  0  0  0  0  0  0  0  0
    5.2419   -6.3772    0.0000 C   0  0  0  0  0  0  0  0  0  0  0  0
    4.4882   -6.7127    0.0000 C   0  0  0  0  0  0  0  0  0  0  0  0
    3.9362   -6.0996    0.0000 C   0  0  0  0  0  0  0  0  0  0  0  0
    7.7464   -4.3638    0.0000 C   0  0  0  0  0  0  0  0  0  0  0  0
    7.0375   -4.7859    0.0000 C   0  0  0  0  0  0  0  0  0  0  0  0
    7.7352   -3.5389    0.0000 O   0  0  0  0  0  0  0  0  0  0  0  0
    6.3176   -4.3831    0.0000 C   0  0  0  0  0  0  0  0  0  0  0  0
    6.3064   -3.5582    0.0000 O   0  0  0  0  0  0  0  0  0  0  0  0
    5.6087   -4.8052    0.0000 O   0  0  0  0  0  0  0  0  0  0  0  0
    6.8896   -8.3618    0.0000 C   0  0  0  0  0  0  0  0  0  0  0  0
    7.4730   -8.9452    0.0000 O   0  0  0  0  0  0  0  0  0  0  0  0
    6.0927   -8.5753    0.0000 O   0  0  0  0  0  0  0  0  0  0  0  0
  1  2  1  0  0  0  0
  2  3  1  0  0  0  0
  3  4  1  0  0  0  0
  4  5  1  6  0  0  0
  1  5  1  0  0  0  0
  6  7  1  0  0  0  0
  7  8  1  0  0  0  0
  8  9  1  0  0  0  0
  9  3  1  0  0  0  0
  6  4  1  0  0  0  0
 10 11  1  0  0  0  0
 11 12  1  0  0  0  0
 12 13  1  0  0  0  0
 13  6  1  0  0  0  0
 10  7  1  0  0  0  0
 14 15  1  0  0  0  0
 10 14  1  6  0  0  0
 15 10  1  0  0  0  0
  8 16  2  0  0  0  0
 11 17  1  1  0  0  0
  7 18  1  6  0  0  0
  2 19  1  0  0  0  0
  2 20  1  0  0  0  0
 21 22  1  1  0  0  0
 23 24  1  0  0  0  0
 24 25  2  0  0  0  0
 25 26  1  0  0  0  0
 26 27  2  0  0  0  0
 23 27  1  0  0  0  0
 21 25  1  0  0  0  0
 11 21  1  0  0  0  0
 28 29  1  0  0  0  0
 28 30  1  0  0  0  0
 31 32  2  0  0  0  0
 31 33  1  0  0  0  0
 29 31  1  0  0  0  0
  4 28  1  0  0  0  0
 15 34  1  6  0  0  0
 34 35  2  0  0  0  0
 34 36  1  0  0  0  0
M  END
>  <cdx:fragmentId>
731

$$$$
