301559.cdx
  Mrv1902 05222410252D          

  9  8  0  0  0  0            999 V2000
    8.4967   -6.0241    0.0000 C   0  0  0  0  0  0  0  0  0  0  0  0
    7.7822   -6.4366    0.0000 C   0  0  0  0  0  0  0  0  0  0  0  0
    7.0678   -6.0241    0.0000 C   0  0  0  0  0  0  0  0  0  0  0  0
    6.3533   -6.4366    0.0000 C   0  0  0  0  0  0  0  0  0  0  0  0
    8.4967   -5.1991    0.0000 O   0  0  0  0  0  0  0  0  0  0  0  0
    9.2112   -6.4366    0.0000 O   0  0  0  0  0  0  0  0  0  0  0  0
    6.3533   -7.2616    0.0000 O   0  0  0  0  0  0  0  0  0  0  0  0
    5.6388   -6.0241    0.0000 O   0  0  0  0  0  0  0  0  0  0  0  0
    7.7822   -7.2616    0.0000 C   0  0  0  0  0  0  0  0  0  0  0  0
  1  2  1  0  0  0  0
  2  3  1  0  0  0  0
  3  4  1  0  0  0  0
  1  5  2  0  0  0  0
  1  6  1  0  0  0  0
  4  7  2  0  0  0  0
  4  8  1  0  0  0  0
  2  9  2  0  0  0  0
M  END
>  <cdx:groupId>
183

>  <cdx:fragmentId>
160

$$$$
