30154.cdx
  Mrv1902 05222410202D          

 30 30  0  0  0  0            999 V2000
    5.6626  -10.6142    0.0000 C   0  0  0  0  0  0  0  0  0  0  0  0
    6.0702  -11.3314    0.0000 C   0  0  0  0  0  0  0  0  0  0  0  0
    6.8952  -11.3370    0.0000 C   0  0  0  0  0  0  0  0  0  0  0  0
    7.3126  -10.6254    0.0000 C   0  0  0  0  0  0  0  0  0  0  0  0
    6.0800   -9.9025    0.0000 C   0  0  0  0  0  0  0  0  0  0  0  0
    5.6723   -9.1853    0.0000 C   0  0  0  0  0  0  0  0  0  0  0  0
    4.8473   -9.1797    0.0000 C   0  0  0  0  0  0  0  0  0  0  0  0
    4.4300   -9.8913    0.0000 C   0  0  0  0  0  0  0  0  0  0  0  0
    5.6529  -12.0431    0.0000 C   0  0  0  0  0  0  0  0  0  0  0  0
    4.8473   -7.7564    0.0000 C   0  0  0  0  0  0  0  0  0  0  0  0
    4.4300   -8.4736    0.0000 C   0  0  0  0  0  0  0  0  0  0  0  0
    4.4300   -7.0363    0.0000 C   0  0  0  0  0  0  0  0  0  0  0  0
    4.8449   -6.3176    0.0000 C   0  0  0  0  0  0  0  0  0  0  0  0
    4.4300   -5.5990    0.0000 C   0  0  0  0  0  0  0  0  0  0  0  0
    5.6748   -6.3176    0.0000 C   0  0  0  0  0  0  0  0  0  0  0  0
    6.0897   -7.0363    0.0000 C   0  0  0  0  0  0  0  0  0  0  0  0
    6.9195   -7.0363    0.0000 C   0  0  0  0  0  0  0  0  0  0  0  0
    7.3344   -6.3176    0.0000 C   0  0  0  0  0  0  0  0  0  0  0  0
    6.9195   -5.5990    0.0000 C   0  0  0  0  0  0  0  0  0  0  0  0
    8.1643   -6.3176    0.0000 C   0  0  0  0  0  0  0  0  0  0  0  0
    8.5792   -7.0363    0.0000 C   0  0  0  0  0  0  0  0  0  0  0  0
    8.5792   -8.4736    0.0000 C   0  0  0  0  0  0  0  0  0  0  0  0
    9.4090   -8.4736    0.0000 C   0  0  0  0  0  0  0  0  0  0  0  0
    9.8239   -7.7550    0.0000 C   0  0  0  0  0  0  0  0  0  0  0  0
    9.4090   -7.0363    0.0000 C   0  0  0  0  0  0  0  0  0  0  0  0
    8.1643   -9.1923    0.0000 C   0  0  0  0  0  0  0  0  0  0  0  0
    8.5792   -9.9109    0.0000 C   0  0  0  0  0  0  0  0  0  0  0  0
    9.4090   -9.9109    0.0000 C   0  0  0  0  0  0  0  0  0  0  0  0
    8.1643  -10.6296    0.0000 C   0  0  0  0  0  0  0  0  0  0  0  0
   10.6489   -7.7550    0.0000 C   0  0  0  0  0  0  0  0  0  0  0  0
  1  2  2  0  0  0  0
  2  3  1  0  0  0  0
  3  4  1  0  0  0  0
  5  1  1  0  0  0  0
  5  6  1  0  0  0  0
  6  7  1  0  0  0  0
  7  8  1  0  0  0  0
  2  9  1  0  0  0  0
 10 11  1  0  0  0  0
 11  7  2  0  0  0  0
 10 12  1  0  0  0  0
 12 13  1  0  0  0  0
 13 14  1  0  0  0  0
 13 15  2  0  0  0  0
 15 16  1  0  0  0  0
 16 17  1  0  0  0  0
 17 18  1  0  0  0  0
 18 19  1  0  0  0  0
 18 20  2  0  0  0  0
 21 20  1  0  0  0  0
 22 23  1  0  0  0  0
 23 24  2  0  0  0  0
 24 25  1  0  0  0  0
 25 21  1  0  0  0  0
 22 26  1  0  0  0  0
 26 27  1  0  0  0  0
 27 28  1  0  0  0  0
  4 29  1  0  0  0  0
 29 27  2  0  0  0  0
 24 30  1  0  0  0  0
M  END
>  <cdx:fragmentId>
104

$$$$
