301597.cdx
  Mrv1902 05222410212D          

 34 37  0  0  0  0            999 V2000
    4.8768   -7.2358    0.0000 C   0  0  0  0  0  0  0  0  0  0  0  0
    4.1624   -7.6483    0.0000 C   0  0  0  0  0  0  0  0  0  0  0  0
    4.1624   -8.4733    0.0000 C   0  0  1  0  0  0  0  0  0  0  0  0
    4.8768   -8.8858    0.0000 C   0  0  0  0  0  0  0  0  0  0  0  0
    5.5913   -8.4733    0.0000 C   0  0  2  0  0  0  0  0  0  0  0  0
    6.3058   -8.8858    0.0000 C   0  0  0  0  0  0  0  0  0  0  0  0
    7.0203   -8.4733    0.0000 C   0  0  0  0  0  0  0  0  0  0  0  0
    7.0203   -7.6483    0.0000 C   0  0  0  0  0  0  0  0  0  0  0  0
    7.7347   -7.2358    0.0000 C   0  0  1  0  0  0  0  0  0  0  0  0
    8.5194   -7.4907    0.0000 C   0  0  0  0  0  0  0  0  0  0  0  0
    9.0043   -6.8233    0.0000 C   0  0  0  0  0  0  0  0  0  0  0  0
    8.5194   -6.1558    0.0000 C   0  0  2  0  0  0  0  0  0  0  0  0
    7.7347   -6.4108    0.0000 C   0  0  2  0  0  0  0  0  0  0  0  0
    7.0203   -5.9983    0.0000 C   0  0  0  0  0  0  0  0  0  0  0  0
    6.3058   -6.4108    0.0000 C   0  0  0  0  0  0  0  0  0  0  0  0
    6.3058   -7.2358    0.0000 C   0  0  0  0  0  0  0  0  0  0  0  0
    5.5913   -7.6483    0.0000 C   0  0  1  0  0  0  0  0  0  0  0  0
    7.7347   -8.8858    0.0000 O   0  0  0  0  0  0  0  0  0  0  0  0
    8.2223   -4.7581    0.0000 C   0  0  0  0  0  0  0  0  0  0  0  0
    8.7743   -5.3712    0.0000 C   0  0  2  0  0  0  0  0  0  0  0  0
    9.5813   -5.1997    0.0000 C   0  0  0  0  0  0  0  0  0  0  0  0
    9.8362   -4.4151    0.0000 C   0  0  0  0  0  0  0  0  0  0  0  0
   10.6432   -4.2435    0.0000 C   0  0  0  0  0  0  0  0  0  0  0  0
   10.8981   -3.4589    0.0000 C   0  0  0  0  0  0  0  0  0  0  0  0
   10.3461   -2.8458    0.0000 C   0  0  0  0  0  0  0  0  0  0  0  0
   11.7051   -3.2874    0.0000 C   0  0  0  0  0  0  0  0  0  0  0  0
    7.8210   -8.0563    0.0000 C   0  0  0  0  0  0  0  0  0  0  0  0
    7.8210   -5.5903    0.0000 C   0  0  0  0  0  0  0  0  0  0  0  0
    5.5913   -6.8233    0.0000 C   0  0  0  0  0  0  0  0  0  0  0  0
    5.2893   -9.6002    0.0000 C   0  0  0  0  0  0  0  0  0  0  0  0
    4.4643   -9.6002    0.0000 C   0  0  0  0  0  0  0  0  0  0  0  0
    3.4479   -8.8858    0.0000 O   0  0  0  0  0  0  0  0  0  0  0  0
    5.5913   -9.2983    0.0000 H   0  0  0  0  0  0  0  0  0  0  0  0
    9.3040   -5.9009    0.0000 H   0  0  0  0  0  0  0  0  0  0  0  0
  1  2  1  0  0  0  0
  2  3  1  0  0  0  0
  3  4  1  0  0  0  0
  4  5  1  0  0  0  0
  5  6  1  0  0  0  0
  6  7  1  0  0  0  0
  7  8  1  0  0  0  0
  8  9  1  0  0  0  0
  9 10  1  0  0  0  0
 10 11  1  0  0  0  0
 12 11  1  0  0  0  0
 12 13  1  0  0  0  0
  9 13  1  0  0  0  0
 13 14  1  0  0  0  0
 14 15  1  0  0  0  0
 15 16  1  0  0  0  0
  8 16  2  0  0  0  0
 16 17  1  0  0  0  0
  5 17  1  0  0  0  0
  1 17  1  0  0  0  0
  7 18  2  0  0  0  0
 20 19  1  6  0  0  0
 20 21  1  0  0  0  0
 21 22  1  0  0  0  0
 22 23  1  0  0  0  0
 23 24  2  0  0  0  0
 24 25  1  0  0  0  0
 24 26  1  0  0  0  0
 12 20  1  0  0  0  0
  9 27  1  1  0  0  0
 13 28  1  6  0  0  0
 17 29  1  1  0  0  0
  4 30  1  0  0  0  0
  4 31  1  0  0  0  0
  3 32  1  1  0  0  0
  5 33  1  6  0  0  0
 12 34  1  1  0  0  0
M  END
>  <cdx:groupId>
4244

>  <cdx:fragmentId>
4145

$$$$
