301593.cdx
  Mrv1902 05222410222D          

 54 61  0  0  0  0            999 V2000
    6.8534   -6.3129    0.0000 C   0  0  2  0  0  0  0  0  0  0  0  0
    7.5679   -6.7254    0.0000 C   0  0  1  0  0  0  0  0  0  0  0  0
    7.5679   -7.5504    0.0000 C   0  0  2  0  0  0  0  0  0  0  0  0
    6.8534   -7.9629    0.0000 C   0  0  0  0  0  0  0  0  0  0  0  0
    6.8534   -8.7879    0.0000 C   0  0  0  0  0  0  0  0  0  0  0  0
    6.1390   -9.2004    0.0000 C   0  0  0  0  0  0  0  0  0  0  0  0
    5.4245   -8.7879    0.0000 C   0  0  0  0  0  0  0  0  0  0  0  0
    5.4245   -7.9629    0.0000 C   0  0  0  0  0  0  0  0  0  0  0  0
    6.1390   -7.5504    0.0000 C   0  0  0  0  0  0  0  0  0  0  0  0
    6.1390   -6.7254    0.0000 O   0  0  0  0  0  0  0  0  0  0  0  0
    4.7100   -7.5504    0.0000 C   0  0  2  0  0  0  0  0  0  0  0  0
    3.9955   -7.9629    0.0000 C   0  0  0  0  0  0  0  0  0  0  0  0
    3.9955   -8.7879    0.0000 C   0  0  0  0  0  0  0  0  0  0  0  0
    4.7100   -9.2004    0.0000 O   0  0  0  0  0  0  0  0  0  0  0  0
    3.2811   -9.2004    0.0000 O   0  0  0  0  0  0  0  0  0  0  0  0
    7.5679   -9.2004    0.0000 O   0  0  0  0  0  0  0  0  0  0  0  0
    8.2824   -6.3129    0.0000 O   0  0  0  0  0  0  0  0  0  0  0  0
   10.1400   -6.5604    0.0000 C   0  0  2  0  0  0  0  0  0  0  0  0
   10.8545   -6.9729    0.0000 C   0  0  2  0  0  0  0  0  0  0  0  0
   10.8545   -7.7979    0.0000 C   0  0  0  0  0  0  0  0  0  0  0  0
   10.1400   -8.2104    0.0000 C   0  0  0  0  0  0  0  0  0  0  0  0
   10.1400   -9.0354    0.0000 C   0  0  0  0  0  0  0  0  0  0  0  0
    9.4255   -9.4479    0.0000 C   0  0  0  0  0  0  0  0  0  0  0  0
    8.7110   -9.0354    0.0000 C   0  0  0  0  0  0  0  0  0  0  0  0
    8.7110   -8.2104    0.0000 C   0  0  0  0  0  0  0  0  0  0  0  0
    9.4255   -7.7979    0.0000 C   0  0  0  0  0  0  0  0  0  0  0  0
    9.4255   -6.9729    0.0000 O   0  0  0  0  0  0  0  0  0  0  0  0
    7.9966   -9.4479    0.0000 O   0  0  0  0  0  0  0  0  0  0  0  0
   10.8545   -9.4479    0.0000 O   0  0  0  0  0  0  0  0  0  0  0  0
   11.5689   -6.5604    0.0000 O   0  0  0  0  0  0  0  0  0  0  0  0
   10.1400   -5.7354    0.0000 C   0  0  0  0  0  0  0  0  0  0  0  0
    9.4255   -5.3229    0.0000 C   0  0  0  0  0  0  0  0  0  0  0  0
    9.4255   -4.4979    0.0000 C   0  0  0  0  0  0  0  0  0  0  0  0
   10.1400   -4.0854    0.0000 C   0  0  0  0  0  0  0  0  0  0  0  0
   10.8545   -4.4979    0.0000 C   0  0  0  0  0  0  0  0  0  0  0  0
   10.8545   -5.3229    0.0000 C   0  0  0  0  0  0  0  0  0  0  0  0
   10.1400   -3.2604    0.0000 O   0  0  0  0  0  0  0  0  0  0  0  0
    8.7110   -4.0854    0.0000 O   0  0  0  0  0  0  0  0  0  0  0  0
    4.7100   -6.7254    0.0000 C   0  0  0  0  0  0  0  0  0  0  0  0
    3.9955   -6.3129    0.0000 C   0  0  0  0  0  0  0  0  0  0  0  0
    3.9955   -5.4879    0.0000 C   0  0  0  0  0  0  0  0  0  0  0  0
    4.7100   -5.0754    0.0000 C   0  0  0  0  0  0  0  0  0  0  0  0
    5.4245   -5.4879    0.0000 C   0  0  0  0  0  0  0  0  0  0  0  0
    5.4245   -6.3129    0.0000 C   0  0  0  0  0  0  0  0  0  0  0  0
    4.7100   -4.2504    0.0000 O   0  0  0  0  0  0  0  0  0  0  0  0
    3.2811   -5.0754    0.0000 O   0  0  0  0  0  0  0  0  0  0  0  0
    6.8534   -5.4879    0.0000 C   0  0  0  0  0  0  0  0  0  0  0  0
    6.1390   -5.0754    0.0000 C   0  0  0  0  0  0  0  0  0  0  0  0
    6.1390   -4.2504    0.0000 C   0  0  0  0  0  0  0  0  0  0  0  0
    6.8534   -3.8379    0.0000 C   0  0  0  0  0  0  0  0  0  0  0  0
    7.5679   -4.2504    0.0000 C   0  0  0  0  0  0  0  0  0  0  0  0
    7.5679   -5.0754    0.0000 C   0  0  0  0  0  0  0  0  0  0  0  0
    6.8534   -3.0129    0.0000 O   0  0  0  0  0  0  0  0  0  0  0  0
    5.4245   -3.8379    0.0000 O   0  0  0  0  0  0  0  0  0  0  0  0
  1  2  1  0  0  0  0
  2  3  1  0  0  0  0
  3  4  1  0  0  0  0
  4  5  1  0  0  0  0
  5  6  2  0  0  0  0
  6  7  1  0  0  0  0
  7  8  2  0  0  0  0
  8  9  1  0  0  0  0
  4  9  2  0  0  0  0
  9 10  1  0  0  0  0
  1 10  1  0  0  0  0
 11 12  1  0  0  0  0
 12 13  1  0  0  0  0
 13 14  1  0  0  0  0
 14  7  1  0  0  0  0
 11  8  1  0  0  0  0
 13 15  2  0  0  0  0
  5 16  1  0  0  0  0
  2 17  1  6  0  0  0
 18 19  1  0  0  0  0
 19 20  1  0  0  0  0
 20 21  1  0  0  0  0
 21 22  1  0  0  0  0
 22 23  2  0  0  0  0
 23 24  1  0  0  0  0
 24 25  2  0  0  0  0
 25 26  1  0  0  0  0
 21 26  2  0  0  0  0
 26 27  1  0  0  0  0
 18 27  1  0  0  0  0
 24 28  1  0  0  0  0
 22 29  1  0  0  0  0
 19 30  1  1  0  0  0
 31 32  1  0  0  0  0
 32 33  2  0  0  0  0
 33 34  1  0  0  0  0
 34 35  2  0  0  0  0
 35 36  1  0  0  0  0
 31 36  2  0  0  0  0
 34 37  1  0  0  0  0
 33 38  1  0  0  0  0
 18 31  1  6  0  0  0
  3 25  1  1  0  0  0
 39 40  1  0  0  0  0
 40 41  2  0  0  0  0
 41 42  1  0  0  0  0
 42 43  2  0  0  0  0
 43 44  1  0  0  0  0
 39 44  2  0  0  0  0
 42 45  1  0  0  0  0
 41 46  1  0  0  0  0
 11 39  1  6  0  0  0
 47 48  1  0  0  0  0
 48 49  2  0  0  0  0
 49 50  1  0  0  0  0
 50 51  2  0  0  0  0
 51 52  1  0  0  0  0
 47 52  2  0  0  0  0
 50 53  1  0  0  0  0
 49 54  1  0  0  0  0
  1 47  1  6  0  0  0
M  END
>  <cdx:groupId>
3683

>  <cdx:fragmentId>
3551

$$$$
