301558.cdx
  Mrv1902 05222410242D          

 13 12  0  0  0  0            999 V2000
    8.1395   -6.4366    0.0000 C   0  0  0  0  0  0  0  0  0  0  0  0
    8.8539   -6.8491    0.0000 C   0  0  0  0  0  0  0  0  0  0  0  0
    9.5684   -6.4366    0.0000 C   0  0  0  0  0  0  0  0  0  0  0  0
    9.5684   -5.6116    0.0000 C   0  0  0  0  0  0  0  0  0  0  0  0
    8.1395   -5.6116    0.0000 O   0  0  0  0  0  0  0  0  0  0  0  0
    7.4250   -6.8491    0.0000 O   0  0  0  0  0  0  0  0  0  0  0  0
   10.2829   -6.8491    0.0000 C   0  0  0  0  0  0  0  0  0  0  0  0
    6.7105   -6.4366    0.0000 C   0  0  0  0  0  0  0  0  0  0  0  0
    5.9961   -6.8491    0.0000 C   0  0  0  0  0  0  0  0  0  0  0  0
    5.2816   -6.4366    0.0000 C   0  0  0  0  0  0  0  0  0  0  0  0
    4.5671   -6.8491    0.0000 C   0  0  0  0  0  0  0  0  0  0  0  0
    6.7105   -5.6116    0.0000 O   0  0  0  0  0  0  0  0  0  0  0  0
    5.2816   -5.6116    0.0000 C   0  0  0  0  0  0  0  0  0  0  0  0
  1  2  1  0  0  0  0
  2  3  1  0  0  0  0
  3  4  1  0  0  0  0
  1  5  2  0  0  0  0
  1  6  1  0  0  0  0
  3  7  1  0  0  0  0
  8  9  1  0  0  0  0
  9 10  1  0  0  0  0
 10 11  1  0  0  0  0
  8 12  2  0  0  0  0
 10 13  1  0  0  0  0
  6  8  1  0  0  0  0
M  END
>  <cdx:groupId>
155

>  <cdx:fragmentId>
120

$$$$
