301596.cdx
  Mrv1902 05222410212D          

 45 48  0  0  0  0            999 V2000
    7.0283   -8.2241    0.0000 O   0  0  0  0  0  0  0  0  0  0  0  0
    7.7321   -6.9805    0.0000 O   0  0  0  0  0  0  0  0  0  0  0  0
    7.0212   -7.3991    0.0000 C   0  0  2  0  0  0  0  0  0  0  0  0
    6.3032   -6.9928    0.0000 C   0  0  1  0  0  0  0  0  0  0  0  0
    6.2961   -6.1678    0.0000 C   0  0  2  0  0  0  0  0  0  0  0  0
    7.0071   -5.7492    0.0000 C   0  0  1  0  0  0  0  0  0  0  0  0
    7.7250   -6.1556    0.0000 C   0  0  1  0  0  0  0  0  0  0  0  0
    8.4359   -5.7369    0.0000 C   0  0  0  0  0  0  0  0  0  0  0  0
    9.1539   -6.1433    0.0000 O   0  0  0  0  0  0  0  0  0  0  0  0
   10.5828   -6.1310    0.0000 O   0  0  0  0  0  0  0  0  0  0  0  0
    9.8648   -5.7247    0.0000 C   0  0  2  0  0  0  0  0  0  0  0  0
    9.8578   -4.8997    0.0000 C   0  0  1  0  0  0  0  0  0  0  0  0
   10.5687   -4.4811    0.0000 C   0  0  2  0  0  0  0  0  0  0  0  0
   11.2866   -4.8875    0.0000 C   0  0  1  0  0  0  0  0  0  0  0  0
   11.2937   -5.7124    0.0000 C   0  0  1  0  0  0  0  0  0  0  0  0
   12.0117   -6.1188    0.0000 C   0  0  0  0  0  0  0  0  0  0  0  0
   12.7226   -5.7002    0.0000 O   0  0  0  0  0  0  0  0  0  0  0  0
   11.9976   -4.4689    0.0000 O   0  0  0  0  0  0  0  0  0  0  0  0
   10.5616   -3.6561    0.0000 O   0  0  0  0  0  0  0  0  0  0  0  0
    9.1398   -4.4934    0.0000 O   0  0  0  0  0  0  0  0  0  0  0  0
    7.0000   -4.9242    0.0000 O   0  0  0  0  0  0  0  0  0  0  0  0
    5.5782   -5.7614    0.0000 O   0  0  0  0  0  0  0  0  0  0  0  0
    5.5923   -7.4114    0.0000 O   0  0  0  0  0  0  0  0  0  0  0  0
    7.0212  -12.3610    0.0000 C   0  0  0  0  0  0  0  0  0  0  0  0
    7.0074  -13.1859    0.0000 C   0  0  0  0  0  0  0  0  0  0  0  0
    7.7148  -13.6104    0.0000 C   0  0  0  0  0  0  0  0  0  0  0  0
    8.4361  -13.2099    0.0000 C   0  0  0  0  0  0  0  0  0  0  0  0
    7.7425  -11.9606    0.0000 O   0  0  0  0  0  0  0  0  0  0  0  0
    6.3138  -11.9366    0.0000 O   0  0  0  0  0  0  0  0  0  0  0  0
    5.5993  -11.5241    0.0000 H   0  0  0  0  0  0  0  0  0  0  0  0
    5.5993   -9.0491    0.0000 H   0  0  0  0  0  0  0  0  0  0  0  0
    3.5048  -10.2866    0.0000 O   0  0  0  0  0  0  0  0  0  0  0  0
    3.7528  -11.9102    0.0000 O   0  0  0  0  0  0  0  0  0  0  0  0
    4.5598  -11.7387    0.0000 C   0  0  0  0  0  0  0  0  0  0  0  0
    6.3138   -8.6366    0.0000 C   0  0  0  0  0  0  0  0  0  0  0  0
    4.8147  -10.9540    0.0000 C   0  0  2  0  0  0  0  0  0  0  0  0
    4.3298  -10.2866    0.0000 C   0  0  2  0  0  0  0  0  0  0  0  0
    4.8147   -9.6192    0.0000 C   0  0  0  0  0  0  0  0  0  0  0  0
    7.0283  -10.6991    0.0000 O   0  0  0  0  0  0  0  0  0  0  0  0
    7.0283   -9.8741    0.0000 C   0  0  0  0  0  0  0  0  0  0  0  0
    6.3138   -9.4616    0.0000 C   0  0  0  0  0  0  0  0  0  0  0  0
    5.5993   -9.8741    0.0000 C   0  0  2  0  0  0  0  0  0  0  0  0
    5.5993  -10.6991    0.0000 C   0  0  2  0  0  0  0  0  0  0  0  0
    6.3138  -11.1116    0.0000 C   0  0  2  0  0  0  0  0  0  0  0  0
    7.7010  -14.4353    0.0000 C   0  0  0  0  0  0  0  0  0  0  0  0
 43 30  1  1  0  0  0
 42 31  1  1  0  0  0
 44 29  1  1  0  0  0
 37 32  1  1  0  0  0
 36 34  1  6  0  0  0
 34 33  1  0  0  0  0
 41 35  1  0  0  0  0
 35  1  1  0  0  0  0
  2  3  1  0  0  0  0
 38 42  1  0  0  0  0
 36 43  1  0  0  0  0
 37 36  1  0  0  0  0
 38 37  1  0  0  0  0
 44 39  1  0  0  0  0
 40 39  1  0  0  0  0
 41 40  2  0  0  0  0
 42 41  1  0  0  0  0
 43 42  1  0  0  0  0
 44 43  1  0  0  0  0
  3  4  1  0  0  0  0
  4  5  1  0  0  0  0
  5  6  1  0  0  0  0
  6  7  1  0  0  0  0
  2  7  1  0  0  0  0
 10 11  1  0  0  0  0
 11 12  1  0  0  0  0
 12 13  1  0  0  0  0
 13 14  1  0  0  0  0
 14 15  1  0  0  0  0
 10 15  1  0  0  0  0
 16 17  1  0  0  0  0
 15 16  1  1  0  0  0
 14 18  1  6  0  0  0
 13 19  1  1  0  0  0
 12 20  1  6  0  0  0
 11  9  1  1  0  0  0
  8  9  1  0  0  0  0
  7  8  1  1  0  0  0
  6 21  1  6  0  0  0
  5 22  1  1  0  0  0
  4 23  1  6  0  0  0
  3  1  1  1  0  0  0
 24 25  1  0  0  0  0
 25 26  1  0  0  0  0
 26 27  1  0  0  0  0
 24 28  2  0  0  0  0
 24 29  1  0  0  0  0
 26 45  1  0  0  0  0
M  END
>  <cdx:groupId>
4125

>  <cdx:fragmentId>
4042

$$$$
