301582.cdx
  Mrv1902 05222410212D          

 11 10  0  0  0  0            999 V2000
    1.5807   -6.6134    0.0000 Si  0  0  0  0  0  0  0  0  0  0  0  0
    2.3068   -6.2216    0.0000 O   0  0  0  0  0  0  0  0  0  0  0  0
    3.0083   -6.6541    0.0000 Si  0  0  0  0  0  0  0  0  0  0  0  0
    3.7335   -6.2628    0.0000 O   0  0  0  0  0  0  0  0  0  0  0  0
    4.4350   -6.6953    0.0000 Si  0  0  0  0  0  0  0  0  0  0  0  0
    5.1602   -6.3040    0.0000 O   0  0  0  0  0  0  0  0  0  0  0  0
    5.8616   -6.7365    0.0000 Si  0  0  0  0  0  0  0  0  0  0  0  0
    6.5869   -6.3452    0.0000 O   0  0  0  0  0  0  0  0  0  0  0  0
    7.2883   -6.7777    0.0000 Si  0  0  0  0  0  0  0  0  0  0  0  0
    8.0136   -6.3864    0.0000 O   0  0  0  0  0  0  0  0  0  0  0  0
    8.7150   -6.8189    0.0000 Si  0  0  0  0  0  0  0  0  0  0  0  0
  1  2  1  0  0  0  0
  2  3  1  0  0  0  0
  3  4  1  0  0  0  0
  4  5  1  0  0  0  0
  5  6  1  0  0  0  0
  6  7  1  0  0  0  0
  7  8  1  0  0  0  0
  8  9  1  0  0  0  0
  9 10  1  0  0  0  0
 10 11  1  0  0  0  0
M  END
>  <cdx:fragmentId>
627

$$$$
