301537.cdx
  Mrv1902 05222410182D          

  9  9  0  0  0  0            999 V2000
    6.8172   -8.0892    0.0000 C   0  0  0  0  0  0  0  0  0  0  0  0
    7.5329   -8.4996    0.0000 C   0  0  0  0  0  0  0  0  0  0  0  0
    6.1040   -8.5038    0.0000 N   0  0  0  0  0  0  0  0  0  0  0  0
    7.5353   -9.3246    0.0000 N   0  0  0  0  0  0  0  0  0  0  0  0
    6.8220   -9.7392    0.0000 C   0  0  0  0  0  0  0  0  0  0  0  0
    6.1064   -9.3287    0.0000 C   0  0  0  0  0  0  0  0  0  0  0  0
    7.5281   -6.8496    0.0000 C   0  0  0  0  0  0  0  0  0  0  0  0
    6.8149   -7.2642    0.0000 C   0  0  0  0  0  0  0  0  0  0  0  0
    6.0992   -6.8538    0.0000 C   0  0  0  0  0  0  0  0  0  0  0  0
  1  2  1  0  0  0  0
  1  3  2  0  0  0  0
  2  4  2  0  0  0  0
  4  5  1  0  0  0  0
  5  6  2  0  0  0  0
  3  6  1  0  0  0  0
  7  8  1  0  0  0  0
  8  9  1  0  0  0  0
  1  8  1  0  0  0  0
M  END
>  <cdx:fragmentId>
642

$$$$
