301526.cdx
  Mrv1902 05222410192D          

 20 22  0  0  0  0            999 V2000
    9.1644   -5.8179    0.0000 O   0  0  0  0  0  0  0  0  0  0  0  0
    8.4500   -6.2304    0.0000 C   0  0  2  0  0  0  0  0  0  0  0  0
    8.4500   -5.4054    0.0000 C   0  0  1  0  0  0  0  0  0  0  0  0
    7.7355   -6.6429    0.0000 C   0  0  2  0  0  0  0  0  0  0  0  0
    7.7355   -4.9929    0.0000 C   0  0  0  0  0  0  0  0  0  0  0  0
    7.0210   -5.4054    0.0000 C   0  0  0  0  0  0  0  0  0  0  0  0
    6.3065   -4.9929    0.0000 C   0  0  0  0  0  0  0  0  0  0  0  0
    5.5921   -5.4054    0.0000 C   0  0  0  0  0  0  0  0  0  0  0  0
    5.5921   -6.2304    0.0000 C   0  0  0  0  0  0  0  0  0  0  0  0
    6.3065   -6.6429    0.0000 C   0  0  2  0  0  0  0  0  0  0  0  0
    7.0210   -6.2304    0.0000 C   0  0  2  0  0  0  0  0  0  0  0  0
    7.7355   -4.1679    0.0000 O   0  0  0  0  0  0  0  0  0  0  0  0
    6.3065   -7.4679    0.0000 C   0  0  0  0  0  0  0  0  0  0  0  0
    7.0210   -7.0554    0.0000 C   0  0  0  0  0  0  0  0  0  0  0  0
    7.0210   -7.8804    0.0000 C   0  0  0  0  0  0  0  0  0  0  0  0
    7.7355   -7.4679    0.0000 C   0  0  0  0  0  0  0  0  0  0  0  0
    8.4500   -7.8804    0.0000 C   0  0  0  0  0  0  0  0  0  0  0  0
    7.7355   -8.2929    0.0000 O   0  0  0  0  0  0  0  0  0  0  0  0
    8.8625   -6.9448    0.0000 H   0  0  0  0  0  0  0  0  0  0  0  0
    8.8625   -4.6909    0.0000 H   0  0  0  0  0  0  0  0  0  0  0  0
  1  2  1  0  0  0  0
  2  3  1  0  0  0  0
  1  3  1  0  0  0  0
  5  6  1  0  0  0  0
  6  7  2  0  0  0  0
  7  8  1  0  0  0  0
  8  9  1  0  0  0  0
  9 10  1  0  0  0  0
 10 11  1  0  0  0  0
  4 11  1  0  0  0  0
  6 11  1  0  0  0  0
  4  2  1  0  0  0  0
  5  3  1  0  0  0  0
  5 12  2  0  0  0  0
 10 13  1  6  0  0  0
 11 14  1  6  0  0  0
 15 16  1  0  0  0  0
 16 17  1  0  0  0  0
 16 18  1  0  0  0  0
  4 16  1  1  0  0  0
  2 19  1  6  0  0  0
  3 20  1  6  0  0  0
M  END
>  <cdx:groupId>
1426

>  <cdx:fragmentId>
1375

$$$$
