301660.cdx
  Mrv1902 05222410272D          

 55 60  0  0  0  0            999 V2000
    4.7693   -7.6714    0.0000 C   0  0  0  0  0  0  0  0  0  0  0  0
    4.7693   -8.4964    0.0000 C   0  0  0  0  0  0  0  0  0  0  0  0
    5.4838   -8.9089    0.0000 C   0  0  0  0  0  0  0  0  0  0  0  0
    6.1982   -8.4964    0.0000 C   0  0  0  0  0  0  0  0  0  0  0  0
    6.1982   -7.6714    0.0000 C   0  0  0  0  0  0  0  0  0  0  0  0
    5.4838   -7.2589    0.0000 C   0  0  0  0  0  0  0  0  0  0  0  0
    6.9127   -8.9089    0.0000 C   0  0  0  0  0  0  0  0  0  0  0  0
    7.6272   -8.4964    0.0000 C   0  0  0  0  0  0  0  0  0  0  0  0
    7.6272   -7.6714    0.0000 C   0  0  0  0  0  0  0  0  0  0  0  0
    6.9127   -7.2589    0.0000 O   0  0  0  0  0  0  0  0  0  0  0  0
    8.3417   -8.9089    0.0000 O   0  0  0  0  0  0  0  0  0  0  0  0
    9.0561   -7.6714    0.0000 C   0  0  0  0  0  0  0  0  0  0  0  0
    8.3417   -7.2589    0.0000 C   0  0  0  0  0  0  0  0  0  0  0  0
    9.7706   -7.2589    0.0000 C   0  0  0  0  0  0  0  0  0  0  0  0
    9.7706   -6.4339    0.0000 C   0  0  0  0  0  0  0  0  0  0  0  0
    9.0561   -6.0214    0.0000 C   0  0  0  0  0  0  0  0  0  0  0  0
    8.3417   -6.4339    0.0000 C   0  0  0  0  0  0  0  0  0  0  0  0
    5.4838   -9.7339    0.0000 O   0  0  0  0  0  0  0  0  0  0  0  0
    6.9127   -9.7339    0.0000 O   0  0  0  0  0  0  0  0  0  0  0  0
    7.6272  -10.1464    0.0000 O   0  0  0  0  0  0  0  0  0  0  0  0
    8.3417   -9.7339    0.0000 C   0  0  2  0  0  0  0  0  0  0  0  0
    7.6272  -10.9714    0.0000 C   0  0  1  0  0  0  0  0  0  0  0  0
    8.3417  -11.3839    0.0000 C   0  0  2  0  0  0  0  0  0  0  0  0
    9.0561  -10.9714    0.0000 C   0  0  1  0  0  0  0  0  0  0  0  0
    9.0561  -10.1464    0.0000 C   0  0  1  0  0  0  0  0  0  0  0  0
    9.7706  -11.3839    0.0000 O   0  0  0  0  0  0  0  0  0  0  0  0
    9.7706   -9.7339    0.0000 O   0  0  0  0  0  0  0  0  0  0  0  0
   10.4851   -6.0214    0.0000 O   0  0  0  0  0  0  0  0  0  0  0  0
    4.0548   -7.2589    0.0000 O   0  0  0  0  0  0  0  0  0  0  0  0
    6.9127  -11.3839    0.0000 C   0  0  0  0  0  0  0  0  0  0  0  0
    6.1982  -10.9714    0.0000 O   0  0  0  0  0  0  0  0  0  0  0  0
    8.3417  -12.2089    0.0000 O   0  0  0  0  0  0  0  0  0  0  0  0
    4.7646  -10.9637    0.0000 O   0  0  0  0  0  0  0  0  0  0  0  0
    5.4786  -11.3770    0.0000 C   0  0  2  0  0  0  0  0  0  0  0  0
    4.0496  -11.3753    0.0000 C   0  0  2  0  0  0  0  0  0  0  0  0
    4.0486  -12.2003    0.0000 C   0  0  1  0  0  0  0  0  0  0  0  0
    4.7626  -12.6137    0.0000 C   0  0  2  0  0  0  0  0  0  0  0  0
    5.4776  -12.2020    0.0000 C   0  0  1  0  0  0  0  0  0  0  0  0
    6.1915  -12.6154    0.0000 O   0  0  0  0  0  0  0  0  0  0  0  0
    4.7616  -13.4387    0.0000 O   0  0  0  0  0  0  0  0  0  0  0  0
    3.3356  -10.9619    0.0000 C   0  0  0  0  0  0  0  0  0  0  0  0
    3.3337  -12.6119    0.0000 O   0  0  0  0  0  0  0  0  0  0  0  0
    6.1906  -13.4404    0.0000 C   0  0  0  0  0  0  0  0  0  0  0  0
    6.9045  -13.8537    0.0000 C   0  0  0  0  0  0  0  0  0  0  0  0
    5.4756  -13.8520    0.0000 O   0  0  0  0  0  0  0  0  0  0  0  0
    6.9031  -14.6787    0.0000 C   0  0  0  0  0  0  0  0  0  0  0  0
    7.6168  -15.0925    0.0000 C   0  0  0  0  0  0  0  0  0  0  0  0
    8.3320  -14.6787    0.0000 C   0  0  0  0  0  0  0  0  0  0  0  0
    8.3320  -13.8537    0.0000 C   0  0  0  0  0  0  0  0  0  0  0  0
    7.6168  -13.4399    0.0000 C   0  0  0  0  0  0  0  0  0  0  0  0
    9.0478  -13.4409    0.0000 O   0  0  0  0  0  0  0  0  0  0  0  0
    7.6164  -15.9188    0.0000 O   0  0  0  0  0  0  0  0  0  0  0  0
    9.0478  -15.0915    0.0000 O   0  0  0  0  0  0  0  0  0  0  0  0
    8.3318  -16.3322    0.0000 C   0  0  0  0  0  0  0  0  0  0  0  0
    9.7632  -13.8544    0.0000 C   0  0  0  0  0  0  0  0  0  0  0  0
  1  2  1  0  0  0  0
  2  3  2  0  0  0  0
  3  4  1  0  0  0  0
  4  5  2  0  0  0  0
  5  6  1  0  0  0  0
  6  1  2  0  0  0  0
  4  7  1  0  0  0  0
  7  8  1  0  0  0  0
  8  9  2  0  0  0  0
  9 10  1  0  0  0  0
 10  5  1  0  0  0  0
  8 11  1  0  0  0  0
 12 13  2  0  0  0  0
 13  9  1  0  0  0  0
 12 14  1  0  0  0  0
 14 15  2  0  0  0  0
 15 16  1  0  0  0  0
 16 17  2  0  0  0  0
 17 13  1  0  0  0  0
 18  3  1  0  0  0  0
  7 19  2  0  0  0  0
 20 21  1  0  0  0  0
 21 11  1  1  0  0  0
 20 22  1  0  0  0  0
 22 23  1  0  0  0  0
 23 24  1  0  0  0  0
 24 25  1  0  0  0  0
 25 21  1  0  0  0  0
 24 26  1  1  0  0  0
 25 27  1  6  0  0  0
 15 28  1  0  0  0  0
  1 29  1  0  0  0  0
 22 30  1  1  0  0  0
 30 31  1  0  0  0  0
 23 32  1  6  0  0  0
 33 34  1  0  0  0  0
 33 35  1  0  0  0  0
 35 36  1  0  0  0  0
 36 37  1  0  0  0  0
 37 38  1  0  0  0  0
 38 34  1  0  0  0  0
 38 39  1  6  0  0  0
 37 40  1  6  0  0  0
 35 41  1  6  0  0  0
 36 42  1  1  0  0  0
 34 31  1  1  0  0  0
 39 43  1  0  0  0  0
 43 44  1  0  0  0  0
 43 45  2  0  0  0  0
 44 46  2  0  0  0  0
 46 47  1  0  0  0  0
 47 48  2  0  0  0  0
 48 49  1  0  0  0  0
 49 50  2  0  0  0  0
 50 44  1  0  0  0  0
 49 51  1  0  0  0  0
 47 52  1  0  0  0  0
 48 53  1  0  0  0  0
 52 54  1  0  0  0  0
 51 55  1  0  0  0  0
M  END
>  <cdx:fragmentId>
5

$$$$
