301670.cdx
  Mrv1902 05222410272D          

 16 15  0  0  0  0            999 V2000
    7.4250   -7.6716    0.0000 C   0  0  0  0  0  0  0  0  0  0  0  0
    3.8526   -7.2591    0.0000 C   0  0  0  0  0  0  0  0  0  0  0  0
    4.5671   -6.0216    0.0000 C   0  0  0  0  0  0  0  0  0  0  0  0
    4.5671   -6.8466    0.0000 C   0  0  0  0  0  0  0  0  0  0  0  0
    5.2816   -7.2591    0.0000 C   0  0  0  0  0  0  0  0  0  0  0  0
    5.9961   -6.8466    0.0000 C   0  0  0  0  0  0  0  0  0  0  0  0
    6.7105   -7.2591    0.0000 C   0  0  0  0  0  0  0  0  0  0  0  0
    7.4250   -6.8466    0.0000 C   0  0  0  0  0  0  0  0  0  0  0  0
    7.4250   -6.0216    0.0000 C   0  0  0  0  0  0  0  0  0  0  0  0
    6.7105   -5.6091    0.0000 C   0  0  0  0  0  0  0  0  0  0  0  0
    8.1395   -7.2591    0.0000 O   0  0  0  0  0  0  0  0  0  0  0  0
    8.8539   -6.0216    0.0000 O   0  0  0  0  0  0  0  0  0  0  0  0
   10.9974   -7.2591    0.0000 C   0  0  0  0  0  0  0  0  0  0  0  0
   10.2829   -6.8466    0.0000 C   0  0  0  0  0  0  0  0  0  0  0  0
    9.5684   -7.2591    0.0000 C   0  0  0  0  0  0  0  0  0  0  0  0
    8.8539   -6.8466    0.0000 C   0  0  0  0  0  0  0  0  0  0  0  0
 11  8  1  0  0  0  0
  8  1  1  0  0  0  0
  4  2  1  0  0  0  0
  4  3  2  0  0  0  0
  5  4  1  0  0  0  0
  6  5  1  0  0  0  0
  7  6  1  0  0  0  0
  8  7  1  0  0  0  0
  9  8  1  0  0  0  0
 10  9  2  0  0  0  0
 16 11  1  0  0  0  0
 16 12  2  0  0  0  0
 14 13  1  0  0  0  0
 15 14  1  0  0  0  0
 16 15  1  0  0  0  0
M  END
>  <cdx:fragmentId>
3282

$$$$
