301606.cdx
  Mrv1902 05222410252D          

 52 54  0  0  0  0            999 V2000
    3.7188  -14.3527    0.0000 C   0  0  1  0  0  0  0  0  0  0  0  0
    3.7188  -15.1777    0.0000 C   0  0  0  0  0  0  0  0  0  0  0  0
    4.4333  -15.5902    0.0000 C   0  0  0  0  0  0  0  0  0  0  0  0
    5.1477  -15.1777    0.0000 C   0  0  1  0  0  0  0  0  0  0  0  0
    5.1477  -14.3527    0.0000 C   0  0  2  0  0  0  0  0  0  0  0  0
    4.4333  -13.9402    0.0000 C   0  0  1  0  0  0  0  0  0  0  0  0
    5.7608  -13.8007    0.0000 C   0  0  1  0  0  0  0  0  0  0  0  0
    5.4253  -13.0470    0.0000 O   0  0  0  0  0  0  0  0  0  0  0  0
    4.6048  -13.1332    0.0000 C   0  0  2  0  0  0  0  0  0  0  0  0
    4.3913  -12.3364    0.0000 C   0  0  0  0  0  0  0  0  0  0  0  0
    4.8038  -11.6219    0.0000 C   0  0  2  0  0  0  0  0  0  0  0  0
    5.6007  -11.4084    0.0000 C   0  0  2  0  0  0  0  0  0  0  0  0
    6.3151  -11.8209    0.0000 C   0  0  0  0  0  0  0  0  0  0  0  0
    6.6693  -12.6626    0.0000 C   0  0  0  0  0  0  0  0  0  0  0  0
    6.4753  -13.3882    0.0000 C   0  0  1  0  0  0  0  0  0  0  0  0
    4.2204  -11.0385    0.0000 C   0  0  0  0  0  0  0  0  0  0  0  0
    3.3063  -13.6382    0.0000 C   0  0  0  0  0  0  0  0  0  0  0  0
    3.0043  -14.7652    0.0000 O   0  0  0  0  0  0  0  0  0  0  0  0
    3.8499  -13.3569    0.0000 H   0  0  0  0  0  0  0  0  0  0  0  0
    5.8622  -15.5902    0.0000 C   0  0  0  0  0  0  0  0  0  0  0  0
    7.1898  -13.8007    0.0000 O   0  0  0  0  0  0  0  0  0  0  0  0
    5.8142  -10.6115    0.0000 O   0  0  0  0  0  0  0  0  0  0  0  0
    4.8038  -10.7969    0.0000 O   0  0  0  0  0  0  0  0  0  0  0  0
    6.6888  -14.1851    0.0000 C   0  0  0  0  0  0  0  0  0  0  0  0
    5.9446  -14.5662    0.0000 H   0  0  0  0  0  0  0  0  0  0  0  0
    6.3442  -14.3840    0.0000 H   0  0  0  0  0  0  0  0  0  0  0  0
    3.8079  -12.9197    0.0000 H   0  0  0  0  0  0  0  0  0  0  0  0
    2.2794  -14.3715    0.0000 C   0  0  0  0  0  0  0  0  0  0  0  0
    2.2579  -13.5467    0.0000 C   0  0  0  0  0  0  0  0  0  0  0  0
    1.5759  -14.8024    0.0000 O   0  0  0  0  0  0  0  0  0  0  0  0
    5.8622  -16.4152    0.0000 C   0  0  0  0  0  0  0  0  0  0  0  0
    6.6591  -15.3767    0.0000 C   0  0  0  0  0  0  0  0  0  0  0  0
    7.9043  -13.3882    0.0000 C   0  0  0  0  0  0  0  0  0  0  0  0
    8.6187  -13.8007    0.0000 C   0  0  0  0  0  0  0  0  0  0  0  0
    9.3332  -13.3882    0.0000 C   0  0  0  0  0  0  0  0  0  0  0  0
   10.0477  -13.8007    0.0000 C   0  0  0  0  0  0  0  0  0  0  0  0
    7.9043  -12.5632    0.0000 O   0  0  0  0  0  0  0  0  0  0  0  0
    6.6111  -10.3979    0.0000 C   0  0  0  0  0  0  0  0  0  0  0  0
    6.8246   -9.6011    0.0000 C   0  0  0  0  0  0  0  0  0  0  0  0
    7.6215   -9.3875    0.0000 C   0  0  0  0  0  0  0  0  0  0  0  0
    7.8350   -8.5906    0.0000 C   0  0  0  0  0  0  0  0  0  0  0  0
    8.6319   -8.3771    0.0000 C   0  0  0  0  0  0  0  0  0  0  0  0
    8.8454   -7.5802    0.0000 C   0  0  0  0  0  0  0  0  0  0  0  0
    9.6423   -7.3667    0.0000 C   0  0  0  0  0  0  0  0  0  0  0  0
    7.1944  -10.9813    0.0000 O   0  0  0  0  0  0  0  0  0  0  0  0
    9.8559   -6.5698    0.0000 C   0  0  0  0  0  0  0  0  0  0  0  0
   10.6527   -6.3563    0.0000 C   0  0  0  0  0  0  0  0  0  0  0  0
   10.8663   -5.5594    0.0000 C   0  0  0  0  0  0  0  0  0  0  0  0
   11.6632   -5.3459    0.0000 C   0  0  0  0  0  0  0  0  0  0  0  0
   11.8767   -4.5490    0.0000 C   0  0  0  0  0  0  0  0  0  0  0  0
   12.6736   -4.3355    0.0000 C   0  0  0  0  0  0  0  0  0  0  0  0
   12.8871   -3.5386    0.0000 C   0  0  0  0  0  0  0  0  0  0  0  0
  1  2  1  0  0  0  0
  2  3  1  0  0  0  0
  3  4  1  0  0  0  0
  4  5  1  0  0  0  0
  5  6  1  0  0  0  0
  6  1  1  0  0  0  0
  5  7  1  0  0  0  0
  7  8  1  0  0  0  0
  8  9  1  0  0  0  0
  9  6  1  0  0  0  0
  9 10  1  0  0  0  0
 10 11  1  0  0  0  0
 11 12  1  0  0  0  0
 12 13  1  0  0  0  0
 13 14  1  0  0  0  0
  7 15  1  0  0  0  0
 14 15  1  0  0  0  0
 11 16  1  0  0  0  0
  1 17  1  0  0  0  0
  1 18  1  1  0  0  0
  6 19  1  1  0  0  0
  4 20  1  1  0  0  0
 15 21  1  1  0  0  0
 12 22  1  1  0  0  0
 11 23  1  6  0  0  0
 15 24  1  0  0  0  0
  5 25  1  1  0  0  0
  7 26  1  6  0  0  0
  9 27  1  6  0  0  0
 18 28  1  0  0  0  0
 28 29  1  0  0  0  0
 28 30  2  0  0  0  0
 20 31  1  0  0  0  0
 20 32  1  0  0  0  0
 21 33  1  0  0  0  0
 33 34  1  0  0  0  0
 34 35  1  0  0  0  0
 35 36  1  0  0  0  0
 33 37  2  0  0  0  0
 22 38  1  0  0  0  0
 38 39  1  0  0  0  0
 39 40  1  0  0  0  0
 40 41  1  0  0  0  0
 41 42  1  0  0  0  0
 42 43  1  0  0  0  0
 43 44  1  0  0  0  0
 38 45  2  0  0  0  0
 44 46  1  0  0  0  0
 46 47  1  0  0  0  0
 47 48  1  0  0  0  0
 48 49  1  0  0  0  0
 49 50  1  0  0  0  0
 50 51  1  0  0  0  0
 51 52  1  0  0  0  0
M  END
>  <cdx:fragmentId>
9518

$$$$
