30166.cdx
  Mrv1902 05222410252D          

 18 18  0  0  0  0            999 V2000
    6.0572   -8.5514    0.0000 C   0  0  0  0  0  0  0  0  0  0  0  0
    6.0572   -9.3764    0.0000 C   0  0  0  0  0  0  0  0  0  0  0  0
    6.7022   -9.8908    0.0000 C   0  0  0  0  0  0  0  0  0  0  0  0
    7.5065   -9.7072    0.0000 C   0  0  0  0  0  0  0  0  0  0  0  0
    7.8645   -8.9639    0.0000 C   0  0  0  0  0  0  0  0  0  0  0  0
    7.5065   -8.2206    0.0000 C   0  0  0  0  0  0  0  0  0  0  0  0
    6.7022   -8.0370    0.0000 C   0  0  0  0  0  0  0  0  0  0  0  0
    5.2726   -8.2965    0.0000 C   0  0  0  0  0  0  0  0  0  0  0  0
    4.7877   -8.9639    0.0000 C   0  0  0  0  0  0  0  0  0  0  0  0
    5.2726   -9.6313    0.0000 C   0  0  0  0  0  0  0  0  0  0  0  0
    5.0176   -7.5118    0.0000 C   0  0  0  0  0  0  0  0  0  0  0  0
    8.0209   -7.5756    0.0000 C   0  0  0  0  0  0  0  0  0  0  0  0
    8.8367   -7.6985    0.0000 C   0  0  0  0  0  0  0  0  0  0  0  0
    7.7195   -6.8076    0.0000 C   0  0  0  0  0  0  0  0  0  0  0  0
    8.6895   -8.9639    0.0000 O   0  0  0  0  0  0  0  0  0  0  0  0
    6.5186  -10.6951    0.0000 C   0  0  0  0  0  0  0  0  0  0  0  0
    6.4697   -9.2659    0.0000 H   0  0  0  0  0  0  0  0  0  0  0  0
    5.6447   -8.6619    0.0000 H   0  0  0  0  0  0  0  0  0  0  0  0
  2  3  2  0  0  0  0
  3  4  1  0  0  0  0
  4  5  1  0  0  0  0
  5  6  1  0  0  0  0
  6  7  1  0  0  0  0
  7  1  1  0  0  0  0
  1  8  2  0  0  0  0
  8  9  1  0  0  0  0
  9 10  1  0  0  0  0
 10  2  1  0  0  0  0
  8 11  1  0  0  0  0
  6 12  2  0  0  0  0
 12 13  1  0  0  0  0
 12 14  1  0  0  0  0
  5 15  2  0  0  0  0
  3 16  1  0  0  0  0
  1 17  1  0  0  0  0
  2 18  1  0  0  0  0
M  END
>  <cdx:fragmentId>
5

$$$$
