301657.cdx
  Mrv1902 05222410182D          

 55 59  0  0  0  0            999 V2000
    5.6388   -5.4054    0.0000 C   0  0  0  0  0  0  0  0  0  0  0  0
    4.9244   -5.8179    0.0000 C   0  0  0  0  0  0  0  0  0  0  0  0
    4.2099   -5.4054    0.0000 C   0  0  0  0  0  0  0  0  0  0  0  0
    5.6388   -4.5804    0.0000 O   0  0  0  0  0  0  0  0  0  0  0  0
    6.3533   -5.8179    0.0000 O   0  0  0  0  0  0  0  0  0  0  0  0
    3.4954   -5.8179    0.0000 C   0  0  0  0  0  0  0  0  0  0  0  0
    2.7809   -5.4054    0.0000 C   0  0  0  0  0  0  0  0  0  0  0  0
    2.0665   -5.8179    0.0000 C   0  0  0  0  0  0  0  0  0  0  0  0
    2.0665   -6.6429    0.0000 C   0  0  0  0  0  0  0  0  0  0  0  0
    2.7809   -7.0554    0.0000 C   0  0  0  0  0  0  0  0  0  0  0  0
    3.4954   -6.6429    0.0000 C   0  0  0  0  0  0  0  0  0  0  0  0
    1.3520   -5.4054    0.0000 O   0  0  0  0  0  0  0  0  0  0  0  0
    0.6375   -5.8179    0.0000 C   0  0  0  0  0  0  0  0  0  0  0  0
    1.3520   -7.0554    0.0000 O   0  0  0  0  0  0  0  0  0  0  0  0
    7.7822   -4.1679    0.0000 O   0  0  0  0  0  0  0  0  0  0  0  0
    7.0678   -4.5804    0.0000 C   0  0  1  0  0  0  0  0  0  0  0  0
    7.0678   -5.4054    0.0000 C   0  0  2  0  0  0  0  0  0  0  0  0
    7.7822   -5.8179    0.0000 C   0  0  1  0  0  0  0  0  0  0  0  0
    8.4967   -5.4054    0.0000 C   0  0  2  0  0  0  0  0  0  0  0  0
    8.4967   -4.5804    0.0000 C   0  0  2  0  0  0  0  0  0  0  0  0
    6.3533   -4.1679    0.0000 C   0  0  0  0  0  0  0  0  0  0  0  0
    6.3533   -3.3429    0.0000 O   0  0  0  0  0  0  0  0  0  0  0  0
    9.2112   -4.1679    0.0000 O   0  0  0  0  0  0  0  0  0  0  0  0
    9.9256   -4.5804    0.0000 C   0  0  0  0  0  0  0  0  0  0  0  0
   10.6401   -4.1679    0.0000 C   0  0  0  0  0  0  0  0  0  0  0  0
   11.3546   -4.5804    0.0000 C   0  0  0  0  0  0  0  0  0  0  0  0
   12.0691   -4.1679    0.0000 C   0  0  0  0  0  0  0  0  0  0  0  0
   12.7835   -4.5804    0.0000 C   0  0  0  0  0  0  0  0  0  0  0  0
   12.7835   -5.4054    0.0000 C   0  0  0  0  0  0  0  0  0  0  0  0
   12.0691   -5.8179    0.0000 C   0  0  0  0  0  0  0  0  0  0  0  0
   11.3546   -5.4054    0.0000 C   0  0  0  0  0  0  0  0  0  0  0  0
   13.4980   -5.8179    0.0000 O   0  0  0  0  0  0  0  0  0  0  0  0
   14.2125   -5.4054    0.0000 C   0  0  0  0  0  0  0  0  0  0  0  0
   13.4980   -4.1679    0.0000 O   0  0  0  0  0  0  0  0  0  0  0  0
    9.2112   -5.8179    0.0000 O   0  0  0  0  0  0  0  0  0  0  0  0
    7.7822   -6.6429    0.0000 O   0  0  0  0  0  0  0  0  0  0  0  0
    6.3533   -6.6429    0.0000 O   0  0  0  0  0  0  0  0  0  0  0  0
    7.0678   -7.0554    0.0000 C   0  0  2  0  0  0  0  0  0  0  0  0
    7.0678   -7.8804    0.0000 C   0  0  1  0  0  0  0  0  0  0  0  0
    6.3533   -8.2929    0.0000 C   0  0  1  0  0  0  0  0  0  0  0  0
    5.6388   -7.8804    0.0000 C   0  0  2  0  0  0  0  0  0  0  0  0
    5.6388   -7.0554    0.0000 C   0  0  2  0  0  0  0  0  0  0  0  0
    4.9244   -6.6429    0.0000 C   0  0  0  0  0  0  0  0  0  0  0  0
    4.9244   -8.2929    0.0000 O   0  0  0  0  0  0  0  0  0  0  0  0
    6.3533   -9.1179    0.0000 O   0  0  0  0  0  0  0  0  0  0  0  0
    9.2112   -9.1179    0.0000 O   0  0  0  0  0  0  0  0  0  0  0  0
    9.2112  -10.7679    0.0000 O   0  0  0  0  0  0  0  0  0  0  0  0
    7.7822  -11.5929    0.0000 O   0  0  0  0  0  0  0  0  0  0  0  0
    7.0678  -10.3554    0.0000 C   0  0  0  0  0  0  0  0  0  0  0  0
    7.7822  -10.7679    0.0000 C   0  0  1  0  0  0  0  0  0  0  0  0
    8.4967  -10.3554    0.0000 C   0  0  1  0  0  0  0  0  0  0  0  0
    8.4967   -9.5304    0.0000 C   0  0  2  0  0  0  0  0  0  0  0  0
    7.7822   -9.1179    0.0000 C   0  0  1  0  0  0  0  0  0  0  0  0
    7.0678   -9.5304    0.0000 O   0  0  0  0  0  0  0  0  0  0  0  0
    7.7822   -8.2929    0.0000 O   0  0  0  0  0  0  0  0  0  0  0  0
 53 55  1  1  0  0  0
 52 46  1  6  0  0  0
 51 47  1  1  0  0  0
 50 48  1  1  0  0  0
 54 49  1  0  0  0  0
 50 49  1  0  0  0  0
 51 50  1  0  0  0  0
 52 51  1  0  0  0  0
 53 52  1  0  0  0  0
 54 53  1  0  0  0  0
  1  2  1  0  0  0  0
  2  3  2  0  0  0  0
  1  4  2  0  0  0  0
  1  5  1  0  0  0  0
  6  7  1  0  0  0  0
  7  8  2  0  0  0  0
  8  9  1  0  0  0  0
  9 10  2  0  0  0  0
 10 11  1  0  0  0  0
  6 11  2  0  0  0  0
 12 13  1  0  0  0  0
  8 12  1  0  0  0  0
  9 14  1  0  0  0  0
  3  6  1  0  0  0  0
 15 16  1  0  0  0  0
 16 17  1  0  0  0  0
 17 18  1  0  0  0  0
 18 19  1  0  0  0  0
 19 20  1  0  0  0  0
 15 20  1  0  0  0  0
 21 22  1  0  0  0  0
 16 21  1  1  0  0  0
 24 25  1  0  0  0  0
 23 24  1  0  0  0  0
 26 27  1  0  0  0  0
 27 28  2  0  0  0  0
 28 29  1  0  0  0  0
 29 30  2  0  0  0  0
 30 31  1  0  0  0  0
 26 31  2  0  0  0  0
 32 33  1  0  0  0  0
 29 32  1  0  0  0  0
 28 34  1  0  0  0  0
 25 26  1  0  0  0  0
 20 23  1  1  0  0  0
 19 35  1  6  0  0  0
 37 38  1  0  0  0  0
 38 39  1  0  0  0  0
 39 40  1  0  0  0  0
 40 41  1  0  0  0  0
 41 42  1  0  0  0  0
 37 42  1  0  0  0  0
 39 55  1  6  0  0  0
 42 43  1  6  0  0  0
 41 44  1  1  0  0  0
 40 45  1  6  0  0  0
 38 36  1  1  0  0  0
 18 36  1  1  0  0  0
 17  5  1  6  0  0  0
M  END
>  <cdx:groupId>
1850

>  <cdx:fragmentId>
1734

$$$$
