301654.cdx
  Mrv1902 05222410192D          

 13 14  0  0  0  0            999 V2000
    7.7355   -7.0554    0.0000 C   0  0  0  0  0  0  0  0  0  0  0  0
    8.4500   -6.6429    0.0000 C   0  0  0  0  0  0  0  0  0  0  0  0
    8.4500   -5.8179    0.0000 C   0  0  0  0  0  0  0  0  0  0  0  0
    7.7355   -5.4054    0.0000 C   0  0  0  0  0  0  0  0  0  0  0  0
    7.0210   -5.8179    0.0000 C   0  0  0  0  0  0  0  0  0  0  0  0
    6.3065   -5.4054    0.0000 C   0  0  0  0  0  0  0  0  0  0  0  0
    5.5921   -5.8179    0.0000 C   0  0  0  0  0  0  0  0  0  0  0  0
    5.5921   -6.6429    0.0000 C   0  0  0  0  0  0  0  0  0  0  0  0
    6.3065   -7.0554    0.0000 C   0  0  0  0  0  0  0  0  0  0  0  0
    7.0210   -6.6429    0.0000 C   0  0  0  0  0  0  0  0  0  0  0  0
    7.7355   -7.8804    0.0000 O   0  0  0  0  0  0  0  0  0  0  0  0
    9.1644   -7.0554    0.0000 O   0  0  0  0  0  0  0  0  0  0  0  0
    7.7355   -4.5804    0.0000 O   0  0  0  0  0  0  0  0  0  0  0  0
  1  2  1  0  0  0  0
  2  3  1  0  0  0  0
  3  4  2  0  0  0  0
  4  5  1  0  0  0  0
  5  6  1  0  0  0  0
  6  7  2  0  0  0  0
  7  8  1  0  0  0  0
  8  9  2  0  0  0  0
  9 10  1  0  0  0  0
  1 10  1  0  0  0  0
  5 10  2  0  0  0  0
  1 11  2  0  0  0  0
  2 12  2  0  0  0  0
  4 13  1  0  0  0  0
M  END
>  <cdx:groupId>
1498

>  <cdx:fragmentId>
1461

$$$$
