30163.cdx
  Mrv1902 05222410242D          

 20 21  0  0  0  0            999 V2000
    5.2506   -7.2176    0.0000 C   0  0  0  0  0  0  0  0  0  0  0  0
    5.2506   -8.0426    0.0000 C   0  0  0  0  0  0  0  0  0  0  0  0
    5.9650   -8.4551    0.0000 C   0  0  0  0  0  0  0  0  0  0  0  0
    6.6795   -8.0426    0.0000 C   0  0  0  0  0  0  0  0  0  0  0  0
    6.6795   -7.2176    0.0000 C   0  0  0  0  0  0  0  0  0  0  0  0
    5.9650   -6.8051    0.0000 C   0  0  0  0  0  0  0  0  0  0  0  0
    7.3940   -8.4551    0.0000 C   0  0  0  0  0  0  0  0  0  0  0  0
    8.1084   -8.0426    0.0000 C   0  0  0  0  0  0  0  0  0  0  0  0
    8.1084   -7.2176    0.0000 C   0  0  0  0  0  0  0  0  0  0  0  0
    7.3940   -6.8051    0.0000 C   0  0  0  0  0  0  0  0  0  0  0  0
    4.5361   -8.4551    0.0000 O   0  0  0  0  0  0  0  0  0  0  0  0
    6.6795   -6.3926    0.0000 C   0  0  0  0  0  0  0  0  0  0  0  0
    6.6795   -8.8676    0.0000 C   0  0  0  0  0  0  0  0  0  0  0  0
    5.9650   -9.2801    0.0000 O   0  0  0  0  0  0  0  0  0  0  0  0
    7.3940   -9.2801    0.0000 C   0  0  0  0  0  0  0  0  0  0  0  0
    8.1084   -8.8676    0.0000 C   0  0  0  0  0  0  0  0  0  0  0  0
    8.8229   -9.2801    0.0000 C   0  0  0  0  0  0  0  0  0  0  0  0
    9.5374   -8.8676    0.0000 O   0  0  0  0  0  0  0  0  0  0  0  0
   10.2519   -9.2801    0.0000 C   0  0  0  0  0  0  0  0  0  0  0  0
    8.8229  -10.1051    0.0000 O   0  0  0  0  0  0  0  0  0  0  0  0
  1  2  1  0  0  0  0
  2  3  1  0  0  0  0
  3  4  1  0  0  0  0
  4  5  1  0  0  0  0
  5  6  1  0  0  0  0
  6  1  1  0  0  0  0
  4  7  1  0  0  0  0
  7  8  1  0  0  0  0
  8  9  1  0  0  0  0
  9 10  1  0  0  0  0
 10  5  1  0  0  0  0
  2 11  2  0  0  0  0
  5 12  1  0  0  0  0
  4 13  1  0  0  0  0
 13 14  1  0  0  0  0
 13 15  1  0  0  0  0
 15 16  2  0  0  0  0
 16 17  1  0  0  0  0
 17 18  1  0  0  0  0
 18 19  1  0  0  0  0
 17 20  2  0  0  0  0
M  END
>  <cdx:fragmentId>
5

$$$$
