301617.cdx
  Mrv1902 05222410242D          

 66 74  0  0  0  0            999 V2000
   15.8013   -9.7044    0.0000 C   0  0  1  0  0  0  0  0  0  0  0  0
   16.5127   -9.2868    0.0000 C   0  0  2  0  0  0  0  0  0  0  0  0
   17.2992   -9.5360    0.0000 C   0  0  0  0  0  0  0  0  0  0  0  0
   17.7793   -8.8651    0.0000 C   0  0  2  0  0  0  0  0  0  0  0  0
   18.5620   -8.6045    0.0000 O   0  0  0  0  0  0  0  0  0  0  0  0
   18.5561   -7.7795    0.0000 C   0  0  2  0  0  0  0  0  0  0  0  0
   17.7696   -7.5303    0.0000 C   0  0  2  0  0  0  0  0  0  0  0  0
   17.2895   -8.2012    0.0000 C   0  0  2  0  0  0  0  0  0  0  0  0
   16.5068   -8.4618    0.0000 C   0  0  1  0  0  0  0  0  0  0  0  0
   15.7894   -8.0544    0.0000 C   0  0  0  0  0  0  0  0  0  0  0  0
   15.0779   -8.4721    0.0000 C   0  0  0  0  0  0  0  0  0  0  0  0
   15.0838   -9.2971    0.0000 C   0  0  2  0  0  0  0  0  0  0  0  0
   14.3724   -9.7147    0.0000 C   0  0  1  0  0  0  0  0  0  0  0  0
   13.6549   -9.3074    0.0000 C   0  0  0  0  0  0  0  0  0  0  0  0
   12.9435   -9.7250    0.0000 C   0  0  0  0  0  0  0  0  0  0  0  0
   12.9494  -10.5500    0.0000 C   0  0  1  0  0  0  0  0  0  0  0  0
   13.6668  -10.9573    0.0000 C   0  0  0  0  0  0  0  0  0  0  0  0
   14.3783  -10.5397    0.0000 C   0  0  0  0  0  0  0  0  0  0  0  0
   15.0958  -10.9470    0.0000 C   0  0  0  0  0  0  0  0  0  0  0  0
   15.8072  -10.5294    0.0000 C   0  0  0  0  0  0  0  0  0  0  0  0
   18.4639   -6.9597    0.0000 O   0  0  0  0  0  0  0  0  0  0  0  0
   19.3122   -8.1096    0.0000 C   0  0  0  0  0  0  0  0  0  0  0  0
   19.9761   -7.6199    0.0000 C   0  0  0  0  0  0  0  0  0  0  0  0
   19.8839   -6.8001    0.0000 C   0  0  2  0  0  0  0  0  0  0  0  0
   19.1278   -6.4700    0.0000 C   0  0  0  0  0  0  0  0  0  0  0  0
   12.2379  -10.9677    0.0000 O   0  0  0  0  0  0  0  0  0  0  0  0
   14.3664   -8.8897    0.0000 C   0  0  0  0  0  0  0  0  0  0  0  0
   16.5068   -7.6368    0.0000 C   0  0  0  0  0  0  0  0  0  0  0  0
   17.5090   -6.7475    0.0000 C   0  0  0  0  0  0  0  0  0  0  0  0
   20.5478   -6.3103    0.0000 C   0  0  0  0  0  0  0  0  0  0  0  0
   15.7953   -8.8794    0.0000 H   0  0  0  0  0  0  0  0  0  0  0  0
   18.2690   -9.5290    0.0000 H   0  0  0  0  0  0  0  0  0  0  0  0
   16.9225   -7.4623    0.0000 H   0  0  0  0  0  0  0  0  0  0  0  0
   15.0898  -10.1220    0.0000 H   0  0  0  0  0  0  0  0  0  0  0  0
   11.5205  -10.5603    0.0000 C   0  0  2  0  0  0  0  0  0  0  0  0
   11.5116   -9.7354    0.0000 O   0  0  0  0  0  0  0  0  0  0  0  0
   10.7927   -9.3307    0.0000 C   0  0  1  0  0  0  0  0  0  0  0  0
   10.0827   -9.7354    0.0000 C   0  0  2  0  0  0  0  0  0  0  0  0
   10.0827  -10.5603    0.0000 C   0  0  1  0  0  0  0  0  0  0  0  0
   10.7927  -10.9650    0.0000 C   0  0  1  0  0  0  0  0  0  0  0  0
   10.7904   -8.5057    0.0000 C   0  0  0  0  0  0  0  0  0  0  0  0
    9.3694  -10.9748    0.0000 O   0  0  0  0  0  0  0  0  0  0  0  0
   10.7883  -11.7900    0.0000 O   0  0  0  0  0  0  0  0  0  0  0  0
    9.3694   -9.3209    0.0000 O   0  0  0  0  0  0  0  0  0  0  0  0
   10.0760   -8.0932    0.0000 O   0  0  0  0  0  0  0  0  0  0  0  0
   16.5187  -10.1117    0.0000 H   0  0  0  0  0  0  0  0  0  0  0  0
    8.6538  -10.5642    0.0000 C   0  0  2  0  0  0  0  0  0  0  0  0
    8.6504   -9.7392    0.0000 O   0  0  0  0  0  0  0  0  0  0  0  0
    7.9342   -9.3297    0.0000 C   0  0  2  0  0  0  0  0  0  0  0  0
    7.2214   -9.7392    0.0000 C   0  0  1  0  0  0  0  0  0  0  0  0
    7.2214  -10.5642    0.0000 C   0  0  2  0  0  0  0  0  0  0  0  0
    7.9342  -10.9738    0.0000 C   0  0  1  0  0  0  0  0  0  0  0  0
    6.5074   -9.3260    0.0000 O   0  0  0  0  0  0  0  0  0  0  0  0
    7.9334   -8.5047    0.0000 C   0  0  0  0  0  0  0  0  0  0  0  0
    6.5074  -10.9775    0.0000 O   0  0  0  0  0  0  0  0  0  0  0  0
    7.9325  -11.7988    0.0000 O   0  0  0  0  0  0  0  0  0  0  0  0
    8.3436  -12.5141    0.0000 C   0  0  2  0  0  0  0  0  0  0  0  0
    7.9289  -13.2273    0.0000 O   0  0  0  0  0  0  0  0  0  0  0  0
    8.3392  -13.9430    0.0000 C   0  0  2  0  0  0  0  0  0  0  0  0
    9.1664  -13.9418    0.0000 C   0  0  1  0  0  0  0  0  0  0  0  0
    9.5789  -13.2273    0.0000 C   0  0  2  0  0  0  0  0  0  0  0  0
    9.1664  -12.5103    0.0000 C   0  0  1  0  0  0  0  0  0  0  0  0
    9.5794  -14.6559    0.0000 O   0  0  0  0  0  0  0  0  0  0  0  0
   10.4039  -13.2279    0.0000 O   0  0  0  0  0  0  0  0  0  0  0  0
    9.5778  -11.7952    0.0000 O   0  0  0  0  0  0  0  0  0  0  0  0
    7.9262  -14.6572    0.0000 O   0  0  0  0  0  0  0  0  0  0  0  0
  1  2  1  0  0  0  0
  2  3  1  0  0  0  0
  3  4  1  0  0  0  0
  4  5  1  0  0  0  0
  6  5  1  6  0  0  0
  6  7  1  0  0  0  0
  7  8  1  0  0  0  0
  8  9  1  0  0  0  0
  9 10  1  0  0  0  0
 10 11  1  0  0  0  0
 11 12  1  0  0  0  0
 12 13  1  0  0  0  0
 13 14  1  0  0  0  0
 14 15  1  0  0  0  0
 15 16  1  0  0  0  0
 16 17  1  0  0  0  0
 17 18  1  0  0  0  0
 18 19  2  0  0  0  0
 19 20  1  0  0  0  0
  1 20  1  0  0  0  0
  1 12  1  0  0  0  0
 13 18  1  0  0  0  0
  2  9  1  0  0  0  0
  4  8  1  0  0  0  0
 22 23  1  0  0  0  0
 23 24  1  0  0  0  0
 24 25  1  0  0  0  0
 21 25  1  0  0  0  0
  6 21  1  0  0  0  0
  6 22  1  0  0  0  0
 16 26  1  1  0  0  0
 13 27  1  1  0  0  0
  9 28  1  1  0  0  0
  7 29  1  6  0  0  0
 24 30  1  6  0  0  0
  1 31  1  1  0  0  0
  4 32  1  6  0  0  0
  8 33  1  6  0  0  0
 12 34  1  6  0  0  0
 35 26  1  1  0  0  0
 35 36  1  0  0  0  0
 36 37  1  0  0  0  0
 37 38  1  0  0  0  0
 38 39  1  0  0  0  0
 39 40  1  0  0  0  0
 40 35  1  0  0  0  0
 37 41  1  1  0  0  0
 39 42  1  1  0  0  0
 40 43  1  6  0  0  0
 38 44  1  6  0  0  0
 41 45  1  0  0  0  0
  2 46  1  6  0  0  0
 47 42  1  1  0  0  0
 47 48  1  0  0  0  0
 48 49  1  0  0  0  0
 49 50  1  0  0  0  0
 50 51  1  0  0  0  0
 51 52  1  0  0  0  0
 52 47  1  0  0  0  0
 50 53  1  1  0  0  0
 49 54  1  6  0  0  0
 51 55  1  6  0  0  0
 52 56  1  6  0  0  0
 57 56  1  1  0  0  0
 57 58  1  0  0  0  0
 58 59  1  0  0  0  0
 59 60  1  0  0  0  0
 60 61  1  0  0  0  0
 61 62  1  0  0  0  0
 62 57  1  0  0  0  0
 60 63  1  1  0  0  0
 61 64  1  6  0  0  0
 62 65  1  6  0  0  0
 59 66  1  6  0  0  0
M  END
>  <cdx:fragmentId>
5

$$$$
