301672.cdx
  Mrv1902 05222410282D          

 17 17  0  0  0  0            999 V2000
    8.3020   -9.5810    0.0000 O   0  0  0  0  0  0  0  0  0  0  0  0
    6.8731  -10.4060    0.0000 O   0  0  0  0  0  0  0  0  0  0  0  0
    5.4441   -9.5810    0.0000 O   0  0  0  0  0  0  0  0  0  0  0  0
    4.7296   -8.3435    0.0000 O   0  0  0  0  0  0  0  0  0  0  0  0
    5.4441   -7.9310    0.0000 C   0  0  0  0  0  0  0  0  0  0  0  0
    6.1586   -8.3435    0.0000 C   0  0  2  0  0  0  0  0  0  0  0  0
    6.1586   -9.1685    0.0000 C   0  0  2  0  0  0  0  0  0  0  0  0
    6.8731   -9.5810    0.0000 C   0  0  1  0  0  0  0  0  0  0  0  0
    7.5875   -9.1685    0.0000 C   0  0  2  0  0  0  0  0  0  0  0  0
    7.5875   -8.3435    0.0000 C   0  0  1  0  0  0  0  0  0  0  0  0
    6.8731   -7.9310    0.0000 O   0  0  0  0  0  0  0  0  0  0  0  0
    8.3020   -7.9310    0.0000 O   0  0  0  0  0  0  0  0  0  0  0  0
    8.3020   -7.1060    0.0000 C   0  0  0  0  0  0  0  0  0  0  0  0
    8.3020   -6.2810    0.0000 C   0  0  0  0  0  0  0  0  0  0  0  0
    9.1270   -7.1060    0.0000 C   0  0  0  0  0  0  0  0  0  0  0  0
    7.4770   -7.1060    0.0000 C   0  0  0  0  0  0  0  0  0  0  0  0
    8.3020   -5.4560    0.0000 N   0  0  0  0  0  0  0  0  0  0  0  0
 10 12  1  1  0  0  0
  9  1  1  6  0  0  0
  8  2  1  1  0  0  0
  7  3  1  6  0  0  0
  6  5  1  1  0  0  0
  5  4  1  0  0  0  0
 11  6  1  0  0  0  0
  7  6  1  0  0  0  0
  8  7  1  0  0  0  0
  9  8  1  0  0  0  0
 10  9  1  0  0  0  0
 11 10  1  0  0  0  0
 12 13  1  0  0  0  0
 13 14  1  0  0  0  0
 13 15  1  0  0  0  0
 13 16  1  0  0  0  0
 14 17  3  0  0  0  0
M  END
>  <cdx:fragmentId>
15

$$$$
