301605.cdx
  Mrv1902 05222410252D          

 38 43  0  0  0  0            999 V2000
    7.9158   -7.4370    0.0000 C   0  0  1  0  0  0  0  0  0  0  0  0
    8.6303   -7.0245    0.0000 C   0  0  1  0  0  0  0  0  0  0  0  0
    8.6303   -7.8495    0.0000 O   0  0  0  0  0  0  0  0  0  0  0  0
    9.3448   -7.4370    0.0000 C   0  0  2  0  0  0  0  0  0  0  0  0
   10.0592   -7.0245    0.0000 C   0  0  0  0  0  0  0  0  0  0  0  0
   10.0592   -6.1995    0.0000 O   0  0  0  0  0  0  0  0  0  0  0  0
    9.3448   -5.7870    0.0000 C   0  0  2  0  0  0  0  0  0  0  0  0
    8.6303   -6.1995    0.0000 C   0  0  2  0  0  0  0  0  0  0  0  0
    7.9158   -5.7870    0.0000 C   0  0  0  0  0  0  0  0  0  0  0  0
    7.2013   -6.1995    0.0000 C   0  0  0  0  0  0  0  0  0  0  0  0
    7.2013   -7.0245    0.0000 C   0  0  2  0  0  0  0  0  0  0  0  0
    6.4869   -7.4370    0.0000 C   0  0  1  0  0  0  0  0  0  0  0  0
    5.8419   -6.9226    0.0000 C   0  0  0  0  0  0  0  0  0  0  0  0
    5.0375   -7.1062    0.0000 C   0  0  0  0  0  0  0  0  0  0  0  0
    4.6796   -7.8495    0.0000 C   0  0  0  0  0  0  0  0  0  0  0  0
    5.0375   -8.5928    0.0000 O   0  0  0  0  0  0  0  0  0  0  0  0
    5.8419   -8.7764    0.0000 C   0  0  0  0  0  0  0  0  0  0  0  0
    6.4869   -8.2620    0.0000 C   0  0  2  0  0  0  0  0  0  0  0  0
    7.2013   -8.6745    0.0000 C   0  0  0  0  0  0  0  0  0  0  0  0
    7.9158   -8.2620    0.0000 C   0  0  0  0  0  0  0  0  0  0  0  0
   10.7737   -7.4370    0.0000 O   0  0  0  0  0  0  0  0  0  0  0  0
    3.8546   -7.8495    0.0000 O   0  0  0  0  0  0  0  0  0  0  0  0
    8.6303   -8.6745    0.0000 O   0  0  0  0  0  0  0  0  0  0  0  0
    6.2895   -9.4694    0.0000 C   0  0  0  0  0  0  0  0  0  0  0  0
    5.5309   -9.5405    0.0000 C   0  0  0  0  0  0  0  0  0  0  0  0
    6.4869   -6.6120    0.0000 C   0  0  0  0  0  0  0  0  0  0  0  0
    8.6303   -5.3745    0.0000 C   0  0  0  0  0  0  0  0  0  0  0  0
    7.9158   -6.6120    0.0000 C   0  0  0  0  0  0  0  0  0  0  0  0
    9.7573   -3.6924    0.0000 O   0  0  0  0  0  0  0  0  0  0  0  0
   10.0122   -4.4771    0.0000 C   0  0  0  0  0  0  0  0  0  0  0  0
    9.3448   -4.9620    0.0000 C   0  0  0  0  0  0  0  0  0  0  0  0
    8.6773   -4.4771    0.0000 C   0  0  0  0  0  0  0  0  0  0  0  0
    8.9323   -3.6924    0.0000 C   0  0  0  0  0  0  0  0  0  0  0  0
    8.4473   -3.0250    0.0000 O   0  0  0  0  0  0  0  0  0  0  0  0
   10.7968   -4.7320    0.0000 O   0  0  0  0  0  0  0  0  0  0  0  0
    9.7573   -8.1515    0.0000 H   0  0  0  0  0  0  0  0  0  0  0  0
    7.2013   -7.8495    0.0000 H   0  0  0  0  0  0  0  0  0  0  0  0
    6.4869   -9.0870    0.0000 H   0  0  0  0  0  0  0  0  0  0  0  0
  1  2  1  0  0  0  0
  2  3  1  1  0  0  0
  3  4  1  0  0  0  0
  4  5  1  0  0  0  0
  5  6  1  0  0  0  0
  6  7  1  0  0  0  0
  7  8  1  0  0  0  0
  8  9  1  0  0  0  0
  9 10  1  0  0  0  0
 10 11  1  0  0  0  0
 11 12  1  0  0  0  0
 12 13  1  0  0  0  0
 13 14  2  0  0  0  0
 14 15  1  0  0  0  0
 15 16  1  0  0  0  0
 16 17  1  0  0  0  0
 17 18  1  0  0  0  0
 18 19  1  0  0  0  0
 19 20  1  0  0  0  0
  1 20  1  0  0  0  0
  1 11  1  0  0  0  0
 12 18  1  0  0  0  0
  2  8  1  0  0  0  0
  2  4  1  0  0  0  0
  5 21  2  0  0  0  0
 15 22  2  0  0  0  0
 20 23  2  0  0  0  0
 17 24  1  0  0  0  0
 17 25  1  0  0  0  0
 12 26  1  1  0  0  0
  8 27  1  6  0  0  0
  1 28  1  1  0  0  0
 29 30  1  0  0  0  0
 30 31  1  0  0  0  0
 31 32  2  0  0  0  0
 32 33  1  0  0  0  0
 29 33  1  0  0  0  0
 33 34  2  0  0  0  0
 30 35  1  0  0  0  0
  7 31  1  6  0  0  0
  4 36  1  6  0  0  0
 11 37  1  6  0  0  0
 18 38  1  6  0  0  0
M  END
>  <cdx:fragmentId>
5

$$$$
