30160.cdx
  Mrv1902 05222410232D          

 17 17  0  0  0  0            999 V2000
   10.3542   -7.9765    0.0000 C   0  0  0  0  0  0  0  0  0  0  0  0
   10.3542   -8.8015    0.0000 C   0  0  0  0  0  0  0  0  0  0  0  0
    9.6397   -9.2140    0.0000 C   0  0  0  0  0  0  0  0  0  0  0  0
    8.9252   -8.8015    0.0000 C   0  0  0  0  0  0  0  0  0  0  0  0
    8.2108   -9.2140    0.0000 C   0  0  0  0  0  0  0  0  0  0  0  0
    7.4963   -8.8015    0.0000 C   0  0  0  0  0  0  0  0  0  0  0  0
    6.7818   -9.2140    0.0000 C   0  0  0  0  0  0  0  0  0  0  0  0
    6.0673   -8.8015    0.0000 C   0  0  0  0  0  0  0  0  0  0  0  0
    5.3529   -9.2140    0.0000 C   0  0  0  0  0  0  0  0  0  0  0  0
    8.9252   -7.9765    0.0000 O   0  0  0  0  0  0  0  0  0  0  0  0
    7.4963   -7.9765    0.0000 C   0  0  0  0  0  0  0  0  0  0  0  0
   11.0686   -9.2140    0.0000 C   0  0  0  0  0  0  0  0  0  0  0  0
    3.7452   -7.8095    0.0000 O   0  0  0  0  0  0  0  0  0  0  0  0
    4.5522   -7.9811    0.0000 C   0  0  0  0  0  0  0  0  0  0  0  0
    4.6384   -8.8015    0.0000 C   0  0  0  0  0  0  0  0  0  0  0  0
    3.8847   -9.1371    0.0000 C   0  0  0  0  0  0  0  0  0  0  0  0
    3.3327   -8.5240    0.0000 C   0  0  0  0  0  0  0  0  0  0  0  0
  1  2  1  0  0  0  0
  2  3  2  0  0  0  0
  3  4  1  0  0  0  0
  4  5  1  0  0  0  0
  5  6  1  0  0  0  0
  6  7  2  0  0  0  0
  7  8  1  0  0  0  0
  8  9  1  0  0  0  0
  4 10  2  0  0  0  0
  6 11  1  0  0  0  0
  2 12  1  0  0  0  0
 13 14  1  0  0  0  0
 14 15  2  0  0  0  0
 15 16  1  0  0  0  0
 16 17  2  0  0  0  0
 13 17  1  0  0  0  0
  9 15  1  0  0  0  0
M  END
>  <cdx:fragmentId>
5

$$$$
