301601.cdx
  Mrv1902 05222410232D          

 23 25  0  0  0  0            999 V2000
    5.7940   -7.8788    0.0000 C   0  0  2  0  0  0  0  0  0  0  0  0
    5.7940   -8.7037    0.0000 C   0  0  0  0  0  0  0  0  0  0  0  0
    6.5085   -9.1162    0.0000 C   0  0  2  0  0  0  0  0  0  0  0  0
    7.2230   -8.7037    0.0000 C   0  0  0  0  0  0  0  0  0  0  0  0
    7.2230   -7.8788    0.0000 C   0  0  2  0  0  0  0  0  0  0  0  0
    6.5085   -7.4663    0.0000 C   0  0  2  0  0  0  0  0  0  0  0  0
    6.5085   -9.9413    0.0000 O   0  0  0  0  0  0  0  0  0  0  0  0
    5.0796   -8.2912    0.0000 O   0  0  0  0  0  0  0  0  0  0  0  0
    7.9375   -7.4663    0.0000 O   0  0  0  0  0  0  0  0  0  0  0  0
    6.5085   -6.6413    0.0000 C   0  0  0  0  0  0  0  0  0  0  0  0
    5.2107   -7.2954    0.0000 C   0  0  0  0  0  0  0  0  0  0  0  0
    5.4242   -6.4985    0.0000 C   0  0  0  0  0  0  0  0  0  0  0  0
    4.8408   -5.9151    0.0000 C   0  0  0  0  0  0  0  0  0  0  0  0
    4.0439   -6.1287    0.0000 C   0  0  0  0  0  0  0  0  0  0  0  0
    3.8304   -6.9255    0.0000 C   0  0  0  0  0  0  0  0  0  0  0  0
    4.4138   -7.5089    0.0000 C   0  0  0  0  0  0  0  0  0  0  0  0
    5.9251   -6.0579    0.0000 O   0  0  0  0  0  0  0  0  0  0  0  0
    7.0919   -6.0579    0.0000 C   0  0  0  0  0  0  0  0  0  0  0  0
    7.8888   -6.2714    0.0000 C   0  0  0  0  0  0  0  0  0  0  0  0
    8.4721   -5.6880    0.0000 C   0  0  0  0  0  0  0  0  0  0  0  0
    8.2586   -4.8912    0.0000 C   0  0  0  0  0  0  0  0  0  0  0  0
    7.4617   -4.6776    0.0000 C   0  0  0  0  0  0  0  0  0  0  0  0
    6.8783   -5.2610    0.0000 C   0  0  0  0  0  0  0  0  0  0  0  0
  1  2  1  0  0  0  0
  2  3  1  0  0  0  0
  3  4  1  0  0  0  0
  4  5  1  0  0  0  0
  5  6  1  0  0  0  0
  6  1  1  0  0  0  0
  3  7  1  6  0  0  0
  1  8  1  1  0  0  0
  5  9  1  6  0  0  0
  6 10  1  1  0  0  0
  1 11  1  0  0  0  0
 11 12  2  0  0  0  0
 12 13  1  0  0  0  0
 13 14  2  0  0  0  0
 14 15  1  0  0  0  0
 15 16  2  0  0  0  0
 16 11  1  0  0  0  0
 10 17  2  0  0  0  0
 10 18  1  0  0  0  0
 18 19  2  0  0  0  0
 19 20  1  0  0  0  0
 20 21  2  0  0  0  0
 21 22  1  0  0  0  0
 22 23  2  0  0  0  0
 23 18  1  0  0  0  0
M  END
>  <cdx:fragmentId>
238

$$$$
