301679.cdx
  Mrv1902 05222410192D          

 23 25  0  0  0  0            999 V2000
   10.4534   -9.2826    0.0000 C   0  0  0  0  0  0  0  0  0  0  0  0
   10.7218   -8.6230    0.0000 C   0  0  0  0  0  0  0  0  0  0  0  0
   10.0325   -8.2191    0.0000 C   0  0  1  0  0  0  0  0  0  0  0  0
    8.8947   -8.2689    0.0000 C   0  0  0  0  0  0  0  0  0  0  0  0
    8.5899   -8.7110    0.0000 C   0  0  0  0  0  0  0  0  0  0  0  0
    9.0043   -9.1301    0.0000 C   0  0  0  0  0  0  0  0  0  0  0  0
    9.7627   -8.8773    0.0000 C   0  0  2  0  0  0  0  0  0  0  0  0
    9.7627   -7.4394    0.0000 N   0  0  0  0  0  0  0  0  0  0  0  0
    7.7681   -8.7835    0.0000 O   0  0  0  0  0  0  0  0  0  0  0  0
    7.3556   -9.4980    0.0000 C   0  0  0  0  0  0  0  0  0  0  0  0
    6.5306   -9.4980    0.0000 C   0  0  1  0  0  0  0  0  0  0  0  0
    7.7681  -10.2125    0.0000 O   0  0  0  0  0  0  0  0  0  0  0  0
    6.1181  -10.2125    0.0000 C   0  0  0  0  0  0  0  0  0  0  0  0
    5.2931  -10.2125    0.0000 C   0  0  0  0  0  0  0  0  0  0  0  0
    9.5492   -6.6426    0.0000 C   0  0  0  0  0  0  0  0  0  0  0  0
    6.1181   -8.7835    0.0000 O   0  0  0  0  0  0  0  0  0  0  0  0
    9.6767   -9.6978    0.0000 H   0  0  0  0  0  0  0  0  0  0  0  0
   10.8253   -7.9908    0.0000 H   0  0  0  0  0  0  0  0  0  0  0  0
    4.8806   -9.4980    0.0000 C   0  0  0  0  0  0  0  0  0  0  0  0
    4.0556   -9.4980    0.0000 C   0  0  0  0  0  0  0  0  0  0  0  0
    3.6431  -10.2125    0.0000 C   0  0  0  0  0  0  0  0  0  0  0  0
    4.0556  -10.9270    0.0000 C   0  0  0  0  0  0  0  0  0  0  0  0
    4.8806  -10.9270    0.0000 C   0  0  0  0  0  0  0  0  0  0  0  0
  7  1  1  0  0  0  0
  2  3  1  0  0  0  0
  3  8  1  0  0  0  0
  3  4  1  0  0  0  0
  4  5  1  0  0  0  0
  6  5  1  0  0  0  0
  7  6  1  0  0  0  0
  7  8  1  0  0  0  0
  1  2  1  0  0  0  0
  5  9  1  0  0  0  0
  9 10  1  0  0  0  0
 10 11  1  0  0  0  0
 10 12  2  0  0  0  0
 11 13  1  0  0  0  0
 13 14  1  0  0  0  0
  8 15  1  0  0  0  0
 11 16  1  1  0  0  0
  7 17  1  1  0  0  0
  3 18  1  6  0  0  0
 14 19  2  0  0  0  0
 19 20  1  0  0  0  0
 20 21  2  0  0  0  0
 21 22  1  0  0  0  0
 22 23  2  0  0  0  0
 23 14  1  0  0  0  0
M  END
>  <cdx:fragmentId>
820

$$$$
