301653.cdx
  Mrv1902 05222410202D          

 25 28  0  0  0  0            999 V2000
    9.5646   -7.8783    0.0000 N   0  0  0  0  0  0  0  0  0  0  0  0
   10.2790   -7.4656    0.0000 C   0  0  0  0  0  0  0  0  0  0  0  0
   10.2792   -6.6406    0.0000 C   0  0  0  0  0  0  0  0  0  0  0  0
    9.5652   -6.2274    0.0000 C   0  0  0  0  0  0  0  0  0  0  0  0
    8.8507   -6.6399    0.0000 C   0  0  0  0  0  0  0  0  0  0  0  0
    8.1362   -6.2274    0.0000 C   0  0  0  0  0  0  0  0  0  0  0  0
    7.4218   -6.6399    0.0000 C   0  0  0  0  0  0  0  0  0  0  0  0
    7.4218   -7.4649    0.0000 C   0  0  0  0  0  0  0  0  0  0  0  0
    8.1362   -7.8774    0.0000 C   0  0  0  0  0  0  0  0  0  0  0  0
    8.8507   -7.4649    0.0000 C   0  0  0  0  0  0  0  0  0  0  0  0
    8.1362   -5.4024    0.0000 C   0  0  0  0  0  0  0  0  0  0  0  0
    8.8507   -4.9899    0.0000 C   0  0  0  0  0  0  0  0  0  0  0  0
    9.5652   -5.4024    0.0000 C   0  0  0  0  0  0  0  0  0  0  0  0
    6.7073   -7.8774    0.0000 C   0  0  0  0  0  0  0  0  0  0  0  0
    5.9928   -7.4649    0.0000 C   0  0  0  0  0  0  0  0  0  0  0  0
    5.9928   -6.6399    0.0000 C   0  0  0  0  0  0  0  0  0  0  0  0
    6.7073   -6.2274    0.0000 C   0  0  0  0  0  0  0  0  0  0  0  0
    5.2784   -7.8774    0.0000 O   0  0  0  0  0  0  0  0  0  0  0  0
    9.5646   -8.7033    0.0000 C   0  0  0  0  0  0  0  0  0  0  0  0
    5.2784   -6.2274    0.0000 O   0  0  0  0  0  0  0  0  0  0  0  0
    4.5639   -6.6399    0.0000 C   0  0  0  0  0  0  0  0  0  0  0  0
    8.8507   -4.1649    0.0000 O   0  0  0  0  0  0  0  0  0  0  0  0
    9.5652   -3.7524    0.0000 C   0  0  0  0  0  0  0  0  0  0  0  0
    7.4218   -4.9899    0.0000 O   0  0  0  0  0  0  0  0  0  0  0  0
    6.7073   -5.4024    0.0000 C   0  0  0  0  0  0  0  0  0  0  0  0
  1  2  1  0  0  0  0
  2  3  1  0  0  0  0
  3  4  1  0  0  0  0
  4  5  1  0  0  0  0
  5  6  2  0  0  0  0
  6  7  1  0  0  0  0
  7  8  1  0  0  0  0
  8  9  1  0  0  0  0
  9 10  1  0  0  0  0
  1 10  1  0  0  0  0
  5 10  1  0  0  0  0
 11 12  2  0  0  0  0
 12 13  1  0  0  0  0
 13  4  2  0  0  0  0
 11  6  1  0  0  0  0
 14 15  1  0  0  0  0
 15 16  2  0  0  0  0
 16 17  1  0  0  0  0
 17  7  2  0  0  0  0
 14  8  2  0  0  0  0
 15 18  1  0  0  0  0
  1 19  1  0  0  0  0
 20 21  1  0  0  0  0
 16 20  1  0  0  0  0
 22 23  1  0  0  0  0
 12 22  1  0  0  0  0
 24 25  1  0  0  0  0
 11 24  1  0  0  0  0
M  END
>  <cdx:groupId>
1451

>  <cdx:fragmentId>
1376

$$$$
