301667.cdx
  Mrv1902 05222410282D          

 19 19  0  0  0  0            999 V2000
    7.4895   -7.0587    0.0000 O   0  0  0  0  0  0  0  0  0  0  0  0
    7.0770   -7.7732    0.0000 C   0  0  2  0  0  0  0  0  0  0  0  0
    7.7979   -8.1742    0.0000 C   0  0  0  0  0  0  0  0  0  0  0  0
    8.5058   -7.7504    0.0000 C   0  0  0  0  0  0  0  0  0  0  0  0
    9.2267   -8.1515    0.0000 C   0  0  0  0  0  0  0  0  0  0  0  0
    9.9345   -7.7277    0.0000 C   0  0  0  0  0  0  0  0  0  0  0  0
    9.5220   -7.0132    0.0000 C   0  0  0  0  0  0  0  0  0  0  0  0
    7.8111   -8.9991    0.0000 O   0  0  0  0  0  0  0  0  0  0  0  0
   10.3470   -8.4422    0.0000 C   0  0  0  0  0  0  0  0  0  0  0  0
   10.6423   -7.3039    0.0000 O   0  0  0  0  0  0  0  0  0  0  0  0
    5.6351   -6.9710    0.0000 O   0  0  0  0  0  0  0  0  0  0  0  0
    4.2457   -9.4684    0.0000 C   0  0  0  0  0  0  0  0  0  0  0  0
    6.3823   -9.0219    0.0000 C   0  0  0  0  0  0  0  0  0  0  0  0
    5.6745   -9.4457    0.0000 C   0  0  0  0  0  0  0  0  0  0  0  0
    4.9535   -9.0446    0.0000 C   0  0  0  0  0  0  0  0  0  0  0  0
    4.9404   -8.2197    0.0000 C   0  0  0  0  0  0  0  0  0  0  0  0
    5.6482   -7.7959    0.0000 C   0  0  0  0  0  0  0  0  0  0  0  0
    6.3692   -8.1970    0.0000 C   0  0  0  0  0  0  0  0  0  0  0  0
    6.6645   -7.0587    0.0000 C   0  0  0  0  0  0  0  0  0  0  0  0
  2 18  1  0  0  0  0
 17 11  1  0  0  0  0
 15 12  1  0  0  0  0
 18 13  2  0  0  0  0
 14 13  1  0  0  0  0
 15 14  2  0  0  0  0
 16 15  1  0  0  0  0
 17 16  2  0  0  0  0
 18 17  1  0  0  0  0
  2  1  1  6  0  0  0
  2  3  1  0  0  0  0
  3  4  1  0  0  0  0
  4  5  2  0  0  0  0
  5  6  1  0  0  0  0
  6  7  1  0  0  0  0
  3  8  2  0  0  0  0
  6  9  1  0  0  0  0
  6 10  1  0  0  0  0
  2 19  1  0  0  0  0
M  END
>  <cdx:groupId>
3108

>  <cdx:fragmentId>
3055

$$$$
