301665.cdx
  Mrv1902 05222410272D          

 26 27  0  0  0  0            999 V2000
    5.7883   -5.9666    0.0000 C   0  0  0  0  0  0  0  0  0  0  0  0
    6.5028   -6.3791    0.0000 C   0  0  0  0  0  0  0  0  0  0  0  0
    7.2172   -5.9666    0.0000 C   0  0  0  0  0  0  0  0  0  0  0  0
    5.7883   -5.1416    0.0000 O   0  0  0  0  0  0  0  0  0  0  0  0
    7.9317   -6.3791    0.0000 C   0  0  0  0  0  0  0  0  0  0  0  0
    8.6462   -5.9666    0.0000 C   0  0  0  0  0  0  0  0  0  0  0  0
    9.3607   -6.3791    0.0000 C   0  0  0  0  0  0  0  0  0  0  0  0
    9.3607   -7.2041    0.0000 C   0  0  0  0  0  0  0  0  0  0  0  0
    8.6462   -7.6166    0.0000 C   0  0  0  0  0  0  0  0  0  0  0  0
    7.9317   -7.2041    0.0000 C   0  0  0  0  0  0  0  0  0  0  0  0
   10.0751   -5.9666    0.0000 C   0  0  0  0  0  0  0  0  0  0  0  0
   10.7896   -6.3791    0.0000 C   0  0  0  0  0  0  0  0  0  0  0  0
   11.5041   -5.9666    0.0000 C   0  0  0  0  0  0  0  0  0  0  0  0
   11.5041   -5.1416    0.0000 C   0  0  0  0  0  0  0  0  0  0  0  0
   12.2185   -6.3791    0.0000 C   0  0  0  0  0  0  0  0  0  0  0  0
    8.6462   -5.1416    0.0000 O   0  0  0  0  0  0  0  0  0  0  0  0
    9.3607   -4.7291    0.0000 C   0  0  0  0  0  0  0  0  0  0  0  0
   10.0751   -7.6166    0.0000 O   0  0  0  0  0  0  0  0  0  0  0  0
    5.0738   -6.3791    0.0000 C   0  0  0  0  0  0  0  0  0  0  0  0
    4.3594   -5.9666    0.0000 C   0  0  0  0  0  0  0  0  0  0  0  0
    3.6449   -6.3791    0.0000 C   0  0  0  0  0  0  0  0  0  0  0  0
    3.6449   -7.2041    0.0000 C   0  0  0  0  0  0  0  0  0  0  0  0
    4.3594   -7.6166    0.0000 C   0  0  0  0  0  0  0  0  0  0  0  0
    5.0738   -7.2041    0.0000 C   0  0  0  0  0  0  0  0  0  0  0  0
    2.9304   -7.6166    0.0000 O   0  0  0  0  0  0  0  0  0  0  0  0
    2.9304   -5.9666    0.0000 O   0  0  0  0  0  0  0  0  0  0  0  0
  1  2  1  0  0  0  0
  2  3  2  0  0  0  0
  1  4  2  0  0  0  0
  5  6  1  0  0  0  0
  6  7  2  0  0  0  0
  7  8  1  0  0  0  0
  8  9  2  0  0  0  0
  9 10  1  0  0  0  0
  5 10  2  0  0  0  0
 11 12  1  0  0  0  0
 12 13  2  0  0  0  0
 13 14  1  0  0  0  0
 13 15  1  0  0  0  0
  7 11  1  0  0  0  0
 16 17  1  0  0  0  0
  6 16  1  0  0  0  0
  8 18  1  0  0  0  0
  3  5  1  0  0  0  0
 19 20  1  0  0  0  0
 20 21  2  0  0  0  0
 21 22  1  0  0  0  0
 22 23  2  0  0  0  0
 23 24  1  0  0  0  0
 19 24  2  0  0  0  0
 22 25  1  0  0  0  0
 21 26  1  0  0  0  0
  1 19  1  0  0  0  0
M  END
>  <cdx:groupId>
2974

>  <cdx:fragmentId>
2906

$$$$
