301651.cdx
  Mrv1902 05222410192D          

 27 30  0  0  0  0            999 V2000
    9.6520   -7.7468    0.0000 O   0  0  0  0  0  0  0  0  0  0  0  0
    3.9355   -9.3943    0.0000 C   0  0  0  0  0  0  0  0  0  0  0  0
    4.6502   -8.9821    0.0000 O   0  0  0  0  0  0  0  0  0  0  0  0
    8.9381   -6.5090    0.0000 C   0  0  0  0  0  0  0  0  0  0  0  0
    8.2234   -6.9212    0.0000 O   0  0  0  0  0  0  0  0  0  0  0  0
    9.6510  -10.2218    0.0000 C   0  0  0  0  0  0  0  0  0  0  0  0
   10.3652  -10.6346    0.0000 C   0  0  0  0  0  0  0  0  0  0  0  0
   10.3649  -11.4596    0.0000 C   0  0  0  0  0  0  0  0  0  0  0  0
    9.6502  -11.8718    0.0000 C   0  0  0  0  0  0  0  0  0  0  0  0
    8.9360  -11.4590    0.0000 C   0  0  0  0  0  0  0  0  0  0  0  0
    8.9363  -10.6340    0.0000 C   0  0  0  0  0  0  0  0  0  0  0  0
    6.0795   -8.1577    0.0000 O   0  0  0  0  0  0  0  0  0  0  0  0
    6.0781  -11.4577    0.0000 O   0  0  0  0  0  0  0  0  0  0  0  0
    6.7931  -10.2205    0.0000 C   0  0  0  0  0  0  0  0  0  0  0  0
    7.5074  -10.6333    0.0000 C   0  0  0  0  0  0  0  0  0  0  0  0
    8.2220  -10.2212    0.0000 C   0  0  0  0  0  0  0  0  0  0  0  0
    8.2224   -9.3962    0.0000 C   0  0  0  0  0  0  0  0  0  0  0  0
    8.9370   -8.9840    0.0000 C   0  0  0  0  0  0  0  0  0  0  0  0
    8.9374   -8.1590    0.0000 C   0  0  0  0  0  0  0  0  0  0  0  0
    8.2231   -7.7462    0.0000 C   0  0  0  0  0  0  0  0  0  0  0  0
    7.5084   -8.1583    0.0000 C   0  0  0  0  0  0  0  0  0  0  0  0
    7.5081   -8.9833    0.0000 C   0  0  0  0  0  0  0  0  0  0  0  0
    6.7934   -9.3955    0.0000 C   0  0  0  0  0  0  0  0  0  0  0  0
    6.0791   -8.9827    0.0000 C   0  0  0  0  0  0  0  0  0  0  0  0
    5.3645   -9.3949    0.0000 C   0  0  0  0  0  0  0  0  0  0  0  0
    5.3641  -10.2199    0.0000 C   0  0  0  0  0  0  0  0  0  0  0  0
    6.0784  -10.6327    0.0000 C   0  0  0  0  0  0  0  0  0  0  0  0
 19  1  1  0  0  0  0
 25  3  1  0  0  0  0
  3  2  1  0  0  0  0
 20  5  1  0  0  0  0
  5  4  1  0  0  0  0
 16 11  1  0  0  0  0
 11  6  2  0  0  0  0
  7  6  1  0  0  0  0
  8  7  2  0  0  0  0
  9  8  1  0  0  0  0
 10  9  2  0  0  0  0
 11 10  1  0  0  0  0
 24 12  2  0  0  0  0
 27 13  2  0  0  0  0
 23 14  2  0  0  0  0
 27 14  1  0  0  0  0
 15 14  1  0  0  0  0
 16 15  2  0  0  0  0
 17 16  1  0  0  0  0
 22 17  2  0  0  0  0
 18 17  1  0  0  0  0
 19 18  2  0  0  0  0
 20 19  1  0  0  0  0
 21 20  2  0  0  0  0
 22 21  1  0  0  0  0
 23 22  1  0  0  0  0
 24 23  1  0  0  0  0
 25 24  1  0  0  0  0
 26 25  2  0  0  0  0
 27 26  1  0  0  0  0
M  END
>  <cdx:fragmentId>
5

$$$$
