301684.cdx
  Mrv1902 05222410202D          

 35 38  0  0  0  0            999 V2000
    4.5979   -7.8787    0.0000 C   0  0  0  0  0  0  0  0  0  0  0  0
    3.8834   -8.2912    0.0000 C   0  0  0  0  0  0  0  0  0  0  0  0
    3.8834   -9.1162    0.0000 C   0  0  1  0  0  0  0  0  0  0  0  0
    4.5979   -9.5287    0.0000 C   0  0  0  0  0  0  0  0  0  0  0  0
    5.3124   -9.1162    0.0000 C   0  0  2  0  0  0  0  0  0  0  0  0
    6.0268   -9.5287    0.0000 C   0  0  0  0  0  0  0  0  0  0  0  0
    6.7413   -9.1162    0.0000 C   0  0  0  0  0  0  0  0  0  0  0  0
    6.7413   -8.2912    0.0000 C   0  0  0  0  0  0  0  0  0  0  0  0
    7.4558   -7.8787    0.0000 C   0  0  2  0  0  0  0  0  0  0  0  0
    8.2404   -8.1336    0.0000 C   0  0  0  0  0  0  0  0  0  0  0  0
    8.7253   -7.4662    0.0000 C   0  0  0  0  0  0  0  0  0  0  0  0
    8.2404   -6.7987    0.0000 C   0  0  1  0  0  0  0  0  0  0  0  0
    7.4558   -7.0537    0.0000 C   0  0  1  0  0  0  0  0  0  0  0  0
    6.7413   -6.6412    0.0000 C   0  0  0  0  0  0  0  0  0  0  0  0
    6.0268   -7.0537    0.0000 C   0  0  0  0  0  0  0  0  0  0  0  0
    6.0268   -7.8787    0.0000 C   0  0  0  0  0  0  0  0  0  0  0  0
    5.3124   -8.2912    0.0000 C   0  0  1  0  0  0  0  0  0  0  0  0
    7.4558   -9.5287    0.0000 O   0  0  0  0  0  0  0  0  0  0  0  0
    7.4558   -8.7037    0.0000 C   0  0  0  0  0  0  0  0  0  0  0  0
    7.4558   -6.2287    0.0000 C   0  0  0  0  0  0  0  0  0  0  0  0
    5.3124   -7.4662    0.0000 C   0  0  0  0  0  0  0  0  0  0  0  0
    5.0104  -10.2432    0.0000 C   0  0  0  0  0  0  0  0  0  0  0  0
    4.1854  -10.2432    0.0000 C   0  0  0  0  0  0  0  0  0  0  0  0
    7.9433   -5.4010    0.0000 C   0  0  0  0  0  0  0  0  0  0  0  0
    8.4953   -6.0141    0.0000 C   0  0  2  0  0  0  0  0  0  0  0  0
    9.3023   -5.8426    0.0000 C   0  0  0  0  0  0  0  0  0  0  0  0
    9.5572   -5.0580    0.0000 C   0  0  0  0  0  0  0  0  0  0  0  0
   10.3642   -4.8864    0.0000 C   0  0  0  0  0  0  0  0  0  0  0  0
   10.6191   -4.1018    0.0000 C   0  0  0  0  0  0  0  0  0  0  0  0
   11.4261   -3.9303    0.0000 C   0  0  0  0  0  0  0  0  0  0  0  0
   10.0671   -3.4887    0.0000 C   0  0  0  0  0  0  0  0  0  0  0  0
   11.6811   -3.1457    0.0000 O   0  0  0  0  0  0  0  0  0  0  0  0
    3.1689   -9.5287    0.0000 O   0  0  0  0  0  0  0  0  0  0  0  0
    5.3124   -9.9412    0.0000 H   0  0  0  0  0  0  0  0  0  0  0  0
    9.0250   -6.5438    0.0000 H   0  0  0  0  0  0  0  0  0  0  0  0
  1  2  1  0  0  0  0
  2  3  1  0  0  0  0
  3  4  1  0  0  0  0
  4  5  1  0  0  0  0
  5  6  1  0  0  0  0
  6  7  1  0  0  0  0
  7  8  1  0  0  0  0
  8  9  1  0  0  0  0
  9 10  1  0  0  0  0
 10 11  1  0  0  0  0
 12 11  1  0  0  0  0
 12 13  1  0  0  0  0
  9 13  1  0  0  0  0
 13 14  1  0  0  0  0
 14 15  1  0  0  0  0
 15 16  1  0  0  0  0
  8 16  2  0  0  0  0
 16 17  1  0  0  0  0
  5 17  1  0  0  0  0
  1 17  1  0  0  0  0
  7 18  2  0  0  0  0
  9 19  1  6  0  0  0
 13 20  1  1  0  0  0
 17 21  1  1  0  0  0
  4 22  1  0  0  0  0
  4 23  1  0  0  0  0
 25 24  1  6  0  0  0
 25 26  1  0  0  0  0
 26 27  1  0  0  0  0
 27 28  1  0  0  0  0
 28 29  2  0  0  0  0
 29 30  1  0  0  0  0
 29 31  1  0  0  0  0
 30 32  1  0  0  0  0
 12 25  1  0  0  0  0
  3 33  1  1  0  0  0
  5 34  1  6  0  0  0
 12 35  1  6  0  0  0
M  END
>  <cdx:groupId>
4186

>  <cdx:fragmentId>
4084

$$$$
