301681.cdx
  Mrv1902 05222410182D          

 17 19  0  0  0  0            999 V2000
    6.6745   -7.4692    0.0000 C   0  0  1  0  0  0  0  0  0  0  0  0
    7.3890   -7.0567    0.0000 C   0  0  2  0  0  0  0  0  0  0  0  0
    8.0340   -7.5711    0.0000 C   0  0  0  0  0  0  0  0  0  0  0  0
    8.8383   -7.3875    0.0000 C   0  0  0  0  0  0  0  0  0  0  0  0
    9.1963   -6.6442    0.0000 C   0  0  0  0  0  0  0  0  0  0  0  0
    8.8383   -5.9009    0.0000 C   0  0  0  0  0  0  0  0  0  0  0  0
    8.0340   -5.7173    0.0000 C   0  0  0  0  0  0  0  0  0  0  0  0
    7.3890   -6.2317    0.0000 C   0  0  0  0  0  0  0  0  0  0  0  0
    6.6745   -5.8192    0.0000 C   0  0  0  0  0  0  0  0  0  0  0  0
    5.9600   -6.2317    0.0000 C   0  0  0  0  0  0  0  0  0  0  0  0
    5.9600   -7.0567    0.0000 C   0  0  0  0  0  0  0  0  0  0  0  0
    6.6745   -4.9942    0.0000 O   0  0  0  0  0  0  0  0  0  0  0  0
    5.2456   -7.4692    0.0000 C   0  0  0  0  0  0  0  0  0  0  0  0
    8.9613   -5.0851    0.0000 C   0  0  0  0  0  0  0  0  0  0  0  0
    9.6063   -5.5995    0.0000 C   0  0  0  0  0  0  0  0  0  0  0  0
    7.3890   -7.8817    0.0000 C   0  0  0  0  0  0  0  0  0  0  0  0
    6.6745   -8.2942    0.0000 H   0  0  0  0  0  0  0  0  0  0  0  0
  1  2  1  0  0  0  0
  2  3  1  0  0  0  0
  3  4  1  0  0  0  0
  4  5  1  0  0  0  0
  5  6  1  0  0  0  0
  6  7  1  0  0  0  0
  7  8  1  0  0  0  0
  8  9  1  0  0  0  0
  9 10  1  0  0  0  0
 10 11  2  0  0  0  0
  1 11  1  0  0  0  0
  1  7  1  0  0  0  0
  2  8  1  0  0  0  0
  9 12  2  0  0  0  0
 11 13  1  0  0  0  0
  6 14  1  0  0  0  0
  6 15  1  0  0  0  0
  2 16  1  6  0  0  0
  1 17  1  1  0  0  0
M  END
>  <cdx:groupId>
3979

>  <cdx:fragmentId>
3929

$$$$
