301641.cdx
  Mrv1902 05222410192D          

 27 29  0  0  0  0            999 V2000
    6.6483   -5.5530    0.0000 H   0  0  0  0  0  0  0  0  0  0  0  0
    9.1096   -6.1306    0.0000 H   0  0  0  0  0  0  0  0  0  0  0  0
    6.7304   -7.9843    0.0000 O   0  0  0  0  0  0  0  0  0  0  0  0
    7.7035   -6.6120    0.0000 O   0  0  0  0  0  0  0  0  0  0  0  0
    9.6790   -7.8734    0.0000 O   0  0  0  0  0  0  0  0  0  0  0  0
    8.8821   -8.0869    0.0000 C   0  0  0  0  0  0  0  0  0  0  0  0
    4.7815   -6.8292    0.0000 C   0  0  0  0  0  0  0  0  0  0  0  0
    6.4119   -4.8772    0.0000 C   0  0  0  0  0  0  0  0  0  0  0  0
   10.1926   -4.8858    0.0000 C   0  0  0  0  0  0  0  0  0  0  0  0
    9.6511   -5.5082    0.0000 C   0  0  0  0  0  0  0  0  0  0  0  0
    9.9193   -6.2884    0.0000 C   0  0  0  0  0  0  0  0  0  0  0  0
    9.1145   -3.9479    0.0000 O   0  0  0  0  0  0  0  0  0  0  0  0
    5.8824   -8.2468    0.0000 O   0  0  0  0  0  0  0  0  0  0  0  0
    7.2217   -5.0350    0.0000 C   0  0  2  0  0  0  0  0  0  0  0  0
    7.7632   -4.4126    0.0000 C   0  0  0  0  0  0  0  0  0  0  0  0
    8.5730   -4.5703    0.0000 C   0  0  0  0  0  0  0  0  0  0  0  0
    8.8413   -5.3505    0.0000 C   0  0  2  0  0  0  0  0  0  0  0  0
    6.8882   -7.1745    0.0000 C   0  0  2  0  0  0  0  0  0  0  0  0
    7.5493   -7.6680    0.0000 C   0  0  0  0  0  0  0  0  0  0  0  0
    8.3474   -7.4587    0.0000 C   0  0  0  0  0  0  0  0  0  0  0  0
    8.6813   -6.7043    0.0000 C   0  0  0  0  0  0  0  0  0  0  0  0
    8.2998   -5.9729    0.0000 C   0  0  2  0  0  0  0  0  0  0  0  0
    7.4900   -5.8151    0.0000 C   0  0  2  0  0  0  0  0  0  0  0  0
    6.8618   -6.3499    0.0000 C   0  0  2  0  0  0  0  0  0  0  0  0
    6.0694   -6.1202    0.0000 C   0  0  0  0  0  0  0  0  0  0  0  0
    5.6061   -6.8028    0.0000 C   0  0  0  0  0  0  0  0  0  0  0  0
    6.1121   -7.4544    0.0000 C   0  0  0  0  0  0  0  0  0  0  0  0
 24  1  1  6  0  0  0
 22  2  1  1  0  0  0
 18  3  1  1  0  0  0
 23  4  1  6  0  0  0
 20  6  1  0  0  0  0
  6  5  1  0  0  0  0
 26  7  1  0  0  0  0
 14  8  1  6  0  0  0
 17 10  1  1  0  0  0
 10  9  1  0  0  0  0
 11 10  1  0  0  0  0
 16 12  2  0  0  0  0
 27 13  2  0  0  0  0
 17 22  1  0  0  0  0
 14 23  1  0  0  0  0
 15 14  1  0  0  0  0
 16 15  1  0  0  0  0
 17 16  1  0  0  0  0
 24 18  1  0  0  0  0
 27 18  1  0  0  0  0
 19 18  1  0  0  0  0
 20 19  1  0  0  0  0
 21 20  2  0  0  0  0
 22 21  1  0  0  0  0
 23 22  1  0  0  0  0
 24 23  1  0  0  0  0
 25 24  1  0  0  0  0
 26 25  2  0  0  0  0
 27 26  1  0  0  0  0
M  END
>  <cdx:groupId>
392

>  <cdx:fragmentId>
312

$$$$
