301662.cdx
  Mrv1902 05222410262D          

 52 54  0  0  0  0            999 V2000
    3.3257   -3.3284    0.0000 C   0  0  0  0  0  0  0  0  0  0  0  0
    3.3257   -2.5034    0.0000 C   0  0  0  0  0  0  0  0  0  0  0  0
    2.6113   -3.7409    0.0000 O   0  0  0  0  0  0  0  0  0  0  0  0
    4.0402   -3.7409    0.0000 O   0  0  0  0  0  0  0  0  0  0  0  0
    4.7547   -5.8034    0.0000 O   0  0  0  0  0  0  0  0  0  0  0  0
    4.7547   -4.9784    0.0000 C   0  0  2  0  0  0  0  0  0  0  0  0
    4.0402   -4.5659    0.0000 C   0  0  1  0  0  0  0  0  0  0  0  0
    3.3257   -4.9784    0.0000 C   0  0  2  0  0  0  0  0  0  0  0  0
    3.3257   -5.8034    0.0000 C   0  0  0  0  0  0  0  0  0  0  0  0
    4.0402   -6.2159    0.0000 C   0  0  2  0  0  0  0  0  0  0  0  0
    2.9132   -4.2639    0.0000 C   0  0  0  0  0  0  0  0  0  0  0  0
    5.4691   -4.5659    0.0000 C   0  0  0  0  0  0  0  0  0  0  0  0
    2.5007   -4.9784    0.0000 O   0  0  0  0  0  0  0  0  0  0  0  0
    4.0402   -7.0409    0.0000 O   0  0  0  0  0  0  0  0  0  0  0  0
    6.1836   -7.4534    0.0000 O   0  0  0  0  0  0  0  0  0  0  0  0
    5.4691   -7.0409    0.0000 C   0  0  1  0  0  0  0  0  0  0  0  0
    4.7547   -7.4534    0.0000 C   0  0  2  0  0  0  0  0  0  0  0  0
    4.7547   -8.2784    0.0000 C   0  0  1  0  0  0  0  0  0  0  0  0
    5.4691   -8.6909    0.0000 C   0  0  2  0  0  0  0  0  0  0  0  0
    6.1836   -8.2784    0.0000 C   0  0  2  0  0  0  0  0  0  0  0  0
    5.4691   -6.2159    0.0000 C   0  0  0  0  0  0  0  0  0  0  0  0
    5.4691   -9.5159    0.0000 O   0  0  0  0  0  0  0  0  0  0  0  0
    4.0402   -8.6909    0.0000 N   0  0  0  0  0  0  0  0  0  0  0  0
    4.0402   -9.5159    0.0000 C   0  0  0  0  0  0  0  0  0  0  0  0
    3.3257   -8.2784    0.0000 C   0  0  0  0  0  0  0  0  0  0  0  0
    6.8981   -8.6909    0.0000 O   0  0  0  0  0  0  0  0  0  0  0  0
   11.1849   -8.6909    0.0000 O   0  0  0  0  0  0  0  0  0  0  0  0
   10.4704   -8.2784    0.0000 C   0  0  0  0  0  0  0  0  0  0  0  0
    9.7560   -8.6909    0.0000 C   0  0  0  0  0  0  0  0  0  0  0  0
    9.0415   -8.2784    0.0000 C   0  0  2  0  0  0  0  0  0  0  0  0
    8.3270   -8.6909    0.0000 C   0  0  1  0  0  0  0  0  0  0  0  0
    7.6126   -8.2784    0.0000 C   0  0  2  0  0  0  0  0  0  0  0  0
    7.6126   -7.4534    0.0000 C   0  0  2  0  0  0  0  0  0  0  0  0
    8.3270   -7.0409    0.0000 C   0  0  0  0  0  0  0  0  0  0  0  0
    8.3270   -6.2159    0.0000 C   0  0  2  0  0  0  0  0  0  0  0  0
    9.0415   -5.8034    0.0000 C   0  0  2  0  0  0  0  0  0  0  0  0
    9.7560   -6.2159    0.0000 C   0  0  0  0  0  0  0  0  0  0  0  0
   10.4704   -5.8034    0.0000 C   0  0  0  0  0  0  0  0  0  0  0  0
   11.1849   -6.2159    0.0000 C   0  0  0  0  0  0  0  0  0  0  0  0
   11.1849   -7.0409    0.0000 C   0  0  0  0  0  0  0  0  0  0  0  0
   11.8994   -7.4534    0.0000 C   0  0  0  0  0  0  0  0  0  0  0  0
   11.8994   -8.2784    0.0000 C   0  0  1  0  0  0  0  0  0  0  0  0
    6.8981   -7.0409    0.0000 C   0  0  0  0  0  0  0  0  0  0  0  0
    6.8981   -6.2159    0.0000 C   0  0  0  0  0  0  0  0  0  0  0  0
    6.1836   -5.8034    0.0000 O   0  0  0  0  0  0  0  0  0  0  0  0
   10.4704   -7.4534    0.0000 O   0  0  0  0  0  0  0  0  0  0  0  0
   12.6139   -8.6909    0.0000 C   0  0  0  0  0  0  0  0  0  0  0  0
    7.6126   -5.8034    0.0000 C   0  0  0  0  0  0  0  0  0  0  0  0
    8.3270   -9.5159    0.0000 O   0  0  0  0  0  0  0  0  0  0  0  0
    7.6126   -9.9284    0.0000 C   0  0  0  0  0  0  0  0  0  0  0  0
    9.0415   -4.9784    0.0000 O   0  0  0  0  0  0  0  0  0  0  0  0
    9.0415   -7.4534    0.0000 O   0  0  0  0  0  0  0  0  0  0  0  0
  1  2  1  0  0  0  0
  1  3  2  0  0  0  0
  1  4  1  0  0  0  0
  5  6  1  0  0  0  0
  6  7  1  0  0  0  0
  7  8  1  0  0  0  0
  8  9  1  0  0  0  0
  9 10  1  0  0  0  0
  5 10  1  0  0  0  0
  8 11  1  6  0  0  0
  6 12  1  6  0  0  0
  8 13  1  1  0  0  0
 15 16  1  0  0  0  0
 16 17  1  0  0  0  0
 17 18  1  0  0  0  0
 18 19  1  0  0  0  0
 19 20  1  0  0  0  0
 15 20  1  0  0  0  0
 16 21  1  1  0  0  0
 19 22  1  6  0  0  0
 23 24  1  0  0  0  0
 23 25  1  0  0  0  0
 18 23  1  1  0  0  0
 27 28  1  0  0  0  0
 28 29  1  0  0  0  0
 29 30  1  0  0  0  0
 30 31  1  0  0  0  0
 31 32  1  0  0  0  0
 32 33  1  0  0  0  0
 33 34  1  0  0  0  0
 34 35  1  0  0  0  0
 35 36  1  0  0  0  0
 36 37  1  0  0  0  0
 37 38  2  0  0  0  0
 38 39  1  0  0  0  0
 39 40  2  0  0  0  0
 40 41  1  0  0  0  0
 41 42  1  0  0  0  0
 27 42  1  0  0  0  0
 43 44  1  0  0  0  0
 44 45  2  0  0  0  0
 33 43  1  1  0  0  0
 28 46  2  0  0  0  0
 42 47  1  1  0  0  0
 35 48  1  1  0  0  0
 49 50  1  0  0  0  0
 31 49  1  6  0  0  0
 36 51  1  1  0  0  0
 30 52  1  6  0  0  0
 32 26  1  1  0  0  0
 20 26  1  1  0  0  0
 17 14  1  6  0  0  0
 10 14  1  1  0  0  0
  7  4  1  1  0  0  0
M  END
>  <cdx:groupId>
2717

>  <cdx:fragmentId>
2614

$$$$
