301620.cdx
  Mrv1902 05222410212D          

 56 61  0  0  0  0            999 V2000
   11.0639   -7.3613    0.0000 C   0  0  0  0  0  0  0  0  0  0  0  0
   11.0648   -8.1863    0.0000 C   0  0  0  0  0  0  0  0  0  0  0  0
   11.7797   -8.5980    0.0000 C   0  0  0  0  0  0  0  0  0  0  0  0
   12.4938   -8.1847    0.0000 C   0  0  0  0  0  0  0  0  0  0  0  0
    4.9180   -5.9653    0.0000 O   0  0  0  0  0  0  0  0  0  0  0  0
    3.4864   -3.4918    0.0000 O   0  0  0  0  0  0  0  0  0  0  0  0
    1.3443   -4.7316    0.0000 C   0  0  0  0  0  0  0  0  0  0  0  0
    2.0601   -5.9683    0.0000 C   0  0  0  0  0  0  0  0  0  0  0  0
    2.0593   -5.1433    0.0000 C   0  0  0  0  0  0  0  0  0  0  0  0
    2.7733   -4.7301    0.0000 C   0  0  0  0  0  0  0  0  0  0  0  0
    3.4882   -5.1418    0.0000 C   0  0  0  0  0  0  0  0  0  0  0  0
    6.3470   -5.9638    0.0000 O   0  0  0  0  0  0  0  0  0  0  0  0
    5.6303   -3.9020    0.0000 C   0  0  0  0  0  0  0  0  0  0  0  0
    4.9154   -3.4903    0.0000 C   0  0  0  0  0  0  0  0  0  0  0  0
    4.2014   -3.9035    0.0000 C   0  0  0  0  0  0  0  0  0  0  0  0
    4.2022   -4.7285    0.0000 C   0  0  0  0  0  0  0  0  0  0  0  0
    4.9171   -5.1403    0.0000 C   0  0  0  0  0  0  0  0  0  0  0  0
    5.6312   -4.7270    0.0000 C   0  0  0  0  0  0  0  0  0  0  0  0
    6.3461   -5.1388    0.0000 C   0  0  0  0  0  0  0  0  0  0  0  0
    7.4859   -2.0026    0.0000 O   0  0  0  0  0  0  0  0  0  0  0  0
    4.6280   -2.0056    0.0000 O   0  0  0  0  0  0  0  0  0  0  0  0
    6.0587   -3.6541    0.0000 C   0  0  0  0  0  0  0  0  0  0  0  0
    5.3438   -3.2423    0.0000 C   0  0  0  0  0  0  0  0  0  0  0  0
    5.3429   -2.4173    0.0000 C   0  0  0  0  0  0  0  0  0  0  0  0
    6.0570   -2.0041    0.0000 C   0  0  0  0  0  0  0  0  0  0  0  0
    6.7719   -2.4158    0.0000 C   0  0  0  0  0  0  0  0  0  0  0  0
    6.7727   -3.2408    0.0000 C   0  0  0  0  0  0  0  0  0  0  0  0
    9.6306   -3.2378    0.0000 C   0  0  0  0  0  0  0  0  0  0  0  0
    7.4885   -4.4776    0.0000 C   0  0  1  0  0  0  0  0  0  0  0  0
    7.4877   -3.6526    0.0000 C   0  0  1  0  0  0  0  0  0  0  0  0
    8.2017   -3.2393    0.0000 C   0  0  0  0  0  0  0  0  0  0  0  0
    8.9166   -3.6510    0.0000 C   0  0  0  0  0  0  0  0  0  0  0  0
    8.9175   -4.4760    0.0000 C   0  0  0  0  0  0  0  0  0  0  0  0
    8.2034   -4.8893    0.0000 C   0  0  2  0  0  0  0  0  0  0  0  0
   10.3464   -4.4745    0.0000 O   0  0  0  0  0  0  0  0  0  0  0  0
   13.2043   -4.4715    0.0000 O   0  0  0  0  0  0  0  0  0  0  0  0
   11.7771   -6.1230    0.0000 C   0  0  0  0  0  0  0  0  0  0  0  0
   12.4911   -5.7097    0.0000 C   0  0  0  0  0  0  0  0  0  0  0  0
   12.4903   -4.8847    0.0000 C   0  0  0  0  0  0  0  0  0  0  0  0
   11.7754   -4.4730    0.0000 C   0  0  0  0  0  0  0  0  0  0  0  0
   11.0613   -4.8863    0.0000 C   0  0  0  0  0  0  0  0  0  0  0  0
   11.0622   -5.7113    0.0000 C   0  0  0  0  0  0  0  0  0  0  0  0
    8.2069   -8.1893    0.0000 O   0  0  0  0  0  0  0  0  0  0  0  0
    6.7754   -5.7158    0.0000 O   0  0  0  0  0  0  0  0  0  0  0  0
   11.7806   -9.4230    0.0000 C   0  0  0  0  0  0  0  0  0  0  0  0
    9.6359   -8.1878    0.0000 O   0  0  0  0  0  0  0  0  0  0  0  0
    9.6333   -5.7128    0.0000 O   0  0  0  0  0  0  0  0  0  0  0  0
    8.9192   -6.1260    0.0000 C   0  0  0  0  0  0  0  0  0  0  0  0
    8.2043   -5.7143    0.0000 C   0  0  0  0  0  0  0  0  0  0  0  0
    7.4903   -6.1276    0.0000 C   0  0  0  0  0  0  0  0  0  0  0  0
    7.4912   -6.9525    0.0000 C   0  0  0  0  0  0  0  0  0  0  0  0
    8.2061   -7.3643    0.0000 C   0  0  0  0  0  0  0  0  0  0  0  0
    8.9201   -6.9510    0.0000 C   0  0  0  0  0  0  0  0  0  0  0  0
    9.6350   -7.3628    0.0000 C   0  0  0  0  0  0  0  0  0  0  0  0
   10.3490   -6.9495    0.0000 C   0  0  0  0  0  0  0  0  0  0  0  0
   10.3482   -6.1245    0.0000 C   0  0  0  0  0  0  0  0  0  0  0  0
 34 49  1  6  0  0  0
 29 19  1  1  0  0  0
 17  5  1  0  0  0  0
 15  6  1  0  0  0  0
 16 11  1  0  0  0  0
  9  7  1  0  0  0  0
  9  8  1  0  0  0  0
 10  9  2  0  0  0  0
 11 10  1  0  0  0  0
 19 12  2  0  0  0  0
 18 13  2  0  0  0  0
 14 13  1  0  0  0  0
 15 14  2  0  0  0  0
 16 15  1  0  0  0  0
 17 16  2  0  0  0  0
 18 17  1  0  0  0  0
 19 18  1  0  0  0  0
 30 27  1  6  0  0  0
 26 20  1  0  0  0  0
 24 21  1  0  0  0  0
 27 22  2  0  0  0  0
 23 22  1  0  0  0  0
 24 23  2  0  0  0  0
 25 24  1  0  0  0  0
 26 25  2  0  0  0  0
 27 26  1  0  0  0  0
 32 28  1  0  0  0  0
 34 29  1  0  0  0  0
 30 29  1  0  0  0  0
 31 30  1  0  0  0  0
 32 31  1  0  0  0  0
 33 32  2  0  0  0  0
 34 33  1  0  0  0  0
 56 42  1  0  0  0  0
 41 35  1  0  0  0  0
 39 36  1  0  0  0  0
 42 37  2  0  0  0  0
 38 37  1  0  0  0  0
 39 38  2  0  0  0  0
 40 39  1  0  0  0  0
 41 40  2  0  0  0  0
 42 41  1  0  0  0  0
 52 43  1  0  0  0  0
 50 44  1  0  0  0  0
 55  1  1  0  0  0  0
 54 46  2  0  0  0  0
 56 47  1  0  0  0  0
 48 47  1  0  0  0  0
 53 48  2  0  0  0  0
 49 48  1  0  0  0  0
 50 49  2  0  0  0  0
 51 50  1  0  0  0  0
 52 51  2  0  0  0  0
 53 52  1  0  0  0  0
 54 53  1  0  0  0  0
 55 54  1  0  0  0  0
 56 55  2  0  0  0  0
  1  2  1  0  0  0  0
  2  3  2  0  0  0  0
  3  4  1  0  0  0  0
  3 45  1  0  0  0  0
M  END
>  <cdx:fragmentId>
242

$$$$
