301685.cdx
  Mrv1902 05222410202D          

 55 60  0  0  0  0            999 V2000
    8.5971   -4.3122    0.0000 C   0  0  0  0  0  0  0  0  0  0  0  0
    8.5971   -3.4872    0.0000 C   0  0  0  0  0  0  0  0  0  0  0  0
    9.3116   -3.0747    0.0000 C   0  0  0  0  0  0  0  0  0  0  0  0
   10.0260   -3.4872    0.0000 C   0  0  0  0  0  0  0  0  0  0  0  0
   10.0260   -4.3122    0.0000 C   0  0  0  0  0  0  0  0  0  0  0  0
    9.3116   -4.7247    0.0000 C   0  0  0  0  0  0  0  0  0  0  0  0
   10.7405   -3.0747    0.0000 O   0  0  0  0  0  0  0  0  0  0  0  0
    5.7392   -6.7872    0.0000 O   0  0  0  0  0  0  0  0  0  0  0  0
    4.3103   -4.3122    0.0000 O   0  0  0  0  0  0  0  0  0  0  0  0
   10.0260   -6.7872    0.0000 O   0  0  0  0  0  0  0  0  0  0  0  0
   10.0260   -8.4372    0.0000 O   0  0  0  0  0  0  0  0  0  0  0  0
    8.5971   -9.2622    0.0000 O   0  0  0  0  0  0  0  0  0  0  0  0
    6.4537   -9.6747    0.0000 O   0  0  0  0  0  0  0  0  0  0  0  0
    5.0247  -10.4997    0.0000 O   0  0  0  0  0  0  0  0  0  0  0  0
    3.5958   -9.6747    0.0000 O   0  0  0  0  0  0  0  0  0  0  0  0
    3.5958   -8.0247    0.0000 C   0  0  0  0  0  0  0  0  0  0  0  0
    4.3103   -8.4372    0.0000 C   0  0  1  0  0  0  0  0  0  0  0  0
    4.3103   -9.2622    0.0000 C   0  0  1  0  0  0  0  0  0  0  0  0
    5.0247   -9.6747    0.0000 C   0  0  2  0  0  0  0  0  0  0  0  0
    5.7392   -9.2622    0.0000 C   0  0  2  0  0  0  0  0  0  0  0  0
    5.7392   -8.4372    0.0000 C   0  0  1  0  0  0  0  0  0  0  0  0
    5.0247   -8.0247    0.0000 O   0  0  0  0  0  0  0  0  0  0  0  0
    6.4537   -8.0247    0.0000 O   0  0  0  0  0  0  0  0  0  0  0  0
    7.1681   -8.4372    0.0000 C   0  0  0  0  0  0  0  0  0  0  0  0
    7.8826   -8.0247    0.0000 C   0  0  2  0  0  0  0  0  0  0  0  0
    8.5971   -8.4372    0.0000 C   0  0  2  0  0  0  0  0  0  0  0  0
    9.3116   -8.0247    0.0000 C   0  0  1  0  0  0  0  0  0  0  0  0
    9.3116   -7.1997    0.0000 C   0  0  2  0  0  0  0  0  0  0  0  0
    8.5971   -6.7872    0.0000 C   0  0  1  0  0  0  0  0  0  0  0  0
    7.8826   -7.1997    0.0000 O   0  0  0  0  0  0  0  0  0  0  0  0
    8.5971   -5.9622    0.0000 O   0  0  0  0  0  0  0  0  0  0  0  0
    7.1681   -6.7872    0.0000 O   0  0  0  0  0  0  0  0  0  0  0  0
    7.1681   -4.3122    0.0000 O   0  0  0  0  0  0  0  0  0  0  0  0
    6.4537   -4.7247    0.0000 C   0  0  0  0  0  0  0  0  0  0  0  0
    5.7392   -4.3122    0.0000 C   0  0  0  0  0  0  0  0  0  0  0  0
    5.0247   -4.7247    0.0000 C   0  0  0  0  0  0  0  0  0  0  0  0
    5.0247   -5.5497    0.0000 C   0  0  0  0  0  0  0  0  0  0  0  0
    5.7392   -5.9622    0.0000 C   0  0  0  0  0  0  0  0  0  0  0  0
    6.4537   -5.5497    0.0000 C   0  0  0  0  0  0  0  0  0  0  0  0
    7.1681   -5.9622    0.0000 C   0  0  0  0  0  0  0  0  0  0  0  0
    7.8826   -5.5497    0.0000 C   0  0  0  0  0  0  0  0  0  0  0  0
    7.8826   -4.7247    0.0000 C   0  0  0  0  0  0  0  0  0  0  0  0
    4.9962  -12.1275    0.0000 C   0  0  0  0  0  0  0  0  0  0  0  0
    4.9962  -12.9525    0.0000 C   0  0  0  0  0  0  0  0  0  0  0  0
    5.7106  -13.3650    0.0000 C   0  0  0  0  0  0  0  0  0  0  0  0
    6.4251  -12.9525    0.0000 C   0  0  0  0  0  0  0  0  0  0  0  0
    6.4251  -12.1275    0.0000 C   0  0  0  0  0  0  0  0  0  0  0  0
    5.7106  -11.7150    0.0000 C   0  0  0  0  0  0  0  0  0  0  0  0
    5.7106  -10.8900    0.0000 C   0  0  0  0  0  0  0  0  0  0  0  0
    4.2817  -13.3650    0.0000 O   0  0  0  0  0  0  0  0  0  0  0  0
    3.5672  -12.9525    0.0000 C   0  0  0  0  0  0  0  0  0  0  0  0
    5.7106  -14.1900    0.0000 O   0  0  0  0  0  0  0  0  0  0  0  0
    7.1396  -13.3650    0.0000 O   0  0  0  0  0  0  0  0  0  0  0  0
    7.8541  -12.9525    0.0000 C   0  0  0  0  0  0  0  0  0  0  0  0
    6.4238  -10.4753    0.0000 O   0  0  0  0  0  0  0  0  0  0  0  0
 42  1  1  0  0  0  0
 38  8  1  0  0  0  0
 36  9  1  0  0  0  0
 41 31  1  0  0  0  0
 29 31  1  1  0  0  0
 28 10  1  6  0  0  0
 27 11  1  1  0  0  0
 26 12  1  6  0  0  0
 25 24  1  1  0  0  0
 24 23  1  0  0  0  0
 21 23  1  1  0  0  0
 20 13  1  6  0  0  0
 19 14  1  6  0  0  0
 18 15  1  1  0  0  0
 17 16  1  6  0  0  0
 22 17  1  0  0  0  0
 18 17  1  0  0  0  0
 19 18  1  0  0  0  0
 20 19  1  0  0  0  0
 21 20  1  0  0  0  0
 22 21  1  0  0  0  0
 30 25  1  0  0  0  0
 26 25  1  0  0  0  0
 27 26  1  0  0  0  0
 28 27  1  0  0  0  0
 29 28  1  0  0  0  0
 30 29  1  0  0  0  0
 40 32  2  0  0  0  0
 42 33  1  0  0  0  0
 34 33  1  0  0  0  0
 39 34  2  0  0  0  0
 35 34  1  0  0  0  0
 36 35  2  0  0  0  0
 37 36  1  0  0  0  0
 38 37  2  0  0  0  0
 39 38  1  0  0  0  0
 40 39  1  0  0  0  0
 41 40  1  0  0  0  0
 42 41  2  0  0  0  0
  1  2  1  0  0  0  0
  2  3  2  0  0  0  0
  3  4  1  0  0  0  0
  4  5  2  0  0  0  0
  5  6  1  0  0  0  0
  1  6  2  0  0  0  0
  4  7  1  0  0  0  0
 43 44  2  0  0  0  0
 44 45  1  0  0  0  0
 45 46  2  0  0  0  0
 46 47  1  0  0  0  0
 47 48  2  0  0  0  0
 48 43  1  0  0  0  0
 48 49  1  0  0  0  0
 44 50  1  0  0  0  0
 50 51  1  0  0  0  0
 45 52  1  0  0  0  0
 46 53  1  0  0  0  0
 53 54  1  0  0  0  0
 49 14  1  0  0  0  0
 49 55  2  0  0  0  0
M  END
>  <cdx:fragmentId>
45

$$$$
