301678.cdx
  Mrv1902 05222410192D          

 34 37  0  0  0  0            999 V2000
    6.1709   -6.6344    0.0000 O   0  0  0  0  0  0  0  0  0  0  0  0
    6.6558   -5.9669    0.0000 C   0  0  0  0  0  0  0  0  0  0  0  0
    7.4404   -6.2219    0.0000 C   0  0  1  0  0  0  0  0  0  0  0  0
    7.4404   -7.0469    0.0000 C   0  0  1  0  0  0  0  0  0  0  0  0
    6.6558   -7.3018    0.0000 C   0  0  0  0  0  0  0  0  0  0  0  0
    8.7100   -6.6344    0.0000 O   0  0  0  0  0  0  0  0  0  0  0  0
    8.2250   -5.9669    0.0000 C   0  0  2  0  0  0  0  0  0  0  0  0
    8.2250   -7.3018    0.0000 C   0  0  0  0  0  0  0  0  0  0  0  0
    8.4800   -5.1823    0.0000 C   0  0  0  0  0  0  0  0  0  0  0  0
    9.2869   -5.0108    0.0000 C   0  0  0  0  0  0  0  0  0  0  0  0
    9.5419   -4.2262    0.0000 C   0  0  0  0  0  0  0  0  0  0  0  0
    8.9899   -3.6131    0.0000 C   0  0  0  0  0  0  0  0  0  0  0  0
    8.1829   -3.7846    0.0000 C   0  0  0  0  0  0  0  0  0  0  0  0
    7.9279   -4.5692    0.0000 C   0  0  0  0  0  0  0  0  0  0  0  0
    7.6309   -3.1715    0.0000 O   0  0  0  0  0  0  0  0  0  0  0  0
    6.8239   -3.3430    0.0000 C   0  0  0  0  0  0  0  0  0  0  0  0
    9.2448   -2.8284    0.0000 O   0  0  0  0  0  0  0  0  0  0  0  0
   10.0518   -2.6569    0.0000 C   0  0  0  0  0  0  0  0  0  0  0  0
   10.3489   -4.0546    0.0000 O   0  0  0  0  0  0  0  0  0  0  0  0
   10.9009   -4.6677    0.0000 C   0  0  0  0  0  0  0  0  0  0  0  0
    6.4009   -8.0864    0.0000 C   0  0  0  0  0  0  0  0  0  0  0  0
    5.5939   -8.2580    0.0000 C   0  0  0  0  0  0  0  0  0  0  0  0
    5.3389   -9.0426    0.0000 C   0  0  0  0  0  0  0  0  0  0  0  0
    5.8910   -9.6557    0.0000 C   0  0  0  0  0  0  0  0  0  0  0  0
    6.6980   -9.4842    0.0000 C   0  0  0  0  0  0  0  0  0  0  0  0
    6.9529   -8.6995    0.0000 C   0  0  0  0  0  0  0  0  0  0  0  0
    7.2500  -10.0972    0.0000 O   0  0  0  0  0  0  0  0  0  0  0  0
    8.0570   -9.9257    0.0000 C   0  0  0  0  0  0  0  0  0  0  0  0
    5.6360  -10.4403    0.0000 O   0  0  0  0  0  0  0  0  0  0  0  0
    4.8291  -10.6118    0.0000 C   0  0  0  0  0  0  0  0  0  0  0  0
    4.5320   -9.2141    0.0000 O   0  0  0  0  0  0  0  0  0  0  0  0
    3.9486   -8.6307    0.0000 C   0  0  0  0  0  0  0  0  0  0  0  0
    7.4404   -7.8719    0.0000 H   0  0  0  0  0  0  0  0  0  0  0  0
    7.4404   -5.3969    0.0000 H   0  0  0  0  0  0  0  0  0  0  0  0
  1  2  1  0  0  0  0
  2  3  1  0  0  0  0
  3  4  1  0  0  0  0
  4  5  1  0  0  0  0
  1  5  1  0  0  0  0
  6  7  1  0  0  0  0
  6  8  1  0  0  0  0
  7  3  1  0  0  0  0
  8  4  1  0  0  0  0
  9 10  1  0  0  0  0
 10 11  2  0  0  0  0
 11 12  1  0  0  0  0
 12 13  2  0  0  0  0
 13 14  1  0  0  0  0
  9 14  2  0  0  0  0
 15 16  1  0  0  0  0
 13 15  1  0  0  0  0
 17 18  1  0  0  0  0
 12 17  1  0  0  0  0
 19 20  1  0  0  0  0
 11 19  1  0  0  0  0
  7  9  1  1  0  0  0
 21 22  1  0  0  0  0
 22 23  2  0  0  0  0
 23 24  1  0  0  0  0
 24 25  2  0  0  0  0
 25 26  1  0  0  0  0
 21 26  2  0  0  0  0
 27 28  1  0  0  0  0
 25 27  1  0  0  0  0
 29 30  1  0  0  0  0
 24 29  1  0  0  0  0
 31 32  1  0  0  0  0
 23 31  1  0  0  0  0
  5 21  1  0  0  0  0
  4 33  1  1  0  0  0
  3 34  1  1  0  0  0
M  END
>  <cdx:groupId>
3793

>  <cdx:fragmentId>
3707

$$$$
