301604.cdx
  Mrv1902 05222410252D          

 45 48  0  0  0  0            999 V2000
    4.6056   -7.0454    0.0000 C   0  0  0  0  0  0  0  0  0  0  0  0
    3.8911   -7.4579    0.0000 C   0  0  0  0  0  0  0  0  0  0  0  0
    3.1766   -7.0454    0.0000 C   0  0  0  0  0  0  0  0  0  0  0  0
    4.6056   -6.2204    0.0000 O   0  0  0  0  0  0  0  0  0  0  0  0
    5.3200   -7.4579    0.0000 O   0  0  0  0  0  0  0  0  0  0  0  0
    2.4621   -7.4579    0.0000 C   0  0  0  0  0  0  0  0  0  0  0  0
    1.7477   -7.0454    0.0000 C   0  0  0  0  0  0  0  0  0  0  0  0
    1.0332   -7.4579    0.0000 C   0  0  0  0  0  0  0  0  0  0  0  0
    1.0332   -8.2829    0.0000 C   0  0  0  0  0  0  0  0  0  0  0  0
    1.7477   -8.6954    0.0000 C   0  0  0  0  0  0  0  0  0  0  0  0
    2.4621   -8.2829    0.0000 C   0  0  0  0  0  0  0  0  0  0  0  0
    0.3187   -8.6954    0.0000 O   0  0  0  0  0  0  0  0  0  0  0  0
    0.3187   -7.0454    0.0000 O   0  0  0  0  0  0  0  0  0  0  0  0
    6.0345   -7.0454    0.0000 C   0  0  0  0  0  0  0  0  0  0  0  0
    8.0185   -7.8704    0.0000 O   0  0  0  0  0  0  0  0  0  0  0  0
    7.2339   -8.1253    0.0000 C   0  0  0  0  0  0  0  0  0  0  0  0
    6.7490   -7.4579    0.0000 C   0  0  1  0  0  0  0  0  0  0  0  0
    7.2339   -6.7904    0.0000 C   0  0  2  0  0  0  0  0  0  0  0  0
    8.0185   -7.0454    0.0000 C   0  0  2  0  0  0  0  0  0  0  0  0
    8.6860   -6.5605    0.0000 O   0  0  0  0  0  0  0  0  0  0  0  0
    9.4396   -6.8960    0.0000 C   0  0  0  0  0  0  0  0  0  0  0  0
   10.8607   -6.7467    0.0000 O   0  0  0  0  0  0  0  0  0  0  0  0
   10.1071   -6.4111    0.0000 C   0  0  1  0  0  0  0  0  0  0  0  0
   10.0208   -5.5906    0.0000 C   0  0  2  0  0  0  0  0  0  0  0  0
   10.6883   -5.1057    0.0000 C   0  0  1  0  0  0  0  0  0  0  0  0
   11.4419   -5.4413    0.0000 C   0  0  2  0  0  0  0  0  0  0  0  0
   11.5282   -6.2617    0.0000 C   0  0  2  0  0  0  0  0  0  0  0  0
   12.2819   -6.5973    0.0000 O   0  0  0  0  0  0  0  0  0  0  0  0
   12.9493   -6.1124    0.0000 C   0  0  0  0  0  0  0  0  0  0  0  0
   12.8631   -5.2919    0.0000 C   0  0  0  0  0  0  0  0  0  0  0  0
   13.5305   -4.8070    0.0000 C   0  0  0  0  0  0  0  0  0  0  0  0
   14.2842   -5.1425    0.0000 C   0  0  0  0  0  0  0  0  0  0  0  0
   14.3704   -5.9630    0.0000 C   0  0  0  0  0  0  0  0  0  0  0  0
   13.7030   -6.4479    0.0000 C   0  0  0  0  0  0  0  0  0  0  0  0
   15.1241   -6.2986    0.0000 O   0  0  0  0  0  0  0  0  0  0  0  0
   15.7915   -5.8136    0.0000 C   0  0  0  0  0  0  0  0  0  0  0  0
   14.9516   -4.6576    0.0000 O   0  0  0  0  0  0  0  0  0  0  0  0
   15.7053   -4.9932    0.0000 C   0  0  0  0  0  0  0  0  0  0  0  0
   13.4443   -3.9865    0.0000 O   0  0  0  0  0  0  0  0  0  0  0  0
   12.6906   -3.6509    0.0000 C   0  0  0  0  0  0  0  0  0  0  0  0
   12.1094   -4.9563    0.0000 O   0  0  0  0  0  0  0  0  0  0  0  0
   10.6020   -4.2852    0.0000 O   0  0  0  0  0  0  0  0  0  0  0  0
    9.2672   -5.2551    0.0000 O   0  0  0  0  0  0  0  0  0  0  0  0
    6.9790   -6.0058    0.0000 O   0  0  0  0  0  0  0  0  0  0  0  0
    6.0345   -7.8704    0.0000 O   0  0  0  0  0  0  0  0  0  0  0  0
  1  2  1  0  0  0  0
  2  3  2  0  0  0  0
  1  4  2  0  0  0  0
  1  5  1  0  0  0  0
  6  7  1  0  0  0  0
  7  8  2  0  0  0  0
  8  9  1  0  0  0  0
  9 10  2  0  0  0  0
 10 11  1  0  0  0  0
  6 11  2  0  0  0  0
  9 12  1  0  0  0  0
  8 13  1  0  0  0  0
  3  6  1  0  0  0  0
 15 16  1  0  0  0  0
 16 17  1  0  0  0  0
 17 18  1  0  0  0  0
 18 19  1  0  0  0  0
 15 19  1  0  0  0  0
 20 21  1  0  0  0  0
 22 23  1  0  0  0  0
 23 24  1  0  0  0  0
 24 25  1  0  0  0  0
 25 26  1  0  0  0  0
 26 27  1  0  0  0  0
 22 27  1  0  0  0  0
 29 30  1  0  0  0  0
 30 31  2  0  0  0  0
 31 32  1  0  0  0  0
 32 33  2  0  0  0  0
 33 34  1  0  0  0  0
 29 34  2  0  0  0  0
 28 29  1  0  0  0  0
 35 36  1  0  0  0  0
 33 35  1  0  0  0  0
 37 38  1  0  0  0  0
 32 37  1  0  0  0  0
 39 40  1  0  0  0  0
 31 39  1  0  0  0  0
 27 28  1  6  0  0  0
 26 41  1  1  0  0  0
 25 42  1  6  0  0  0
 24 43  1  1  0  0  0
 23 21  1  6  0  0  0
 19 20  1  6  0  0  0
 18 44  1  1  0  0  0
 17 45  1  1  0  0  0
 17 14  1  6  0  0  0
  5 14  1  0  0  0  0
M  END
>  <cdx:groupId>
4864

>  <cdx:fragmentId>
4785

$$$$
