301638.cdx
  Mrv1902 05222410252D          

 23 24  0  0  0  0            999 V2000
    9.9256   -7.2616    0.0000 O   0  0  0  0  0  0  0  0  0  0  0  0
    5.6388   -8.0866    0.0000 O   0  0  0  0  0  0  0  0  0  0  0  0
    4.2099   -7.2616    0.0000 O   0  0  0  0  0  0  0  0  0  0  0  0
    4.2099   -5.6116    0.0000 O   0  0  0  0  0  0  0  0  0  0  0  0
    4.9244   -4.3741    0.0000 O   0  0  0  0  0  0  0  0  0  0  0  0
    5.6388   -4.7866    0.0000 C   0  0  0  0  0  0  0  0  0  0  0  0
    5.6388   -5.6116    0.0000 C   0  0  2  0  0  0  0  0  0  0  0  0
    4.9244   -6.0241    0.0000 C   0  0  2  0  0  0  0  0  0  0  0  0
    4.9244   -6.8491    0.0000 C   0  0  1  0  0  0  0  0  0  0  0  0
    5.6388   -7.2616    0.0000 C   0  0  2  0  0  0  0  0  0  0  0  0
    6.3533   -6.8491    0.0000 C   0  0  1  0  0  0  0  0  0  0  0  0
    6.3533   -6.0241    0.0000 O   0  0  0  0  0  0  0  0  0  0  0  0
    7.0678   -7.2616    0.0000 O   0  0  0  0  0  0  0  0  0  0  0  0
    8.4967   -8.0866    0.0000 O   0  0  0  0  0  0  0  0  0  0  0  0
    7.0678   -5.6116    0.0000 O   0  0  0  0  0  0  0  0  0  0  0  0
    8.4967   -4.7866    0.0000 C   0  0  0  0  0  0  0  0  0  0  0  0
    9.2112   -6.8491    0.0000 C   0  0  0  0  0  0  0  0  0  0  0  0
    8.4967   -7.2616    0.0000 C   0  0  1  0  0  0  0  0  0  0  0  0
    7.7822   -6.8491    0.0000 C   0  0  2  0  0  0  0  0  0  0  0  0
    7.7822   -6.0241    0.0000 C   0  0  1  0  0  0  0  0  0  0  0  0
    8.4967   -5.6116    0.0000 C   0  0  2  0  0  0  0  0  0  0  0  0
    9.2112   -6.0241    0.0000 O   0  0  0  0  0  0  0  0  0  0  0  0
    7.7822   -4.3741    0.0000 O   0  0  0  0  0  0  0  0  0  0  0  0
 17  1  1  0  0  0  0
 19 13  1  1  0  0  0
 11 13  1  1  0  0  0
 10  2  1  6  0  0  0
  9  3  1  1  0  0  0
  8  4  1  6  0  0  0
  7  6  1  1  0  0  0
  6  5  1  0  0  0  0
 12  7  1  0  0  0  0
  8  7  1  0  0  0  0
  9  8  1  0  0  0  0
 10  9  1  0  0  0  0
 11 10  1  0  0  0  0
 12 11  1  0  0  0  0
 18 14  1  6  0  0  0
 20 15  1  6  0  0  0
 21 16  1  1  0  0  0
 22 17  1  0  0  0  0
 18 17  1  0  0  0  0
 19 18  1  0  0  0  0
 20 19  1  0  0  0  0
 21 20  1  0  0  0  0
 22 21  1  0  0  0  0
 16 23  1  0  0  0  0
M  END
>  <cdx:groupId>
72

>  <cdx:fragmentId>
25

$$$$
