301693.cdx
  Mrv1902 05222410192D          

 16 17  0  0  0  0            999 V2000
    9.0651   -6.1611    0.0000 C   0  0  0  0  0  0  0  0  0  0  0  0
    8.3507   -6.5736    0.0000 C   0  0  0  0  0  0  0  0  0  0  0  0
    8.3507   -7.3986    0.0000 C   0  0  0  0  0  0  0  0  0  0  0  0
    9.7796   -6.5736    0.0000 O   0  0  0  0  0  0  0  0  0  0  0  0
    6.9217   -6.5736    0.0000 C   0  0  0  0  0  0  0  0  0  0  0  0
    7.6362   -6.1611    0.0000 C   0  0  0  0  0  0  0  0  0  0  0  0
    7.6362   -5.3361    0.0000 C   0  0  0  0  0  0  0  0  0  0  0  0
    6.9217   -4.9236    0.0000 C   0  0  0  0  0  0  0  0  0  0  0  0
    6.2072   -5.3361    0.0000 C   0  0  0  0  0  0  0  0  0  0  0  0
    5.4928   -4.9236    0.0000 C   0  0  0  0  0  0  0  0  0  0  0  0
    4.7783   -5.3361    0.0000 C   0  0  0  0  0  0  0  0  0  0  0  0
    4.7783   -6.1611    0.0000 C   0  0  0  0  0  0  0  0  0  0  0  0
    5.4928   -6.5736    0.0000 C   0  0  2  0  0  0  0  0  0  0  0  0
    6.2072   -6.1611    0.0000 C   0  0  2  0  0  0  0  0  0  0  0  0
    6.2072   -6.9861    0.0000 C   0  0  0  0  0  0  0  0  0  0  0  0
    5.4928   -7.3986    0.0000 C   0  0  0  0  0  0  0  0  0  0  0  0
  1  2  1  0  0  0  0
  2  3  1  0  0  0  0
  1  4  1  0  0  0  0
  5  6  1  0  0  0  0
  6  7  1  0  0  0  0
  7  8  1  0  0  0  0
  8  9  1  0  0  0  0
  9 10  2  0  0  0  0
 10 11  1  0  0  0  0
 11 12  1  0  0  0  0
 12 13  1  0  0  0  0
 13 14  1  0  0  0  0
  5 14  1  0  0  0  0
  9 14  1  0  0  0  0
 14 15  1  6  0  0  0
 13 16  1  6  0  0  0
  2  6  2  0  0  0  0
M  END
>  <cdx:groupId>
1433

>  <cdx:fragmentId>
1395

$$$$
