301683.cdx
  Mrv1902 05222410192D          

 31 34  0  0  0  0            999 V2000
   10.4108   -7.8966    0.0000 O   0  0  0  0  0  0  0  0  0  0  0  0
   10.4108   -6.2466    0.0000 O   0  0  0  0  0  0  0  0  0  0  0  0
    8.2674   -6.6591    0.0000 C   0  0  0  0  0  0  0  0  0  0  0  0
    8.9818   -6.2466    0.0000 C   0  0  0  0  0  0  0  0  0  0  0  0
    9.6963   -6.6591    0.0000 C   0  0  0  0  0  0  0  0  0  0  0  0
    9.6963   -7.4841    0.0000 C   0  0  0  0  0  0  0  0  0  0  0  0
    8.9818   -7.8966    0.0000 C   0  0  0  0  0  0  0  0  0  0  0  0
    8.2674   -7.4841    0.0000 C   0  0  0  0  0  0  0  0  0  0  0  0
    9.6963   -9.9591    0.0000 O   0  0  0  0  0  0  0  0  0  0  0  0
    9.6963  -11.6091    0.0000 O   0  0  0  0  0  0  0  0  0  0  0  0
    8.2674  -12.4341    0.0000 O   0  0  0  0  0  0  0  0  0  0  0  0
    7.5529  -11.1966    0.0000 C   0  0  0  0  0  0  0  0  0  0  0  0
    8.2674  -11.6091    0.0000 C   0  0  1  0  0  0  0  0  0  0  0  0
    8.9818  -11.1966    0.0000 C   0  0  1  0  0  0  0  0  0  0  0  0
    8.9818  -10.3716    0.0000 C   0  0  2  0  0  0  0  0  0  0  0  0
    8.2674   -9.9591    0.0000 C   0  0  1  0  0  0  0  0  0  0  0  0
    7.5529  -10.3716    0.0000 O   0  0  0  0  0  0  0  0  0  0  0  0
    8.2674   -9.1341    0.0000 O   0  0  0  0  0  0  0  0  0  0  0  0
    3.9805   -7.4841    0.0000 O   0  0  0  0  0  0  0  0  0  0  0  0
    5.4095   -9.9591    0.0000 O   0  0  0  0  0  0  0  0  0  0  0  0
    6.8384   -9.9591    0.0000 O   0  0  0  0  0  0  0  0  0  0  0  0
    6.8384   -7.4841    0.0000 O   0  0  0  0  0  0  0  0  0  0  0  0
    6.1239   -7.8966    0.0000 C   0  0  0  0  0  0  0  0  0  0  0  0
    5.4095   -7.4841    0.0000 C   0  0  0  0  0  0  0  0  0  0  0  0
    4.6950   -7.8966    0.0000 C   0  0  0  0  0  0  0  0  0  0  0  0
    4.6950   -8.7216    0.0000 C   0  0  0  0  0  0  0  0  0  0  0  0
    5.4095   -9.1341    0.0000 C   0  0  0  0  0  0  0  0  0  0  0  0
    6.1239   -8.7216    0.0000 C   0  0  0  0  0  0  0  0  0  0  0  0
    6.8384   -9.1341    0.0000 C   0  0  0  0  0  0  0  0  0  0  0  0
    7.5529   -8.7216    0.0000 C   0  0  0  0  0  0  0  0  0  0  0  0
    7.5529   -7.8966    0.0000 C   0  0  0  0  0  0  0  0  0  0  0  0
 31  8  1  0  0  0  0
  6  1  1  0  0  0  0
  5  2  1  0  0  0  0
  8  3  2  0  0  0  0
  4  3  1  0  0  0  0
  5  4  2  0  0  0  0
  6  5  1  0  0  0  0
  7  6  2  0  0  0  0
  8  7  1  0  0  0  0
 30 18  1  0  0  0  0
 16 18  1  1  0  0  0
 15  9  1  6  0  0  0
 14 10  1  1  0  0  0
 13 11  1  1  0  0  0
 17 12  1  0  0  0  0
 13 12  1  0  0  0  0
 14 13  1  0  0  0  0
 15 14  1  0  0  0  0
 16 15  1  0  0  0  0
 17 16  1  0  0  0  0
 25 19  1  0  0  0  0
 27 20  1  0  0  0  0
 29 21  1  0  0  0  0
 31 22  1  0  0  0  0
 23 22  1  0  0  0  0
 28 23  2  0  0  0  0
 24 23  1  0  0  0  0
 25 24  2  0  0  0  0
 26 25  1  0  0  0  0
 27 26  2  0  0  0  0
 28 27  1  0  0  0  0
 29 28  1  0  0  0  0
 30 29  1  0  0  0  0
 31 30  1  0  0  0  0
M  END
>  <cdx:fragmentId>
5

$$$$
