301619.cdx
  Mrv1902 05222410232D          

 33 36  0  0  0  0            999 V2000
    7.2172   -8.0179    0.0000 O   0  0  0  0  0  0  0  0  0  0  0  0
   12.2185   -5.9554    0.0000 O   0  0  0  0  0  0  0  0  0  0  0  0
   12.9330   -4.7179    0.0000 C   0  0  0  0  0  0  0  0  0  0  0  0
   12.2185   -4.3054    0.0000 O   0  0  0  0  0  0  0  0  0  0  0  0
   10.0751   -4.7179    0.0000 C   0  0  0  0  0  0  0  0  0  0  0  0
   10.7896   -4.3054    0.0000 C   0  0  0  0  0  0  0  0  0  0  0  0
   11.5041   -4.7179    0.0000 C   0  0  0  0  0  0  0  0  0  0  0  0
   11.5041   -5.5429    0.0000 C   0  0  0  0  0  0  0  0  0  0  0  0
   10.7896   -5.9554    0.0000 C   0  0  0  0  0  0  0  0  0  0  0  0
   10.0751   -5.5429    0.0000 C   0  0  0  0  0  0  0  0  0  0  0  0
    5.7883   -7.1929    0.0000 O   0  0  0  0  0  0  0  0  0  0  0  0
    4.3594   -8.0179    0.0000 O   0  0  0  0  0  0  0  0  0  0  0  0
    2.9304   -7.1929    0.0000 O   0  0  0  0  0  0  0  0  0  0  0  0
    2.2160   -5.9554    0.0000 O   0  0  0  0  0  0  0  0  0  0  0  0
    2.9304   -5.5429    0.0000 C   0  0  0  0  0  0  0  0  0  0  0  0
    3.6449   -5.9554    0.0000 C   0  0  2  0  0  0  0  0  0  0  0  0
    3.6449   -6.7804    0.0000 C   0  0  2  0  0  0  0  0  0  0  0  0
    4.3594   -7.1929    0.0000 C   0  0  1  0  0  0  0  0  0  0  0  0
    5.0738   -6.7804    0.0000 C   0  0  2  0  0  0  0  0  0  0  0  0
    5.0738   -5.9554    0.0000 C   0  0  1  0  0  0  0  0  0  0  0  0
    4.3594   -5.5429    0.0000 O   0  0  0  0  0  0  0  0  0  0  0  0
    5.7883   -5.5429    0.0000 O   0  0  0  0  0  0  0  0  0  0  0  0
    8.6462   -8.0179    0.0000 O   0  0  0  0  0  0  0  0  0  0  0  0
    8.6462   -5.5429    0.0000 O   0  0  0  0  0  0  0  0  0  0  0  0
    7.9317   -5.9554    0.0000 C   0  0  0  0  0  0  0  0  0  0  0  0
    7.2172   -5.5429    0.0000 C   0  0  0  0  0  0  0  0  0  0  0  0
    6.5028   -5.9554    0.0000 C   0  0  0  0  0  0  0  0  0  0  0  0
    6.5028   -6.7804    0.0000 C   0  0  0  0  0  0  0  0  0  0  0  0
    7.2172   -7.1929    0.0000 C   0  0  0  0  0  0  0  0  0  0  0  0
    7.9317   -6.7804    0.0000 C   0  0  0  0  0  0  0  0  0  0  0  0
    8.6462   -7.1929    0.0000 C   0  0  0  0  0  0  0  0  0  0  0  0
    9.3607   -6.7804    0.0000 C   0  0  0  0  0  0  0  0  0  0  0  0
    9.3607   -5.9554    0.0000 C   0  0  0  0  0  0  0  0  0  0  0  0
 29  1  1  0  0  0  0
 33 10  1  0  0  0  0
  8  2  1  0  0  0  0
  7  4  1  0  0  0  0
  4  3  1  0  0  0  0
 10  5  2  0  0  0  0
  6  5  1  0  0  0  0
  7  6  2  0  0  0  0
  8  7  1  0  0  0  0
  9  8  2  0  0  0  0
 10  9  1  0  0  0  0
 27 22  1  0  0  0  0
 20 22  1  1  0  0  0
 19 11  1  6  0  0  0
 18 12  1  1  0  0  0
 17 13  1  6  0  0  0
 16 15  1  1  0  0  0
 15 14  1  0  0  0  0
 21 16  1  0  0  0  0
 17 16  1  0  0  0  0
 18 17  1  0  0  0  0
 19 18  1  0  0  0  0
 20 19  1  0  0  0  0
 21 20  1  0  0  0  0
 31 23  2  0  0  0  0
 33 24  1  0  0  0  0
 25 24  1  0  0  0  0
 30 25  2  0  0  0  0
 26 25  1  0  0  0  0
 27 26  2  0  0  0  0
 28 27  1  0  0  0  0
 29 28  2  0  0  0  0
 30 29  1  0  0  0  0
 31 30  1  0  0  0  0
 32 31  1  0  0  0  0
 33 32  2  0  0  0  0
M  END
>  <cdx:fragmentId>
885

$$$$
