301612.cdx
  Mrv1902 05222410252D          

 38 40  0  0  0  0            999 V2000
    6.1751   -8.8691    0.0000 C   0  0  0  0  0  0  0  0  0  0  0  0
    6.1764   -8.0441    0.0000 C   0  0  0  0  0  0  0  0  0  0  0  0
    5.4626   -7.6305    0.0000 C   0  0  0  0  0  0  0  0  0  0  0  0
    4.7474   -8.0418    0.0000 C   0  0  0  0  0  0  0  0  0  0  0  0
    4.7462   -8.8668    0.0000 C   0  0  0  0  0  0  0  0  0  0  0  0
    5.4600   -9.2804    0.0000 C   0  0  0  0  0  0  0  0  0  0  0  0
    4.0336   -7.6282    0.0000 O   0  0  0  0  0  0  0  0  0  0  0  0
    5.4639   -6.8055    0.0000 O   0  0  0  0  0  0  0  0  0  0  0  0
    6.8896   -9.2816    0.0000 C   0  0  0  0  0  0  0  0  0  0  0  0
    7.6040   -8.8691    0.0000 C   0  0  0  0  0  0  0  0  0  0  0  0
    8.3185   -9.2816    0.0000 C   0  0  2  0  0  0  0  0  0  0  0  0
    9.0330   -8.8691    0.0000 C   0  0  0  0  0  0  0  0  0  0  0  0
    9.7475   -9.2816    0.0000 C   0  0  1  0  0  0  0  0  0  0  0  0
   10.4619   -8.8691    0.0000 C   0  0  0  0  0  0  0  0  0  0  0  0
   11.1764   -9.2816    0.0000 C   0  0  0  0  0  0  0  0  0  0  0  0
   11.8909   -8.8691    0.0000 C   0  0  0  0  0  0  0  0  0  0  0  0
    8.3185  -10.1066    0.0000 O   0  0  0  0  0  0  0  0  0  0  0  0
    9.7475  -10.1066    0.0000 O   0  0  0  0  0  0  0  0  0  0  0  0
   12.6053   -9.2816    0.0000 C   0  0  0  0  0  0  0  0  0  0  0  0
   13.3198   -8.8691    0.0000 C   0  0  0  0  0  0  0  0  0  0  0  0
   13.3198   -8.0441    0.0000 C   0  0  0  0  0  0  0  0  0  0  0  0
   12.6053   -7.6316    0.0000 C   0  0  0  0  0  0  0  0  0  0  0  0
   11.8909   -8.0441    0.0000 C   0  0  0  0  0  0  0  0  0  0  0  0
   12.6053   -6.8066    0.0000 O   0  0  0  0  0  0  0  0  0  0  0  0
   14.0343   -7.6316    0.0000 O   0  0  0  0  0  0  0  0  0  0  0  0
    4.7500   -6.3918    0.0000 C   0  0  0  0  0  0  0  0  0  0  0  0
   13.3198   -6.3941    0.0000 C   0  0  0  0  0  0  0  0  0  0  0  0
    1.8901   -8.0404    0.0000 C   0  0  2  0  0  0  0  0  0  0  0  0
    1.8886   -8.8654    0.0000 C   0  0  2  0  0  0  0  0  0  0  0  0
    2.6023   -9.2792    0.0000 C   0  0  1  0  0  0  0  0  0  0  0  0
    3.3176   -8.8680    0.0000 C   0  0  2  0  0  0  0  0  0  0  0  0
    3.3191   -8.0430    0.0000 C   0  0  1  0  0  0  0  0  0  0  0  0
    2.6054   -7.6292    0.0000 O   0  0  0  0  0  0  0  0  0  0  0  0
    1.1764   -7.6266    0.0000 C   0  0  0  0  0  0  0  0  0  0  0  0
    2.6008  -10.1042    0.0000 O   0  0  0  0  0  0  0  0  0  0  0  0
    0.4612   -8.0378    0.0000 O   0  0  0  0  0  0  0  0  0  0  0  0
    1.1734   -9.2766    0.0000 O   0  0  0  0  0  0  0  0  0  0  0  0
    4.0313   -9.2819    0.0000 O   0  0  0  0  0  0  0  0  0  0  0  0
  1  2  2  0  0  0  0
  2  3  1  0  0  0  0
  3  4  2  0  0  0  0
  4  5  1  0  0  0  0
  5  6  2  0  0  0  0
  6  1  1  0  0  0  0
  4  7  1  0  0  0  0
  3  8  1  0  0  0  0
  1  9  1  0  0  0  0
  9 10  1  0  0  0  0
 10 11  1  0  0  0  0
 11 12  1  0  0  0  0
 12 13  1  0  0  0  0
 13 14  1  0  0  0  0
 14 15  1  0  0  0  0
 15 16  1  0  0  0  0
 11 17  1  6  0  0  0
 13 18  1  1  0  0  0
 16 19  2  0  0  0  0
 19 20  1  0  0  0  0
 20 21  2  0  0  0  0
 21 22  1  0  0  0  0
 22 23  2  0  0  0  0
 23 16  1  0  0  0  0
 22 24  1  0  0  0  0
 21 25  1  0  0  0  0
  8 26  1  0  0  0  0
 24 27  1  0  0  0  0
 28 29  1  0  0  0  0
 29 30  1  0  0  0  0
 30 31  1  0  0  0  0
 31 32  1  0  0  0  0
 32 33  1  0  0  0  0
 33 28  1  0  0  0  0
 28 34  1  1  0  0  0
 30 35  1  1  0  0  0
 34 36  1  0  0  0  0
 29 37  1  6  0  0  0
 31 38  1  6  0  0  0
 32  7  1  1  0  0  0
M  END
>  <cdx:fragmentId>
394

$$$$
