301674.cdx
  Mrv1902 05222410272D          

 14 13  0  0  0  0            999 V2000
   10.9587   -6.3668    0.0000 C   0  0  0  0  0  0  0  0  0  0  0  0
   10.2443   -6.7793    0.0000 C   0  0  0  0  0  0  0  0  0  0  0  0
    9.5298   -6.3668    0.0000 C   0  0  0  0  0  0  0  0  0  0  0  0
    8.8153   -6.7793    0.0000 C   0  0  0  0  0  0  0  0  0  0  0  0
    8.1009   -6.3668    0.0000 C   0  0  0  0  0  0  0  0  0  0  0  0
    7.3864   -6.7793    0.0000 C   0  0  0  0  0  0  0  0  0  0  0  0
    6.6719   -6.3668    0.0000 C   0  0  0  0  0  0  0  0  0  0  0  0
    5.9574   -6.7793    0.0000 C   0  0  0  0  0  0  0  0  0  0  0  0
    5.2430   -6.3668    0.0000 C   0  0  0  0  0  0  0  0  0  0  0  0
    4.5285   -6.7793    0.0000 C   0  0  0  0  0  0  0  0  0  0  0  0
    3.8140   -6.3668    0.0000 C   0  0  0  0  0  0  0  0  0  0  0  0
    3.0996   -6.7793    0.0000 C   0  0  0  0  0  0  0  0  0  0  0  0
   10.9587   -5.5418    0.0000 F   0  0  0  0  0  0  0  0  0  0  0  0
   11.6732   -6.7793    0.0000 F   0  0  0  0  0  0  0  0  0  0  0  0
  1  2  1  0  0  0  0
  2  3  1  0  0  0  0
  3  4  1  0  0  0  0
  4  5  1  0  0  0  0
  5  6  1  0  0  0  0
  6  7  1  0  0  0  0
  7  8  1  0  0  0  0
  8  9  1  0  0  0  0
  9 10  1  0  0  0  0
 10 11  1  0  0  0  0
 11 12  1  0  0  0  0
  1 13  1  0  0  0  0
  1 14  1  0  0  0  0
M  END
>  <cdx:groupId>
1263

>  <cdx:fragmentId>
1225

$$$$
