3016.cdx
  Mrv1902 05222410252D          

 19 21  0  0  0  0            999 V2000
    8.6943   -4.8133    0.0000 C   0  0  0  0  0  0  0  0  0  0  0  0
    9.2463   -5.4263    0.0000 N   0  0  0  0  0  0  0  0  0  0  0  0
    8.9914   -6.2110    0.0000 C   0  0  0  0  0  0  0  0  0  0  0  0
    8.1844   -6.3825    0.0000 C   0  0  0  0  0  0  0  0  0  0  0  0
    7.6324   -5.7694    0.0000 C   0  0  0  0  0  0  0  0  0  0  0  0
    6.8074   -5.7694    0.0000 C   0  0  0  0  0  0  0  0  0  0  0  0
    6.2554   -6.3825    0.0000 C   0  0  0  0  0  0  0  0  0  0  0  0
    5.4484   -6.2110    0.0000 C   0  0  0  0  0  0  0  0  0  0  0  0
    5.1935   -5.4263    0.0000 C   0  0  0  0  0  0  0  0  0  0  0  0
    5.7455   -4.8133    0.0000 C   0  0  0  0  0  0  0  0  0  0  0  0
    6.5525   -4.9848    0.0000 C   0  0  0  0  0  0  0  0  0  0  0  0
    7.2199   -4.4999    0.0000 N   0  0  0  0  0  0  0  0  0  0  0  0
    7.8873   -4.9848    0.0000 C   0  0  0  0  0  0  0  0  0  0  0  0
    5.4905   -4.0286    0.0000 O   0  0  0  0  0  0  0  0  0  0  0  0
    4.6836   -3.8571    0.0000 C   0  0  0  0  0  0  0  0  0  0  0  0
    7.9295   -7.1671    0.0000 O   0  0  0  0  0  0  0  0  0  0  0  0
    7.1225   -7.3386    0.0000 C   0  0  0  0  0  0  0  0  0  0  0  0
    8.9492   -4.0286    0.0000 C   0  0  0  0  0  0  0  0  0  0  0  0
    9.7562   -3.8571    0.0000 C   0  0  0  0  0  0  0  0  0  0  0  0
  1  2  2  0  0  0  0
  2  3  1  0  0  0  0
  3  4  2  0  0  0  0
  4  5  1  0  0  0  0
  5  6  1  0  0  0  0
  6  7  1  0  0  0  0
  7  8  2  0  0  0  0
  8  9  1  0  0  0  0
  9 10  2  0  0  0  0
 10 11  1  0  0  0  0
  6 11  2  0  0  0  0
 11 12  1  0  0  0  0
 12 13  1  0  0  0  0
  5 13  2  0  0  0  0
  1 13  1  0  0  0  0
 14 15  1  0  0  0  0
 10 14  1  0  0  0  0
 16 17  1  0  0  0  0
  4 16  1  0  0  0  0
 18 19  1  0  0  0  0
  1 18  1  0  0  0  0
M  END
>  <cdx:fragmentId>
79

$$$$
