301632.cdx
  Mrv1902 05222410222D          

 37 42  0  0  0  0            999 V2000
    9.8237   -4.8989    0.0000 C   0  0  0  0  0  0  0  0  0  0  0  0
   10.6361   -5.0422    0.0000 C   0  0  0  0  0  0  0  0  0  0  0  0
   11.1664   -4.4102    0.0000 C   0  0  0  0  0  0  0  0  0  0  0  0
   11.9789   -4.5534    0.0000 C   0  0  0  0  0  0  0  0  0  0  0  0
   12.2611   -5.3287    0.0000 C   0  0  0  0  0  0  0  0  0  0  0  0
   11.7308   -5.9607    0.0000 C   0  0  0  0  0  0  0  0  0  0  0  0
   10.9183   -5.8174    0.0000 C   0  0  0  0  0  0  0  0  0  0  0  0
    9.5415   -4.1237    0.0000 O   0  0  0  0  0  0  0  0  0  0  0  0
    9.2934   -5.5309    0.0000 O   0  0  0  0  0  0  0  0  0  0  0  0
    8.3050   -5.5825    0.0000 C   0  0  0  0  0  0  0  0  0  0  0  0
    7.1660   -6.2746    0.0000 C   0  0  2  0  0  0  0  0  0  0  0  0
    6.4515   -5.8621    0.0000 O   0  0  0  0  0  0  0  0  0  0  0  0
    5.7370   -6.2746    0.0000 C   0  0  2  0  0  0  0  0  0  0  0  0
    5.0226   -5.8621    0.0000 O   0  0  0  0  0  0  0  0  0  0  0  0
    4.3081   -6.2746    0.0000 C   0  0  1  0  0  0  0  0  0  0  0  0
    4.3081   -7.0996    0.0000 C   0  0  2  0  0  0  0  0  0  0  0  0
    5.0226   -7.5121    0.0000 C   0  0  1  0  0  0  0  0  0  0  0  0
    5.7370   -7.0996    0.0000 C   0  0  1  0  0  0  0  0  0  0  0  0
    6.4515   -7.5121    0.0000 O   0  0  0  0  0  0  0  0  0  0  0  0
    7.1660   -7.0996    0.0000 C   0  0  1  0  0  0  0  0  0  0  0  0
    7.9506   -7.3545    0.0000 O   0  0  0  0  0  0  0  0  0  0  0  0
    8.4355   -6.6871    0.0000 C   0  0  2  0  0  0  0  0  0  0  0  0
    8.8939   -6.0011    0.0000 C   0  0  0  0  0  0  0  0  0  0  0  0
    8.5193   -5.2660    0.0000 C   0  0  0  0  0  0  0  0  0  0  0  0
    7.6957   -5.2350    0.0000 C   0  0  2  0  0  0  0  0  0  0  0  0
    6.9110   -5.4899    0.0000 C   0  0  0  0  0  0  0  0  0  0  0  0
    7.9506   -6.0196    0.0000 C   0  0  1  0  0  0  0  0  0  0  0  0
    8.9318   -4.5515    0.0000 O   0  0  0  0  0  0  0  0  0  0  0  0
    7.1660   -7.9246    0.0000 C   0  0  0  0  0  0  0  0  0  0  0  0
    3.5936   -5.8621    0.0000 C   0  0  0  0  0  0  0  0  0  0  0  0
    2.8791   -6.2746    0.0000 O   0  0  0  0  0  0  0  0  0  0  0  0
    5.0226   -8.3371    0.0000 O   0  0  0  0  0  0  0  0  0  0  0  0
    3.5936   -7.5121    0.0000 O   0  0  0  0  0  0  0  0  0  0  0  0
    5.7370   -5.4496    0.0000 H   0  0  0  0  0  0  0  0  0  0  0  0
    5.7370   -7.9246    0.0000 H   0  0  0  0  0  0  0  0  0  0  0  0
    9.0189   -7.2704    0.0000 H   0  0  0  0  0  0  0  0  0  0  0  0
    7.5820   -4.4179    0.0000 H   0  0  0  0  0  0  0  0  0  0  0  0
  1  2  1  0  0  0  0
  2  3  1  0  0  0  0
  3  4  2  0  0  0  0
  4  5  1  0  0  0  0
  5  6  2  0  0  0  0
  6  7  1  0  0  0  0
  2  7  2  0  0  0  0
  1  8  2  0  0  0  0
  1  9  1  0  0  0  0
 11 12  1  6  0  0  0
 12 13  1  0  0  0  0
 13 14  1  0  0  0  0
 14 15  1  0  0  0  0
 15 16  1  0  0  0  0
 16 17  1  0  0  0  0
 17 18  1  0  0  0  0
 18 19  1  0  0  0  0
 19 20  1  0  0  0  0
 20 21  1  0  0  0  0
 21 22  1  0  0  0  0
 22 23  1  0  0  0  0
 23 24  1  0  0  0  0
 24 25  1  0  0  0  0
 25 26  1  0  0  0  0
 11 26  1  0  0  0  0
 11 27  1  0  0  0  0
 27 22  1  0  0  0  0
 11 20  1  0  0  0  0
 13 18  1  0  0  0  0
 25 27  1  0  0  0  0
 24 28  2  0  0  0  0
 20 29  1  1  0  0  0
 30 31  1  0  0  0  0
 15 30  1  1  0  0  0
 17 32  1  1  0  0  0
 16 33  1  6  0  0  0
 27 10  1  6  0  0  0
  9 10  1  0  0  0  0
 13 34  1  6  0  0  0
 18 35  1  1  0  0  0
 22 36  1  6  0  0  0
 25 37  1  6  0  0  0
M  END
>  <cdx:groupId>
118

>  <cdx:fragmentId>
25

$$$$
