301676.cdx
  Mrv1902 05222410262D          

 26 27  0  0  0  0            999 V2000
    9.5684   -7.1622    0.0000 O   0  0  0  0  0  0  0  0  0  0  0  0
   10.2829   -6.7497    0.0000 C   0  0  1  0  0  0  0  0  0  0  0  0
   10.2829   -5.9247    0.0000 C   0  0  2  0  0  0  0  0  0  0  0  0
    9.5684   -5.5122    0.0000 C   0  0  1  0  0  0  0  0  0  0  0  0
    8.8539   -5.9247    0.0000 C   0  0  2  0  0  0  0  0  0  0  0  0
    8.8539   -6.7497    0.0000 C   0  0  2  0  0  0  0  0  0  0  0  0
   10.9974   -5.5122    0.0000 O   0  0  0  0  0  0  0  0  0  0  0  0
    9.5684   -4.6872    0.0000 O   0  0  0  0  0  0  0  0  0  0  0  0
    8.1395   -5.5122    0.0000 O   0  0  0  0  0  0  0  0  0  0  0  0
    8.1395   -7.1622    0.0000 O   0  0  0  0  0  0  0  0  0  0  0  0
    7.4250   -5.9247    0.0000 C   0  0  0  0  0  0  0  0  0  0  0  0
    7.4250   -6.7497    0.0000 C   0  0  2  0  0  0  0  0  0  0  0  0
    6.7105   -7.1622    0.0000 C   0  0  0  0  0  0  0  0  0  0  0  0
    5.9961   -6.7497    0.0000 C   0  0  0  0  0  0  0  0  0  0  0  0
    5.2816   -7.1622    0.0000 C   0  0  0  0  0  0  0  0  0  0  0  0
    4.5671   -6.7497    0.0000 C   0  0  0  0  0  0  0  0  0  0  0  0
    3.8526   -7.1622    0.0000 C   0  0  0  0  0  0  0  0  0  0  0  0
    3.8526   -7.9872    0.0000 C   0  0  2  0  0  0  0  0  0  0  0  0
    4.5671   -8.3997    0.0000 C   0  0  0  0  0  0  0  0  0  0  0  0
    5.2816   -7.9872    0.0000 C   0  0  0  0  0  0  0  0  0  0  0  0
    6.1066   -7.9872    0.0000 C   0  0  0  0  0  0  0  0  0  0  0  0
    5.6941   -8.7017    0.0000 C   0  0  0  0  0  0  0  0  0  0  0  0
    4.5671   -5.9247    0.0000 C   0  0  0  0  0  0  0  0  0  0  0  0
    3.1382   -8.3997    0.0000 O   0  0  0  0  0  0  0  0  0  0  0  0
   10.9974   -7.1622    0.0000 C   0  0  0  0  0  0  0  0  0  0  0  0
   11.7118   -6.7497    0.0000 O   0  0  0  0  0  0  0  0  0  0  0  0
  1  2  1  0  0  0  0
  2  3  1  0  0  0  0
  3  4  1  0  0  0  0
  4  5  1  0  0  0  0
  5  6  1  0  0  0  0
  1  6  1  0  0  0  0
  3  7  1  6  0  0  0
  4  8  1  1  0  0  0
  5  9  1  6  0  0  0
 12 11  1  1  0  0  0
 12 13  1  0  0  0  0
 13 14  1  0  0  0  0
 15 16  2  0  0  0  0
 16 17  1  0  0  0  0
 17 18  1  0  0  0  0
 18 19  1  0  0  0  0
 19 20  1  0  0  0  0
 15 20  1  0  0  0  0
 20 21  1  0  0  0  0
 20 22  1  0  0  0  0
 16 23  1  0  0  0  0
 18 24  1  6  0  0  0
 14 15  1  0  0  0  0
 10 12  1  0  0  0  0
  6 10  1  1  0  0  0
 25 26  1  0  0  0  0
  2 25  1  1  0  0  0
M  END
>  <cdx:groupId>
3598

>  <cdx:fragmentId>
3550

$$$$
