301645.cdx
  Mrv1902 05222410192D          

 40 43  0  0  0  0            999 V2000
    5.4953   -8.4750    0.0000 O   0  0  0  0  0  0  0  0  0  0  0  0
    5.4923  -10.9500    0.0000 O   0  0  0  0  0  0  0  0  0  0  0  0
    2.6344  -10.9466    0.0000 O   0  0  0  0  0  0  0  0  0  0  0  0
    1.9215   -9.7082    0.0000 C   0  0  0  0  0  0  0  0  0  0  0  0
    2.6364   -9.2966    0.0000 O   0  0  0  0  0  0  0  0  0  0  0  0
    4.7783  -10.5367    0.0000 C   0  0  0  0  0  0  0  0  0  0  0  0
    4.0634  -10.9483    0.0000 C   0  0  0  0  0  0  0  0  0  0  0  0
    3.3494  -10.5349    0.0000 C   0  0  0  0  0  0  0  0  0  0  0  0
    3.3504   -9.7099    0.0000 C   0  0  0  0  0  0  0  0  0  0  0  0
    4.0654   -9.2983    0.0000 C   0  0  0  0  0  0  0  0  0  0  0  0
    4.7793   -9.7117    0.0000 C   0  0  0  0  0  0  0  0  0  0  0  0
    6.2073  -10.5384    0.0000 C   0  0  0  0  0  0  0  0  0  0  0  0
    6.2083   -9.7134    0.0000 C   0  0  0  0  0  0  0  0  0  0  0  0
    5.4943   -9.3000    0.0000 C   0  0  0  0  0  0  0  0  0  0  0  0
    6.9232   -9.3018    0.0000 O   0  0  0  0  0  0  0  0  0  0  0  0
    7.6392   -8.0651    0.0000 C   0  0  0  0  0  0  0  0  0  0  0  0
    8.3532   -8.4785    0.0000 O   0  0  0  0  0  0  0  0  0  0  0  0
    8.3502  -10.9535    0.0000 C   0  0  0  0  0  0  0  0  0  0  0  0
    7.6362  -10.5401    0.0000 C   0  0  0  0  0  0  0  0  0  0  0  0
    7.6372   -9.7151    0.0000 C   0  0  0  0  0  0  0  0  0  0  0  0
    8.3522   -9.3035    0.0000 C   0  0  0  0  0  0  0  0  0  0  0  0
    9.0662   -9.7169    0.0000 C   0  0  0  0  0  0  0  0  0  0  0  0
    9.0652  -10.5419    0.0000 C   0  0  0  0  0  0  0  0  0  0  0  0
    9.7791  -10.9552    0.0000 C   0  0  0  0  0  0  0  0  0  0  0  0
   10.6589   -5.9434    0.0000 O   0  0  0  0  0  0  0  0  0  0  0  0
   12.4664   -7.6330    0.0000 C   0  0  0  0  0  0  0  0  0  0  0  0
   11.8838   -7.0489    0.0000 O   0  0  0  0  0  0  0  0  0  0  0  0
    9.5290   -7.8109    0.0000 C   0  0  0  0  0  0  0  0  0  0  0  0
    9.7015   -7.0041    0.0000 C   0  0  0  0  0  0  0  0  0  0  0  0
   10.4864   -6.7501    0.0000 C   0  0  0  0  0  0  0  0  0  0  0  0
   11.0988   -7.3029    0.0000 C   0  0  0  0  0  0  0  0  0  0  0  0
   10.9263   -8.1097    0.0000 C   0  0  0  0  0  0  0  0  0  0  0  0
   10.1414   -8.3637    0.0000 C   0  0  0  0  0  0  0  0  0  0  0  0
    9.9689   -9.1704    0.0000 C   0  0  0  0  0  0  0  0  0  0  0  0
   11.7250   -8.7994    0.0000 O   0  0  0  0  0  0  0  0  0  0  0  0
   11.2474  -10.8801    0.0000 C   0  0  0  0  0  0  0  0  0  0  0  0
   10.4941  -10.5436    0.0000 C   0  0  1  0  0  0  0  0  0  0  0  0
   10.5813   -9.7232    0.0000 C   0  0  2  0  0  0  0  0  0  0  0  0
   11.3885   -9.5527    0.0000 C   0  0  0  0  0  0  0  0  0  0  0  0
   11.8001  -10.2676    0.0000 O   0  0  0  0  0  0  0  0  0  0  0  0
 37 24  1  6  0  0  0
 24 23  1  0  0  0  0
 20 15  1  0  0  0  0
 15 13  1  0  0  0  0
 14  1  1  0  0  0  0
 12  2  1  0  0  0  0
 14 11  1  0  0  0  0
  8  3  1  0  0  0  0
  9  5  1  0  0  0  0
  5  4  1  0  0  0  0
 11  6  2  0  0  0  0
  7  6  1  0  0  0  0
  8  7  2  0  0  0  0
  9  8  1  0  0  0  0
 10  9  2  0  0  0  0
 11 10  1  0  0  0  0
 13 12  1  0  0  0  0
 14 13  1  0  0  0  0
 21 17  1  0  0  0  0
 17 16  1  0  0  0  0
 23 18  2  0  0  0  0
 19 18  1  0  0  0  0
 20 19  2  0  0  0  0
 21 20  1  0  0  0  0
 22 21  2  0  0  0  0
 23 22  1  0  0  0  0
 38 34  1  1  0  0  0
 34 33  1  0  0  0  0
 30 25  1  0  0  0  0
 31 27  1  0  0  0  0
 27 26  1  0  0  0  0
 33 28  2  0  0  0  0
 29 28  1  0  0  0  0
 30 29  2  0  0  0  0
 31 30  1  0  0  0  0
 32 31  2  0  0  0  0
 33 32  1  0  0  0  0
 39 35  2  0  0  0  0
 40 36  1  0  0  0  0
 37 36  1  0  0  0  0
 38 37  1  0  0  0  0
 39 38  1  0  0  0  0
 40 39  1  0  0  0  0
M  END
>  <cdx:fragmentId>
63

$$$$
