301699.cdx
  Mrv1902 05222410282D          

 33 36  0  0  0  0            999 V2000
   12.3208   -8.2359    0.0000 O   0  0  0  0  0  0  0  0  0  0  0  0
   12.3203   -6.5859    0.0000 O   0  0  0  0  0  0  0  0  0  0  0  0
   10.1770   -6.9990    0.0000 C   0  0  0  0  0  0  0  0  0  0  0  0
   10.8914   -6.5863    0.0000 C   0  0  0  0  0  0  0  0  0  0  0  0
   11.6060   -6.9986    0.0000 C   0  0  0  0  0  0  0  0  0  0  0  0
   11.6062   -7.8236    0.0000 C   0  0  0  0  0  0  0  0  0  0  0  0
   10.8918   -8.2363    0.0000 C   0  0  0  0  0  0  0  0  0  0  0  0
   10.1772   -7.8240    0.0000 C   0  0  0  0  0  0  0  0  0  0  0  0
    7.3200  -10.2997    0.0000 O   0  0  0  0  0  0  0  0  0  0  0  0
    8.7489  -10.2993    0.0000 O   0  0  0  0  0  0  0  0  0  0  0  0
    8.7483   -7.8243    0.0000 O   0  0  0  0  0  0  0  0  0  0  0  0
    8.0339   -8.2370    0.0000 C   0  0  0  0  0  0  0  0  0  0  0  0
    7.3194   -7.8247    0.0000 C   0  0  0  0  0  0  0  0  0  0  0  0
    6.6050   -8.2373    0.0000 C   0  0  0  0  0  0  0  0  0  0  0  0
    6.6052   -9.0623    0.0000 C   0  0  0  0  0  0  0  0  0  0  0  0
    7.3198   -9.4747    0.0000 C   0  0  0  0  0  0  0  0  0  0  0  0
    8.0341   -9.0620    0.0000 C   0  0  0  0  0  0  0  0  0  0  0  0
    8.7487   -9.4743    0.0000 C   0  0  0  0  0  0  0  0  0  0  0  0
    9.4631   -9.0616    0.0000 C   0  0  0  0  0  0  0  0  0  0  0  0
    9.4629   -8.2366    0.0000 C   0  0  0  0  0  0  0  0  0  0  0  0
    5.8904   -7.8250    0.0000 O   0  0  0  0  0  0  0  0  0  0  0  0
    3.0329   -9.4757    0.0000 O   0  0  0  0  0  0  0  0  0  0  0  0
    4.4621  -10.3004    0.0000 O   0  0  0  0  0  0  0  0  0  0  0  0
    5.8908   -9.4750    0.0000 O   0  0  0  0  0  0  0  0  0  0  0  0
    2.3182   -8.2384    0.0000 O   0  0  0  0  0  0  0  0  0  0  0  0
    3.0323   -7.0007    0.0000 O   0  0  0  0  0  0  0  0  0  0  0  0
    3.0325   -7.8257    0.0000 C   0  0  0  0  0  0  0  0  0  0  0  0
    5.1760   -8.2377    0.0000 C   0  0  1  0  0  0  0  0  0  0  0  0
    5.1762   -9.0627    0.0000 C   0  0  1  0  0  0  0  0  0  0  0  0
    4.4619   -9.4754    0.0000 C   0  0  2  0  0  0  0  0  0  0  0  0
    3.7473   -9.0630    0.0000 C   0  0  2  0  0  0  0  0  0  0  0  0
    3.7471   -8.2380    0.0000 C   0  0  2  0  0  0  0  0  0  0  0  0
    4.4615   -7.8254    0.0000 O   0  0  0  0  0  0  0  0  0  0  0  0
 28 21  1  1  0  0  0
 21 14  1  0  0  0  0
 20  8  1  0  0  0  0
  6  1  1  0  0  0  0
  5  2  1  0  0  0  0
  8  3  2  0  0  0  0
  4  3  1  0  0  0  0
  5  4  2  0  0  0  0
  6  5  1  0  0  0  0
  7  6  2  0  0  0  0
  8  7  1  0  0  0  0
 16  9  1  0  0  0  0
 18 10  2  0  0  0  0
 20 11  1  0  0  0  0
 12 11  1  0  0  0  0
 17 12  2  0  0  0  0
 13 12  1  0  0  0  0
 14 13  2  0  0  0  0
 15 14  1  0  0  0  0
 16 15  2  0  0  0  0
 17 16  1  0  0  0  0
 18 17  1  0  0  0  0
 19 18  1  0  0  0  0
 20 19  2  0  0  0  0
 31 22  1  1  0  0  0
 30 23  1  1  0  0  0
 29 24  1  6  0  0  0
 32 27  1  1  0  0  0
 27 25  1  0  0  0  0
 27 26  2  0  0  0  0
 33 28  1  0  0  0  0
 29 28  1  0  0  0  0
 30 29  1  0  0  0  0
 31 30  1  0  0  0  0
 32 31  1  0  0  0  0
 33 32  1  0  0  0  0
M  END
>  <cdx:fragmentId>
31

$$$$
