30164.cdx
  Mrv1902 05222410252D          

 12 11  0  0  0  0            999 V2000
    9.4126   -9.4314    0.0000 C   0  0  0  0  0  0  0  0  0  0  0  0
    8.6981   -9.0189    0.0000 C   0  0  0  0  0  0  0  0  0  0  0  0
    7.9836   -9.4314    0.0000 C   0  0  0  0  0  0  0  0  0  0  0  0
    7.2692   -9.0189    0.0000 C   0  0  0  0  0  0  0  0  0  0  0  0
    6.5547   -9.4314    0.0000 C   0  0  0  0  0  0  0  0  0  0  0  0
    5.8402   -9.0189    0.0000 C   0  0  0  0  0  0  0  0  0  0  0  0
    5.1257   -9.4314    0.0000 C   0  0  0  0  0  0  0  0  0  0  0  0
    4.4113   -9.0189    0.0000 C   0  0  0  0  0  0  0  0  0  0  0  0
    5.1257  -10.2564    0.0000 C   0  0  0  0  0  0  0  0  0  0  0  0
    6.5547  -10.2564    0.0000 O   0  0  0  0  0  0  0  0  0  0  0  0
    7.9836  -10.2564    0.0000 C   0  0  0  0  0  0  0  0  0  0  0  0
    7.2554   -8.5376    0.0000 H   0  0  0  0  0  0  0  0  0  0  0  0
  2  1  2  0  0  0  0
  3  2  1  0  0  0  0
  4  3  2  0  0  0  0
  5  4  1  0  0  0  0
  6  5  1  0  0  0  0
  7  6  1  0  0  0  0
  8  7  1  0  0  0  0
  7  9  1  0  0  0  0
  5 10  2  0  0  0  0
  3 11  1  0  0  0  0
  4 12  1  0  0  0  0
M  END
>  <cdx:fragmentId>
3

$$$$
