301666.cdx
  Mrv1902 05222410282D          

 24 27  0  0  0  0            999 V2000
    7.4449   -7.4694    0.0000 H   0  0  0  0  0  0  0  0  0  0  0  0
    7.4083   -4.9947    0.0000 H   0  0  0  0  0  0  0  0  0  0  0  0
    8.9313   -3.1882    0.0000 C   0  0  0  0  0  0  0  0  0  0  0  0
    9.4923   -3.7931    0.0000 C   0  0  0  0  0  0  0  0  0  0  0  0
    9.2490   -4.5814    0.0000 C   0  0  0  0  0  0  0  0  0  0  0  0
    8.4446   -4.7648    0.0000 C   0  0  0  0  0  0  0  0  0  0  0  0
    7.8836   -4.1599    0.0000 C   0  0  0  0  0  0  0  0  0  0  0  0
    8.1269   -3.3716    0.0000 C   0  0  0  0  0  0  0  0  0  0  0  0
    9.1746   -2.3999    0.0000 O   0  0  0  0  0  0  0  0  0  0  0  0
    6.1572   -6.2508    0.0000 O   0  0  0  0  0  0  0  0  0  0  0  0
    6.6322   -5.5763    0.0000 C   0  0  0  0  0  0  0  0  0  0  0  0
    7.4205   -5.8196    0.0000 C   0  0  2  0  0  0  0  0  0  0  0  0
    7.4327   -6.6445    0.0000 C   0  0  2  0  0  0  0  0  0  0  0  0
    6.6519   -6.9110    0.0000 C   0  0  2  0  0  0  0  0  0  0  0  0
    8.6960   -6.2133    0.0000 O   0  0  0  0  0  0  0  0  0  0  0  0
    8.2013   -5.5531    0.0000 C   0  0  1  0  0  0  0  0  0  0  0  0
    8.2210   -6.8878    0.0000 C   0  0  0  0  0  0  0  0  0  0  0  0
    6.4086   -7.6993    0.0000 C   0  0  0  0  0  0  0  0  0  0  0  0
    6.9696   -8.3042    0.0000 C   0  0  0  0  0  0  0  0  0  0  0  0
    6.7263   -9.0925    0.0000 C   0  0  0  0  0  0  0  0  0  0  0  0
    5.9220   -9.2759    0.0000 C   0  0  0  0  0  0  0  0  0  0  0  0
    5.3609   -8.6710    0.0000 C   0  0  0  0  0  0  0  0  0  0  0  0
    5.6043   -7.8827    0.0000 C   0  0  0  0  0  0  0  0  0  0  0  0
    5.6786  -10.0642    0.0000 O   0  0  0  0  0  0  0  0  0  0  0  0
 13  1  1  6  0  0  0
 12  2  1  6  0  0  0
  3  4  1  0  0  0  0
  4  5  2  0  0  0  0
  5  6  1  0  0  0  0
  6  7  2  0  0  0  0
  7  8  1  0  0  0  0
  3  8  2  0  0  0  0
  3  9  1  0  0  0  0
 10 11  1  0  0  0  0
 11 12  1  0  0  0  0
 12 13  1  0  0  0  0
 13 14  1  0  0  0  0
 10 14  1  0  0  0  0
 15 16  1  0  0  0  0
 15 17  1  0  0  0  0
 16 12  1  0  0  0  0
 17 13  1  0  0  0  0
 18 19  1  0  0  0  0
 19 20  2  0  0  0  0
 20 21  1  0  0  0  0
 21 22  2  0  0  0  0
 22 23  1  0  0  0  0
 18 23  2  0  0  0  0
 21 24  1  0  0  0  0
 14 18  1  6  0  0  0
 16  6  1  6  0  0  0
M  END
>  <cdx:groupId>
3048

>  <cdx:fragmentId>
2996

$$$$
