301690.cdx
  Mrv1902 05222410202D          

 41 43  0  0  0  0            999 V2000
    6.6457   -8.6719    0.0000 C   0  0  0  0  0  0  0  0  0  0  0  0
    7.3601   -8.2594    0.0000 C   0  0  0  0  0  0  0  0  0  0  0  0
    7.3601   -7.4344    0.0000 C   0  0  2  0  0  0  0  0  0  0  0  0
    6.6457   -7.0219    0.0000 C   0  0  0  0  0  0  0  0  0  0  0  0
    5.9312   -7.4344    0.0000 C   0  0  1  0  0  0  0  0  0  0  0  0
    5.9312   -8.2594    0.0000 O   0  0  0  0  0  0  0  0  0  0  0  0
    8.0746   -8.6719    0.0000 C   0  0  0  0  0  0  0  0  0  0  0  0
    8.7891   -8.2594    0.0000 O   0  0  0  0  0  0  0  0  0  0  0  0
    8.0746   -9.4969    0.0000 O   0  0  0  0  0  0  0  0  0  0  0  0
    5.2167   -7.0219    0.0000 O   0  0  0  0  0  0  0  0  0  0  0  0
    3.7878   -7.0219    0.0000 O   0  0  0  0  0  0  0  0  0  0  0  0
    4.5023   -7.4344    0.0000 C   0  0  2  0  0  0  0  0  0  0  0  0
    4.5023   -8.2594    0.0000 C   0  0  1  0  0  0  0  0  0  0  0  0
    3.7878   -8.6719    0.0000 C   0  0  2  0  0  0  0  0  0  0  0  0
    3.0733   -8.2594    0.0000 C   0  0  1  0  0  0  0  0  0  0  0  0
    3.0733   -7.4344    0.0000 C   0  0  1  0  0  0  0  0  0  0  0  0
    2.3588   -7.0219    0.0000 C   0  0  0  0  0  0  0  0  0  0  0  0
    1.6444   -7.4344    0.0000 O   0  0  0  0  0  0  0  0  0  0  0  0
    2.3588   -8.6719    0.0000 O   0  0  0  0  0  0  0  0  0  0  0  0
    3.7878   -9.4969    0.0000 O   0  0  0  0  0  0  0  0  0  0  0  0
    5.2167   -8.6719    0.0000 O   0  0  0  0  0  0  0  0  0  0  0  0
    6.6457   -6.1969    0.0000 C   0  0  0  0  0  0  0  0  0  0  0  0
    7.3601   -5.7844    0.0000 C   0  0  0  0  0  0  0  0  0  0  0  0
    8.5033   -6.7744    0.0000 C   0  0  0  0  0  0  0  0  0  0  0  0
    9.2178   -7.1869    0.0000 C   0  0  0  0  0  0  0  0  0  0  0  0
    9.2178   -8.0119    0.0000 O   0  0  0  0  0  0  0  0  0  0  0  0
    9.9322   -6.7744    0.0000 O   0  0  0  0  0  0  0  0  0  0  0  0
   10.6467   -7.1869    0.0000 C   0  0  0  0  0  0  0  0  0  0  0  0
   11.3612   -6.7744    0.0000 C   0  0  0  0  0  0  0  0  0  0  0  0
   12.0757   -7.1869    0.0000 O   0  0  0  0  0  0  0  0  0  0  0  0
   12.7901   -6.7744    0.0000 C   0  0  0  0  0  0  0  0  0  0  0  0
   13.5046   -7.1869    0.0000 C   0  0  0  0  0  0  0  0  0  0  0  0
   11.3612   -5.9494    0.0000 C   0  0  0  0  0  0  0  0  0  0  0  0
   12.0757   -5.5369    0.0000 C   0  0  0  0  0  0  0  0  0  0  0  0
   12.0757   -4.7119    0.0000 C   0  0  0  0  0  0  0  0  0  0  0  0
   11.3612   -4.2994    0.0000 C   0  0  0  0  0  0  0  0  0  0  0  0
   10.6467   -4.7119    0.0000 C   0  0  0  0  0  0  0  0  0  0  0  0
   10.6467   -5.5369    0.0000 C   0  0  0  0  0  0  0  0  0  0  0  0
   11.3612   -3.4744    0.0000 O   0  0  0  0  0  0  0  0  0  0  0  0
   12.7901   -4.2994    0.0000 O   0  0  0  0  0  0  0  0  0  0  0  0
    8.7891   -9.9094    0.0000 C   0  0  0  0  0  0  0  0  0  0  0  0
  1  2  2  0  0  0  0
  2  3  1  0  0  0  0
  3  4  1  0  0  0  0
  4  5  1  0  0  0  0
  5  6  1  0  0  0  0
  1  6  1  0  0  0  0
  7  8  2  0  0  0  0
  7  9  1  0  0  0  0
  2  7  1  0  0  0  0
 11 12  1  0  0  0  0
 12 13  1  0  0  0  0
 13 14  1  0  0  0  0
 14 15  1  0  0  0  0
 15 16  1  0  0  0  0
 11 16  1  0  0  0  0
 17 18  1  0  0  0  0
 16 17  1  1  0  0  0
 15 19  1  6  0  0  0
 14 20  1  1  0  0  0
 13 21  1  6  0  0  0
 12 10  1  1  0  0  0
  5 10  1  1  0  0  0
 22 23  1  0  0  0  0
  4 22  2  0  0  0  0
 24 25  1  0  0  0  0
 25 26  2  0  0  0  0
 28 29  1  0  0  0  0
 27 28  1  0  0  0  0
 31 32  1  0  0  0  0
 30 31  1  0  0  0  0
 29 30  1  0  0  0  0
 33 34  1  0  0  0  0
 34 35  2  0  0  0  0
 35 36  1  0  0  0  0
 36 37  2  0  0  0  0
 37 38  1  0  0  0  0
 33 38  2  0  0  0  0
 36 39  1  0  0  0  0
 35 40  1  0  0  0  0
 29 33  1  0  0  0  0
 25 27  1  0  0  0  0
  3 24  1  6  0  0  0
  9 41  1  0  0  0  0
M  END
>  <cdx:groupId>
4666

>  <cdx:fragmentId>
4564

$$$$
