30169.cdx
  Mrv1902 05222410212D          

 17 17  0  0  0  0            999 V2000
    9.8265   -8.4169    0.0000 O   0  0  0  0  0  0  0  0  0  0  0  0
    9.1128   -9.6548    0.0000 O   0  0  0  0  0  0  0  0  0  0  0  0
    9.1123   -8.8298    0.0000 C   0  0  0  0  0  0  0  0  0  0  0  0
    8.3976   -8.4177    0.0000 C   0  0  0  0  0  0  0  0  0  0  0  0
    6.2534   -7.1815    0.0000 C   0  0  0  0  0  0  0  0  0  0  0  0
    7.6824   -7.1806    0.0000 C   0  0  0  0  0  0  0  0  0  0  0  0
    7.6834   -8.8306    0.0000 C   0  0  0  0  0  0  0  0  0  0  0  0
    6.9681   -7.5936    0.0000 C   0  0  0  0  0  0  0  0  0  0  0  0
    6.9686   -8.4186    0.0000 C   0  0  2  0  0  0  0  0  0  0  0  0
    4.1108   -8.4203    0.0000 C   0  0  0  0  0  0  0  0  0  0  0  0
    6.9696  -10.0686    0.0000 O   0  0  0  0  0  0  0  0  0  0  0  0
    6.2544   -8.8315    0.0000 C   0  0  0  0  0  0  0  0  0  0  0  0
    5.5397   -8.4194    0.0000 C   0  0  0  0  0  0  0  0  0  0  0  0
    4.8255   -8.8324    0.0000 C   0  0  0  0  0  0  0  0  0  0  0  0
    4.8260   -9.6574    0.0000 C   0  0  0  0  0  0  0  0  0  0  0  0
    5.5407  -10.0694    0.0000 C   0  0  0  0  0  0  0  0  0  0  0  0
    6.2549   -9.6565    0.0000 C   0  0  0  0  0  0  0  0  0  0  0  0
  3  1  1  0  0  0  0
  3  2  2  0  0  0  0
  4  3  1  0  0  0  0
  7  4  1  0  0  0  0
  8  5  1  0  0  0  0
  8  6  1  0  0  0  0
  9  7  1  0  0  0  0
  9  8  1  1  0  0  0
 12  9  1  0  0  0  0
 14 10  1  0  0  0  0
 17 11  1  0  0  0  0
 12 17  1  0  0  0  0
 13 12  2  0  0  0  0
 14 13  1  0  0  0  0
 15 14  2  0  0  0  0
 16 15  1  0  0  0  0
 17 16  2  0  0  0  0
M  END
>  <cdx:fragmentId>
5

$$$$
