301673.cdx
  Mrv1902 05222410282D          

 22 24  0  0  0  0            999 V2000
    7.3680   -4.8603    0.0000 C   0  0  0  0  0  0  0  0  0  0  0  0
    7.3680   -5.6853    0.0000 C   0  0  0  0  0  0  0  0  0  0  0  0
    6.6536   -6.0978    0.0000 C   0  0  0  0  0  0  0  0  0  0  0  0
    6.6536   -6.9228    0.0000 O   0  0  0  0  0  0  0  0  0  0  0  0
    5.9391   -5.6853    0.0000 C   0  0  0  0  0  0  0  0  0  0  0  0
    5.2246   -6.0978    0.0000 C   0  0  0  0  0  0  0  0  0  0  0  0
    5.2246   -6.9228    0.0000 O   0  0  0  0  0  0  0  0  0  0  0  0
    4.5102   -5.6853    0.0000 C   0  0  0  0  0  0  0  0  0  0  0  0
    4.5102   -4.8603    0.0000 C   0  0  0  0  0  0  0  0  0  0  0  0
    3.7957   -4.4478    0.0000 O   0  0  0  0  0  0  0  0  0  0  0  0
    5.2246   -4.4478    0.0000 C   0  0  0  0  0  0  0  0  0  0  0  0
    5.9391   -4.8603    0.0000 C   0  0  0  0  0  0  0  0  0  0  0  0
    6.6536   -4.4478    0.0000 O   0  0  0  0  0  0  0  0  0  0  0  0
    8.0825   -4.4478    0.0000 C   0  0  0  0  0  0  0  0  0  0  0  0
    8.7970   -4.8603    0.0000 C   0  0  0  0  0  0  0  0  0  0  0  0
    9.5115   -4.4478    0.0000 C   0  0  0  0  0  0  0  0  0  0  0  0
   10.2259   -4.8603    0.0000 O   0  0  0  0  0  0  0  0  0  0  0  0
    9.5115   -3.6228    0.0000 C   0  0  0  0  0  0  0  0  0  0  0  0
   10.2259   -3.2103    0.0000 O   0  0  0  0  0  0  0  0  0  0  0  0
   10.9404   -3.6228    0.0000 C   0  0  0  0  0  0  0  0  0  0  0  0
    8.7970   -3.2103    0.0000 C   0  0  0  0  0  0  0  0  0  0  0  0
    8.0825   -3.6228    0.0000 C   0  0  0  0  0  0  0  0  0  0  0  0
  1  2  2  0  0  0  0
  2  3  1  0  0  0  0
  3  4  2  0  0  0  0
  3  5  1  0  0  0  0
  5  6  1  0  0  0  0
  6  7  1  0  0  0  0
  6  8  2  0  0  0  0
  8  9  1  0  0  0  0
  9 10  1  0  0  0  0
  9 11  2  0  0  0  0
 11 12  1  0  0  0  0
  5 12  2  0  0  0  0
 12 13  1  0  0  0  0
  1 13  1  0  0  0  0
  1 14  1  0  0  0  0
 14 15  1  0  0  0  0
 15 16  2  0  0  0  0
 16 17  1  0  0  0  0
 16 18  1  0  0  0  0
 18 19  1  0  0  0  0
 19 20  1  0  0  0  0
 18 21  2  0  0  0  0
 21 22  1  0  0  0  0
 14 22  2  0  0  0  0
M  END
>  <cdx:fragmentId>
16304

$$$$
