301602.cdx
  Mrv1902 05222410242D          

 38 41  0  0  0  0            999 V2000
    2.2074   -6.2040    0.0000 O   0  0  0  0  0  0  0  0  0  0  0  0
    3.6363   -5.3790    0.0000 O   0  0  0  0  0  0  0  0  0  0  0  0
   10.0666   -7.4415    0.0000 O   0  0  0  0  0  0  0  0  0  0  0  0
   10.0666   -9.0915    0.0000 O   0  0  0  0  0  0  0  0  0  0  0  0
    8.6376   -9.0915    0.0000 C   0  0  0  0  0  0  0  0  0  0  0  0
    9.3521   -8.6790    0.0000 C   0  0  0  0  0  0  0  0  0  0  0  0
    9.3521   -7.8540    0.0000 C   0  0  0  0  0  0  0  0  0  0  0  0
    8.6376   -7.4415    0.0000 C   0  0  0  0  0  0  0  0  0  0  0  0
    7.9232   -7.8540    0.0000 C   0  0  0  0  0  0  0  0  0  0  0  0
    7.9232   -8.6790    0.0000 C   0  0  0  0  0  0  0  0  0  0  0  0
    6.4942  -11.1540    0.0000 O   0  0  0  0  0  0  0  0  0  0  0  0
    5.7798   -9.9165    0.0000 C   0  0  0  0  0  0  0  0  0  0  0  0
    6.4942  -10.3290    0.0000 C   0  0  2  0  0  0  0  0  0  0  0  0
    7.2087   -9.9165    0.0000 C   0  0  0  0  0  0  0  0  0  0  0  0
    7.2087   -9.0915    0.0000 C   0  0  2  0  0  0  0  0  0  0  0  0
    6.4942   -8.6790    0.0000 O   0  0  0  0  0  0  0  0  0  0  0  0
    5.7798   -9.0915    0.0000 C   0  0  1  0  0  0  0  0  0  0  0  0
    5.0653   -8.6790    0.0000 C   0  0  0  0  0  0  0  0  0  0  0  0
    5.0653   -7.8540    0.0000 C   0  0  0  0  0  0  0  0  0  0  0  0
    3.6363   -7.8540    0.0000 C   0  0  0  0  0  0  0  0  0  0  0  0
    4.3508   -7.4415    0.0000 C   0  0  0  0  0  0  0  0  0  0  0  0
    4.3508   -6.6165    0.0000 C   0  0  0  0  0  0  0  0  0  0  0  0
    3.6363   -6.2040    0.0000 C   0  0  0  0  0  0  0  0  0  0  0  0
    2.9219   -6.6165    0.0000 C   0  0  0  0  0  0  0  0  0  0  0  0
    2.9219   -7.4415    0.0000 C   0  0  0  0  0  0  0  0  0  0  0  0
    2.9219   -4.9665    0.0000 C   0  0  0  0  0  0  0  0  0  0  0  0
   10.0666   -9.9165    0.0000 C   0  0  0  0  0  0  0  0  0  0  0  0
   10.7766   -5.3706    0.0000 C   0  0  2  0  0  0  0  0  0  0  0  0
   10.0623   -4.9579    0.0000 C   0  0  2  0  0  0  0  0  0  0  0  0
    9.3477   -5.3703    0.0000 C   0  0  1  0  0  0  0  0  0  0  0  0
    9.3475   -6.1953    0.0000 C   0  0  2  0  0  0  0  0  0  0  0  0
   10.0619   -6.6079    0.0000 C   0  0  1  0  0  0  0  0  0  0  0  0
   10.7765   -6.1956    0.0000 O   0  0  0  0  0  0  0  0  0  0  0  0
   11.4912   -4.9582    0.0000 C   0  0  0  0  0  0  0  0  0  0  0  0
    8.6333   -4.9576    0.0000 O   0  0  0  0  0  0  0  0  0  0  0  0
   11.4914   -4.1332    0.0000 O   0  0  0  0  0  0  0  0  0  0  0  0
   10.0624   -4.1329    0.0000 O   0  0  0  0  0  0  0  0  0  0  0  0
    8.6330   -6.6076    0.0000 O   0  0  0  0  0  0  0  0  0  0  0  0
 24  1  1  0  0  0  0
 23  2  1  0  0  0  0
  7  3  1  0  0  0  0
  6  4  1  0  0  0  0
  5 10  1  0  0  0  0
  6  5  2  0  0  0  0
  7  6  1  0  0  0  0
  8  7  2  0  0  0  0
  9  8  1  0  0  0  0
 10  9  2  0  0  0  0
 15 10  1  6  0  0  0
 13 11  1  6  0  0  0
 12 17  1  0  0  0  0
 13 12  1  0  0  0  0
 14 13  1  0  0  0  0
 15 14  1  0  0  0  0
 16 15  1  0  0  0  0
 17 16  1  0  0  0  0
 17 18  1  6  0  0  0
 19 18  1  0  0  0  0
 21 19  1  0  0  0  0
 20 25  1  0  0  0  0
 21 20  2  0  0  0  0
 22 21  1  0  0  0  0
 23 22  2  0  0  0  0
 24 23  1  0  0  0  0
 25 24  2  0  0  0  0
  2 26  1  0  0  0  0
  4 27  1  0  0  0  0
 28 29  1  0  0  0  0
 29 30  1  0  0  0  0
 30 31  1  0  0  0  0
 31 32  1  0  0  0  0
 32 33  1  0  0  0  0
 33 28  1  0  0  0  0
 28 34  1  1  0  0  0
 30 35  1  1  0  0  0
 34 36  1  0  0  0  0
 29 37  1  6  0  0  0
 31 38  1  6  0  0  0
 32  3  1  1  0  0  0
M  END
>  <cdx:fragmentId>
308

$$$$
