301611.cdx
  Mrv1902 05222410252D          

 38 39  0  0  0  0            999 V2000
   17.2110   -9.3241    0.0000 C   0  0  0  0  0  0  0  0  0  0  0  0
   17.9255   -8.9116    0.0000 C   0  0  0  0  0  0  0  0  0  0  0  0
   18.6400   -9.3241    0.0000 C   0  0  0  0  0  0  0  0  0  0  0  0
   17.2110  -10.1491    0.0000 O   0  0  0  0  0  0  0  0  0  0  0  0
   16.4966   -8.9116    0.0000 N   0  0  0  0  0  0  0  0  0  0  0  0
   15.7821   -9.3241    0.0000 C   0  0  0  0  0  0  0  0  0  0  0  0
   15.0676   -8.9116    0.0000 C   0  0  0  0  0  0  0  0  0  0  0  0
   14.3531   -9.3241    0.0000 C   0  0  0  0  0  0  0  0  0  0  0  0
   13.6387   -8.9116    0.0000 N   0  0  0  0  0  0  0  0  0  0  0  0
   12.9242   -9.3241    0.0000 C   0  0  0  0  0  0  0  0  0  0  0  0
   12.2097   -8.9116    0.0000 C   0  0  0  0  0  0  0  0  0  0  0  0
   11.4953   -9.3241    0.0000 C   0  0  0  0  0  0  0  0  0  0  0  0
   10.7808   -8.9116    0.0000 C   0  0  0  0  0  0  0  0  0  0  0  0
   10.0663   -9.3241    0.0000 N   0  0  0  0  0  0  0  0  0  0  0  0
    9.3519   -8.9116    0.0000 C   0  0  0  0  0  0  0  0  0  0  0  0
    8.6374   -9.3241    0.0000 C   0  0  0  0  0  0  0  0  0  0  0  0
    7.9229   -8.9116    0.0000 C   0  0  0  0  0  0  0  0  0  0  0  0
    7.2084   -9.3241    0.0000 N   0  0  0  0  0  0  0  0  0  0  0  0
    6.4940   -8.9116    0.0000 C   0  0  0  0  0  0  0  0  0  0  0  0
    5.7795   -9.3241    0.0000 C   0  0  0  0  0  0  0  0  0  0  0  0
    5.0650   -8.9116    0.0000 C   0  0  0  0  0  0  0  0  0  0  0  0
    6.4940   -8.0866    0.0000 O   0  0  0  0  0  0  0  0  0  0  0  0
    4.3506   -9.3241    0.0000 C   0  0  0  0  0  0  0  0  0  0  0  0
    3.6361   -8.9116    0.0000 C   0  0  0  0  0  0  0  0  0  0  0  0
    2.9216   -9.3241    0.0000 C   0  0  0  0  0  0  0  0  0  0  0  0
    2.9216  -10.1491    0.0000 C   0  0  0  0  0  0  0  0  0  0  0  0
    3.6361  -10.5616    0.0000 C   0  0  0  0  0  0  0  0  0  0  0  0
    4.3506  -10.1491    0.0000 C   0  0  0  0  0  0  0  0  0  0  0  0
    2.2071  -10.5616    0.0000 O   0  0  0  0  0  0  0  0  0  0  0  0
    2.2071   -8.9116    0.0000 O   0  0  0  0  0  0  0  0  0  0  0  0
   19.3544   -8.9116    0.0000 C   0  0  0  0  0  0  0  0  0  0  0  0
   20.0689   -9.3241    0.0000 C   0  0  0  0  0  0  0  0  0  0  0  0
   20.7834   -8.9116    0.0000 C   0  0  0  0  0  0  0  0  0  0  0  0
   20.7834   -8.0866    0.0000 C   0  0  0  0  0  0  0  0  0  0  0  0
   20.0689   -7.6741    0.0000 C   0  0  0  0  0  0  0  0  0  0  0  0
   19.3544   -8.0866    0.0000 C   0  0  0  0  0  0  0  0  0  0  0  0
   21.4979   -7.6741    0.0000 O   0  0  0  0  0  0  0  0  0  0  0  0
   21.4979   -9.3241    0.0000 O   0  0  0  0  0  0  0  0  0  0  0  0
  1  2  1  0  0  0  0
  2  3  1  0  0  0  0
  1  4  2  0  0  0  0
  1  5  1  0  0  0  0
  6  7  1  0  0  0  0
  7  8  1  0  0  0  0
 10 11  1  0  0  0  0
 11 12  1  0  0  0  0
 12 13  1  0  0  0  0
 15 16  1  0  0  0  0
 16 17  1  0  0  0  0
 19 20  1  0  0  0  0
 20 21  1  0  0  0  0
 19 22  2  0  0  0  0
 23 24  1  0  0  0  0
 24 25  2  0  0  0  0
 25 26  1  0  0  0  0
 26 27  2  0  0  0  0
 27 28  1  0  0  0  0
 23 28  2  0  0  0  0
 26 29  1  0  0  0  0
 25 30  1  0  0  0  0
 21 23  1  0  0  0  0
 18 19  1  0  0  0  0
 17 18  1  0  0  0  0
 14 15  1  0  0  0  0
 13 14  1  0  0  0  0
  9 10  1  0  0  0  0
  8  9  1  0  0  0  0
  5  6  1  0  0  0  0
 31 32  1  0  0  0  0
 32 33  2  0  0  0  0
 33 34  1  0  0  0  0
 34 35  2  0  0  0  0
 35 36  1  0  0  0  0
 31 36  2  0  0  0  0
 34 37  1  0  0  0  0
 33 38  1  0  0  0  0
  3 31  1  0  0  0  0
M  END
>  <cdx:fragmentId>
555

$$$$
