301688.cdx
  Mrv1902 05222410262D          

 37 39  0  0  0  0            999 V2000
    4.9000   -3.1086    0.0000 C   0  0  0  0  0  0  0  0  0  0  0  0
    7.0743   -7.6313    0.0000 C   0  0  0  0  0  0  0  0  0  0  0  0
    7.0687   -6.8064    0.0000 C   0  0  0  0  0  0  0  0  0  0  0  0
   12.7843   -6.7674    0.0000 O   0  0  0  0  0  0  0  0  0  0  0  0
   11.3442   -5.1272    0.0000 C   0  0  0  0  0  0  0  0  0  0  0  0
   12.0614   -5.5348    0.0000 C   0  0  0  0  0  0  0  0  0  0  0  0
   12.0671   -6.3598    0.0000 C   0  0  0  0  0  0  0  0  0  0  0  0
   11.3554   -6.7771    0.0000 C   0  0  0  0  0  0  0  0  0  0  0  0
   10.6382   -6.3695    0.0000 C   0  0  0  0  0  0  0  0  0  0  0  0
   10.6325   -5.5445    0.0000 C   0  0  0  0  0  0  0  0  0  0  0  0
    9.9153   -5.1369    0.0000 C   0  0  0  0  0  0  0  0  0  0  0  0
    9.2036   -5.5543    0.0000 C   0  0  0  0  0  0  0  0  0  0  0  0
    8.4864   -5.1467    0.0000 O   0  0  0  0  0  0  0  0  0  0  0  0
    7.7803   -6.3890    0.0000 O   0  0  0  0  0  0  0  0  0  0  0  0
    7.7747   -5.5640    0.0000 C   0  0  0  0  0  0  0  0  0  0  0  0
    7.0575   -5.1564    0.0000 C   0  0  0  0  0  0  0  0  0  0  0  0
    5.6567   -9.2910    0.0000 O   0  0  0  0  0  0  0  0  0  0  0  0
    4.2334  -10.1258    0.0000 O   0  0  0  0  0  0  0  0  0  0  0  0
    2.7988   -9.3105    0.0000 O   0  0  0  0  0  0  0  0  0  0  0  0
    2.0760   -8.0779    0.0000 O   0  0  0  0  0  0  0  0  0  0  0  0
    2.7876   -7.6606    0.0000 C   0  0  0  0  0  0  0  0  0  0  0  0
    3.5049   -8.0682    0.0000 C   0  0  2  0  0  0  0  0  0  0  0  0
    3.5105   -8.8932    0.0000 C   0  0  2  0  0  0  0  0  0  0  0  0
    4.2278   -9.3008    0.0000 C   0  0  1  0  0  0  0  0  0  0  0  0
    4.9394   -8.8834    0.0000 C   0  0  2  0  0  0  0  0  0  0  0  0
    4.9338   -8.0584    0.0000 C   0  0  1  0  0  0  0  0  0  0  0  0
    4.2165   -7.6508    0.0000 O   0  0  0  0  0  0  0  0  0  0  0  0
    5.6454   -7.6411    0.0000 O   0  0  0  0  0  0  0  0  0  0  0  0
    4.9057   -3.9335    0.0000 O   0  0  0  0  0  0  0  0  0  0  0  0
    6.3346   -3.9238    0.0000 O   0  0  0  0  0  0  0  0  0  0  0  0
    5.6229   -4.3412    0.0000 C   0  0  0  0  0  0  0  0  0  0  0  0
    4.9225   -6.4085    0.0000 O   0  0  0  0  0  0  0  0  0  0  0  0
    4.9169   -5.5835    0.0000 C   0  0  0  0  0  0  0  0  0  0  0  0
    5.6285   -5.1661    0.0000 C   0  0  0  0  0  0  0  0  0  0  0  0
    6.3458   -5.5738    0.0000 C   0  0  2  0  0  0  0  0  0  0  0  0
    6.3514   -6.3987    0.0000 C   0  0  2  0  0  0  0  0  0  0  0  0
    5.6398   -6.8161    0.0000 C   0  0  2  0  0  0  0  0  0  0  0  0
 29  1  1  0  0  0  0
 36  3  1  1  0  0  0
  3  2  1  0  0  0  0
 35 16  1  1  0  0  0
 15 13  1  0  0  0  0
 11 10  1  0  0  0  0
  7  4  1  0  0  0  0
 10  5  2  0  0  0  0
  6  5  1  0  0  0  0
  7  6  2  0  0  0  0
  8  7  1  0  0  0  0
  9  8  2  0  0  0  0
 10  9  1  0  0  0  0
 13 12  1  0  0  0  0
 12 11  1  0  0  0  0
 15 14  2  0  0  0  0
 16 15  1  0  0  0  0
 37 28  1  6  0  0  0
 26 28  1  1  0  0  0
 25 17  1  6  0  0  0
 24 18  1  1  0  0  0
 23 19  1  6  0  0  0
 22 21  1  1  0  0  0
 21 20  1  0  0  0  0
 27 22  1  0  0  0  0
 23 22  1  0  0  0  0
 24 23  1  0  0  0  0
 25 24  1  0  0  0  0
 26 25  1  0  0  0  0
 27 26  1  0  0  0  0
 34 31  1  0  0  0  0
 31 29  1  0  0  0  0
 31 30  2  0  0  0  0
 37 32  1  0  0  0  0
 33 32  1  0  0  0  0
 34 33  2  0  0  0  0
 35 34  1  0  0  0  0
 36 35  1  0  0  0  0
 37 36  1  0  0  0  0
M  END
>  <cdx:fragmentId>
4443

$$$$
