301677.cdx
  Mrv1902 05222410262D          

 29 31  0  0  0  0            999 V2000
   11.6965   -5.4952    0.0000 O   0  0  0  0  0  0  0  0  0  0  0  0
   11.1445   -4.8821    0.0000 C   0  0  0  0  0  0  0  0  0  0  0  0
   10.3908   -5.2177    0.0000 C   0  0  0  0  0  0  0  0  0  0  0  0
   10.4770   -6.0382    0.0000 C   0  0  0  0  0  0  0  0  0  0  0  0
   11.2840   -6.2097    0.0000 C   0  0  0  0  0  0  0  0  0  0  0  0
   11.6196   -6.9634    0.0000 O   0  0  0  0  0  0  0  0  0  0  0  0
   11.3160   -4.0752    0.0000 O   0  0  0  0  0  0  0  0  0  0  0  0
    2.5316   -8.1052    0.0000 O   0  0  0  0  0  0  0  0  0  0  0  0
    3.2461   -7.6927    0.0000 C   0  0  0  0  0  0  0  0  0  0  0  0
    3.9606   -7.2802    0.0000 C   0  0  2  0  0  0  0  0  0  0  0  0
    3.9606   -6.4552    0.0000 C   0  0  0  0  0  0  0  0  0  0  0  0
    4.6750   -6.0427    0.0000 C   0  0  0  0  0  0  0  0  0  0  0  0
    5.3895   -6.4552    0.0000 C   0  0  2  0  0  0  0  0  0  0  0  0
    5.3895   -7.2802    0.0000 C   0  0  0  0  0  0  0  0  0  0  0  0
    4.6750   -7.6927    0.0000 O   0  0  0  0  0  0  0  0  0  0  0  0
    6.1040   -6.0427    0.0000 C   0  0  1  0  0  0  0  0  0  0  0  0
    6.1040   -5.2177    0.0000 O   0  0  0  0  0  0  0  0  0  0  0  0
    6.8184   -4.8052    0.0000 C   0  0  0  0  0  0  0  0  0  0  0  0
    7.5329   -5.2177    0.0000 C   0  0  1  0  0  0  0  0  0  0  0  0
    7.5329   -6.0427    0.0000 C   0  0  0  0  0  0  0  0  0  0  0  0
    6.8184   -6.4552    0.0000 C   0  0  0  0  0  0  0  0  0  0  0  0
    8.2474   -4.8052    0.0000 C   0  0  0  0  0  0  0  0  0  0  0  0
    8.9619   -5.2177    0.0000 C   0  0  0  0  0  0  0  0  0  0  0  0
    9.6763   -4.8052    0.0000 C   0  0  0  0  0  0  0  0  0  0  0  0
    2.8336   -6.9782    0.0000 C   0  0  0  0  0  0  0  0  0  0  0  0
    3.6586   -8.4072    0.0000 C   0  0  0  0  0  0  0  0  0  0  0  0
    3.9606   -8.1052    0.0000 H   0  0  0  0  0  0  0  0  0  0  0  0
    5.3895   -5.6302    0.0000 H   0  0  0  0  0  0  0  0  0  0  0  0
    6.1040   -6.8677    0.0000 H   0  0  0  0  0  0  0  0  0  0  0  0
  3 24  1  0  0  0  0
 19 22  1  6  0  0  0
 16 13  1  0  0  0  0
 10  9  1  0  0  0  0
  9  8  1  0  0  0  0
 15 10  1  0  0  0  0
 11 10  1  0  0  0  0
 12 11  1  0  0  0  0
 13 12  1  0  0  0  0
 13 14  1  0  0  0  0
 15 14  1  0  0  0  0
 16 21  1  0  0  0  0
 17 16  1  0  0  0  0
 18 17  1  0  0  0  0
 19 18  1  0  0  0  0
 20 19  1  0  0  0  0
 21 20  1  0  0  0  0
 23 22  1  0  0  0  0
 24 23  1  0  0  0  0
  1  2  1  0  0  0  0
  2  3  1  0  0  0  0
  3  4  2  0  0  0  0
  4  5  1  0  0  0  0
  1  5  1  0  0  0  0
  5  6  2  0  0  0  0
  2  7  1  0  0  0  0
  9 25  1  0  0  0  0
  9 26  1  0  0  0  0
 10 27  1  1  0  0  0
 13 28  1  6  0  0  0
 16 29  1  6  0  0  0
M  END
>  <cdx:fragmentId>
3637

$$$$
