301668.cdx
  Mrv1902 05222410192D          

 36 41  0  0  0  0            999 V2000
    7.0875   -8.9366    0.0000 C   0  0  1  0  0  0  0  0  0  0  0  0
    7.8025   -8.5251    0.0000 C   0  0  2  0  0  0  0  0  0  0  0  0
    8.5868   -8.7811    0.0000 C   0  0  0  0  0  0  0  0  0  0  0  0
    9.0726   -8.1144    0.0000 C   0  0  2  0  0  0  0  0  0  0  0  0
    9.8576   -7.8605    0.0000 O   0  0  0  0  0  0  0  0  0  0  0  0
    9.8587   -7.0355    0.0000 C   0  0  2  0  0  0  0  0  0  0  0  0
    9.0745   -6.7795    0.0000 C   0  0  2  0  0  0  0  0  0  0  0  0
    8.5886   -7.4463    0.0000 C   0  0  2  0  0  0  0  0  0  0  0  0
    7.8036   -7.7001    0.0000 C   0  0  1  0  0  0  0  0  0  0  0  0
    7.0897   -7.2866    0.0000 C   0  0  0  0  0  0  0  0  0  0  0  0
    6.3747   -7.6981    0.0000 C   0  0  0  0  0  0  0  0  0  0  0  0
    6.3736   -8.5231    0.0000 C   0  0  2  0  0  0  0  0  0  0  0  0
    5.6585   -8.9346    0.0000 C   0  0  1  0  0  0  0  0  0  0  0  0
    4.9446   -8.5212    0.0000 C   0  0  0  0  0  0  0  0  0  0  0  0
    4.2296   -8.9327    0.0000 C   0  0  2  0  0  0  0  0  0  0  0  0
    4.2284   -9.7577    0.0000 C   0  0  1  0  0  0  0  0  0  0  0  0
    4.9423  -10.1712    0.0000 C   0  0  0  0  0  0  0  0  0  0  0  0
    5.6574   -9.7596    0.0000 C   0  0  0  0  0  0  0  0  0  0  0  0
    6.3713  -10.1731    0.0000 C   0  0  0  0  0  0  0  0  0  0  0  0
    7.0863   -9.7616    0.0000 C   0  0  0  0  0  0  0  0  0  0  0  0
    9.7736   -6.2149    0.0000 O   0  0  0  0  0  0  0  0  0  0  0  0
   10.6119   -7.3721    0.0000 C   0  0  0  0  0  0  0  0  0  0  0  0
   11.2800   -6.8881    0.0000 C   0  0  0  0  0  0  0  0  0  0  0  0
   11.1949   -6.0675    0.0000 C   0  0  1  0  0  0  0  0  0  0  0  0
   10.4417   -5.7309    0.0000 C   0  0  0  0  0  0  0  0  0  0  0  0
    3.5157   -8.5192    0.0000 O   0  0  0  0  0  0  0  0  0  0  0  0
    3.5134  -10.1692    0.0000 O   0  0  0  0  0  0  0  0  0  0  0  0
    5.6597   -8.1096    0.0000 C   0  0  0  0  0  0  0  0  0  0  0  0
    7.6615   -6.8875    0.0000 C   0  0  0  0  0  0  0  0  0  0  0  0
    8.8206   -5.9945    0.0000 C   0  0  0  0  0  0  0  0  0  0  0  0
   11.8630   -5.5835    0.0000 C   0  0  0  0  0  0  0  0  0  0  0  0
    7.0886   -8.1116    0.0000 H   0  0  0  0  0  0  0  0  0  0  0  0
    7.8014   -9.3501    0.0000 H   0  0  0  0  0  0  0  0  0  0  0  0
    9.5566   -8.7825    0.0000 H   0  0  0  0  0  0  0  0  0  0  0  0
    8.2280   -6.7043    0.0000 H   0  0  0  0  0  0  0  0  0  0  0  0
    6.3724   -9.3481    0.0000 H   0  0  0  0  0  0  0  0  0  0  0  0
  1  2  1  0  0  0  0
  2  3  1  0  0  0  0
  3  4  1  0  0  0  0
  4  5  1  0  0  0  0
  6  5  1  6  0  0  0
  6  7  1  0  0  0  0
  7  8  1  0  0  0  0
  8  9  1  0  0  0  0
  9 10  1  0  0  0  0
 10 11  1  0  0  0  0
 11 12  1  0  0  0  0
 12 13  1  0  0  0  0
 13 14  1  0  0  0  0
 14 15  1  0  0  0  0
 15 16  1  0  0  0  0
 16 17  1  0  0  0  0
 17 18  1  0  0  0  0
 18 19  2  0  0  0  0
 19 20  1  0  0  0  0
  1 20  1  0  0  0  0
  1 12  1  0  0  0  0
 13 18  1  0  0  0  0
  2  9  1  0  0  0  0
  4  8  1  0  0  0  0
 22 23  1  0  0  0  0
 23 24  1  0  0  0  0
 24 25  1  0  0  0  0
 21 25  1  0  0  0  0
  6 21  1  0  0  0  0
  6 22  1  0  0  0  0
 15 26  1  6  0  0  0
 16 27  1  1  0  0  0
 13 28  1  1  0  0  0
  9 29  1  1  0  0  0
  7 30  1  6  0  0  0
 24 31  1  1  0  0  0
  1 32  1  1  0  0  0
  2 33  1  6  0  0  0
  4 34  1  6  0  0  0
  8 35  1  6  0  0  0
 12 36  1  6  0  0  0
M  END
>  <cdx:fragmentId>
3114

$$$$
