301652.cdx
  Mrv1902 05222410202D          

 18 20  0  0  0  0            999 V2000
    7.4507   -7.4746    0.0000 C   0  0  0  0  0  0  0  0  0  0  0  0
    7.4497   -6.6496    0.0000 C   0  0  0  0  0  0  0  0  0  0  0  0
    6.7347   -6.2379    0.0000 C   0  0  0  0  0  0  0  0  0  0  0  0
    6.0207   -6.6513    0.0000 C   0  0  0  0  0  0  0  0  0  0  0  0
    6.0217   -7.4763    0.0000 C   0  0  0  0  0  0  0  0  0  0  0  0
    6.7367   -7.8879    0.0000 C   0  0  0  0  0  0  0  0  0  0  0  0
    8.1656   -7.8862    0.0000 O   0  0  0  0  0  0  0  0  0  0  0  0
    5.3077   -7.8897    0.0000 C   0  0  0  0  0  0  0  0  0  0  0  0
    8.9840   -6.1490    0.0000 C   0  0  2  0  0  0  0  0  0  0  0  0
    8.1637   -6.2362    0.0000 C   0  0  1  0  0  0  0  0  0  0  0  0
    7.8272   -5.4830    0.0000 C   0  0  0  0  0  0  0  0  0  0  0  0
    8.4396   -4.9302    0.0000 C   0  0  0  0  0  0  0  0  0  0  0  0
    9.1546   -5.3418    0.0000 C   0  0  2  0  0  0  0  0  0  0  0  0
    9.7683   -5.8931    0.0000 C   0  0  0  0  0  0  0  0  0  0  0  0
    8.1646   -7.0612    0.0000 C   0  0  0  0  0  0  0  0  0  0  0  0
    9.1565   -6.9558    0.0000 C   0  0  0  0  0  0  0  0  0  0  0  0
    5.3058   -6.2397    0.0000 Br  0  0  0  0  0  0  0  0  0  0  0  0
    9.6387   -4.6738    0.0000 H   0  0  0  0  0  0  0  0  0  0  0  0
  1  2  1  0  0  0  0
  2  3  2  0  0  0  0
  3  4  1  0  0  0  0
  4  5  2  0  0  0  0
  5  6  1  0  0  0  0
  1  6  2  0  0  0  0
  1  7  1  0  0  0  0
  5  8  1  0  0  0  0
  9 10  1  0  0  0  0
 10 11  1  0  0  0  0
 11 12  1  0  0  0  0
 12 13  1  0  0  0  0
 13 14  1  0  0  0  0
  9 14  1  0  0  0  0
  9 13  1  0  0  0  0
 10 15  1  1  0  0  0
  9 16  1  1  0  0  0
 10  2  1  6  0  0  0
  4 17  1  0  0  0  0
 13 18  1  1  0  0  0
M  END
>  <cdx:fragmentId>
1333

$$$$
