301694.cdx
  Mrv1902 05222410182D          

 46 50  0  0  0  0            999 V2000
    3.0420   -4.8628    0.0000 C   0  0  0  0  0  0  0  0  0  0  0  0
    3.7559   -4.4492    0.0000 O   0  0  0  0  0  0  0  0  0  0  0  0
    6.7673   -6.9635    0.0000 O   0  0  0  0  0  0  0  0  0  0  0  0
    6.0545   -7.3789    0.0000 C   0  0  2  0  0  0  0  0  0  0  0  0
    5.3383   -6.9694    0.0000 C   0  0  1  0  0  0  0  0  0  0  0  0
    5.3349   -6.1444    0.0000 C   0  0  2  0  0  0  0  0  0  0  0  0
    6.0477   -5.7290    0.0000 C   0  0  1  0  0  0  0  0  0  0  0  0
    6.7639   -6.1385    0.0000 C   0  0  1  0  0  0  0  0  0  0  0  0
    6.0579   -8.2039    0.0000 O   0  0  0  0  0  0  0  0  0  0  0  0
    9.6303   -8.6164    0.0000 C   0  0  0  0  0  0  0  0  0  0  0  0
    9.6303   -9.4414    0.0000 C   0  0  0  0  0  0  0  0  0  0  0  0
    8.9158   -9.8539    0.0000 C   0  0  0  0  0  0  0  0  0  0  0  0
    8.2013   -9.4414    0.0000 C   0  0  0  0  0  0  0  0  0  0  0  0
    7.4869   -9.8539    0.0000 C   0  0  0  0  0  0  0  0  0  0  0  0
    6.7724   -9.4414    0.0000 C   0  0  0  0  0  0  0  0  0  0  0  0
    6.7724   -8.6164    0.0000 C   0  0  0  0  0  0  0  0  0  0  0  0
    7.4869   -8.2039    0.0000 C   0  0  0  0  0  0  0  0  0  0  0  0
    8.2013   -8.6164    0.0000 C   0  0  0  0  0  0  0  0  0  0  0  0
    8.9158   -8.2039    0.0000 O   0  0  0  0  0  0  0  0  0  0  0  0
    8.9158  -10.6789    0.0000 O   0  0  0  0  0  0  0  0  0  0  0  0
   10.3448   -8.2039    0.0000 C   0  0  0  0  0  0  0  0  0  0  0  0
   10.3448   -7.3789    0.0000 C   0  0  0  0  0  0  0  0  0  0  0  0
   11.0592   -6.9664    0.0000 C   0  0  0  0  0  0  0  0  0  0  0  0
   11.7737   -7.3789    0.0000 C   0  0  0  0  0  0  0  0  0  0  0  0
   11.7737   -8.2039    0.0000 C   0  0  0  0  0  0  0  0  0  0  0  0
   11.0592   -8.6164    0.0000 C   0  0  0  0  0  0  0  0  0  0  0  0
   12.4882   -6.9664    0.0000 O   0  0  0  0  0  0  0  0  0  0  0  0
    7.4869  -10.6789    0.0000 O   0  0  0  0  0  0  0  0  0  0  0  0
    6.0443   -4.9040    0.0000 O   0  0  0  0  0  0  0  0  0  0  0  0
    4.6188   -5.7349    0.0000 O   0  0  0  0  0  0  0  0  0  0  0  0
    7.4766   -5.7230    0.0000 C   0  0  0  0  0  0  0  0  0  0  0  0
    8.1928   -6.1326    0.0000 O   0  0  0  0  0  0  0  0  0  0  0  0
    7.4732   -4.8981    0.0000 O   0  0  0  0  0  0  0  0  0  0  0  0
    4.5795   -7.4037    0.0000 O   0  0  0  0  0  0  0  0  0  0  0  0
    1.6144   -5.6899    0.0000 O   0  0  0  0  0  0  0  0  0  0  0  0
    1.6169   -7.3399    0.0000 O   0  0  0  0  0  0  0  0  0  0  0  0
    3.0471   -8.1628    0.0000 O   0  0  0  0  0  0  0  0  0  0  0  0
    2.3269   -4.4513    0.0000 O   0  0  0  0  0  0  0  0  0  0  0  0
    3.7597   -6.9242    0.0000 C   0  0  1  0  0  0  0  0  0  0  0  0
    3.0458   -7.3378    0.0000 C   0  0  1  0  0  0  0  0  0  0  0  0
    2.3307   -6.9263    0.0000 C   0  0  2  0  0  0  0  0  0  0  0  0
    2.3295   -6.1013    0.0000 C   0  0  1  0  0  0  0  0  0  0  0  0
    3.0433   -5.6878    0.0000 C   0  0  2  0  0  0  0  0  0  0  0  0
    3.7584   -6.0992    0.0000 O   0  0  0  0  0  0  0  0  0  0  0  0
   12.4882   -8.6164    0.0000 O   0  0  0  0  0  0  0  0  0  0  0  0
   13.2026   -8.2039    0.0000 C   0  0  0  0  0  0  0  0  0  0  0  0
 39 34  1  1  0  0  0
 42 35  1  6  0  0  0
 41 36  1  1  0  0  0
 40 37  1  6  0  0  0
 43  1  1  1  0  0  0
 44 39  1  0  0  0  0
 40 39  1  0  0  0  0
 41 40  1  0  0  0  0
 42 41  1  0  0  0  0
 43 42  1  0  0  0  0
 44 43  1  0  0  0  0
  1  2  2  0  0  0  0
  1 38  1  0  0  0  0
  3  4  1  0  0  0  0
  4  5  1  0  0  0  0
  5  6  1  0  0  0  0
  6  7  1  0  0  0  0
  7  8  1  0  0  0  0
  3  8  1  0  0  0  0
 10 11  2  0  0  0  0
 11 12  1  0  0  0  0
 12 13  1  0  0  0  0
 13 14  1  0  0  0  0
 14 15  2  0  0  0  0
 15 16  1  0  0  0  0
 16 17  2  0  0  0  0
 17 18  1  0  0  0  0
 13 18  2  0  0  0  0
 18 19  1  0  0  0  0
 10 19  1  0  0  0  0
 12 20  2  0  0  0  0
 21 22  1  0  0  0  0
 22 23  2  0  0  0  0
 23 24  1  0  0  0  0
 24 25  2  0  0  0  0
 25 26  1  0  0  0  0
 21 26  2  0  0  0  0
 24 27  1  0  0  0  0
 10 21  1  0  0  0  0
 14 28  1  0  0  0  0
  9 16  1  0  0  0  0
  4  9  1  1  0  0  0
  7 29  1  6  0  0  0
  6 30  1  1  0  0  0
 31 32  2  0  0  0  0
 31 33  1  0  0  0  0
  8 31  1  1  0  0  0
  5 34  1  6  0  0  0
 25 45  1  0  0  0  0
 45 46  1  0  0  0  0
M  END
>  <cdx:fragmentId>
1379

$$$$
