30162.cdx
  Mrv1902 05222410242D          

 25 25  0  0  0  0            999 V2000
    4.8243  -10.0226    0.0000 C   0  0  0  0  0  0  0  0  0  0  0  0
    4.8243  -10.8476    0.0000 C   0  0  0  0  0  0  0  0  0  0  0  0
    5.5388  -11.2601    0.0000 C   0  0  0  0  0  0  0  0  0  0  0  0
    6.2532  -10.8476    0.0000 C   0  0  0  0  0  0  0  0  0  0  0  0
    6.2532  -10.0226    0.0000 C   0  0  0  0  0  0  0  0  0  0  0  0
    5.5388   -9.6101    0.0000 O   0  0  0  0  0  0  0  0  0  0  0  0
    4.1098   -9.6101    0.0000 C   0  0  0  0  0  0  0  0  0  0  0  0
    3.3954  -10.0226    0.0000 O   0  0  0  0  0  0  0  0  0  0  0  0
    4.1098  -11.2601    0.0000 O   0  0  0  0  0  0  0  0  0  0  0  0
    5.5388  -12.0851    0.0000 O   0  0  0  0  0  0  0  0  0  0  0  0
    6.9677  -11.2601    0.0000 O   0  0  0  0  0  0  0  0  0  0  0  0
    6.9677   -9.6101    0.0000 O   0  0  0  0  0  0  0  0  0  0  0  0
    6.9677   -8.7851    0.0000 C   0  0  0  0  0  0  0  0  0  0  0  0
    7.6822   -8.3726    0.0000 C   0  0  0  0  0  0  0  0  0  0  0  0
    8.3967   -7.1351    0.0000 C   0  0  0  0  0  0  0  0  0  0  0  0
    7.6822   -7.5476    0.0000 C   0  0  0  0  0  0  0  0  0  0  0  0
    9.1111   -5.8976    0.0000 C   0  0  0  0  0  0  0  0  0  0  0  0
    8.3967   -6.3101    0.0000 C   0  0  0  0  0  0  0  0  0  0  0  0
   10.5401   -5.0726    0.0000 O   0  0  0  0  0  0  0  0  0  0  0  0
    9.8256   -4.6601    0.0000 C   0  0  0  0  0  0  0  0  0  0  0  0
    9.1111   -5.0726    0.0000 C   0  0  0  0  0  0  0  0  0  0  0  0
   10.5401   -3.4226    0.0000 C   0  0  0  0  0  0  0  0  0  0  0  0
    9.8256   -3.8351    0.0000 O   0  0  0  0  0  0  0  0  0  0  0  0
    6.9677   -7.1351    0.0000 C   0  0  0  0  0  0  0  0  0  0  0  0
    8.3967   -4.6601    0.0000 C   0  0  0  0  0  0  0  0  0  0  0  0
  1  2  1  0  0  0  0
  2  3  1  0  0  0  0
  3  4  1  0  0  0  0
  4  5  1  0  0  0  0
  5  6  1  0  0  0  0
  6  1  1  0  0  0  0
  1  7  1  0  0  0  0
  7  8  1  0  0  0  0
  2  9  1  0  0  0  0
  3 10  1  0  0  0  0
  4 11  1  0  0  0  0
  5 12  1  0  0  0  0
 12 13  1  0  0  0  0
 14 13  1  0  0  0  0
 15 16  1  0  0  0  0
 16 14  1  0  0  0  0
 17 18  1  0  0  0  0
 18 15  1  0  0  0  0
 19 20  2  0  0  0  0
 20 21  1  0  0  0  0
 21 17  2  0  0  0  0
 22 23  1  0  0  0  0
 23 20  1  0  0  0  0
 16 24  1  0  0  0  0
 21 25  1  0  0  0  0
M  END
>  <cdx:fragmentId>
5

$$$$
