301622.cdx
  Mrv1902 05222410212D          

 51 56  0  0  0  0            999 V2000
    6.9933   -6.9745    0.0000 O   0  0  0  0  0  0  0  0  0  0  0  0
    8.4127   -9.4551    0.0000 O   0  0  0  0  0  0  0  0  0  0  0  0
    4.8451   -8.2037    0.0000 C   0  0  0  0  0  0  0  0  0  0  0  0
    5.5548   -9.4440    0.0000 C   0  0  0  0  0  0  0  0  0  0  0  0
    5.5580   -8.6190    0.0000 C   0  0  0  0  0  0  0  0  0  0  0  0
    6.2740   -8.2093    0.0000 C   0  0  0  0  0  0  0  0  0  0  0  0
    6.9869   -8.6245    0.0000 C   0  0  0  0  0  0  0  0  0  0  0  0
    7.7126   -5.7398    0.0000 O   0  0  0  0  0  0  0  0  0  0  0  0
    9.1351   -7.3953    0.0000 C   0  0  0  0  0  0  0  0  0  0  0  0
    9.1319   -8.2203    0.0000 C   0  0  0  0  0  0  0  0  0  0  0  0
    8.4158   -8.6301    0.0000 C   0  0  0  0  0  0  0  0  0  0  0  0
    7.7030   -8.2148    0.0000 C   0  0  0  0  0  0  0  0  0  0  0  0
    7.7062   -7.3898    0.0000 C   0  0  0  0  0  0  0  0  0  0  0  0
    8.4222   -6.9801    0.0000 C   0  0  0  0  0  0  0  0  0  0  0  0
    8.4254   -6.1551    0.0000 C   0  0  0  0  0  0  0  0  0  0  0  0
   11.7097   -6.7453    0.0000 O   0  0  0  0  0  0  0  0  0  0  0  0
   10.2712   -9.2148    0.0000 O   0  0  0  0  0  0  0  0  0  0  0  0
    9.5647   -7.1495    0.0000 C   0  0  0  0  0  0  0  0  0  0  0  0
    9.5615   -7.9745    0.0000 C   0  0  0  0  0  0  0  0  0  0  0  0
   10.2744   -8.3898    0.0000 C   0  0  0  0  0  0  0  0  0  0  0  0
   10.9905   -7.9800    0.0000 C   0  0  0  0  0  0  0  0  0  0  0  0
   10.9937   -7.1550    0.0000 C   0  0  0  0  0  0  0  0  0  0  0  0
   10.2808   -6.7398    0.0000 C   0  0  0  0  0  0  0  0  0  0  0  0
   11.7193   -4.2703    0.0000 C   0  0  0  0  0  0  0  0  0  0  0  0
    9.5711   -5.4995    0.0000 C   0  0  1  0  0  0  0  0  0  0  0  0
   10.2840   -5.9148    0.0000 C   0  0  1  0  0  0  0  0  0  0  0  0
   11.0001   -5.5050    0.0000 C   0  0  0  0  0  0  0  0  0  0  0  0
   11.0033   -4.6801    0.0000 C   0  0  0  0  0  0  0  0  0  0  0  0
   10.2904   -4.2648    0.0000 C   0  0  0  0  0  0  0  0  0  0  0  0
    9.5743   -4.6745    0.0000 C   0  0  2  0  0  0  0  0  0  0  0  0
    8.1422   -5.4940    0.0000 O   0  0  0  0  0  0  0  0  0  0  0  0
    9.5807   -3.0245    0.0000 O   0  0  0  0  0  0  0  0  0  0  0  0
    7.4357   -3.4287    0.0000 C   0  0  0  0  0  0  0  0  0  0  0  0
    8.1518   -3.0190    0.0000 C   0  0  0  0  0  0  0  0  0  0  0  0
    8.8647   -3.4343    0.0000 C   0  0  0  0  0  0  0  0  0  0  0  0
    8.8615   -4.2593    0.0000 C   0  0  0  0  0  0  0  0  0  0  0  0
    8.1454   -4.6690    0.0000 C   0  0  0  0  0  0  0  0  0  0  0  0
    7.4325   -4.2537    0.0000 C   0  0  0  0  0  0  0  0  0  0  0  0
    4.5651   -6.7176    0.0000 O   0  0  0  0  0  0  0  0  0  0  0  0
    3.1457   -4.2371    0.0000 O   0  0  0  0  0  0  0  0  0  0  0  0
    5.9940   -6.7232    0.0000 O   0  0  0  0  0  0  0  0  0  0  0  0
    6.0036   -4.2482    0.0000 O   0  0  0  0  0  0  0  0  0  0  0  0
    5.2875   -4.6579    0.0000 C   0  0  0  0  0  0  0  0  0  0  0  0
    4.5747   -4.2427    0.0000 C   0  0  0  0  0  0  0  0  0  0  0  0
    3.8586   -4.6524    0.0000 C   0  0  0  0  0  0  0  0  0  0  0  0
    3.8554   -5.4774    0.0000 C   0  0  0  0  0  0  0  0  0  0  0  0
    4.5683   -5.8926    0.0000 C   0  0  0  0  0  0  0  0  0  0  0  0
    5.2843   -5.4829    0.0000 C   0  0  0  0  0  0  0  0  0  0  0  0
    5.9972   -5.8982    0.0000 C   0  0  0  0  0  0  0  0  0  0  0  0
    6.7133   -5.4884    0.0000 C   0  0  0  0  0  0  0  0  0  0  0  0
    6.7165   -4.6635    0.0000 C   0  0  1  0  0  0  0  0  0  0  0  0
 51 38  1  6  0  0  0
 30 36  1  1  0  0  0
 25 15  1  6  0  0  0
 13  1  1  0  0  0  0
 11  2  1  0  0  0  0
 12  7  1  0  0  0  0
  5  3  1  0  0  0  0
  5  4  1  0  0  0  0
  6  5  2  0  0  0  0
  7  6  1  0  0  0  0
 15  8  2  0  0  0  0
 14  9  2  0  0  0  0
 10  9  1  0  0  0  0
 11 10  2  0  0  0  0
 12 11  1  0  0  0  0
 13 12  2  0  0  0  0
 14 13  1  0  0  0  0
 15 14  1  0  0  0  0
 26 23  1  1  0  0  0
 22 16  1  0  0  0  0
 20 17  1  0  0  0  0
 23 18  2  0  0  0  0
 19 18  1  0  0  0  0
 20 19  2  0  0  0  0
 21 20  1  0  0  0  0
 22 21  2  0  0  0  0
 23 22  1  0  0  0  0
 28 24  1  0  0  0  0
 30 25  1  0  0  0  0
 26 25  1  0  0  0  0
 27 26  1  0  0  0  0
 28 27  1  0  0  0  0
 29 28  2  0  0  0  0
 30 29  1  0  0  0  0
 37 31  1  0  0  0  0
 35 32  1  0  0  0  0
 38 33  2  0  0  0  0
 34 33  1  0  0  0  0
 35 34  2  0  0  0  0
 36 35  1  0  0  0  0
 37 36  2  0  0  0  0
 38 37  1  0  0  0  0
 47 39  1  0  0  0  0
 45 40  1  0  0  0  0
 49 41  2  0  0  0  0
 51 42  1  0  0  0  0
 43 42  1  0  0  0  0
 48 43  2  0  0  0  0
 44 43  1  0  0  0  0
 45 44  2  0  0  0  0
 46 45  1  0  0  0  0
 47 46  2  0  0  0  0
 48 47  1  0  0  0  0
 49 48  1  0  0  0  0
 50 49  1  0  0  0  0
 51 50  1  0  0  0  0
M  END
>  <cdx:fragmentId>
594

$$$$
