301621.cdx
  Mrv1902 05222410202D          

 51 56  0  0  0  0            999 V2000
    9.2388   -2.9444    0.0000 O   0  0  0  0  0  0  0  0  0  0  0  0
   12.0965   -2.9685    0.0000 O   0  0  0  0  0  0  0  0  0  0  0  0
    8.5139   -4.1758    0.0000 O   0  0  0  0  0  0  0  0  0  0  0  0
   10.6537   -4.6064    0.0000 C   0  0  0  0  0  0  0  0  0  0  0  0
   11.3716   -4.1999    0.0000 C   0  0  0  0  0  0  0  0  0  0  0  0
   11.3786   -3.3749    0.0000 C   0  0  0  0  0  0  0  0  0  0  0  0
   10.6677   -2.9564    0.0000 C   0  0  0  0  0  0  0  0  0  0  0  0
    9.9497   -3.3629    0.0000 C   0  0  0  0  0  0  0  0  0  0  0  0
    9.9428   -4.1878    0.0000 C   0  0  0  0  0  0  0  0  0  0  0  0
    9.2248   -4.5943    0.0000 C   0  0  0  0  0  0  0  0  0  0  0  0
   11.3466   -7.1698    0.0000 O   0  0  0  0  0  0  0  0  0  0  0  0
   12.7964   -4.7070    0.0000 O   0  0  0  0  0  0  0  0  0  0  0  0
   10.6495   -5.1013    0.0000 C   0  0  0  0  0  0  0  0  0  0  0  0
   11.3675   -4.6949    0.0000 C   0  0  0  0  0  0  0  0  0  0  0  0
   12.0784   -5.1134    0.0000 C   0  0  0  0  0  0  0  0  0  0  0  0
   12.0715   -5.9384    0.0000 C   0  0  0  0  0  0  0  0  0  0  0  0
   11.3535   -6.3448    0.0000 C   0  0  0  0  0  0  0  0  0  0  0  0
   10.6426   -5.9263    0.0000 C   0  0  0  0  0  0  0  0  0  0  0  0
    9.1928   -8.3892    0.0000 C   0  0  0  0  0  0  0  0  0  0  0  0
    9.2137   -5.9142    0.0000 C   0  0  1  0  0  0  0  0  0  0  0  0
    9.9246   -6.3328    0.0000 C   0  0  1  0  0  0  0  0  0  0  0  0
    9.9177   -7.1577    0.0000 C   0  0  0  0  0  0  0  0  0  0  0  0
    9.1997   -7.5642    0.0000 C   0  0  0  0  0  0  0  0  0  0  0  0
    8.4888   -7.1457    0.0000 C   0  0  0  0  0  0  0  0  0  0  0  0
    8.4957   -6.3207    0.0000 C   0  0  2  0  0  0  0  0  0  0  0  0
    7.0599   -7.1336    0.0000 O   0  0  0  0  0  0  0  0  0  0  0  0
    8.5097   -4.6708    0.0000 O   0  0  0  0  0  0  0  0  0  0  0  0
    6.3629   -5.0651    0.0000 C   0  0  0  0  0  0  0  0  0  0  0  0
    7.0808   -4.6587    0.0000 C   0  0  0  0  0  0  0  0  0  0  0  0
    7.7918   -5.0772    0.0000 C   0  0  0  0  0  0  0  0  0  0  0  0
    7.7848   -5.9022    0.0000 C   0  0  0  0  0  0  0  0  0  0  0  0
    7.0669   -6.3086    0.0000 C   0  0  0  0  0  0  0  0  0  0  0  0
    6.3559   -5.8901    0.0000 C   0  0  0  0  0  0  0  0  0  0  0  0
    3.4772   -8.3409    0.0000 O   0  0  0  0  0  0  0  0  0  0  0  0
    2.0692   -5.8539    0.0000 O   0  0  0  0  0  0  0  0  0  0  0  0
    7.0390   -9.6085    0.0000 C   0  0  0  0  0  0  0  0  0  0  0  0
    7.7639   -8.3771    0.0000 C   0  0  0  0  0  0  0  0  0  0  0  0
    7.0460   -8.7835    0.0000 C   0  0  0  0  0  0  0  0  0  0  0  0
    6.3350   -8.3650    0.0000 C   0  0  0  0  0  0  0  0  0  0  0  0
    6.3420   -7.5401    0.0000 C   0  0  0  0  0  0  0  0  0  0  0  0
    4.9061   -8.3530    0.0000 O   0  0  0  0  0  0  0  0  0  0  0  0
    4.9270   -5.8780    0.0000 O   0  0  0  0  0  0  0  0  0  0  0  0
    4.2091   -6.2845    0.0000 C   0  0  0  0  0  0  0  0  0  0  0  0
    3.4981   -5.8660    0.0000 C   0  0  0  0  0  0  0  0  0  0  0  0
    2.7802   -6.2724    0.0000 C   0  0  0  0  0  0  0  0  0  0  0  0
    2.7732   -7.0974    0.0000 C   0  0  0  0  0  0  0  0  0  0  0  0
    3.4842   -7.5159    0.0000 C   0  0  0  0  0  0  0  0  0  0  0  0
    4.2021   -7.1095    0.0000 C   0  0  0  0  0  0  0  0  0  0  0  0
    4.9131   -7.5280    0.0000 C   0  0  0  0  0  0  0  0  0  0  0  0
    5.6310   -7.1215    0.0000 C   0  0  0  0  0  0  0  0  0  0  0  0
    5.6380   -6.2966    0.0000 C   0  0  0  0  0  0  0  0  0  0  0  0
 51 33  1  0  0  0  0
 25 31  1  6  0  0  0
 20 10  1  1  0  0  0
  8  1  1  0  0  0  0
  6  2  1  0  0  0  0
 10  3  2  0  0  0  0
  9  4  2  0  0  0  0
  5  4  1  0  0  0  0
  6  5  2  0  0  0  0
  7  6  1  0  0  0  0
  8  7  2  0  0  0  0
  9  8  1  0  0  0  0
 10  9  1  0  0  0  0
 21 18  1  6  0  0  0
 17 11  1  0  0  0  0
 15 12  1  0  0  0  0
 18 13  2  0  0  0  0
 14 13  1  0  0  0  0
 15 14  2  0  0  0  0
 16 15  1  0  0  0  0
 17 16  2  0  0  0  0
 18 17  1  0  0  0  0
 23 19  1  0  0  0  0
 25 20  1  0  0  0  0
 21 20  1  0  0  0  0
 22 21  1  0  0  0  0
 23 22  1  0  0  0  0
 24 23  2  0  0  0  0
 25 24  1  0  0  0  0
 32 26  1  0  0  0  0
 30 27  1  0  0  0  0
 33 28  2  0  0  0  0
 29 28  1  0  0  0  0
 30 29  2  0  0  0  0
 31 30  1  0  0  0  0
 32 31  2  0  0  0  0
 33 32  1  0  0  0  0
 47 34  1  0  0  0  0
 45 35  1  0  0  0  0
 50 40  1  0  0  0  0
 38 36  1  0  0  0  0
 38 37  1  0  0  0  0
 39 38  2  0  0  0  0
 40 39  1  0  0  0  0
 49 41  2  0  0  0  0
 51 42  1  0  0  0  0
 43 42  1  0  0  0  0
 48 43  2  0  0  0  0
 44 43  1  0  0  0  0
 45 44  2  0  0  0  0
 46 45  1  0  0  0  0
 47 46  2  0  0  0  0
 48 47  1  0  0  0  0
 49 48  1  0  0  0  0
 50 49  1  0  0  0  0
 51 50  2  0  0  0  0
M  END
>  <cdx:fragmentId>
430

$$$$
