301661.cdx
  Mrv1902 05222410272D          

 56 61  0  0  0  0            999 V2000
    6.5202   -4.3688    0.0000 C   0  0  0  0  0  0  0  0  0  0  0  0
    6.5280   -3.5438    0.0000 C   0  0  0  0  0  0  0  0  0  0  0  0
    7.2463   -3.1380    0.0000 C   0  0  0  0  0  0  0  0  0  0  0  0
    7.9569   -3.5572    0.0000 C   0  0  0  0  0  0  0  0  0  0  0  0
    7.9491   -4.3822    0.0000 C   0  0  0  0  0  0  0  0  0  0  0  0
    7.2308   -4.7880    0.0000 C   0  0  0  0  0  0  0  0  0  0  0  0
    8.6752   -3.1515    0.0000 O   0  0  0  0  0  0  0  0  0  0  0  0
    7.2541   -2.3131    0.0000 O   0  0  0  0  0  0  0  0  0  0  0  0
    7.9258   -6.8571    0.0000 O   0  0  0  0  0  0  0  0  0  0  0  0
    7.9103   -8.5070    0.0000 O   0  0  0  0  0  0  0  0  0  0  0  0
    6.4736   -9.3185    0.0000 O   0  0  0  0  0  0  0  0  0  0  0  0
    5.0525   -9.4052    0.0000 O   0  0  0  0  0  0  0  0  0  0  0  0
    5.0525   -8.4801    0.0000 C   0  0  0  0  0  0  0  0  0  0  0  0
    5.7708   -8.0744    0.0000 C   0  0  2  0  0  0  0  0  0  0  0  0
    6.4814   -8.4936    0.0000 C   0  0  1  0  0  0  0  0  0  0  0  0
    7.1997   -8.0878    0.0000 C   0  0  1  0  0  0  0  0  0  0  0  0
    7.2075   -7.2629    0.0000 C   0  0  2  0  0  0  0  0  0  0  0  0
    6.4969   -6.8436    0.0000 C   0  0  1  0  0  0  0  0  0  0  0  0
    5.7786   -7.2494    0.0000 O   0  0  0  0  0  0  0  0  0  0  0  0
    6.5047   -6.0187    0.0000 O   0  0  0  0  0  0  0  0  0  0  0  0
    3.6392   -6.8167    0.0000 O   0  0  0  0  0  0  0  0  0  0  0  0
    2.2336   -4.3284    0.0000 O   0  0  0  0  0  0  0  0  0  0  0  0
    5.0680   -6.8302    0.0000 O   0  0  0  0  0  0  0  0  0  0  0  0
    5.0913   -4.3553    0.0000 O   0  0  0  0  0  0  0  0  0  0  0  0
    4.3730   -4.7610    0.0000 C   0  0  0  0  0  0  0  0  0  0  0  0
    3.6625   -4.3418    0.0000 C   0  0  0  0  0  0  0  0  0  0  0  0
    2.9441   -4.7476    0.0000 C   0  0  0  0  0  0  0  0  0  0  0  0
    2.9364   -5.5726    0.0000 C   0  0  0  0  0  0  0  0  0  0  0  0
    3.6469   -5.9918    0.0000 C   0  0  0  0  0  0  0  0  0  0  0  0
    4.3652   -5.5860    0.0000 C   0  0  0  0  0  0  0  0  0  0  0  0
    5.0758   -6.0052    0.0000 C   0  0  0  0  0  0  0  0  0  0  0  0
    5.7941   -5.5995    0.0000 C   0  0  0  0  0  0  0  0  0  0  0  0
    5.8019   -4.7745    0.0000 C   0  0  0  0  0  0  0  0  0  0  0  0
    4.2513   -9.8678    0.0000 C   0  0  2  0  0  0  0  0  0  0  0  0
    3.5369   -9.4553    0.0000 O   0  0  0  0  0  0  0  0  0  0  0  0
    2.8224   -9.8678    0.0000 C   0  0  2  0  0  0  0  0  0  0  0  0
    2.8224  -10.6928    0.0000 C   0  0  1  0  0  0  0  0  0  0  0  0
    3.5369  -11.1053    0.0000 C   0  0  2  0  0  0  0  0  0  0  0  0
    4.2513  -10.6928    0.0000 C   0  0  1  0  0  0  0  0  0  0  0  0
    2.1079  -11.1053    0.0000 O   0  0  0  0  0  0  0  0  0  0  0  0
    3.5369  -11.9303    0.0000 O   0  0  0  0  0  0  0  0  0  0  0  0
    4.9658  -11.1053    0.0000 O   0  0  0  0  0  0  0  0  0  0  0  0
    2.1079   -9.4553    0.0000 C   0  0  0  0  0  0  0  0  0  0  0  0
    5.6803  -10.6928    0.0000 C   0  0  0  0  0  0  0  0  0  0  0  0
    6.3947  -11.1053    0.0000 C   0  0  0  0  0  0  0  0  0  0  0  0
    5.6803   -9.8678    0.0000 O   0  0  0  0  0  0  0  0  0  0  0  0
    6.3947  -11.9303    0.0000 C   0  0  0  0  0  0  0  0  0  0  0  0
    7.1092  -12.3428    0.0000 C   0  0  0  0  0  0  0  0  0  0  0  0
    7.8237  -11.9303    0.0000 C   0  0  0  0  0  0  0  0  0  0  0  0
    7.8237  -11.1053    0.0000 C   0  0  0  0  0  0  0  0  0  0  0  0
    7.1092  -10.6928    0.0000 C   0  0  0  0  0  0  0  0  0  0  0  0
    8.5382  -10.6928    0.0000 O   0  0  0  0  0  0  0  0  0  0  0  0
    8.5382  -12.3428    0.0000 O   0  0  0  0  0  0  0  0  0  0  0  0
    7.1092  -13.1678    0.0000 O   0  0  0  0  0  0  0  0  0  0  0  0
    7.9997  -13.6819    0.0000 C   0  0  0  0  0  0  0  0  0  0  0  0
    9.4496  -11.2190    0.0000 C   0  0  0  0  0  0  0  0  0  0  0  0
 32 20  1  0  0  0  0
 18 20  1  1  0  0  0
 17  9  1  6  0  0  0
 16 10  1  1  0  0  0
 15 11  1  1  0  0  0
 14 13  1  1  0  0  0
 13 12  1  0  0  0  0
 19 14  1  0  0  0  0
 15 14  1  0  0  0  0
 16 15  1  0  0  0  0
 17 16  1  0  0  0  0
 18 17  1  0  0  0  0
 19 18  1  0  0  0  0
 33  1  1  0  0  0  0
 29 21  1  0  0  0  0
 27 22  1  0  0  0  0
 31 23  2  0  0  0  0
 33 24  1  0  0  0  0
 25 24  1  0  0  0  0
 30 25  2  0  0  0  0
 26 25  1  0  0  0  0
 27 26  2  0  0  0  0
 28 27  1  0  0  0  0
 29 28  2  0  0  0  0
 30 29  1  0  0  0  0
 31 30  1  0  0  0  0
 32 31  1  0  0  0  0
 33 32  2  0  0  0  0
  1  2  1  0  0  0  0
  2  3  2  0  0  0  0
  3  4  1  0  0  0  0
  4  5  2  0  0  0  0
  5  6  1  0  0  0  0
  1  6  2  0  0  0  0
  4  7  1  0  0  0  0
  3  8  1  0  0  0  0
 34 12  1  1  0  0  0
 34 35  1  0  0  0  0
 35 36  1  0  0  0  0
 36 37  1  0  0  0  0
 37 38  1  0  0  0  0
 38 39  1  0  0  0  0
 39 34  1  0  0  0  0
 37 40  1  1  0  0  0
 38 41  1  6  0  0  0
 39 42  1  6  0  0  0
 36 43  1  6  0  0  0
 42 44  1  0  0  0  0
 44 45  1  0  0  0  0
 44 46  2  0  0  0  0
 45 47  2  0  0  0  0
 47 48  1  0  0  0  0
 48 49  2  0  0  0  0
 49 50  1  0  0  0  0
 50 51  2  0  0  0  0
 51 45  1  0  0  0  0
 50 52  1  0  0  0  0
 49 53  1  0  0  0  0
 48 54  1  0  0  0  0
 54 55  1  0  0  0  0
 52 56  1  0  0  0  0
M  END
>  <cdx:groupId>
2549

>  <cdx:fragmentId>
2467

$$$$
