301624.cdx
  Mrv1902 05222410222D          

 14 14  0  0  0  0            999 V2000
    8.5036   -8.0822    0.0000 C   0  0  0  0  0  0  0  0  0  0  0  0
    7.7931   -7.6630    0.0000 C   0  0  2  0  0  0  0  0  0  0  0  0
    7.8009   -6.8380    0.0000 C   0  0  0  0  0  0  0  0  0  0  0  0
    7.0904   -6.4188    0.0000 C   0  0  0  0  0  0  0  0  0  0  0  0
    9.2220   -7.6765    0.0000 O   0  0  0  0  0  0  0  0  0  0  0  0
    8.4958   -8.9072    0.0000 O   0  0  0  0  0  0  0  0  0  0  0  0
    7.0982   -5.5938    0.0000 C   0  0  0  0  0  0  0  0  0  0  0  0
    6.3877   -5.1745    0.0000 C   0  0  0  0  0  0  0  0  0  0  0  0
    6.3955   -4.3496    0.0000 C   0  0  0  0  0  0  0  0  0  0  0  0
    7.1139   -3.9439    0.0000 C   0  0  0  0  0  0  0  0  0  0  0  0
    7.8244   -4.3631    0.0000 C   0  0  0  0  0  0  0  0  0  0  0  0
    7.8166   -5.1881    0.0000 C   0  0  0  0  0  0  0  0  0  0  0  0
    7.1217   -3.1189    0.0000 O   0  0  0  0  0  0  0  0  0  0  0  0
    7.0747   -8.0687    0.0000 N   0  0  0  0  0  0  0  0  0  0  0  0
  1  2  1  0  0  0  0
  2  3  1  0  0  0  0
  3  4  1  0  0  0  0
  1  5  2  0  0  0  0
  1  6  1  0  0  0  0
  7  8  1  0  0  0  0
  8  9  2  0  0  0  0
  9 10  1  0  0  0  0
 10 11  2  0  0  0  0
 11 12  1  0  0  0  0
  7 12  2  0  0  0  0
 10 13  1  0  0  0  0
  4  7  1  0  0  0  0
  2 14  1  1  0  0  0
M  END
>  <cdx:fragmentId>
829

$$$$
