301613.cdx
  Mrv1902 05222410252D          

 43 47  0  0  0  0            999 V2000
    6.4088   -8.0166    0.0000 C   0  0  0  0  0  0  0  0  0  0  0  0
    6.4088   -7.1916    0.0000 C   0  0  0  0  0  0  0  0  0  0  0  0
    5.6963   -6.7780    0.0000 C   0  0  0  0  0  0  0  0  0  0  0  0
    4.9812   -7.1893    0.0000 C   0  0  0  0  0  0  0  0  0  0  0  0
    4.9799   -8.0143    0.0000 C   0  0  0  0  0  0  0  0  0  0  0  0
    5.6937   -8.4279    0.0000 C   0  0  0  0  0  0  0  0  0  0  0  0
    4.2674   -6.7757    0.0000 O   0  0  0  0  0  0  0  0  0  0  0  0
    7.1227   -8.4302    0.0000 C   0  0  0  0  0  0  0  0  0  0  0  0
    7.8378   -8.0166    0.0000 C   0  0  0  0  0  0  0  0  0  0  0  0
    7.8378   -7.1916    0.0000 C   0  0  0  0  0  0  0  0  0  0  0  0
    7.1227   -6.7780    0.0000 C   0  0  0  0  0  0  0  0  0  0  0  0
    7.1227   -9.2563    0.0000 C   0  0  0  0  0  0  0  0  0  0  0  0
    7.8378   -9.6688    0.0000 C   0  0  0  0  0  0  0  0  0  0  0  0
    8.5529   -9.2563    0.0000 C   0  0  0  0  0  0  0  0  0  0  0  0
    8.5529   -8.4302    0.0000 C   0  0  0  0  0  0  0  0  0  0  0  0
    4.2654   -8.4268    0.0000 O   0  0  0  0  0  0  0  0  0  0  0  0
    5.6924   -9.2529    0.0000 O   0  0  0  0  0  0  0  0  0  0  0  0
    6.4083   -9.6689    0.0000 O   0  0  0  0  0  0  0  0  0  0  0  0
    7.8378  -10.4938    0.0000 O   0  0  0  0  0  0  0  0  0  0  0  0
    4.9780   -9.6654    0.0000 C   0  0  0  0  0  0  0  0  0  0  0  0
    3.5510   -8.0143    0.0000 C   0  0  0  0  0  0  0  0  0  0  0  0
    9.2640  -12.1429    0.0000 C   0  0  2  0  0  0  0  0  0  0  0  0
    9.9796  -11.7323    0.0000 C   0  0  2  0  0  0  0  0  0  0  0  0
    9.9818  -10.9073    0.0000 C   0  0  1  0  0  0  0  0  0  0  0  0
    9.2684  -10.4929    0.0000 C   0  0  2  0  0  0  0  0  0  0  0  0
    8.5529  -10.9035    0.0000 C   0  0  1  0  0  0  0  0  0  0  0  0
    8.5507  -11.7285    0.0000 O   0  0  0  0  0  0  0  0  0  0  0  0
    9.2618  -12.9679    0.0000 C   0  0  0  0  0  0  0  0  0  0  0  0
   10.6974  -10.4967    0.0000 O   0  0  0  0  0  0  0  0  0  0  0  0
    9.9752  -13.3823    0.0000 O   0  0  0  0  0  0  0  0  0  0  0  0
   10.6930  -12.1467    0.0000 O   0  0  0  0  0  0  0  0  0  0  0  0
    9.2706   -9.6679    0.0000 O   0  0  0  0  0  0  0  0  0  0  0  0
    4.9740   -4.7070    0.0000 C   0  0  2  0  0  0  0  0  0  0  0  0
    4.2605   -4.2928    0.0000 C   0  0  2  0  0  0  0  0  0  0  0  0
    3.5450   -4.7036    0.0000 C   0  0  1  0  0  0  0  0  0  0  0  0
    3.5430   -5.5286    0.0000 C   0  0  2  0  0  0  0  0  0  0  0  0
    4.2565   -5.9428    0.0000 C   0  0  1  0  0  0  0  0  0  0  0  0
    4.9720   -5.5320    0.0000 O   0  0  0  0  0  0  0  0  0  0  0  0
    5.6894   -4.2963    0.0000 C   0  0  0  0  0  0  0  0  0  0  0  0
    2.8316   -4.2893    0.0000 O   0  0  0  0  0  0  0  0  0  0  0  0
    5.6914   -3.4713    0.0000 O   0  0  0  0  0  0  0  0  0  0  0  0
    4.2625   -3.4678    0.0000 O   0  0  0  0  0  0  0  0  0  0  0  0
    2.8276   -5.9393    0.0000 O   0  0  0  0  0  0  0  0  0  0  0  0
  1  2  2  0  0  0  0
  2  3  1  0  0  0  0
  3  4  2  0  0  0  0
  4  5  1  0  0  0  0
  5  6  2  0  0  0  0
  6  1  1  0  0  0  0
  4  7  1  0  0  0  0
  1  8  1  0  0  0  0
  8  9  2  0  0  0  0
  9 10  1  0  0  0  0
 10 11  1  0  0  0  0
 11  2  1  0  0  0  0
  8 12  1  0  0  0  0
 12 13  2  0  0  0  0
 13 14  1  0  0  0  0
 14 15  2  0  0  0  0
 15  9  1  0  0  0  0
  5 16  1  0  0  0  0
  6 17  1  0  0  0  0
 12 18  1  0  0  0  0
 13 19  1  0  0  0  0
 17 20  1  0  0  0  0
 16 21  1  0  0  0  0
 22 23  1  0  0  0  0
 23 24  1  0  0  0  0
 24 25  1  0  0  0  0
 25 26  1  0  0  0  0
 26 27  1  0  0  0  0
 27 22  1  0  0  0  0
 22 28  1  1  0  0  0
 24 29  1  1  0  0  0
 28 30  1  0  0  0  0
 23 31  1  6  0  0  0
 25 32  1  6  0  0  0
 33 34  1  0  0  0  0
 34 35  1  0  0  0  0
 35 36  1  0  0  0  0
 36 37  1  0  0  0  0
 37 38  1  0  0  0  0
 38 33  1  0  0  0  0
 33 39  1  1  0  0  0
 35 40  1  1  0  0  0
 39 41  1  0  0  0  0
 34 42  1  6  0  0  0
 36 43  1  6  0  0  0
 26 19  1  1  0  0  0
 37  7  1  1  0  0  0
M  END
>  <cdx:fragmentId>
476

$$$$
