301680.cdx
  Mrv1902 05222410182D          

 17 18  0  0  0  0            999 V2000
    5.6633   -6.8491    0.0000 O   0  0  0  0  0  0  0  0  0  0  0  0
    6.3601   -8.0686    0.0000 O   0  0  0  0  0  0  0  0  0  0  0  0
    9.1867   -4.7866    0.0000 O   0  0  0  0  0  0  0  0  0  0  0  0
    8.4723   -5.1991    0.0000 C   0  0  0  0  0  0  0  0  0  0  0  0
    7.1447   -8.3235    0.0000 C   0  0  0  0  0  0  0  0  0  0  0  0
    8.4723   -8.4991    0.0000 O   0  0  0  0  0  0  0  0  0  0  0  0
    6.9732   -7.5165    0.0000 C   0  0  2  0  0  0  0  0  0  0  0  0
    6.4883   -6.8491    0.0000 C   0  0  2  0  0  0  0  0  0  0  0  0
    6.9732   -6.1817    0.0000 C   0  0  0  0  0  0  0  0  0  0  0  0
    9.1867   -7.2616    0.0000 O   0  0  0  0  0  0  0  0  0  0  0  0
    9.1867   -6.4366    0.0000 C   0  0  0  0  0  0  0  0  0  0  0  0
    8.4723   -6.0241    0.0000 C   0  0  2  0  0  0  0  0  0  0  0  0
    7.7578   -6.4366    0.0000 C   0  0  2  0  0  0  0  0  0  0  0  0
    7.7578   -7.2616    0.0000 C   0  0  2  0  0  0  0  0  0  0  0  0
    8.4723   -7.6741    0.0000 C   0  0  0  0  0  0  0  0  0  0  0  0
    7.7578   -8.0866    0.0000 H   0  0  0  0  0  0  0  0  0  0  0  0
    7.7578   -5.6116    0.0000 H   0  0  0  0  0  0  0  0  0  0  0  0
  8  1  1  1  0  0  0
  7  2  1  6  0  0  0
 12  4  1  6  0  0  0
  4  3  1  0  0  0  0
  7  5  1  1  0  0  0
 15  6  2  0  0  0  0
  9 13  1  0  0  0  0
  7 14  1  0  0  0  0
  8  7  1  0  0  0  0
  9  8  1  0  0  0  0
 15 10  1  0  0  0  0
 11 10  1  0  0  0  0
 12 11  1  0  0  0  0
 13 12  1  0  0  0  0
 14 13  1  0  0  0  0
 15 14  1  0  0  0  0
 14 16  1  1  0  0  0
 13 17  1  1  0  0  0
M  END
>  <cdx:groupId>
3924

>  <cdx:fragmentId>
3881

$$$$
