301696.cdx
  Mrv1902 05222410192D          

 58 63  0  0  0  0            999 V2000
    4.4462   -8.7492    0.0000 O   0  0  0  0  0  0  0  0  0  0  0  0
    3.2072   -9.4611    0.0000 O   0  0  0  0  0  0  0  0  0  0  0  0
    4.0321   -9.4628    0.0000 C   0  0  2  0  0  0  0  0  0  0  0  0
    4.4431  -10.1782    0.0000 C   0  0  1  0  0  0  0  0  0  0  0  0
    4.0291  -10.8918    0.0000 C   0  0  2  0  0  0  0  0  0  0  0  0
    3.2041  -10.8900    0.0000 C   0  0  1  0  0  0  0  0  0  0  0  0
    2.7931  -10.1747    0.0000 C   0  0  1  0  0  0  0  0  0  0  0  0
    1.9681  -10.1730    0.0000 C   0  0  0  0  0  0  0  0  0  0  0  0
    1.5541  -10.8866    0.0000 O   0  0  0  0  0  0  0  0  0  0  0  0
    2.7901  -11.6036    0.0000 O   0  0  0  0  0  0  0  0  0  0  0  0
    4.4401  -11.6071    0.0000 O   0  0  0  0  0  0  0  0  0  0  0  0
    5.2681  -10.1799    0.0000 O   0  0  0  0  0  0  0  0  0  0  0  0
   10.8796   -7.5154    0.0000 C   0  0  0  0  0  0  0  0  0  0  0  0
   10.8799   -8.3404    0.0000 C   0  0  0  0  0  0  0  0  0  0  0  0
   10.1656   -8.7532    0.0000 C   0  0  0  0  0  0  0  0  0  0  0  0
    9.4510   -8.3410    0.0000 C   0  0  0  0  0  0  0  0  0  0  0  0
    8.7367   -8.7538    0.0000 C   0  0  0  0  0  0  0  0  0  0  0  0
    8.0220   -8.3416    0.0000 C   0  0  0  0  0  0  0  0  0  0  0  0
    8.0217   -7.5166    0.0000 C   0  0  0  0  0  0  0  0  0  0  0  0
    8.7360   -7.1038    0.0000 C   0  0  0  0  0  0  0  0  0  0  0  0
    9.4506   -7.5160    0.0000 C   0  0  0  0  0  0  0  0  0  0  0  0
   10.1649   -7.1032    0.0000 O   0  0  0  0  0  0  0  0  0  0  0  0
   10.1660   -9.5782    0.0000 O   0  0  0  0  0  0  0  0  0  0  0  0
    8.7370   -9.5788    0.0000 O   0  0  0  0  0  0  0  0  0  0  0  0
   11.5939   -7.1026    0.0000 C   0  0  0  0  0  0  0  0  0  0  0  0
   12.3085   -7.5148    0.0000 C   0  0  0  0  0  0  0  0  0  0  0  0
   13.0228   -7.1019    0.0000 C   0  0  0  0  0  0  0  0  0  0  0  0
   13.0224   -6.2769    0.0000 C   0  0  0  0  0  0  0  0  0  0  0  0
   12.3078   -5.8648    0.0000 C   0  0  0  0  0  0  0  0  0  0  0  0
   11.5935   -6.2776    0.0000 C   0  0  0  0  0  0  0  0  0  0  0  0
   13.7367   -5.8641    0.0000 O   0  0  0  0  0  0  0  0  0  0  0  0
   13.7374   -7.5141    0.0000 O   0  0  0  0  0  0  0  0  0  0  0  0
    8.5949  -10.0015    0.0000 O   0  0  0  0  0  0  0  0  0  0  0  0
    8.1202  -11.3233    0.0000 O   0  0  0  0  0  0  0  0  0  0  0  0
    8.0913  -12.1478    0.0000 O   0  0  0  0  0  0  0  0  0  0  0  0
    7.3917  -11.7105    0.0000 C   0  0  0  0  0  0  0  0  0  0  0  0
    6.6037  -10.7711    0.0000 C   0  0  0  0  0  0  0  0  0  0  0  0
    7.4206  -10.8860    0.0000 C   0  0  2  0  0  0  0  0  0  0  0  0
    7.7824  -10.1446    0.0000 C   0  0  2  0  0  0  0  0  0  0  0  0
    7.1891   -9.5714    0.0000 C   0  0  1  0  0  0  0  0  0  0  0  0
    6.4606   -9.9586    0.0000 O   0  0  0  0  0  0  0  0  0  0  0  0
    7.3040   -8.7544    0.0000 O   0  0  0  0  0  0  0  0  0  0  0  0
    7.3070   -7.1044    0.0000 O   0  0  0  0  0  0  0  0  0  0  0  0
    5.8736   -9.5768    0.0000 O   0  0  0  0  0  0  0  0  0  0  0  0
    6.5918   -7.5156    0.0000 C   0  0  1  0  0  0  0  0  0  0  0  0
    6.5903   -8.3406    0.0000 C   0  0  1  0  0  0  0  0  0  0  0  0
    5.8751   -8.7518    0.0000 C   0  0  2  0  0  0  0  0  0  0  0  0
    5.1614   -8.3380    0.0000 C   0  0  1  0  0  0  0  0  0  0  0  0
    5.1629   -7.5130    0.0000 C   0  0  2  0  0  0  0  0  0  0  0  0
    5.8781   -7.1018    0.0000 O   0  0  0  0  0  0  0  0  0  0  0  0
    4.4491   -7.0992    0.0000 C   0  0  0  0  0  0  0  0  0  0  0  0
    3.7339   -7.5105    0.0000 O   0  0  0  0  0  0  0  0  0  0  0  0
    3.0217   -6.2717    0.0000 O   0  0  0  0  0  0  0  0  0  0  0  0
    0.8761   -7.5053    0.0000 O   0  0  0  0  0  0  0  0  0  0  0  0
    1.5928   -6.2691    0.0000 O   0  0  0  0  0  0  0  0  0  0  0  0
    3.0202   -7.0967    0.0000 C   0  0  0  0  0  0  0  0  0  0  0  0
    2.3050   -7.5079    0.0000 C   0  0  0  0  0  0  0  0  0  0  0  0
    1.5913   -7.0941    0.0000 C   0  0  0  0  0  0  0  0  0  0  0  0
 56 52  1  0  0  0  0
 49 51  1  1  0  0  0
 46 42  1  6  0  0  0
 40 42  1  1  0  0  0
 39 33  1  6  0  0  0
 38 34  1  6  0  0  0
 38 36  1  1  0  0  0
 36 35  1  0  0  0  0
 41 37  1  0  0  0  0
 38 37  1  0  0  0  0
 39 38  1  0  0  0  0
 40 39  1  0  0  0  0
 41 40  1  0  0  0  0
 45 43  1  1  0  0  0
 47 44  1  1  0  0  0
 48  1  1  6  0  0  0
 50 45  1  0  0  0  0
 46 45  1  0  0  0  0
 47 46  1  0  0  0  0
 48 47  1  0  0  0  0
 49 48  1  0  0  0  0
 50 49  1  0  0  0  0
 52 51  1  0  0  0  0
 56 53  2  0  0  0  0
 58 54  1  0  0  0  0
 58 55  2  0  0  0  0
 57 56  1  0  0  0  0
 58 57  1  0  0  0  0
  2  3  1  0  0  0  0
  3  4  1  0  0  0  0
  4  5  1  0  0  0  0
  5  6  1  0  0  0  0
  6  7  1  0  0  0  0
  2  7  1  0  0  0  0
  8  9  1  0  0  0  0
  7  8  1  1  0  0  0
  6 10  1  6  0  0  0
  5 11  1  1  0  0  0
  4 12  1  6  0  0  0
  3  1  1  1  0  0  0
 13 14  2  0  0  0  0
 14 15  1  0  0  0  0
 15 16  1  0  0  0  0
 16 17  1  0  0  0  0
 17 18  2  0  0  0  0
 18 19  1  0  0  0  0
 19 20  2  0  0  0  0
 20 21  1  0  0  0  0
 16 21  2  0  0  0  0
 21 22  1  0  0  0  0
 13 22  1  0  0  0  0
 15 23  2  0  0  0  0
 17 24  1  0  0  0  0
 25 26  1  0  0  0  0
 26 27  2  0  0  0  0
 27 28  1  0  0  0  0
 28 29  2  0  0  0  0
 29 30  1  0  0  0  0
 25 30  2  0  0  0  0
 28 31  1  0  0  0  0
 27 32  1  0  0  0  0
 13 25  1  0  0  0  0
 43 19  1  0  0  0  0
M  END
>  <cdx:fragmentId>
310

$$$$
