301664.cdx
  Mrv1902 05222410272D          

 11 12  0  0  0  0            999 V2000
    7.1775   -7.0675    0.0000 H   0  0  0  0  0  0  0  0  0  0  0  0
    6.7514   -4.5521    0.0000 H   0  0  0  0  0  0  0  0  0  0  0  0
    8.1950   -7.5350    0.0000 O   0  0  0  0  0  0  0  0  0  0  0  0
    7.6175   -4.2625    0.0000 O   0  0  0  0  0  0  0  0  0  0  0  0
    5.8850   -5.5825    0.0000 C   0  0  0  0  0  0  0  0  0  0  0  0
    6.1050   -6.4625    0.0000 O   0  0  0  0  0  0  0  0  0  0  0  0
    7.1775   -6.2425    0.0000 C   0  0  1  0  0  0  0  0  0  0  0  0
    8.1950   -6.7100    0.0000 C   0  0  0  0  0  0  0  0  0  0  0  0
    8.7725   -6.0500    0.0000 C   0  0  0  0  0  0  0  0  0  0  0  0
    8.4150   -5.4450    0.0000 C   0  0  0  0  0  0  0  0  0  0  0  0
    7.0068   -5.3366    0.0000 C   0  0  2  0  0  0  0  0  0  0  0  0
  7  1  1  1  0  0  0
 11  2  1  6  0  0  0
  8  3  2  0  0  0  0
  7  4  1  0  0  0  0
 11  4  1  0  0  0  0
 11  5  1  0  0  0  0
  6  5  1  0  0  0  0
  7  6  1  0  0  0  0
  8  7  1  0  0  0  0
  9  8  1  0  0  0  0
 10  9  2  0  0  0  0
 11 10  1  0  0  0  0
M  END
>  <cdx:fragmentId>
2862

$$$$
