301650.cdx
  Mrv1902 05222410192D          

 68 75  0  0  0  0            999 V2000
    3.1725   -5.5122    0.0000 O   0  0  0  0  0  0  0  0  0  0  0  0
    3.8870   -5.9247    0.0000 C   0  0  2  0  0  0  0  0  0  0  0  0
    4.6015   -5.5122    0.0000 C   0  0  1  0  0  0  0  0  0  0  0  0
    4.6015   -4.6872    0.0000 C   0  0  1  0  0  0  0  0  0  0  0  0
    3.8870   -4.2747    0.0000 C   0  0  2  0  0  0  0  0  0  0  0  0
    3.1725   -4.6872    0.0000 C   0  0  2  0  0  0  0  0  0  0  0  0
    5.3160   -5.9247    0.0000 O   0  0  0  0  0  0  0  0  0  0  0  0
    5.3160   -4.2747    0.0000 O   0  0  0  0  0  0  0  0  0  0  0  0
    3.8870   -3.4497    0.0000 O   0  0  0  0  0  0  0  0  0  0  0  0
    2.4581   -4.2747    0.0000 C   0  0  0  0  0  0  0  0  0  0  0  0
    3.8870   -6.7497    0.0000 O   0  0  0  0  0  0  0  0  0  0  0  0
    2.4581   -8.3997    0.0000 O   0  0  0  0  0  0  0  0  0  0  0  0
    3.1725   -7.9872    0.0000 C   0  0  2  0  0  0  0  0  0  0  0  0
    3.1725   -7.1622    0.0000 C   0  0  1  0  0  0  0  0  0  0  0  0
    2.4581   -6.7497    0.0000 C   0  0  2  0  0  0  0  0  0  0  0  0
    1.7436   -7.1622    0.0000 C   0  0  1  0  0  0  0  0  0  0  0  0
    1.7436   -7.9872    0.0000 C   0  0  1  0  0  0  0  0  0  0  0  0
    1.0291   -8.3997    0.0000 C   0  0  0  0  0  0  0  0  0  0  0  0
    0.3147   -7.9872    0.0000 O   0  0  0  0  0  0  0  0  0  0  0  0
    1.0291   -6.7497    0.0000 O   0  0  0  0  0  0  0  0  0  0  0  0
    2.4581   -5.9247    0.0000 O   0  0  0  0  0  0  0  0  0  0  0  0
    3.8870   -8.3997    0.0000 O   0  0  0  0  0  0  0  0  0  0  0  0
    5.3160   -6.7497    0.0000 C   0  0  0  0  0  0  0  0  0  0  0  0
    4.6015   -7.1622    0.0000 C   0  0  0  0  0  0  0  0  0  0  0  0
    4.6015   -7.9872    0.0000 C   0  0  1  0  0  0  0  0  0  0  0  0
    5.3160   -8.3997    0.0000 C   0  0  0  0  0  0  0  0  0  0  0  0
    6.0304   -7.9872    0.0000 C   0  0  2  0  0  0  0  0  0  0  0  0
    6.7449   -8.3997    0.0000 C   0  0  0  0  0  0  0  0  0  0  0  0
    7.4594   -7.9872    0.0000 C   0  0  0  0  0  0  0  0  0  0  0  0
    7.4594   -7.1622    0.0000 C   0  0  1  0  0  0  0  0  0  0  0  0
    8.1738   -6.7497    0.0000 C   0  0  2  0  0  0  0  0  0  0  0  0
    8.8883   -7.1622    0.0000 C   0  0  0  0  0  0  0  0  0  0  0  0
    9.6028   -6.7497    0.0000 C   0  0  0  0  0  0  0  0  0  0  0  0
    9.6028   -5.9247    0.0000 C   0  0  1  0  0  0  0  0  0  0  0  0
   10.3173   -5.5122    0.0000 C   0  0  0  0  0  0  0  0  0  0  0  0
   10.3173   -4.6872    0.0000 C   0  0  2  0  0  0  0  0  0  0  0  0
    9.6028   -4.2747    0.0000 C   0  0  2  0  0  0  0  0  0  0  0  0
    8.8883   -4.6872    0.0000 C   0  0  1  0  0  0  0  0  0  0  0  0
    8.8883   -5.5122    0.0000 C   0  0  1  0  0  0  0  0  0  0  0  0
    8.1738   -5.9247    0.0000 C   0  0  0  0  0  0  0  0  0  0  0  0
    7.4594   -5.5122    0.0000 C   0  0  0  0  0  0  0  0  0  0  0  0
    6.7449   -5.9247    0.0000 C   0  0  0  0  0  0  0  0  0  0  0  0
    6.7449   -6.7497    0.0000 C   0  0  2  0  0  0  0  0  0  0  0  0
    6.0304   -7.1622    0.0000 C   0  0  1  0  0  0  0  0  0  0  0  0
   11.0317   -4.2747    0.0000 O   0  0  0  0  0  0  0  0  0  0  0  0
   12.4607   -4.2747    0.0000 O   0  0  0  0  0  0  0  0  0  0  0  0
   11.7462   -4.6872    0.0000 C   0  0  2  0  0  0  0  0  0  0  0  0
   11.7462   -5.5122    0.0000 C   0  0  1  0  0  0  0  0  0  0  0  0
   12.4607   -5.9247    0.0000 C   0  0  2  0  0  0  0  0  0  0  0  0
   13.1751   -5.5122    0.0000 C   0  0  1  0  0  0  0  0  0  0  0  0
   13.1751   -4.6872    0.0000 C   0  0  1  0  0  0  0  0  0  0  0  0
   13.8896   -4.2747    0.0000 C   0  0  0  0  0  0  0  0  0  0  0  0
   14.6041   -4.6872    0.0000 O   0  0  0  0  0  0  0  0  0  0  0  0
   13.8896   -5.9247    0.0000 O   0  0  0  0  0  0  0  0  0  0  0  0
   12.4607   -6.7497    0.0000 O   0  0  0  0  0  0  0  0  0  0  0  0
   11.0317   -5.9247    0.0000 O   0  0  0  0  0  0  0  0  0  0  0  0
    6.0304   -6.3372    0.0000 C   0  0  0  0  0  0  0  0  0  0  0  0
    8.1738   -4.2747    0.0000 C   0  0  0  0  0  0  0  0  0  0  0  0
    9.6028   -3.4497    0.0000 C   0  0  0  0  0  0  0  0  0  0  0  0
    8.1738   -7.5747    0.0000 C   0  0  0  0  0  0  0  0  0  0  0  0
    7.4594   -6.3372    0.0000 C   0  0  0  0  0  0  0  0  0  0  0  0
    5.7285   -9.1142    0.0000 C   0  0  0  0  0  0  0  0  0  0  0  0
    4.9035   -9.1142    0.0000 C   0  0  0  0  0  0  0  0  0  0  0  0
   10.3173   -6.3372    0.0000 C   0  0  0  0  0  0  0  0  0  0  0  0
   10.3173   -7.1622    0.0000 O   0  0  0  0  0  0  0  0  0  0  0  0
    6.0304   -8.8122    0.0000 H   0  0  0  0  0  0  0  0  0  0  0  0
    8.8883   -6.3372    0.0000 H   0  0  0  0  0  0  0  0  0  0  0  0
    6.7449   -7.5747    0.0000 H   0  0  0  0  0  0  0  0  0  0  0  0
  1  2  1  0  0  0  0
  2  3  1  0  0  0  0
  3  4  1  0  0  0  0
  4  5  1  0  0  0  0
  5  6  1  0  0  0  0
  1  6  1  0  0  0  0
  3  7  1  1  0  0  0
  4  8  1  1  0  0  0
  5  9  1  6  0  0  0
  6 10  1  1  0  0  0
 12 13  1  0  0  0  0
 13 14  1  0  0  0  0
 14 15  1  0  0  0  0
 15 16  1  0  0  0  0
 16 17  1  0  0  0  0
 12 17  1  0  0  0  0
 18 19  1  0  0  0  0
 17 18  1  6  0  0  0
 16 20  1  1  0  0  0
 15 21  1  6  0  0  0
 23 24  1  0  0  0  0
 24 25  1  0  0  0  0
 25 26  1  0  0  0  0
 26 27  1  0  0  0  0
 27 28  1  0  0  0  0
 28 29  1  0  0  0  0
 29 30  1  0  0  0  0
 30 31  1  0  0  0  0
 31 32  1  0  0  0  0
 32 33  1  0  0  0  0
 33 34  1  0  0  0  0
 34 35  1  0  0  0  0
 35 36  1  0  0  0  0
 36 37  1  0  0  0  0
 37 38  1  0  0  0  0
 38 39  1  0  0  0  0
 34 39  1  0  0  0  0
 39 40  1  0  0  0  0
 31 40  1  0  0  0  0
 40 41  2  0  0  0  0
 41 42  1  0  0  0  0
 42 43  1  0  0  0  0
 30 43  1  0  0  0  0
 43 44  1  0  0  0  0
 27 44  1  0  0  0  0
 23 44  1  0  0  0  0
 46 47  1  0  0  0  0
 47 48  1  0  0  0  0
 48 49  1  0  0  0  0
 49 50  1  0  0  0  0
 50 51  1  0  0  0  0
 46 51  1  0  0  0  0
 52 53  1  0  0  0  0
 51 52  1  6  0  0  0
 50 54  1  1  0  0  0
 49 55  1  6  0  0  0
 48 56  1  1  0  0  0
 47 45  1  6  0  0  0
 36 45  1  6  0  0  0
 44 57  1  1  0  0  0
 38 58  1  1  0  0  0
 37 59  1  6  0  0  0
 31 60  1  6  0  0  0
 30 61  1  1  0  0  0
 26 62  1  0  0  0  0
 26 63  1  0  0  0  0
 64 65  1  0  0  0  0
 34 64  1  1  0  0  0
 25 22  1  1  0  0  0
 13 22  1  6  0  0  0
 14 11  1  1  0  0  0
  2 11  1  6  0  0  0
 27 66  1  6  0  0  0
 39 67  1  1  0  0  0
 43 68  1  6  0  0  0
M  END
>  <cdx:groupId>
1212

>  <cdx:fragmentId>
1048

$$$$
