301691.cdx
  Mrv1902 05222410202D          

 30 31  0  0  0  0            999 V2000
    6.4635   -7.0884    0.0000 O   0  0  0  0  0  0  0  0  0  0  0  0
    5.9785   -6.4210    0.0000 C   0  0  0  0  0  0  0  0  0  0  0  0
    6.4635   -5.7535    0.0000 C   0  0  0  0  0  0  0  0  0  0  0  0
    7.2481   -6.0085    0.0000 C   0  0  0  0  0  0  0  0  0  0  0  0
    7.9626   -5.5960    0.0000 C   0  0  0  0  0  0  0  0  0  0  0  0
    8.6770   -6.0085    0.0000 C   0  0  0  0  0  0  0  0  0  0  0  0
    8.6770   -6.8335    0.0000 C   0  0  0  0  0  0  0  0  0  0  0  0
    7.9626   -7.2460    0.0000 C   0  0  0  0  0  0  0  0  0  0  0  0
    7.2481   -6.8335    0.0000 C   0  0  0  0  0  0  0  0  0  0  0  0
    7.9626   -4.7710    0.0000 O   0  0  0  0  0  0  0  0  0  0  0  0
    9.3915   -5.5960    0.0000 C   0  0  0  0  0  0  0  0  0  0  0  0
   10.1060   -6.0085    0.0000 C   0  0  0  0  0  0  0  0  0  0  0  0
   10.1060   -6.8335    0.0000 C   0  0  0  0  0  0  0  0  0  0  0  0
    9.3915   -4.7710    0.0000 O   0  0  0  0  0  0  0  0  0  0  0  0
   10.8204   -5.5960    0.0000 C   0  0  0  0  0  0  0  0  0  0  0  0
    7.9626   -8.0710    0.0000 C   0  0  0  0  0  0  0  0  0  0  0  0
    8.6770   -8.4835    0.0000 C   0  0  0  0  0  0  0  0  0  0  0  0
    8.6770   -9.3085    0.0000 C   0  0  0  0  0  0  0  0  0  0  0  0
    7.9626   -9.7210    0.0000 C   0  0  0  0  0  0  0  0  0  0  0  0
    9.3915   -9.7210    0.0000 C   0  0  0  0  0  0  0  0  0  0  0  0
    7.1618   -5.1880    0.0000 C   0  0  0  0  0  0  0  0  0  0  0  0
    6.4082   -4.8524    0.0000 C   0  0  0  0  0  0  0  0  0  0  0  0
    6.3219   -4.0319    0.0000 C   0  0  0  0  0  0  0  0  0  0  0  0
    6.9894   -3.5470    0.0000 C   0  0  0  0  0  0  0  0  0  0  0  0
    5.5683   -3.6964    0.0000 C   0  0  0  0  0  0  0  0  0  0  0  0
    4.7410   -5.7065    0.0000 C   0  0  0  0  0  0  0  0  0  0  0  0
    5.1535   -6.4210    0.0000 C   0  0  0  0  0  0  0  0  0  0  0  0
    4.7410   -7.1354    0.0000 C   0  0  0  0  0  0  0  0  0  0  0  0
    4.3285   -6.4210    0.0000 O   0  0  0  0  0  0  0  0  0  0  0  0
    9.3915   -7.2460    0.0000 O   0  0  0  0  0  0  0  0  0  0  0  0
  1  2  1  0  0  0  0
  2  3  1  0  0  0  0
  3  4  1  0  0  0  0
  4  5  1  0  0  0  0
  5  6  1  0  0  0  0
  6  7  2  0  0  0  0
  7  8  1  0  0  0  0
  8  9  2  0  0  0  0
  4  9  1  0  0  0  0
  1  9  1  0  0  0  0
  5 10  2  0  0  0  0
 11 12  1  0  0  0  0
 12 13  1  0  0  0  0
 11 14  2  0  0  0  0
 12 15  1  0  0  0  0
  6 11  1  0  0  0  0
 16 17  1  0  0  0  0
 17 18  2  0  0  0  0
 18 19  1  0  0  0  0
 18 20  1  0  0  0  0
  8 16  1  0  0  0  0
 21 22  1  0  0  0  0
 22 23  2  0  0  0  0
 23 24  1  0  0  0  0
 23 25  1  0  0  0  0
  4 21  1  0  0  0  0
 26 27  1  0  0  0  0
 27 28  1  0  0  0  0
 27 29  1  0  0  0  0
  2 27  1  0  0  0  0
  7 30  1  0  0  0  0
M  END
>  <cdx:groupId>
4768

>  <cdx:fragmentId>
4680

$$$$
