301603.cdx
  Mrv1902 05222410242D          

 36 39  0  0  0  0            999 V2000
    6.3533   -6.6344    0.0000 C   0  0  0  0  0  0  0  0  0  0  0  0
    7.0678   -7.0469    0.0000 C   0  0  0  0  0  0  0  0  0  0  0  0
    7.0678   -7.8719    0.0000 C   0  0  0  0  0  0  0  0  0  0  0  0
    6.3533   -8.2844    0.0000 C   0  0  0  0  0  0  0  0  0  0  0  0
    5.6388   -7.8719    0.0000 C   0  0  0  0  0  0  0  0  0  0  0  0
    5.6388   -7.0469    0.0000 O   0  0  0  0  0  0  0  0  0  0  0  0
    6.3533   -5.8094    0.0000 O   0  0  0  0  0  0  0  0  0  0  0  0
    4.9244   -8.2844    0.0000 C   0  0  0  0  0  0  0  0  0  0  0  0
    4.2099   -7.8719    0.0000 C   0  0  0  0  0  0  0  0  0  0  0  0
    3.4954   -8.2844    0.0000 C   0  0  0  0  0  0  0  0  0  0  0  0
    3.4954   -9.1094    0.0000 C   0  0  0  0  0  0  0  0  0  0  0  0
    2.7809   -9.5219    0.0000 C   0  0  0  0  0  0  0  0  0  0  0  0
    2.0665   -9.1094    0.0000 C   0  0  0  0  0  0  0  0  0  0  0  0
    2.0665   -8.2844    0.0000 C   0  0  0  0  0  0  0  0  0  0  0  0
    2.7809   -7.8719    0.0000 C   0  0  0  0  0  0  0  0  0  0  0  0
    7.0678   -5.3969    0.0000 C   0  0  0  0  0  0  0  0  0  0  0  0
    7.7822   -5.8094    0.0000 C   0  0  0  0  0  0  0  0  0  0  0  0
    7.7822   -6.6344    0.0000 C   0  0  0  0  0  0  0  0  0  0  0  0
    8.4967   -7.0469    0.0000 C   0  0  0  0  0  0  0  0  0  0  0  0
    9.2112   -6.6344    0.0000 C   0  0  0  0  0  0  0  0  0  0  0  0
    9.9256   -7.0469    0.0000 C   0  0  0  0  0  0  0  0  0  0  0  0
   10.6401   -6.6344    0.0000 C   0  0  0  0  0  0  0  0  0  0  0  0
   11.3546   -7.0469    0.0000 C   0  0  0  0  0  0  0  0  0  0  0  0
   12.0691   -6.6344    0.0000 C   0  0  0  0  0  0  0  0  0  0  0  0
   12.7835   -7.0469    0.0000 C   0  0  0  0  0  0  0  0  0  0  0  0
   12.7835   -7.8719    0.0000 C   0  0  0  0  0  0  0  0  0  0  0  0
   12.0691   -8.2844    0.0000 C   0  0  0  0  0  0  0  0  0  0  0  0
   11.3546   -7.8719    0.0000 C   0  0  0  0  0  0  0  0  0  0  0  0
    7.0678   -4.5719    0.0000 C   0  0  0  0  0  0  0  0  0  0  0  0
    6.3533   -4.1594    0.0000 C   0  0  0  0  0  0  0  0  0  0  0  0
    6.3533   -3.3344    0.0000 C   0  0  0  0  0  0  0  0  0  0  0  0
    7.0678   -2.9219    0.0000 C   0  0  0  0  0  0  0  0  0  0  0  0
    7.7822   -3.3344    0.0000 C   0  0  0  0  0  0  0  0  0  0  0  0
    7.7822   -4.1594    0.0000 C   0  0  0  0  0  0  0  0  0  0  0  0
    9.2112   -5.8094    0.0000 O   0  0  0  0  0  0  0  0  0  0  0  0
    7.7822   -8.2844    0.0000 O   0  0  0  0  0  0  0  0  0  0  0  0
  1  2  1  0  0  0  0
  2  3  2  0  0  0  0
  3  4  1  0  0  0  0
  4  5  2  0  0  0  0
  5  6  1  0  0  0  0
  1  6  1  0  0  0  0
  1  7  2  0  0  0  0
  8  9  2  0  0  0  0
 10 11  1  0  0  0  0
 11 12  2  0  0  0  0
 12 13  1  0  0  0  0
 13 14  2  0  0  0  0
 14 15  1  0  0  0  0
 10 15  2  0  0  0  0
  9 10  1  0  0  0  0
  5  8  1  0  0  0  0
 16 17  2  0  0  0  0
 17 18  1  0  0  0  0
 18 19  1  0  0  0  0
 19 20  1  0  0  0  0
 20 21  1  0  0  0  0
 21 22  1  0  0  0  0
 23 24  1  0  0  0  0
 24 25  2  0  0  0  0
 25 26  1  0  0  0  0
 26 27  2  0  0  0  0
 27 28  1  0  0  0  0
 23 28  2  0  0  0  0
 22 23  1  0  0  0  0
 29 30  1  0  0  0  0
 30 31  2  0  0  0  0
 31 32  1  0  0  0  0
 32 33  2  0  0  0  0
 33 34  1  0  0  0  0
 29 34  2  0  0  0  0
 16 29  1  0  0  0  0
 20 35  2  0  0  0  0
  2 18  1  0  0  0  0
  3 36  1  0  0  0  0
M  END
>  <cdx:fragmentId>
4641

$$$$
