30168.cdx
  Mrv1902 05222410202D          

 14 13  0  0  0  0            999 V2000
   11.3772   -8.5789    0.0000 C   0  0  0  0  0  0  0  0  0  0  0  0
   10.6628   -8.9914    0.0000 C   0  0  0  0  0  0  0  0  0  0  0  0
    9.9483   -8.5789    0.0000 C   0  0  0  0  0  0  0  0  0  0  0  0
    9.2338   -8.9914    0.0000 C   0  0  0  0  0  0  0  0  0  0  0  0
    8.5194   -8.5789    0.0000 C   0  0  0  0  0  0  0  0  0  0  0  0
    7.8049   -8.9914    0.0000 C   0  0  0  0  0  0  0  0  0  0  0  0
    7.0904   -8.5789    0.0000 C   0  0  0  0  0  0  0  0  0  0  0  0
    7.8049   -9.8164    0.0000 C   0  0  0  0  0  0  0  0  0  0  0  0
   10.6628   -9.8164    0.0000 C   0  0  0  0  0  0  0  0  0  0  0  0
    7.0904   -7.7539    0.0000 C   0  0  0  0  0  0  0  0  0  0  0  0
    6.3759   -7.3414    0.0000 C   0  0  0  0  0  0  0  0  0  0  0  0
    6.3759   -6.5164    0.0000 C   0  0  0  0  0  0  0  0  0  0  0  0
    5.6615   -6.1039    0.0000 C   0  0  0  0  0  0  0  0  0  0  0  0
    7.0904   -6.1039    0.0000 O   0  0  0  0  0  0  0  0  0  0  0  0
  2  1  1  0  0  0  0
  3  2  2  0  0  0  0
  4  3  1  0  0  0  0
  5  4  1  0  0  0  0
  6  5  1  0  0  0  0
  7  6  2  0  0  0  0
  6  8  1  0  0  0  0
  2  9  1  0  0  0  0
  7 10  1  0  0  0  0
 10 11  2  0  0  0  0
 11 12  1  0  0  0  0
 12 13  1  0  0  0  0
 12 14  2  0  0  0  0
M  END
>  <cdx:fragmentId>
3

$$$$
