301637.cdx
  Mrv1902 05222410212D          

142157  0  0  0  0            999 V2000
   20.7627   -8.9411    0.0000 C   0  0  0  0  0  0  0  0  0  0  0  0
   21.4706   -9.3647    0.0000 C   0  0  0  0  0  0  0  0  0  0  0  0
   22.1914   -8.9634    0.0000 C   0  0  0  0  0  0  0  0  0  0  0  0
   22.8994   -9.3870    0.0000 C   0  0  0  0  0  0  0  0  0  0  0  0
   22.8865  -10.2119    0.0000 C   0  0  0  0  0  0  0  0  0  0  0  0
   22.1657  -10.6132    0.0000 C   0  0  0  0  0  0  0  0  0  0  0  0
   21.4578  -10.1896    0.0000 C   0  0  0  0  0  0  0  0  0  0  0  0
   20.7755   -8.1162    0.0000 O   0  0  0  0  0  0  0  0  0  0  0  0
   20.0418   -9.3424    0.0000 O   0  0  0  0  0  0  0  0  0  0  0  0
   22.1528  -11.4381    0.0000 O   0  0  0  0  0  0  0  0  0  0  0  0
   23.5945  -10.6355    0.0000 O   0  0  0  0  0  0  0  0  0  0  0  0
   23.6202   -8.9857    0.0000 O   0  0  0  0  0  0  0  0  0  0  0  0
   17.9180   -8.0716    0.0000 C   0  0  1  0  0  0  0  0  0  0  0  0
   17.9051   -8.8965    0.0000 C   0  0  2  0  0  0  0  0  0  0  0  0
   17.2835   -9.4389    0.0000 O   0  0  0  0  0  0  0  0  0  0  0  0
   17.6073  -10.1977    0.0000 C   0  0  0  0  0  0  0  0  0  0  0  0
   17.1523  -10.8860    0.0000 C   0  0  0  0  0  0  0  0  0  0  0  0
   16.3455  -10.7139    0.0000 C   0  0  0  0  0  0  0  0  0  0  0  0
   15.7931  -11.3267    0.0000 C   0  0  0  0  0  0  0  0  0  0  0  0
   16.0475  -12.1115    0.0000 C   0  0  0  0  0  0  0  0  0  0  0  0
   16.8544  -12.2835    0.0000 C   0  0  0  0  0  0  0  0  0  0  0  0
   17.4068  -11.6708    0.0000 C   0  0  0  0  0  0  0  0  0  0  0  0
   18.1790  -11.9611    0.0000 C   0  0  0  0  0  0  0  0  0  0  0  0
   18.1908  -12.7861    0.0000 C   0  0  0  0  0  0  0  0  0  0  0  0
   18.9111  -13.1883    0.0000 C   0  0  0  0  0  0  0  0  0  0  0  0
   19.6196  -12.7656    0.0000 C   0  0  0  0  0  0  0  0  0  0  0  0
   19.6078  -11.9407    0.0000 C   0  0  0  0  0  0  0  0  0  0  0  0
   18.8875  -11.5384    0.0000 C   0  0  0  0  0  0  0  0  0  0  0  0
   18.9987  -10.7210    0.0000 C   0  0  0  0  0  0  0  0  0  0  0  0
   18.4290  -10.1243    0.0000 O   0  0  0  0  0  0  0  0  0  0  0  0
   18.6131   -9.3201    0.0000 C   0  0  1  0  0  0  0  0  0  0  0  0
   19.3339   -8.9188    0.0000 C   0  0  1  0  0  0  0  0  0  0  0  0
   19.3468   -8.0939    0.0000 O   0  0  0  0  0  0  0  0  0  0  0  0
   18.6388   -7.6703    0.0000 C   0  0  2  0  0  0  0  0  0  0  0  0
   18.4799   -6.8608    0.0000 C   0  0  0  0  0  0  0  0  0  0  0  0
   17.6609   -6.7617    0.0000 O   0  0  0  0  0  0  0  0  0  0  0  0
   17.3772   -5.9870    0.0000 C   0  0  0  0  0  0  0  0  0  0  0  0
   16.6289   -5.6398    0.0000 C   0  0  0  0  0  0  0  0  0  0  0  0
   16.7706   -4.8270    0.0000 C   0  0  0  0  0  0  0  0  0  0  0  0
   16.1377   -4.2979    0.0000 C   0  0  0  0  0  0  0  0  0  0  0  0
   15.3630   -4.5815    0.0000 C   0  0  0  0  0  0  0  0  0  0  0  0
   15.2212   -5.3942    0.0000 C   0  0  0  0  0  0  0  0  0  0  0  0
   15.8542   -5.9234    0.0000 C   0  0  0  0  0  0  0  0  0  0  0  0
   15.5069   -6.6717    0.0000 C   0  0  0  0  0  0  0  0  0  0  0  0
   14.6942   -6.5300    0.0000 C   0  0  0  0  0  0  0  0  0  0  0  0
   14.1650   -7.1629    0.0000 C   0  0  0  0  0  0  0  0  0  0  0  0
   14.4487   -7.9377    0.0000 C   0  0  0  0  0  0  0  0  0  0  0  0
   15.2614   -8.0794    0.0000 C   0  0  0  0  0  0  0  0  0  0  0  0
   15.7905   -7.4464    0.0000 C   0  0  0  0  0  0  0  0  0  0  0  0
   16.5389   -7.7937    0.0000 C   0  0  0  0  0  0  0  0  0  0  0  0
   17.3136   -7.5101    0.0000 O   0  0  0  0  0  0  0  0  0  0  0  0
   16.5044   -8.6180    0.0000 O   0  0  0  0  0  0  0  0  0  0  0  0
   17.9845   -5.4285    0.0000 O   0  0  0  0  0  0  0  0  0  0  0  0
   19.7835  -10.4665    0.0000 O   0  0  0  0  0  0  0  0  0  0  0  0
   16.7856  -10.1233    0.0000 O   0  0  0  0  0  0  0  0  0  0  0  0
   13.9195   -8.5706    0.0000 O   0  0  0  0  0  0  0  0  0  0  0  0
   13.3523   -7.0212    0.0000 O   0  0  0  0  0  0  0  0  0  0  0  0
   14.1627   -5.8990    0.0000 O   0  0  0  0  0  0  0  0  0  0  0  0
   14.3962   -5.3958    0.0000 O   0  0  0  0  0  0  0  0  0  0  0  0
   14.7300   -4.0524    0.0000 O   0  0  0  0  0  0  0  0  0  0  0  0
   16.2794   -3.4852    0.0000 O   0  0  0  0  0  0  0  0  0  0  0  0
   20.3680  -13.1129    0.0000 O   0  0  0  0  0  0  0  0  0  0  0  0
   18.9845  -14.0100    0.0000 O   0  0  0  0  0  0  0  0  0  0  0  0
   17.5159  -13.2605    0.0000 O   0  0  0  0  0  0  0  0  0  0  0  0
   17.1088  -13.0683    0.0000 O   0  0  0  0  0  0  0  0  0  0  0  0
   15.4951  -12.7242    0.0000 O   0  0  0  0  0  0  0  0  0  0  0  0
   14.9862  -11.1546    0.0000 O   0  0  0  0  0  0  0  0  0  0  0  0
   15.7436   -8.6468    0.0000 O   0  0  0  0  0  0  0  0  0  0  0  0
   14.8420   -9.6596    0.0000 C   0  0  0  0  0  0  0  0  0  0  0  0
   15.1256  -10.4343    0.0000 C   0  0  0  0  0  0  0  0  0  0  0  0
   14.5965  -11.0673    0.0000 C   0  0  0  0  0  0  0  0  0  0  0  0
   13.7838  -10.9255    0.0000 C   0  0  0  0  0  0  0  0  0  0  0  0
   13.5002  -10.1508    0.0000 C   0  0  0  0  0  0  0  0  0  0  0  0
   14.0293   -9.5178    0.0000 C   0  0  0  0  0  0  0  0  0  0  0  0
   14.8801  -11.8420    0.0000 O   0  0  0  0  0  0  0  0  0  0  0  0
   15.9384  -10.5760    0.0000 O   0  0  0  0  0  0  0  0  0  0  0  0
   12.6874  -10.0090    0.0000 C   0  0  0  0  0  0  0  0  0  0  0  0
   12.4038   -9.2343    0.0000 O   0  0  0  0  0  0  0  0  0  0  0  0
   17.1145   -8.2587    0.0000 H   0  0  0  0  0  0  0  0  0  0  0  0
   17.1078   -8.6845    0.0000 H   0  0  0  0  0  0  0  0  0  0  0  0
   19.2729   -9.8154    0.0000 H   0  0  0  0  0  0  0  0  0  0  0  0
   19.3137   -7.1959    0.0000 H   0  0  0  0  0  0  0  0  0  0  0  0
   10.4175   -9.1903    0.0000 H   0  0  0  0  0  0  0  0  0  0  0  0
   11.7489  -11.4466    0.0000 H   0  0  0  0  0  0  0  0  0  0  0  0
    9.3848  -11.7826    0.0000 H   0  0  0  0  0  0  0  0  0  0  0  0
    9.0953  -11.2440    0.0000 H   0  0  0  0  0  0  0  0  0  0  0  0
    6.6684  -13.8239    0.0000 O   0  0  0  0  0  0  0  0  0  0  0  0
    7.4640  -15.2694    0.0000 O   0  0  0  0  0  0  0  0  0  0  0  0
    9.1136  -15.3031    0.0000 O   0  0  0  0  0  0  0  0  0  0  0  0
    9.5469  -15.4125    0.0000 O   0  0  0  0  0  0  0  0  0  0  0  0
   11.1296  -15.8754    0.0000 O   0  0  0  0  0  0  0  0  0  0  0  0
   12.3218  -14.7362    0.0000 O   0  0  0  0  0  0  0  0  0  0  0  0
    5.8933   -7.6069    0.0000 O   0  0  0  0  0  0  0  0  0  0  0  0
    4.8671   -8.8990    0.0000 O   0  0  0  0  0  0  0  0  0  0  0  0
    5.2830  -10.2193    0.0000 O   0  0  0  0  0  0  0  0  0  0  0  0
    5.3462  -10.7704    0.0000 O   0  0  0  0  0  0  0  0  0  0  0  0
    5.2401  -12.1505    0.0000 O   0  0  0  0  0  0  0  0  0  0  0  0
    6.5321  -13.1767    0.0000 O   0  0  0  0  0  0  0  0  0  0  0  0
    8.3805  -11.9252    0.0000 O   0  0  0  0  0  0  0  0  0  0  0  0
    9.7056  -12.5672    0.0000 O   0  0  0  0  0  0  0  0  0  0  0  0
    8.3385   -8.3695    0.0000 O   0  0  0  0  0  0  0  0  0  0  0  0
    8.8815  -11.7884    0.0000 O   0  0  0  0  0  0  0  0  0  0  0  0
    8.8749  -10.5016    0.0000 O   0  0  0  0  0  0  0  0  0  0  0  0
    8.3618  -11.1477    0.0000 C   0  0  0  0  0  0  0  0  0  0  0  0
    7.5422  -11.2417    0.0000 C   0  0  0  0  0  0  0  0  0  0  0  0
    7.4208  -12.0577    0.0000 C   0  0  0  0  0  0  0  0  0  0  0  0
    6.6535  -12.3607    0.0000 C   0  0  0  0  0  0  0  0  0  0  0  0
    6.0074  -11.8476    0.0000 C   0  0  0  0  0  0  0  0  0  0  0  0
    6.1287  -11.0316    0.0000 C   0  0  0  0  0  0  0  0  0  0  0  0
    6.8961  -10.7286    0.0000 C   0  0  0  0  0  0  0  0  0  0  0  0
    6.8021   -9.9090    0.0000 C   0  0  0  0  0  0  0  0  0  0  0  0
    5.9861   -9.7877    0.0000 C   0  0  0  0  0  0  0  0  0  0  0  0
    5.6831   -9.0203    0.0000 C   0  0  0  0  0  0  0  0  0  0  0  0
    6.1962   -8.3743    0.0000 C   0  0  0  0  0  0  0  0  0  0  0  0
    7.0122   -8.4956    0.0000 C   0  0  0  0  0  0  0  0  0  0  0  0
    7.3152   -9.2629    0.0000 C   0  0  0  0  0  0  0  0  0  0  0  0
    8.1348   -9.1689    0.0000 C   0  0  0  0  0  0  0  0  0  0  0  0
    8.7808   -9.6820    0.0000 O   0  0  0  0  0  0  0  0  0  0  0  0
    9.5313   -9.3393    0.0000 C   0  0  0  0  0  0  0  0  0  0  0  0
   10.0891   -9.9471    0.0000 C   0  0  1  0  0  0  0  0  0  0  0  0
   10.9141   -9.9393    0.0000 O   0  0  0  0  0  0  0  0  0  0  0  0
   11.3334  -10.6498    0.0000 C   0  0  2  0  0  0  0  0  0  0  0  0
   10.9276  -11.3682    0.0000 C   0  0  2  0  0  0  0  0  0  0  0  0
   11.1900  -12.1504    0.0000 O   0  0  0  0  0  0  0  0  0  0  0  0
   10.5272  -12.6416    0.0000 C   0  0  0  0  0  0  0  0  0  0  0  0
   10.5720  -13.4654    0.0000 C   0  0  0  0  0  0  0  0  0  0  0  0
   11.3553  -13.7246    0.0000 C   0  0  0  0  0  0  0  0  0  0  0  0
   11.5224  -14.5325    0.0000 C   0  0  0  0  0  0  0  0  0  0  0  0
   10.9063  -15.0812    0.0000 C   0  0  0  0  0  0  0  0  0  0  0  0
   10.1230  -14.8219    0.0000 C   0  0  0  0  0  0  0  0  0  0  0  0
    9.9559  -14.0140    0.0000 C   0  0  0  0  0  0  0  0  0  0  0  0
    9.1428  -13.8744    0.0000 C   0  0  0  0  0  0  0  0  0  0  0  0
    8.7158  -14.5803    0.0000 C   0  0  0  0  0  0  0  0  0  0  0  0
    7.8910  -14.5635    0.0000 C   0  0  0  0  0  0  0  0  0  0  0  0
    7.4932  -13.8407    0.0000 C   0  0  0  0  0  0  0  0  0  0  0  0
    7.9202  -13.1348    0.0000 C   0  0  0  0  0  0  0  0  0  0  0  0
    8.7450  -13.1517    0.0000 C   0  0  0  0  0  0  0  0  0  0  0  0
    9.0621  -12.3900    0.0000 C   0  0  0  0  0  0  0  0  0  0  0  0
    9.8552  -12.1630    0.0000 O   0  0  0  0  0  0  0  0  0  0  0  0
   10.1027  -11.3760    0.0000 C   0  0  1  0  0  0  0  0  0  0  0  0
    9.6834  -10.6655    0.0000 C   0  0  2  0  0  0  0  0  0  0  0  0
   12.1583  -10.6420    0.0000 O   0  0  0  0  0  0  0  0  0  0  0  0
120 83  1  6  0  0  0
123 84  1  1  0  0  0
140 85  1  6  0  0  0
141 86  1  1  0  0  0
122142  1  1  0  0  0
135 87  1  0  0  0  0
134 88  1  0  0  0  0
133 89  1  0  0  0  0
130 90  1  0  0  0  0
129 91  1  0  0  0  0
128 92  1  0  0  0  0
114 93  1  0  0  0  0
113 94  1  0  0  0  0
112 95  1  0  0  0  0
109 96  1  0  0  0  0
108 97  1  0  0  0  0
107 98  1  0  0  0  0
138 99  2  0  0  0  0
125100  2  0  0  0  0
117101  2  0  0  0  0
104102  2  0  0  0  0
137132  1  0  0  0  0
131126  1  0  0  0  0
140123  1  0  0  0  0
116111  1  0  0  0  0
110105  1  0  0  0  0
141120  1  0  0  0  0
141103  1  0  0  0  0
104103  1  0  0  0  0
105104  1  0  0  0  0
106105  2  0  0  0  0
107106  1  0  0  0  0
108107  2  0  0  0  0
109108  1  0  0  0  0
110109  2  0  0  0  0
111110  1  0  0  0  0
112111  2  0  0  0  0
113112  1  0  0  0  0
114113  2  0  0  0  0
115114  1  0  0  0  0
116115  2  0  0  0  0
117116  1  0  0  0  0
118117  1  0  0  0  0
119118  1  0  0  0  0
120119  1  0  0  0  0
121120  1  0  0  0  0
122121  1  0  0  0  0
123122  1  0  0  0  0
124123  1  0  0  0  0
125124  1  0  0  0  0
126125  1  0  0  0  0
127126  2  0  0  0  0
128127  1  0  0  0  0
129128  2  0  0  0  0
130129  1  0  0  0  0
131130  2  0  0  0  0
132131  1  0  0  0  0
133132  2  0  0  0  0
134133  1  0  0  0  0
135134  2  0  0  0  0
  1  2  1  0  0  0  0
  2  3  1  0  0  0  0
  3  4  2  0  0  0  0
  4  5  1  0  0  0  0
  5  6  2  0  0  0  0
  6  7  1  0  0  0  0
  2  7  2  0  0  0  0
  1  8  2  0  0  0  0
  1  9  1  0  0  0  0
  6 10  1  0  0  0  0
  5 11  1  0  0  0  0
  4 12  1  0  0  0  0
 13 14  1  0  0  0  0
 14 15  1  0  0  0  0
 15 16  1  0  0  0  0
 16 17  1  0  0  0  0
 17 18  2  0  0  0  0
 18 19  1  0  0  0  0
 19 20  2  0  0  0  0
 20 21  1  0  0  0  0
 21 22  2  0  0  0  0
 22 23  1  0  0  0  0
 23 24  2  0  0  0  0
 24 25  1  0  0  0  0
 25 26  2  0  0  0  0
 26 27  1  0  0  0  0
 27 28  2  0  0  0  0
 28 29  1  0  0  0  0
 29 30  1  0  0  0  0
 30 31  1  0  0  0  0
 31 32  1  0  0  0  0
 32 33  1  0  0  0  0
 33 34  1  0  0  0  0
 34 35  1  0  0  0  0
 35 36  1  0  0  0  0
 36 37  1  0  0  0  0
 37 38  1  0  0  0  0
 38 39  2  0  0  0  0
 39 40  1  0  0  0  0
 40 41  2  0  0  0  0
 41 42  1  0  0  0  0
 42 43  2  0  0  0  0
 43 44  1  0  0  0  0
 44 45  1  0  0  0  0
 45 46  2  0  0  0  0
 46 47  1  0  0  0  0
 47 48  2  0  0  0  0
 48 49  1  0  0  0  0
 49 50  1  0  0  0  0
 50 51  1  0  0  0  0
 13 51  1  0  0  0  0
 13 34  1  0  0  0  0
 44 49  2  0  0  0  0
 38 43  1  0  0  0  0
 14 31  1  0  0  0  0
 23 28  1  0  0  0  0
 17 22  1  0  0  0  0
 50 52  2  0  0  0  0
 37 53  2  0  0  0  0
 29 54  2  0  0  0  0
 16 55  2  0  0  0  0
 47 56  1  0  0  0  0
 46 57  1  0  0  0  0
 45 58  1  0  0  0  0
 42 59  1  0  0  0  0
 41 60  1  0  0  0  0
 40 61  1  0  0  0  0
 26 62  1  0  0  0  0
 25 63  1  0  0  0  0
 24 64  1  0  0  0  0
 21 65  1  0  0  0  0
 20 66  1  0  0  0  0
 19 67  1  0  0  0  0
 69 70  1  0  0  0  0
 70 71  2  0  0  0  0
 71 72  1  0  0  0  0
 72 73  2  0  0  0  0
 73 74  1  0  0  0  0
 69 74  2  0  0  0  0
 68 69  1  0  0  0  0
 71 75  1  0  0  0  0
 70 76  1  0  0  0  0
 77 78  2  0  0  0  0
136135  1  0  0  0  0
137136  2  0  0  0  0
138137  1  0  0  0  0
139138  1  0  0  0  0
140139  1  0  0  0  0
141140  1  0  0  0  0
 77142  1  0  0  0  0
 73 77  1  0  0  0  0
 48 68  1  0  0  0  0
 32  9  1  1  0  0  0
 13 79  1  1  0  0  0
 14 80  1  6  0  0  0
 31 81  1  1  0  0  0
 34 82  1  6  0  0  0
M  END
>  <cdx:fragmentId>
344

$$$$
