301686.cdx
  Mrv1902 05222410192D          

 36 39  0  0  0  0            999 V2000
    9.9396   -4.5799    0.0000 C   0  0  0  0  0  0  0  0  0  0  0  0
    9.6847   -5.3645    0.0000 C   0  0  0  0  0  0  0  0  0  0  0  0
    8.8777   -5.5360    0.0000 C   0  0  1  0  0  0  0  0  0  0  0  0
    8.3257   -4.9230    0.0000 C   0  0  0  0  0  0  0  0  0  0  0  0
   11.0016   -3.6238    0.0000 O   0  0  0  0  0  0  0  0  0  0  0  0
    4.9803   -7.4006    0.0000 C   0  0  0  0  0  0  0  0  0  0  0  0
    4.2658   -7.8131    0.0000 C   0  0  0  0  0  0  0  0  0  0  0  0
    4.2658   -8.6381    0.0000 C   0  0  1  0  0  0  0  0  0  0  0  0
    4.9803   -9.0506    0.0000 C   0  0  0  0  0  0  0  0  0  0  0  0
    5.6948   -8.6381    0.0000 C   0  0  2  0  0  0  0  0  0  0  0  0
    6.4092   -9.0506    0.0000 C   0  0  0  0  0  0  0  0  0  0  0  0
    7.1237   -8.6381    0.0000 C   0  0  0  0  0  0  0  0  0  0  0  0
    7.1237   -7.8131    0.0000 C   0  0  0  0  0  0  0  0  0  0  0  0
    7.8382   -7.4006    0.0000 C   0  0  2  0  0  0  0  0  0  0  0  0
    8.6228   -7.6555    0.0000 C   0  0  0  0  0  0  0  0  0  0  0  0
    9.1077   -6.9881    0.0000 C   0  0  0  0  0  0  0  0  0  0  0  0
    8.6228   -6.3207    0.0000 C   0  0  1  0  0  0  0  0  0  0  0  0
    7.8382   -6.5756    0.0000 C   0  0  1  0  0  0  0  0  0  0  0  0
    7.1237   -6.1631    0.0000 C   0  0  1  0  0  0  0  0  0  0  0  0
    6.4092   -6.5756    0.0000 C   0  0  0  0  0  0  0  0  0  0  0  0
    6.4092   -7.4006    0.0000 C   0  0  0  0  0  0  0  0  0  0  0  0
    5.6948   -7.8131    0.0000 C   0  0  1  0  0  0  0  0  0  0  0  0
    8.8777   -8.4402    0.0000 O   0  0  0  0  0  0  0  0  0  0  0  0
    5.6948   -6.1631    0.0000 O   0  0  0  0  0  0  0  0  0  0  0  0
    7.8382   -9.0506    0.0000 O   0  0  0  0  0  0  0  0  0  0  0  0
    7.8382   -8.2780    0.0000 C   0  0  0  0  0  0  0  0  0  0  0  0
    7.8382   -5.8279    0.0000 C   0  0  0  0  0  0  0  0  0  0  0  0
    5.6948   -6.9881    0.0000 C   0  0  0  0  0  0  0  0  0  0  0  0
    5.3928   -9.7651    0.0000 C   0  0  0  0  0  0  0  0  0  0  0  0
    4.5678   -9.7651    0.0000 C   0  0  0  0  0  0  0  0  0  0  0  0
    7.1237   -5.3381    0.0000 O   0  0  0  0  0  0  0  0  0  0  0  0
    3.5513   -9.0506    0.0000 O   0  0  0  0  0  0  0  0  0  0  0  0
   11.2987   -5.0215    0.0000 O   0  0  0  0  0  0  0  0  0  0  0  0
   10.7466   -4.4084    0.0000 C   0  0  0  0  0  0  0  0  0  0  0  0
    9.4074   -6.0657    0.0000 H   0  0  0  0  0  0  0  0  0  0  0  0
    5.6948   -9.4631    0.0000 H   0  0  0  0  0  0  0  0  0  0  0  0
 34  5  1  0  0  0  0
 34 33  2  0  0  0  0
 34  1  1  0  0  0  0
  1  2  1  0  0  0  0
  2  3  1  0  0  0  0
  3  4  1  6  0  0  0
  6  7  1  0  0  0  0
  7  8  1  0  0  0  0
  8  9  1  0  0  0  0
  9 10  1  0  0  0  0
 10 11  1  0  0  0  0
 11 12  1  0  0  0  0
 12 13  1  0  0  0  0
 13 14  1  0  0  0  0
 14 15  1  0  0  0  0
 15 16  1  0  0  0  0
 16 17  1  0  0  0  0
 17 18  1  0  0  0  0
 14 18  1  0  0  0  0
 18 19  1  0  0  0  0
 19 20  1  0  0  0  0
 20 21  1  0  0  0  0
 13 21  2  0  0  0  0
 21 22  1  0  0  0  0
 10 22  1  0  0  0  0
  6 22  1  0  0  0  0
 15 23  2  0  0  0  0
 20 24  2  0  0  0  0
 12 25  2  0  0  0  0
 14 26  1  6  0  0  0
 18 27  1  1  0  0  0
 22 28  1  1  0  0  0
  9 29  1  0  0  0  0
  9 30  1  0  0  0  0
 19 31  1  1  0  0  0
  8 32  1  1  0  0  0
  3 17  1  0  0  0  0
 17 35  1  6  0  0  0
 10 36  1  6  0  0  0
M  END
>  <cdx:groupId>
4295

>  <cdx:fragmentId>
4207

$$$$
