301626.cdx
  Mrv1902 05222410222D          

 23 26  0  0  0  0            999 V2000
    8.6438   -6.4698    0.0000 O   0  0  0  0  0  0  0  0  0  0  0  0
    8.3082   -5.7162    0.0000 C   0  0  0  0  0  0  0  0  0  0  0  0
    7.4877   -5.8024    0.0000 C   0  0  0  0  0  0  0  0  0  0  0  0
    7.3162   -6.6094    0.0000 C   0  0  0  0  0  0  0  0  0  0  0  0
    6.6017   -7.0219    0.0000 C   0  0  0  0  0  0  0  0  0  0  0  0
    6.6017   -7.8469    0.0000 C   0  0  0  0  0  0  0  0  0  0  0  0
    7.3162   -8.2594    0.0000 C   0  0  0  0  0  0  0  0  0  0  0  0
    8.0307   -7.8469    0.0000 C   0  0  0  0  0  0  0  0  0  0  0  0
    8.0307   -7.0219    0.0000 C   0  0  0  0  0  0  0  0  0  0  0  0
    5.8873   -8.2594    0.0000 C   0  0  0  0  0  0  0  0  0  0  0  0
    5.1728   -7.8469    0.0000 C   0  0  0  0  0  0  0  0  0  0  0  0
    5.1728   -7.0219    0.0000 C   0  0  0  0  0  0  0  0  0  0  0  0
    5.8873   -6.6094    0.0000 C   0  0  0  0  0  0  0  0  0  0  0  0
    7.9727   -4.9625    0.0000 O   0  0  0  0  0  0  0  0  0  0  0  0
    8.5858   -4.4105    0.0000 C   0  0  0  0  0  0  0  0  0  0  0  0
    9.3002   -4.8230    0.0000 C   0  0  0  0  0  0  0  0  0  0  0  0
    9.1287   -5.6299    0.0000 C   0  0  0  0  0  0  0  0  0  0  0  0
    8.4995   -3.5900    0.0000 O   0  0  0  0  0  0  0  0  0  0  0  0
    6.6017   -6.1969    0.0000 C   0  0  0  0  0  0  0  0  0  0  0  0
    6.2998   -8.9739    0.0000 C   0  0  0  0  0  0  0  0  0  0  0  0
    5.4748   -8.9739    0.0000 C   0  0  0  0  0  0  0  0  0  0  0  0
    9.6807   -6.2430    0.0000 C   0  0  0  0  0  0  0  0  0  0  0  0
    8.7844   -7.3574    0.0000 C   0  0  0  0  0  0  0  0  0  0  0  0
  1  2  1  0  0  0  0
  2  3  1  0  0  0  0
  3  4  1  0  0  0  0
  4  5  1  0  0  0  0
  5  6  1  0  0  0  0
  6  7  1  0  0  0  0
  7  8  1  0  0  0  0
  8  9  1  0  0  0  0
  4  9  1  0  0  0  0
  1  9  1  0  0  0  0
 10 11  1  0  0  0  0
 11 12  1  0  0  0  0
 12 13  1  0  0  0  0
 13  5  1  0  0  0  0
 10  6  1  0  0  0  0
 14 15  1  0  0  0  0
 15 16  1  0  0  0  0
 16 17  2  0  0  0  0
 14  2  1  0  0  0  0
 17  2  1  0  0  0  0
 15 18  2  0  0  0  0
  5 19  1  0  0  0  0
 10 20  1  0  0  0  0
 10 21  1  0  0  0  0
 17 22  1  0  0  0  0
  9 23  1  0  0  0  0
M  END
>  <cdx:groupId>
976

>  <cdx:fragmentId>
907

$$$$
