301642.cdx
  Mrv1902 05222410182D          

 36 39  0  0  0  0            999 V2000
   14.1920  -11.4611    0.0000 C   0  0  0  0  0  0  0  0  0  0  0  0
   14.9064  -11.0486    0.0000 C   0  0  0  0  0  0  0  0  0  0  0  0
   14.9064  -10.2236    0.0000 C   0  0  0  0  0  0  0  0  0  0  0  0
   14.1920   -9.8111    0.0000 C   0  0  0  0  0  0  0  0  0  0  0  0
   13.4775  -10.2236    0.0000 C   0  0  0  0  0  0  0  0  0  0  0  0
   13.4775  -11.0486    0.0000 C   0  0  0  0  0  0  0  0  0  0  0  0
   15.6209  -11.4611    0.0000 O   0  0  0  0  0  0  0  0  0  0  0  0
   16.3354  -11.0486    0.0000 C   0  0  0  0  0  0  0  0  0  0  0  0
   16.3354  -10.2236    0.0000 C   0  0  0  0  0  0  0  0  0  0  0  0
   15.6209   -9.8111    0.0000 C   0  0  0  0  0  0  0  0  0  0  0  0
   17.0499  -11.4611    0.0000 O   0  0  0  0  0  0  0  0  0  0  0  0
   12.7630   -9.8111    0.0000 O   0  0  0  0  0  0  0  0  0  0  0  0
   12.0510   -9.4000    0.0000 C   0  0  0  0  0  0  0  0  0  0  0  0
   12.7630  -11.4611    0.0000 O   0  0  0  0  0  0  0  0  0  0  0  0
    9.7935  -11.2652    0.0000 C   0  0  0  0  0  0  0  0  0  0  0  0
   10.1204  -12.0227    0.0000 C   0  0  0  0  0  0  0  0  0  0  0  0
   10.9373  -11.9076    0.0000 C   0  0  0  0  0  0  0  0  0  0  0  0
   11.7010  -12.2072    0.0000 C   0  0  0  0  0  0  0  0  0  0  0  0
   11.3741  -11.4497    0.0000 O   0  0  0  0  0  0  0  0  0  0  0  0
   10.5571  -11.5648    0.0000 C   0  0  0  0  0  0  0  0  0  0  0  0
    9.0217  -11.5568    0.0000 O   0  0  0  0  0  0  0  0  0  0  0  0
    9.2994  -12.1045    0.0000 O   0  0  0  0  0  0  0  0  0  0  0  0
   11.4186  -12.5776    0.0000 O   0  0  0  0  0  0  0  0  0  0  0  0
    5.9259  -12.4559    0.0000 C   0  0  0  0  0  0  0  0  0  0  0  0
    6.3147  -13.1835    0.0000 C   0  0  0  0  0  0  0  0  0  0  0  0
    7.1192  -13.0008    0.0000 C   0  0  0  0  0  0  0  0  0  0  0  0
    7.9051  -13.2359    0.0000 C   0  0  0  0  0  0  0  0  0  0  0  0
    7.5164  -12.5082    0.0000 O   0  0  0  0  0  0  0  0  0  0  0  0
    6.7118  -12.6909    0.0000 C   0  0  0  0  0  0  0  0  0  0  0  0
    5.1811  -12.8106    0.0000 O   0  0  0  0  0  0  0  0  0  0  0  0
    5.5034  -13.3334    0.0000 O   0  0  0  0  0  0  0  0  0  0  0  0
    7.6546  -13.6285    0.0000 O   0  0  0  0  0  0  0  0  0  0  0  0
    6.2414  -12.0132    0.0000 C   0  0  0  0  0  0  0  0  0  0  0  0
    6.3879  -11.2013    0.0000 O   0  0  0  0  0  0  0  0  0  0  0  0
   10.0867  -10.8871    0.0000 C   0  0  0  0  0  0  0  0  0  0  0  0
   10.2332  -10.0752    0.0000 O   0  0  0  0  0  0  0  0  0  0  0  0
  1  2  2  0  0  0  0
  2  3  1  0  0  0  0
  3  4  2  0  0  0  0
  4  5  1  0  0  0  0
  5  6  2  0  0  0  0
  6  1  1  0  0  0  0
  2  7  1  0  0  0  0
  7  8  1  0  0  0  0
  8  9  1  0  0  0  0
  9 10  2  0  0  0  0
 10  3  1  0  0  0  0
  8 11  2  0  0  0  0
  5 12  1  0  0  0  0
  6 14  1  0  0  0  0
 15 16  1  0  0  0  0
 16 17  1  0  0  0  0
 17 18  1  0  0  0  0
 18 19  1  0  0  0  0
 19 20  1  0  0  0  0
 20 15  1  0  0  0  0
 15 21  1  0  0  0  0
 16 22  1  0  0  0  0
 17 23  1  0  0  0  0
 24 25  1  0  0  0  0
 25 26  1  0  0  0  0
 26 27  1  0  0  0  0
 27 28  1  0  0  0  0
 28 29  1  0  0  0  0
 29 24  1  0  0  0  0
 24 30  1  0  0  0  0
 25 31  1  0  0  0  0
 26 32  1  0  0  0  0
 27 22  1  0  0  0  0
 29 33  1  0  0  0  0
 33 34  1  0  0  0  0
 20 35  1  0  0  0  0
 35 36  1  0  0  0  0
 14 18  1  0  0  0  0
 12 13  1  0  0  0  0
M  STY  1   1 SUP
M  SAL   1  2  12  13
M  SBL   1  1  13
M  SMT   1 OCH3
M  SAP   1  1  12   5  1
M  END
>  <cdx:fragmentId>
9284

$$$$
