301656.cdx
  Mrv1902 05222410182D          

 25 27  0  0  0  0            999 V2000
    7.3062   -9.3264    0.0000 C   0  0  0  0  0  0  0  0  0  0  0  0
    8.0207   -8.9139    0.0000 C   0  0  1  0  0  0  0  0  0  0  0  0
    8.0207   -8.0889    0.0000 C   0  0  2  0  0  0  0  0  0  0  0  0
    7.3062   -7.6764    0.0000 C   0  0  2  0  0  0  0  0  0  0  0  0
    6.5917   -8.0889    0.0000 C   0  0  1  0  0  0  0  0  0  0  0  0
    5.8772   -7.6764    0.0000 C   0  0  0  0  0  0  0  0  0  0  0  0
    5.1628   -8.0889    0.0000 C   0  0  0  0  0  0  0  0  0  0  0  0
    5.1628   -8.9139    0.0000 C   0  0  0  0  0  0  0  0  0  0  0  0
    5.8772   -9.3264    0.0000 C   0  0  0  0  0  0  0  0  0  0  0  0
    6.5917   -8.9139    0.0000 C   0  0  2  0  0  0  0  0  0  0  0  0
    7.3062  -10.1514    0.0000 O   0  0  0  0  0  0  0  0  0  0  0  0
    6.2897  -10.0408    0.0000 C   0  0  0  0  0  0  0  0  0  0  0  0
    5.4647  -10.0408    0.0000 C   0  0  0  0  0  0  0  0  0  0  0  0
    6.5917   -7.2639    0.0000 C   0  0  0  0  0  0  0  0  0  0  0  0
    8.7351   -7.6764    0.0000 C   0  0  0  0  0  0  0  0  0  0  0  0
    8.0207   -7.2639    0.0000 O   0  0  0  0  0  0  0  0  0  0  0  0
    8.7351   -9.3264    0.0000 O   0  0  0  0  0  0  0  0  0  0  0  0
    7.3062   -6.8514    0.0000 C   0  0  0  0  0  0  0  0  0  0  0  0
    8.0207   -6.4389    0.0000 C   0  0  0  0  0  0  0  0  0  0  0  0
    8.4332   -4.3443    0.0000 O   0  0  0  0  0  0  0  0  0  0  0  0
    8.6881   -5.1290    0.0000 C   0  0  0  0  0  0  0  0  0  0  0  0
    8.0207   -5.6139    0.0000 C   0  0  0  0  0  0  0  0  0  0  0  0
    7.3532   -5.1290    0.0000 C   0  0  0  0  0  0  0  0  0  0  0  0
    7.6082   -4.3443    0.0000 C   0  0  0  0  0  0  0  0  0  0  0  0
    6.5917   -9.7389    0.0000 H   0  0  0  0  0  0  0  0  0  0  0  0
  1  2  1  0  0  0  0
  2  3  1  0  0  0  0
  3  4  1  0  0  0  0
  4  5  1  0  0  0  0
  5  6  1  0  0  0  0
  6  7  1  0  0  0  0
  7  8  1  0  0  0  0
  8  9  1  0  0  0  0
  9 10  1  0  0  0  0
  1 10  1  0  0  0  0
  5 10  1  0  0  0  0
  1 11  2  0  0  0  0
  9 12  1  0  0  0  0
  9 13  1  0  0  0  0
  5 14  1  1  0  0  0
  3 15  1  6  0  0  0
  4 16  1  6  0  0  0
  2 17  1  1  0  0  0
 18 19  1  0  0  0  0
 20 21  1  0  0  0  0
 21 22  2  0  0  0  0
 22 23  1  0  0  0  0
 23 24  2  0  0  0  0
 20 24  1  0  0  0  0
 19 22  1  0  0  0  0
  4 18  1  0  0  0  0
 10 25  1  6  0  0  0
M  END
>  <cdx:groupId>
1678

>  <cdx:fragmentId>
1604

$$$$
