301698.cdx
  Mrv1902 05222410282D          

 45 49  0  0  0  0            999 V2000
   10.9974   -6.6429    0.0000 O   0  0  0  0  0  0  0  0  0  0  0  0
   10.2829   -7.8804    0.0000 O   0  0  0  0  0  0  0  0  0  0  0  0
   10.9974   -7.4679    0.0000 C   0  0  2  0  0  0  0  0  0  0  0  0
   11.7118   -7.8804    0.0000 C   0  0  1  0  0  0  0  0  0  0  0  0
   11.7118   -8.7054    0.0000 C   0  0  2  0  0  0  0  0  0  0  0  0
   10.9974   -9.1179    0.0000 C   0  0  2  0  0  0  0  0  0  0  0  0
   10.2829   -8.7054    0.0000 C   0  0  1  0  0  0  0  0  0  0  0  0
   10.9974   -9.9429    0.0000 O   0  0  0  0  0  0  0  0  0  0  0  0
   12.4263   -9.1179    0.0000 O   0  0  0  0  0  0  0  0  0  0  0  0
   12.4263   -7.4679    0.0000 O   0  0  0  0  0  0  0  0  0  0  0  0
    9.5684   -9.1179    0.0000 C   0  0  0  0  0  0  0  0  0  0  0  0
    8.8539   -8.7054    0.0000 O   0  0  0  0  0  0  0  0  0  0  0  0
    9.5684   -9.9429    0.0000 O   0  0  0  0  0  0  0  0  0  0  0  0
   10.9974   -4.9929    0.0000 O   0  0  0  0  0  0  0  0  0  0  0  0
    8.8539   -5.4054    0.0000 C   0  0  0  0  0  0  0  0  0  0  0  0
    9.5684   -4.9929    0.0000 C   0  0  0  0  0  0  0  0  0  0  0  0
   10.2829   -5.4054    0.0000 C   0  0  0  0  0  0  0  0  0  0  0  0
   10.2829   -6.2304    0.0000 C   0  0  0  0  0  0  0  0  0  0  0  0
    9.5684   -6.6429    0.0000 C   0  0  0  0  0  0  0  0  0  0  0  0
    8.8539   -6.2304    0.0000 C   0  0  0  0  0  0  0  0  0  0  0  0
    5.9961   -8.7054    0.0000 O   0  0  0  0  0  0  0  0  0  0  0  0
    7.4250   -8.7054    0.0000 O   0  0  0  0  0  0  0  0  0  0  0  0
    7.4250   -6.2304    0.0000 O   0  0  0  0  0  0  0  0  0  0  0  0
    6.7105   -6.6429    0.0000 C   0  0  0  0  0  0  0  0  0  0  0  0
    5.9961   -6.2304    0.0000 C   0  0  0  0  0  0  0  0  0  0  0  0
    5.2816   -6.6429    0.0000 C   0  0  0  0  0  0  0  0  0  0  0  0
    5.2816   -7.4679    0.0000 C   0  0  0  0  0  0  0  0  0  0  0  0
    5.9961   -7.8804    0.0000 C   0  0  0  0  0  0  0  0  0  0  0  0
    6.7105   -7.4679    0.0000 C   0  0  0  0  0  0  0  0  0  0  0  0
    7.4250   -7.8804    0.0000 C   0  0  0  0  0  0  0  0  0  0  0  0
    8.1395   -7.4679    0.0000 C   0  0  0  0  0  0  0  0  0  0  0  0
    8.1395   -6.6429    0.0000 C   0  0  0  0  0  0  0  0  0  0  0  0
    4.5671   -6.2304    0.0000 O   0  0  0  0  0  0  0  0  0  0  0  0
    1.7092   -7.8804    0.0000 O   0  0  0  0  0  0  0  0  0  0  0  0
    3.1382   -8.7054    0.0000 O   0  0  0  0  0  0  0  0  0  0  0  0
    4.5671   -7.8804    0.0000 O   0  0  0  0  0  0  0  0  0  0  0  0
    0.9948   -6.6429    0.0000 O   0  0  0  0  0  0  0  0  0  0  0  0
    1.7092   -5.4054    0.0000 O   0  0  0  0  0  0  0  0  0  0  0  0
    1.7092   -6.2304    0.0000 C   0  0  0  0  0  0  0  0  0  0  0  0
    3.8526   -6.6429    0.0000 C   0  0  1  0  0  0  0  0  0  0  0  0
    3.8526   -7.4679    0.0000 C   0  0  1  0  0  0  0  0  0  0  0  0
    3.1382   -7.8804    0.0000 C   0  0  2  0  0  0  0  0  0  0  0  0
    2.4237   -7.4679    0.0000 C   0  0  2  0  0  0  0  0  0  0  0  0
    2.4237   -6.6429    0.0000 C   0  0  2  0  0  0  0  0  0  0  0  0
    3.1382   -6.2304    0.0000 O   0  0  0  0  0  0  0  0  0  0  0  0
 40 33  1  1  0  0  0
 33 26  1  0  0  0  0
 32 20  1  0  0  0  0
 18  1  1  0  0  0  0
 17 14  1  0  0  0  0
 20 15  2  0  0  0  0
 16 15  1  0  0  0  0
 17 16  2  0  0  0  0
 18 17  1  0  0  0  0
 19 18  2  0  0  0  0
 20 19  1  0  0  0  0
 28 21  1  0  0  0  0
 30 22  2  0  0  0  0
 32 23  1  0  0  0  0
 24 23  1  0  0  0  0
 29 24  2  0  0  0  0
 25 24  1  0  0  0  0
 26 25  2  0  0  0  0
 27 26  1  0  0  0  0
 28 27  2  0  0  0  0
 29 28  1  0  0  0  0
 30 29  1  0  0  0  0
 31 30  1  0  0  0  0
 32 31  2  0  0  0  0
 43 34  1  1  0  0  0
 42 35  1  1  0  0  0
 41 36  1  6  0  0  0
 44 39  1  1  0  0  0
 39 37  1  0  0  0  0
 39 38  2  0  0  0  0
 45 40  1  0  0  0  0
 41 40  1  0  0  0  0
 42 41  1  0  0  0  0
 43 42  1  0  0  0  0
 44 43  1  0  0  0  0
 45 44  1  0  0  0  0
  2  3  1  0  0  0  0
  3  4  1  0  0  0  0
  4  5  1  0  0  0  0
  5  6  1  0  0  0  0
  6  7  1  0  0  0  0
  2  7  1  0  0  0  0
  6  8  1  1  0  0  0
  5  9  1  1  0  0  0
  4 10  1  6  0  0  0
 11 12  2  0  0  0  0
 11 13  1  0  0  0  0
  7 11  1  1  0  0  0
  3  1  1  1  0  0  0
M  END
>  <cdx:groupId>
583

>  <cdx:fragmentId>
513

$$$$
