301669.cdx
  Mrv1902 05222410192D          

 12 12  0  0  0  0            999 V2000
    7.6205   -9.0310    0.0000 C   0  0  0  0  0  0  0  0  0  0  0  0
    6.9060   -6.9685    0.0000 C   0  0  0  0  0  0  0  0  0  0  0  0
    6.9060   -7.7935    0.0000 C   0  0  0  0  0  0  0  0  0  0  0  0
    7.6205   -8.2060    0.0000 C   0  0  0  0  0  0  0  0  0  0  0  0
    8.3350   -7.7935    0.0000 C   0  0  0  0  0  0  0  0  0  0  0  0
    8.3350   -6.9685    0.0000 C   0  0  0  0  0  0  0  0  0  0  0  0
    7.6205   -6.5560    0.0000 C   0  0  0  0  0  0  0  0  0  0  0  0
    6.1916   -4.0810    0.0000 O   0  0  0  0  0  0  0  0  0  0  0  0
    8.3350   -5.3185    0.0000 C   0  0  0  0  0  0  0  0  0  0  0  0
    7.6205   -5.7310    0.0000 C   0  0  0  0  0  0  0  0  0  0  0  0
    6.9060   -5.3185    0.0000 C   0  0  0  0  0  0  0  0  0  0  0  0
    6.9060   -4.4935    0.0000 C   0  0  0  0  0  0  0  0  0  0  0  0
 10  7  1  0  0  0  0
  4  1  1  0  0  0  0
  7  2  1  0  0  0  0
  3  2  1  0  0  0  0
  4  3  1  0  0  0  0
  5  4  2  0  0  0  0
  6  5  1  0  0  0  0
  7  6  1  0  0  0  0
 12  8  2  0  0  0  0
 10  9  1  0  0  0  0
 11 10  1  0  0  0  0
 12 11  1  0  0  0  0
M  END
>  <cdx:groupId>
3265

>  <cdx:fragmentId>
3242

$$$$
