301607.cdx
  Mrv1902 05222410252D          

 23 24  0  0  0  0            999 V2000
    5.4180   -5.8575    0.0000 C   0  0  2  0  0  0  0  0  0  0  0  0
    5.4180   -6.6825    0.0000 C   0  0  2  0  0  0  0  0  0  0  0  0
    6.1325   -7.0950    0.0000 C   0  0  1  0  0  0  0  0  0  0  0  0
    6.8470   -6.6825    0.0000 C   0  0  2  0  0  0  0  0  0  0  0  0
    6.8470   -5.8575    0.0000 C   0  0  2  0  0  0  0  0  0  0  0  0
    6.1325   -5.4450    0.0000 O   0  0  0  0  0  0  0  0  0  0  0  0
    4.7036   -5.4450    0.0000 C   0  0  0  0  0  0  0  0  0  0  0  0
    7.5614   -5.4450    0.0000 O   0  0  0  0  0  0  0  0  0  0  0  0
    7.5614   -7.0950    0.0000 O   0  0  0  0  0  0  0  0  0  0  0  0
    4.7036   -7.0950    0.0000 O   0  0  0  0  0  0  0  0  0  0  0  0
    6.1325   -7.9200    0.0000 O   0  0  0  0  0  0  0  0  0  0  0  0
    8.2759   -6.6825    0.0000 C   0  0  2  0  0  0  0  0  0  0  0  0
    8.9904   -7.0950    0.0000 C   0  0  1  0  0  0  0  0  0  0  0  0
    9.7049   -6.6825    0.0000 C   0  0  2  0  0  0  0  0  0  0  0  0
    9.7049   -5.8575    0.0000 C   0  0  1  0  0  0  0  0  0  0  0  0
    8.9904   -5.4450    0.0000 C   0  0  2  0  0  0  0  0  0  0  0  0
    8.2759   -5.8575    0.0000 O   0  0  0  0  0  0  0  0  0  0  0  0
    8.9904   -4.6200    0.0000 C   0  0  0  0  0  0  0  0  0  0  0  0
   10.4193   -5.4450    0.0000 O   0  0  0  0  0  0  0  0  0  0  0  0
    8.9904   -7.9200    0.0000 O   0  0  0  0  0  0  0  0  0  0  0  0
   10.4193   -7.0950    0.0000 O   0  0  0  0  0  0  0  0  0  0  0  0
    3.9891   -5.8575    0.0000 O   0  0  0  0  0  0  0  0  0  0  0  0
    9.7049   -4.2075    0.0000 O   0  0  0  0  0  0  0  0  0  0  0  0
  1  2  1  0  0  0  0
  2  3  1  0  0  0  0
  3  4  1  0  0  0  0
  4  5  1  0  0  0  0
  5  6  1  0  0  0  0
  6  1  1  0  0  0  0
  1  7  1  1  0  0  0
  5  8  1  6  0  0  0
  4  9  1  6  0  0  0
  2 10  1  6  0  0  0
  3 11  1  1  0  0  0
 12  9  1  1  0  0  0
 12 13  1  0  0  0  0
 13 14  1  0  0  0  0
 14 15  1  0  0  0  0
 15 16  1  0  0  0  0
 16 17  1  0  0  0  0
 17 12  1  0  0  0  0
 16 18  1  6  0  0  0
 15 19  1  1  0  0  0
 13 20  1  1  0  0  0
 14 21  1  6  0  0  0
  7 22  1  0  0  0  0
 18 23  1  0  0  0  0
M  END
>  <cdx:fragmentId>
99

$$$$
