301671.cdx
  Mrv1902 05222410272D          

 20 19  0  0  0  0            999 V2000
    7.4250   -6.8466    0.0000 C   0  0  0  0  0  0  0  0  0  0  0  0
    6.7105   -7.2591    0.0000 C   0  0  0  0  0  0  0  0  0  0  0  0
    5.9961   -6.8466    0.0000 C   0  0  0  0  0  0  0  0  0  0  0  0
    5.2816   -7.2591    0.0000 C   0  0  0  0  0  0  0  0  0  0  0  0
    4.5671   -6.8466    0.0000 C   0  0  0  0  0  0  0  0  0  0  0  0
    3.8526   -7.2591    0.0000 C   0  0  0  0  0  0  0  0  0  0  0  0
    3.1382   -6.8466    0.0000 C   0  0  0  0  0  0  0  0  0  0  0  0
    2.4237   -7.2591    0.0000 C   0  0  0  0  0  0  0  0  0  0  0  0
    7.4250   -6.0216    0.0000 O   0  0  0  0  0  0  0  0  0  0  0  0
    8.1395   -7.2591    0.0000 O   0  0  0  0  0  0  0  0  0  0  0  0
    9.5684   -5.6091    0.0000 C   0  0  0  0  0  0  0  0  0  0  0  0
    8.8539   -6.0216    0.0000 C   0  0  0  0  0  0  0  0  0  0  0  0
    8.8539   -6.8466    0.0000 C   0  0  0  0  0  0  0  0  0  0  0  0
    9.5684   -7.2591    0.0000 C   0  0  0  0  0  0  0  0  0  0  0  0
   10.2829   -6.8466    0.0000 C   0  0  0  0  0  0  0  0  0  0  0  0
   10.9974   -7.2591    0.0000 C   0  0  0  0  0  0  0  0  0  0  0  0
   11.7118   -6.8466    0.0000 C   0  0  0  0  0  0  0  0  0  0  0  0
   11.7118   -6.0216    0.0000 C   0  0  0  0  0  0  0  0  0  0  0  0
   12.4263   -7.2591    0.0000 C   0  0  0  0  0  0  0  0  0  0  0  0
    8.8539   -7.6716    0.0000 C   0  0  0  0  0  0  0  0  0  0  0  0
  1  2  1  0  0  0  0
  2  3  1  0  0  0  0
  3  4  1  0  0  0  0
  4  5  1  0  0  0  0
  5  6  1  0  0  0  0
  6  7  1  0  0  0  0
  7  8  1  0  0  0  0
  1  9  2  0  0  0  0
  1 10  1  0  0  0  0
 11 12  2  0  0  0  0
 12 13  1  0  0  0  0
 13 14  1  0  0  0  0
 14 15  1  0  0  0  0
 15 16  1  0  0  0  0
 16 17  2  0  0  0  0
 17 18  1  0  0  0  0
 17 19  1  0  0  0  0
 13 20  1  0  0  0  0
 10 13  1  0  0  0  0
M  END
>  <cdx:groupId>
3376

>  <cdx:fragmentId>
3340

$$$$
