301695.cdx
  Mrv1902 05222410182D          

 31 34  0  0  0  0            999 V2000
    4.5648   -6.6312    0.0000 O   0  0  0  0  0  0  0  0  0  0  0  0
    5.2771   -7.0474    0.0000 C   0  0  2  0  0  0  0  0  0  0  0  0
    5.2728   -7.8724    0.0000 C   0  0  1  0  0  0  0  0  0  0  0  0
    4.5562   -8.2812    0.0000 C   0  0  2  0  0  0  0  0  0  0  0  0
    3.8439   -7.8649    0.0000 C   0  0  2  0  0  0  0  0  0  0  0  0
    3.8482   -7.0399    0.0000 C   0  0  0  0  0  0  0  0  0  0  0  0
    3.1273   -8.2737    0.0000 O   0  0  0  0  0  0  0  0  0  0  0  0
    4.5518   -9.1062    0.0000 O   0  0  0  0  0  0  0  0  0  0  0  0
    5.9851   -8.2887    0.0000 O   0  0  0  0  0  0  0  0  0  0  0  0
   11.7138   -5.8437    0.0000 O   0  0  0  0  0  0  0  0  0  0  0  0
   11.7225   -4.1938    0.0000 O   0  0  0  0  0  0  0  0  0  0  0  0
    9.5769   -4.5950    0.0000 C   0  0  0  0  0  0  0  0  0  0  0  0
   10.2935   -4.1863    0.0000 C   0  0  0  0  0  0  0  0  0  0  0  0
   11.0058   -4.6025    0.0000 C   0  0  0  0  0  0  0  0  0  0  0  0
   11.0015   -5.4275    0.0000 C   0  0  0  0  0  0  0  0  0  0  0  0
   10.2849   -5.8362    0.0000 C   0  0  0  0  0  0  0  0  0  0  0  0
    9.5726   -5.4200    0.0000 C   0  0  0  0  0  0  0  0  0  0  0  0
    6.7017   -7.8799    0.0000 O   0  0  0  0  0  0  0  0  0  0  0  0
    5.2858   -5.3975    0.0000 O   0  0  0  0  0  0  0  0  0  0  0  0
    8.1306   -7.8874    0.0000 O   0  0  0  0  0  0  0  0  0  0  0  0
    8.1437   -5.4125    0.0000 O   0  0  0  0  0  0  0  0  0  0  0  0
    7.4270   -5.8212    0.0000 C   0  0  0  0  0  0  0  0  0  0  0  0
    6.7147   -5.4050    0.0000 C   0  0  0  0  0  0  0  0  0  0  0  0
    5.9981   -5.8137    0.0000 C   0  0  0  0  0  0  0  0  0  0  0  0
    5.9938   -6.6387    0.0000 C   0  0  0  0  0  0  0  0  0  0  0  0
    6.7061   -7.0549    0.0000 C   0  0  0  0  0  0  0  0  0  0  0  0
    7.4227   -6.6462    0.0000 C   0  0  0  0  0  0  0  0  0  0  0  0
    8.1350   -7.0625    0.0000 C   0  0  0  0  0  0  0  0  0  0  0  0
    8.8516   -6.6537    0.0000 C   0  0  0  0  0  0  0  0  0  0  0  0
    8.8559   -5.8287    0.0000 C   0  0  0  0  0  0  0  0  0  0  0  0
    5.2815   -6.2224    0.0000 H   0  0  0  0  0  0  0  0  0  0  0  0
 30 17  1  0  0  0  0
 15 10  1  0  0  0  0
 14 11  1  0  0  0  0
 17 12  2  0  0  0  0
 13 12  1  0  0  0  0
 14 13  2  0  0  0  0
 15 14  1  0  0  0  0
 16 15  2  0  0  0  0
 17 16  1  0  0  0  0
 26 18  1  0  0  0  0
 24 19  1  0  0  0  0
  2 25  1  0  0  0  0
 28 20  2  0  0  0  0
 30 21  1  0  0  0  0
 22 21  1  0  0  0  0
 27 22  2  0  0  0  0
 23 22  1  0  0  0  0
 24 23  2  0  0  0  0
 25 24  1  0  0  0  0
 26 25  2  0  0  0  0
 27 26  1  0  0  0  0
 28 27  1  0  0  0  0
 29 28  1  0  0  0  0
 30 29  2  0  0  0  0
  1  2  1  0  0  0  0
  2  3  1  0  0  0  0
  3  4  1  0  0  0  0
  4  5  1  0  0  0  0
  5  6  1  0  0  0  0
  1  6  1  0  0  0  0
  5  7  1  1  0  0  0
  4  8  1  1  0  0  0
  3  9  1  6  0  0  0
  2 31  1  6  0  0  0
M  END
>  <cdx:groupId>
246

>  <cdx:fragmentId>
156

$$$$
