301655.cdx
  Mrv1902 05222410192D          

 32 33  0  0  0  0            999 V2000
    7.5117   -4.7940    0.0000 C   0  0  0  0  0  0  0  0  0  0  0  0
    8.3187   -4.9655    0.0000 C   0  0  0  0  0  0  0  0  0  0  0  0
    8.8707   -4.3524    0.0000 C   0  0  0  0  0  0  0  0  0  0  0  0
    8.6157   -3.5678    0.0000 C   0  0  0  0  0  0  0  0  0  0  0  0
    7.2567   -4.0094    0.0000 O   0  0  0  0  0  0  0  0  0  0  0  0
    6.9597   -5.4071    0.0000 O   0  0  0  0  0  0  0  0  0  0  0  0
    8.5736   -5.7501    0.0000 C   0  0  0  0  0  0  0  0  0  0  0  0
    8.7838   -7.5266    0.0000 O   0  0  0  0  0  0  0  0  0  0  0  0
    7.9992   -7.2716    0.0000 C   0  0  1  0  0  0  0  0  0  0  0  0
    7.9992   -6.4466    0.0000 C   0  0  2  0  0  0  0  0  0  0  0  0
    8.7838   -6.1917    0.0000 C   0  0  0  0  0  0  0  0  0  0  0  0
    9.2688   -6.8591    0.0000 C   0  0  0  0  0  0  0  0  0  0  0  0
    7.2146   -6.1917    0.0000 C   0  0  1  0  0  0  0  0  0  0  0  0
    6.7297   -6.8591    0.0000 C   0  0  2  0  0  0  0  0  0  0  0  0
    5.9055   -6.8221    0.0000 C   0  0  0  0  0  0  0  0  0  0  0  0
    5.3627   -7.4434    0.0000 C   0  0  0  0  0  0  0  0  0  0  0  0
    5.5100   -8.2551    0.0000 C   0  0  0  0  0  0  0  0  0  0  0  0
    6.2365   -8.6461    0.0000 C   0  0  0  0  0  0  0  0  0  0  0  0
    6.9951   -8.3218    0.0000 C   0  0  0  0  0  0  0  0  0  0  0  0
    7.2146   -7.5266    0.0000 C   0  0  0  0  0  0  0  0  0  0  0  0
   10.0938   -6.8591    0.0000 O   0  0  0  0  0  0  0  0  0  0  0  0
    9.0388   -5.4071    0.0000 C   0  0  0  0  0  0  0  0  0  0  0  0
    7.6164   -8.8646    0.0000 C   0  0  0  0  0  0  0  0  0  0  0  0
    8.3971   -8.5980    0.0000 O   0  0  0  0  0  0  0  0  0  0  0  0
    5.5813   -6.0635    0.0000 C   0  0  0  0  0  0  0  0  0  0  0  0
    4.7622   -5.9650    0.0000 O   0  0  0  0  0  0  0  0  0  0  0  0
    5.8222   -5.2873    0.0000 O   0  0  0  0  0  0  0  0  0  0  0  0
    6.2347   -4.5728    0.0000 C   0  0  0  0  0  0  0  0  0  0  0  0
    7.0597   -4.5728    0.0000 O   0  0  0  0  0  0  0  0  0  0  0  0
    5.8222   -3.8584    0.0000 C   0  0  0  0  0  0  0  0  0  0  0  0
    7.9992   -5.6216    0.0000 H   0  0  0  0  0  0  0  0  0  0  0  0
    7.9992   -8.0966    0.0000 H   0  0  0  0  0  0  0  0  0  0  0  0
  1  2  1  0  0  0  0
  2  3  2  0  0  0  0
  3  4  1  0  0  0  0
  1  5  2  0  0  0  0
  1  6  1  0  0  0  0
  2  7  1  0  0  0  0
  8  9  1  0  0  0  0
  9 10  1  0  0  0  0
 10 11  1  0  0  0  0
 11 12  1  0  0  0  0
  8 12  1  0  0  0  0
 13 14  1  0  0  0  0
 14 15  1  0  0  0  0
 15 16  2  0  0  0  0
 16 17  1  0  0  0  0
 17 18  1  0  0  0  0
 18 19  1  0  0  0  0
 19 20  2  0  0  0  0
 20  9  1  0  0  0  0
 13 10  1  0  0  0  0
 12 21  2  0  0  0  0
 11 22  2  0  0  0  0
 23 24  1  0  0  0  0
 19 23  1  0  0  0  0
 25 26  2  0  0  0  0
 15 25  1  0  0  0  0
 28 29  2  0  0  0  0
 28 30  1  0  0  0  0
 27 28  1  0  0  0  0
 14 27  1  1  0  0  0
 13  6  1  1  0  0  0
 10 31  1  6  0  0  0
  9 32  1  1  0  0  0
M  END
>  <cdx:groupId>
1597

>  <cdx:fragmentId>
1527

$$$$
