301692.cdx
  Mrv1902 05222410192D          

 76 77  0  0  0  0            999 V2000
   30.0229   -5.6031    0.0000 C   0  0  0  0  0  0  0  0  0  0  0  0
   30.7373   -5.1906    0.0000 C   0  0  0  0  0  0  0  0  0  0  0  0
   31.4518   -5.6031    0.0000 C   0  0  0  0  0  0  0  0  0  0  0  0
   32.1663   -5.1906    0.0000 C   0  0  0  0  0  0  0  0  0  0  0  0
   32.8807   -5.6031    0.0000 C   0  0  0  0  0  0  0  0  0  0  0  0
   33.5952   -5.1906    0.0000 C   0  0  0  0  0  0  0  0  0  0  0  0
   34.3097   -5.6031    0.0000 C   0  0  0  0  0  0  0  0  0  0  0  0
   35.0242   -5.1906    0.0000 C   0  0  0  0  0  0  0  0  0  0  0  0
   35.7386   -5.6031    0.0000 C   0  0  0  0  0  0  0  0  0  0  0  0
   36.4531   -5.1906    0.0000 C   0  0  0  0  0  0  0  0  0  0  0  0
   37.1676   -5.6031    0.0000 C   0  0  0  0  0  0  0  0  0  0  0  0
   37.8820   -5.1906    0.0000 C   0  0  0  0  0  0  0  0  0  0  0  0
   38.5965   -5.6031    0.0000 C   0  0  0  0  0  0  0  0  0  0  0  0
   39.3110   -5.1906    0.0000 C   0  0  0  0  0  0  0  0  0  0  0  0
   40.0255   -5.6031    0.0000 C   0  0  0  0  0  0  0  0  0  0  0  0
   40.7399   -5.1906    0.0000 C   0  0  0  0  0  0  0  0  0  0  0  0
   30.0229   -6.4281    0.0000 O   0  0  0  0  0  0  0  0  0  0  0  0
   29.3084   -5.1906    0.0000 O   0  0  0  0  0  0  0  0  0  0  0  0
   28.5939   -5.6031    0.0000 C   0  0  0  0  0  0  0  0  0  0  0  0
   28.5939   -6.4281    0.0000 C   0  0  0  0  0  0  0  0  0  0  0  0
   27.8794   -6.8406    0.0000 C   0  0  0  0  0  0  0  0  0  0  0  0
   27.1650   -6.4281    0.0000 C   0  0  0  0  0  0  0  0  0  0  0  0
   27.1650   -5.6031    0.0000 C   0  0  0  0  0  0  0  0  0  0  0  0
   27.8794   -5.1906    0.0000 C   0  0  0  0  0  0  0  0  0  0  0  0
   26.3400   -5.6031    0.0000 C   0  0  0  0  0  0  0  0  0  0  0  0
   26.7525   -4.8887    0.0000 C   0  0  0  0  0  0  0  0  0  0  0  0
   27.8794   -7.6656    0.0000 C   0  0  0  0  0  0  0  0  0  0  0  0
   26.4505   -6.8406    0.0000 C   0  0  0  0  0  0  0  0  0  0  0  0
   25.7360   -6.4281    0.0000 C   0  0  0  0  0  0  0  0  0  0  0  0
   25.0216   -6.8406    0.0000 C   0  0  0  0  0  0  0  0  0  0  0  0
   24.3071   -6.4281    0.0000 C   0  0  0  0  0  0  0  0  0  0  0  0
   23.5926   -6.8406    0.0000 C   0  0  0  0  0  0  0  0  0  0  0  0
   22.8781   -6.4281    0.0000 C   0  0  0  0  0  0  0  0  0  0  0  0
   22.1637   -6.8406    0.0000 C   0  0  0  0  0  0  0  0  0  0  0  0
   21.4492   -6.4281    0.0000 C   0  0  0  0  0  0  0  0  0  0  0  0
   20.7347   -6.8406    0.0000 C   0  0  0  0  0  0  0  0  0  0  0  0
   20.0203   -6.4281    0.0000 C   0  0  0  0  0  0  0  0  0  0  0  0
   19.3058   -6.8406    0.0000 C   0  0  0  0  0  0  0  0  0  0  0  0
   18.5913   -6.4281    0.0000 C   0  0  0  0  0  0  0  0  0  0  0  0
   17.8769   -6.8406    0.0000 C   0  0  0  0  0  0  0  0  0  0  0  0
   17.1624   -6.4281    0.0000 C   0  0  0  0  0  0  0  0  0  0  0  0
   16.4479   -6.8406    0.0000 C   0  0  0  0  0  0  0  0  0  0  0  0
   15.7334   -6.4281    0.0000 C   0  0  0  0  0  0  0  0  0  0  0  0
   15.0190   -6.8406    0.0000 C   0  0  0  0  0  0  0  0  0  0  0  0
   14.3045   -6.4281    0.0000 C   0  0  0  0  0  0  0  0  0  0  0  0
   15.7334   -5.6031    0.0000 C   0  0  0  0  0  0  0  0  0  0  0  0
   18.5913   -5.6031    0.0000 C   0  0  0  0  0  0  0  0  0  0  0  0
   22.1637   -7.6656    0.0000 C   0  0  0  0  0  0  0  0  0  0  0  0
   25.0216   -7.6656    0.0000 C   0  0  0  0  0  0  0  0  0  0  0  0
   13.5900   -6.8406    0.0000 C   0  0  0  0  0  0  0  0  0  0  0  0
   12.8756   -6.4281    0.0000 C   0  0  0  0  0  0  0  0  0  0  0  0
   12.1611   -6.8406    0.0000 C   0  0  0  0  0  0  0  0  0  0  0  0
   12.1611   -7.6656    0.0000 C   0  0  0  0  0  0  0  0  0  0  0  0
   12.8756   -8.0781    0.0000 C   0  0  0  0  0  0  0  0  0  0  0  0
   13.5900   -7.6656    0.0000 C   0  0  0  0  0  0  0  0  0  0  0  0
   14.4150   -7.6656    0.0000 C   0  0  0  0  0  0  0  0  0  0  0  0
   14.0025   -8.3801    0.0000 C   0  0  0  0  0  0  0  0  0  0  0  0
   12.8756   -5.6031    0.0000 C   0  0  0  0  0  0  0  0  0  0  0  0
   11.4466   -8.0781    0.0000 O   0  0  0  0  0  0  0  0  0  0  0  0
   10.7321   -7.6656    0.0000 C   0  0  0  0  0  0  0  0  0  0  0  0
   10.0177   -8.0781    0.0000 C   0  0  0  0  0  0  0  0  0  0  0  0
    9.3032   -7.6656    0.0000 C   0  0  0  0  0  0  0  0  0  0  0  0
    8.5887   -8.0781    0.0000 C   0  0  0  0  0  0  0  0  0  0  0  0
    7.8743   -7.6656    0.0000 C   0  0  0  0  0  0  0  0  0  0  0  0
    7.1598   -8.0781    0.0000 C   0  0  0  0  0  0  0  0  0  0  0  0
    6.4453   -7.6656    0.0000 C   0  0  0  0  0  0  0  0  0  0  0  0
    5.7308   -8.0781    0.0000 C   0  0  0  0  0  0  0  0  0  0  0  0
    5.0164   -7.6656    0.0000 C   0  0  0  0  0  0  0  0  0  0  0  0
    4.3019   -8.0781    0.0000 C   0  0  0  0  0  0  0  0  0  0  0  0
    3.5874   -7.6656    0.0000 C   0  0  0  0  0  0  0  0  0  0  0  0
    2.8730   -8.0781    0.0000 C   0  0  0  0  0  0  0  0  0  0  0  0
    2.1585   -7.6656    0.0000 C   0  0  0  0  0  0  0  0  0  0  0  0
    1.4440   -8.0781    0.0000 C   0  0  0  0  0  0  0  0  0  0  0  0
    0.7295   -7.6656    0.0000 C   0  0  0  0  0  0  0  0  0  0  0  0
    0.0151   -8.0781    0.0000 C   0  0  0  0  0  0  0  0  0  0  0  0
   10.7321   -6.8406    0.0000 O   0  0  0  0  0  0  0  0  0  0  0  0
  1  2  1  0  0  0  0
  2  3  1  0  0  0  0
  3  4  1  0  0  0  0
  4  5  1  0  0  0  0
  5  6  1  0  0  0  0
  6  7  1  0  0  0  0
  7  8  1  0  0  0  0
  8  9  1  0  0  0  0
  9 10  1  0  0  0  0
 10 11  1  0  0  0  0
 11 12  1  0  0  0  0
 12 13  1  0  0  0  0
 13 14  1  0  0  0  0
 14 15  1  0  0  0  0
 15 16  1  0  0  0  0
  1 17  2  0  0  0  0
  1 18  1  0  0  0  0
 19 20  1  0  0  0  0
 20 21  1  0  0  0  0
 21 22  2  0  0  0  0
 22 23  1  0  0  0  0
 23 24  1  0  0  0  0
 19 24  1  0  0  0  0
 23 25  1  0  0  0  0
 23 26  1  0  0  0  0
 21 27  1  0  0  0  0
 28 29  2  0  0  0  0
 29 30  1  0  0  0  0
 30 31  2  0  0  0  0
 31 32  1  0  0  0  0
 32 33  2  0  0  0  0
 33 34  1  0  0  0  0
 34 35  2  0  0  0  0
 35 36  1  0  0  0  0
 36 37  2  0  0  0  0
 37 38  1  0  0  0  0
 38 39  2  0  0  0  0
 39 40  1  0  0  0  0
 40 41  2  0  0  0  0
 41 42  1  0  0  0  0
 42 43  2  0  0  0  0
 43 44  1  0  0  0  0
 44 45  2  0  0  0  0
 43 46  1  0  0  0  0
 39 47  1  0  0  0  0
 34 48  1  0  0  0  0
 30 49  1  0  0  0  0
 50 51  1  0  0  0  0
 51 52  2  0  0  0  0
 52 53  1  0  0  0  0
 53 54  1  0  0  0  0
 54 55  1  0  0  0  0
 50 55  1  0  0  0  0
 55 56  1  0  0  0  0
 55 57  1  0  0  0  0
 51 58  1  0  0  0  0
 60 61  1  0  0  0  0
 61 62  1  0  0  0  0
 62 63  1  0  0  0  0
 63 64  1  0  0  0  0
 64 65  1  0  0  0  0
 65 66  1  0  0  0  0
 66 67  1  0  0  0  0
 67 68  1  0  0  0  0
 68 69  1  0  0  0  0
 69 70  1  0  0  0  0
 70 71  1  0  0  0  0
 71 72  1  0  0  0  0
 72 73  1  0  0  0  0
 73 74  1  0  0  0  0
 74 75  1  0  0  0  0
 60 76  2  0  0  0  0
 59 60  1  0  0  0  0
 53 59  1  0  0  0  0
 45 50  1  0  0  0  0
 22 28  1  0  0  0  0
 18 19  1  0  0  0  0
M  END
>  <cdx:groupId>
5005

>  <cdx:fragmentId>
4897

$$$$
