301644.cdx
  Mrv1902 05222410192D          

 40 46  0  0  0  0            999 V2000
    5.8256  -11.2347    0.0000 H   0  0  0  0  0  0  0  0  0  0  0  0
    6.5506  -10.0009    0.0000 H   0  0  0  0  0  0  0  0  0  0  0  0
    5.3109   -4.5386    0.0000 C   0  0  0  0  0  0  0  0  0  0  0  0
    6.7101   -4.2486    0.0000 O   0  0  0  0  0  0  0  0  0  0  0  0
    6.0942   -4.7975    0.0000 C   0  0  0  0  0  0  0  0  0  0  0  0
    7.6608   -5.3154    0.0000 O   0  0  0  0  0  0  0  0  0  0  0  0
    6.1428   -7.7865    0.0000 O   0  0  0  0  0  0  0  0  0  0  0  0
    4.6950   -5.0874    0.0000 C   0  0  0  0  0  0  0  0  0  0  0  0
    4.8624   -5.8953    0.0000 O   0  0  0  0  0  0  0  0  0  0  0  0
    5.8340   -8.7598    0.0000 C   0  0  0  0  0  0  0  0  0  0  0  0
    5.5220  -11.5352    0.0000 C   0  0  0  0  0  0  0  0  0  0  0  0
    4.6971  -11.5310    0.0000 C   0  0  0  0  0  0  0  0  0  0  0  0
    9.1575   -9.6525    0.0000 O   0  0  0  0  0  0  0  0  0  0  0  0
    9.6308   -7.8233    0.0000 O   0  0  0  0  0  0  0  0  0  0  0  0
    8.3325   -9.6525    0.0000 C   0  0  0  0  0  0  0  0  0  0  0  0
    8.0025  -10.0375    0.0000 O   0  0  0  0  0  0  0  0  0  0  0  0
    7.2587  -10.4171    0.0000 C   0  0  0  0  0  0  0  0  0  0  0  0
    6.5421  -10.8259    0.0000 C   0  0  0  0  0  0  0  0  0  0  0  0
    5.8298  -10.4098    0.0000 C   0  0  2  0  0  0  0  0  0  0  0  0
    5.1132  -10.8186    0.0000 C   0  0  0  0  0  0  0  0  0  0  0  0
    4.4008  -10.4025    0.0000 C   0  0  0  0  0  0  0  0  0  0  0  0
    4.4051   -9.5775    0.0000 C   0  0  0  0  0  0  0  0  0  0  0  0
    5.1216   -9.1686    0.0000 C   0  0  0  0  0  0  0  0  0  0  0  0
    5.8340   -9.5848    0.0000 C   0  0  2  0  0  0  0  0  0  0  0  0
    6.5506   -9.1759    0.0000 C   0  0  2  0  0  0  0  0  0  0  0  0
    6.7262   -8.3698    0.0000 C   0  0  2  0  0  0  0  0  0  0  0  0
    7.5471   -8.2878    0.0000 C   0  0  0  0  0  0  0  0  0  0  0  0
    6.7638   -8.0289    0.0000 O   0  0  0  0  0  0  0  0  0  0  0  0
    6.5964   -7.2210    0.0000 C   0  0  0  0  0  0  0  0  0  0  0  0
    5.8131   -6.9621    0.0000 C   0  0  0  0  0  0  0  0  0  0  0  0
    5.6457   -6.1542    0.0000 C   0  0  0  0  0  0  0  0  0  0  0  0
    6.2616   -5.6053    0.0000 C   0  0  0  0  0  0  0  0  0  0  0  0
    7.0449   -5.8643    0.0000 C   0  0  0  0  0  0  0  0  0  0  0  0
    7.2123   -6.6721    0.0000 C   0  0  0  0  0  0  0  0  0  0  0  0
    7.9956   -6.9311    0.0000 C   0  0  0  0  0  0  0  0  0  0  0  0
    8.1630   -7.7389    0.0000 C   0  0  0  0  0  0  0  0  0  0  0  0
    8.8754   -8.1550    0.0000 C   0  0  0  0  0  0  0  0  0  0  0  0
    8.6997   -8.9611    0.0000 O   0  0  0  0  0  0  0  0  0  0  0  0
    7.8788   -9.0432    0.0000 C   0  0  0  0  0  0  0  0  0  0  0  0
    7.2629   -9.5921    0.0000 C   0  0  1  0  0  0  0  0  0  0  0  0
 19  1  1  1  0  0  0
 25  2  1  1  0  0  0
 32  5  1  0  0  0  0
  5  3  1  0  0  0  0
  5  4  2  0  0  0  0
 33  6  1  0  0  0  0
 26  7  1  6  0  0  0
 31  9  1  0  0  0  0
  9  8  1  0  0  0  0
 24 10  1  6  0  0  0
 20 11  1  0  0  0  0
 20 12  1  0  0  0  0
 15 13  2  0  0  0  0
 37 14  2  0  0  0  0
 34 29  1  0  0  0  0
 39 27  1  0  0  0  0
 36 27  1  0  0  0  0
 40 25  1  0  0  0  0
 24 19  1  0  0  0  0
 26 15  1  0  0  0  0
 40 16  1  1  0  0  0
 40 17  1  0  0  0  0
 16 15  1  0  0  0  0
 18 17  1  0  0  0  0
 19 18  1  0  0  0  0
 20 19  1  0  0  0  0
 21 20  1  0  0  0  0
 22 21  1  0  0  0  0
 23 22  1  0  0  0  0
 24 23  1  0  0  0  0
 25 24  1  0  0  0  0
 26 25  1  0  0  0  0
 27 26  1  0  0  0  0
 28 27  1  0  0  0  0
 29 28  1  0  0  0  0
 30 29  2  0  0  0  0
 31 30  1  0  0  0  0
 32 31  2  0  0  0  0
 33 32  1  0  0  0  0
 34 33  2  0  0  0  0
 35 34  1  0  0  0  0
 36 35  2  0  0  0  0
 37 36  1  0  0  0  0
 38 37  1  0  0  0  0
 39 38  1  0  0  0  0
 40 39  1  0  0  0  0
M  END
>  <cdx:groupId>
616

>  <cdx:fragmentId>
490

$$$$
