301635.cdx
  Mrv1902 05222410202D          

 33 36  0  0  0  0            999 V2000
    6.0832   -9.7435    0.0000 O   0  0  0  0  0  0  0  0  0  0  0  0
    4.6543   -7.2685    0.0000 O   0  0  0  0  0  0  0  0  0  0  0  0
   11.0845   -6.0310    0.0000 O   0  0  0  0  0  0  0  0  0  0  0  0
    8.9411   -6.4435    0.0000 C   0  0  0  0  0  0  0  0  0  0  0  0
    9.6556   -6.0310    0.0000 C   0  0  0  0  0  0  0  0  0  0  0  0
   10.3700   -6.4435    0.0000 C   0  0  0  0  0  0  0  0  0  0  0  0
   10.3700   -7.2685    0.0000 C   0  0  0  0  0  0  0  0  0  0  0  0
    9.6556   -7.6810    0.0000 C   0  0  0  0  0  0  0  0  0  0  0  0
    8.9411   -7.2685    0.0000 C   0  0  0  0  0  0  0  0  0  0  0  0
    7.5122   -9.7435    0.0000 O   0  0  0  0  0  0  0  0  0  0  0  0
    7.5122   -7.2685    0.0000 O   0  0  0  0  0  0  0  0  0  0  0  0
    6.7977   -7.6810    0.0000 C   0  0  0  0  0  0  0  0  0  0  0  0
    6.0832   -7.2685    0.0000 C   0  0  0  0  0  0  0  0  0  0  0  0
    5.3688   -7.6810    0.0000 C   0  0  0  0  0  0  0  0  0  0  0  0
    5.3688   -8.5060    0.0000 C   0  0  0  0  0  0  0  0  0  0  0  0
    6.0832   -8.9185    0.0000 C   0  0  0  0  0  0  0  0  0  0  0  0
    6.7977   -8.5060    0.0000 C   0  0  0  0  0  0  0  0  0  0  0  0
    7.5122   -8.9185    0.0000 C   0  0  0  0  0  0  0  0  0  0  0  0
    8.2266   -8.5060    0.0000 C   0  0  0  0  0  0  0  0  0  0  0  0
    8.2266   -7.6810    0.0000 C   0  0  0  0  0  0  0  0  0  0  0  0
    3.2224   -8.9238    0.0000 C   0  0  1  0  0  0  0  0  0  0  0  0
    3.2224   -9.7487    0.0000 C   0  0  1  0  0  0  0  0  0  0  0  0
    3.9369  -10.1612    0.0000 C   0  0  2  0  0  0  0  0  0  0  0  0
    4.6514   -9.7487    0.0000 C   0  0  2  0  0  0  0  0  0  0  0  0
    4.6514   -8.9238    0.0000 C   0  0  1  0  0  0  0  0  0  0  0  0
    3.9369   -8.5113    0.0000 O   0  0  0  0  0  0  0  0  0  0  0  0
    2.5080  -10.1612    0.0000 O   0  0  0  0  0  0  0  0  0  0  0  0
    5.3658  -10.1612    0.0000 O   0  0  0  0  0  0  0  0  0  0  0  0
    3.9369  -10.9863    0.0000 O   0  0  0  0  0  0  0  0  0  0  0  0
   11.0845   -7.6810    0.0000 O   0  0  0  0  0  0  0  0  0  0  0  0
   11.7990   -6.4435    0.0000 C   0  0  0  0  0  0  0  0  0  0  0  0
    2.5080   -8.5113    0.0000 C   0  0  0  0  0  0  0  0  0  0  0  0
    4.6514   -8.0987    0.0000 H   0  0  0  0  0  0  0  0  0  0  0  0
 16  1  1  0  0  0  0
 14  2  1  0  0  0  0
 20  9  1  0  0  0  0
  6  3  1  0  0  0  0
  9  4  2  0  0  0  0
  5  4  1  0  0  0  0
  6  5  2  0  0  0  0
  7  6  1  0  0  0  0
  8  7  2  0  0  0  0
  9  8  1  0  0  0  0
 18 10  2  0  0  0  0
 20 11  1  0  0  0  0
 12 11  1  0  0  0  0
 17 12  2  0  0  0  0
 13 12  1  0  0  0  0
 14 13  2  0  0  0  0
 15 14  1  0  0  0  0
 16 15  2  0  0  0  0
 17 16  1  0  0  0  0
 18 17  1  0  0  0  0
 19 18  1  0  0  0  0
 20 19  2  0  0  0  0
 21 22  1  0  0  0  0
 22 23  1  0  0  0  0
 23 24  1  0  0  0  0
 24 25  1  0  0  0  0
 25 26  1  0  0  0  0
 26 21  1  0  0  0  0
 22 27  1  1  0  0  0
 24 28  1  6  0  0  0
 23 29  1  6  0  0  0
 15 25  1  0  0  0  0
  7 30  1  0  0  0  0
  3 31  1  0  0  0  0
 21 32  1  6  0  0  0
 25 33  1  6  0  0  0
M  END
>  <cdx:fragmentId>
5

$$$$
