301614.cdx
  Mrv1902 05222410232D          

 51 56  0  0  0  0            999 V2000
   10.2528   -8.2012    0.0000 C   0  0  0  0  0  0  0  0  0  0  0  0
   10.2410   -9.0262    0.0000 C   0  0  0  0  0  0  0  0  0  0  0  0
   10.9495   -9.4488    0.0000 C   0  0  0  0  0  0  0  0  0  0  0  0
   11.6698   -9.0466    0.0000 C   0  0  0  0  0  0  0  0  0  0  0  0
    4.1290   -6.7111    0.0000 O   0  0  0  0  0  0  0  0  0  0  0  0
    2.7355   -4.2159    0.0000 O   0  0  0  0  0  0  0  0  0  0  0  0
    5.5578   -6.7315    0.0000 O   0  0  0  0  0  0  0  0  0  0  0  0
    4.8728   -4.6590    0.0000 C   0  0  0  0  0  0  0  0  0  0  0  0
    4.1643   -4.2364    0.0000 C   0  0  0  0  0  0  0  0  0  0  0  0
    3.4441   -4.6386    0.0000 C   0  0  0  0  0  0  0  0  0  0  0  0
    3.4323   -5.4635    0.0000 C   0  0  0  0  0  0  0  0  0  0  0  0
    4.1408   -5.8862    0.0000 C   0  0  0  0  0  0  0  0  0  0  0  0
    4.8611   -5.4839    0.0000 C   0  0  0  0  0  0  0  0  0  0  0  0
    5.5696   -5.9066    0.0000 C   0  0  0  0  0  0  0  0  0  0  0  0
    6.7574   -2.7883    0.0000 O   0  0  0  0  0  0  0  0  0  0  0  0
    3.8998   -2.7474    0.0000 O   0  0  0  0  0  0  0  0  0  0  0  0
    5.3050   -4.4177    0.0000 C   0  0  0  0  0  0  0  0  0  0  0  0
    4.5965   -3.9950    0.0000 C   0  0  0  0  0  0  0  0  0  0  0  0
    4.6083   -3.1701    0.0000 C   0  0  0  0  0  0  0  0  0  0  0  0
    5.3286   -2.7678    0.0000 C   0  0  0  0  0  0  0  0  0  0  0  0
    6.0371   -3.1905    0.0000 C   0  0  0  0  0  0  0  0  0  0  0  0
    6.0253   -4.0154    0.0000 C   0  0  0  0  0  0  0  0  0  0  0  0
    8.8829   -4.0563    0.0000 C   0  0  0  0  0  0  0  0  0  0  0  0
    6.7220   -5.2630    0.0000 C   0  0  1  0  0  0  0  0  0  0  0  0
    6.7338   -4.4381    0.0000 C   0  0  1  0  0  0  0  0  0  0  0  0
    7.4541   -4.0358    0.0000 C   0  0  0  0  0  0  0  0  0  0  0  0
    8.1626   -4.4585    0.0000 C   0  0  0  0  0  0  0  0  0  0  0  0
    8.1508   -5.2834    0.0000 C   0  0  0  0  0  0  0  0  0  0  0  0
    7.4305   -5.6857    0.0000 C   0  0  2  0  0  0  0  0  0  0  0  0
    9.5796   -5.3038    0.0000 O   0  0  0  0  0  0  0  0  0  0  0  0
   12.4372   -5.3447    0.0000 O   0  0  0  0  0  0  0  0  0  0  0  0
   10.9848   -6.9741    0.0000 C   0  0  0  0  0  0  0  0  0  0  0  0
   11.7051   -6.5718    0.0000 C   0  0  0  0  0  0  0  0  0  0  0  0
   11.7169   -5.7469    0.0000 C   0  0  0  0  0  0  0  0  0  0  0  0
   11.0084   -5.3243    0.0000 C   0  0  0  0  0  0  0  0  0  0  0  0
   10.2881   -5.7265    0.0000 C   0  0  0  0  0  0  0  0  0  0  0  0
   10.2763   -6.5514    0.0000 C   0  0  0  0  0  0  0  0  0  0  0  0
    7.3834   -8.9853    0.0000 O   0  0  0  0  0  0  0  0  0  0  0  0
    5.9899   -6.4902    0.0000 O   0  0  0  0  0  0  0  0  0  0  0  0
   10.9377  -10.2737    0.0000 C   0  0  0  0  0  0  0  0  0  0  0  0
    8.8122   -9.0057    0.0000 O   0  0  0  0  0  0  0  0  0  0  0  0
    8.8475   -6.5310    0.0000 O   0  0  0  0  0  0  0  0  0  0  0  0
    8.1273   -6.9332    0.0000 C   0  0  0  0  0  0  0  0  0  0  0  0
    7.4187   -6.5106    0.0000 C   0  0  0  0  0  0  0  0  0  0  0  0
    6.6985   -6.9128    0.0000 C   0  0  0  0  0  0  0  0  0  0  0  0
    6.6867   -7.7377    0.0000 C   0  0  0  0  0  0  0  0  0  0  0  0
    7.3952   -8.1604    0.0000 C   0  0  0  0  0  0  0  0  0  0  0  0
    8.1155   -7.7582    0.0000 C   0  0  0  0  0  0  0  0  0  0  0  0
    8.8240   -8.1808    0.0000 C   0  0  0  0  0  0  0  0  0  0  0  0
    9.5443   -7.7786    0.0000 C   0  0  0  0  0  0  0  0  0  0  0  0
    9.5560   -6.9537    0.0000 C   0  0  0  0  0  0  0  0  0  0  0  0
 29 44  1  6  0  0  0
 24 14  1  1  0  0  0
 12  5  1  0  0  0  0
 10  6  1  0  0  0  0
 14  7  2  0  0  0  0
 13  8  2  0  0  0  0
  9  8  1  0  0  0  0
 10  9  2  0  0  0  0
 11 10  1  0  0  0  0
 12 11  2  0  0  0  0
 13 12  1  0  0  0  0
 14 13  1  0  0  0  0
 25 22  1  6  0  0  0
 21 15  1  0  0  0  0
 19 16  1  0  0  0  0
 22 17  2  0  0  0  0
 18 17  1  0  0  0  0
 19 18  2  0  0  0  0
 20 19  1  0  0  0  0
 21 20  2  0  0  0  0
 22 21  1  0  0  0  0
 27 23  1  0  0  0  0
 29 24  1  0  0  0  0
 25 24  1  0  0  0  0
 26 25  1  0  0  0  0
 27 26  1  0  0  0  0
 28 27  2  0  0  0  0
 29 28  1  0  0  0  0
 51 37  1  0  0  0  0
 36 30  1  0  0  0  0
 34 31  1  0  0  0  0
 37 32  2  0  0  0  0
 33 32  1  0  0  0  0
 34 33  2  0  0  0  0
 35 34  1  0  0  0  0
 36 35  2  0  0  0  0
 37 36  1  0  0  0  0
 47 38  1  0  0  0  0
 45 39  1  0  0  0  0
 50  1  1  0  0  0  0
 49 41  2  0  0  0  0
 51 42  1  0  0  0  0
 43 42  1  0  0  0  0
 48 43  2  0  0  0  0
 44 43  1  0  0  0  0
 45 44  2  0  0  0  0
 46 45  1  0  0  0  0
 47 46  2  0  0  0  0
 48 47  1  0  0  0  0
 49 48  1  0  0  0  0
 50 49  1  0  0  0  0
 51 50  2  0  0  0  0
  1  2  1  0  0  0  0
  2  3  2  0  0  0  0
  3  4  1  0  0  0  0
  3 40  1  0  0  0  0
M  END
>  <cdx:fragmentId>
5

$$$$
