301757.cdx
  Mrv1902 05222410222D          

  2  1  0  0  0  0            999 V2000
    6.8672   -8.1554    0.0000 C   0  0  0  0  0  0  0  0  0  0  0  0
    7.6922   -8.1554    0.0000 S   0  0  0  0  0  0  0  0  0  0  0  0
  1  2  1  0  0  0  0
M  END
>  <cdx:groupId>
5088

>  <cdx:fragmentId>
5086

$$$$
