301715.cdx
  Mrv1902 05222410272D          

 20 20  0  0  0  0            999 V2000
    8.4967   -6.2298    0.0000 C   0  0  0  0  0  0  0  0  0  0  0  0
    8.4967   -5.4048    0.0000 C   0  0  0  0  0  0  0  0  0  0  0  0
    7.7822   -4.9923    0.0000 C   0  0  0  0  0  0  0  0  0  0  0  0
    7.0678   -5.4048    0.0000 C   0  0  0  0  0  0  0  0  0  0  0  0
    7.0678   -6.2298    0.0000 C   0  0  0  0  0  0  0  0  0  0  0  0
    7.7822   -6.6423    0.0000 C   0  0  0  0  0  0  0  0  0  0  0  0
    9.2112   -6.6423    0.0000 C   0  0  0  0  0  0  0  0  0  0  0  0
    9.9256   -6.2298    0.0000 C   0  0  0  0  0  0  0  0  0  0  0  0
   10.6401   -6.6423    0.0000 C   0  0  0  0  0  0  0  0  0  0  0  0
   11.3546   -6.2298    0.0000 C   0  0  0  0  0  0  0  0  0  0  0  0
   12.0691   -6.6423    0.0000 C   0  0  0  0  0  0  0  0  0  0  0  0
   11.3546   -5.4048    0.0000 C   0  0  0  0  0  0  0  0  0  0  0  0
    6.3533   -7.4673    0.0000 C   0  0  0  0  0  0  0  0  0  0  0  0
    6.3533   -6.6423    0.0000 C   0  0  0  0  0  0  0  0  0  0  0  0
    5.6388   -6.2298    0.0000 C   0  0  0  0  0  0  0  0  0  0  0  0
    4.9244   -6.6423    0.0000 C   0  0  0  0  0  0  0  0  0  0  0  0
    4.2099   -6.2298    0.0000 C   0  0  0  0  0  0  0  0  0  0  0  0
    3.4954   -6.6423    0.0000 C   0  0  0  0  0  0  0  0  0  0  0  0
    3.4954   -7.4673    0.0000 C   0  0  0  0  0  0  0  0  0  0  0  0
    2.7809   -6.2298    0.0000 C   0  0  0  0  0  0  0  0  0  0  0  0
  1  2  2  0  0  0  0
  2  3  1  0  0  0  0
  3  4  1  0  0  0  0
  4  5  1  0  0  0  0
  5  6  1  0  0  0  0
  1  6  1  0  0  0  0
  7  8  1  0  0  0  0
  8  9  1  0  0  0  0
  9 10  2  0  0  0  0
 10 11  1  0  0  0  0
 10 12  1  0  0  0  0
  1  7  1  0  0  0  0
 13 14  2  0  0  0  0
 14 15  1  0  0  0  0
 15 16  1  0  0  0  0
 16 17  1  0  0  0  0
 17 18  2  0  0  0  0
 18 19  1  0  0  0  0
 18 20  1  0  0  0  0
  5 14  1  0  0  0  0
M  END
>  <cdx:groupId>
1131

>  <cdx:fragmentId>
1074

$$$$
