301768.cdx
  Mrv1902 05222410212D          

  9  8  0  0  0  0            999 V2000
    8.1395   -8.0041    0.0000 C   0  0  0  0  0  0  0  0  0  0  0  0
    7.4250   -8.4166    0.0000 C   0  0  0  0  0  0  0  0  0  0  0  0
    6.7105   -8.0041    0.0000 C   0  0  0  0  0  0  0  0  0  0  0  0
    5.9961   -8.4166    0.0000 C   0  0  0  0  0  0  0  0  0  0  0  0
    5.9961   -9.2416    0.0000 C   0  0  0  0  0  0  0  0  0  0  0  0
    8.1395   -7.1791    0.0000 O   0  0  0  0  0  0  0  0  0  0  0  0
    8.8539   -8.4166    0.0000 O   0  0  0  0  0  0  0  0  0  0  0  0
    5.2816   -8.0041    0.0000 C   0  0  0  0  0  0  0  0  0  0  0  0
    9.5684   -8.0041    0.0000 C   0  0  0  0  0  0  0  0  0  0  0  0
  1  2  1  0  0  0  0
  2  3  2  0  0  0  0
  3  4  1  0  0  0  0
  4  5  1  0  0  0  0
  1  6  2  0  0  0  0
  1  7  1  0  0  0  0
  4  8  1  0  0  0  0
  7  9  1  0  0  0  0
M  END
>  <cdx:groupId>
5513

>  <cdx:fragmentId>
5490

$$$$
