301773.cdx
  Mrv1902 05222410252D          

 23 22  0  0  0  0            999 V2000
   14.0353   -8.3616    0.0000 C   0  0  0  0  0  0  0  0  0  0  0  0
   13.3208   -8.7741    0.0000 C   0  0  0  0  0  0  0  0  0  0  0  0
   12.6064   -8.3616    0.0000 C   0  0  0  0  0  0  0  0  0  0  0  0
   11.8919   -8.7741    0.0000 C   0  0  0  0  0  0  0  0  0  0  0  0
   11.1774   -8.3616    0.0000 C   0  0  0  0  0  0  0  0  0  0  0  0
   10.3524   -8.3616    0.0000 C   0  0  0  0  0  0  0  0  0  0  0  0
    9.6380   -8.7741    0.0000 C   0  0  0  0  0  0  0  0  0  0  0  0
    8.9235   -8.3616    0.0000 C   0  0  0  0  0  0  0  0  0  0  0  0
    8.0985   -8.3616    0.0000 C   0  0  0  0  0  0  0  0  0  0  0  0
    7.3840   -8.7741    0.0000 C   0  0  0  0  0  0  0  0  0  0  0  0
    6.6695   -8.3616    0.0000 C   0  0  0  0  0  0  0  0  0  0  0  0
    5.8445   -8.3616    0.0000 C   0  0  0  0  0  0  0  0  0  0  0  0
    5.1301   -8.7741    0.0000 C   0  0  0  0  0  0  0  0  0  0  0  0
    4.4156   -8.3616    0.0000 C   0  0  0  0  0  0  0  0  0  0  0  0
    3.5906   -8.3616    0.0000 C   0  0  0  0  0  0  0  0  0  0  0  0
    2.8761   -8.7741    0.0000 C   0  0  0  0  0  0  0  0  0  0  0  0
    2.1617   -8.3616    0.0000 C   0  0  0  0  0  0  0  0  0  0  0  0
    1.4472   -8.7741    0.0000 C   0  0  0  0  0  0  0  0  0  0  0  0
    0.7327   -8.3616    0.0000 C   0  0  0  0  0  0  0  0  0  0  0  0
    0.0182   -8.7741    0.0000 C   0  0  0  0  0  0  0  0  0  0  0  0
   14.0353   -7.5366    0.0000 O   0  0  0  0  0  0  0  0  0  0  0  0
   14.7498   -8.7741    0.0000 O   0  0  0  0  0  0  0  0  0  0  0  0
   15.4643   -8.3616    0.0000 C   0  0  0  0  0  0  0  0  0  0  0  0
  1  2  1  0  0  0  0
  2  3  1  0  0  0  0
  3  4  1  0  0  0  0
  4  5  1  0  0  0  0
  5  6  2  0  0  0  0
  6  7  1  0  0  0  0
  7  8  1  0  0  0  0
  8  9  2  0  0  0  0
  9 10  1  0  0  0  0
 10 11  1  0  0  0  0
 11 12  2  0  0  0  0
 12 13  1  0  0  0  0
 13 14  1  0  0  0  0
 14 15  2  0  0  0  0
 15 16  1  0  0  0  0
 16 17  1  0  0  0  0
 17 18  1  0  0  0  0
 18 19  1  0  0  0  0
 19 20  1  0  0  0  0
  1 21  2  0  0  0  0
  1 22  1  0  0  0  0
 22 23  1  0  0  0  0
M  END
>  <cdx:groupId>
5722

>  <cdx:fragmentId>
5657

$$$$
