301719.cdx
  Mrv1902 05222410202D          

 19 20  0  0  0  0            999 V2000
   10.4020   -7.8143    0.0000 O   0  0  0  0  0  0  0  0  0  0  0  0
    9.5770   -7.8188    0.0000 C   0  0  0  0  0  0  0  0  0  0  0  0
    9.1607   -7.1066    0.0000 C   0  0  0  0  0  0  0  0  0  0  0  0
    8.3357   -7.1111    0.0000 C   0  0  0  0  0  0  0  0  0  0  0  0
    7.9193   -6.3989    0.0000 C   0  0  0  0  0  0  0  0  0  0  0  0
    8.3279   -5.6822    0.0000 C   0  0  0  0  0  0  0  0  0  0  0  0
    9.1529   -5.6777    0.0000 C   0  0  0  0  0  0  0  0  0  0  0  0
    9.5693   -6.3899    0.0000 C   0  0  0  0  0  0  0  0  0  0  0  0
    7.9115   -4.9699    0.0000 O   0  0  0  0  0  0  0  0  0  0  0  0
    4.2185   -8.5624    0.0000 C   0  0  0  0  0  0  0  0  0  0  0  0
    4.6271   -7.8457    0.0000 C   0  0  0  0  0  0  0  0  0  0  0  0
    5.4521   -7.8412    0.0000 C   0  0  0  0  0  0  0  0  0  0  0  0
    6.6779   -5.6911    0.0000 C   0  0  0  0  0  0  0  0  0  0  0  0
    5.8529   -5.6956    0.0000 C   0  0  0  0  0  0  0  0  0  0  0  0
    5.4443   -6.4123    0.0000 C   0  0  0  0  0  0  0  0  0  0  0  0
    5.8607   -7.1245    0.0000 C   0  0  0  0  0  0  0  0  0  0  0  0
    6.6857   -7.1200    0.0000 C   0  0  0  0  0  0  0  0  0  0  0  0
    7.0943   -6.4033    0.0000 C   0  0  0  0  0  0  0  0  0  0  0  0
    7.0865   -4.9744    0.0000 O   0  0  0  0  0  0  0  0  0  0  0  0
 16 12  1  0  0  0  0
 11 10  2  0  0  0  0
 12 11  1  0  0  0  0
 18 13  2  0  0  0  0
 14 13  1  0  0  0  0
 15 14  2  0  0  0  0
 16 15  1  0  0  0  0
 17 16  2  0  0  0  0
 18 17  1  0  0  0  0
  1  2  2  0  0  0  0
  3  4  1  0  0  0  0
  4  5  2  0  0  0  0
  5  6  1  0  0  0  0
  6  7  2  0  0  0  0
  7  8  1  0  0  0  0
  3  8  2  0  0  0  0
  5 18  1  0  0  0  0
  6  9  1  0  0  0  0
  2  3  1  0  0  0  0
 13 19  1  0  0  0  0
M  END
>  <cdx:fragmentId>
25

$$$$
