301799.cdx
  Mrv1902 05222410242D          

 29 33  0  0  0  0            999 V2000
    8.4232   -4.2370    0.0000 H   0  0  0  0  0  0  0  0  0  0  0  0
    6.9943   -6.7120    0.0000 H   0  0  0  0  0  0  0  0  0  0  0  0
    8.4232   -6.7120    0.0000 H   0  0  0  0  0  0  0  0  0  0  0  0
    9.1377   -3.8245    0.0000 C   0  0  0  0  0  0  0  0  0  0  0  0
    9.8522   -7.5370    0.0000 O   0  0  0  0  0  0  0  0  0  0  0  0
    8.4232   -7.5370    0.0000 O   0  0  0  0  0  0  0  0  0  0  0  0
    9.1377   -7.1245    0.0000 C   0  0  0  0  0  0  0  0  0  0  0  0
    9.8522   -5.0620    0.0000 O   0  0  0  0  0  0  0  0  0  0  0  0
    9.8522   -5.8870    0.0000 C   0  0  0  0  0  0  0  0  0  0  0  0
    9.1377   -6.2995    0.0000 C   0  0  0  0  0  0  0  0  0  0  0  0
    9.1377   -4.6495    0.0000 C   0  0  2  0  0  0  0  0  0  0  0  0
    6.9943   -5.8870    0.0000 C   0  0  2  0  0  0  0  0  0  0  0  0
    7.7087   -6.2995    0.0000 C   0  0  0  0  0  0  0  0  0  0  0  0
    8.4232   -5.8870    0.0000 C   0  0  1  0  0  0  0  0  0  0  0  0
    8.4232   -5.0620    0.0000 C   0  0  2  0  0  0  0  0  0  0  0  0
    7.7087   -4.6495    0.0000 C   0  0  0  0  0  0  0  0  0  0  0  0
    6.9943   -5.0620    0.0000 N   0  0  0  0  0  0  0  0  0  0  0  0
    6.2097   -4.8071    0.0000 C   0  0  0  0  0  0  0  0  0  0  0  0
    5.7247   -5.4745    0.0000 C   0  0  0  0  0  0  0  0  0  0  0  0
    6.2097   -6.1420    0.0000 C   0  0  2  0  0  0  0  0  0  0  0  0
    5.4250   -6.3969    0.0000 C   0  0  0  0  0  0  0  0  0  0  0  0
    5.4250   -7.2219    0.0000 N   0  0  0  0  0  0  0  0  0  0  0  0
    6.2097   -7.4769    0.0000 C   0  0  0  0  0  0  0  0  0  0  0  0
    6.6946   -6.8094    0.0000 C   0  0  0  0  0  0  0  0  0  0  0  0
    6.5452   -8.2305    0.0000 C   0  0  0  0  0  0  0  0  0  0  0  0
    7.3657   -8.3168    0.0000 C   0  0  0  0  0  0  0  0  0  0  0  0
    7.8506   -7.6493    0.0000 C   0  0  0  0  0  0  0  0  0  0  0  0
    7.5151   -6.8957    0.0000 C   0  0  0  0  0  0  0  0  0  0  0  0
    4.7576   -5.9120    0.0000 O   0  0  0  0  0  0  0  0  0  0  0  0
 15  1  1  1  0  0  0
 12  2  1  6  0  0  0
 14  3  1  6  0  0  0
 11  4  1  6  0  0  0
 10  7  1  0  0  0  0
  7  5  1  0  0  0  0
  7  6  2  0  0  0  0
 10 14  1  0  0  0  0
 11 15  1  0  0  0  0
 11  8  1  0  0  0  0
  9  8  1  0  0  0  0
 10  9  2  0  0  0  0
 17 12  1  0  0  0  0
 20 12  1  0  0  0  0
 13 12  1  0  0  0  0
 14 13  1  0  0  0  0
 15 14  1  0  0  0  0
 16 15  1  0  0  0  0
 17 16  1  0  0  0  0
 18 17  1  0  0  0  0
 19 18  1  0  0  0  0
 20 19  1  6  0  0  0
 20 21  1  0  0  0  0
 21 22  1  0  0  0  0
 22 23  1  0  0  0  0
 23 24  2  0  0  0  0
 24 20  1  0  0  0  0
 23 25  1  0  0  0  0
 25 26  2  0  0  0  0
 26 27  1  0  0  0  0
 27 28  2  0  0  0  0
 28 24  1  0  0  0  0
 21 29  2  0  0  0  0
M  END
>  <cdx:fragmentId>
1883

$$$$
