301766.cdx
  Mrv1902 05222410242D          

 16 15  0  0  0  0            999 V2000
   10.6401   -8.3616    0.0000 C   0  0  0  0  0  0  0  0  0  0  0  0
    9.9256   -8.7741    0.0000 C   0  0  0  0  0  0  0  0  0  0  0  0
    9.2112   -8.3616    0.0000 C   0  0  0  0  0  0  0  0  0  0  0  0
    8.4967   -8.7741    0.0000 C   0  0  0  0  0  0  0  0  0  0  0  0
    7.7822   -8.3616    0.0000 C   0  0  0  0  0  0  0  0  0  0  0  0
    7.0678   -8.7741    0.0000 C   0  0  0  0  0  0  0  0  0  0  0  0
    6.3533   -8.3616    0.0000 C   0  0  0  0  0  0  0  0  0  0  0  0
    5.6388   -8.7741    0.0000 C   0  0  0  0  0  0  0  0  0  0  0  0
    4.9244   -8.3616    0.0000 C   0  0  0  0  0  0  0  0  0  0  0  0
    4.2099   -8.7741    0.0000 C   0  0  0  0  0  0  0  0  0  0  0  0
    3.4954   -8.3616    0.0000 C   0  0  0  0  0  0  0  0  0  0  0  0
    2.7809   -8.7741    0.0000 C   0  0  0  0  0  0  0  0  0  0  0  0
   10.6401   -7.5366    0.0000 O   0  0  0  0  0  0  0  0  0  0  0  0
   11.3546   -8.7741    0.0000 O   0  0  0  0  0  0  0  0  0  0  0  0
    9.2112   -7.5366    0.0000 O   0  0  0  0  0  0  0  0  0  0  0  0
   12.0691   -8.3616    0.0000 C   0  0  0  0  0  0  0  0  0  0  0  0
  1  2  1  0  0  0  0
  2  3  1  0  0  0  0
  3  4  1  0  0  0  0
  4  5  1  0  0  0  0
  5  6  1  0  0  0  0
  6  7  1  0  0  0  0
  7  8  1  0  0  0  0
  8  9  1  0  0  0  0
  9 10  1  0  0  0  0
 10 11  1  0  0  0  0
 11 12  1  0  0  0  0
  1 13  2  0  0  0  0
  1 14  1  0  0  0  0
  3 15  1  0  0  0  0
 14 16  1  0  0  0  0
M  END
>  <cdx:groupId>
5453

>  <cdx:fragmentId>
5409

$$$$
