301709.cdx
  Mrv1902 05222410182D          

 20 23  0  0  0  0            999 V2000
    7.2439   -6.3983    0.0000 C   0  0  1  0  0  0  0  0  0  0  0  0
    7.2439   -7.2233    0.0000 C   0  0  1  0  0  0  0  0  0  0  0  0
    7.9584   -7.6358    0.0000 C   0  0  0  0  0  0  0  0  0  0  0  0
    8.6729   -7.2233    0.0000 C   0  0  2  0  0  0  0  0  0  0  0  0
    8.6729   -6.3983    0.0000 C   0  0  0  0  0  0  0  0  0  0  0  0
    7.9584   -5.9858    0.0000 C   0  0  1  0  0  0  0  0  0  0  0  0
    7.7494   -5.1885    0.0000 C   0  0  0  0  0  0  0  0  0  0  0  0
    6.9267   -5.1269    0.0000 C   0  0  0  0  0  0  0  0  0  0  0  0
    6.5989   -5.8839    0.0000 C   0  0  0  0  0  0  0  0  0  0  0  0
    5.7946   -6.0675    0.0000 C   0  0  0  0  0  0  0  0  0  0  0  0
    5.4367   -6.8108    0.0000 C   0  0  0  0  0  0  0  0  0  0  0  0
    5.7946   -7.5541    0.0000 C   0  0  0  0  0  0  0  0  0  0  0  0
    6.5989   -7.7377    0.0000 N   0  0  0  0  0  0  0  0  0  0  0  0
    6.1438   -7.3185    0.0000 C   0  0  0  0  0  0  0  0  0  0  0  0
    6.1585   -6.7000    0.0000 C   0  0  0  0  0  0  0  0  0  0  0  0
    6.6329   -6.3028    0.0000 C   0  0  0  0  0  0  0  0  0  0  0  0
    6.5142   -4.4124    0.0000 O   0  0  0  0  0  0  0  0  0  0  0  0
    9.3874   -7.6358    0.0000 C   0  0  0  0  0  0  0  0  0  0  0  0
    7.2439   -8.0483    0.0000 O   0  0  0  0  0  0  0  0  0  0  0  0
    8.6143   -5.4854    0.0000 H   0  0  0  0  0  0  0  0  0  0  0  0
  1  2  1  0  0  0  0
  2  3  1  0  0  0  0
  3  4  1  0  0  0  0
  4  5  1  0  0  0  0
  5  6  1  0  0  0  0
  6  7  1  0  0  0  0
  7  8  1  0  0  0  0
  8  9  1  0  0  0  0
  9 10  2  0  0  0  0
 10 11  1  0  0  0  0
 11 12  1  0  0  0  0
 12 13  1  0  0  0  0
 13 14  1  0  0  0  0
 14 15  1  0  0  0  0
 15 16  1  0  0  0  0
  1 16  1  1  0  0  0
  1  9  1  0  0  0  0
  2 13  1  0  0  0  0
  1  6  1  0  0  0  0
  8 17  2  0  0  0  0
  4 18  1  6  0  0  0
  2 19  1  6  0  0  0
  6 20  1  1  0  0  0
M  END
>  <cdx:groupId>
759

>  <cdx:fragmentId>
699

$$$$
