301749.cdx
  Mrv1902 05222410242D          

 39 43  0  0  0  0            999 V2000
    5.2816   -8.2463    0.0000 C   0  0  0  0  0  0  0  0  0  0  0  0
    4.5671   -8.6588    0.0000 C   0  0  1  0  0  0  0  0  0  0  0  0
    4.5671   -9.4838    0.0000 C   0  0  1  0  0  0  0  0  0  0  0  0
    5.2816   -9.8963    0.0000 C   0  0  1  0  0  0  0  0  0  0  0  0
    5.9961   -9.4838    0.0000 C   0  0  2  0  0  0  0  0  0  0  0  0
    6.7105   -9.8963    0.0000 C   0  0  0  0  0  0  0  0  0  0  0  0
    7.4250   -9.4838    0.0000 C   0  0  0  0  0  0  0  0  0  0  0  0
    7.4250   -8.6588    0.0000 C   0  0  1  0  0  0  0  0  0  0  0  0
    8.1395   -8.2463    0.0000 C   0  0  2  0  0  0  0  0  0  0  0  0
    8.8539   -8.6588    0.0000 C   0  0  0  0  0  0  0  0  0  0  0  0
    9.5684   -8.2463    0.0000 C   0  0  0  0  0  0  0  0  0  0  0  0
    9.5684   -7.4213    0.0000 C   0  0  1  0  0  0  0  0  0  0  0  0
   10.2829   -7.0088    0.0000 C   0  0  0  0  0  0  0  0  0  0  0  0
   10.2829   -6.1838    0.0000 C   0  0  0  0  0  0  0  0  0  0  0  0
    9.5684   -5.7713    0.0000 C   0  0  0  0  0  0  0  0  0  0  0  0
    8.8539   -6.1838    0.0000 C   0  0  0  0  0  0  0  0  0  0  0  0
    8.8539   -7.0088    0.0000 C   0  0  1  0  0  0  0  0  0  0  0  0
    8.1395   -7.4213    0.0000 C   0  0  0  0  0  0  0  0  0  0  0  0
    7.4250   -7.0088    0.0000 C   0  0  0  0  0  0  0  0  0  0  0  0
    6.7105   -7.4213    0.0000 C   0  0  0  0  0  0  0  0  0  0  0  0
    6.7105   -8.2463    0.0000 C   0  0  2  0  0  0  0  0  0  0  0  0
    5.9961   -8.6588    0.0000 C   0  0  1  0  0  0  0  0  0  0  0  0
   10.2829   -7.8338    0.0000 C   0  0  0  0  0  0  0  0  0  0  0  0
   10.2829   -8.6588    0.0000 O   0  0  0  0  0  0  0  0  0  0  0  0
   10.9974   -7.4213    0.0000 O   0  0  0  0  0  0  0  0  0  0  0  0
    5.9961   -7.8338    0.0000 C   0  0  0  0  0  0  0  0  0  0  0  0
    9.1559   -5.0568    0.0000 C   0  0  0  0  0  0  0  0  0  0  0  0
    9.9809   -5.0568    0.0000 C   0  0  0  0  0  0  0  0  0  0  0  0
    8.1395   -9.0713    0.0000 C   0  0  0  0  0  0  0  0  0  0  0  0
    7.4250   -7.8338    0.0000 C   0  0  0  0  0  0  0  0  0  0  0  0
    4.8691  -10.6108    0.0000 C   0  0  0  0  0  0  0  0  0  0  0  0
    3.8526   -9.8963    0.0000 O   0  0  0  0  0  0  0  0  0  0  0  0
    3.8526   -8.2463    0.0000 O   0  0  0  0  0  0  0  0  0  0  0  0
    5.9961  -10.3088    0.0000 H   0  0  0  0  0  0  0  0  0  0  0  0
    8.8539   -7.8338    0.0000 H   0  0  0  0  0  0  0  0  0  0  0  0
    6.7105   -9.0713    0.0000 H   0  0  0  0  0  0  0  0  0  0  0  0
    5.6941  -10.6108    0.0000 C   0  0  0  0  0  0  0  0  0  0  0  0
    5.2816  -11.3252    0.0000 O   0  0  0  0  0  0  0  0  0  0  0  0
    6.5191  -10.6108    0.0000 O   0  0  0  0  0  0  0  0  0  0  0  0
  1  2  1  0  0  0  0
  2  3  1  0  0  0  0
  3  4  1  0  0  0  0
  4  5  1  0  0  0  0
  5  6  1  0  0  0  0
  6  7  1  0  0  0  0
  7  8  1  0  0  0  0
  8  9  1  0  0  0  0
  9 10  1  0  0  0  0
 10 11  1  0  0  0  0
 11 12  1  0  0  0  0
 12 13  1  0  0  0  0
 13 14  1  0  0  0  0
 14 15  1  0  0  0  0
 15 16  1  0  0  0  0
 16 17  1  0  0  0  0
 12 17  1  0  0  0  0
 17 18  1  0  0  0  0
  9 18  1  0  0  0  0
 18 19  2  0  0  0  0
 19 20  1  0  0  0  0
 20 21  1  0  0  0  0
  8 21  1  0  0  0  0
 21 22  1  0  0  0  0
  5 22  1  0  0  0  0
  1 22  1  0  0  0  0
 23 24  2  0  0  0  0
 23 25  1  0  0  0  0
 12 23  1  1  0  0  0
 22 26  1  1  0  0  0
 15 27  1  0  0  0  0
 15 28  1  0  0  0  0
  9 29  1  6  0  0  0
  8 30  1  1  0  0  0
  4 31  1  1  0  0  0
  3 32  1  1  0  0  0
  2 33  1  1  0  0  0
  5 34  1  6  0  0  0
 17 35  1  1  0  0  0
 21 36  1  6  0  0  0
  4 37  1  0  0  0  0
 37 38  1  0  0  0  0
 37 39  2  0  0  0  0
M  END
>  <cdx:fragmentId>
4358

$$$$
