301717.cdx
  Mrv1902 05222410262D          

 17 18  0  0  0  0            999 V2000
    9.4224   -5.6666    0.0000 C   0  0  0  0  0  0  0  0  0  0  0  0
    8.7079   -6.0791    0.0000 C   0  0  0  0  0  0  0  0  0  0  0  0
    7.9934   -5.6666    0.0000 C   0  0  0  0  0  0  0  0  0  0  0  0
    9.4224   -4.8416    0.0000 O   0  0  0  0  0  0  0  0  0  0  0  0
   10.1368   -6.0791    0.0000 O   0  0  0  0  0  0  0  0  0  0  0  0
    6.5645   -5.6666    0.0000 C   0  0  0  0  0  0  0  0  0  0  0  0
    7.2790   -6.0791    0.0000 C   0  0  1  0  0  0  0  0  0  0  0  0
    7.2790   -6.9041    0.0000 C   0  0  0  0  0  0  0  0  0  0  0  0
    6.5645   -7.3166    0.0000 C   0  0  0  0  0  0  0  0  0  0  0  0
    5.8500   -6.9041    0.0000 C   0  0  1  0  0  0  0  0  0  0  0  0
    5.1355   -7.3166    0.0000 C   0  0  0  0  0  0  0  0  0  0  0  0
    4.4211   -6.9041    0.0000 C   0  0  0  0  0  0  0  0  0  0  0  0
    4.4211   -6.0791    0.0000 C   0  0  0  0  0  0  0  0  0  0  0  0
    5.1355   -5.6666    0.0000 C   0  0  0  0  0  0  0  0  0  0  0  0
    5.8500   -6.0791    0.0000 C   0  0  0  0  0  0  0  0  0  0  0  0
    5.1355   -4.8416    0.0000 C   0  0  0  0  0  0  0  0  0  0  0  0
    5.8500   -7.7291    0.0000 C   0  0  0  0  0  0  0  0  0  0  0  0
  1  2  1  0  0  0  0
  2  3  2  0  0  0  0
  1  4  2  0  0  0  0
  1  5  1  0  0  0  0
  6  7  1  0  0  0  0
  7  8  1  0  0  0  0
  8  9  1  0  0  0  0
  9 10  1  0  0  0  0
 10 11  1  0  0  0  0
 11 12  1  0  0  0  0
 12 13  1  0  0  0  0
 13 14  1  0  0  0  0
 14 15  2  0  0  0  0
  6 15  1  0  0  0  0
 10 15  1  0  0  0  0
 14 16  1  0  0  0  0
 10 17  1  6  0  0  0
  7  3  1  6  0  0  0
M  END
>  <cdx:fragmentId>
1182

$$$$
