301752.cdx
  Mrv1902 05222410222D          

 47 52  0  0  0  0            999 V2000
    5.2798   -7.6411    0.0000 H   0  0  0  0  0  0  0  0  0  0  0  0
    7.3485   -8.9823    0.0000 H   0  0  0  0  0  0  0  0  0  0  0  0
    8.8235   -5.3871    0.0000 H   0  0  0  0  0  0  0  0  0  0  0  0
    5.9813   -6.3962    0.0000 H   0  0  0  0  0  0  0  0  0  0  0  0
    3.1581   -9.7259    0.0000 C   0  0  0  0  0  0  0  0  0  0  0  0
    4.5870   -9.7109    0.0000 O   0  0  0  0  0  0  0  0  0  0  0  0
    3.8682   -9.3059    0.0000 C   0  0  0  0  0  0  0  0  0  0  0  0
    3.8596   -8.4810    0.0000 O   0  0  0  0  0  0  0  0  0  0  0  0
   11.4084   -7.8546    0.0000 C   0  0  0  0  0  0  0  0  0  0  0  0
   10.5837   -7.8756    0.0000 C   0  0  0  0  0  0  0  0  0  0  0  0
   10.3089   -7.0977    0.0000 C   0  0  0  0  0  0  0  0  0  0  0  0
   10.9638   -6.5959    0.0000 C   0  0  0  0  0  0  0  0  0  0  0  0
   11.6433   -7.0637    0.0000 O   0  0  0  0  0  0  0  0  0  0  0  0
    5.2625   -5.9912    0.0000 O   0  0  0  0  0  0  0  0  0  0  0  0
    7.3215   -3.9610    0.0000 C   0  0  0  0  0  0  0  0  0  0  0  0
    6.8139   -4.6113    0.0000 O   0  0  0  0  0  0  0  0  0  0  0  0
    6.7087   -7.6261    0.0000 C   0  0  0  0  0  0  0  0  0  0  0  0
    8.8718   -8.1895    0.0000 C   0  0  0  0  0  0  0  0  0  0  0  0
    8.1376   -7.6111    0.0000 C   0  0  0  0  0  0  0  0  0  0  0  0
    4.6693   -9.0113    0.0000 C   0  0  0  0  0  0  0  0  0  0  0  0
    5.9986   -8.0461    0.0000 C   0  0  2  0  0  0  0  0  0  0  0  0
    5.2712   -6.8161    0.0000 C   0  0  1  0  0  0  0  0  0  0  0  0
    4.5611   -7.2361    0.0000 C   0  0  0  0  0  0  0  0  0  0  0  0
    4.5697   -8.0610    0.0000 C   0  0  2  0  0  0  0  0  0  0  0  0
    5.2885   -8.4660    0.0000 C   0  0  2  0  0  0  0  0  0  0  0  0
    5.5997   -9.2311    0.0000 C   0  0  0  0  0  0  0  0  0  0  0  0
    6.4247   -9.2224    0.0000 O   0  0  0  0  0  0  0  0  0  0  0  0
    6.7173   -8.4511    0.0000 C   0  0  1  0  0  0  0  0  0  0  0  0
    7.4274   -8.0311    0.0000 C   0  0  2  0  0  0  0  0  0  0  0  0
    7.4188   -7.2061    0.0000 C   0  0  2  0  0  0  0  0  0  0  0  0
    8.1836   -6.8967    0.0000 C   0  0  0  0  0  0  0  0  0  0  0  0
    8.8631   -7.3645    0.0000 C   0  0  0  0  0  0  0  0  0  0  0  0
    9.5180   -6.8628    0.0000 C   0  0  1  0  0  0  0  0  0  0  0  0
    9.2432   -6.0849    0.0000 C   0  0  0  0  0  0  0  0  0  0  0  0
    8.4185   -6.1059    0.0000 C   0  0  2  0  0  0  0  0  0  0  0  0
    7.9466   -5.4291    0.0000 O   0  0  0  0  0  0  0  0  0  0  0  0
    7.1233   -5.3761    0.0000 C   0  0  2  0  0  0  0  0  0  0  0  0
    6.5686   -5.9867    0.0000 C   0  0  0  0  0  0  0  0  0  0  0  0
    6.7000   -6.8012    0.0000 C   0  0  2  0  0  0  0  0  0  0  0  0
    5.9899   -7.2211    0.0000 C   0  0  1  0  0  0  0  0  0  0  0  0
    9.5837   -9.2461    0.0000 C   0  0  0  0  0  0  0  0  0  0  0  0
    8.1462   -8.4361    0.0000 O   0  0  0  0  0  0  0  0  0  0  0  0
    7.4447   -9.6810    0.0000 O   0  0  0  0  0  0  0  0  0  0  0  0
    9.6010  -10.8960    0.0000 C   0  0  0  0  0  0  0  0  0  0  0  0
    8.8822  -10.4910    0.0000 C   0  0  0  0  0  0  0  0  0  0  0  0
    8.8736   -9.6661    0.0000 C   0  0  0  0  0  0  0  0  0  0  0  0
    8.1548   -9.2611    0.0000 C   0  0  0  0  0  0  0  0  0  0  0  0
 21  1  1  6  0  0  0
 28  2  1  1  0  0  0
 35  3  1  6  0  0  0
 39  4  1  6  0  0  0
 29 42  1  6  0  0  0
 24  8  1  6  0  0  0
  8  7  1  0  0  0  0
  7  5  1  0  0  0  0
  7  6  2  0  0  0  0
 33 11  1  1  0  0  0
 13  9  1  0  0  0  0
 10  9  2  0  0  0  0
 11 10  1  0  0  0  0
 12 11  2  0  0  0  0
 13 12  1  0  0  0  0
 22 14  1  6  0  0  0
 37 16  1  6  0  0  0
 16 15  1  0  0  0  0
 40 17  1  1  0  0  0
 32 18  1  0  0  0  0
 30 19  1  1  0  0  0
 25 20  1  1  0  0  0
 25 21  1  0  0  0  0
 35 31  1  0  0  0  0
 39 30  1  0  0  0  0
 21 28  1  0  0  0  0
 40 21  1  0  0  0  0
 40 22  1  0  0  0  0
 23 22  1  0  0  0  0
 24 23  1  0  0  0  0
 25 24  1  0  0  0  0
 26 25  1  0  0  0  0
 27 26  1  0  0  0  0
 28 27  1  0  0  0  0
 29 28  1  0  0  0  0
 30 29  1  0  0  0  0
 31 30  1  0  0  0  0
 32 31  2  0  0  0  0
 33 32  1  0  0  0  0
 34 33  1  0  0  0  0
 35 34  1  0  0  0  0
 36 35  1  0  0  0  0
 37 36  1  0  0  0  0
 38 37  1  0  0  0  0
 39 38  1  0  0  0  0
 40 39  1  0  0  0  0
 46 41  1  0  0  0  0
 47 42  1  0  0  0  0
 47 43  2  0  0  0  0
 45 44  1  0  0  0  0
 46 45  2  0  0  0  0
 47 46  1  0  0  0  0
M  END
>  <cdx:fragmentId>
4675

$$$$
