301710.cdx
  Mrv1902 05222410272D          

 21 24  0  0  0  0            999 V2000
    6.9696   -6.2535    0.0000 C   0  0  1  0  0  0  0  0  0  0  0  0
    7.6840   -5.8410    0.0000 C   0  0  2  0  0  0  0  0  0  0  0  0
    7.6851   -5.0160    0.0000 C   0  0  0  0  0  0  0  0  0  0  0  0
    6.9705   -4.6037    0.0000 C   0  0  0  0  0  0  0  0  0  0  0  0
    6.2559   -5.0160    0.0000 C   0  0  0  0  0  0  0  0  0  0  0  0
    6.2551   -5.8410    0.0000 N   0  0  0  0  0  0  0  0  0  0  0  0
    5.5406   -6.2535    0.0000 C   0  0  0  0  0  0  0  0  0  0  0  0
    5.5406   -7.0785    0.0000 C   0  0  0  0  0  0  0  0  0  0  0  0
    6.2551   -7.4910    0.0000 C   0  0  0  0  0  0  0  0  0  0  0  0
    6.9696   -7.0785    0.0000 C   0  0  2  0  0  0  0  0  0  0  0  0
    7.6840   -7.4910    0.0000 C   0  0  0  0  0  0  0  0  0  0  0  0
    8.3985   -7.0785    0.0000 C   0  0  0  0  0  0  0  0  0  0  0  0
    8.3985   -6.2535    0.0000 C   0  0  2  0  0  0  0  0  0  0  0  0
    8.4758   -5.3285    0.0000 C   0  0  0  0  0  0  0  0  0  0  0  0
    7.6849   -4.8427    0.0000 C   0  0  2  0  0  0  0  0  0  0  0  0
    6.8940   -5.3285    0.0000 C   0  0  0  0  0  0  0  0  0  0  0  0
    7.6840   -8.3160    0.0000 O   0  0  0  0  0  0  0  0  0  0  0  0
    7.6849   -4.0177    0.0000 C   0  0  0  0  0  0  0  0  0  0  0  0
    7.6840   -6.6660    0.0000 H   0  0  0  0  0  0  0  0  0  0  0  0
    6.9696   -7.9035    0.0000 H   0  0  0  0  0  0  0  0  0  0  0  0
    9.2235   -6.2535    0.0000 H   0  0  0  0  0  0  0  0  0  0  0  0
  1  2  1  0  0  0  0
  2  3  1  0  0  0  0
  3  4  1  0  0  0  0
  4  5  1  0  0  0  0
  5  6  1  0  0  0  0
  6  7  1  0  0  0  0
  7  8  1  0  0  0  0
  8  9  1  0  0  0  0
  9 10  1  0  0  0  0
 10 11  1  0  0  0  0
 11 12  1  0  0  0  0
 12 13  1  0  0  0  0
 13 14  1  1  0  0  0
 14 15  1  0  0  0  0
 15 16  1  0  0  0  0
  1 16  1  1  0  0  0
  1 10  1  0  0  0  0
  2 13  1  0  0  0  0
  1  6  1  0  0  0  0
 11 17  2  0  0  0  0
 15 18  1  6  0  0  0
  2 19  1  1  0  0  0
 10 20  1  6  0  0  0
 13 21  1  0  0  0  0
M  END
>  <cdx:groupId>
830

>  <cdx:fragmentId>
767

$$$$
