30170.cdx
  Mrv1902 05222410252D          

 22 21  0  0  0  0            999 V2000
   12.7073   -6.6401    0.0000 C   0  0  0  0  0  0  0  0  0  0  0  0
   11.9928   -6.2276    0.0000 C   0  0  0  0  0  0  0  0  0  0  0  0
   11.2783   -6.6401    0.0000 C   0  0  0  0  0  0  0  0  0  0  0  0
   10.5639   -6.2276    0.0000 C   0  0  0  0  0  0  0  0  0  0  0  0
    9.8494   -6.6401    0.0000 C   0  0  0  0  0  0  0  0  0  0  0  0
    9.1349   -6.2276    0.0000 C   0  0  0  0  0  0  0  0  0  0  0  0
    8.4205   -6.6401    0.0000 C   0  0  0  0  0  0  0  0  0  0  0  0
    7.7060   -6.2276    0.0000 C   0  0  0  0  0  0  0  0  0  0  0  0
    6.9915   -6.6401    0.0000 C   0  0  0  0  0  0  0  0  0  0  0  0
    6.2770   -6.2276    0.0000 C   0  0  0  0  0  0  0  0  0  0  0  0
    5.5626   -6.6401    0.0000 C   0  0  0  0  0  0  0  0  0  0  0  0
    4.8481   -6.2276    0.0000 C   0  0  0  0  0  0  0  0  0  0  0  0
    4.1336   -6.6401    0.0000 C   0  0  0  0  0  0  0  0  0  0  0  0
    3.4192   -6.2276    0.0000 C   0  0  0  0  0  0  0  0  0  0  0  0
    2.7047   -6.6401    0.0000 C   0  0  0  0  0  0  0  0  0  0  0  0
    1.9902   -6.2276    0.0000 O   0  0  0  0  0  0  0  0  0  0  0  0
    1.2757   -6.6401    0.0000 C   0  0  0  0  0  0  0  0  0  0  0  0
    0.5613   -6.2276    0.0000 C   0  0  0  0  0  0  0  0  0  0  0  0
   12.7073   -7.4651    0.0000 C   0  0  0  0  0  0  0  0  0  0  0  0
   13.4218   -7.8776    0.0000 C   0  0  0  0  0  0  0  0  0  0  0  0
   13.4218   -8.7026    0.0000 C   0  0  0  0  0  0  0  0  0  0  0  0
    1.2757   -7.4651    0.0000 O   0  0  0  0  0  0  0  0  0  0  0  0
  2  1  2  0  0  0  0
  3  2  1  0  0  0  0
  4  3  1  0  0  0  0
  5  4  1  0  0  0  0
  6  5  1  0  0  0  0
  7  6  1  0  0  0  0
  8  7  1  0  0  0  0
  9  8  1  0  0  0  0
 10  9  1  0  0  0  0
 11 10  1  0  0  0  0
 12 11  1  0  0  0  0
 13 12  1  0  0  0  0
 14 13  1  0  0  0  0
 15 14  1  0  0  0  0
 16 15  1  0  0  0  0
 17 16  1  0  0  0  0
 18 17  1  0  0  0  0
  1 19  1  0  0  0  0
 19 20  1  0  0  0  0
 20 21  1  0  0  0  0
 17 22  2  0  0  0  0
M  END
>  <cdx:fragmentId>
3

$$$$
