301703.cdx
  Mrv1902 05222410262D          

 39 43  0  0  0  0            999 V2000
    7.9604   -7.2404    0.0000 C   0  0  1  0  0  0  0  0  0  0  0  0
    7.2171   -7.5984    0.0000 C   0  0  0  0  0  0  0  0  0  0  0  0
    6.4738   -7.2404    0.0000 C   0  0  0  0  0  0  0  0  0  0  0  0
    5.8691   -7.8016    0.0000 C   0  0  0  0  0  0  0  0  0  0  0  0
    5.0807   -7.5584    0.0000 C   0  0  0  0  0  0  0  0  0  0  0  0
    4.8971   -6.7541    0.0000 C   0  0  1  0  0  0  0  0  0  0  0  0
    4.1088   -6.5109    0.0000 C   0  0  0  0  0  0  0  0  0  0  0  0
    3.9252   -5.7066    0.0000 C   0  0  1  0  0  0  0  0  0  0  0  0
    4.5300   -5.1455    0.0000 C   0  0  1  0  0  0  0  0  0  0  0  0
    5.3183   -5.3886    0.0000 C   0  0  0  0  0  0  0  0  0  0  0  0
    5.5019   -6.1930    0.0000 C   0  0  2  0  0  0  0  0  0  0  0  0
    6.2902   -6.4361    0.0000 C   0  0  1  0  0  0  0  0  0  0  0  0
    6.8046   -5.7911    0.0000 C   0  0  0  0  0  0  0  0  0  0  0  0
    7.6296   -5.7911    0.0000 C   0  0  0  0  0  0  0  0  0  0  0  0
    8.1440   -6.4361    0.0000 C   0  0  2  0  0  0  0  0  0  0  0  0
    8.9324   -6.1930    0.0000 C   0  0  1  0  0  0  0  0  0  0  0  0
    9.1159   -5.3886    0.0000 C   0  0  0  0  0  0  0  0  0  0  0  0
    9.9043   -5.1455    0.0000 C   0  0  0  0  0  0  0  0  0  0  0  0
   10.5090   -5.7066    0.0000 C   0  0  2  0  0  0  0  0  0  0  0  0
   10.3255   -6.5109    0.0000 C   0  0  2  0  0  0  0  0  0  0  0  0
    9.5371   -6.7541    0.0000 C   0  0  2  0  0  0  0  0  0  0  0  0
    9.3535   -7.5584    0.0000 C   0  0  0  0  0  0  0  0  0  0  0  0
    8.5652   -7.8016    0.0000 C   0  0  0  0  0  0  0  0  0  0  0  0
    4.4759   -8.1196    0.0000 O   0  0  0  0  0  0  0  0  0  0  0  0
   10.5686   -7.2993    0.0000 C   0  0  0  0  0  0  0  0  0  0  0  0
    8.9324   -7.0180    0.0000 C   0  0  0  0  0  0  0  0  0  0  0  0
    5.5019   -7.0180    0.0000 C   0  0  0  0  0  0  0  0  0  0  0  0
    3.8656   -7.2993    0.0000 C   0  0  0  0  0  0  0  0  0  0  0  0
    3.3045   -6.6945    0.0000 C   0  0  0  0  0  0  0  0  0  0  0  0
    7.8375   -8.0562    0.0000 C   0  0  0  0  0  0  0  0  0  0  0  0
   11.1298   -6.6945    0.0000 C   0  0  0  0  0  0  0  0  0  0  0  0
   11.7131   -6.1111    0.0000 O   0  0  0  0  0  0  0  0  0  0  0  0
   11.2974   -5.4634    0.0000 O   0  0  0  0  0  0  0  0  0  0  0  0
    4.3464   -4.3412    0.0000 O   0  0  0  0  0  0  0  0  0  0  0  0
    3.1369   -5.4634    0.0000 O   0  0  0  0  0  0  0  0  0  0  0  0
    4.2924   -7.3152    0.0000 H   0  0  0  0  0  0  0  0  0  0  0  0
    6.2902   -5.6111    0.0000 H   0  0  0  0  0  0  0  0  0  0  0  0
    8.1440   -5.6111    0.0000 H   0  0  0  0  0  0  0  0  0  0  0  0
   10.1419   -7.3152    0.0000 H   0  0  0  0  0  0  0  0  0  0  0  0
  1  2  1  0  0  0  0
  2  3  2  0  0  0  0
  3  4  1  0  0  0  0
  4  5  1  0  0  0  0
  5  6  1  0  0  0  0
  6  7  1  0  0  0  0
  7  8  1  0  0  0  0
  8  9  1  0  0  0  0
  9 10  1  0  0  0  0
 10 11  1  0  0  0  0
 11 12  1  0  0  0  0
 12 13  1  0  0  0  0
 13 14  1  0  0  0  0
 14 15  1  0  0  0  0
 15 16  1  0  0  0  0
 16 17  1  0  0  0  0
 17 18  1  0  0  0  0
 18 19  1  0  0  0  0
 19 20  1  0  0  0  0
 20 21  1  0  0  0  0
 21 22  1  0  0  0  0
 22 23  1  0  0  0  0
  1 23  1  0  0  0  0
  1 15  1  0  0  0  0
 16 21  1  0  0  0  0
  3 12  1  0  0  0  0
  6 11  1  0  0  0  0
  5 24  2  0  0  0  0
 20 25  1  1  0  0  0
 16 26  1  6  0  0  0
 11 27  1  1  0  0  0
  7 28  1  0  0  0  0
  7 29  1  0  0  0  0
  1 30  1  6  0  0  0
 31 32  1  0  0  0  0
 20 31  1  6  0  0  0
 19 33  1  1  0  0  0
  9 34  1  6  0  0  0
  8 35  1  6  0  0  0
  6 36  1  6  0  0  0
 12 37  1  6  0  0  0
 15 38  1  1  0  0  0
 21 39  1  1  0  0  0
M  END
>  <cdx:groupId>
249

>  <cdx:fragmentId>
131

$$$$
