301745.cdx
  Mrv1902 05222410232D          

 38 42  0  0  0  0            999 V2000
    7.9136   -7.0424    0.0000 C   0  0  0  0  0  0  0  0  0  0  0  0
    8.6280   -6.6299    0.0000 C   0  0  0  0  0  0  0  0  0  0  0  0
    8.6280   -5.8049    0.0000 C   0  0  0  0  0  0  0  0  0  0  0  0
    7.1991   -6.6299    0.0000 O   0  0  0  0  0  0  0  0  0  0  0  0
    5.7702   -9.1049    0.0000 C   0  0  0  0  0  0  0  0  0  0  0  0
    5.0557   -9.5174    0.0000 C   0  0  0  0  0  0  0  0  0  0  0  0
    5.0557  -10.3424    0.0000 C   0  0  1  0  0  0  0  0  0  0  0  0
    5.7702  -10.7549    0.0000 C   0  0  0  0  0  0  0  0  0  0  0  0
    6.4846  -10.3424    0.0000 C   0  0  2  0  0  0  0  0  0  0  0  0
    7.1991  -10.7549    0.0000 C   0  0  0  0  0  0  0  0  0  0  0  0
    7.9136  -10.3424    0.0000 C   0  0  0  0  0  0  0  0  0  0  0  0
    7.9136   -9.5174    0.0000 C   0  0  1  0  0  0  0  0  0  0  0  0
    8.6280   -9.1049    0.0000 C   0  0  1  0  0  0  0  0  0  0  0  0
    9.4127   -9.3599    0.0000 C   0  0  0  0  0  0  0  0  0  0  0  0
    9.8976   -8.6924    0.0000 C   0  0  0  0  0  0  0  0  0  0  0  0
    9.4127   -8.0250    0.0000 C   0  0  2  0  0  0  0  0  0  0  0  0
    8.6280   -8.2799    0.0000 C   0  0  1  0  0  0  0  0  0  0  0  0
    7.9136   -7.8674    0.0000 C   0  0  1  0  0  0  0  0  0  0  0  0
    7.1991   -8.2799    0.0000 C   0  0  0  0  0  0  0  0  0  0  0  0
    7.1991   -9.1049    0.0000 C   0  0  2  0  0  0  0  0  0  0  0  0
    6.4846   -9.5174    0.0000 C   0  0  1  0  0  0  0  0  0  0  0  0
    8.7143   -7.4595    0.0000 C   0  0  0  0  0  0  0  0  0  0  0  0
    6.4846   -8.6924    0.0000 C   0  0  0  0  0  0  0  0  0  0  0  0
   10.0258   -7.4730    0.0000 C   0  0  2  0  0  0  0  0  0  0  0  0
   10.8104   -7.7279    0.0000 C   0  0  0  0  0  0  0  0  0  0  0  0
    9.8542   -6.6660    0.0000 O   0  0  0  0  0  0  0  0  0  0  0  0
    9.2411   -7.2180    0.0000 O   0  0  0  0  0  0  0  0  0  0  0  0
    8.6280   -9.9299    0.0000 O   0  0  0  0  0  0  0  0  0  0  0  0
    7.9136   -8.6924    0.0000 O   0  0  0  0  0  0  0  0  0  0  0  0
    4.3412  -10.7549    0.0000 O   0  0  0  0  0  0  0  0  0  0  0  0
    9.3425   -5.3924    0.0000 C   0  0  0  0  0  0  0  0  0  0  0  0
    9.3425   -4.5674    0.0000 C   0  0  0  0  0  0  0  0  0  0  0  0
   10.0570   -4.1549    0.0000 C   0  0  0  0  0  0  0  0  0  0  0  0
   10.7715   -4.5674    0.0000 C   0  0  0  0  0  0  0  0  0  0  0  0
   10.7715   -5.3924    0.0000 C   0  0  0  0  0  0  0  0  0  0  0  0
   10.0570   -5.8049    0.0000 C   0  0  0  0  0  0  0  0  0  0  0  0
    6.4846  -11.1674    0.0000 H   0  0  0  0  0  0  0  0  0  0  0  0
    7.1991   -9.9299    0.0000 H   0  0  0  0  0  0  0  0  0  0  0  0
  1  2  1  0  0  0  0
  2  3  2  0  0  0  0
  1  4  2  0  0  0  0
  5  6  1  0  0  0  0
  6  7  1  0  0  0  0
  7  8  1  0  0  0  0
  8  9  1  0  0  0  0
  9 10  1  0  0  0  0
 10 11  1  0  0  0  0
 11 12  1  0  0  0  0
 12 13  1  0  0  0  0
 13 14  1  0  0  0  0
 14 15  1  0  0  0  0
 15 16  1  0  0  0  0
 16 17  1  0  0  0  0
 13 17  1  0  0  0  0
 17 18  1  0  0  0  0
 18 19  1  0  0  0  0
 19 20  1  0  0  0  0
 12 20  1  0  0  0  0
 20 21  1  0  0  0  0
  9 21  1  0  0  0  0
  5 21  1  0  0  0  0
 17 22  1  1  0  0  0
 21 23  1  1  0  0  0
 24 25  1  0  0  0  0
 24 26  1  1  0  0  0
 16 24  1  0  0  0  0
 16 27  1  1  0  0  0
 13 28  1  1  0  0  0
 12 29  1  1  0  0  0
  7 30  1  1  0  0  0
 18  1  1  1  0  0  0
 31 32  1  0  0  0  0
 32 33  2  0  0  0  0
 33 34  1  0  0  0  0
 34 35  2  0  0  0  0
 35 36  1  0  0  0  0
 31 36  2  0  0  0  0
  3 31  1  0  0  0  0
  9 37  1  6  0  0  0
 20 38  1  6  0  0  0
M  END
>  <cdx:fragmentId>
4002

$$$$
