301779.cdx
  Mrv1902 05222410232D          

 17 18  0  0  0  0            999 V2000
    3.5695   -5.8649    0.0000 C   0  0  0  0  0  0  0  0  0  0  0  0
    9.2853   -7.5149    0.0000 C   0  0  0  0  0  0  0  0  0  0  0  0
    8.5708   -7.1024    0.0000 C   0  0  0  0  0  0  0  0  0  0  0  0
    8.5708   -6.2774    0.0000 C   0  0  0  0  0  0  0  0  0  0  0  0
    9.2853   -5.8649    0.0000 C   0  0  0  0  0  0  0  0  0  0  0  0
    9.9998   -7.1024    0.0000 C   0  0  0  0  0  0  0  0  0  0  0  0
    9.9998   -6.2774    0.0000 C   0  0  0  0  0  0  0  0  0  0  0  0
   10.7844   -6.0225    0.0000 O   0  0  0  0  0  0  0  0  0  0  0  0
   11.2693   -6.6899    0.0000 C   0  0  0  0  0  0  0  0  0  0  0  0
   10.7844   -7.3574    0.0000 O   0  0  0  0  0  0  0  0  0  0  0  0
    4.2840   -6.2774    0.0000 O   0  0  0  0  0  0  0  0  0  0  0  0
    4.9985   -5.0399    0.0000 O   0  0  0  0  0  0  0  0  0  0  0  0
    7.8563   -5.8649    0.0000 C   0  0  0  0  0  0  0  0  0  0  0  0
    7.1419   -6.2774    0.0000 C   0  0  0  0  0  0  0  0  0  0  0  0
    6.4274   -5.8649    0.0000 C   0  0  0  0  0  0  0  0  0  0  0  0
    5.7129   -6.2774    0.0000 C   0  0  0  0  0  0  0  0  0  0  0  0
    4.9985   -5.8649    0.0000 C   0  0  0  0  0  0  0  0  0  0  0  0
 11  1  1  0  0  0  0
 13  4  1  0  0  0  0
  5  7  2  0  0  0  0
  2  6  2  0  0  0  0
  3  2  1  0  0  0  0
  4  3  2  0  0  0  0
  5  4  1  0  0  0  0
 10  6  1  0  0  0  0
  7  6  1  0  0  0  0
  8  7  1  0  0  0  0
  9  8  1  0  0  0  0
 10  9  1  0  0  0  0
 17 11  1  0  0  0  0
 17 12  2  0  0  0  0
 14 13  2  0  0  0  0
 15 14  1  0  0  0  0
 16 15  2  0  0  0  0
 17 16  1  0  0  0  0
M  END
>  <cdx:groupId>
624

>  <cdx:fragmentId>
589

$$$$
