301791.cdx
  Mrv1902 05222410222D          

 47 54  0  0  0  0            999 V2000
    8.7565   -6.1789    0.0000 H   0  0  0  0  0  0  0  0  0  0  0  0
    9.1737   -7.5456    0.0000 H   0  0  0  0  0  0  0  0  0  0  0  0
   10.1487   -6.5010    0.0000 H   0  0  0  0  0  0  0  0  0  0  0  0
    9.6758   -8.9274    0.0000 H   0  0  0  0  0  0  0  0  0  0  0  0
   10.5552   -9.3557    0.0000 C   0  0  0  0  0  0  0  0  0  0  0  0
    9.9931   -5.4195    0.0000 C   0  0  0  0  0  0  0  0  0  0  0  0
    7.6874   -5.5991    0.0000 C   0  0  0  0  0  0  0  0  0  0  0  0
    8.3072   -4.8834    0.0000 O   0  0  0  0  0  0  0  0  0  0  0  0
   11.9104   -8.1788    0.0000 O   0  0  0  0  0  0  0  0  0  0  0  0
    8.5705   -6.9827    0.0000 C   0  0  2  0  0  0  0  0  0  0  0  0
    8.0581   -6.3362    0.0000 C   0  0  2  0  0  0  0  0  0  0  0  0
    8.5481   -5.6725    0.0000 C   0  0  0  0  0  0  0  0  0  0  0  0
    9.3357   -5.9180    0.0000 C   0  0  2  0  0  0  0  0  0  0  0  0
    9.3596   -6.7419    0.0000 C   0  0  2  0  0  0  0  0  0  0  0  0
    9.9627   -7.3048    0.0000 C   0  0  1  0  0  0  0  0  0  0  0  0
   10.7846   -7.2333    0.0000 O   0  0  0  0  0  0  0  0  0  0  0  0
   11.1066   -7.9928    0.0000 C   0  0  0  0  0  0  0  0  0  0  0  0
   10.4837   -8.5338    0.0000 C   0  0  2  0  0  0  0  0  0  0  0  0
    9.7768   -8.1086    0.0000 C   0  0  1  0  0  0  0  0  0  0  0  0
    8.9877   -8.3494    0.0000 O   0  0  0  0  0  0  0  0  0  0  0  0
    8.3846   -7.7865    0.0000 C   0  0  1  0  0  0  0  0  0  0  0  0
    7.2385   -6.2414    0.0000 C   0  0  0  0  0  0  0  0  0  0  0  0
    6.5920   -6.7539    0.0000 C   0  0  0  0  0  0  0  0  0  0  0  0
    6.4972   -7.5734    0.0000 C   0  0  1  0  0  0  0  0  0  0  0  0
    7.0097   -8.2199    0.0000 C   0  0  2  0  0  0  0  0  0  0  0  0
    7.8292   -8.3147    0.0000 C   0  0  0  0  0  0  0  0  0  0  0  0
    8.0908   -9.0972    0.0000 O   0  0  0  0  0  0  0  0  0  0  0  0
    5.6722   -7.5710    0.0000 C   0  0  0  0  0  0  0  0  0  0  0  0
    5.1559   -8.2144    0.0000 C   0  0  1  0  0  0  0  0  0  0  0  0
    5.3371   -9.0193    0.0000 C   0  0  1  0  0  0  0  0  0  0  0  0
    6.0794   -9.3794    0.0000 C   0  0  0  0  0  0  0  0  0  0  0  0
    6.8237   -9.0237    0.0000 C   0  0  2  0  0  0  0  0  0  0  0  0
    4.3345   -8.1381    0.0000 C   0  0  2  0  0  0  0  0  0  0  0  0
    4.0080   -8.8957    0.0000 O   0  0  0  0  0  0  0  0  0  0  0  0
    4.6277   -9.4403    0.0000 C   0  0  2  0  0  0  0  0  0  0  0  0
    5.4824   -7.4568    0.0000 O   0  0  0  0  0  0  0  0  0  0  0  0
    4.8628   -6.9122    0.0000 C   0  0  0  0  0  0  0  0  0  0  0  0
    4.1533   -7.3332    0.0000 C   0  0  0  0  0  0  0  0  0  0  0  0
    4.9391   -6.0907    0.0000 O   0  0  0  0  0  0  0  0  0  0  0  0
    3.5223   -7.9930    0.0000 H   0  0  0  0  0  0  0  0  0  0  0  0
    4.0959  -10.0711    0.0000 C   0  0  0  0  0  0  0  0  0  0  0  0
    4.9081  -10.2162    0.0000 C   0  0  0  0  0  0  0  0  0  0  0  0
    5.5183   -9.8242    0.0000 H   0  0  0  0  0  0  0  0  0  0  0  0
    7.4933   -7.3219    0.0000 O   0  0  0  0  0  0  0  0  0  0  0  0
    7.4672   -9.5400    0.0000 O   0  0  0  0  0  0  0  0  0  0  0  0
    7.4222   -8.9344    0.0000 H   0  0  0  0  0  0  0  0  0  0  0  0
    9.3118   -5.0941    0.0000 O   0  0  0  0  0  0  0  0  0  0  0  0
 10  1  1  1  0  0  0
 14  2  1  1  0  0  0
 15  3  1  6  0  0  0
 19  4  1  6  0  0  0
 18  5  1  1  0  0  0
 13  6  1  1  0  0  0
 11  7  1  1  0  0  0
 12  8  2  0  0  0  0
 17  9  2  0  0  0  0
 11 10  1  0  0  0  0
 19 15  1  0  0  0  0
 10 21  1  0  0  0  0
 14 10  1  0  0  0  0
 12 11  1  0  0  0  0
 13 12  1  0  0  0  0
 14 13  1  0  0  0  0
 15 14  1  0  0  0  0
 16 15  1  0  0  0  0
 17 16  1  0  0  0  0
 18 17  1  0  0  0  0
 19 18  1  0  0  0  0
 20 19  1  0  0  0  0
 21 20  1  0  0  0  0
 11 22  1  0  0  0  0
 22 23  1  0  0  0  0
 24 23  1  1  0  0  0
 24 25  1  0  0  0  0
 25 26  1  0  0  0  0
 26 21  1  0  0  0  0
 26 27  2  0  0  0  0
 24 28  1  0  0  0  0
 28 29  1  0  0  0  0
 29 30  1  0  0  0  0
 30 31  1  0  0  0  0
 31 32  1  0  0  0  0
 32 25  1  0  0  0  0
 29 33  1  0  0  0  0
 33 34  1  0  0  0  0
 34 35  1  0  0  0  0
 35 30  1  0  0  0  0
 29 36  1  6  0  0  0
 36 37  1  0  0  0  0
 37 38  1  0  0  0  0
 38 33  1  0  0  0  0
 37 39  2  0  0  0  0
 33 40  1  1  0  0  0
 35 41  1  1  0  0  0
 35 42  1  6  0  0  0
 30 43  1  6  0  0  0
 24 44  1  6  0  0  0
 21 44  1  6  0  0  0
 32 45  1  1  0  0  0
 25 46  1  1  0  0  0
 13 47  1  6  0  0  0
M  END
>  <cdx:fragmentId>
9

$$$$
