301771.cdx
  Mrv1902 05222410252D          

 19 18  0  0  0  0            999 V2000
    1.3520   -7.5670    0.0000 C   0  0  0  0  0  0  0  0  0  0  0  0
    2.0665   -7.1545    0.0000 O   0  0  0  0  0  0  0  0  0  0  0  0
    2.7809   -8.3920    0.0000 O   0  0  0  0  0  0  0  0  0  0  0  0
   13.4980   -8.8045    0.0000 C   0  0  0  0  0  0  0  0  0  0  0  0
   12.7835   -9.2170    0.0000 C   0  0  0  0  0  0  0  0  0  0  0  0
   12.0691   -8.8045    0.0000 C   0  0  0  0  0  0  0  0  0  0  0  0
   11.3546   -9.2170    0.0000 C   0  0  0  0  0  0  0  0  0  0  0  0
   10.6401   -8.8045    0.0000 C   0  0  0  0  0  0  0  0  0  0  0  0
    9.9256   -9.2170    0.0000 C   0  0  0  0  0  0  0  0  0  0  0  0
    9.2112   -8.8045    0.0000 C   0  0  0  0  0  0  0  0  0  0  0  0
    8.4967   -9.2170    0.0000 C   0  0  0  0  0  0  0  0  0  0  0  0
    7.7822   -8.8045    0.0000 C   0  0  0  0  0  0  0  0  0  0  0  0
    7.0678   -8.3920    0.0000 C   0  0  0  0  0  0  0  0  0  0  0  0
    6.3533   -7.9795    0.0000 C   0  0  0  0  0  0  0  0  0  0  0  0
    5.6388   -7.5670    0.0000 C   0  0  0  0  0  0  0  0  0  0  0  0
    4.9244   -7.1545    0.0000 C   0  0  0  0  0  0  0  0  0  0  0  0
    4.2099   -7.5670    0.0000 C   0  0  0  0  0  0  0  0  0  0  0  0
    3.4954   -7.1545    0.0000 C   0  0  0  0  0  0  0  0  0  0  0  0
    2.7809   -7.5670    0.0000 C   0  0  0  0  0  0  0  0  0  0  0  0
  2  1  1  0  0  0  0
 19  2  1  0  0  0  0
 19  3  2  0  0  0  0
  5  4  1  0  0  0  0
  6  5  1  0  0  0  0
  7  6  1  0  0  0  0
  8  7  1  0  0  0  0
  9  8  1  0  0  0  0
 10  9  1  0  0  0  0
 11 10  1  0  0  0  0
 12 11  1  0  0  0  0
 13 12  3  0  0  0  0
 14 13  1  0  0  0  0
 15 14  3  0  0  0  0
 16 15  1  0  0  0  0
 17 16  1  0  0  0  0
 18 17  1  0  0  0  0
 19 18  1  0  0  0  0
M  END
>  <cdx:fragmentId>
5557

$$$$
