301750.cdx
  Mrv1902 05222410222D          

 18 19  0  0  0  0            999 V2000
    8.7079   -9.5356    0.0000 C   0  0  0  0  0  0  0  0  0  0  0  0
    8.7079   -8.7106    0.0000 C   0  0  0  0  0  0  0  0  0  0  0  0
    7.9934   -8.2981    0.0000 C   0  0  0  0  0  0  0  0  0  0  0  0
    7.9934   -7.4731    0.0000 C   0  0  0  0  0  0  0  0  0  0  0  0
    8.7079   -7.0606    0.0000 C   0  0  0  0  0  0  0  0  0  0  0  0
    9.4224   -7.4731    0.0000 C   0  0  0  0  0  0  0  0  0  0  0  0
    9.4224   -8.2981    0.0000 C   0  0  0  0  0  0  0  0  0  0  0  0
    7.9934   -9.9481    0.0000 O   0  0  0  0  0  0  0  0  0  0  0  0
    9.4224   -9.9481    0.0000 O   0  0  0  0  0  0  0  0  0  0  0  0
    7.2790   -8.7106    0.0000 N   0  0  0  0  0  0  0  0  0  0  0  0
    6.5645   -8.2981    0.0000 C   0  0  0  0  0  0  0  0  0  0  0  0
    6.5645   -7.4731    0.0000 C   0  0  0  0  0  0  0  0  0  0  0  0
    5.8500   -7.0606    0.0000 C   0  0  0  0  0  0  0  0  0  0  0  0
    5.1355   -7.4731    0.0000 C   0  0  0  0  0  0  0  0  0  0  0  0
    5.1355   -8.2981    0.0000 C   0  0  0  0  0  0  0  0  0  0  0  0
    5.8500   -8.7106    0.0000 C   0  0  0  0  0  0  0  0  0  0  0  0
    5.8500   -6.2356    0.0000 C   0  0  0  0  0  0  0  0  0  0  0  0
    7.2790   -7.0606    0.0000 C   0  0  0  0  0  0  0  0  0  0  0  0
  1  2  1  0  0  0  0
  2  3  1  0  0  0  0
  3  4  2  0  0  0  0
  4  5  1  0  0  0  0
  5  6  2  0  0  0  0
  6  7  1  0  0  0  0
  2  7  2  0  0  0  0
  1  8  2  0  0  0  0
  1  9  1  0  0  0  0
 10 11  1  0  0  0  0
 11 12  1  0  0  0  0
 12 13  2  0  0  0  0
 13 14  1  0  0  0  0
 14 15  2  0  0  0  0
 15 16  1  0  0  0  0
 11 16  2  0  0  0  0
 13 17  1  0  0  0  0
 12 18  1  0  0  0  0
  3 10  1  0  0  0  0
M  END
>  <cdx:groupId>
4537

>  <cdx:fragmentId>
4503

$$$$
