301787.cdx
  Mrv1902 05222410222D          

  3  2  0  0  0  0            999 V2000
    7.4594   -5.9686    0.0000 C   0  0  0  0  0  0  0  0  0  0  0  0
    6.7449   -6.3811    0.0000 Cl  0  0  0  0  0  0  0  0  0  0  0  0
    8.1738   -6.3811    0.0000 Cl  0  0  0  0  0  0  0  0  0  0  0  0
  1  2  1  0  0  0  0
  1  3  1  0  0  0  0
M  END
>  <cdx:groupId>
1061

>  <cdx:fragmentId>
1056

$$$$
