301729.cdx
  Mrv1902 05222410272D          

 42 45  0  0  0  0            999 V2000
    8.3008   -8.8857    0.0000 C   0  0  0  0  0  0  0  0  0  0  0  0
    7.5854   -9.2965    0.0000 C   0  0  0  0  0  0  0  0  0  0  0  0
    7.5834  -10.1215    0.0000 C   0  0  0  0  0  0  0  0  0  0  0  0
    9.0143   -9.2998    0.0000 O   0  0  0  0  0  0  0  0  0  0  0  0
    6.8719   -8.8824    0.0000 O   0  0  0  0  0  0  0  0  0  0  0  0
    6.8680  -10.5323    0.0000 O   0  0  0  0  0  0  0  0  0  0  0  0
    6.8661  -11.3573    0.0000 C   0  0  0  0  0  0  0  0  0  0  0  0
    6.1507  -11.7682    0.0000 C   0  0  0  0  0  0  0  0  0  0  0  0
    6.1488  -12.5932    0.0000 C   0  0  0  0  0  0  0  0  0  0  0  0
    6.8623  -13.0073    0.0000 C   0  0  0  0  0  0  0  0  0  0  0  0
    7.5777  -12.5965    0.0000 C   0  0  0  0  0  0  0  0  0  0  0  0
    7.5796  -11.7715    0.0000 C   0  0  0  0  0  0  0  0  0  0  0  0
    6.8604  -13.8323    0.0000 C   0  0  0  0  0  0  0  0  0  0  0  0
    7.5739  -14.2465    0.0000 C   0  0  0  0  0  0  0  0  0  0  0  0
    7.5720  -15.0715    0.0000 C   0  0  0  0  0  0  0  0  0  0  0  0
    3.2928  -11.7615    0.0000 C   0  0  0  0  0  0  0  0  0  0  0  0
    2.5793  -11.3474    0.0000 C   0  0  0  0  0  0  0  0  0  0  0  0
    8.3027   -8.0607    0.0000 C   0  0  0  0  0  0  0  0  0  0  0  0
    9.0181   -7.6498    0.0000 C   0  0  0  0  0  0  0  0  0  0  0  0
    9.0200   -6.8248    0.0000 C   0  0  0  0  0  0  0  0  0  0  0  0
    8.3065   -6.4107    0.0000 C   0  0  0  0  0  0  0  0  0  0  0  0
    7.5911   -6.8215    0.0000 C   0  0  0  0  0  0  0  0  0  0  0  0
    7.5892   -7.6465    0.0000 C   0  0  0  0  0  0  0  0  0  0  0  0
    9.7355   -6.4140    0.0000 C   0  0  0  0  0  0  0  0  0  0  0  0
   10.4490   -6.8282    0.0000 C   0  0  0  0  0  0  0  0  0  0  0  0
   11.1644   -6.4173    0.0000 C   0  0  0  0  0  0  0  0  0  0  0  0
   11.1663   -5.5923    0.0000 C   0  0  0  0  0  0  0  0  0  0  0  0
   10.4528   -5.1782    0.0000 C   0  0  0  0  0  0  0  0  0  0  0  0
    9.7374   -5.5890    0.0000 C   0  0  0  0  0  0  0  0  0  0  0  0
   10.4547   -4.3532    0.0000 C   0  0  0  0  0  0  0  0  0  0  0  0
   11.1702   -3.9423    0.0000 C   0  0  0  0  0  0  0  0  0  0  0  0
   11.1721   -3.1173    0.0000 C   0  0  0  0  0  0  0  0  0  0  0  0
   10.4471   -7.6531    0.0000 O   0  0  0  0  0  0  0  0  0  0  0  0
    8.3085   -5.5857    0.0000 O   0  0  0  0  0  0  0  0  0  0  0  0
    6.1545  -10.1182    0.0000 O   0  0  0  0  0  0  0  0  0  0  0  0
    1.8639  -11.7582    0.0000 C   0  0  0  0  0  0  0  0  0  0  0  0
    4.7217  -11.7649    0.0000 C   0  0  0  0  0  0  0  0  0  0  0  0
    4.0082  -11.3507    0.0000 C   0  0  0  0  0  0  0  0  0  0  0  0
    4.0101  -10.5257    0.0000 C   0  0  0  0  0  0  0  0  0  0  0  0
    4.7256  -10.1149    0.0000 C   0  0  0  0  0  0  0  0  0  0  0  0
    5.4391  -10.5290    0.0000 C   0  0  0  0  0  0  0  0  0  0  0  0
    5.4372  -11.3540    0.0000 C   0  0  0  0  0  0  0  0  0  0  0  0
 41 35  1  0  0  0  0
 38 16  1  0  0  0  0
 42 37  2  0  0  0  0
 38 37  1  0  0  0  0
 39 38  2  0  0  0  0
 40 39  1  0  0  0  0
 41 40  2  0  0  0  0
 42 41  1  0  0  0  0
  1  2  1  0  0  0  0
  2  3  1  0  0  0  0
  1  4  1  0  0  0  0
  2  5  1  0  0  0  0
  7  8  1  0  0  0  0
  8  9  2  0  0  0  0
  9 10  1  0  0  0  0
 10 11  2  0  0  0  0
 11 12  1  0  0  0  0
  7 12  2  0  0  0  0
  6  7  1  0  0  0  0
 13 14  1  0  0  0  0
 14 15  2  0  0  0  0
 10 13  1  0  0  0  0
 16 17  1  0  0  0  0
 17 36  2  0  0  0  0
  8 42  1  0  0  0  0
  3  6  1  0  0  0  0
 18 19  1  0  0  0  0
 19 20  2  0  0  0  0
 20 21  1  0  0  0  0
 21 22  2  0  0  0  0
 22 23  1  0  0  0  0
 18 23  2  0  0  0  0
 24 25  1  0  0  0  0
 25 26  2  0  0  0  0
 26 27  1  0  0  0  0
 27 28  2  0  0  0  0
 28 29  1  0  0  0  0
 24 29  2  0  0  0  0
 30 31  1  0  0  0  0
 31 32  2  0  0  0  0
 28 30  1  0  0  0  0
 25 33  1  0  0  0  0
 20 24  1  0  0  0  0
 21 34  1  0  0  0  0
  1 18  1  0  0  0  0
M  END
>  <cdx:fragmentId>
1813

$$$$
