301782.cdx
  Mrv1902 05222410202D          

 36 39  0  0  0  0            999 V2000
    9.2112   -4.8337    0.0000 C   0  0  0  0  0  0  0  0  0  0  0  0
    9.9256   -5.2462    0.0000 C   0  0  0  0  0  0  0  0  0  0  0  0
   10.6401   -4.8337    0.0000 C   0  0  0  0  0  0  0  0  0  0  0  0
   11.3546   -5.2462    0.0000 C   0  0  0  0  0  0  0  0  0  0  0  0
   11.3546   -6.0712    0.0000 C   0  0  0  0  0  0  0  0  0  0  0  0
   10.6401   -6.4837    0.0000 C   0  0  0  0  0  0  0  0  0  0  0  0
    9.9256   -6.0712    0.0000 C   0  0  0  0  0  0  0  0  0  0  0  0
    9.2112   -4.0087    0.0000 O   0  0  0  0  0  0  0  0  0  0  0  0
    8.4967   -5.2462    0.0000 O   0  0  0  0  0  0  0  0  0  0  0  0
    7.0678   -3.5962    0.0000 O   0  0  0  0  0  0  0  0  0  0  0  0
    7.7822   -4.0087    0.0000 C   0  0  0  0  0  0  0  0  0  0  0  0
    7.7822   -4.8337    0.0000 C   0  0  0  0  0  0  0  0  0  0  0  0
    7.0678   -5.2462    0.0000 C   0  0  0  0  0  0  0  0  0  0  0  0
    6.3533   -4.8337    0.0000 C   0  0  0  0  0  0  0  0  0  0  0  0
    6.3533   -4.0087    0.0000 C   0  0  0  0  0  0  0  0  0  0  0  0
    8.4967   -3.5962    0.0000 C   0  0  0  0  0  0  0  0  0  0  0  0
    5.6388   -3.5962    0.0000 O   0  0  0  0  0  0  0  0  0  0  0  0
    4.9244   -4.0087    0.0000 C   0  0  0  0  0  0  0  0  0  0  0  0
    5.6388   -5.2462    0.0000 O   0  0  0  0  0  0  0  0  0  0  0  0
    5.6388   -6.0712    0.0000 C   0  0  0  0  0  0  0  0  0  0  0  0
    4.9244   -6.4837    0.0000 C   0  0  0  0  0  0  0  0  0  0  0  0
    4.9244   -7.3087    0.0000 C   0  0  0  0  0  0  0  0  0  0  0  0
    4.2099   -7.7212    0.0000 C   0  0  0  0  0  0  0  0  0  0  0  0
    3.4954   -7.3087    0.0000 C   0  0  0  0  0  0  0  0  0  0  0  0
    3.4954   -6.4837    0.0000 C   0  0  0  0  0  0  0  0  0  0  0  0
    4.2099   -6.0712    0.0000 C   0  0  0  0  0  0  0  0  0  0  0  0
    6.3533   -6.4837    0.0000 O   0  0  0  0  0  0  0  0  0  0  0  0
    7.0678   -6.0712    0.0000 O   0  0  0  0  0  0  0  0  0  0  0  0
    7.7822   -6.4837    0.0000 C   0  0  0  0  0  0  0  0  0  0  0  0
    7.7822   -7.3087    0.0000 C   0  0  0  0  0  0  0  0  0  0  0  0
    7.0678   -7.7212    0.0000 C   0  0  0  0  0  0  0  0  0  0  0  0
    7.0678   -8.5462    0.0000 C   0  0  0  0  0  0  0  0  0  0  0  0
    7.7822   -8.9587    0.0000 C   0  0  0  0  0  0  0  0  0  0  0  0
    8.4967   -8.5462    0.0000 C   0  0  0  0  0  0  0  0  0  0  0  0
    8.4967   -7.7212    0.0000 C   0  0  0  0  0  0  0  0  0  0  0  0
    8.4967   -6.0712    0.0000 O   0  0  0  0  0  0  0  0  0  0  0  0
  1  2  1  0  0  0  0
  2  3  1  0  0  0  0
  3  4  2  0  0  0  0
  4  5  1  0  0  0  0
  5  6  2  0  0  0  0
  6  7  1  0  0  0  0
  2  7  2  0  0  0  0
  1  8  2  0  0  0  0
  1  9  1  0  0  0  0
 10 11  1  0  0  0  0
 11 12  1  0  0  0  0
 12 13  1  0  0  0  0
 13 14  1  0  0  0  0
 14 15  1  0  0  0  0
 10 15  1  0  0  0  0
 11 16  1  0  0  0  0
 17 18  1  0  0  0  0
 15 17  1  0  0  0  0
 20 21  1  0  0  0  0
 21 22  1  0  0  0  0
 22 23  2  0  0  0  0
 23 24  1  0  0  0  0
 24 25  2  0  0  0  0
 25 26  1  0  0  0  0
 21 26  2  0  0  0  0
 20 27  2  0  0  0  0
 19 20  1  0  0  0  0
 14 19  1  0  0  0  0
 29 30  1  0  0  0  0
 30 31  1  0  0  0  0
 31 32  2  0  0  0  0
 32 33  1  0  0  0  0
 33 34  2  0  0  0  0
 34 35  1  0  0  0  0
 30 35  2  0  0  0  0
 29 36  2  0  0  0  0
 28 29  1  0  0  0  0
 13 28  1  0  0  0  0
  9 12  1  0  0  0  0
M  END
>  <cdx:groupId>
849

>  <cdx:fragmentId>
779

$$$$
