301721.cdx
  Mrv1902 05222410182D          

 18 19  0  0  0  0            999 V2000
    9.0841   -6.4366    0.0000 C   0  0  0  0  0  0  0  0  0  0  0  0
    8.3696   -6.0241    0.0000 C   0  0  0  0  0  0  0  0  0  0  0  0
    8.3696   -5.1991    0.0000 C   0  0  0  0  0  0  0  0  0  0  0  0
    9.0841   -4.7866    0.0000 C   0  0  0  0  0  0  0  0  0  0  0  0
    9.7985   -5.1991    0.0000 C   0  0  0  0  0  0  0  0  0  0  0  0
    9.7985   -6.0241    0.0000 C   0  0  0  0  0  0  0  0  0  0  0  0
    9.0841   -7.2616    0.0000 O   0  0  0  0  0  0  0  0  0  0  0  0
    9.0841   -3.9616    0.0000 O   0  0  0  0  0  0  0  0  0  0  0  0
    5.5117   -7.6741    0.0000 O   0  0  0  0  0  0  0  0  0  0  0  0
    4.0828   -6.0241    0.0000 C   0  0  0  0  0  0  0  0  0  0  0  0
    4.7973   -6.4366    0.0000 C   0  0  0  0  0  0  0  0  0  0  0  0
    5.5117   -6.0241    0.0000 C   0  0  0  0  0  0  0  0  0  0  0  0
    7.6551   -7.2616    0.0000 C   0  0  0  0  0  0  0  0  0  0  0  0
    6.9407   -7.6741    0.0000 C   0  0  0  0  0  0  0  0  0  0  0  0
    6.2262   -7.2616    0.0000 C   0  0  0  0  0  0  0  0  0  0  0  0
    6.2262   -6.4366    0.0000 C   0  0  0  0  0  0  0  0  0  0  0  0
    6.9407   -6.0241    0.0000 C   0  0  0  0  0  0  0  0  0  0  0  0
    7.6551   -6.4366    0.0000 C   0  0  0  0  0  0  0  0  0  0  0  0
  2 18  1  0  0  0  0
 15  9  1  0  0  0  0
 16 12  1  0  0  0  0
 11 10  2  0  0  0  0
 12 11  1  0  0  0  0
 18 13  2  0  0  0  0
 14 13  1  0  0  0  0
 15 14  2  0  0  0  0
 16 15  1  0  0  0  0
 17 16  2  0  0  0  0
 18 17  1  0  0  0  0
  1  2  1  0  0  0  0
  2  3  2  0  0  0  0
  3  4  1  0  0  0  0
  4  5  2  0  0  0  0
  5  6  1  0  0  0  0
  1  6  2  0  0  0  0
  1  7  1  0  0  0  0
  4  8  1  0  0  0  0
M  END
>  <cdx:fragmentId>
1448

$$$$
