301774.cdx
  Mrv1902 05222410232D          

  8  8  0  0  0  0            999 V2000
    7.3684   -6.6991    0.0000 C   0  0  0  0  0  0  0  0  0  0  0  0
    7.2822   -5.8786    0.0000 C   0  0  0  0  0  0  0  0  0  0  0  0
    6.4752   -5.7070    0.0000 C   0  0  0  0  0  0  0  0  0  0  0  0
    6.0627   -6.4215    0.0000 C   0  0  0  0  0  0  0  0  0  0  0  0
    6.6147   -7.0346    0.0000 C   0  0  0  0  0  0  0  0  0  0  0  0
    7.8953   -5.3265    0.0000 C   0  0  0  0  0  0  0  0  0  0  0  0
    8.0829   -7.1116    0.0000 C   0  0  0  0  0  0  0  0  0  0  0  0
    8.7973   -6.6991    0.0000 C   0  0  0  0  0  0  0  0  0  0  0  0
  1  2  2  0  0  0  0
  2  3  1  0  0  0  0
  3  4  1  0  0  0  0
  4  5  1  0  0  0  0
  1  5  1  0  0  0  0
  2  6  1  0  0  0  0
  7  8  1  0  0  0  0
  1  7  1  0  0  0  0
M  END
>  <cdx:groupId>
26

>  <cdx:fragmentId>
5

$$$$
