301767.cdx
  Mrv1902 05222410252D          

  9  8  0  0  0  0            999 V2000
    8.1395   -8.3616    0.0000 C   0  0  0  0  0  0  0  0  0  0  0  0
    7.4250   -8.7741    0.0000 C   0  0  0  0  0  0  0  0  0  0  0  0
    6.7105   -8.3616    0.0000 C   0  0  0  0  0  0  0  0  0  0  0  0
    5.9961   -8.7741    0.0000 C   0  0  0  0  0  0  0  0  0  0  0  0
    5.2816   -8.3616    0.0000 C   0  0  0  0  0  0  0  0  0  0  0  0
    8.1395   -7.5366    0.0000 O   0  0  0  0  0  0  0  0  0  0  0  0
    8.8539   -8.7741    0.0000 O   0  0  0  0  0  0  0  0  0  0  0  0
    6.7105   -7.5366    0.0000 C   0  0  0  0  0  0  0  0  0  0  0  0
    9.5684   -8.3616    0.0000 C   0  0  0  0  0  0  0  0  0  0  0  0
  1  2  1  0  0  0  0
  2  3  1  0  0  0  0
  3  4  1  0  0  0  0
  4  5  1  0  0  0  0
  1  6  2  0  0  0  0
  1  7  1  0  0  0  0
  3  8  1  0  0  0  0
  7  9  1  0  0  0  0
M  END
>  <cdx:groupId>
5484

>  <cdx:fragmentId>
5461

$$$$
