301785.cdx
  Mrv1902 05222410222D          

 25 26  0  0  0  0            999 V2000
    6.0167   -7.5214    0.0000 O   0  0  0  0  0  0  0  0  0  0  0  0
    5.3023   -7.9339    0.0000 C   0  0  1  0  0  0  0  0  0  0  0  0
    5.3023   -8.7589    0.0000 C   0  0  2  0  0  0  0  0  0  0  0  0
    6.0167   -9.1714    0.0000 C   0  0  1  0  0  0  0  0  0  0  0  0
    6.7312   -8.7589    0.0000 C   0  0  2  0  0  0  0  0  0  0  0  0
    6.7312   -7.9339    0.0000 C   0  0  2  0  0  0  0  0  0  0  0  0
    4.5878   -9.1714    0.0000 O   0  0  0  0  0  0  0  0  0  0  0  0
    6.0167   -9.9964    0.0000 O   0  0  0  0  0  0  0  0  0  0  0  0
    7.4457   -9.1714    0.0000 O   0  0  0  0  0  0  0  0  0  0  0  0
    7.4457   -5.0464    0.0000 C   0  0  0  0  0  0  0  0  0  0  0  0
    7.4457   -4.2214    0.0000 C   0  0  0  0  0  0  0  0  0  0  0  0
    8.1602   -3.8089    0.0000 C   0  0  0  0  0  0  0  0  0  0  0  0
    8.1602   -2.9839    0.0000 C   0  0  0  0  0  0  0  0  0  0  0  0
    8.8746   -2.5714    0.0000 O   0  0  0  0  0  0  0  0  0  0  0  0
    4.5878   -7.5214    0.0000 C   0  0  0  0  0  0  0  0  0  0  0  0
    3.8733   -7.9339    0.0000 O   0  0  0  0  0  0  0  0  0  0  0  0
    9.5891   -6.2839    0.0000 C   0  0  0  0  0  0  0  0  0  0  0  0
    8.8746   -6.6964    0.0000 O   0  0  0  0  0  0  0  0  0  0  0  0
    8.8746   -1.7464    0.0000 C   0  0  0  0  0  0  0  0  0  0  0  0
    6.7312   -6.2839    0.0000 C   0  0  0  0  0  0  0  0  0  0  0  0
    6.7312   -5.4589    0.0000 C   0  0  0  0  0  0  0  0  0  0  0  0
    8.1602   -5.4589    0.0000 C   0  0  0  0  0  0  0  0  0  0  0  0
    8.1602   -6.2839    0.0000 C   0  0  0  0  0  0  0  0  0  0  0  0
    7.4457   -6.6964    0.0000 C   0  0  0  0  0  0  0  0  0  0  0  0
    7.4457   -7.5214    0.0000 O   0  0  0  0  0  0  0  0  0  0  0  0
 23 18  1  0  0  0  0
 18 17  1  0  0  0  0
 25 24  1  0  0  0  0
 24 20  2  0  0  0  0
 21 20  1  0  0  0  0
 10 21  2  0  0  0  0
 22 10  1  0  0  0  0
 23 22  2  0  0  0  0
 24 23  1  0  0  0  0
  1  2  1  0  0  0  0
  2  3  1  0  0  0  0
  3  4  1  0  0  0  0
  4  5  1  0  0  0  0
  5  6  1  0  0  0  0
  1  6  1  0  0  0  0
  3  7  1  6  0  0  0
  4  8  1  1  0  0  0
  5  9  1  6  0  0  0
 11 12  2  0  0  0  0
 12 13  1  0  0  0  0
 14 19  1  0  0  0  0
 13 14  1  0  0  0  0
 10 11  1  0  0  0  0
  6 25  1  1  0  0  0
 15 16  1  0  0  0  0
  2 15  1  1  0  0  0
M  END
>  <cdx:groupId>
1017

>  <cdx:fragmentId>
964

$$$$
