301793.cdx
  Mrv1902 05222410222D          

 28 30  0  0  0  0            999 V2000
    6.6347   -8.4554    0.0000 C   0  0  1  0  0  0  0  0  0  0  0  0
    6.8196   -7.6513    0.0000 C   0  0  2  0  0  0  0  0  0  0  0  0
    7.5928   -7.3626    0.0000 C   0  0  2  0  0  0  0  0  0  0  0  0
    8.2803   -7.8186    0.0000 C   0  0  0  0  0  0  0  0  0  0  0  0
    7.4637   -8.1669    0.0000 H   0  0  0  0  0  0  0  0  0  0  0  0
    6.3062   -7.0055    0.0000 C   0  0  2  0  0  0  0  0  0  0  0  0
    5.9167   -6.2782    0.0000 H   0  0  0  0  0  0  0  0  0  0  0  0
    6.7622   -6.3176    0.0000 O   0  0  0  0  0  0  0  0  0  0  0  0
    7.5572   -6.5388    0.0000 C   0  0  0  0  0  0  0  0  0  0  0  0
    8.2030   -6.0255    0.0000 O   0  0  0  0  0  0  0  0  0  0  0  0
    5.8906   -8.8119    0.0000 C   0  0  2  0  0  0  0  0  0  0  0  0
    6.5348   -9.3274    0.0000 C   0  0  0  0  0  0  0  0  0  0  0  0
    5.7785   -9.6292    0.0000 C   0  0  0  0  0  0  0  0  0  0  0  0
    4.9667   -9.7752    0.0000 C   0  0  0  0  0  0  0  0  0  0  0  0
    4.5767   -9.0479    0.0000 C   0  0  0  0  0  0  0  0  0  0  0  0
    5.1479   -8.4527    0.0000 C   0  0  1  0  0  0  0  0  0  0  0  0
    4.3531   -8.2316    0.0000 H   0  0  0  0  0  0  0  0  0  0  0  0
    4.9661   -7.6480    0.0000 C   0  0  2  0  0  0  0  0  0  0  0  0
    4.1503   -7.5236    0.0000 C   0  0  0  0  0  0  0  0  0  0  0  0
    5.4815   -7.0041    0.0000 C   0  0  0  0  0  0  0  0  0  0  0  0
    6.3738  -10.2004    0.0000 O   0  0  0  0  0  0  0  0  0  0  0  0
    9.4365   -9.5998    0.0000 C   0  0  0  0  0  0  0  0  0  0  0  0
    8.4634   -8.2676    0.0000 O   0  0  0  0  0  0  0  0  0  0  0  0
    7.2779   -9.0224    0.0000 O   0  0  0  0  0  0  0  0  0  0  0  0
    8.1298   -9.0219    0.0000 C   0  0  0  0  0  0  0  0  0  0  0  0
    8.6163   -9.6879    0.0000 C   0  0  0  0  0  0  0  0  0  0  0  0
    8.2826  -10.4427    0.0000 C   0  0  0  0  0  0  0  0  0  0  0  0
    9.8897  -10.2892    0.0000 C   0  0  0  0  0  0  0  0  0  0  0  0
 26 22  2  0  0  0  0
 25 23  2  0  0  0  0
 25 24  1  0  0  0  0
 26 25  1  0  0  0  0
 27 26  1  0  0  0  0
  1 24  1  6  0  0  0
  1  2  1  0  0  0  0
  2  3  1  0  0  0  0
  3  4  1  1  0  0  0
  2  5  1  6  0  0  0
  2  6  1  0  0  0  0
  6  7  1  6  0  0  0
  6  8  1  0  0  0  0
  8  9  1  0  0  0  0
  3  9  1  0  0  0  0
  9 10  2  0  0  0  0
  1 11  1  0  0  0  0
 11 12  1  1  0  0  0
 11 13  1  0  0  0  0
 13 14  1  0  0  0  0
 14 15  2  0  0  0  0
 15 16  1  0  0  0  0
 11 16  1  0  0  0  0
 16 17  1  6  0  0  0
 16 18  1  0  0  0  0
 18 19  1  6  0  0  0
 18 20  1  0  0  0  0
  6 20  1  0  0  0  0
 13 21  2  0  0  0  0
 22 28  1  0  0  0  0
M  END
>  <cdx:fragmentId>
1

$$$$
