301788.cdx
  Mrv1902 05222410242D          

 14 13  0  0  0  0            999 V2000
    6.7105   -6.6981    0.0000 C   0  0  0  0  0  0  0  0  0  0  0  0
    7.4250   -6.2856    0.0000 C   0  0  1  0  0  0  0  0  0  0  0  0
    8.1395   -6.6981    0.0000 C   0  0  2  0  0  0  0  0  0  0  0  0
    8.5520   -7.4126    0.0000 C   0  0  0  0  0  0  0  0  0  0  0  0
    5.9961   -6.2856    0.0000 C   0  0  0  0  0  0  0  0  0  0  0  0
    5.9961   -5.4606    0.0000 O   0  0  0  0  0  0  0  0  0  0  0  0
    5.2816   -6.6981    0.0000 O   0  0  0  0  0  0  0  0  0  0  0  0
    7.4250   -5.4606    0.0000 C   0  0  0  0  0  0  0  0  0  0  0  0
    6.7105   -5.0481    0.0000 O   0  0  0  0  0  0  0  0  0  0  0  0
    8.1395   -5.0481    0.0000 O   0  0  0  0  0  0  0  0  0  0  0  0
    8.8539   -6.2856    0.0000 C   0  0  0  0  0  0  0  0  0  0  0  0
    8.8539   -5.4606    0.0000 O   0  0  0  0  0  0  0  0  0  0  0  0
    9.5684   -6.6981    0.0000 O   0  0  0  0  0  0  0  0  0  0  0  0
    7.7270   -7.4126    0.0000 O   0  0  0  0  0  0  0  0  0  0  0  0
  1  2  1  0  0  0  0
  2  3  1  0  0  0  0
  3  4  1  1  0  0  0
  5  6  2  0  0  0  0
  5  7  1  0  0  0  0
  1  5  1  0  0  0  0
  8  9  2  0  0  0  0
  8 10  1  0  0  0  0
  2  8  1  6  0  0  0
 11 12  2  0  0  0  0
 11 13  1  0  0  0  0
  3 11  1  0  0  0  0
  3 14  1  6  0  0  0
M  END
>  <cdx:groupId>
1202

>  <cdx:fragmentId>
1164

$$$$
