301700.cdx
  Mrv1902 05222410262D          

 44 47  0  0  0  0            999 V2000
    2.2269   -6.3247    0.0000 O   0  0  0  0  0  0  0  0  0  0  0  0
    1.5595   -6.8096    0.0000 C   0  0  0  0  0  0  0  0  0  0  0  0
    0.8920   -6.3247    0.0000 C   0  0  0  0  0  0  0  0  0  0  0  0
    1.1470   -5.5401    0.0000 C   0  0  0  0  0  0  0  0  0  0  0  0
    0.7345   -4.8256    0.0000 C   0  0  0  0  0  0  0  0  0  0  0  0
    1.1470   -4.1111    0.0000 C   0  0  0  0  0  0  0  0  0  0  0  0
    1.9720   -4.1111    0.0000 C   0  0  0  0  0  0  0  0  0  0  0  0
    2.3845   -4.8256    0.0000 C   0  0  0  0  0  0  0  0  0  0  0  0
    1.9720   -5.5401    0.0000 C   0  0  0  0  0  0  0  0  0  0  0  0
    2.3845   -3.3966    0.0000 O   0  0  0  0  0  0  0  0  0  0  0  0
    2.7925   -5.6263    0.0000 C   0  0  0  0  0  0  0  0  0  0  0  0
    0.0200   -5.2381    0.0000 C   0  0  0  0  0  0  0  0  0  0  0  0
    0.0200   -4.4131    0.0000 C   0  0  0  0  0  0  0  0  0  0  0  0
    0.8450   -8.0471    0.0000 C   0  0  0  0  0  0  0  0  0  0  0  0
    1.5595   -7.6346    0.0000 C   0  0  0  0  0  0  0  0  0  0  0  0
    2.2740   -8.0471    0.0000 C   0  0  0  0  0  0  0  0  0  0  0  0
    2.9884   -7.6346    0.0000 C   0  0  0  0  0  0  0  0  0  0  0  0
    3.7029   -8.0471    0.0000 C   0  0  0  0  0  0  0  0  0  0  0  0
    4.4174   -7.6346    0.0000 C   0  0  0  0  0  0  0  0  0  0  0  0
    5.1318   -8.0471    0.0000 C   0  0  0  0  0  0  0  0  0  0  0  0
    5.8463   -7.6346    0.0000 C   0  0  0  0  0  0  0  0  0  0  0  0
    6.5608   -8.0471    0.0000 C   0  0  0  0  0  0  0  0  0  0  0  0
    7.2752   -7.6346    0.0000 C   0  0  0  0  0  0  0  0  0  0  0  0
    7.9897   -8.0471    0.0000 C   0  0  0  0  0  0  0  0  0  0  0  0
    8.7042   -7.6346    0.0000 C   0  0  0  0  0  0  0  0  0  0  0  0
    9.4187   -8.0471    0.0000 C   0  0  0  0  0  0  0  0  0  0  0  0
   10.1331   -7.6346    0.0000 C   0  0  0  0  0  0  0  0  0  0  0  0
   10.8476   -8.0471    0.0000 C   0  0  0  0  0  0  0  0  0  0  0  0
   11.5621   -7.6346    0.0000 C   0  0  0  0  0  0  0  0  0  0  0  0
   12.2765   -8.0471    0.0000 C   0  0  0  0  0  0  0  0  0  0  0  0
   10.8476   -8.8721    0.0000 C   0  0  0  0  0  0  0  0  0  0  0  0
    7.9897   -8.8721    0.0000 C   0  0  0  0  0  0  0  0  0  0  0  0
    4.4174   -6.8096    0.0000 C   0  0  0  0  0  0  0  0  0  0  0  0
   12.9910   -7.6346    0.0000 C   0  0  0  0  0  0  0  0  0  0  0  0
   13.4035   -8.3491    0.0000 C   0  0  0  0  0  0  0  0  0  0  0  0
   14.2285   -8.3491    0.0000 C   0  0  0  0  0  0  0  0  0  0  0  0
   14.6410   -7.6346    0.0000 C   0  0  0  0  0  0  0  0  0  0  0  0
   14.2285   -6.9201    0.0000 C   0  0  0  0  0  0  0  0  0  0  0  0
   13.4035   -6.9201    0.0000 C   0  0  0  0  0  0  0  0  0  0  0  0
   12.5785   -6.9201    0.0000 O   0  0  0  0  0  0  0  0  0  0  0  0
   13.4035   -6.0951    0.0000 C   0  0  0  0  0  0  0  0  0  0  0  0
   13.4035   -9.1741    0.0000 C   0  0  0  0  0  0  0  0  0  0  0  0
   12.6890   -8.7616    0.0000 C   0  0  0  0  0  0  0  0  0  0  0  0
   15.4660   -7.6346    0.0000 O   0  0  0  0  0  0  0  0  0  0  0  0
  1  2  1  0  0  0  0
  2  3  1  0  0  0  0
  3  4  2  0  0  0  0
  4  5  1  0  0  0  0
  5  6  1  0  0  0  0
  6  7  1  0  0  0  0
  7  8  1  0  0  0  0
  8  9  1  0  0  0  0
  4  9  1  0  0  0  0
  1  9  1  0  0  0  0
  7 10  1  0  0  0  0
  9 11  1  0  0  0  0
  5 12  1  0  0  0  0
  5 13  1  0  0  0  0
 14 15  1  0  0  0  0
 15 16  2  0  0  0  0
 16 17  1  0  0  0  0
 17 18  2  0  0  0  0
 18 19  1  0  0  0  0
 19 20  2  0  0  0  0
 20 21  1  0  0  0  0
 21 22  2  0  0  0  0
 22 23  1  0  0  0  0
 23 24  2  0  0  0  0
 24 25  1  0  0  0  0
 25 26  2  0  0  0  0
 26 27  1  0  0  0  0
 27 28  2  0  0  0  0
 28 29  1  0  0  0  0
 29 30  2  0  0  0  0
 28 31  1  0  0  0  0
 24 32  1  0  0  0  0
 19 33  1  0  0  0  0
 34 35  1  0  0  0  0
 35 36  1  0  0  0  0
 36 37  1  0  0  0  0
 37 38  1  0  0  0  0
 38 39  1  0  0  0  0
 39 40  1  0  0  0  0
 34 40  1  0  0  0  0
 34 39  1  0  0  0  0
 39 41  1  0  0  0  0
 35 42  1  0  0  0  0
 35 43  1  0  0  0  0
 37 44  1  0  0  0  0
 30 34  1  0  0  0  0
  2 15  1  0  0  0  0
M  END
>  <cdx:groupId>
835

>  <cdx:fragmentId>
729

$$$$
