301727.cdx
  Mrv1902 05222410202D          

 22 24  0  0  0  0            999 V2000
    6.9721   -7.1307    0.0000 C   0  0  0  0  0  0  0  0  0  0  0  0
    6.2588   -6.7162    0.0000 C   0  0  0  0  0  0  0  0  0  0  0  0
    5.5431   -7.1266    0.0000 C   0  0  0  0  0  0  0  0  0  0  0  0
    5.5408   -7.9516    0.0000 C   0  0  0  0  0  0  0  0  0  0  0  0
    6.2541   -8.3662    0.0000 C   0  0  0  0  0  0  0  0  0  0  0  0
    6.9697   -7.9557    0.0000 C   0  0  0  0  0  0  0  0  0  0  0  0
    6.2517   -9.1912    0.0000 C   0  0  0  0  0  0  0  0  0  0  0  0
    5.5361   -9.6016    0.0000 C   0  0  0  0  0  0  0  0  0  0  0  0
    5.5337  -10.4266    0.0000 C   0  0  0  0  0  0  0  0  0  0  0  0
    6.2611   -5.8912    0.0000 O   0  0  0  0  0  0  0  0  0  0  0  0
   11.6228   -7.0334    0.0000 O   0  0  0  0  0  0  0  0  0  0  0  0
   11.2123   -6.3178    0.0000 C   0  0  0  0  0  0  0  0  0  0  0  0
   10.1532   -7.7668    0.0000 O   0  0  0  0  0  0  0  0  0  0  0  0
    9.1190   -5.8993    0.0000 C   0  0  0  0  0  0  0  0  0  0  0  0
    8.4057   -5.4848    0.0000 C   0  0  0  0  0  0  0  0  0  0  0  0
    7.6900   -5.8952    0.0000 C   0  0  0  0  0  0  0  0  0  0  0  0
    7.6877   -6.7202    0.0000 C   0  0  0  0  0  0  0  0  0  0  0  0
    8.4010   -7.1348    0.0000 C   0  0  0  0  0  0  0  0  0  0  0  0
    9.1166   -6.7243    0.0000 C   0  0  0  0  0  0  0  0  0  0  0  0
    9.9005   -6.9815    0.0000 C   0  0  2  0  0  0  0  0  0  0  0  0
   10.3873   -6.3154    0.0000 C   0  0  1  0  0  0  0  0  0  0  0  0
    9.9043   -5.6466    0.0000 O   0  0  0  0  0  0  0  0  0  0  0  0
 21 12  1  1  0  0  0
 12 11  1  0  0  0  0
 20 13  1  6  0  0  0
 22 14  1  0  0  0  0
 19 14  2  0  0  0  0
 15 14  1  0  0  0  0
 16 15  2  0  0  0  0
 17 16  1  0  0  0  0
 18 17  2  0  0  0  0
 19 18  1  0  0  0  0
 20 19  1  0  0  0  0
 21 20  1  0  0  0  0
 22 21  1  0  0  0  0
  1  2  1  0  0  0  0
  2  3  2  0  0  0  0
  3  4  1  0  0  0  0
  4  5  2  0  0  0  0
  5  6  1  0  0  0  0
  1  6  2  0  0  0  0
  7  8  1  0  0  0  0
  8  9  2  0  0  0  0
  5  7  1  0  0  0  0
  2 10  1  0  0  0  0
 17  1  1  0  0  0  0
M  END
>  <cdx:fragmentId>
1709

$$$$
