301795.cdx
  Mrv1902 05222410212D          

 21 23  0  0  0  0            999 V2000
    6.5534   -8.1352    0.0000 H   0  0  0  0  0  0  0  0  0  0  0  0
    6.5680   -5.6603    0.0000 C   0  0  0  0  0  0  0  0  0  0  0  0
    6.2497   -8.4354    0.0000 C   0  0  0  0  0  0  0  0  0  0  0  0
    5.4247   -8.4306    0.0000 C   0  0  0  0  0  0  0  0  0  0  0  0
    9.4355   -4.0271    0.0000 C   0  0  0  0  0  0  0  0  0  0  0  0
    9.4307   -4.8521    0.0000 C   0  0  0  0  0  0  0  0  0  0  0  0
   10.1427   -5.2688    0.0000 C   0  0  0  0  0  0  0  0  0  0  0  0
    7.9921   -6.4937    0.0000 C   0  0  0  0  0  0  0  0  0  0  0  0
    7.9872   -7.3187    0.0000 C   0  0  0  0  0  0  0  0  0  0  0  0
    7.2703   -7.7270    0.0000 C   0  0  0  0  0  0  0  0  0  0  0  0
    6.5583   -7.3103    0.0000 C   0  0  1  0  0  0  0  0  0  0  0  0
    5.8414   -7.7185    0.0000 C   0  0  0  0  0  0  0  0  0  0  0  0
    5.1294   -7.3019    0.0000 C   0  0  0  0  0  0  0  0  0  0  0  0
    5.1342   -6.4769    0.0000 C   0  0  0  0  0  0  0  0  0  0  0  0
    5.8511   -6.0686    0.0000 C   0  0  0  0  0  0  0  0  0  0  0  0
    6.5631   -6.4853    0.0000 C   0  0  1  0  0  0  0  0  0  0  0  0
    7.2800   -6.0770    0.0000 C   0  0  0  0  0  0  0  0  0  0  0  0
    7.2849   -5.2520    0.0000 C   0  0  0  0  0  0  0  0  0  0  0  0
    8.0018   -4.8437    0.0000 C   0  0  0  0  0  0  0  0  0  0  0  0
    8.7138   -5.2604    0.0000 C   0  0  0  0  0  0  0  0  0  0  0  0
    8.7089   -6.0854    0.0000 C   0  0  0  0  0  0  0  0  0  0  0  0
 11  1  1  6  0  0  0
 16  2  1  1  0  0  0
 12  3  1  0  0  0  0
 12  4  1  0  0  0  0
 20  6  1  0  0  0  0
  6  5  1  0  0  0  0
  7  6  1  0  0  0  0
 17  8  2  0  0  0  0
 21  8  1  0  0  0  0
  9  8  1  0  0  0  0
 10  9  1  0  0  0  0
 11 10  1  0  0  0  0
 16 11  1  0  0  0  0
 12 11  1  0  0  0  0
 13 12  1  0  0  0  0
 14 13  1  0  0  0  0
 15 14  1  0  0  0  0
 16 15  1  0  0  0  0
 17 16  1  0  0  0  0
 18 17  1  0  0  0  0
 19 18  1  0  0  0  0
 20 19  2  0  0  0  0
 21 20  1  0  0  0  0
M  END
>  <cdx:fragmentId>
1601

$$$$
