301784.cdx
  Mrv1902 05222410222D          

 13 12  0  0  0  0            999 V2000
    9.7762   -5.9952    0.0000 C   0  0  0  0  0  0  0  0  0  0  0  0
    9.0617   -6.4077    0.0000 C   0  0  0  0  0  0  0  0  0  0  0  0
    8.3472   -5.9952    0.0000 C   0  0  0  0  0  0  0  0  0  0  0  0
    7.6327   -6.4077    0.0000 C   0  0  0  0  0  0  0  0  0  0  0  0
    6.9183   -5.9952    0.0000 C   0  0  0  0  0  0  0  0  0  0  0  0
    9.7762   -5.1702    0.0000 O   0  0  0  0  0  0  0  0  0  0  0  0
   10.4906   -6.4077    0.0000 O   0  0  0  0  0  0  0  0  0  0  0  0
    6.2038   -6.4077    0.0000 N   0  0  0  0  0  0  0  0  0  0  0  0
    5.4893   -5.9952    0.0000 C   0  0  0  0  0  0  0  0  0  0  0  0
    5.4893   -5.1702    0.0000 N   0  0  0  0  0  0  0  0  0  0  0  0
    4.7749   -6.4077    0.0000 N   0  0  0  0  0  0  0  0  0  0  0  0
    4.0604   -5.9952    0.0000 C   0  0  0  0  0  0  0  0  0  0  0  0
    9.0617   -7.2327    0.0000 N   0  0  0  0  0  0  0  0  0  0  0  0
  1  2  1  0  0  0  0
  2  3  1  0  0  0  0
  3  4  1  0  0  0  0
  4  5  1  0  0  0  0
  1  6  2  0  0  0  0
  1  7  1  0  0  0  0
  9 10  1  0  0  0  0
  9 11  2  0  0  0  0
 11 12  1  0  0  0  0
  8  9  1  0  0  0  0
  5  8  1  0  0  0  0
  2 13  1  0  0  0  0
M  END
>  <cdx:groupId>
939

>  <cdx:fragmentId>
904

$$$$
