30175.cdx
  Mrv1902 05222410232D          

 16 15  0  0  0  0            999 V2000
    4.2286  -12.7520    0.0000 C   0  0  0  0  0  0  0  0  0  0  0  0
    4.2286  -11.9270    0.0000 C   0  0  0  0  0  0  0  0  0  0  0  0
    3.5141  -11.5145    0.0000 C   0  0  0  0  0  0  0  0  0  0  0  0
    4.9430  -11.5145    0.0000 C   0  0  0  0  0  0  0  0  0  0  0  0
    4.9430  -10.6895    0.0000 C   0  0  0  0  0  0  0  0  0  0  0  0
    5.6575  -10.2770    0.0000 C   0  0  0  0  0  0  0  0  0  0  0  0
    5.6575   -9.4520    0.0000 C   0  0  0  0  0  0  0  0  0  0  0  0
    4.9430   -9.0395    0.0000 C   0  0  0  0  0  0  0  0  0  0  0  0
    7.0864   -9.4520    0.0000 C   0  0  0  0  0  0  0  0  0  0  0  0
    6.3720   -9.0395    0.0000 C   0  0  0  0  0  0  0  0  0  0  0  0
    8.5154  -10.2770    0.0000 C   0  0  0  0  0  0  0  0  0  0  0  0
    8.5154   -9.4520    0.0000 C   0  0  0  0  0  0  0  0  0  0  0  0
    7.8009   -9.0395    0.0000 C   0  0  0  0  0  0  0  0  0  0  0  0
    9.2299   -9.0395    0.0000 C   0  0  0  0  0  0  0  0  0  0  0  0
    9.2299   -8.2145    0.0000 C   0  0  0  0  0  0  0  0  0  0  0  0
    9.9443   -7.8020    0.0000 O   0  0  0  0  0  0  0  0  0  0  0  0
  1  2  1  0  0  0  0
  2  3  1  0  0  0  0
  2  4  2  0  0  0  0
  4  5  1  0  0  0  0
  5  6  1  0  0  0  0
  6  7  1  0  0  0  0
  7  8  1  0  0  0  0
  9 10  1  0  0  0  0
 10  7  2  0  0  0  0
 11 12  1  0  0  0  0
 12 13  1  0  0  0  0
 13  9  1  0  0  0  0
 12 14  2  0  0  0  0
 14 15  1  0  0  0  0
 16 15  1  0  0  0  0
M  END
>  <cdx:fragmentId>
5

$$$$
