301726.cdx
  Mrv1902 05222410202D          

 24 25  0  0  0  0            999 V2000
    8.6597   -8.8131    0.0000 C   0  0  0  0  0  0  0  0  0  0  0  0
    7.9299  -10.0416    0.0000 O   0  0  0  0  0  0  0  0  0  0  0  0
    9.3792   -8.4095    0.0000 O   0  0  0  0  0  0  0  0  0  0  0  0
    5.8225   -7.1277    0.0000 O   0  0  0  0  0  0  0  0  0  0  0  0
    7.2924   -3.8457    0.0000 O   0  0  0  0  0  0  0  0  0  0  0  0
    9.4408   -3.4599    0.0000 C   0  0  0  0  0  0  0  0  0  0  0  0
    8.7212   -3.8634    0.0000 C   0  0  0  0  0  0  0  0  0  0  0  0
    8.7110   -4.6884    0.0000 C   0  0  0  0  0  0  0  0  0  0  0  0
    6.5523   -5.8991    0.0000 C   0  0  0  0  0  0  0  0  0  0  0  0
    6.5626   -5.0742    0.0000 C   0  0  0  0  0  0  0  0  0  0  0  0
    7.2821   -4.6706    0.0000 C   0  0  0  0  0  0  0  0  0  0  0  0
    7.9914   -5.0920    0.0000 C   0  0  0  0  0  0  0  0  0  0  0  0
    7.9812   -5.9169    0.0000 C   0  0  0  0  0  0  0  0  0  0  0  0
    7.2616   -6.3205    0.0000 C   0  0  0  0  0  0  0  0  0  0  0  0
    7.2309   -8.7953    0.0000 C   0  0  0  0  0  0  0  0  0  0  0  0
    6.5216   -8.3740    0.0000 C   0  0  0  0  0  0  0  0  0  0  0  0
    6.5318   -7.5490    0.0000 C   0  0  0  0  0  0  0  0  0  0  0  0
    7.2514   -7.1454    0.0000 C   0  0  0  0  0  0  0  0  0  0  0  0
    7.9607   -7.5668    0.0000 C   0  0  0  0  0  0  0  0  0  0  0  0
    7.9504   -8.3917    0.0000 C   0  0  0  0  0  0  0  0  0  0  0  0
   10.0937   -8.8220    0.0000 C   0  0  0  0  0  0  0  0  0  0  0  0
    9.3485  -10.8843    0.0000 O   0  0  0  0  0  0  0  0  0  0  0  0
    8.6494   -9.6380    0.0000 C   0  0  0  0  0  0  0  0  0  0  0  0
    9.3587  -10.0594    0.0000 C   0  0  0  0  0  0  0  0  0  0  0  0
  1 20  1  0  0  0  0
 17  4  1  0  0  0  0
 18 14  1  0  0  0  0
 11  5  1  0  0  0  0
 12  8  1  0  0  0  0
  7  6  2  0  0  0  0
  8  7  1  0  0  0  0
 14  9  2  0  0  0  0
 10  9  1  0  0  0  0
 11 10  2  0  0  0  0
 12 11  1  0  0  0  0
 13 12  2  0  0  0  0
 14 13  1  0  0  0  0
 20 15  2  0  0  0  0
 16 15  1  0  0  0  0
 17 16  2  0  0  0  0
 18 17  1  0  0  0  0
 19 18  2  0  0  0  0
 20 19  1  0  0  0  0
 23  2  1  0  0  0  0
 24 22  1  0  0  0  0
 24 23  1  0  0  0  0
 23  1  1  0  0  0  0
  3 21  1  0  0  0  0
  1  3  1  0  0  0  0
M  END
>  <cdx:fragmentId>
1659

$$$$
