301786.cdx
  Mrv1902 05222410232D          

  9  9  0  0  0  0            999 V2000
    8.0440   -5.8094    0.0000 C   0  0  0  0  0  0  0  0  0  0  0  0
    8.0440   -6.6344    0.0000 C   0  0  0  0  0  0  0  0  0  0  0  0
    7.4606   -7.2177    0.0000 C   0  0  0  0  0  0  0  0  0  0  0  0
    6.6356   -7.2177    0.0000 C   0  0  0  0  0  0  0  0  0  0  0  0
    6.0523   -6.6344    0.0000 C   0  0  0  0  0  0  0  0  0  0  0  0
    6.0523   -5.8094    0.0000 C   0  0  0  0  0  0  0  0  0  0  0  0
    6.6356   -5.2260    0.0000 C   0  0  0  0  0  0  0  0  0  0  0  0
    7.4606   -5.2260    0.0000 C   0  0  0  0  0  0  0  0  0  0  0  0
    8.8062   -5.4937    0.0000 C   0  0  0  0  0  0  0  0  0  0  0  0
  1  2  1  0  0  0  0
  2  3  1  0  0  0  0
  3  4  1  0  0  0  0
  4  5  1  0  0  0  0
  5  6  1  0  0  0  0
  6  7  1  0  0  0  0
  7  8  1  0  0  0  0
  1  8  1  0  0  0  0
  1  9  1  0  0  0  0
M  END
>  <cdx:groupId>
1051

>  <cdx:fragmentId>
1027

$$$$
