301798.cdx
  Mrv1902 05222410252D          

 18 18  0  0  0  0            999 V2000
    6.0366   -5.4239    0.0000 O   0  0  0  0  0  0  0  0  0  0  0  0
    5.3267   -5.8443    0.0000 C   0  0  1  0  0  0  0  0  0  0  0  0
    5.3358   -6.6693    0.0000 C   0  0  2  0  0  0  0  0  0  0  0  0
    6.0548   -7.0738    0.0000 C   0  0  1  0  0  0  0  0  0  0  0  0
    6.7647   -6.6535    0.0000 C   0  0  2  0  0  0  0  0  0  0  0  0
    6.7556   -5.8285    0.0000 C   0  0  2  0  0  0  0  0  0  0  0  0
    4.6260   -7.0896    0.0000 O   0  0  0  0  0  0  0  0  0  0  0  0
    6.0640   -7.8988    0.0000 O   0  0  0  0  0  0  0  0  0  0  0  0
    7.4837   -7.0580    0.0000 O   0  0  0  0  0  0  0  0  0  0  0  0
    7.4654   -5.4081    0.0000 O   0  0  0  0  0  0  0  0  0  0  0  0
    8.1844   -5.8127    0.0000 C   0  0  0  0  0  0  0  0  0  0  0  0
    8.8943   -5.3923    0.0000 C   0  0  0  0  0  0  0  0  0  0  0  0
    9.6133   -5.7969    0.0000 C   0  0  0  0  0  0  0  0  0  0  0  0
   10.3231   -5.3765    0.0000 N   0  3  0  0  0  0  0  0  0  0  0  0
   10.3140   -4.5516    0.0000 O   0  0  0  0  0  0  0  0  0  0  0  0
   11.0421   -5.7811    0.0000 O   0  5  0  0  0  0  0  0  0  0  0  0
    4.6077   -5.4397    0.0000 C   0  0  0  0  0  0  0  0  0  0  0  0
    3.8979   -5.8601    0.0000 O   0  0  0  0  0  0  0  0  0  0  0  0
  1  2  1  0  0  0  0
  2  3  1  0  0  0  0
  3  4  1  0  0  0  0
  4  5  1  0  0  0  0
  5  6  1  0  0  0  0
  1  6  1  0  0  0  0
  3  7  1  6  0  0  0
  4  8  1  1  0  0  0
  5  9  1  6  0  0  0
 11 12  1  0  0  0  0
 12 13  1  0  0  0  0
 10 11  1  0  0  0  0
 14 15  2  0  0  0  0
 14 16  1  0  0  0  0
 13 14  1  0  0  0  0
  6 10  1  1  0  0  0
 17 18  1  0  0  0  0
  2 17  1  1  0  0  0
M  CHG  2  14   1  16  -1
M  END
>  <cdx:fragmentId>
1825

$$$$
