30171.cdx
  Mrv1902 05222410252D          

 12 11  0  0  0  0            999 V2000
    5.7667   -8.1013    0.0000 C   0  0  0  0  0  0  0  0  0  0  0  0
    5.0522   -8.5138    0.0000 C   0  0  0  0  0  0  0  0  0  0  0  0
    5.0522   -9.3388    0.0000 C   0  0  0  0  0  0  0  0  0  0  0  0
    5.7667   -7.2763    0.0000 O   0  0  0  0  0  0  0  0  0  0  0  0
    6.4812   -8.5138    0.0000 O   0  0  0  0  0  0  0  0  0  0  0  0
    4.3378   -8.1013    0.0000 C   0  0  0  0  0  0  0  0  0  0  0  0
    7.1956   -8.1013    0.0000 C   0  0  0  0  0  0  0  0  0  0  0  0
    7.9101   -8.5138    0.0000 C   0  0  0  0  0  0  0  0  0  0  0  0
    8.6246   -8.1013    0.0000 C   0  0  0  0  0  0  0  0  0  0  0  0
    9.3391   -8.5138    0.0000 C   0  0  0  0  0  0  0  0  0  0  0  0
    9.3391   -9.3388    0.0000 C   0  0  0  0  0  0  0  0  0  0  0  0
   10.0535   -9.7513    0.0000 C   0  0  0  0  0  0  0  0  0  0  0  0
  1  2  1  0  0  0  0
  2  3  1  0  0  0  0
  1  4  2  0  0  0  0
  1  5  1  0  0  0  0
  2  6  1  0  0  0  0
  7  8  1  0  0  0  0
  8  9  1  0  0  0  0
  9 10  2  0  0  0  0
 10 11  1  0  0  0  0
 11 12  1  0  0  0  0
  5  7  1  0  0  0  0
M  END
>  <cdx:fragmentId>
17

$$$$
