301751.cdx
  Mrv1902 05222410232D          

 37 42  0  0  0  0            999 V2000
    7.5964   -4.8895    0.0000 O   0  0  0  0  0  0  0  0  0  0  0  0
    8.2094   -5.4415    0.0000 C   0  0  0  0  0  0  0  0  0  0  0  0
    8.3810   -4.6346    0.0000 C   0  0  0  0  0  0  0  0  0  0  0  0
    8.5525   -3.8276    0.0000 C   0  0  0  0  0  0  0  0  0  0  0  0
    9.1656   -4.3796    0.0000 C   0  0  0  0  0  0  0  0  0  0  0  0
    4.5669   -9.4256    0.0000 C   0  0  0  0  0  0  0  0  0  0  0  0
    3.8525   -9.8381    0.0000 C   0  0  0  0  0  0  0  0  0  0  0  0
    3.8525  -10.6631    0.0000 C   0  0  1  0  0  0  0  0  0  0  0  0
    4.5669  -11.0756    0.0000 C   0  0  0  0  0  0  0  0  0  0  0  0
    5.2814  -10.6631    0.0000 C   0  0  0  0  0  0  0  0  0  0  0  0
    5.9959  -11.0756    0.0000 C   0  0  0  0  0  0  0  0  0  0  0  0
    6.7104  -10.6631    0.0000 C   0  0  0  0  0  0  0  0  0  0  0  0
    6.7104   -9.8381    0.0000 C   0  0  0  0  0  0  0  0  0  0  0  0
    7.4248   -9.4256    0.0000 C   0  0  1  0  0  0  0  0  0  0  0  0
    8.2094   -9.6805    0.0000 C   0  0  0  0  0  0  0  0  0  0  0  0
    8.6944   -9.0131    0.0000 C   0  0  0  0  0  0  0  0  0  0  0  0
    8.2094   -8.3457    0.0000 C   0  0  1  0  0  0  0  0  0  0  0  0
    7.4248   -8.6006    0.0000 C   0  0  2  0  0  0  0  0  0  0  0  0
    6.7104   -8.1881    0.0000 C   0  0  0  0  0  0  0  0  0  0  0  0
    5.9959   -8.6006    0.0000 C   0  0  0  0  0  0  0  0  0  0  0  0
    5.9959   -9.4256    0.0000 C   0  0  2  0  0  0  0  0  0  0  0  0
    5.2814   -9.8381    0.0000 C   0  0  1  0  0  0  0  0  0  0  0  0
    7.4248  -10.2506    0.0000 C   0  0  0  0  0  0  0  0  0  0  0  0
    7.5111   -7.7801    0.0000 C   0  0  0  0  0  0  0  0  0  0  0  0
    5.2814   -9.0131    0.0000 C   0  0  0  0  0  0  0  0  0  0  0  0
    4.9794  -11.7901    0.0000 C   0  0  0  0  0  0  0  0  0  0  0  0
    4.1544  -11.7901    0.0000 C   0  0  0  0  0  0  0  0  0  0  0  0
    3.1380  -11.0756    0.0000 O   0  0  0  0  0  0  0  0  0  0  0  0
    5.9959  -10.2506    0.0000 H   0  0  0  0  0  0  0  0  0  0  0  0
    9.9164   -7.7910    0.0000 O   0  0  0  0  0  0  0  0  0  0  0  0
    8.4644   -6.2262    0.0000 C   0  0  1  0  0  0  0  0  0  0  0  0
    7.9795   -6.8936    0.0000 C   0  0  0  0  0  0  0  0  0  0  0  0
    8.4644   -7.5610    0.0000 C   0  0  0  0  0  0  0  0  0  0  0  0
    9.2490   -7.3061    0.0000 C   0  0  1  0  0  0  0  0  0  0  0  0
    9.2490   -6.4811    0.0000 O   0  0  0  0  0  0  0  0  0  0  0  0
    9.0478   -5.6428    0.0000 H   0  0  0  0  0  0  0  0  0  0  0  0
    9.0243   -8.2166    0.0000 H   0  0  0  0  0  0  0  0  0  0  0  0
 31  2  1  0  0  0  0
 34 30  1  1  0  0  0
 31 35  1  0  0  0  0
 32 31  1  0  0  0  0
 33 32  1  0  0  0  0
 34 33  1  0  0  0  0
 35 34  1  0  0  0  0
  1  2  1  0  0  0  0
  2  3  1  0  0  0  0
  1  3  1  0  0  0  0
  3  4  1  0  0  0  0
  3  5  1  0  0  0  0
  6  7  1  0  0  0  0
  7  8  1  0  0  0  0
  8  9  1  0  0  0  0
  9 10  1  0  0  0  0
 10 11  1  0  0  0  0
 11 12  1  0  0  0  0
 12 13  2  0  0  0  0
 13 14  1  0  0  0  0
 14 15  1  0  0  0  0
 15 16  1  0  0  0  0
 17 16  1  0  0  0  0
 17 18  1  0  0  0  0
 14 18  1  0  0  0  0
 18 19  1  0  0  0  0
 19 20  1  0  0  0  0
 20 21  1  0  0  0  0
 13 21  1  0  0  0  0
 21 22  1  0  0  0  0
 10 22  1  0  0  0  0
  6 22  1  0  0  0  0
 14 23  1  1  0  0  0
 18 24  1  6  0  0  0
 22 25  1  1  0  0  0
  9 26  1  0  0  0  0
  9 27  1  0  0  0  0
  8 28  1  1  0  0  0
 33 17  1  0  0  0  0
 21 29  1  6  0  0  0
 31 36  1  1  0  0  0
 17 37  1  6  0  0  0
M  END
>  <cdx:fragmentId>
17

$$$$
