301759.cdx
  Mrv1902 05222410252D          

  6  5  0  0  0  0            999 V2000
    7.9900   -8.3616    0.0000 C   0  0  0  0  0  0  0  0  0  0  0  0
    7.2755   -8.7741    0.0000 C   0  0  0  0  0  0  0  0  0  0  0  0
    7.9900   -7.5366    0.0000 O   0  0  0  0  0  0  0  0  0  0  0  0
    8.7045   -8.7741    0.0000 O   0  0  0  0  0  0  0  0  0  0  0  0
    6.5610   -8.3616    0.0000 O   0  0  0  0  0  0  0  0  0  0  0  0
    5.8466   -8.7741    0.0000 C   0  0  0  0  0  0  0  0  0  0  0  0
  1  2  1  0  0  0  0
  1  3  2  0  0  0  0
  1  4  1  0  0  0  0
  5  6  1  0  0  0  0
  2  5  1  0  0  0  0
M  END
>  <cdx:groupId>
5192

>  <cdx:fragmentId>
5178

$$$$
