301708.cdx
  Mrv1902 05222410192D          

 49 54  0  0  0  0            999 V2000
    5.0988   -8.2084    0.0000 C   0  0  0  0  0  0  0  0  0  0  0  0
    4.3848   -8.6217    0.0000 C   0  0  0  0  0  0  0  0  0  0  0  0
    3.6698   -8.2100    0.0000 C   0  0  0  0  0  0  0  0  0  0  0  0
    5.0978   -7.3834    0.0000 O   0  0  0  0  0  0  0  0  0  0  0  0
    5.8137   -8.6200    0.0000 O   0  0  0  0  0  0  0  0  0  0  0  0
    2.9558   -8.6233    0.0000 C   0  0  0  0  0  0  0  0  0  0  0  0
    2.9568   -9.4483    0.0000 C   0  0  0  0  0  0  0  0  0  0  0  0
    2.2428   -9.8616    0.0000 C   0  0  0  0  0  0  0  0  0  0  0  0
    1.5278   -9.4499    0.0000 C   0  0  0  0  0  0  0  0  0  0  0  0
    1.5269   -8.6249    0.0000 C   0  0  0  0  0  0  0  0  0  0  0  0
    2.2409   -8.2116    0.0000 C   0  0  0  0  0  0  0  0  0  0  0  0
    0.8138   -9.8633    0.0000 O   0  0  0  0  0  0  0  0  0  0  0  0
    2.2437  -10.6866    0.0000 O   0  0  0  0  0  0  0  0  0  0  0  0
   12.0157   -4.8738    0.0000 H   0  0  0  0  0  0  0  0  0  0  0  0
    9.5864   -4.9813    0.0000 H   0  0  0  0  0  0  0  0  0  0  0  0
    8.7007   -7.8553    0.0000 H   0  0  0  0  0  0  0  0  0  0  0  0
    7.9480   -9.0774    0.0000 H   0  0  0  0  0  0  0  0  0  0  0  0
   10.9457   -7.0451    0.0000 O   0  0  0  0  0  0  0  0  0  0  0  0
   11.4885   -2.7556    0.0000 O   0  0  0  0  0  0  0  0  0  0  0  0
    9.4161   -6.6327    0.0000 C   0  0  0  0  0  0  0  0  0  0  0  0
    7.6398   -9.3730    0.0000 C   0  0  0  0  0  0  0  0  0  0  0  0
    6.8149   -9.3557    0.0000 C   0  0  0  0  0  0  0  0  0  0  0  0
    7.9875   -6.6028    0.0000 C   0  0  0  0  0  0  0  0  0  0  0  0
   10.7764   -5.6795    0.0000 C   0  0  0  0  0  0  0  0  0  0  0  0
   12.2566   -3.7322    0.0000 C   0  0  0  0  0  0  0  0  0  0  0  0
   12.3010   -4.5560    0.0000 C   0  0  0  0  0  0  0  0  0  0  0  0
   11.2688   -6.3450    0.0000 C   0  0  0  0  0  0  0  0  0  0  0  0
   11.6423   -5.6094    0.0000 C   0  0  0  0  0  0  0  0  0  0  0  0
   11.1919   -4.9182    0.0000 C   0  0  1  0  0  0  0  0  0  0  0  0
   11.5654   -4.1825    0.0000 C   0  0  0  0  0  0  0  0  0  0  0  0
   11.1150   -3.4913    0.0000 C   0  0  2  0  0  0  0  0  0  0  0  0
   10.2912   -3.5357    0.0000 C   0  0  0  0  0  0  0  0  0  0  0  0
    9.9178   -4.2713    0.0000 C   0  0  0  0  0  0  0  0  0  0  0  0
   10.3681   -4.9625    0.0000 C   0  0  1  0  0  0  0  0  0  0  0  0
    9.9947   -5.6982    0.0000 C   0  0  1  0  0  0  0  0  0  0  0  0
    9.1734   -5.6193    0.0000 C   0  0  0  0  0  0  0  0  0  0  0  0
    8.5997   -6.2121    0.0000 C   0  0  0  0  0  0  0  0  0  0  0  0
    8.7056   -7.0303    0.0000 C   0  0  2  0  0  0  0  0  0  0  0  0
    7.9826   -7.4278    0.0000 C   0  0  2  0  0  0  0  0  0  0  0  0
    7.2769   -7.0004    0.0000 C   0  0  0  0  0  0  0  0  0  0  0  0
    6.5540   -7.3978    0.0000 C   0  0  0  0  0  0  0  0  0  0  0  0
    6.5367   -8.2226    0.0000 C   0  0  1  0  0  0  0  0  0  0  0  0
    7.2423   -8.6500    0.0000 C   0  0  0  0  0  0  0  0  0  0  0  0
    7.9653   -8.2526    0.0000 C   0  0  2  0  0  0  0  0  0  0  0  0
    8.6710   -8.6800    0.0000 C   0  0  0  0  0  0  0  0  0  0  0  0
    9.3939   -8.2825    0.0000 C   0  0  0  0  0  0  0  0  0  0  0  0
    9.4112   -7.4577    0.0000 C   0  0  2  0  0  0  0  0  0  0  0  0
   10.1854   -7.1725    0.0000 C   0  0  0  0  0  0  0  0  0  0  0  0
   10.4450   -6.3894    0.0000 C   0  0  2  0  0  0  0  0  0  0  0  0
 29 14  1  1  0  0  0
 35 15  1  1  0  0  0
 38 16  1  6  0  0  0
 44 17  1  6  0  0  0
 42  5  1  1  0  0  0
 49 18  1  1  0  0  0
 31 19  1  6  0  0  0
 47 20  1  1  0  0  0
 43 21  1  0  0  0  0
 43 22  1  0  0  0  0
 39 23  1  1  0  0  0
 34 24  1  6  0  0  0
 30 25  1  0  0  0  0
 30 26  1  0  0  0  0
 44 39  1  0  0  0  0
 47 38  1  0  0  0  0
 34 29  1  0  0  0  0
 49 35  1  0  0  0  0
 49 27  1  0  0  0  0
 28 27  1  0  0  0  0
 29 28  1  0  0  0  0
 30 29  1  0  0  0  0
 31 30  1  0  0  0  0
 32 31  1  0  0  0  0
 33 32  1  0  0  0  0
 34 33  1  0  0  0  0
 35 34  1  0  0  0  0
 36 35  1  0  0  0  0
 37 36  1  0  0  0  0
 38 37  1  0  0  0  0
 39 38  1  0  0  0  0
 40 39  1  0  0  0  0
 41 40  1  0  0  0  0
 42 41  1  0  0  0  0
 43 42  1  0  0  0  0
 44 43  1  0  0  0  0
 45 44  1  0  0  0  0
 46 45  1  0  0  0  0
 47 46  1  0  0  0  0
 48 47  1  0  0  0  0
 49 48  1  0  0  0  0
  1  2  1  0  0  0  0
  2  3  2  0  0  0  0
  1  4  2  0  0  0  0
  1  5  1  0  0  0  0
  6  7  1  0  0  0  0
  7  8  2  0  0  0  0
  8  9  1  0  0  0  0
  9 10  2  0  0  0  0
 10 11  1  0  0  0  0
  6 11  2  0  0  0  0
  9 12  1  0  0  0  0
  8 13  1  0  0  0  0
  3  6  1  0  0  0  0
M  END
>  <cdx:fragmentId>
567

$$$$
