301763.cdx
  Mrv1902 05222410242D          

 12 12  0  0  0  0            999 V2000
    8.2890   -7.7429    0.0000 C   0  0  0  0  0  0  0  0  0  0  0  0
    7.5745   -8.1554    0.0000 C   0  0  0  0  0  0  0  0  0  0  0  0
    7.5745   -8.9804    0.0000 C   0  0  0  0  0  0  0  0  0  0  0  0
    6.8600   -9.3929    0.0000 C   0  0  0  0  0  0  0  0  0  0  0  0
    6.1455   -8.9804    0.0000 C   0  0  0  0  0  0  0  0  0  0  0  0
    6.1455   -8.1554    0.0000 C   0  0  0  0  0  0  0  0  0  0  0  0
    6.8600   -7.7429    0.0000 C   0  0  0  0  0  0  0  0  0  0  0  0
    8.2890   -6.9179    0.0000 O   0  0  0  0  0  0  0  0  0  0  0  0
    9.0034   -8.1554    0.0000 O   0  0  0  0  0  0  0  0  0  0  0  0
    5.4311   -9.3929    0.0000 O   0  0  0  0  0  0  0  0  0  0  0  0
    8.2890   -9.3929    0.0000 O   0  0  0  0  0  0  0  0  0  0  0  0
    9.7179   -7.7429    0.0000 C   0  0  0  0  0  0  0  0  0  0  0  0
  1  2  1  0  0  0  0
  2  3  1  0  0  0  0
  3  4  2  0  0  0  0
  4  5  1  0  0  0  0
  5  6  2  0  0  0  0
  6  7  1  0  0  0  0
  2  7  2  0  0  0  0
  1  8  2  0  0  0  0
  1  9  1  0  0  0  0
  5 10  1  0  0  0  0
  3 11  1  0  0  0  0
  9 12  1  0  0  0  0
M  END
>  <cdx:groupId>
5287

>  <cdx:fragmentId>
5254

$$$$
