301765.cdx
  Mrv1902 05222410252D          

 14 14  0  0  0  0            999 V2000
    9.0034   -7.7429    0.0000 C   0  0  0  0  0  0  0  0  0  0  0  0
    8.2890   -8.1554    0.0000 C   0  0  0  0  0  0  0  0  0  0  0  0
    7.5745   -7.7429    0.0000 C   0  0  0  0  0  0  0  0  0  0  0  0
    9.0034   -6.9179    0.0000 O   0  0  0  0  0  0  0  0  0  0  0  0
    9.7179   -8.1554    0.0000 O   0  0  0  0  0  0  0  0  0  0  0  0
    6.8600   -8.1554    0.0000 C   0  0  0  0  0  0  0  0  0  0  0  0
    6.1455   -7.7429    0.0000 C   0  0  0  0  0  0  0  0  0  0  0  0
    5.4311   -8.1554    0.0000 C   0  0  0  0  0  0  0  0  0  0  0  0
    5.4311   -8.9804    0.0000 C   0  0  0  0  0  0  0  0  0  0  0  0
    6.1455   -9.3929    0.0000 C   0  0  0  0  0  0  0  0  0  0  0  0
    6.8600   -8.9804    0.0000 C   0  0  0  0  0  0  0  0  0  0  0  0
    4.7166   -9.3929    0.0000 O   0  0  0  0  0  0  0  0  0  0  0  0
    4.7166   -7.7429    0.0000 O   0  0  0  0  0  0  0  0  0  0  0  0
   10.4324   -7.7429    0.0000 C   0  0  0  0  0  0  0  0  0  0  0  0
  1  2  1  0  0  0  0
  2  3  1  0  0  0  0
  1  4  2  0  0  0  0
  1  5  1  0  0  0  0
  6  7  1  0  0  0  0
  7  8  2  0  0  0  0
  8  9  1  0  0  0  0
  9 10  2  0  0  0  0
 10 11  1  0  0  0  0
  6 11  2  0  0  0  0
  9 12  1  0  0  0  0
  8 13  1  0  0  0  0
  3  6  1  0  0  0  0
  5 14  1  0  0  0  0
M  END
>  <cdx:groupId>
5402

>  <cdx:fragmentId>
5373

$$$$
