301789.cdx
  Mrv1902 05222410242D          

 17 16  0  0  0  0            999 V2000
    6.3533   -4.9844    0.0000 Si  0  0  0  0  0  0  0  0  0  0  0  0
    6.3533   -5.8094    0.0000 O   0  0  0  0  0  0  0  0  0  0  0  0
    7.0678   -6.2219    0.0000 Si  0  0  0  0  0  0  0  0  0  0  0  0
    7.7822   -5.8094    0.0000 O   0  0  0  0  0  0  0  0  0  0  0  0
    8.4967   -6.2219    0.0000 Si  0  0  0  0  0  0  0  0  0  0  0  0
    9.2112   -5.8094    0.0000 C   0  0  0  0  0  0  0  0  0  0  0  0
    8.4967   -7.0469    0.0000 C   0  0  0  0  0  0  0  0  0  0  0  0
    9.2112   -6.6344    0.0000 C   0  0  0  0  0  0  0  0  0  0  0  0
    7.0678   -7.0469    0.0000 O   0  0  0  0  0  0  0  0  0  0  0  0
    6.3533   -7.4594    0.0000 Si  0  0  0  0  0  0  0  0  0  0  0  0
    5.6388   -7.0469    0.0000 C   0  0  0  0  0  0  0  0  0  0  0  0
    5.6388   -7.8719    0.0000 C   0  0  0  0  0  0  0  0  0  0  0  0
    6.3533   -8.2844    0.0000 C   0  0  0  0  0  0  0  0  0  0  0  0
    7.0678   -5.3969    0.0000 C   0  0  0  0  0  0  0  0  0  0  0  0
    6.3533   -4.1594    0.0000 C   0  0  0  0  0  0  0  0  0  0  0  0
    7.0678   -4.5719    0.0000 C   0  0  0  0  0  0  0  0  0  0  0  0
    5.6388   -4.5719    0.0000 C   0  0  0  0  0  0  0  0  0  0  0  0
  5  6  1  0  0  0  0
  5  7  1  0  0  0  0
  5  8  1  0  0  0  0
  4  5  1  0  0  0  0
  3  4  1  0  0  0  0
 10 11  1  0  0  0  0
 10 12  1  0  0  0  0
 10 13  1  0  0  0  0
  9 10  1  0  0  0  0
  3  9  1  0  0  0  0
  3 14  1  0  0  0  0
  2  3  1  0  0  0  0
  1  2  1  0  0  0  0
  1 15  1  0  0  0  0
  1 16  1  0  0  0  0
  1 17  1  0  0  0  0
M  END
>  <cdx:groupId>
1157

>  <cdx:fragmentId>
1118

$$$$
