301762.cdx
  Mrv1902 05222410242D          

  6  5  0  0  0  0            999 V2000
    5.9924   -8.2981    0.0000 C   0  0  0  0  0  0  0  0  0  0  0  0
    7.4213   -8.2981    0.0000 S   0  0  0  0  0  0  0  0  0  0  0  0
    6.7068   -8.7106    0.0000 S   0  0  0  0  0  0  0  0  0  0  0  0
    8.8502   -7.4731    0.0000 C   0  0  0  0  0  0  0  0  0  0  0  0
    8.8502   -8.2981    0.0000 C   0  0  0  0  0  0  0  0  0  0  0  0
    8.1358   -8.7106    0.0000 C   0  0  0  0  0  0  0  0  0  0  0  0
  6  2  1  0  0  0  0
  3  1  1  0  0  0  0
  3  2  1  0  0  0  0
  5  4  1  0  0  0  0
  6  5  2  0  0  0  0
M  END
>  <cdx:groupId>
5249

>  <cdx:fragmentId>
5241

$$$$
