301707.cdx
  Mrv1902 05222410282D          

 22 25  0  0  0  0            999 V2000
    7.3865   -6.5042    0.0000 C   0  0  1  0  0  0  0  0  0  0  0  0
    6.9016   -5.8368    0.0000 C   0  0  0  0  0  0  0  0  0  0  0  0
    7.3865   -5.1694    0.0000 C   0  0  0  0  0  0  0  0  0  0  0  0
    8.1711   -5.4243    0.0000 C   0  0  2  0  0  0  0  0  0  0  0  0
    8.8856   -5.0118    0.0000 N   0  0  0  0  0  0  0  0  0  0  0  0
    9.6001   -5.4243    0.0000 C   0  0  0  0  0  0  0  0  0  0  0  0
    9.6001   -6.2493    0.0000 C   0  0  0  0  0  0  0  0  0  0  0  0
    8.8856   -6.6618    0.0000 C   0  0  0  0  0  0  0  0  0  0  0  0
    8.1711   -6.2493    0.0000 C   0  0  2  0  0  0  0  0  0  0  0  0
    8.6560   -6.9167    0.0000 C   0  0  0  0  0  0  0  0  0  0  0  0
    8.1711   -7.5842    0.0000 C   0  0  0  0  0  0  0  0  0  0  0  0
    7.3865   -7.3292    0.0000 C   0  0  2  0  0  0  0  0  0  0  0  0
    6.6720   -7.7417    0.0000 C   0  0  0  0  0  0  0  0  0  0  0  0
    5.9575   -7.3292    0.0000 C   0  0  0  0  0  0  0  0  0  0  0  0
    5.9575   -6.5042    0.0000 C   0  0  0  0  0  0  0  0  0  0  0  0
    6.6720   -6.0917    0.0000 C   0  0  0  0  0  0  0  0  0  0  0  0
    9.3705   -7.3292    0.0000 O   0  0  0  0  0  0  0  0  0  0  0  0
    6.1417   -5.4597    0.0000 O   0  0  0  0  0  0  0  0  0  0  0  0
    5.2431   -7.7417    0.0000 C   0  0  0  0  0  0  0  0  0  0  0  0
    8.8856   -4.1868    0.0000 C   0  0  0  0  0  0  0  0  0  0  0  0
    8.0849   -4.6038    0.0000 H   0  0  0  0  0  0  0  0  0  0  0  0
    7.4727   -8.1497    0.0000 H   0  0  0  0  0  0  0  0  0  0  0  0
  1  2  1  1  0  0  0
  2  3  1  0  0  0  0
  3  4  1  0  0  0  0
  4  5  1  0  0  0  0
  5  6  1  0  0  0  0
  6  7  1  0  0  0  0
  7  8  1  0  0  0  0
  9  8  1  6  0  0  0
  9 10  1  1  0  0  0
 10 11  1  0  0  0  0
 11 12  1  0  0  0  0
 12 13  1  0  0  0  0
 13 14  1  0  0  0  0
 14 15  2  0  0  0  0
 15 16  1  0  0  0  0
  1 16  1  6  0  0  0
  1  9  1  0  0  0  0
  1 12  1  0  0  0  0
  4  9  1  0  0  0  0
 10 17  2  0  0  0  0
 16 18  2  0  0  0  0
 14 19  1  0  0  0  0
  5 20  1  0  0  0  0
  4 21  1  1  0  0  0
 12 22  1  1  0  0  0
M  END
>  <cdx:groupId>
465

>  <cdx:fragmentId>
399

$$$$
