301743.cdx
  Mrv1902 05222410222D          

 14 13  0  0  0  0            999 V2000
    4.5671   -7.9216    0.0000 O   0  0  0  0  0  0  0  0  0  0  0  0
    6.7105   -6.6841    0.0000 O   0  0  0  0  0  0  0  0  0  0  0  0
    7.4250   -8.7466    0.0000 O   0  0  0  0  0  0  0  0  0  0  0  0
    8.1395   -6.6841    0.0000 O   0  0  0  0  0  0  0  0  0  0  0  0
    8.8539   -8.7466    0.0000 O   0  0  0  0  0  0  0  0  0  0  0  0
   10.2829   -7.9216    0.0000 O   0  0  0  0  0  0  0  0  0  0  0  0
    5.9961   -8.7466    0.0000 O   0  0  0  0  0  0  0  0  0  0  0  0
    9.5684   -7.5091    0.0000 C   0  0  0  0  0  0  0  0  0  0  0  0
    8.8539   -7.9216    0.0000 C   0  0  2  0  0  0  0  0  0  0  0  0
    8.1395   -7.5091    0.0000 C   0  0  2  0  0  0  0  0  0  0  0  0
    7.4250   -7.9216    0.0000 C   0  0  1  0  0  0  0  0  0  0  0  0
    6.7105   -7.5091    0.0000 C   0  0  1  0  0  0  0  0  0  0  0  0
    5.9961   -7.9216    0.0000 C   0  0  0  0  0  0  0  0  0  0  0  0
    5.2816   -7.5091    0.0000 C   0  0  0  0  0  0  0  0  0  0  0  0
 14  1  1  0  0  0  0
 12  2  1  1  0  0  0
 11  3  1  6  0  0  0
 10  4  1  6  0  0  0
  9  5  1  1  0  0  0
  8  6  1  0  0  0  0
 13  7  2  0  0  0  0
  9  8  1  0  0  0  0
 10  9  1  0  0  0  0
 11 10  1  0  0  0  0
 12 11  1  0  0  0  0
 13 12  1  0  0  0  0
 14 13  1  0  0  0  0
M  END
>  <cdx:groupId>
3805

>  <cdx:fragmentId>
3767

$$$$
