301702.cdx
  Mrv1902 05222410262D          

 38 42  0  0  0  0            999 V2000
    8.9504   -6.6530    0.0000 O   0  0  0  0  0  0  0  0  0  0  0  0
    9.6827   -7.8800    0.0000 O   0  0  0  0  0  0  0  0  0  0  0  0
    9.6708   -7.0551    0.0000 C   0  0  2  0  0  0  0  0  0  0  0  0
   10.3792   -6.6323    0.0000 C   0  0  1  0  0  0  0  0  0  0  0  0
   11.0995   -7.0343    0.0000 C   0  0  2  0  0  0  0  0  0  0  0  0
   11.1115   -7.8593    0.0000 C   0  0  1  0  0  0  0  0  0  0  0  0
   10.4031   -8.2821    0.0000 C   0  0  1  0  0  0  0  0  0  0  0  0
   10.4151   -9.1070    0.0000 C   0  0  0  0  0  0  0  0  0  0  0  0
   11.1355   -9.5091    0.0000 O   0  0  0  0  0  0  0  0  0  0  0  0
   11.8319   -8.2613    0.0000 O   0  0  0  0  0  0  0  0  0  0  0  0
   11.8079   -6.6115    0.0000 O   0  0  0  0  0  0  0  0  0  0  0  0
   10.3672   -5.8073    0.0000 O   0  0  0  0  0  0  0  0  0  0  0  0
    5.3604   -9.5185    0.0000 C   0  0  0  0  0  0  0  0  0  0  0  0
    8.2435   -5.4112    0.0000 C   0  0  0  0  0  0  0  0  0  0  0  0
    7.5265   -5.8193    0.0000 C   0  0  0  0  0  0  0  0  0  0  0  0
    6.8283   -5.4105    0.0000 N   0  0  0  0  0  0  0  0  0  0  0  0
    6.8426   -4.5857    0.0000 C   0  0  0  0  0  0  0  0  0  0  0  0
    6.1354   -4.1608    0.0000 C   0  0  0  0  0  0  0  0  0  0  0  0
    6.1068   -5.8106    0.0000 C   0  0  0  0  0  0  0  0  0  0  0  0
    4.1374   -4.9514    0.0000 C   0  0  0  0  0  0  0  0  0  0  0  0
    3.3185   -4.8510    0.0000 C   0  0  0  0  0  0  0  0  0  0  0  0
    2.9960   -4.0916    0.0000 C   0  0  0  0  0  0  0  0  0  0  0  0
    3.4924   -3.4327    0.0000 C   0  0  0  0  0  0  0  0  0  0  0  0
    4.3113   -3.5331    0.0000 C   0  0  0  0  0  0  0  0  0  0  0  0
    4.6338   -4.2925    0.0000 C   0  0  0  0  0  0  0  0  0  0  0  0
    5.4139   -4.5609    0.0000 C   0  0  0  0  0  0  0  0  0  0  0  0
    5.3996   -5.3858    0.0000 C   0  0  0  0  0  0  0  0  0  0  0  0
    4.6107   -5.6271    0.0000 N   0  0  0  0  0  0  0  0  0  0  0  0
    6.0925   -6.6355    0.0000 C   0  0  0  0  0  0  0  0  0  0  0  0
    6.0773   -9.1104    0.0000 O   0  0  0  0  0  0  0  0  0  0  0  0
    5.3933   -7.8319    0.0000 O   0  0  0  0  0  0  0  0  0  0  0  0
    6.0824   -8.2854    0.0000 C   0  0  0  0  0  0  0  0  0  0  0  0
    8.2283   -7.8861    0.0000 O   0  0  0  0  0  0  0  0  0  0  0  0
    7.5113   -8.2942    0.0000 C   0  0  0  0  0  0  0  0  0  0  0  0
    6.7994   -7.8773    0.0000 C   0  0  0  0  0  0  0  0  0  0  0  0
    6.8045   -7.0524    0.0000 C   0  0  2  0  0  0  0  0  0  0  0  0
    7.5214   -6.6442    0.0000 C   0  0  2  0  0  0  0  0  0  0  0  0
    8.2334   -7.0611    0.0000 C   0  0  2  0  0  0  0  0  0  0  0  0
 30 13  1  0  0  0  0
 37 15  1  1  0  0  0
 15 14  2  0  0  0  0
 36 29  1  1  0  0  0
 29 19  1  0  0  0  0
 18 26  1  0  0  0  0
 19 27  1  0  0  0  0
 19 16  2  0  0  0  0
 17 16  1  0  0  0  0
 18 17  2  0  0  0  0
 25 20  2  0  0  0  0
 28 20  1  0  0  0  0
 21 20  1  0  0  0  0
 22 21  2  0  0  0  0
 23 22  1  0  0  0  0
 24 23  2  0  0  0  0
 25 24  1  0  0  0  0
 26 25  1  0  0  0  0
 27 26  2  0  0  0  0
 28 27  1  0  0  0  0
 38  1  1  6  0  0  0
 35 32  1  0  0  0  0
 32 30  1  0  0  0  0
 32 31  2  0  0  0  0
 38 33  1  0  0  0  0
 34 33  1  0  0  0  0
 35 34  2  0  0  0  0
 36 35  1  0  0  0  0
 37 36  1  0  0  0  0
 38 37  1  0  0  0  0
  2  3  1  0  0  0  0
  3  4  1  0  0  0  0
  4  5  1  0  0  0  0
  5  6  1  0  0  0  0
  6  7  1  0  0  0  0
  2  7  1  0  0  0  0
  8  9  1  0  0  0  0
  7  8  1  1  0  0  0
  6 10  1  6  0  0  0
  5 11  1  1  0  0  0
  4 12  1  6  0  0  0
  3  1  1  1  0  0  0
M  END
>  <cdx:fragmentId>
25

$$$$
