301761.cdx
  Mrv1902 05222410242D          

  6  5  0  0  0  0            999 V2000
    7.4250   -8.8212    0.0000 C   0  0  0  0  0  0  0  0  0  0  0  0
    8.1395   -8.4087    0.0000 S   0  0  0  0  0  0  0  0  0  0  0  0
    8.1395   -7.5837    0.0000 O   0  0  0  0  0  0  0  0  0  0  0  0
    8.8539   -8.8212    0.0000 C   0  0  0  0  0  0  0  0  0  0  0  0
    6.7105   -8.4087    0.0000 S   0  0  0  0  0  0  0  0  0  0  0  0
    5.9961   -8.8212    0.0000 C   0  0  0  0  0  0  0  0  0  0  0  0
  2  3  2  0  0  0  0
  2  4  1  0  0  0  0
  1  2  1  0  0  0  0
  5  6  1  0  0  0  0
  1  5  1  0  0  0  0
M  END
>  <cdx:groupId>
5230

>  <cdx:fragmentId>
5218

$$$$
