301778.cdx
  Mrv1902 05222410222D          

 41 44  0  0  0  0            999 V2000
   10.2186   -3.6893    0.0000 C   0  0  0  0  0  0  0  0  0  0  0  0
    9.9637   -4.4739    0.0000 C   0  0  0  0  0  0  0  0  0  0  0  0
    9.1567   -4.6455    0.0000 C   0  0  0  0  0  0  0  0  0  0  0  0
    8.9018   -5.4301    0.0000 C   0  0  0  0  0  0  0  0  0  0  0  0
    8.0948   -5.6016    0.0000 C   0  0  1  0  0  0  0  0  0  0  0  0
    7.5428   -4.9885    0.0000 C   0  0  0  0  0  0  0  0  0  0  0  0
    4.1973   -7.4662    0.0000 C   0  0  0  0  0  0  0  0  0  0  0  0
    3.4829   -7.8787    0.0000 C   0  0  0  0  0  0  0  0  0  0  0  0
    3.4829   -8.7037    0.0000 C   0  0  1  0  0  0  0  0  0  0  0  0
    4.1973   -9.1162    0.0000 C   0  0  0  0  0  0  0  0  0  0  0  0
    4.9118   -8.7037    0.0000 C   0  0  2  0  0  0  0  0  0  0  0  0
    5.6263   -9.1162    0.0000 C   0  0  0  0  0  0  0  0  0  0  0  0
    6.3408   -8.7037    0.0000 C   0  0  1  0  0  0  0  0  0  0  0  0
    6.3408   -7.8787    0.0000 C   0  0  0  0  0  0  0  0  0  0  0  0
    7.0552   -7.4662    0.0000 C   0  0  2  0  0  0  0  0  0  0  0  0
    7.8398   -7.7211    0.0000 C   0  0  2  0  0  0  0  0  0  0  0  0
    8.3248   -7.0537    0.0000 C   0  0  0  0  0  0  0  0  0  0  0  0
    7.8398   -6.3862    0.0000 C   0  0  1  0  0  0  0  0  0  0  0  0
    7.0552   -6.6412    0.0000 C   0  0  1  0  0  0  0  0  0  0  0  0
    6.3408   -6.2287    0.0000 C   0  0  1  0  0  0  0  0  0  0  0  0
    5.6263   -6.6412    0.0000 C   0  0  0  0  0  0  0  0  0  0  0  0
    5.6263   -7.4662    0.0000 C   0  0  0  0  0  0  0  0  0  0  0  0
    4.9118   -7.8787    0.0000 C   0  0  1  0  0  0  0  0  0  0  0  0
    4.9118   -6.2287    0.0000 O   0  0  0  0  0  0  0  0  0  0  0  0
    7.1415   -8.2867    0.0000 C   0  0  0  0  0  0  0  0  0  0  0  0
    7.1415   -5.8207    0.0000 C   0  0  0  0  0  0  0  0  0  0  0  0
    4.9118   -7.0537    0.0000 C   0  0  0  0  0  0  0  0  0  0  0  0
    4.6098   -9.8307    0.0000 C   0  0  0  0  0  0  0  0  0  0  0  0
    3.7848   -9.8307    0.0000 C   0  0  0  0  0  0  0  0  0  0  0  0
    8.0948   -8.5057    0.0000 O   0  0  0  0  0  0  0  0  0  0  0  0
    6.3408   -5.4037    0.0000 O   0  0  0  0  0  0  0  0  0  0  0  0
    7.0552   -9.1162    0.0000 O   0  0  0  0  0  0  0  0  0  0  0  0
    2.7684   -9.1162    0.0000 O   0  0  0  0  0  0  0  0  0  0  0  0
    8.6047   -4.0324    0.0000 O   0  0  0  0  0  0  0  0  0  0  0  0
    9.6666   -3.0762    0.0000 C   0  0  0  0  0  0  0  0  0  0  0  0
   12.0875   -2.5617    0.0000 C   0  0  0  0  0  0  0  0  0  0  0  0
    4.9118   -9.5287    0.0000 H   0  0  0  0  0  0  0  0  0  0  0  0
   11.2805   -2.7332    0.0000 O   0  0  0  0  0  0  0  0  0  0  0  0
   11.5776   -4.1309    0.0000 O   0  0  0  0  0  0  0  0  0  0  0  0
   11.0256   -3.5178    0.0000 C   0  0  0  0  0  0  0  0  0  0  0  0
    8.6245   -6.1313    0.0000 H   0  0  0  0  0  0  0  0  0  0  0  0
 38 36  1  0  0  0  0
 40 38  1  0  0  0  0
 40 39  2  0  0  0  0
 40  1  1  0  0  0  0
  1  2  1  0  0  0  0
  2  3  1  0  0  0  0
  3  4  1  0  0  0  0
  4  5  1  0  0  0  0
  5  6  1  6  0  0  0
  7  8  1  0  0  0  0
  8  9  1  0  0  0  0
  9 10  1  0  0  0  0
 10 11  1  0  0  0  0
 11 12  1  0  0  0  0
 12 13  1  0  0  0  0
 13 14  1  0  0  0  0
 14 15  1  0  0  0  0
 15 16  1  0  0  0  0
 16 17  1  0  0  0  0
 18 17  1  0  0  0  0
 18 19  1  0  0  0  0
 15 19  1  0  0  0  0
 19 20  1  0  0  0  0
 20 21  1  0  0  0  0
 21 22  1  0  0  0  0
 14 22  2  0  0  0  0
 22 23  1  0  0  0  0
 11 23  1  0  0  0  0
  7 23  1  0  0  0  0
 21 24  2  0  0  0  0
 15 25  1  6  0  0  0
 19 26  1  1  0  0  0
 23 27  1  1  0  0  0
 10 28  1  0  0  0  0
 10 29  1  0  0  0  0
 16 30  1  6  0  0  0
 20 31  1  1  0  0  0
 13 32  1  1  0  0  0
  9 33  1  1  0  0  0
  5 18  1  0  0  0  0
  3 34  2  0  0  0  0
  1 35  1  0  0  0  0
 11 37  1  6  0  0  0
 18 41  1  6  0  0  0
M  END
>  <cdx:fragmentId>
456

$$$$
