301792.cdx
  Mrv1902 05222410232D          

 26 29  0  0  0  0            999 V2000
    6.2523   -8.1603    0.0000 C   0  0  0  0  0  0  0  0  0  0  0  0
    6.6648   -7.4458    0.0000 C   0  0  0  0  0  0  0  0  0  0  0  0
    6.2523   -6.7314    0.0000 C   0  0  0  0  0  0  0  0  0  0  0  0
    6.6648   -8.8748    0.0000 O   0  0  0  0  0  0  0  0  0  0  0  0
    5.4273   -8.1603    0.0000 O   0  0  0  0  0  0  0  0  0  0  0  0
    7.3793   -5.6044    0.0000 C   0  0  2  0  0  0  0  0  0  0  0  0
    8.0937   -6.0169    0.0000 C   0  0  0  0  0  0  0  0  0  0  0  0
    8.8082   -5.6044    0.0000 C   0  0  0  0  0  0  0  0  0  0  0  0
    8.8082   -4.7794    0.0000 C   0  0  2  0  0  0  0  0  0  0  0  0
    9.4213   -4.2274    0.0000 C   0  0  0  0  0  0  0  0  0  0  0  0
    9.0857   -3.4737    0.0000 C   0  0  0  0  0  0  0  0  0  0  0  0
    8.2652   -3.5599    0.0000 C   0  0  0  0  0  0  0  0  0  0  0  0
    8.0937   -4.3669    0.0000 C   0  0  1  0  0  0  0  0  0  0  0  0
    7.3793   -4.7794    0.0000 C   0  0  2  0  0  0  0  0  0  0  0  0
    6.6648   -4.3669    0.0000 C   0  0  0  0  0  0  0  0  0  0  0  0
    5.9503   -4.7794    0.0000 C   0  0  0  0  0  0  0  0  0  0  0  0
    5.9503   -5.6044    0.0000 C   0  0  2  0  0  0  0  0  0  0  0  0
    6.6648   -6.0169    0.0000 C   0  0  2  0  0  0  0  0  0  0  0  0
    7.3793   -6.4294    0.0000 C   0  0  0  0  0  0  0  0  0  0  0  0
    5.2358   -6.8419    0.0000 C   0  0  0  0  0  0  0  0  0  0  0  0
    5.2358   -6.0169    0.0000 C   0  0  0  0  0  0  0  0  0  0  0  0
    4.5214   -5.6044    0.0000 C   0  0  0  0  0  0  0  0  0  0  0  0
   10.2283   -4.3989    0.0000 O   0  0  0  0  0  0  0  0  0  0  0  0
    8.0937   -5.1919    0.0000 C   0  0  0  0  0  0  0  0  0  0  0  0
    9.5619   -5.1150    0.0000 C   0  0  0  0  0  0  0  0  0  0  0  0
    7.3793   -3.9544    0.0000 H   0  0  0  0  0  0  0  0  0  0  0  0
  1  2  1  0  0  0  0
  2  3  1  0  0  0  0
  1  4  2  0  0  0  0
  1  5  1  0  0  0  0
  6  7  1  0  0  0  0
  7  8  1  0  0  0  0
  8  9  1  0  0  0  0
  9 10  1  0  0  0  0
 10 11  1  0  0  0  0
 11 12  1  0  0  0  0
 12 13  1  0  0  0  0
 13 14  1  0  0  0  0
 14 15  1  0  0  0  0
 15 16  1  0  0  0  0
 16 17  1  0  0  0  0
 17 18  1  0  0  0  0
 18 19  1  0  0  0  0
  6 19  1  6  0  0  0
  6 14  1  0  0  0  0
  6 18  1  0  0  0  0
  9 13  1  0  0  0  0
 20 21  2  0  0  0  0
 21 22  1  0  0  0  0
 17 21  1  6  0  0  0
 10 23  2  0  0  0  0
 13 24  1  1  0  0  0
  9 25  1  6  0  0  0
 18  3  1  1  0  0  0
 14 26  1  6  0  0  0
M  END
>  <cdx:groupId>
1517

>  <cdx:fragmentId>
1449

$$$$
