301741.cdx
  Mrv1902 05222410202D          

 19 21  0  0  0  0            999 V2000
    9.5217   -6.8348    0.0000 C   0  0  0  0  0  0  0  0  0  0  0  0
    9.5217   -6.0098    0.0000 C   0  0  0  0  0  0  0  0  0  0  0  0
    8.8072   -5.5973    0.0000 C   0  0  0  0  0  0  0  0  0  0  0  0
    8.0927   -6.0098    0.0000 C   0  0  0  0  0  0  0  0  0  0  0  0
    8.0927   -6.8348    0.0000 C   0  0  0  0  0  0  0  0  0  0  0  0
    8.8072   -7.2473    0.0000 N   0  0  0  0  0  0  0  0  0  0  0  0
   10.2361   -7.2473    0.0000 O   0  0  0  0  0  0  0  0  0  0  0  0
    6.6638   -8.4848    0.0000 C   0  0  0  0  0  0  0  0  0  0  0  0
    7.3782   -8.0723    0.0000 C   0  0  0  0  0  0  0  0  0  0  0  0
    7.3782   -7.2473    0.0000 C   0  0  0  0  0  0  0  0  0  0  0  0
    6.6638   -6.8348    0.0000 C   0  0  0  0  0  0  0  0  0  0  0  0
    5.9493   -7.2473    0.0000 N   0  0  0  0  0  0  0  0  0  0  0  0
    5.2348   -6.8348    0.0000 C   0  0  0  0  0  0  0  0  0  0  0  0
    4.5204   -7.2473    0.0000 C   0  0  0  0  0  0  0  0  0  0  0  0
    4.5204   -8.0723    0.0000 C   0  0  0  0  0  0  0  0  0  0  0  0
    5.2348   -8.4848    0.0000 C   0  0  0  0  0  0  0  0  0  0  0  0
    5.9493   -8.0723    0.0000 C   0  0  0  0  0  0  0  0  0  0  0  0
    6.6638   -9.3098    0.0000 C   0  0  0  0  0  0  0  0  0  0  0  0
    7.3782   -9.7223    0.0000 O   0  0  0  0  0  0  0  0  0  0  0  0
  1  2  1  0  0  0  0
  2  3  2  0  0  0  0
  3  4  1  0  0  0  0
  4  5  2  0  0  0  0
  5  6  1  0  0  0  0
  1  6  1  0  0  0  0
  1  7  2  0  0  0  0
  8  9  1  0  0  0  0
  9 10  1  0  0  0  0
 10 11  1  0  0  0  0
 11 12  1  0  0  0  0
 12 13  1  0  0  0  0
 13 14  1  0  0  0  0
 14 15  1  0  0  0  0
 15 16  1  0  0  0  0
 16 17  1  0  0  0  0
 12 17  1  0  0  0  0
  8 17  1  0  0  0  0
 18 19  1  0  0  0  0
  8 18  1  0  0  0  0
  5 10  1  0  0  0  0
M  END
>  <cdx:groupId>
3620

>  <cdx:fragmentId>
3578

$$$$
