301730.cdx
  Mrv1902 05222410192D          

 29 31  0  0  0  0            999 V2000
    8.5345   -6.6216    0.0000 C   0  0  0  0  0  0  0  0  0  0  0  0
    8.5345   -5.7966    0.0000 O   0  0  0  0  0  0  0  0  0  0  0  0
    6.9268   -8.0261    0.0000 O   0  0  0  0  0  0  0  0  0  0  0  0
    7.7338   -7.8546    0.0000 C   0  0  0  0  0  0  0  0  0  0  0  0
    7.8200   -7.0341    0.0000 C   0  0  1  0  0  0  0  0  0  0  0  0
    7.0663   -6.6986    0.0000 C   0  0  1  0  0  0  0  0  0  0  0  0
    6.5143   -7.3117    0.0000 C   0  0  1  0  0  0  0  0  0  0  0  0
    6.8948   -5.8916    0.0000 C   0  0  0  0  0  0  0  0  0  0  0  0
    6.1102   -5.6366    0.0000 O   0  0  0  0  0  0  0  0  0  0  0  0
    5.6938   -7.2254    0.0000 C   0  0  0  0  0  0  0  0  0  0  0  0
    5.2089   -7.8929    0.0000 C   0  0  0  0  0  0  0  0  0  0  0  0
    4.3884   -7.8066    0.0000 C   0  0  0  0  0  0  0  0  0  0  0  0
    4.0528   -7.0529    0.0000 C   0  0  0  0  0  0  0  0  0  0  0  0
    4.5378   -6.3855    0.0000 C   0  0  0  0  0  0  0  0  0  0  0  0
    5.3582   -6.4717    0.0000 C   0  0  0  0  0  0  0  0  0  0  0  0
    3.2324   -6.9667    0.0000 O   0  0  0  0  0  0  0  0  0  0  0  0
    2.7474   -7.6341    0.0000 C   0  0  0  0  0  0  0  0  0  0  0  0
    3.9035   -8.4741    0.0000 O   0  0  0  0  0  0  0  0  0  0  0  0
    3.0830   -8.3878    0.0000 C   0  0  0  0  0  0  0  0  0  0  0  0
    9.2489   -7.0341    0.0000 C   0  0  0  0  0  0  0  0  0  0  0  0
    9.9634   -6.6216    0.0000 C   0  0  0  0  0  0  0  0  0  0  0  0
   10.6779   -7.0341    0.0000 C   0  0  0  0  0  0  0  0  0  0  0  0
   10.6779   -7.8591    0.0000 C   0  0  0  0  0  0  0  0  0  0  0  0
    9.9634   -8.2716    0.0000 C   0  0  0  0  0  0  0  0  0  0  0  0
    9.2489   -7.8591    0.0000 C   0  0  0  0  0  0  0  0  0  0  0  0
   11.3923   -8.2716    0.0000 O   0  0  0  0  0  0  0  0  0  0  0  0
   12.1068   -7.8591    0.0000 C   0  0  0  0  0  0  0  0  0  0  0  0
   11.3923   -6.6216    0.0000 O   0  0  0  0  0  0  0  0  0  0  0  0
   12.1068   -7.0341    0.0000 C   0  0  0  0  0  0  0  0  0  0  0  0
  1  2  2  0  0  0  0
  3  4  1  0  0  0  0
  4  5  1  0  0  0  0
  5  6  1  0  0  0  0
  6  7  1  0  0  0  0
  3  7  1  0  0  0  0
  8  9  1  0  0  0  0
  6  8  1  1  0  0  0
 10 11  1  0  0  0  0
 11 12  2  0  0  0  0
 12 13  1  0  0  0  0
 13 14  2  0  0  0  0
 14 15  1  0  0  0  0
 10 15  2  0  0  0  0
 16 17  1  0  0  0  0
 13 16  1  0  0  0  0
 18 19  1  0  0  0  0
 12 18  1  0  0  0  0
  7 10  1  6  0  0  0
  5  1  1  1  0  0  0
 20 21  1  0  0  0  0
 21 22  2  0  0  0  0
 22 23  1  0  0  0  0
 23 24  2  0  0  0  0
 24 25  1  0  0  0  0
 20 25  2  0  0  0  0
 26 27  1  0  0  0  0
 23 26  1  0  0  0  0
 28 29  1  0  0  0  0
 22 28  1  0  0  0  0
  1 20  1  0  0  0  0
M  END
>  <cdx:groupId>
2006

>  <cdx:fragmentId>
1938

$$$$
