301796.cdx
  Mrv1902 05222410202D          

 20 21  0  0  0  0            999 V2000
    8.2674   -6.9344    0.0000 C   0  0  0  0  0  0  0  0  0  0  0  0
    8.2674   -7.7594    0.0000 C   0  0  0  0  0  0  0  0  0  0  0  0
    7.5529   -8.1719    0.0000 C   0  0  0  0  0  0  0  0  0  0  0  0
    6.8384   -7.7594    0.0000 C   0  0  0  0  0  0  0  0  0  0  0  0
    6.8384   -6.9344    0.0000 C   0  0  0  0  0  0  0  0  0  0  0  0
    7.5529   -6.5219    0.0000 C   0  0  0  0  0  0  0  0  0  0  0  0
    8.9818   -6.5219    0.0000 O   0  0  0  0  0  0  0  0  0  0  0  0
    6.1239   -8.1719    0.0000 C   0  0  2  0  0  0  0  0  0  0  0  0
    5.4095   -7.7594    0.0000 C   0  0  0  0  0  0  0  0  0  0  0  0
    4.6950   -8.1719    0.0000 C   0  0  0  0  0  0  0  0  0  0  0  0
    6.1239   -8.9969    0.0000 C   0  0  0  0  0  0  0  0  0  0  0  0
    6.8384   -9.4094    0.0000 C   0  0  0  0  0  0  0  0  0  0  0  0
    6.8384  -10.2344    0.0000 C   0  0  0  0  0  0  0  0  0  0  0  0
    6.1239  -10.6469    0.0000 C   0  0  0  0  0  0  0  0  0  0  0  0
    5.4095  -10.2344    0.0000 C   0  0  0  0  0  0  0  0  0  0  0  0
    5.4095   -9.4094    0.0000 C   0  0  0  0  0  0  0  0  0  0  0  0
    6.1239   -6.5219    0.0000 O   0  0  0  0  0  0  0  0  0  0  0  0
    5.4095   -6.9344    0.0000 C   0  0  0  0  0  0  0  0  0  0  0  0
    8.9818   -8.1719    0.0000 O   0  0  0  0  0  0  0  0  0  0  0  0
    9.6963   -7.7594    0.0000 C   0  0  0  0  0  0  0  0  0  0  0  0
  1  2  1  0  0  0  0
  2  3  2  0  0  0  0
  3  4  1  0  0  0  0
  4  5  2  0  0  0  0
  5  6  1  0  0  0  0
  1  6  2  0  0  0  0
  1  7  1  0  0  0  0
  8  9  1  1  0  0  0
  9 10  2  0  0  0  0
 11 12  1  0  0  0  0
 12 13  2  0  0  0  0
 13 14  1  0  0  0  0
 14 15  2  0  0  0  0
 15 16  1  0  0  0  0
 11 16  2  0  0  0  0
  8 11  1  0  0  0  0
  4  8  1  0  0  0  0
 17 18  1  0  0  0  0
  5 17  1  0  0  0  0
 19 20  1  0  0  0  0
  2 19  1  0  0  0  0
M  END
>  <cdx:fragmentId>
25

$$$$
