301755.cdx
  Mrv1902 05222410202D          

 18 19  0  0  0  0            999 V2000
    6.4237   -7.7395    0.0000 C   0  0  0  0  0  0  0  0  0  0  0  0
    5.5987   -7.7395    0.0000 C   0  0  0  0  0  0  0  0  0  0  0  0
    5.1862   -7.0250    0.0000 C   0  0  0  0  0  0  0  0  0  0  0  0
    4.3612   -7.0250    0.0000 C   0  0  0  0  0  0  0  0  0  0  0  0
    6.8362   -7.0250    0.0000 O   0  0  0  0  0  0  0  0  0  0  0  0
    6.8362   -8.4539    0.0000 O   0  0  0  0  0  0  0  0  0  0  0  0
    5.1862   -8.4539    0.0000 C   0  0  0  0  0  0  0  0  0  0  0  0
    8.8235   -9.3808    0.0000 C   0  0  0  0  0  0  0  0  0  0  0  0
    8.0192   -9.1972    0.0000 C   0  0  0  0  0  0  0  0  0  0  0  0
    7.6612   -8.4539    0.0000 C   0  0  0  0  0  0  0  0  0  0  0  0
    8.0192   -7.7106    0.0000 C   0  0  0  0  0  0  0  0  0  0  0  0
    8.8235   -7.5271    0.0000 C   0  0  0  0  0  0  0  0  0  0  0  0
    9.4685   -8.0414    0.0000 C   0  0  2  0  0  0  0  0  0  0  0  0
    9.4685   -8.8664    0.0000 C   0  0  1  0  0  0  0  0  0  0  0  0
    8.2889   -8.4530    0.0000 N   0  0  0  0  0  0  0  0  0  0  0  0
    7.5136   -8.1708    0.0000 C   0  0  0  0  0  0  0  0  0  0  0  0
   10.1830   -9.2789    0.0000 O   0  0  0  0  0  0  0  0  0  0  0  0
   10.1830   -7.6289    0.0000 O   0  0  0  0  0  0  0  0  0  0  0  0
  1  2  1  0  0  0  0
  2  3  2  0  0  0  0
  3  4  1  0  0  0  0
  1  5  2  0  0  0  0
  1  6  1  0  0  0  0
  2  7  1  0  0  0  0
  8  9  1  0  0  0  0
  9 10  1  0  0  0  0
 10 11  1  0  0  0  0
 11 12  1  0  0  0  0
 12 13  1  0  0  0  0
 13 14  1  0  0  0  0
  8 14  1  0  0  0  0
  8 15  1  0  0  0  0
 15 12  1  0  0  0  0
 15 16  1  0  0  0  0
 14 17  1  1  0  0  0
 13 18  1  1  0  0  0
  6 10  1  0  0  0  0
M  END
>  <cdx:groupId>
5018

>  <cdx:fragmentId>
4980

$$$$
