301781.cdx
  Mrv1902 05222410212D          

 23 25  0  0  0  0            999 V2000
   10.5851   -8.1416    0.0000 O   0  0  0  0  0  0  0  0  0  0  0  0
   10.5851   -6.4916    0.0000 O   0  0  0  0  0  0  0  0  0  0  0  0
    8.4417   -6.9041    0.0000 C   0  0  0  0  0  0  0  0  0  0  0  0
    9.1562   -6.4916    0.0000 C   0  0  0  0  0  0  0  0  0  0  0  0
    9.8706   -6.9041    0.0000 C   0  0  0  0  0  0  0  0  0  0  0  0
    9.8706   -7.7291    0.0000 C   0  0  0  0  0  0  0  0  0  0  0  0
    9.1562   -8.1416    0.0000 C   0  0  0  0  0  0  0  0  0  0  0  0
    8.4417   -7.7291    0.0000 C   0  0  0  0  0  0  0  0  0  0  0  0
    8.4417   -9.3791    0.0000 O   0  0  0  0  0  0  0  0  0  0  0  0
    5.5838  -10.2041    0.0000 O   0  0  0  0  0  0  0  0  0  0  0  0
    4.1549   -7.7291    0.0000 O   0  0  0  0  0  0  0  0  0  0  0  0
    4.1549   -9.3791    0.0000 C   0  0  0  0  0  0  0  0  0  0  0  0
    7.0128  -10.2041    0.0000 O   0  0  0  0  0  0  0  0  0  0  0  0
    7.0128   -7.7291    0.0000 O   0  0  0  0  0  0  0  0  0  0  0  0
    6.2983   -8.1416    0.0000 C   0  0  0  0  0  0  0  0  0  0  0  0
    5.5838   -7.7291    0.0000 C   0  0  0  0  0  0  0  0  0  0  0  0
    4.8694   -8.1416    0.0000 C   0  0  0  0  0  0  0  0  0  0  0  0
    4.8694   -8.9666    0.0000 C   0  0  0  0  0  0  0  0  0  0  0  0
    5.5838   -9.3791    0.0000 C   0  0  0  0  0  0  0  0  0  0  0  0
    6.2983   -8.9666    0.0000 C   0  0  0  0  0  0  0  0  0  0  0  0
    7.0128   -9.3791    0.0000 C   0  0  0  0  0  0  0  0  0  0  0  0
    7.7272   -8.9666    0.0000 C   0  0  0  0  0  0  0  0  0  0  0  0
    7.7272   -8.1416    0.0000 C   0  0  0  0  0  0  0  0  0  0  0  0
 23  8  1  0  0  0  0
  6  1  1  0  0  0  0
  5  2  1  0  0  0  0
  8  3  2  0  0  0  0
  4  3  1  0  0  0  0
  5  4  2  0  0  0  0
  6  5  1  0  0  0  0
  7  6  2  0  0  0  0
  8  7  1  0  0  0  0
 22  9  1  0  0  0  0
 19 10  1  0  0  0  0
 17 11  1  0  0  0  0
 18 12  1  0  0  0  0
 21 13  2  0  0  0  0
 23 14  1  0  0  0  0
 15 14  1  0  0  0  0
 20 15  2  0  0  0  0
 16 15  1  0  0  0  0
 17 16  2  0  0  0  0
 18 17  1  0  0  0  0
 19 18  2  0  0  0  0
 20 19  1  0  0  0  0
 21 20  1  0  0  0  0
 22 21  1  0  0  0  0
 23 22  2  0  0  0  0
M  END
>  <cdx:fragmentId>
665

$$$$
