301740.cdx
  Mrv1902 05222410212D          

 45 48  0  0  0  0            999 V2000
    7.3649   -9.1359    0.0000 O   0  0  0  0  0  0  0  0  0  0  0  0
    8.7686   -7.4643    0.0000 O   0  0  0  0  0  0  0  0  0  0  0  0
    8.0605   -7.8877    0.0000 C   0  0  1  0  0  0  0  0  0  0  0  0
    8.0731   -8.7126    0.0000 C   0  0  2  0  0  0  0  0  0  0  0  0
    8.7937   -9.1141    0.0000 C   0  0  1  0  0  0  0  0  0  0  0  0
    9.5018   -8.6908    0.0000 C   0  0  2  0  0  0  0  0  0  0  0  0
    9.4893   -7.8659    0.0000 C   0  0  1  0  0  0  0  0  0  0  0  0
    7.3398   -7.4861    0.0000 C   0  0  0  0  0  0  0  0  0  0  0  0
    7.3272   -6.6612    0.0000 O   0  0  0  0  0  0  0  0  0  0  0  0
   10.2225   -9.0924    0.0000 O   0  0  0  0  0  0  0  0  0  0  0  0
    8.8063   -9.9390    0.0000 O   0  0  0  0  0  0  0  0  0  0  0  0
   11.6056   -6.5827    0.0000 O   0  0  0  0  0  0  0  0  0  0  0  0
   11.5651   -4.9332    0.0000 O   0  0  0  0  0  0  0  0  0  0  0  0
   10.1164   -4.1435    0.0000 O   0  0  0  0  0  0  0  0  0  0  0  0
    8.0341   -6.2404    0.0000 O   0  0  0  0  0  0  0  0  0  0  0  0
    8.7486   -6.6529    0.0000 C   0  0  0  0  0  0  0  0  0  0  0  0
   10.1366   -4.9683    0.0000 C   0  0  2  0  0  0  0  0  0  0  0  0
   10.8610   -5.3631    0.0000 C   0  0  1  0  0  0  0  0  0  0  0  0
   10.8812   -6.1879    0.0000 C   0  0  2  0  0  0  0  0  0  0  0  0
   10.1771   -6.6178    0.0000 C   0  0  1  0  0  0  0  0  0  0  0  0
    9.4527   -6.2230    0.0000 C   0  0  2  0  0  0  0  0  0  0  0  0
    9.4325   -5.3982    0.0000 O   0  0  0  0  0  0  0  0  0  0  0  0
   10.1974   -7.4426    0.0000 O   0  0  0  0  0  0  0  0  0  0  0  0
    4.5071   -9.1210    0.0000 O   0  0  0  0  0  0  0  0  0  0  0  0
    5.9317   -9.9535    0.0000 O   0  0  0  0  0  0  0  0  0  0  0  0
    5.2366   -6.2373    0.0000 O   0  0  0  0  0  0  0  0  0  0  0  0
    5.9489   -6.6535    0.0000 C   0  0  0  0  0  0  0  0  0  0  0  0
    6.6526   -8.7197    0.0000 C   0  0  2  0  0  0  0  0  0  0  0  0
    5.9360   -9.1285    0.0000 C   0  0  1  0  0  0  0  0  0  0  0  0
    5.2237   -8.7122    0.0000 C   0  0  2  0  0  0  0  0  0  0  0  0
    5.2280   -7.8873    0.0000 C   0  0  1  0  0  0  0  0  0  0  0  0
    5.9446   -7.4785    0.0000 C   0  0  2  0  0  0  0  0  0  0  0  0
    6.6569   -7.8947    0.0000 O   0  0  0  0  0  0  0  0  0  0  0  0
    4.5157   -7.4710    0.0000 O   0  0  0  0  0  0  0  0  0  0  0  0
    2.3594  -10.3511    0.0000 O   0  0  0  0  0  0  0  0  0  0  0  0
    3.0739   -9.9386    0.0000 C   0  0  0  0  0  0  0  0  0  0  0  0
    1.6493   -9.1061    0.0000 O   0  0  0  0  0  0  0  0  0  0  0  0
    1.6579   -7.4561    0.0000 O   0  0  0  0  0  0  0  0  0  0  0  0
    3.0911   -6.6386    0.0000 O   0  0  0  0  0  0  0  0  0  0  0  0
    3.0782   -9.1136    0.0000 C   0  0  2  0  0  0  0  0  0  0  0  0
    2.3659   -8.6974    0.0000 C   0  0  2  0  0  0  0  0  0  0  0  0
    2.3702   -7.8724    0.0000 C   0  0  1  0  0  0  0  0  0  0  0  0
    3.0868   -7.4636    0.0000 C   0  0  2  0  0  0  0  0  0  0  0  0
    3.7991   -7.8798    0.0000 C   0  0  2  0  0  0  0  0  0  0  0  0
    3.7948   -8.7048    0.0000 O   0  0  0  0  0  0  0  0  0  0  0  0
 44 34  1  1  0  0  0
 31 34  1  6  0  0  0
 28  1  1  6  0  0  0
 20 23  1  6  0  0  0
 19 12  1  1  0  0  0
 18 13  1  6  0  0  0
 17 14  1  6  0  0  0
 21 16  1  1  0  0  0
 16 15  1  0  0  0  0
 22 17  1  0  0  0  0
 18 17  1  0  0  0  0
 19 18  1  0  0  0  0
 20 19  1  0  0  0  0
 21 20  1  0  0  0  0
 22 21  1  0  0  0  0
  2  3  1  0  0  0  0
 30 24  1  1  0  0  0
 29 25  1  6  0  0  0
 32 27  1  1  0  0  0
 27 26  1  0  0  0  0
 33 28  1  0  0  0  0
 29 28  1  0  0  0  0
 30 29  1  0  0  0  0
 31 30  1  0  0  0  0
 32 31  1  0  0  0  0
 33 32  1  0  0  0  0
 40 36  1  6  0  0  0
 36 35  1  0  0  0  0
 41 37  1  1  0  0  0
 42 38  1  6  0  0  0
 43 39  1  1  0  0  0
 45 40  1  0  0  0  0
 41 40  1  0  0  0  0
 42 41  1  0  0  0  0
 43 42  1  0  0  0  0
 44 43  1  0  0  0  0
 45 44  1  0  0  0  0
  3  4  1  0  0  0  0
  4  5  1  0  0  0  0
  5  6  1  0  0  0  0
  6  7  1  0  0  0  0
  2  7  1  0  0  0  0
  7 23  1  6  0  0  0
  8  9  1  0  0  0  0
  3  8  1  1  0  0  0
  6 10  1  6  0  0  0
  5 11  1  1  0  0  0
  4  1  1  6  0  0  0
M  END
>  <cdx:groupId>
3553

>  <cdx:fragmentId>
3478

$$$$
