301790.cdx
  Mrv1902 05222410222D          

 22 26  0  0  0  0            999 V2000
    7.6345   -6.1394    0.0000 C   0  0  0  0  0  0  0  0  0  0  0  0
    7.6234   -5.3145    0.0000 C   0  0  0  0  0  0  0  0  0  0  0  0
    7.0030   -4.7707    0.0000 O   0  0  0  0  0  0  0  0  0  0  0  0
    7.3285   -4.0126    0.0000 C   0  0  0  0  0  0  0  0  0  0  0  0
    8.1501   -4.0879    0.0000 O   0  0  0  0  0  0  0  0  0  0  0  0
    8.3323   -4.8925    0.0000 C   0  0  0  0  0  0  0  0  0  0  0  0
    9.0523   -5.2954    0.0000 C   0  0  0  0  0  0  0  0  0  0  0  0
    9.0633   -6.1203    0.0000 C   0  0  0  0  0  0  0  0  0  0  0  0
    9.7837   -6.5223    0.0000 C   0  0  0  0  0  0  0  0  0  0  0  0
    9.7945   -7.3472    0.0000 C   0  0  0  0  0  0  0  0  0  0  0  0
    9.0857   -7.7695    0.0000 N   0  0  0  0  0  0  0  0  0  0  0  0
    8.3654   -7.3673    0.0000 C   0  0  2  0  0  0  0  0  0  0  0  0
    7.6565   -7.7893    0.0000 C   0  0  1  0  0  0  0  0  0  0  0  0
    6.9366   -7.3863    0.0000 C   0  0  0  0  0  0  0  0  0  0  0  0
    6.2277   -7.8083    0.0000 C   0  0  0  0  0  0  0  0  0  0  0  0
    5.5078   -7.4054    0.0000 C   0  0  0  0  0  0  0  0  0  0  0  0
    5.4967   -6.5805    0.0000 C   0  0  0  0  0  0  0  0  0  0  0  0
    6.2056   -6.1585    0.0000 C   0  0  0  0  0  0  0  0  0  0  0  0
    6.9256   -6.5614    0.0000 C   0  0  0  0  0  0  0  0  0  0  0  0
    8.3544   -6.5423    0.0000 C   0  0  0  0  0  0  0  0  0  0  0  0
    7.6675   -8.6142    0.0000 O   0  0  0  0  0  0  0  0  0  0  0  0
    8.3764   -8.1922    0.0000 H   0  0  0  0  0  0  0  0  0  0  0  0
  1  2  1  0  0  0  0
  2  3  1  0  0  0  0
  3  4  1  0  0  0  0
  4  5  1  0  0  0  0
  5  6  1  0  0  0  0
  6  7  1  0  0  0  0
  7  8  2  0  0  0  0
  8  9  1  0  0  0  0
  9 10  1  0  0  0  0
 10 11  1  0  0  0  0
 11 12  1  0  0  0  0
 12 13  1  0  0  0  0
 13 14  1  0  0  0  0
 14 15  2  0  0  0  0
 15 16  1  0  0  0  0
 16 17  2  0  0  0  0
 17 18  1  0  0  0  0
 18 19  2  0  0  0  0
  1 19  1  0  0  0  0
  1 20  2  0  0  0  0
 20 12  1  0  0  0  0
 14 19  1  0  0  0  0
  2  6  2  0  0  0  0
  8 20  1  0  0  0  0
 13 21  1  6  0  0  0
 12 22  1  1  0  0  0
M  END
>  <cdx:fragmentId>
1208

$$$$
