301758.cdx
  Mrv1902 05222410262D          

 26 29  0  0  0  0            999 V2000
    6.0915   -8.0578    0.0000 C   0  0  0  0  0  0  0  0  0  0  0  0
    5.3770   -8.4703    0.0000 C   0  0  0  0  0  0  0  0  0  0  0  0
    5.3770   -9.2953    0.0000 C   0  0  0  0  0  0  0  0  0  0  0  0
    6.0915   -9.7078    0.0000 C   0  0  0  0  0  0  0  0  0  0  0  0
    6.8059   -9.2953    0.0000 C   0  0  2  0  0  0  0  0  0  0  0  0
    7.5204   -9.7078    0.0000 C   0  0  0  0  0  0  0  0  0  0  0  0
    8.2349   -9.2953    0.0000 C   0  0  0  0  0  0  0  0  0  0  0  0
    8.2349   -8.4703    0.0000 C   0  0  1  0  0  0  0  0  0  0  0  0
    8.9493   -8.0578    0.0000 C   0  0  2  0  0  0  0  0  0  0  0  0
    9.7340   -8.3127    0.0000 C   0  0  0  0  0  0  0  0  0  0  0  0
   10.2189   -7.6453    0.0000 C   0  0  0  0  0  0  0  0  0  0  0  0
    9.7340   -6.9778    0.0000 C   0  0  1  0  0  0  0  0  0  0  0  0
    8.9493   -7.2328    0.0000 C   0  0  1  0  0  0  0  0  0  0  0  0
    8.2349   -6.8203    0.0000 C   0  0  0  0  0  0  0  0  0  0  0  0
    7.5204   -7.2328    0.0000 C   0  0  0  0  0  0  0  0  0  0  0  0
    7.5204   -8.0578    0.0000 C   0  0  2  0  0  0  0  0  0  0  0  0
    6.8059   -8.4703    0.0000 C   0  0  1  0  0  0  0  0  0  0  0  0
    4.6625   -9.7078    0.0000 O   0  0  0  0  0  0  0  0  0  0  0  0
    9.0356   -6.4123    0.0000 C   0  0  0  0  0  0  0  0  0  0  0  0
    6.8059   -7.6453    0.0000 C   0  0  0  0  0  0  0  0  0  0  0  0
    6.0915   -7.2328    0.0000 C   0  0  0  0  0  0  0  0  0  0  0  0
    9.9889   -6.1932    0.0000 O   0  0  0  0  0  0  0  0  0  0  0  0
    6.8059  -10.1203    0.0000 H   0  0  0  0  0  0  0  0  0  0  0  0
    8.2349   -7.6453    0.0000 H   0  0  0  0  0  0  0  0  0  0  0  0
    7.5204   -8.8828    0.0000 H   0  0  0  0  0  0  0  0  0  0  0  0
    8.9493   -8.8828    0.0000 H   0  0  0  0  0  0  0  0  0  0  0  0
  1  2  2  0  0  0  0
  2  3  1  0  0  0  0
  3  4  1  0  0  0  0
  4  5  1  0  0  0  0
  5  6  1  0  0  0  0
  6  7  1  0  0  0  0
  7  8  1  0  0  0  0
  8  9  1  0  0  0  0
  9 10  1  0  0  0  0
 10 11  1  0  0  0  0
 11 12  1  0  0  0  0
 12 13  1  0  0  0  0
  9 13  1  0  0  0  0
 13 14  1  0  0  0  0
 14 15  1  0  0  0  0
 15 16  1  0  0  0  0
  8 16  1  0  0  0  0
 16 17  1  0  0  0  0
  5 17  1  0  0  0  0
  1 17  1  0  0  0  0
  3 18  2  0  0  0  0
 13 19  1  1  0  0  0
 17 20  1  1  0  0  0
  1 21  1  0  0  0  0
 12 22  1  1  0  0  0
  5 23  1  6  0  0  0
  8 24  1  1  0  0  0
 16 25  1  6  0  0  0
  9 26  1  6  0  0  0
M  END
>  <cdx:groupId>
5170

>  <cdx:fragmentId>
5092

$$$$
