301712.cdx
  Mrv1902 05222410282D          

 23 24  0  0  0  0            999 V2000
   10.3810   -7.4606    0.0000 O   0  0  0  0  0  0  0  0  0  0  0  0
    4.3473   -7.7178    0.0000 O   0  0  0  0  0  0  0  0  0  0  0  0
    8.0730   -6.5669    0.0000 O   0  0  0  0  0  0  0  0  0  0  0  0
    8.6711   -8.4494    0.0000 O   0  0  0  0  0  0  0  0  0  0  0  0
    9.8651   -8.7931    0.0000 C   0  0  0  0  0  0  0  0  0  0  0  0
    9.2669   -6.9107    0.0000 C   0  0  0  0  0  0  0  0  0  0  0  0
    9.7384   -7.9779    0.0000 C   0  0  1  0  0  0  0  0  0  0  0  0
    8.9690   -7.6800    0.0000 C   0  0  0  0  0  0  0  0  0  0  0  0
    8.1997   -7.3822    0.0000 C   0  0  0  0  0  0  0  0  0  0  0  0
    7.5570   -7.8995    0.0000 O   0  0  0  0  0  0  0  0  0  0  0  0
    6.7368   -7.8109    0.0000 C   0  0  0  0  0  0  0  0  0  0  0  0
    4.6807   -8.4724    0.0000 C   0  0  2  0  0  0  0  0  0  0  0  0
    4.1939   -9.1384    0.0000 C   0  0  0  0  0  0  0  0  0  0  0  0
    4.6769   -9.8073    0.0000 C   0  0  0  0  0  0  0  0  0  0  0  0
    6.2500   -8.4769    0.0000 C   0  0  0  0  0  0  0  0  0  0  0  0
    5.4646   -8.7296    0.0000 C   0  0  1  0  0  0  0  0  0  0  0  0
    5.4622   -9.5546    0.0000 N   0  3  0  0  0  0  0  0  0  0  0  0
    6.2461   -9.8118    0.0000 C   0  0  0  0  0  0  0  0  0  0  0  0
    6.7329   -9.1458    0.0000 C   0  0  0  0  0  0  0  0  0  0  0  0
    5.4670   -7.9046    0.0000 H   0  0  0  0  0  0  0  0  0  0  0  0
    8.7495   -6.2680    0.0000 C   0  0  0  0  0  0  0  0  0  0  0  0
   10.0821   -6.7840    0.0000 C   0  0  0  0  0  0  0  0  0  0  0  0
    5.4598  -10.3796    0.0000 O   0  5  0  0  0  0  0  0  0  0  0  0
 12  2  1  1  0  0  0
  7  1  1  1  0  0  0
  8  4  1  1  0  0  0
  9  3  2  0  0  0  0
  7  5  1  0  0  0  0
  8  6  1  0  0  0  0
  8  7  1  0  0  0  0
  9  8  1  0  0  0  0
 10  9  1  0  0  0  0
 11 10  1  0  0  0  0
 15 11  1  0  0  0  0
 12 16  1  0  0  0  0
 13 12  1  0  0  0  0
 14 13  1  0  0  0  0
 17 14  1  0  0  0  0
 15 19  2  0  0  0  0
 16 15  1  0  0  0  0
 17 16  1  0  0  0  0
 18 17  1  0  0  0  0
 19 18  1  0  0  0  0
 16 20  1  6  0  0  0
  6 21  1  0  0  0  0
  6 22  1  0  0  0  0
 17 23  1  0  0  0  0
M  CHG  2  17   1  23  -1
M  END
>  <cdx:fragmentId>
5

$$$$
