301748.cdx
  Mrv1902 05222410232D          

 15 16  0  0  0  0            999 V2000
    5.7135   -8.9719    0.0000 C   0  0  0  0  0  0  0  0  0  0  0  0
    6.4279   -8.5594    0.0000 C   0  0  0  0  0  0  0  0  0  0  0  0
    7.1424   -8.9719    0.0000 C   0  0  0  0  0  0  0  0  0  0  0  0
    4.9990   -8.5594    0.0000 N   0  0  0  0  0  0  0  0  0  0  0  0
    6.4279   -7.7344    0.0000 C   0  0  0  0  0  0  0  0  0  0  0  0
    4.2845   -8.9719    0.0000 C   0  0  0  0  0  0  0  0  0  0  0  0
   10.0704   -7.4794    0.0000 O   0  0  0  0  0  0  0  0  0  0  0  0
   10.5554   -8.1469    0.0000 C   0  0  0  0  0  0  0  0  0  0  0  0
   10.0704   -8.8143    0.0000 O   0  0  0  0  0  0  0  0  0  0  0  0
    9.2858   -8.5594    0.0000 C   0  0  0  0  0  0  0  0  0  0  0  0
    9.2858   -7.7344    0.0000 C   0  0  0  0  0  0  0  0  0  0  0  0
    8.5713   -8.9719    0.0000 C   0  0  0  0  0  0  0  0  0  0  0  0
    7.8569   -8.5594    0.0000 C   0  0  0  0  0  0  0  0  0  0  0  0
    7.8569   -7.7344    0.0000 C   0  0  0  0  0  0  0  0  0  0  0  0
    8.5713   -7.3219    0.0000 C   0  0  0  0  0  0  0  0  0  0  0  0
  1  2  1  0  0  0  0
  2  3  1  0  0  0  0
  1  4  1  0  0  0  0
  2  5  1  0  0  0  0
  4  6  1  0  0  0  0
  7  8  1  0  0  0  0
  8  9  1  0  0  0  0
  9 10  1  0  0  0  0
 10 11  1  0  0  0  0
  7 11  1  0  0  0  0
 12 13  1  0  0  0  0
 13 14  2  0  0  0  0
 14 15  1  0  0  0  0
 15 11  2  0  0  0  0
 12 10  2  0  0  0  0
  3 13  1  0  0  0  0
M  END
>  <cdx:groupId>
4352

>  <cdx:fragmentId>
4321

$$$$
