301770.cdx
  Mrv1902 05222410262D          

 13 14  0  0  0  0            999 V2000
    8.9532   -5.7491    0.0000 C   0  0  0  0  0  0  0  0  0  0  0  0
    8.9532   -6.5741    0.0000 C   0  0  0  0  0  0  0  0  0  0  0  0
    8.2388   -6.9866    0.0000 C   0  0  0  0  0  0  0  0  0  0  0  0
    7.5243   -6.5741    0.0000 C   0  0  0  0  0  0  0  0  0  0  0  0
    6.8098   -6.9866    0.0000 C   0  0  0  0  0  0  0  0  0  0  0  0
    6.0954   -6.5741    0.0000 C   0  0  0  0  0  0  0  0  0  0  0  0
    6.0954   -5.7491    0.0000 C   0  0  0  0  0  0  0  0  0  0  0  0
    6.8098   -5.3366    0.0000 C   0  0  0  0  0  0  0  0  0  0  0  0
    7.5243   -5.7491    0.0000 C   0  0  0  0  0  0  0  0  0  0  0  0
    8.2388   -5.3366    0.0000 O   0  0  0  0  0  0  0  0  0  0  0  0
    9.6677   -5.3366    0.0000 O   0  0  0  0  0  0  0  0  0  0  0  0
    5.3809   -5.3366    0.0000 O   0  0  0  0  0  0  0  0  0  0  0  0
    5.3809   -6.9866    0.0000 O   0  0  0  0  0  0  0  0  0  0  0  0
  1  2  1  0  0  0  0
  2  3  2  0  0  0  0
  3  4  1  0  0  0  0
  4  5  1  0  0  0  0
  5  6  2  0  0  0  0
  6  7  1  0  0  0  0
  7  8  2  0  0  0  0
  8  9  1  0  0  0  0
  4  9  2  0  0  0  0
  9 10  1  0  0  0  0
  1 10  1  0  0  0  0
  1 11  2  0  0  0  0
  7 12  1  0  0  0  0
  6 13  1  0  0  0  0
M  END
>  <cdx:groupId>
1753

>  <cdx:fragmentId>
1716

$$$$
