301744.cdx
  Mrv1902 05222410222D          

 55 61  0  0  0  0            999 V2000
    8.5757   -7.1104    0.0000 C   0  0  0  0  0  0  0  0  0  0  0  0
    7.8612   -6.6979    0.0000 C   0  0  0  0  0  0  0  0  0  0  0  0
    8.5757   -7.9354    0.0000 O   0  0  0  0  0  0  0  0  0  0  0  0
    9.2902   -6.6979    0.0000 O   0  0  0  0  0  0  0  0  0  0  0  0
   11.1478   -8.5954    0.0000 C   0  0  2  0  0  0  0  0  0  0  0  0
   11.8623   -9.0079    0.0000 O   0  0  0  0  0  0  0  0  0  0  0  0
   11.8623   -8.1829    0.0000 C   0  0  1  0  0  0  0  0  0  0  0  0
   12.6469   -8.4378    0.0000 C   0  0  0  0  0  0  0  0  0  0  0  0
   13.1318   -7.7704    0.0000 C   0  0  0  0  0  0  0  0  0  0  0  0
   12.6469   -7.1029    0.0000 C   0  0  1  0  0  0  0  0  0  0  0  0
   11.8623   -7.3579    0.0000 C   0  0  1  0  0  0  0  0  0  0  0  0
   11.1478   -6.9454    0.0000 C   0  0  0  0  0  0  0  0  0  0  0  0
   10.4333   -7.3579    0.0000 C   0  0  0  0  0  0  0  0  0  0  0  0
   10.4333   -8.1829    0.0000 C   0  0  1  0  0  0  0  0  0  0  0  0
    9.7189   -8.5954    0.0000 C   0  0  1  0  0  0  0  0  0  0  0  0
    9.0044   -8.1829    0.0000 C   0  0  0  0  0  0  0  0  0  0  0  0
    8.2899   -8.5954    0.0000 C   0  0  0  0  0  0  0  0  0  0  0  0
    8.2899   -9.4204    0.0000 C   0  0  0  0  0  0  0  0  0  0  0  0
    9.0044   -9.8329    0.0000 C   0  0  0  0  0  0  0  0  0  0  0  0
    9.7189   -9.4204    0.0000 C   0  0  1  0  0  0  0  0  0  0  0  0
   10.4333   -9.8329    0.0000 C   0  0  0  0  0  0  0  0  0  0  0  0
   11.1478   -9.4204    0.0000 C   0  0  0  0  0  0  0  0  0  0  0  0
    9.7189   -7.7704    0.0000 C   0  0  0  0  0  0  0  0  0  0  0  0
   11.9485   -6.5374    0.0000 C   0  0  0  0  0  0  0  0  0  0  0  0
    7.5754   -9.8329    0.0000 O   0  0  0  0  0  0  0  0  0  0  0  0
    6.8610   -8.5954    0.0000 O   0  0  0  0  0  0  0  0  0  0  0  0
    6.8610   -9.4204    0.0000 C   0  0  0  0  0  0  0  0  0  0  0  0
    6.1465   -9.8329    0.0000 C   0  0  0  0  0  0  0  0  0  0  0  0
    5.4320   -9.4204    0.0000 C   0  0  0  0  0  0  0  0  0  0  0  0
    5.4320   -8.5954    0.0000 C   0  0  0  0  0  0  0  0  0  0  0  0
    6.1465   -8.1829    0.0000 C   0  0  0  0  0  0  0  0  0  0  0  0
    6.1465   -7.3579    0.0000 C   0  0  0  0  0  0  0  0  0  0  0  0
    4.7176   -9.8329    0.0000 O   0  0  0  0  0  0  0  0  0  0  0  0
    4.7176  -10.6579    0.0000 C   0  0  0  0  0  0  0  0  0  0  0  0
    4.7176   -8.1829    0.0000 O   0  0  0  0  0  0  0  0  0  0  0  0
    4.0031   -9.4204    0.0000 O   0  0  0  0  0  0  0  0  0  0  0  0
    4.0031   -8.5954    0.0000 C   0  0  0  0  0  0  0  0  0  0  0  0
    3.2886   -8.1829    0.0000 C   0  0  0  0  0  0  0  0  0  0  0  0
    2.5742   -8.5954    0.0000 C   0  0  0  0  0  0  0  0  0  0  0  0
    2.5742   -9.4204    0.0000 C   0  0  0  0  0  0  0  0  0  0  0  0
    3.2886   -9.8329    0.0000 C   0  0  0  0  0  0  0  0  0  0  0  0
    3.2886  -10.6579    0.0000 C   0  0  0  0  0  0  0  0  0  0  0  0
    1.8597   -8.1829    0.0000 O   0  0  0  0  0  0  0  0  0  0  0  0
    1.1452   -8.5954    0.0000 C   0  0  0  0  0  0  0  0  0  0  0  0
    1.8597   -9.8329    0.0000 O   0  0  0  0  0  0  0  0  0  0  0  0
    3.2886   -7.3579    0.0000 O   0  0  0  0  0  0  0  0  0  0  0  0
   11.1478   -6.1204    0.0000 O   0  0  0  0  0  0  0  0  0  0  0  0
   10.4333   -5.7079    0.0000 C   0  0  0  0  0  0  0  0  0  0  0  0
   10.4333   -4.8829    0.0000 O   0  0  0  0  0  0  0  0  0  0  0  0
    9.7189   -6.1204    0.0000 C   0  0  0  0  0  0  0  0  0  0  0  0
   12.9018   -6.3183    0.0000 C   0  0  0  0  0  0  0  0  0  0  0  0
   12.3498   -5.7052    0.0000 O   0  0  0  0  0  0  0  0  0  0  0  0
   13.7088   -6.1468    0.0000 C   0  0  0  0  0  0  0  0  0  0  0  0
   10.4333   -9.0079    0.0000 H   0  0  0  0  0  0  0  0  0  0  0  0
    9.7189  -10.2454    0.0000 H   0  0  0  0  0  0  0  0  0  0  0  0
  1  2  1  0  0  0  0
  1  3  2  0  0  0  0
  1  4  1  0  0  0  0
  5  6  1  1  0  0  0
  7  6  1  1  0  0  0
  7  8  1  0  0  0  0
  8  9  1  0  0  0  0
  9 10  1  0  0  0  0
 10 11  1  0  0  0  0
 11 12  1  0  0  0  0
 12 13  1  0  0  0  0
 13 14  1  0  0  0  0
 14 15  1  0  0  0  0
 15 16  1  0  0  0  0
 16 17  1  0  0  0  0
 17 18  1  0  0  0  0
 18 19  1  0  0  0  0
 19 20  1  0  0  0  0
 20 21  1  0  0  0  0
 21 22  1  0  0  0  0
  5 22  1  0  0  0  0
  5 14  1  0  0  0  0
 15 20  1  0  0  0  0
  7 11  1  0  0  0  0
  5  7  1  0  0  0  0
 15 23  1  1  0  0  0
 11 24  1  1  0  0  0
 26 27  1  0  0  0  0
 27 28  1  0  0  0  0
 28 29  1  0  0  0  0
 29 30  1  0  0  0  0
 30 31  1  0  0  0  0
 26 31  1  0  0  0  0
 31 32  1  0  0  0  0
 33 34  1  0  0  0  0
 29 33  1  0  0  0  0
 36 37  1  0  0  0  0
 37 38  1  0  0  0  0
 38 39  1  0  0  0  0
 39 40  1  0  0  0  0
 40 41  1  0  0  0  0
 36 41  1  0  0  0  0
 41 42  1  0  0  0  0
 43 44  1  0  0  0  0
 39 43  1  0  0  0  0
 40 45  1  0  0  0  0
 38 46  1  0  0  0  0
 35 37  1  0  0  0  0
 30 35  1  0  0  0  0
 25 27  1  0  0  0  0
 18 25  1  0  0  0  0
 48 49  2  0  0  0  0
 48 50  1  0  0  0  0
 47 48  1  0  0  0  0
 12 47  1  0  0  0  0
 51 52  2  0  0  0  0
 51 53  1  0  0  0  0
 10 51  1  1  0  0  0
  4 13  1  0  0  0  0
 14 54  1  1  0  0  0
 20 55  1  1  0  0  0
M  END
>  <cdx:groupId>
3978

>  <cdx:fragmentId>
3880

$$$$
