301772.cdx
  Mrv1902 05222410242D          

 12 11  0  0  0  0            999 V2000
    3.8526   -8.3616    0.0000 C   0  0  0  0  0  0  0  0  0  0  0  0
    4.5671   -8.7741    0.0000 O   0  0  0  0  0  0  0  0  0  0  0  0
    5.2816   -7.5366    0.0000 O   0  0  0  0  0  0  0  0  0  0  0  0
   10.9974   -8.3616    0.0000 C   0  0  0  0  0  0  0  0  0  0  0  0
   10.2829   -8.7741    0.0000 C   0  0  0  0  0  0  0  0  0  0  0  0
    9.5684   -8.3616    0.0000 C   0  0  0  0  0  0  0  0  0  0  0  0
    8.8539   -8.7741    0.0000 C   0  0  0  0  0  0  0  0  0  0  0  0
    8.1395   -8.3616    0.0000 C   0  0  0  0  0  0  0  0  0  0  0  0
    7.4250   -8.7741    0.0000 C   0  0  0  0  0  0  0  0  0  0  0  0
    6.7105   -8.3616    0.0000 C   0  0  0  0  0  0  0  0  0  0  0  0
    5.9961   -8.7741    0.0000 C   0  0  0  0  0  0  0  0  0  0  0  0
    5.2816   -8.3616    0.0000 C   0  0  0  0  0  0  0  0  0  0  0  0
  2  1  1  0  0  0  0
 12  2  1  0  0  0  0
 12  3  2  0  0  0  0
  5  4  2  0  0  0  0
  6  5  1  0  0  0  0
  7  6  1  0  0  0  0
  8  7  1  0  0  0  0
  9  8  1  0  0  0  0
 10  9  1  0  0  0  0
 11 10  1  0  0  0  0
 12 11  1  0  0  0  0
M  END
>  <cdx:groupId>
5651

>  <cdx:fragmentId>
5619

$$$$
