30177.cdx
  Mrv1902 05222410242D          

 23 24  0  0  0  0            999 V2000
    7.7498   -8.8047    0.0000 C   0  0  0  0  0  0  0  0  0  0  0  0
    7.5398   -9.6025    0.0000 C   0  0  0  0  0  0  0  0  0  0  0  0
    6.7439   -9.8195    0.0000 C   0  0  0  0  0  0  0  0  0  0  0  0
    6.5339  -10.6173    0.0000 C   0  0  0  0  0  0  0  0  0  0  0  0
    5.7379  -10.8344    0.0000 C   0  0  0  0  0  0  0  0  0  0  0  0
    5.5279  -11.6322    0.0000 C   0  0  0  0  0  0  0  0  0  0  0  0
    4.7320  -11.8493    0.0000 C   0  0  0  0  0  0  0  0  0  0  0  0
    4.5220  -12.6471    0.0000 C   0  0  0  0  0  0  0  0  0  0  0  0
    3.7260  -12.8641    0.0000 C   0  0  0  0  0  0  0  0  0  0  0  0
    3.5160  -13.6620    0.0000 O   0  0  0  0  0  0  0  0  0  0  0  0
    2.7201  -13.8790    0.0000 C   0  0  0  0  0  0  0  0  0  0  0  0
    8.4643   -8.3922    0.0000 C   0  0  0  0  0  0  0  0  0  0  0  0
    9.2612   -8.3857    0.0000 C   0  0  0  0  0  0  0  0  0  0  0  0
    9.9756   -7.9732    0.0000 C   0  0  0  0  0  0  0  0  0  0  0  0
   10.1892   -7.1763    0.0000 C   0  0  0  0  0  0  0  0  0  0  0  0
   11.0142   -7.1763    0.0000 C   0  0  0  0  0  0  0  0  0  0  0  0
   11.2277   -6.3794    0.0000 C   0  0  0  0  0  0  0  0  0  0  0  0
   12.0527   -6.3794    0.0000 C   0  0  0  0  0  0  0  0  0  0  0  0
   12.2662   -5.5825    0.0000 C   0  0  0  0  0  0  0  0  0  0  0  0
   13.0912   -5.5825    0.0000 C   0  0  0  0  0  0  0  0  0  0  0  0
    7.7498   -7.9797    0.0000 C   0  0  0  0  0  0  0  0  0  0  0  0
    9.9756   -8.7982    0.0000 C   0  0  0  0  0  0  0  0  0  0  0  0
    3.1401  -12.2834    0.0000 O   0  0  0  0  0  0  0  0  0  0  0  0
  1  2  1  0  0  0  0
  2  3  1  0  0  0  0
  3  4  1  0  0  0  0
  4  5  1  0  0  0  0
  5  6  1  0  0  0  0
  6  7  1  0  0  0  0
  7  8  1  0  0  0  0
  8  9  1  0  0  0  0
  9 10  1  0  0  0  0
 10 11  1  0  0  0  0
  1 12  1  0  0  0  0
 12 13  1  0  0  0  0
 13 14  1  0  0  0  0
 14 15  1  0  0  0  0
 15 16  1  0  0  0  0
 16 17  1  0  0  0  0
 17 18  1  0  0  0  0
 18 19  1  0  0  0  0
 19 20  1  0  0  0  0
 12 21  1  0  0  0  0
 21  1  1  0  0  0  0
 13 22  1  0  0  0  0
 22 14  1  0  0  0  0
  9 23  2  0  0  0  0
M  END
>  <cdx:fragmentId>
3

$$$$
