301797.cdx
  Mrv1902 05222410212D          

 27 30  0  0  0  0            999 V2000
    4.8768   -9.1807    0.0000 C   0  0  0  0  0  0  0  0  0  0  0  0
    4.0622   -9.0497    0.0000 C   0  0  0  0  0  0  0  0  0  0  0  0
    3.7684   -8.2788    0.0000 C   0  0  0  0  0  0  0  0  0  0  0  0
    5.1706   -9.9516    0.0000 O   0  0  0  0  0  0  0  0  0  0  0  0
    5.3975   -8.5408    0.0000 O   0  0  0  0  0  0  0  0  0  0  0  0
    3.5416   -9.6897    0.0000 C   0  0  0  0  0  0  0  0  0  0  0  0
    7.5277   -8.4463    0.0000 C   0  0  2  0  0  0  0  0  0  0  0  0
    8.2745   -8.0957    0.0000 C   0  0  0  0  0  0  0  0  0  0  0  0
    8.4660   -7.2932    0.0000 C   0  0  2  0  0  0  0  0  0  0  0  0
    9.2412   -7.0109    0.0000 C   0  0  0  0  0  0  0  0  0  0  0  0
    9.2123   -6.1864    0.0000 C   0  0  0  0  0  0  0  0  0  0  0  0
    8.4192   -5.9592    0.0000 O   0  0  0  0  0  0  0  0  0  0  0  0
    7.9579   -6.6432    0.0000 C   0  0  2  0  0  0  0  0  0  0  0  0
    7.1330   -6.6351    0.0000 C   0  0  0  0  0  0  0  0  0  0  0  0
    6.6123   -7.2750    0.0000 C   0  0  2  0  0  0  0  0  0  0  0  0
    6.7880   -8.0811    0.0000 C   0  0  2  0  0  0  0  0  0  0  0  0
    6.2120   -8.6718    0.0000 C   0  0  2  0  0  0  0  0  0  0  0  0
    6.5958   -9.4021    0.0000 C   0  0  0  0  0  0  0  0  0  0  0  0
    7.4089   -9.2627    0.0000 C   0  0  1  0  0  0  0  0  0  0  0  0
    8.1754   -8.9574    0.0000 O   0  0  0  0  0  0  0  0  0  0  0  0
    9.8623   -5.6784    0.0000 O   0  0  0  0  0  0  0  0  0  0  0  0
    9.9252   -7.4722    0.0000 C   0  0  0  0  0  0  0  0  0  0  0  0
    7.6325  -10.0569    0.0000 C   0  0  0  0  0  0  0  0  0  0  0  0
    5.7978   -7.1440    0.0000 C   0  0  0  0  0  0  0  0  0  0  0  0
    9.1059   -7.8139    0.0000 H   0  0  0  0  0  0  0  0  0  0  0  0
    7.5742   -5.9129    0.0000 H   0  0  0  0  0  0  0  0  0  0  0  0
    5.9949   -7.8538    0.0000 H   0  0  0  0  0  0  0  0  0  0  0  0
  1  2  1  0  0  0  0
  2  3  1  0  0  0  0
  1  4  2  0  0  0  0
  1  5  1  0  0  0  0
  2  6  1  0  0  0  0
  7  8  1  0  0  0  0
  8  9  1  0  0  0  0
  9 10  1  0  0  0  0
 10 11  1  0  0  0  0
 11 12  1  0  0  0  0
 12 13  1  0  0  0  0
 13 14  1  0  0  0  0
 14 15  1  0  0  0  0
 15 16  1  0  0  0  0
 16 17  1  0  0  0  0
 17 18  1  0  0  0  0
 18 19  1  0  0  0  0
 19 20  1  0  0  0  0
  7 20  1  6  0  0  0
  7 16  1  0  0  0  0
  7 19  1  0  0  0  0
  9 13  1  0  0  0  0
 11 21  2  0  0  0  0
 10 22  2  0  0  0  0
 19 23  1  1  0  0  0
 15 24  1  6  0  0  0
 17  5  1  6  0  0  0
  9 25  1  6  0  0  0
 13 26  1  6  0  0  0
 16 27  1  6  0  0  0
M  END
>  <cdx:fragmentId>
1749

$$$$
