3017.cdx
  Mrv1902 05222410262D          

 26 27  0  0  0  0            999 V2000
    5.0194   -9.3874    0.0000 C   0  0  0  0  0  0  0  0  0  0  0  0
    5.7371   -9.7943    0.0000 C   0  0  0  0  0  0  0  0  0  0  0  0
    6.4483   -9.3763    0.0000 C   0  0  0  0  0  0  0  0  0  0  0  0
    6.4419   -8.5513    0.0000 C   0  0  0  0  0  0  0  0  0  0  0  0
    5.7243   -8.1444    0.0000 C   0  0  0  0  0  0  0  0  0  0  0  0
    5.0130   -8.5624    0.0000 C   0  0  0  0  0  0  0  0  0  0  0  0
    4.3082   -9.8054    0.0000 O   0  0  0  0  0  0  0  0  0  0  0  0
    3.5905   -9.3984    0.0000 C   0  0  0  0  0  0  0  0  0  0  0  0
    5.7435  -10.6193    0.0000 O   0  0  0  0  0  0  0  0  0  0  0  0
    5.7179   -7.3194    0.0000 C   0  0  0  0  0  0  0  0  0  0  0  0
    6.4291   -6.9014    0.0000 C   0  0  0  0  0  0  0  0  0  0  0  0
    6.4228   -6.0764    0.0000 C   0  0  0  0  0  0  0  0  0  0  0  0
    7.1340   -5.6584    0.0000 O   0  0  0  0  0  0  0  0  0  0  0  0
    5.7051   -5.6694    0.0000 O   0  0  0  0  0  0  0  0  0  0  0  0
    7.5327   -3.9740    0.0000 C   0  0  0  0  0  0  0  0  0  0  0  0
    7.1202   -4.6885    0.0000 C   0  0  0  0  0  0  0  0  0  0  0  0
    7.9135   -4.4618    0.0000 C   0  0  0  0  0  0  0  0  0  0  0  0
    8.7115   -4.6885    0.0000 C   0  0  0  0  0  0  0  0  0  0  0  0
    9.1241   -3.9740    0.0000 C   0  0  0  0  0  0  0  0  0  0  0  0
    8.3308   -4.2007    0.0000 C   0  0  0  0  0  0  0  0  0  0  0  0
    6.3233   -4.4750    0.0000 C   0  0  0  0  0  0  0  0  0  0  0  0
    5.7399   -5.0583    0.0000 O   0  0  0  0  0  0  0  0  0  0  0  0
    6.1098   -3.6781    0.0000 O   0  0  0  0  0  0  0  0  0  0  0  0
    8.7115   -5.5135    0.0000 O   0  0  0  0  0  0  0  0  0  0  0  0
    8.7433   -3.4862    0.0000 O   0  0  0  0  0  0  0  0  0  0  0  0
    9.8386   -4.3865    0.0000 O   0  0  0  0  0  0  0  0  0  0  0  0
  1  2  2  0  0  0  0
  2  3  1  0  0  0  0
  3  4  2  0  0  0  0
  4  5  1  0  0  0  0
  5  6  2  0  0  0  0
  6  1  1  0  0  0  0
  1  7  1  0  0  0  0
  7  8  1  0  0  0  0
  2  9  1  0  0  0  0
  5 10  1  0  0  0  0
 10 11  2  0  0  0  0
 11 12  1  0  0  0  0
 12 13  1  0  0  0  0
 12 14  2  0  0  0  0
 15 16  1  0  0  0  0
 16 17  1  0  0  0  0
 17 18  1  0  0  0  0
 18 19  1  0  0  0  0
 19 20  1  0  0  0  0
 20 15  1  0  0  0  0
 16 21  1  0  0  0  0
 18 24  1  0  0  0  0
 20 25  1  0  0  0  0
 19 26  1  0  0  0  0
 16 13  1  0  0  0  0
 21 22  2  0  0  0  0
 21 23  1  0  0  0  0
M  STY  1   1 SUP
M  SAL   1  3  21  22  23
M  SBL   1  1  21
M  SMT   1 COOH
M  SAP   1  1  21  16  1
M  END
>  <cdx:fragmentId>
5

$$$$
