301723.cdx
  Mrv1902 05222410182D          

 99109  0  0  0  0            999 V2000
   11.5230   -9.4050    0.0000 C   0  0  0  0  0  0  0  0  0  0  0  0
   11.5230  -10.2300    0.0000 C   0  0  1  0  0  0  0  0  0  0  0  0
   12.2375  -10.6425    0.0000 C   0  0  1  0  0  0  0  0  0  0  0  0
   12.9519  -10.2300    0.0000 C   0  0  1  0  0  0  0  0  0  0  0  0
   12.9519   -9.4050    0.0000 C   0  0  2  0  0  0  0  0  0  0  0  0
   12.2375   -8.9925    0.0000 C   0  0  0  0  0  0  0  0  0  0  0  0
   13.6664  -10.6425    0.0000 C   0  0  0  0  0  0  0  0  0  0  0  0
   14.3808  -10.2300    0.0000 C   0  0  0  0  0  0  0  0  0  0  0  0
   14.3808   -9.4050    0.0000 C   0  0  2  0  0  0  0  0  0  0  0  0
   13.6664   -8.9925    0.0000 C   0  0  2  0  0  0  0  0  0  0  0  0
   15.0953   -8.9925    0.0000 C   0  0  1  0  0  0  0  0  0  0  0  0
   15.0953   -8.1675    0.0000 C   0  0  0  0  0  0  0  0  0  0  0  0
   14.3808   -7.7550    0.0000 C   0  0  0  0  0  0  0  0  0  0  0  0
   13.6664   -8.1675    0.0000 C   0  0  0  0  0  0  0  0  0  0  0  0
   15.8097   -9.4050    0.0000 C   0  0  0  0  0  0  0  0  0  0  0  0
   16.5242   -8.9925    0.0000 C   0  0  0  0  0  0  0  0  0  0  0  0
   16.5242   -8.1675    0.0000 C   0  0  2  0  0  0  0  0  0  0  0  0
   15.8097   -7.7550    0.0000 C   0  0  1  0  0  0  0  0  0  0  0  0
   17.2389   -7.7550    0.0000 C   0  0  0  0  0  0  0  0  0  0  0  0
   17.2389   -6.9300    0.0000 C   0  0  0  0  0  0  0  0  0  0  0  0
   16.5242   -6.5175    0.0000 C   0  0  0  0  0  0  0  0  0  0  0  0
   15.8097   -6.9300    0.0000 C   0  0  0  0  0  0  0  0  0  0  0  0
   16.1117   -5.8030    0.0000 C   0  0  0  0  0  0  0  0  0  0  0  0
   16.9367   -5.8030    0.0000 C   0  0  0  0  0  0  0  0  0  0  0  0
   15.8097   -8.5800    0.0000 H   0  0  0  0  0  0  0  0  0  0  0  0
   15.0953   -9.8175    0.0000 C   0  0  0  0  0  0  0  0  0  0  0  0
   14.3808   -8.5800    0.0000 C   0  0  0  0  0  0  0  0  0  0  0  0
   13.6664   -9.8175    0.0000 H   0  0  0  0  0  0  0  0  0  0  0  0
   12.9519   -8.5800    0.0000 C   0  0  0  0  0  0  0  0  0  0  0  0
   12.9519  -11.0550    0.0000 H   0  0  0  0  0  0  0  0  0  0  0  0
   11.8250  -11.3569    0.0000 C   0  0  0  0  0  0  0  0  0  0  0  0
   12.6500  -11.3569    0.0000 C   0  0  0  0  0  0  0  0  0  0  0  0
   10.8086  -10.6425    0.0000 O   0  0  0  0  0  0  0  0  0  0  0  0
   17.2389   -8.5800    0.0000 C   0  0  0  0  0  0  0  0  0  0  0  0
   12.2375  -12.0714    0.0000 O   0  0  0  0  0  0  0  0  0  0  0  0
   17.9534   -8.1675    0.0000 O   0  0  0  0  0  0  0  0  0  0  0  0
   17.2389   -9.4050    0.0000 O   0  0  0  0  0  0  0  0  0  0  0  0
   18.6678   -8.5800    0.0000 C   0  0  2  0  0  0  0  0  0  0  0  0
   18.6678   -9.4050    0.0000 O   0  0  0  0  0  0  0  0  0  0  0  0
   19.3823   -9.8175    0.0000 C   0  0  1  0  0  0  0  0  0  0  0  0
   20.0967   -9.4050    0.0000 C   0  0  2  0  0  0  0  0  0  0  0  0
   20.0967   -8.5800    0.0000 C   0  0  1  0  0  0  0  0  0  0  0  0
   19.3823   -8.1675    0.0000 C   0  0  1  0  0  0  0  0  0  0  0  0
   19.3823  -10.6425    0.0000 C   0  0  0  0  0  0  0  0  0  0  0  0
   20.8112   -8.1675    0.0000 O   0  0  0  0  0  0  0  0  0  0  0  0
   19.3823   -7.3425    0.0000 O   0  0  0  0  0  0  0  0  0  0  0  0
   20.8112   -9.8175    0.0000 O   0  0  0  0  0  0  0  0  0  0  0  0
   20.0967  -11.0550    0.0000 O   0  0  0  0  0  0  0  0  0  0  0  0
   10.0941  -10.2300    0.0000 C   0  0  2  0  0  0  0  0  0  0  0  0
   10.0941   -9.4050    0.0000 O   0  0  0  0  0  0  0  0  0  0  0  0
    9.3797   -8.9925    0.0000 C   0  0  0  0  0  0  0  0  0  0  0  0
    8.6652   -9.4050    0.0000 C   0  0  1  0  0  0  0  0  0  0  0  0
    8.6652  -10.2300    0.0000 C   0  0  1  0  0  0  0  0  0  0  0  0
    9.3797  -10.6425    0.0000 C   0  0  1  0  0  0  0  0  0  0  0  0
    9.3797  -11.4675    0.0000 O   0  0  0  0  0  0  0  0  0  0  0  0
    7.9508  -10.6425    0.0000 O   0  0  0  0  0  0  0  0  0  0  0  0
    7.9508   -8.9925    0.0000 O   0  0  0  0  0  0  0  0  0  0  0  0
    8.6652  -11.8800    0.0000 C   0  0  2  0  0  0  0  0  0  0  0  0
    7.9508  -11.4675    0.0000 O   0  0  0  0  0  0  0  0  0  0  0  0
    7.2363  -11.8800    0.0000 C   0  0  2  0  0  0  0  0  0  0  0  0
    7.2363  -12.7050    0.0000 C   0  0  1  0  0  0  0  0  0  0  0  0
    7.9508  -13.1175    0.0000 C   0  0  2  0  0  0  0  0  0  0  0  0
    8.6652  -12.7050    0.0000 C   0  0  1  0  0  0  0  0  0  0  0  0
    6.5218  -13.1175    0.0000 O   0  0  0  0  0  0  0  0  0  0  0  0
    7.9508  -13.9425    0.0000 O   0  0  0  0  0  0  0  0  0  0  0  0
    9.3797  -13.1175    0.0000 O   0  0  0  0  0  0  0  0  0  0  0  0
    6.5218  -11.4675    0.0000 C   0  0  0  0  0  0  0  0  0  0  0  0
    7.2363  -14.3550    0.0000 C   0  0  2  0  0  0  0  0  0  0  0  0
    6.5218  -13.9425    0.0000 O   0  0  0  0  0  0  0  0  0  0  0  0
    5.8073  -14.3550    0.0000 C   0  0  1  0  0  0  0  0  0  0  0  0
    5.8073  -15.1800    0.0000 C   0  0  2  0  0  0  0  0  0  0  0  0
    6.5218  -15.5925    0.0000 C   0  0  1  0  0  0  0  0  0  0  0  0
    7.2363  -15.1800    0.0000 C   0  0  1  0  0  0  0  0  0  0  0  0
    5.0929  -13.9425    0.0000 C   0  0  0  0  0  0  0  0  0  0  0  0
    6.5218  -16.4175    0.0000 O   0  0  0  0  0  0  0  0  0  0  0  0
    7.9508  -15.5925    0.0000 O   0  0  0  0  0  0  0  0  0  0  0  0
    5.0929  -15.5925    0.0000 O   0  0  0  0  0  0  0  0  0  0  0  0
    4.3784  -14.3550    0.0000 O   0  0  0  0  0  0  0  0  0  0  0  0
    6.9262  -17.1366    0.0000 C   0  0  2  0  0  0  0  0  0  0  0  0
    6.5056  -17.8463    0.0000 O   0  0  0  0  0  0  0  0  0  0  0  0
    6.9099  -18.5655    0.0000 C   0  0  2  0  0  0  0  0  0  0  0  0
    7.7349  -18.5748    0.0000 C   0  0  1  0  0  0  0  0  0  0  0  0
    8.1555  -17.8651    0.0000 C   0  0  2  0  0  0  0  0  0  0  0  0
    7.7511  -17.1460    0.0000 C   0  0  1  0  0  0  0  0  0  0  0  0
    8.1392  -19.2940    0.0000 O   0  0  0  0  0  0  0  0  0  0  0  0
    8.9804  -17.8745    0.0000 O   0  0  0  0  0  0  0  0  0  0  0  0
    6.4893  -19.2752    0.0000 C   0  0  0  0  0  0  0  0  0  0  0  0
    4.6666  -16.2989    0.0000 C   0  0  2  0  0  0  0  0  0  0  0  0
    3.8418  -16.2829    0.0000 O   0  0  0  0  0  0  0  0  0  0  0  0
    3.4155  -16.9892    0.0000 C   0  0  1  0  0  0  0  0  0  0  0  0
    3.8141  -17.7116    0.0000 C   0  0  2  0  0  0  0  0  0  0  0  0
    4.6390  -17.7275    0.0000 C   0  0  1  0  0  0  0  0  0  0  0  0
    5.0652  -17.0212    0.0000 C   0  0  1  0  0  0  0  0  0  0  0  0
    2.5907  -16.9733    0.0000 C   0  0  0  0  0  0  0  0  0  0  0  0
    5.0376  -18.4498    0.0000 O   0  0  0  0  0  0  0  0  0  0  0  0
    3.3879  -18.4179    0.0000 O   0  0  0  0  0  0  0  0  0  0  0  0
    2.1644  -17.6796    0.0000 O   0  0  0  0  0  0  0  0  0  0  0  0
    8.1717  -16.4363    0.0000 O   0  0  0  0  0  0  0  0  0  0  0  0
    5.8901  -17.0371    0.0000 O   0  0  0  0  0  0  0  0  0  0  0  0
  1  2  1  0  0  0  0
  2  3  1  0  0  0  0
  3  4  1  0  0  0  0
  4  5  1  0  0  0  0
  5  6  1  0  0  0  0
  6  1  1  0  0  0  0
  4  7  1  0  0  0  0
  7  8  1  0  0  0  0
  8  9  1  0  0  0  0
  9 10  1  0  0  0  0
 10  5  1  0  0  0  0
  9 11  1  0  0  0  0
 11 12  1  0  0  0  0
 12 13  2  0  0  0  0
 13 14  1  0  0  0  0
 14 10  1  0  0  0  0
 11 15  1  0  0  0  0
 15 16  1  0  0  0  0
 16 17  1  0  0  0  0
 17 18  1  0  0  0  0
 18 12  1  0  0  0  0
 17 19  1  0  0  0  0
 19 20  1  0  0  0  0
 20 21  1  0  0  0  0
 21 22  1  0  0  0  0
 22 18  1  0  0  0  0
 21 23  1  0  0  0  0
 21 24  1  0  0  0  0
 18 25  1  1  0  0  0
 11 26  1  6  0  0  0
  9 27  1  1  0  0  0
 10 28  1  6  0  0  0
  5 29  1  1  0  0  0
  4 30  1  6  0  0  0
  3 31  1  1  0  0  0
  3 32  1  6  0  0  0
  2 33  1  1  0  0  0
 17 34  1  1  0  0  0
 32 35  1  0  0  0  0
 34 36  1  0  0  0  0
 34 37  2  0  0  0  0
 38 36  1  1  0  0  0
 38 39  1  0  0  0  0
 39 40  1  0  0  0  0
 40 41  1  0  0  0  0
 41 42  1  0  0  0  0
 42 43  1  0  0  0  0
 43 38  1  0  0  0  0
 40 44  1  1  0  0  0
 42 45  1  1  0  0  0
 43 46  1  6  0  0  0
 41 47  1  6  0  0  0
 44 48  1  0  0  0  0
 49 33  1  1  0  0  0
 49 50  1  0  0  0  0
 50 51  1  0  0  0  0
 51 52  1  0  0  0  0
 52 53  1  0  0  0  0
 53 54  1  0  0  0  0
 54 49  1  0  0  0  0
 54 55  1  6  0  0  0
 53 56  1  1  0  0  0
 52 57  1  1  0  0  0
 58 55  1  1  0  0  0
 58 59  1  0  0  0  0
 59 60  1  0  0  0  0
 60 61  1  0  0  0  0
 61 62  1  0  0  0  0
 62 63  1  0  0  0  0
 63 58  1  0  0  0  0
 61 64  1  1  0  0  0
 62 65  1  6  0  0  0
 63 66  1  6  0  0  0
 60 67  1  6  0  0  0
 68 65  1  1  0  0  0
 68 69  1  0  0  0  0
 69 70  1  0  0  0  0
 70 71  1  0  0  0  0
 71 72  1  0  0  0  0
 72 73  1  0  0  0  0
 73 68  1  0  0  0  0
 70 74  1  1  0  0  0
 72 75  1  1  0  0  0
 73 76  1  6  0  0  0
 71 77  1  6  0  0  0
 74 78  1  0  0  0  0
 79 75  1  1  0  0  0
 79 80  1  0  0  0  0
 80 81  1  0  0  0  0
 81 82  1  0  0  0  0
 82 83  1  0  0  0  0
 83 84  1  0  0  0  0
 84 79  1  0  0  0  0
 82 85  1  1  0  0  0
 83 86  1  6  0  0  0
 81 87  1  6  0  0  0
 88 77  1  1  0  0  0
 88 89  1  0  0  0  0
 89 90  1  0  0  0  0
 90 91  1  0  0  0  0
 91 92  1  0  0  0  0
 92 93  1  0  0  0  0
 93 88  1  0  0  0  0
 90 94  1  1  0  0  0
 92 95  1  1  0  0  0
 91 96  1  6  0  0  0
 94 97  1  0  0  0  0
 84 98  1  6  0  0  0
 93 99  1  6  0  0  0
M  END
>  <cdx:fragmentId>
5

$$$$
