301733.cdx
  Mrv1902 05222410202D          

 39 45  0  0  0  0            999 V2000
    5.8635   -6.1737    0.0000 C   0  0  0  0  0  0  0  0  0  0  0  0
    7.1986   -3.4307    0.0000 O   0  0  0  0  0  0  0  0  0  0  0  0
    7.9154   -5.4971    0.0000 C   0  0  0  0  0  0  0  0  0  0  0  0
    7.9154   -4.6721    0.0000 C   0  0  0  0  0  0  0  0  0  0  0  0
    7.1986   -4.2557    0.0000 C   0  0  0  0  0  0  0  0  0  0  0  0
    6.4819   -4.6721    0.0000 C   0  0  0  0  0  0  0  0  0  0  0  0
    6.4819   -5.4971    0.0000 C   0  0  0  0  0  0  0  0  0  0  0  0
    7.1986   -5.9057    0.0000 C   0  0  0  0  0  0  0  0  0  0  0  0
    7.1893   -6.7306    0.0000 C   0  0  0  0  0  0  0  0  0  0  0  0
    7.0936   -7.9269    0.0000 C   0  0  0  0  0  0  0  0  0  0  0  0
   10.6733   -9.8450    0.0000 O   0  0  0  0  0  0  0  0  0  0  0  0
    3.5286   -9.8450    0.0000 O   0  0  0  0  0  0  0  0  0  0  0  0
    9.2444  -12.3200    0.0000 O   0  0  0  0  0  0  0  0  0  0  0  0
    4.9576   -7.3700    0.0000 O   0  0  0  0  0  0  0  0  0  0  0  0
    9.2444   -7.3700    0.0000 O   0  0  0  0  0  0  0  0  0  0  0  0
    9.9589   -9.4325    0.0000 C   0  0  0  0  0  0  0  0  0  0  0  0
    9.9589   -8.6075    0.0000 C   0  0  0  0  0  0  0  0  0  0  0  0
    9.2444   -8.1950    0.0000 C   0  0  0  0  0  0  0  0  0  0  0  0
    8.5299   -8.6075    0.0000 C   0  0  0  0  0  0  0  0  0  0  0  0
    9.2444   -9.8450    0.0000 C   0  0  0  0  0  0  0  0  0  0  0  0
    8.5299   -9.4325    0.0000 C   0  0  0  0  0  0  0  0  0  0  0  0
    7.8155   -9.8450    0.0000 O   0  0  0  0  0  0  0  0  0  0  0  0
    7.8155  -12.3200    0.0000 C   0  0  0  0  0  0  0  0  0  0  0  0
    8.5299  -11.9075    0.0000 C   0  0  0  0  0  0  0  0  0  0  0  0
    8.5299  -11.0825    0.0000 C   0  0  0  0  0  0  0  0  0  0  0  0
    7.8155  -10.6700    0.0000 C   0  0  0  0  0  0  0  0  0  0  0  0
    5.6720  -11.9075    0.0000 O   0  0  0  0  0  0  0  0  0  0  0  0
    7.1010  -11.9075    0.0000 C   0  0  0  0  0  0  0  0  0  0  0  0
    7.1010  -11.0825    0.0000 C   0  0  0  0  0  0  0  0  0  0  0  0
    4.9576  -10.6700    0.0000 C   0  0  0  0  0  0  0  0  0  0  0  0
    5.6720  -11.0825    0.0000 C   0  0  0  0  0  0  0  0  0  0  0  0
    6.3865  -10.6700    0.0000 C   0  0  0  0  0  0  0  0  0  0  0  0
    6.3865   -9.8450    0.0000 O   0  0  0  0  0  0  0  0  0  0  0  0
    4.9576   -8.1950    0.0000 C   0  0  0  0  0  0  0  0  0  0  0  0
    4.2431   -8.6075    0.0000 C   0  0  0  0  0  0  0  0  0  0  0  0
    4.2431   -9.4325    0.0000 C   0  0  0  0  0  0  0  0  0  0  0  0
    4.9576   -9.8450    0.0000 C   0  0  0  0  0  0  0  0  0  0  0  0
    5.6720   -9.4325    0.0000 C   0  0  0  0  0  0  0  0  0  0  0  0
    5.6720   -8.6075    0.0000 C   0  0  0  0  0  0  0  0  0  0  0  0
  9  1  1  0  0  0  0
  5  2  1  0  0  0  0
  3  8  1  0  0  0  0
  4  3  2  0  0  0  0
  5  4  1  0  0  0  0
  6  5  2  0  0  0  0
  7  6  1  0  0  0  0
  8  7  2  0  0  0  0
  9  8  1  0  0  0  0
  9 14  1  0  0  0  0
 15  9  1  0  0  0  0
 39 10  1  0  0  0  0
 19 10  1  0  0  0  0
 16 11  1  0  0  0  0
 36 12  1  0  0  0  0
 24 13  1  0  0  0  0
 34 14  1  0  0  0  0
 18 15  1  0  0  0  0
 16 20  2  0  0  0  0
 17 16  1  0  0  0  0
 18 17  2  0  0  0  0
 19 18  1  0  0  0  0
 21 19  2  0  0  0  0
 21 20  1  0  0  0  0
 22 21  1  0  0  0  0
 23 28  1  0  0  0  0
 24 23  2  0  0  0  0
 25 24  1  0  0  0  0
 26 25  2  0  0  0  0
 29 26  1  0  0  0  0
 27 31  1  0  0  0  0
 29 28  2  0  0  0  0
 32 29  1  0  0  0  0
 30 37  1  0  0  0  0
 31 30  1  0  0  0  0
 32 31  1  0  0  0  0
 33 32  1  0  0  0  0
 38 33  1  0  0  0  0
 34 39  2  0  0  0  0
 35 34  1  0  0  0  0
 36 35  2  0  0  0  0
 37 36  1  0  0  0  0
 38 37  2  0  0  0  0
 39 38  1  0  0  0  0
  1 10  1  0  0  0  0
M  END
>  <cdx:fragmentId>
5

$$$$
