301754.cdx
  Mrv1902 05222410212D          

 38 42  0  0  0  0            999 V2000
    8.7586   -7.4546    0.0000 C   0  0  1  0  0  0  0  0  0  0  0  0
    9.4730   -7.8671    0.0000 C   0  0  1  0  0  0  0  0  0  0  0  0
    9.4730   -8.6921    0.0000 C   0  0  0  0  0  0  0  0  0  0  0  0
    8.7586   -9.1046    0.0000 C   0  0  0  0  0  0  0  0  0  0  0  0
    8.0441   -8.6921    0.0000 C   0  0  1  0  0  0  0  0  0  0  0  0
    7.3296   -9.1046    0.0000 C   0  0  2  0  0  0  0  0  0  0  0  0
    7.3296   -9.9296    0.0000 C   0  0  0  0  0  0  0  0  0  0  0  0
    6.6151  -10.3421    0.0000 C   0  0  0  0  0  0  0  0  0  0  0  0
    5.9007   -9.9296    0.0000 C   0  0  1  0  0  0  0  0  0  0  0  0
    5.1862  -10.3421    0.0000 C   0  0  0  0  0  0  0  0  0  0  0  0
    4.4717   -9.9296    0.0000 C   0  0  0  0  0  0  0  0  0  0  0  0
    4.4717   -9.1046    0.0000 C   0  0  0  0  0  0  0  0  0  0  0  0
    5.1862   -8.6921    0.0000 C   0  0  0  0  0  0  0  0  0  0  0  0
    5.9007   -9.1046    0.0000 C   0  0  2  0  0  0  0  0  0  0  0  0
    6.6151   -8.6921    0.0000 C   0  0  1  0  0  0  0  0  0  0  0  0
    6.6151   -7.8671    0.0000 C   0  0  0  0  0  0  0  0  0  0  0  0
    7.3296   -7.4546    0.0000 C   0  0  0  0  0  0  0  0  0  0  0  0
    8.0441   -7.8671    0.0000 C   0  0  2  0  0  0  0  0  0  0  0  0
   10.0861   -7.3150    0.0000 C   0  0  0  0  0  0  0  0  0  0  0  0
    9.7506   -6.5614    0.0000 C   0  0  0  0  0  0  0  0  0  0  0  0
    8.9301   -6.6476    0.0000 C   0  0  1  0  0  0  0  0  0  0  0  0
   10.2267   -8.2026    0.0000 C   0  0  0  0  0  0  0  0  0  0  0  0
   10.3129   -9.0231    0.0000 O   0  0  0  0  0  0  0  0  0  0  0  0
   10.8941   -7.7177    0.0000 O   0  0  0  0  0  0  0  0  0  0  0  0
    3.7573  -10.3421    0.0000 O   0  0  0  0  0  0  0  0  0  0  0  0
    5.9007   -8.2796    0.0000 C   0  0  0  0  0  0  0  0  0  0  0  0
    5.5987  -11.0565    0.0000 C   0  0  0  0  0  0  0  0  0  0  0  0
    4.7737  -11.0565    0.0000 C   0  0  0  0  0  0  0  0  0  0  0  0
    7.3296   -8.2796    0.0000 C   0  0  0  0  0  0  0  0  0  0  0  0
    8.0441   -9.5171    0.0000 C   0  0  0  0  0  0  0  0  0  0  0  0
    8.6330   -5.2499    0.0000 C   0  0  0  0  0  0  0  0  0  0  0  0
    8.3781   -6.0345    0.0000 C   0  0  0  0  0  0  0  0  0  0  0  0
    7.5711   -6.2060    0.0000 C   0  0  0  0  0  0  0  0  0  0  0  0
    7.0190   -5.5929    0.0000 O   0  0  0  0  0  0  0  0  0  0  0  0
    5.9007  -10.7546    0.0000 H   0  0  0  0  0  0  0  0  0  0  0  0
    6.6151   -9.5171    0.0000 H   0  0  0  0  0  0  0  0  0  0  0  0
    8.0441   -7.0421    0.0000 H   0  0  0  0  0  0  0  0  0  0  0  0
    8.7586   -8.2796    0.0000 H   0  0  0  0  0  0  0  0  0  0  0  0
  1  2  1  0  0  0  0
  2  3  1  0  0  0  0
  3  4  1  0  0  0  0
  4  5  1  0  0  0  0
  5  6  1  0  0  0  0
  6  7  1  0  0  0  0
  7  8  1  0  0  0  0
  8  9  1  0  0  0  0
  9 10  1  0  0  0  0
 10 11  1  0  0  0  0
 11 12  1  0  0  0  0
 12 13  1  0  0  0  0
 13 14  1  0  0  0  0
  9 14  1  0  0  0  0
 14 15  1  0  0  0  0
  6 15  1  0  0  0  0
 15 16  1  0  0  0  0
 16 17  1  0  0  0  0
 17 18  1  0  0  0  0
  5 18  1  0  0  0  0
  1 18  1  0  0  0  0
 19 20  1  0  0  0  0
 20 21  1  0  0  0  0
 21  1  1  0  0  0  0
 19  2  1  0  0  0  0
 22 23  2  0  0  0  0
 22 24  1  0  0  0  0
  2 22  1  1  0  0  0
 11 25  2  0  0  0  0
 14 26  1  1  0  0  0
 10 27  1  0  0  0  0
 10 28  1  0  0  0  0
  6 29  1  1  0  0  0
  5 30  1  6  0  0  0
 31 32  2  0  0  0  0
 32 33  1  0  0  0  0
 33 34  1  0  0  0  0
 21 32  1  6  0  0  0
  9 35  1  6  0  0  0
 15 36  1  6  0  0  0
 18 37  1  1  0  0  0
  1 38  1  6  0  0  0
M  END
>  <cdx:groupId>
4958

>  <cdx:fragmentId>
4843

$$$$
