301714.cdx
  Mrv1902 05222410262D          

 31 34  0  0  0  0            999 V2000
    7.6924   -4.4869    0.0000 C   0  0  0  0  0  0  0  0  0  0  0  0
    8.1049   -5.2014    0.0000 C   0  0  0  0  0  0  0  0  0  0  0  0
    8.9299   -5.2003    0.0000 C   0  0  0  0  0  0  0  0  0  0  0  0
    9.3422   -5.9149    0.0000 C   0  0  0  0  0  0  0  0  0  0  0  0
    8.9299   -6.6295    0.0000 C   0  0  0  0  0  0  0  0  0  0  0  0
    8.1049   -6.6303    0.0000 C   0  0  0  0  0  0  0  0  0  0  0  0
    7.6924   -7.3448    0.0000 C   0  0  0  0  0  0  0  0  0  0  0  0
    8.1049   -8.0593    0.0000 C   0  0  0  0  0  0  0  0  0  0  0  0
    7.6924   -8.7738    0.0000 C   0  0  0  0  0  0  0  0  0  0  0  0
    6.8674   -8.7738    0.0000 C   0  0  0  0  0  0  0  0  0  0  0  0
    6.4549   -8.0593    0.0000 C   0  0  0  0  0  0  0  0  0  0  0  0
    5.6299   -8.0604    0.0000 C   0  0  0  0  0  0  0  0  0  0  0  0
    5.2176   -7.3458    0.0000 C   0  0  0  0  0  0  0  0  0  0  0  0
    5.6299   -6.6312    0.0000 C   0  0  0  0  0  0  0  0  0  0  0  0
    6.4549   -6.6303    0.0000 C   0  0  0  0  0  0  0  0  0  0  0  0
    6.8674   -5.9159    0.0000 C   0  0  0  0  0  0  0  0  0  0  0  0
    6.4549   -5.2014    0.0000 C   0  0  0  0  0  0  0  0  0  0  0  0
    5.6479   -5.0299    0.0000 C   0  0  0  0  0  0  0  0  0  0  0  0
    5.5617   -4.2094    0.0000 C   0  0  0  0  0  0  0  0  0  0  0  0
    6.3154   -3.8738    0.0000 C   0  0  0  0  0  0  0  0  0  0  0  0
    6.6829   -3.1351    0.0000 C   0  0  0  0  0  0  0  0  0  0  0  0
    7.5045   -3.0596    0.0000 C   0  0  0  0  0  0  0  0  0  0  0  0
    7.9981   -3.7207    0.0000 C   0  0  0  0  0  0  0  0  0  0  0  0
    6.8674   -4.4869    0.0000 C   0  0  0  0  0  0  0  0  0  0  0  0
    6.8674   -7.3448    0.0000 N   0  0  0  0  0  0  0  0  0  0  0  0
    7.6924   -5.9159    0.0000 C   0  0  0  0  0  0  0  0  0  0  0  0
    9.3424   -4.4859    0.0000 O   0  0  0  0  0  0  0  0  0  0  0  0
    8.1049   -9.4882    0.0000 O   0  0  0  0  0  0  0  0  0  0  0  0
    7.2554   -5.0018    0.0000 O   0  0  0  0  0  0  0  0  0  0  0  0
    8.8160   -3.6130    0.0000 O   0  0  0  0  0  0  0  0  0  0  0  0
    9.1318   -2.8508    0.0000 C   0  0  0  0  0  0  0  0  0  0  0  0
  1  2  1  0  0  0  0
  2  3  2  0  0  0  0
  3  4  1  0  0  0  0
  4  5  2  0  0  0  0
  5  6  1  0  0  0  0
  6  7  1  0  0  0  0
  7  8  1  0  0  0  0
  8  9  1  0  0  0  0
  9 10  1  0  0  0  0
 10 11  1  0  0  0  0
 11 12  1  0  0  0  0
 12 13  1  0  0  0  0
 13 14  1  0  0  0  0
 14 15  1  0  0  0  0
 15 16  1  0  0  0  0
 16 17  1  0  0  0  0
 17 18  1  0  0  0  0
 18 19  1  0  0  0  0
 19 20  1  0  0  0  0
 20 21  1  0  0  0  0
 21 22  2  0  0  0  0
 22 23  1  0  0  0  0
  1 23  2  0  0  0  0
  1 24  1  0  0  0  0
 24 20  2  0  0  0  0
 15 25  1  0  0  0  0
 25 11  1  0  0  0  0
  6 26  2  0  0  0  0
 26  2  1  0  0  0  0
  3 27  1  0  0  0  0
  9 28  1  0  0  0  0
 17 29  1  0  0  0  0
 30 31  1  0  0  0  0
 23 30  1  0  0  0  0
M  END
>  <cdx:groupId>
1066

>  <cdx:fragmentId>
973

$$$$
