30178.cdx
  Mrv1902 05222410232D          

 14 13  0  0  0  0            999 V2000
    2.2353  -10.1120    0.0000 C   0  0  0  0  0  0  0  0  0  0  0  0
    2.9498   -9.6995    0.0000 C   0  0  0  0  0  0  0  0  0  0  0  0
    3.6643  -10.1120    0.0000 C   0  0  0  0  0  0  0  0  0  0  0  0
    4.3788   -9.6995    0.0000 C   0  0  0  0  0  0  0  0  0  0  0  0
    5.0932  -10.1120    0.0000 C   0  0  0  0  0  0  0  0  0  0  0  0
    5.8077   -9.6995    0.0000 C   0  0  0  0  0  0  0  0  0  0  0  0
    6.5222  -10.1120    0.0000 C   0  0  0  0  0  0  0  0  0  0  0  0
    7.2366   -9.6995    0.0000 C   0  0  0  0  0  0  0  0  0  0  0  0
    7.9511  -10.1120    0.0000 C   0  0  0  0  0  0  0  0  0  0  0  0
    8.6656   -9.6995    0.0000 C   0  0  0  0  0  0  0  0  0  0  0  0
    9.3800  -10.1120    0.0000 C   0  0  0  0  0  0  0  0  0  0  0  0
   10.0945   -9.6995    0.0000 C   0  0  0  0  0  0  0  0  0  0  0  0
   10.8090  -10.1120    0.0000 C   0  0  0  0  0  0  0  0  0  0  0  0
   11.5235   -9.6995    0.0000 O   0  0  0  0  0  0  0  0  0  0  0  0
  1  2  1  0  0  0  0
  2  3  1  0  0  0  0
  3  4  1  0  0  0  0
  4  5  1  0  0  0  0
  5  6  1  0  0  0  0
  6  7  1  0  0  0  0
  7  8  1  0  0  0  0
  8  9  1  0  0  0  0
  9 10  1  0  0  0  0
 10 11  1  0  0  0  0
 11 12  2  0  0  0  0
 12 13  1  0  0  0  0
 13 14  1  0  0  0  0
M  END
>  <cdx:fragmentId>
3

$$$$
