301724.cdx
  Mrv1902 05222410192D          

 22 23  0  0  0  0            999 V2000
    7.1951   -5.3881    0.0000 C   0  0  0  0  0  0  0  0  0  0  0  0
    7.9122   -4.9800    0.0000 C   0  0  0  0  0  0  0  0  0  0  0  0
    7.9173   -4.1551    0.0000 C   0  0  0  0  0  0  0  0  0  0  0  0
    7.2055   -3.7381    0.0000 C   0  0  0  0  0  0  0  0  0  0  0  0
    6.4884   -4.1461    0.0000 C   0  0  0  0  0  0  0  0  0  0  0  0
    6.4833   -4.9711    0.0000 C   0  0  0  0  0  0  0  0  0  0  0  0
   10.0633   -3.7560    0.0000 C   0  0  0  0  0  0  0  0  0  0  0  0
    7.2106   -2.9131    0.0000 O   0  0  0  0  0  0  0  0  0  0  0  0
    5.7611   -6.2041    0.0000 O   0  0  0  0  0  0  0  0  0  0  0  0
    9.3462   -4.1640    0.0000 C   0  0  0  0  0  0  0  0  0  0  0  0
    8.6344   -3.7470    0.0000 C   0  0  0  0  0  0  0  0  0  0  0  0
    7.1797   -7.8630    0.0000 C   0  0  0  0  0  0  0  0  0  0  0  0
    6.4678   -7.4461    0.0000 C   0  0  0  0  0  0  0  0  0  0  0  0
    6.4729   -6.6211    0.0000 C   0  0  0  0  0  0  0  0  0  0  0  0
    7.1900   -6.2130    0.0000 C   0  0  0  0  0  0  0  0  0  0  0  0
    7.9019   -6.6300    0.0000 C   0  0  0  0  0  0  0  0  0  0  0  0
    7.8967   -7.4550    0.0000 C   0  0  0  0  0  0  0  0  0  0  0  0
    7.8864   -9.1050    0.0000 O   0  0  0  0  0  0  0  0  0  0  0  0
    9.3101   -9.9389    0.0000 O   0  0  0  0  0  0  0  0  0  0  0  0
    8.6086   -7.8719    0.0000 C   0  0  0  0  0  0  0  0  0  0  0  0
    8.6034   -8.6969    0.0000 C   0  0  0  0  0  0  0  0  0  0  0  0
    9.3153   -9.1139    0.0000 C   0  0  0  0  0  0  0  0  0  0  0  0
 20 17  1  0  0  0  0
 14  9  1  0  0  0  0
 15  1  1  0  0  0  0
 10  7  2  0  0  0  0
 11 10  1  0  0  0  0
 17 12  2  0  0  0  0
 13 12  1  0  0  0  0
 14 13  2  0  0  0  0
 15 14  1  0  0  0  0
 16 15  2  0  0  0  0
 17 16  1  0  0  0  0
 21 18  1  0  0  0  0
 22 19  1  0  0  0  0
 21 20  1  0  0  0  0
 22 21  1  0  0  0  0
  1  2  1  0  0  0  0
  2  3  2  0  0  0  0
  3  4  1  0  0  0  0
  4  5  2  0  0  0  0
  5  6  1  0  0  0  0
  1  6  2  0  0  0  0
  3 11  1  0  0  0  0
  4  8  1  0  0  0  0
M  END
>  <cdx:fragmentId>
1584

$$$$
