301742.cdx
  Mrv1902 05222410212D          

 43 48  0  0  0  0            999 V2000
   11.7118   -9.4066    0.0000 O   0  0  0  0  0  0  0  0  0  0  0  0
   11.7118   -7.7566    0.0000 O   0  0  0  0  0  0  0  0  0  0  0  0
    9.5684   -8.1691    0.0000 C   0  0  0  0  0  0  0  0  0  0  0  0
   10.2829   -7.7566    0.0000 C   0  0  0  0  0  0  0  0  0  0  0  0
   10.9974   -8.1691    0.0000 C   0  0  0  0  0  0  0  0  0  0  0  0
   10.9974   -8.9941    0.0000 C   0  0  0  0  0  0  0  0  0  0  0  0
   10.2829   -9.4066    0.0000 C   0  0  0  0  0  0  0  0  0  0  0  0
    9.5684   -8.9941    0.0000 C   0  0  0  0  0  0  0  0  0  0  0  0
    3.1382   -7.2616    0.0000 O   0  0  0  0  0  0  0  0  0  0  0  0
    3.1382   -8.9116    0.0000 O   0  0  0  0  0  0  0  0  0  0  0  0
    5.2816   -8.4991    0.0000 C   0  0  0  0  0  0  0  0  0  0  0  0
    4.5671   -8.9116    0.0000 C   0  0  0  0  0  0  0  0  0  0  0  0
    3.8526   -8.4991    0.0000 C   0  0  0  0  0  0  0  0  0  0  0  0
    3.8526   -7.6741    0.0000 C   0  0  0  0  0  0  0  0  0  0  0  0
    4.5671   -7.2616    0.0000 C   0  0  0  0  0  0  0  0  0  0  0  0
    5.2816   -7.6741    0.0000 C   0  0  0  0  0  0  0  0  0  0  0  0
    8.8539   -6.4366    0.0000 O   0  0  0  0  0  0  0  0  0  0  0  0
    7.4250   -3.9616    0.0000 O   0  0  0  0  0  0  0  0  0  0  0  0
    8.1395   -7.6741    0.0000 O   0  0  0  0  0  0  0  0  0  0  0  0
    5.9961   -6.4366    0.0000 O   0  0  0  0  0  0  0  0  0  0  0  0
    6.7105   -6.0241    0.0000 C   0  0  0  0  0  0  0  0  0  0  0  0
    6.7105   -5.1991    0.0000 C   0  0  0  0  0  0  0  0  0  0  0  0
    7.4250   -4.7866    0.0000 C   0  0  0  0  0  0  0  0  0  0  0  0
    8.1395   -5.1991    0.0000 C   0  0  0  0  0  0  0  0  0  0  0  0
    8.1395   -6.0241    0.0000 C   0  0  0  0  0  0  0  0  0  0  0  0
    7.4250   -6.4366    0.0000 C   0  0  0  0  0  0  0  0  0  0  0  0
    7.4250   -7.2616    0.0000 C   0  0  0  0  0  0  0  0  0  0  0  0
    6.7105   -7.6741    0.0000 C   0  0  1  0  0  0  0  0  0  0  0  0
    5.9961   -7.2616    0.0000 C   0  0  1  0  0  0  0  0  0  0  0  0
    9.5684  -10.6441    0.0000 O   0  0  0  0  0  0  0  0  0  0  0  0
    6.7105  -11.4691    0.0000 O   0  0  0  0  0  0  0  0  0  0  0  0
    5.2816   -8.9941    0.0000 O   0  0  0  0  0  0  0  0  0  0  0  0
    8.1395  -11.4691    0.0000 O   0  0  0  0  0  0  0  0  0  0  0  0
    8.1395   -8.9941    0.0000 O   0  0  0  0  0  0  0  0  0  0  0  0
    7.4250   -9.4066    0.0000 C   0  0  0  0  0  0  0  0  0  0  0  0
    6.7105   -8.9941    0.0000 C   0  0  0  0  0  0  0  0  0  0  0  0
    5.9961   -9.4066    0.0000 C   0  0  0  0  0  0  0  0  0  0  0  0
    5.9961  -10.2316    0.0000 C   0  0  0  0  0  0  0  0  0  0  0  0
    6.7105  -10.6441    0.0000 C   0  0  0  0  0  0  0  0  0  0  0  0
    7.4250  -10.2316    0.0000 C   0  0  0  0  0  0  0  0  0  0  0  0
    8.1395  -10.6441    0.0000 C   0  0  0  0  0  0  0  0  0  0  0  0
    8.8539  -10.2316    0.0000 C   0  0  1  0  0  0  0  0  0  0  0  0
    8.8539   -9.4066    0.0000 C   0  0  1  0  0  0  0  0  0  0  0  0
 43  8  1  6  0  0  0
  6  1  1  0  0  0  0
  5  2  1  0  0  0  0
  8  3  2  0  0  0  0
  4  3  1  0  0  0  0
  5  4  2  0  0  0  0
  6  5  1  0  0  0  0
  7  6  2  0  0  0  0
  8  7  1  0  0  0  0
 28 36  1  6  0  0  0
 29 16  1  1  0  0  0
 14  9  1  0  0  0  0
 13 10  1  0  0  0  0
 16 11  2  0  0  0  0
 12 11  1  0  0  0  0
 13 12  2  0  0  0  0
 14 13  1  0  0  0  0
 15 14  2  0  0  0  0
 16 15  1  0  0  0  0
 25 17  1  0  0  0  0
 23 18  1  0  0  0  0
 27 19  2  0  0  0  0
 29 20  1  0  0  0  0
 21 20  1  0  0  0  0
 26 21  2  0  0  0  0
 22 21  1  0  0  0  0
 23 22  2  0  0  0  0
 24 23  1  0  0  0  0
 25 24  2  0  0  0  0
 26 25  1  0  0  0  0
 27 26  1  0  0  0  0
 28 27  1  0  0  0  0
 29 28  1  0  0  0  0
 42 30  1  1  0  0  0
 39 31  1  0  0  0  0
 37 32  1  0  0  0  0
 41 33  2  0  0  0  0
 43 34  1  0  0  0  0
 35 34  1  0  0  0  0
 40 35  2  0  0  0  0
 36 35  1  0  0  0  0
 37 36  2  0  0  0  0
 38 37  1  0  0  0  0
 39 38  2  0  0  0  0
 40 39  1  0  0  0  0
 41 40  1  0  0  0  0
 42 41  1  0  0  0  0
 43 42  1  0  0  0  0
M  END
>  <cdx:fragmentId>
3655

$$$$
