301747.cdx
  Mrv1902 05222410222D          

 56 62  0  0  0  0            999 V2000
    8.4967   -5.6999    0.0000 C   0  0  1  0  0  0  0  0  0  0  0  0
    9.2112   -5.2874    0.0000 C   0  0  1  0  0  0  0  0  0  0  0  0
    9.9256   -5.6999    0.0000 C   0  0  0  0  0  0  0  0  0  0  0  0
    9.9256   -6.5249    0.0000 C   0  0  0  0  0  0  0  0  0  0  0  0
    9.2112   -6.9374    0.0000 C   0  0  2  0  0  0  0  0  0  0  0  0
    9.2112   -7.7624    0.0000 C   0  0  0  0  0  0  0  0  0  0  0  0
    8.4967   -8.1749    0.0000 C   0  0  0  0  0  0  0  0  0  0  0  0
    7.7822   -7.7624    0.0000 C   0  0  1  0  0  0  0  0  0  0  0  0
    7.0678   -8.1749    0.0000 C   0  0  2  0  0  0  0  0  0  0  0  0
    7.0678   -8.9999    0.0000 C   0  0  0  0  0  0  0  0  0  0  0  0
    6.3533   -9.4124    0.0000 C   0  0  0  0  0  0  0  0  0  0  0  0
    5.6388   -8.9999    0.0000 C   0  0  1  0  0  0  0  0  0  0  0  0
    4.9244   -9.4124    0.0000 C   0  0  2  0  0  0  0  0  0  0  0  0
    4.2099   -8.9999    0.0000 C   0  0  2  0  0  0  0  0  0  0  0  0
    4.2099   -8.1749    0.0000 C   0  0  0  0  0  0  0  0  0  0  0  0
    4.9244   -7.7624    0.0000 C   0  0  0  0  0  0  0  0  0  0  0  0
    5.6388   -8.1749    0.0000 C   0  0  1  0  0  0  0  0  0  0  0  0
    6.3533   -7.7624    0.0000 C   0  0  0  0  0  0  0  0  0  0  0  0
    6.3533   -6.9374    0.0000 C   0  0  0  0  0  0  0  0  0  0  0  0
    7.0678   -6.5249    0.0000 C   0  0  0  0  0  0  0  0  0  0  0  0
    7.7822   -6.9374    0.0000 C   0  0  0  0  0  0  0  0  0  0  0  0
    8.4967   -6.5249    0.0000 C   0  0  2  0  0  0  0  0  0  0  0  0
    9.9256   -7.3499    0.0000 C   0  0  0  0  0  0  0  0  0  0  0  0
    9.9256   -8.1749    0.0000 O   0  0  0  0  0  0  0  0  0  0  0  0
   10.6401   -6.9374    0.0000 O   0  0  0  0  0  0  0  0  0  0  0  0
    3.4954   -9.4124    0.0000 O   0  0  0  0  0  0  0  0  0  0  0  0
    2.7809   -8.1749    0.0000 O   0  0  0  0  0  0  0  0  0  0  0  0
    2.7809   -8.9999    0.0000 C   0  0  2  0  0  0  0  0  0  0  0  0
    2.0665   -9.4124    0.0000 C   0  0  1  0  0  0  0  0  0  0  0  0
    1.3520   -8.9999    0.0000 C   0  0  2  0  0  0  0  0  0  0  0  0
    1.3520   -8.1749    0.0000 C   0  0  2  0  0  0  0  0  0  0  0  0
    2.0665   -7.7624    0.0000 C   0  0  0  0  0  0  0  0  0  0  0  0
    0.6375   -7.7624    0.0000 O   0  0  0  0  0  0  0  0  0  0  0  0
    0.6375   -9.4124    0.0000 O   0  0  0  0  0  0  0  0  0  0  0  0
    2.0665  -10.2374    0.0000 O   0  0  0  0  0  0  0  0  0  0  0  0
    5.6388   -7.3499    0.0000 C   0  0  0  0  0  0  0  0  0  0  0  0
    4.5119  -10.1269    0.0000 C   0  0  0  0  0  0  0  0  0  0  0  0
    9.2112   -4.4624    0.0000 C   0  0  0  0  0  0  0  0  0  0  0  0
    7.7822   -5.2874    0.0000 C   0  0  0  0  0  0  0  0  0  0  0  0
    5.3369  -10.1269    0.0000 C   0  0  0  0  0  0  0  0  0  0  0  0
    4.9244  -10.8413    0.0000 O   0  0  0  0  0  0  0  0  0  0  0  0
    5.6388   -9.8249    0.0000 H   0  0  0  0  0  0  0  0  0  0  0  0
    8.4967   -7.3499    0.0000 H   0  0  0  0  0  0  0  0  0  0  0  0
   12.0691   -6.9374    0.0000 O   0  0  0  0  0  0  0  0  0  0  0  0
   11.3546   -7.3499    0.0000 C   0  0  2  0  0  0  0  0  0  0  0  0
   11.3546   -8.1749    0.0000 C   0  0  1  0  0  0  0  0  0  0  0  0
   12.0691   -8.5874    0.0000 C   0  0  2  0  0  0  0  0  0  0  0  0
   12.7835   -8.1749    0.0000 C   0  0  1  0  0  0  0  0  0  0  0  0
   12.7835   -7.3499    0.0000 C   0  0  1  0  0  0  0  0  0  0  0  0
   13.4980   -6.9374    0.0000 C   0  0  0  0  0  0  0  0  0  0  0  0
   14.2125   -7.3499    0.0000 O   0  0  0  0  0  0  0  0  0  0  0  0
   13.4980   -8.5874    0.0000 O   0  0  0  0  0  0  0  0  0  0  0  0
   12.0691   -9.4124    0.0000 O   0  0  0  0  0  0  0  0  0  0  0  0
   10.6401   -8.5874    0.0000 O   0  0  0  0  0  0  0  0  0  0  0  0
    7.7822   -8.5874    0.0000 C   0  0  0  0  0  0  0  0  0  0  0  0
    7.6511   -8.7583    0.0000 C   0  0  0  0  0  0  0  0  0  0  0  0
  1  2  1  0  0  0  0
  2  3  1  0  0  0  0
  3  4  1  0  0  0  0
  4  5  1  0  0  0  0
  5  6  1  0  0  0  0
  6  7  1  0  0  0  0
  7  8  1  0  0  0  0
  8  9  1  0  0  0  0
  9 10  1  0  0  0  0
 10 11  1  0  0  0  0
 11 12  1  0  0  0  0
 12 13  1  0  0  0  0
 13 14  1  0  0  0  0
 14 15  1  0  0  0  0
 15 16  1  0  0  0  0
 16 17  1  0  0  0  0
 12 17  1  0  0  0  0
 17 18  1  0  0  0  0
  9 18  1  0  0  0  0
 18 19  1  0  0  0  0
 19 20  1  0  0  0  0
 20 21  2  0  0  0  0
  8 21  1  0  0  0  0
 21 22  1  0  0  0  0
  5 22  1  0  0  0  0
  1 22  1  0  0  0  0
 23 24  2  0  0  0  0
 23 25  1  0  0  0  0
  5 23  1  1  0  0  0
 27 28  1  0  0  0  0
 28 29  1  0  0  0  0
 29 30  1  0  0  0  0
 30 31  1  0  0  0  0
 31 32  1  0  0  0  0
 27 32  1  0  0  0  0
 31 33  1  1  0  0  0
 30 34  1  1  0  0  0
 29 35  1  6  0  0  0
 28 26  1  1  0  0  0
 14 26  1  1  0  0  0
 17 36  1  6  0  0  0
 13 37  1  1  0  0  0
  2 38  1  6  0  0  0
  1 39  1  1  0  0  0
 40 41  1  0  0  0  0
 13 40  1  6  0  0  0
 12 42  1  6  0  0  0
 22 43  1  1  0  0  0
 44 45  1  0  0  0  0
 45 46  1  0  0  0  0
 46 47  1  0  0  0  0
 47 48  1  0  0  0  0
 48 49  1  0  0  0  0
 44 49  1  0  0  0  0
 50 51  1  0  0  0  0
 49 50  1  6  0  0  0
 48 52  1  1  0  0  0
 47 53  1  6  0  0  0
 46 54  1  1  0  0  0
 45 25  1  6  0  0  0
  8 55  1  6  0  0  0
  9 56  1  1  0  0  0
M  END
>  <cdx:groupId>
4288

>  <cdx:fragmentId>
4117

$$$$
