301706.cdx
  Mrv1902 05222410282D          

 21 24  0  0  0  0            999 V2000
    7.3980   -7.1158    0.0000 C   0  0  2  0  0  0  0  0  0  0  0  0
    8.1375   -7.4816    0.0000 C   0  0  0  0  0  0  0  0  0  0  0  0
    8.7139   -6.8913    0.0000 C   0  0  0  0  0  0  0  0  0  0  0  0
    8.3307   -6.1607    0.0000 C   0  0  2  0  0  0  0  0  0  0  0  0
    8.6172   -5.3871    0.0000 C   0  0  0  0  0  0  0  0  0  0  0  0
    8.0904   -4.7521    0.0000 C   0  0  2  0  0  0  0  0  0  0  0  0
    7.2772   -4.8908    0.0000 C   0  0  0  0  0  0  0  0  0  0  0  0
    6.9907   -5.6645    0.0000 C   0  0  0  0  0  0  0  0  0  0  0  0
    7.5174   -6.2994    0.0000 C   0  0  2  0  0  0  0  0  0  0  0  0
    6.7779   -5.9336    0.0000 C   0  0  0  0  0  0  0  0  0  0  0  0
    5.9674   -6.0897    0.0000 C   0  0  0  0  0  0  0  0  0  0  0  0
    5.6101   -6.8333    0.0000 C   0  0  0  0  0  0  0  0  0  0  0  0
    5.9933   -7.5639    0.0000 N   0  0  0  0  0  0  0  0  0  0  0  0
    6.2720   -8.3186    0.0000 C   0  0  0  0  0  0  0  0  0  0  0  0
    7.0602   -8.4789    0.0000 C   0  0  0  0  0  0  0  0  0  0  0  0
    7.6099   -7.8917    0.0000 C   0  0  0  0  0  0  0  0  0  0  0  0
    6.8082   -7.6926    0.0000 C   0  0  0  0  0  0  0  0  0  0  0  0
    8.2762   -8.2948    0.0000 O   0  0  0  0  0  0  0  0  0  0  0  0
    6.2785   -5.2480    0.0000 O   0  0  0  0  0  0  0  0  0  0  0  0
    8.3769   -3.9785    0.0000 C   0  0  0  0  0  0  0  0  0  0  0  0
    9.1557   -6.1607    0.0000 H   0  0  0  0  0  0  0  0  0  0  0  0
  1  2  1  0  0  0  0
  2  3  1  0  0  0  0
  3  4  1  0  0  0  0
  4  5  1  0  0  0  0
  5  6  1  0  0  0  0
  6  7  1  0  0  0  0
  7  8  1  0  0  0  0
  9  8  1  1  0  0  0
  9 10  1  6  0  0  0
 10 11  1  0  0  0  0
 11 12  1  0  0  0  0
 12 13  1  0  0  0  0
 13 14  1  0  0  0  0
 14 15  1  0  0  0  0
 15 16  1  0  0  0  0
  1 16  1  1  0  0  0
  1 17  1  0  0  0  0
 17 13  1  0  0  0  0
  4  9  1  0  0  0  0
  1  9  1  0  0  0  0
  2 18  2  0  0  0  0
  8 19  2  0  0  0  0
  6 20  1  6  0  0  0
  4 21  1  6  0  0  0
M  END
>  <cdx:groupId>
535

>  <cdx:fragmentId>
472

$$$$
