301722.cdx
  Mrv1902 05222410182D          

 22 23  0  0  0  0            999 V2000
    5.7611   -6.2176    0.0000 O   0  0  0  0  0  0  0  0  0  0  0  0
    8.6186   -5.3914    0.0000 O   0  0  0  0  0  0  0  0  0  0  0  0
    5.0450   -2.5054    0.0000 C   0  0  0  0  0  0  0  0  0  0  0  0
    5.7597   -2.9176    0.0000 C   0  0  0  0  0  0  0  0  0  0  0  0
    5.7600   -3.7426    0.0000 C   0  0  0  0  0  0  0  0  0  0  0  0
    6.4750   -4.9798    0.0000 C   0  0  0  0  0  0  0  0  0  0  0  0
    6.4747   -4.1548    0.0000 C   0  0  0  0  0  0  0  0  0  0  0  0
    7.1890   -3.7420    0.0000 C   0  0  0  0  0  0  0  0  0  0  0  0
    7.9036   -4.1542    0.0000 C   0  0  0  0  0  0  0  0  0  0  0  0
    7.9040   -4.9792    0.0000 C   0  0  0  0  0  0  0  0  0  0  0  0
    7.1897   -5.3920    0.0000 C   0  0  0  0  0  0  0  0  0  0  0  0
    7.1908   -7.8670    0.0000 C   0  0  0  0  0  0  0  0  0  0  0  0
    6.4761   -7.4548    0.0000 C   0  0  0  0  0  0  0  0  0  0  0  0
    6.4758   -6.6298    0.0000 C   0  0  0  0  0  0  0  0  0  0  0  0
    7.1901   -6.2170    0.0000 C   0  0  0  0  0  0  0  0  0  0  0  0
    7.9047   -6.6292    0.0000 C   0  0  0  0  0  0  0  0  0  0  0  0
    7.9051   -7.4542    0.0000 C   0  0  0  0  0  0  0  0  0  0  0  0
    7.9058   -9.1042    0.0000 O   0  0  0  0  0  0  0  0  0  0  0  0
    9.3351   -9.9285    0.0000 O   0  0  0  0  0  0  0  0  0  0  0  0
    8.6197   -7.8664    0.0000 C   0  0  0  0  0  0  0  0  0  0  0  0
    8.6201   -8.6914    0.0000 C   0  0  2  0  0  0  0  0  0  0  0  0
    9.3347   -9.1035    0.0000 C   0  0  0  0  0  0  0  0  0  0  0  0
 20 17  1  0  0  0  0
 14  1  1  0  0  0  0
 15 11  1  0  0  0  0
 10  2  1  0  0  0  0
  7  5  1  0  0  0  0
  4  3  2  0  0  0  0
  5  4  1  0  0  0  0
 11  6  2  0  0  0  0
  7  6  1  0  0  0  0
  8  7  2  0  0  0  0
  9  8  1  0  0  0  0
 10  9  2  0  0  0  0
 11 10  1  0  0  0  0
 17 12  2  0  0  0  0
 13 12  1  0  0  0  0
 14 13  2  0  0  0  0
 15 14  1  0  0  0  0
 16 15  2  0  0  0  0
 17 16  1  0  0  0  0
 21 18  1  6  0  0  0
 22 19  1  0  0  0  0
 21 20  1  0  0  0  0
 22 21  1  0  0  0  0
M  END
>  <cdx:fragmentId>
1512

$$$$
