301731.cdx
  Mrv1902 05222410202D          

 31 33  0  0  0  0            999 V2000
    6.1257   -7.2024    0.0000 C   0  0  0  0  0  0  0  0  0  0  0  0
    5.7902   -6.4487    0.0000 O   0  0  0  0  0  0  0  0  0  0  0  0
    8.1657   -7.8315    0.0000 O   0  0  0  0  0  0  0  0  0  0  0  0
    7.3587   -8.0031    0.0000 C   0  0  0  0  0  0  0  0  0  0  0  0
    6.9462   -7.2886    0.0000 C   0  0  1  0  0  0  0  0  0  0  0  0
    7.4982   -6.6755    0.0000 C   0  0  1  0  0  0  0  0  0  0  0  0
    8.2519   -7.0111    0.0000 C   0  0  1  0  0  0  0  0  0  0  0  0
    8.9664   -6.5986    0.0000 C   0  0  0  0  0  0  0  0  0  0  0  0
    8.9664   -5.7736    0.0000 C   0  0  0  0  0  0  0  0  0  0  0  0
    9.6808   -5.3611    0.0000 C   0  0  0  0  0  0  0  0  0  0  0  0
   10.3953   -5.7736    0.0000 C   0  0  0  0  0  0  0  0  0  0  0  0
   10.3953   -6.5986    0.0000 C   0  0  0  0  0  0  0  0  0  0  0  0
    9.6808   -7.0111    0.0000 C   0  0  0  0  0  0  0  0  0  0  0  0
   11.1098   -7.0111    0.0000 O   0  0  0  0  0  0  0  0  0  0  0  0
   11.8243   -6.5986    0.0000 C   0  0  0  0  0  0  0  0  0  0  0  0
   11.1098   -5.3611    0.0000 O   0  0  0  0  0  0  0  0  0  0  0  0
   11.8243   -5.7736    0.0000 C   0  0  0  0  0  0  0  0  0  0  0  0
    9.6808   -4.5361    0.0000 O   0  0  0  0  0  0  0  0  0  0  0  0
   10.3953   -4.1236    0.0000 C   0  0  0  0  0  0  0  0  0  0  0  0
    7.3267   -5.8685    0.0000 C   0  0  0  0  0  0  0  0  0  0  0  0
    6.5421   -5.6136    0.0000 O   0  0  0  0  0  0  0  0  0  0  0  0
    5.6408   -7.8698    0.0000 C   0  0  0  0  0  0  0  0  0  0  0  0
    4.8203   -7.7836    0.0000 C   0  0  0  0  0  0  0  0  0  0  0  0
    4.3354   -8.4510    0.0000 C   0  0  0  0  0  0  0  0  0  0  0  0
    4.6709   -9.2047    0.0000 C   0  0  0  0  0  0  0  0  0  0  0  0
    5.4914   -9.2909    0.0000 C   0  0  0  0  0  0  0  0  0  0  0  0
    5.9764   -8.6235    0.0000 C   0  0  0  0  0  0  0  0  0  0  0  0
    4.1860   -9.8721    0.0000 O   0  0  0  0  0  0  0  0  0  0  0  0
    3.3655   -9.7859    0.0000 C   0  0  0  0  0  0  0  0  0  0  0  0
    3.5149   -8.3648    0.0000 O   0  0  0  0  0  0  0  0  0  0  0  0
    3.0300   -9.0322    0.0000 C   0  0  0  0  0  0  0  0  0  0  0  0
  1  2  2  0  0  0  0
  3  4  1  0  0  0  0
  4  5  1  0  0  0  0
  5  6  1  0  0  0  0
  6  7  1  0  0  0  0
  3  7  1  0  0  0  0
  8  9  1  0  0  0  0
  9 10  2  0  0  0  0
 10 11  1  0  0  0  0
 11 12  2  0  0  0  0
 12 13  1  0  0  0  0
  8 13  2  0  0  0  0
 14 15  1  0  0  0  0
 12 14  1  0  0  0  0
 16 17  1  0  0  0  0
 11 16  1  0  0  0  0
 18 19  1  0  0  0  0
 10 18  1  0  0  0  0
  7  8  1  1  0  0  0
 20 21  1  0  0  0  0
  6 20  1  6  0  0  0
  5  1  1  6  0  0  0
 22 23  1  0  0  0  0
 23 24  2  0  0  0  0
 24 25  1  0  0  0  0
 25 26  2  0  0  0  0
 26 27  1  0  0  0  0
 22 27  2  0  0  0  0
 28 29  1  0  0  0  0
 25 28  1  0  0  0  0
 30 31  1  0  0  0  0
 24 30  1  0  0  0  0
  1 22  1  0  0  0  0
M  END
>  <cdx:groupId>
2109

>  <cdx:fragmentId>
2031

$$$$
