301756.cdx
  Mrv1902 05222410212D          

 20 19  0  0  0  0            999 V2000
    2.7809   -8.0041    0.0000 C   0  0  0  0  0  0  0  0  0  0  0  0
    2.0665   -8.4166    0.0000 C   0  0  0  0  0  0  0  0  0  0  0  0
    2.0665   -9.2416    0.0000 C   0  0  0  0  0  0  0  0  0  0  0  0
    2.7809   -7.1791    0.0000 O   0  0  0  0  0  0  0  0  0  0  0  0
    3.4954   -8.4166    0.0000 O   0  0  0  0  0  0  0  0  0  0  0  0
    1.3520   -8.0041    0.0000 C   0  0  0  0  0  0  0  0  0  0  0  0
    4.2099   -8.0041    0.0000 C   0  0  0  0  0  0  0  0  0  0  0  0
    4.9244   -8.4166    0.0000 C   0  0  0  0  0  0  0  0  0  0  0  0
    5.6388   -8.0041    0.0000 C   0  0  0  0  0  0  0  0  0  0  0  0
    6.3533   -8.4166    0.0000 C   0  0  0  0  0  0  0  0  0  0  0  0
    7.0678   -8.0041    0.0000 C   0  0  0  0  0  0  0  0  0  0  0  0
    7.7822   -8.4166    0.0000 C   0  0  0  0  0  0  0  0  0  0  0  0
    8.4967   -8.0041    0.0000 C   0  0  0  0  0  0  0  0  0  0  0  0
    9.2112   -8.4166    0.0000 C   0  0  0  0  0  0  0  0  0  0  0  0
    9.9256   -8.0041    0.0000 C   0  0  0  0  0  0  0  0  0  0  0  0
   10.6401   -8.4166    0.0000 C   0  0  0  0  0  0  0  0  0  0  0  0
   11.3546   -8.0041    0.0000 C   0  0  0  0  0  0  0  0  0  0  0  0
   12.0691   -8.4166    0.0000 C   0  0  0  0  0  0  0  0  0  0  0  0
   12.7835   -8.0041    0.0000 C   0  0  0  0  0  0  0  0  0  0  0  0
   13.4980   -8.4166    0.0000 C   0  0  0  0  0  0  0  0  0  0  0  0
  1  2  1  0  0  0  0
  2  3  2  0  0  0  0
  1  4  2  0  0  0  0
  1  5  1  0  0  0  0
  2  6  1  0  0  0  0
  7  8  1  0  0  0  0
  8  9  1  0  0  0  0
  9 10  1  0  0  0  0
 10 11  1  0  0  0  0
 11 12  1  0  0  0  0
 12 13  1  0  0  0  0
 13 14  1  0  0  0  0
 14 15  1  0  0  0  0
 15 16  1  0  0  0  0
 16 17  1  0  0  0  0
 17 18  1  0  0  0  0
 18 19  1  0  0  0  0
 19 20  1  0  0  0  0
  5  7  1  0  0  0  0
M  END
>  <cdx:groupId>
5079

>  <cdx:fragmentId>
5035

$$$$
