30179.cdx
  Mrv1902 05222410222D          

 10  9  0  0  0  0            999 V2000
    6.1541   -5.5470    0.0000 C   0  0  0  0  0  0  0  0  0  0  0  0
    6.8686   -5.9595    0.0000 C   0  0  0  0  0  0  0  0  0  0  0  0
    7.5830   -5.5470    0.0000 C   0  0  0  0  0  0  0  0  0  0  0  0
    8.2975   -5.9595    0.0000 C   0  0  0  0  0  0  0  0  0  0  0  0
    6.8686   -6.7845    0.0000 C   0  0  0  0  0  0  0  0  0  0  0  0
    8.2975   -6.7845    0.0000 C   0  0  0  0  0  0  0  0  0  0  0  0
    8.2975   -7.6095    0.0000 C   0  0  0  0  0  0  0  0  0  0  0  0
    8.2975   -8.4345    0.0000 C   0  0  0  0  0  0  0  0  0  0  0  0
    7.5830   -8.8470    0.0000 C   0  0  0  0  0  0  0  0  0  0  0  0
    9.0120   -8.8470    0.0000 C   0  0  0  0  0  0  0  0  0  0  0  0
  1  2  1  0  0  0  0
  2  3  1  0  0  0  0
  3  4  2  0  0  0  0
  2  5  1  0  0  0  0
  4  6  1  0  0  0  0
  6  7  3  0  0  0  0
  7  8  1  0  0  0  0
  8  9  1  0  0  0  0
  8 10  1  0  0  0  0
M  END
>  <cdx:fragmentId>
3

$$$$
