301701.cdx
  Mrv1902 05222410272D          

 74 77  0  0  0  0            999 V2000
   27.0759   -6.2341    0.0000 C   0  0  0  0  0  0  0  0  0  0  0  0
   27.9009   -6.2341    0.0000 C   0  0  0  0  0  0  0  0  0  0  0  0
   28.3134   -6.9486    0.0000 C   0  0  0  0  0  0  0  0  0  0  0  0
   29.1384   -6.9486    0.0000 C   0  0  0  0  0  0  0  0  0  0  0  0
   29.5509   -7.6630    0.0000 C   0  0  0  0  0  0  0  0  0  0  0  0
   30.3759   -7.6630    0.0000 C   0  0  0  0  0  0  0  0  0  0  0  0
   30.7884   -8.3775    0.0000 C   0  0  0  0  0  0  0  0  0  0  0  0
   31.6134   -8.3775    0.0000 C   0  0  0  0  0  0  0  0  0  0  0  0
   32.0259   -9.0920    0.0000 C   0  0  0  0  0  0  0  0  0  0  0  0
   32.8509   -9.0920    0.0000 C   0  0  0  0  0  0  0  0  0  0  0  0
   33.2634   -9.8064    0.0000 C   0  0  0  0  0  0  0  0  0  0  0  0
   34.0884   -9.8064    0.0000 C   0  0  0  0  0  0  0  0  0  0  0  0
   34.5009  -10.5209    0.0000 C   0  0  0  0  0  0  0  0  0  0  0  0
   35.3259  -10.5209    0.0000 C   0  0  0  0  0  0  0  0  0  0  0  0
   26.6634   -6.9486    0.0000 O   0  0  0  0  0  0  0  0  0  0  0  0
   26.6634   -5.5196    0.0000 O   0  0  0  0  0  0  0  0  0  0  0  0
   24.0488   -6.8472    0.0000 O   0  0  0  0  0  0  0  0  0  0  0  0
   23.2951   -6.5116    0.0000 C   0  0  0  0  0  0  0  0  0  0  0  0
   23.3814   -5.6911    0.0000 C   0  0  0  0  0  0  0  0  0  0  0  0
   24.1884   -5.5196    0.0000 C   0  0  0  0  0  0  0  0  0  0  0  0
   24.6009   -4.8051    0.0000 C   0  0  0  0  0  0  0  0  0  0  0  0
   25.4259   -4.8051    0.0000 C   0  0  0  0  0  0  0  0  0  0  0  0
   25.8384   -5.5196    0.0000 C   0  0  0  0  0  0  0  0  0  0  0  0
   25.4259   -6.2341    0.0000 C   0  0  0  0  0  0  0  0  0  0  0  0
   24.6009   -6.2341    0.0000 C   0  0  0  0  0  0  0  0  0  0  0  0
   22.5807   -7.7491    0.0000 C   0  0  0  0  0  0  0  0  0  0  0  0
   22.5807   -6.9241    0.0000 C   0  0  0  0  0  0  0  0  0  0  0  0
   21.8662   -6.5116    0.0000 C   0  0  0  0  0  0  0  0  0  0  0  0
   21.1517   -6.9241    0.0000 C   0  0  0  0  0  0  0  0  0  0  0  0
   20.4373   -6.5116    0.0000 C   0  0  0  0  0  0  0  0  0  0  0  0
   19.7228   -6.9241    0.0000 C   0  0  0  0  0  0  0  0  0  0  0  0
   19.0083   -6.5116    0.0000 C   0  0  0  0  0  0  0  0  0  0  0  0
   18.2939   -6.9241    0.0000 C   0  0  0  0  0  0  0  0  0  0  0  0
   17.5794   -6.5116    0.0000 C   0  0  0  0  0  0  0  0  0  0  0  0
   16.8649   -6.9241    0.0000 C   0  0  0  0  0  0  0  0  0  0  0  0
   16.1504   -6.5116    0.0000 C   0  0  0  0  0  0  0  0  0  0  0  0
   15.4360   -6.9241    0.0000 C   0  0  0  0  0  0  0  0  0  0  0  0
   14.7215   -6.5116    0.0000 C   0  0  0  0  0  0  0  0  0  0  0  0
   14.0070   -6.9241    0.0000 C   0  0  0  0  0  0  0  0  0  0  0  0
   13.2926   -6.5116    0.0000 C   0  0  0  0  0  0  0  0  0  0  0  0
   12.5781   -6.9241    0.0000 C   0  0  0  0  0  0  0  0  0  0  0  0
   11.8636   -6.5116    0.0000 C   0  0  0  0  0  0  0  0  0  0  0  0
   11.1491   -6.9241    0.0000 C   0  0  0  0  0  0  0  0  0  0  0  0
   10.7366   -6.2097    0.0000 C   0  0  0  0  0  0  0  0  0  0  0  0
    9.9116   -6.2097    0.0000 C   0  0  0  0  0  0  0  0  0  0  0  0
    9.4991   -6.9241    0.0000 C   0  0  0  0  0  0  0  0  0  0  0  0
    9.9116   -7.6386    0.0000 C   0  0  0  0  0  0  0  0  0  0  0  0
   10.7366   -7.6386    0.0000 C   0  0  0  0  0  0  0  0  0  0  0  0
   11.5616   -7.6386    0.0000 O   0  0  0  0  0  0  0  0  0  0  0  0
    8.6741   -6.9241    0.0000 O   0  0  0  0  0  0  0  0  0  0  0  0
    8.2616   -6.2097    0.0000 C   0  0  0  0  0  0  0  0  0  0  0  0
    7.4366   -6.2097    0.0000 C   0  0  0  0  0  0  0  0  0  0  0  0
    7.0241   -5.4952    0.0000 C   0  0  0  0  0  0  0  0  0  0  0  0
    6.1991   -5.4952    0.0000 C   0  0  0  0  0  0  0  0  0  0  0  0
    5.7866   -4.7807    0.0000 C   0  0  0  0  0  0  0  0  0  0  0  0
    4.9616   -4.7807    0.0000 C   0  0  0  0  0  0  0  0  0  0  0  0
    4.5491   -4.0662    0.0000 C   0  0  0  0  0  0  0  0  0  0  0  0
    3.7241   -4.0662    0.0000 C   0  0  0  0  0  0  0  0  0  0  0  0
    3.3116   -3.3518    0.0000 C   0  0  0  0  0  0  0  0  0  0  0  0
    2.4866   -3.3518    0.0000 C   0  0  0  0  0  0  0  0  0  0  0  0
    2.0741   -2.6373    0.0000 C   0  0  0  0  0  0  0  0  0  0  0  0
    1.2491   -2.6373    0.0000 C   0  0  0  0  0  0  0  0  0  0  0  0
    0.8366   -1.9228    0.0000 C   0  0  0  0  0  0  0  0  0  0  0  0
    0.0116   -1.9228    0.0000 C   0  0  0  0  0  0  0  0  0  0  0  0
    8.6741   -5.4952    0.0000 O   0  0  0  0  0  0  0  0  0  0  0  0
   10.7366   -8.4636    0.0000 C   0  0  0  0  0  0  0  0  0  0  0  0
   10.7366   -5.3847    0.0000 C   0  0  0  0  0  0  0  0  0  0  0  0
   11.4511   -5.7972    0.0000 C   0  0  0  0  0  0  0  0  0  0  0  0
   13.2926   -5.6866    0.0000 C   0  0  0  0  0  0  0  0  0  0  0  0
   16.1504   -5.6866    0.0000 C   0  0  0  0  0  0  0  0  0  0  0  0
   19.7228   -7.7491    0.0000 C   0  0  0  0  0  0  0  0  0  0  0  0
   24.9364   -6.9878    0.0000 C   0  0  0  0  0  0  0  0  0  0  0  0
   23.8864   -4.3926    0.0000 C   0  0  0  0  0  0  0  0  0  0  0  0
   24.6009   -3.9801    0.0000 C   0  0  0  0  0  0  0  0  0  0  0  0
  1  2  1  0  0  0  0
  2  3  1  0  0  0  0
  3  4  1  0  0  0  0
  4  5  1  0  0  0  0
  5  6  1  0  0  0  0
  6  7  1  0  0  0  0
  7  8  1  0  0  0  0
  8  9  1  0  0  0  0
  9 10  1  0  0  0  0
 10 11  1  0  0  0  0
 11 12  1  0  0  0  0
 12 13  1  0  0  0  0
 13 14  1  0  0  0  0
  1 15  2  0  0  0  0
  1 16  1  0  0  0  0
 17 18  1  0  0  0  0
 18 19  1  0  0  0  0
 19 20  2  0  0  0  0
 20 21  1  0  0  0  0
 21 22  1  0  0  0  0
 22 23  1  0  0  0  0
 23 24  1  0  0  0  0
 24 25  1  0  0  0  0
 20 25  1  0  0  0  0
 17 25  1  0  0  0  0
 26 27  1  0  0  0  0
 27 28  2  0  0  0  0
 28 29  1  0  0  0  0
 29 30  2  0  0  0  0
 30 31  1  0  0  0  0
 31 32  2  0  0  0  0
 32 33  1  0  0  0  0
 33 34  2  0  0  0  0
 34 35  1  0  0  0  0
 35 36  2  0  0  0  0
 36 37  1  0  0  0  0
 37 38  2  0  0  0  0
 38 39  1  0  0  0  0
 39 40  2  0  0  0  0
 40 41  1  0  0  0  0
 41 42  2  0  0  0  0
 43 44  1  0  0  0  0
 44 45  1  0  0  0  0
 45 46  1  0  0  0  0
 46 47  1  0  0  0  0
 47 48  1  0  0  0  0
 48 49  1  0  0  0  0
 43 49  1  0  0  0  0
 43 48  1  0  0  0  0
 51 52  1  0  0  0  0
 52 53  1  0  0  0  0
 53 54  1  0  0  0  0
 54 55  1  0  0  0  0
 55 56  1  0  0  0  0
 56 57  1  0  0  0  0
 57 58  1  0  0  0  0
 58 59  1  0  0  0  0
 59 60  1  0  0  0  0
 60 61  1  0  0  0  0
 61 62  1  0  0  0  0
 62 63  1  0  0  0  0
 63 64  1  0  0  0  0
 51 65  2  0  0  0  0
 50 51  1  0  0  0  0
 46 50  1  0  0  0  0
 48 66  1  0  0  0  0
 44 67  1  0  0  0  0
 44 68  1  0  0  0  0
 42 43  1  0  0  0  0
 40 69  1  0  0  0  0
 36 70  1  0  0  0  0
 31 71  1  0  0  0  0
 18 27  1  0  0  0  0
 25 72  1  0  0  0  0
 21 73  1  0  0  0  0
 21 74  1  0  0  0  0
 16 23  1  0  0  0  0
M  END
>  <cdx:groupId>
227

>  <cdx:fragmentId>
105

$$$$
