301753.cdx
  Mrv1902 05222410222D          

  9  8  0  0  0  0            999 V2000
    8.4967   -7.9491    0.0000 C   0  0  0  0  0  0  0  0  0  0  0  0
    7.7822   -8.3616    0.0000 C   0  0  0  0  0  0  0  0  0  0  0  0
    7.0678   -7.9491    0.0000 C   0  0  0  0  0  0  0  0  0  0  0  0
    6.3533   -8.3616    0.0000 C   0  0  0  0  0  0  0  0  0  0  0  0
    8.4967   -7.1241    0.0000 O   0  0  0  0  0  0  0  0  0  0  0  0
    9.2112   -8.3616    0.0000 O   0  0  0  0  0  0  0  0  0  0  0  0
    6.3533   -9.1866    0.0000 O   0  0  0  0  0  0  0  0  0  0  0  0
    5.6388   -7.9491    0.0000 O   0  0  0  0  0  0  0  0  0  0  0  0
    7.7822   -9.1866    0.0000 C   0  0  0  0  0  0  0  0  0  0  0  0
  1  2  1  0  0  0  0
  2  3  2  0  0  0  0
  3  4  1  0  0  0  0
  1  5  2  0  0  0  0
  1  6  1  0  0  0  0
  4  7  2  0  0  0  0
  4  8  1  0  0  0  0
  2  9  1  0  0  0  0
M  END
>  <cdx:groupId>
4838

>  <cdx:fragmentId>
4815

$$$$
