301736.cdx
  Mrv1902 05222410182D          

 15 17  0  0  0  0            999 V2000
    7.5832   -7.8707    0.0000 C   0  0  0  0  0  0  0  0  0  0  0  0
    7.2837   -8.6394    0.0000 N   0  0  0  0  0  0  0  0  0  0  0  0
    6.4587   -8.6407    0.0000 C   0  0  0  0  0  0  0  0  0  0  0  0
    6.1543   -7.8729    0.0000 C   0  0  0  0  0  0  0  0  0  0  0  0
    5.4392   -7.4615    0.0000 C   0  0  0  0  0  0  0  0  0  0  0  0
    5.4379   -6.6365    0.0000 C   0  0  0  0  0  0  0  0  0  0  0  0
    6.1517   -6.2229    0.0000 N   0  0  0  0  0  0  0  0  0  0  0  0
    6.8668   -6.6343    0.0000 C   0  0  0  0  0  0  0  0  0  0  0  0
    7.5807   -6.2207    0.0000 C   0  0  0  0  0  0  0  0  0  0  0  0
    8.2958   -6.6321    0.0000 C   0  0  0  0  0  0  0  0  0  0  0  0
    8.2970   -7.4571    0.0000 C   0  0  0  0  0  0  0  0  0  0  0  0
    6.8681   -7.4593    0.0000 C   0  0  0  0  0  0  0  0  0  0  0  0
    9.0122   -7.8685    0.0000 O   0  0  0  0  0  0  0  0  0  0  0  0
    7.6973   -9.3533    0.0000 C   0  0  0  0  0  0  0  0  0  0  0  0
    9.0096   -6.2185    0.0000 N   0  0  0  0  0  0  0  0  0  0  0  0
  1  2  1  0  0  0  0
  2  3  1  0  0  0  0
  3  4  2  0  0  0  0
  4  5  1  0  0  0  0
  5  6  1  0  0  0  0
  6  7  1  0  0  0  0
  7  8  2  0  0  0  0
  8  9  1  0  0  0  0
  9 10  2  0  0  0  0
 10 11  1  0  0  0  0
  1 11  1  0  0  0  0
  1 12  2  0  0  0  0
 12  8  1  0  0  0  0
  4 12  1  0  0  0  0
 11 13  2  0  0  0  0
  2 14  1  0  0  0  0
 10 15  1  0  0  0  0
M  END
>  <cdx:fragmentId>
2797

$$$$
