301794.cdx
  Mrv1902 05222410212D          

 23 25  0  0  0  0            999 V2000
    8.8574   -7.0785    0.0000 C   0  0  0  0  0  0  0  0  0  0  0  0
    8.8574   -6.2535    0.0000 C   0  0  0  0  0  0  0  0  0  0  0  0
    9.5719   -5.8410    0.0000 C   0  0  0  0  0  0  0  0  0  0  0  0
   10.2863   -6.2535    0.0000 C   0  0  0  0  0  0  0  0  0  0  0  0
    8.1429   -7.4910    0.0000 O   0  0  0  0  0  0  0  0  0  0  0  0
    9.5719   -7.4910    0.0000 O   0  0  0  0  0  0  0  0  0  0  0  0
    9.5719   -5.0160    0.0000 C   0  0  0  0  0  0  0  0  0  0  0  0
    8.1429   -5.8410    0.0000 C   0  0  0  0  0  0  0  0  0  0  0  0
    5.2850   -5.8410    0.0000 C   0  0  2  0  0  0  0  0  0  0  0  0
    5.5883   -5.0728    0.0000 O   0  0  0  0  0  0  0  0  0  0  0  0
    6.4133   -5.0728    0.0000 C   0  0  0  0  0  0  0  0  0  0  0  0
    6.7140   -5.8410    0.0000 C   0  0  0  0  0  0  0  0  0  0  0  0
    7.4284   -6.2535    0.0000 C   0  0  0  0  0  0  0  0  0  0  0  0
    7.4284   -7.0785    0.0000 C   0  0  0  0  0  0  0  0  0  0  0  0
    6.7140   -7.4910    0.0000 C   0  0  0  0  0  0  0  0  0  0  0  0
    5.9995   -7.0785    0.0000 C   0  0  0  0  0  0  0  0  0  0  0  0
    5.2850   -7.4910    0.0000 C   0  0  0  0  0  0  0  0  0  0  0  0
    4.5706   -7.0785    0.0000 C   0  0  0  0  0  0  0  0  0  0  0  0
    4.5706   -6.2535    0.0000 C   0  0  0  0  0  0  0  0  0  0  0  0
    5.9995   -6.2535    0.0000 C   0  0  0  0  0  0  0  0  0  0  0  0
    6.8258   -4.3583    0.0000 O   0  0  0  0  0  0  0  0  0  0  0  0
    5.6975   -8.2055    0.0000 C   0  0  0  0  0  0  0  0  0  0  0  0
    4.8725   -8.2055    0.0000 C   0  0  0  0  0  0  0  0  0  0  0  0
  1  2  1  0  0  0  0
  2  3  1  0  0  0  0
  3  4  1  0  0  0  0
  1  5  2  0  0  0  0
  1  6  1  0  0  0  0
  3  7  1  0  0  0  0
  9 10  1  1  0  0  0
 10 11  1  0  0  0  0
 11 12  1  0  0  0  0
 12 13  2  0  0  0  0
 13 14  1  0  0  0  0
 14 15  2  0  0  0  0
 15 16  1  0  0  0  0
 16 17  1  0  0  0  0
 17 18  1  0  0  0  0
 18 19  1  0  0  0  0
  9 19  1  0  0  0  0
  9 20  1  0  0  0  0
 20 16  2  0  0  0  0
 12 20  1  0  0  0  0
 11 21  2  0  0  0  0
 17 22  1  0  0  0  0
 17 23  1  0  0  0  0
  8 13  1  0  0  0  0
  2  8  2  0  0  0  0
M  END
>  <cdx:fragmentId>
1540

$$$$
