301716.cdx
  Mrv1902 05222410262D          

 10 10  0  0  0  0            999 V2000
    6.3533   -6.2298    0.0000 C   0  0  0  0  0  0  0  0  0  0  0  0
    7.0678   -6.6423    0.0000 C   0  0  0  0  0  0  0  0  0  0  0  0
    7.7822   -6.2298    0.0000 C   0  0  0  0  0  0  0  0  0  0  0  0
    7.7822   -5.4048    0.0000 C   0  0  0  0  0  0  0  0  0  0  0  0
    7.0678   -4.9923    0.0000 C   0  0  0  0  0  0  0  0  0  0  0  0
    6.3533   -5.4048    0.0000 C   0  0  0  0  0  0  0  0  0  0  0  0
    8.4967   -7.4673    0.0000 C   0  0  0  0  0  0  0  0  0  0  0  0
    8.4967   -6.6423    0.0000 C   0  0  0  0  0  0  0  0  0  0  0  0
    9.2112   -6.2298    0.0000 C   0  0  0  0  0  0  0  0  0  0  0  0
    5.6388   -6.6423    0.0000 C   0  0  0  0  0  0  0  0  0  0  0  0
  1  2  2  0  0  0  0
  2  3  1  0  0  0  0
  3  4  1  0  0  0  0
  4  5  1  0  0  0  0
  5  6  1  0  0  0  0
  1  6  1  0  0  0  0
  7  8  1  0  0  0  0
  8  9  1  0  0  0  0
  3  8  1  0  0  0  0
  1 10  1  0  0  0  0
M  END
>  <cdx:groupId>
1166

>  <cdx:fragmentId>
1139

$$$$
