30186.cdx
  Mrv1902 05222410222D          

 29 30  0  0  0  0            999 V2000
    5.3159  -10.6689    0.0000 C   0  0  0  0  0  0  0  0  0  0  0  0
    5.3159  -11.4939    0.0000 C   0  0  0  0  0  0  0  0  0  0  0  0
    6.0303  -11.9064    0.0000 C   0  0  0  0  0  0  0  0  0  0  0  0
    6.7448  -11.4939    0.0000 C   0  0  0  0  0  0  0  0  0  0  0  0
    6.7448  -10.6689    0.0000 C   0  0  0  0  0  0  0  0  0  0  0  0
    6.0303  -10.2564    0.0000 C   0  0  0  0  0  0  0  0  0  0  0  0
    7.4593  -10.2564    0.0000 O   0  0  0  0  0  0  0  0  0  0  0  0
    7.4593   -9.4314    0.0000 C   0  0  0  0  0  0  0  0  0  0  0  0
    6.7448   -9.0189    0.0000 C   0  0  0  0  0  0  0  0  0  0  0  0
    6.0303   -9.4314    0.0000 O   0  0  0  0  0  0  0  0  0  0  0  0
    8.1738   -9.0189    0.0000 O   0  0  0  0  0  0  0  0  0  0  0  0
    8.1738   -8.1939    0.0000 C   0  0  0  0  0  0  0  0  0  0  0  0
    7.4593   -7.7814    0.0000 C   0  0  0  0  0  0  0  0  0  0  0  0
    6.7448   -8.1939    0.0000 C   0  0  0  0  0  0  0  0  0  0  0  0
    8.8882   -7.7814    0.0000 C   0  0  0  0  0  0  0  0  0  0  0  0
    8.8882   -6.9564    0.0000 C   0  0  0  0  0  0  0  0  0  0  0  0
    8.1738   -6.5439    0.0000 C   0  0  0  0  0  0  0  0  0  0  0  0
    7.4593   -6.9564    0.0000 C   0  0  0  0  0  0  0  0  0  0  0  0
    4.6014  -10.2564    0.0000 O   0  0  0  0  0  0  0  0  0  0  0  0
    3.8869  -10.6689    0.0000 C   0  0  0  0  0  0  0  0  0  0  0  0
    8.1738  -10.6689    0.0000 C   0  0  0  0  0  0  0  0  0  0  0  0
    6.0303  -12.7314    0.0000 C   0  0  0  0  0  0  0  0  0  0  0  0
    5.3159  -13.1439    0.0000 C   0  0  0  0  0  0  0  0  0  0  0  0
    5.3159  -13.9689    0.0000 C   0  0  0  0  0  0  0  0  0  0  0  0
    4.6014  -14.3814    0.0000 O   0  0  0  0  0  0  0  0  0  0  0  0
    6.0303   -7.7814    0.0000 O   0  0  0  0  0  0  0  0  0  0  0  0
    9.6027   -6.5439    0.0000 O   0  0  0  0  0  0  0  0  0  0  0  0
    9.6027   -8.1939    0.0000 O   0  0  0  0  0  0  0  0  0  0  0  0
   10.3172   -7.7814    0.0000 C   0  0  0  0  0  0  0  0  0  0  0  0
  1  2  2  0  0  0  0
  2  3  1  0  0  0  0
  3  4  2  0  0  0  0
  4  5  1  0  0  0  0
  5  6  2  0  0  0  0
  6  1  1  0  0  0  0
  5  7  1  0  0  0  0
  8  9  1  0  0  0  0
  9 10  1  0  0  0  0
 10  6  1  0  0  0  0
  8 11  1  0  0  0  0
 12 13  2  0  0  0  0
 13 14  1  0  0  0  0
 14  9  1  0  0  0  0
 12 15  1  0  0  0  0
 15 16  2  0  0  0  0
 16 17  1  0  0  0  0
 17 18  2  0  0  0  0
 18 13  1  0  0  0  0
  1 19  1  0  0  0  0
 19 20  1  0  0  0  0
  7 21  1  0  0  0  0
  3 22  1  0  0  0  0
 22 23  1  0  0  0  0
 23 24  1  0  0  0  0
 24 25  1  0  0  0  0
 14 26  1  0  0  0  0
 16 27  1  0  0  0  0
 15 28  1  0  0  0  0
 28 29  1  0  0  0  0
M  END
>  <cdx:fragmentId>
5

$$$$
