301899.cdx
  Mrv1902 05222410192D          

 26 29  0  0  0  0            999 V2000
    9.5646   -8.0314    0.0000 N   0  0  0  0  0  0  0  0  0  0  0  0
   10.2790   -7.6187    0.0000 C   0  0  0  0  0  0  0  0  0  0  0  0
   10.2792   -6.7937    0.0000 C   0  0  0  0  0  0  0  0  0  0  0  0
    9.5652   -6.3805    0.0000 C   0  0  0  0  0  0  0  0  0  0  0  0
    8.8507   -6.7930    0.0000 C   0  0  0  0  0  0  0  0  0  0  0  0
    8.1362   -6.3805    0.0000 C   0  0  0  0  0  0  0  0  0  0  0  0
    7.4218   -6.7930    0.0000 C   0  0  0  0  0  0  0  0  0  0  0  0
    7.4218   -7.6180    0.0000 C   0  0  0  0  0  0  0  0  0  0  0  0
    8.1362   -8.0305    0.0000 C   0  0  0  0  0  0  0  0  0  0  0  0
    8.8507   -7.6180    0.0000 C   0  0  2  0  0  0  0  0  0  0  0  0
    8.1362   -5.5555    0.0000 C   0  0  0  0  0  0  0  0  0  0  0  0
    8.8507   -5.1430    0.0000 C   0  0  0  0  0  0  0  0  0  0  0  0
    9.5652   -5.5555    0.0000 C   0  0  0  0  0  0  0  0  0  0  0  0
    6.7073   -8.0305    0.0000 C   0  0  0  0  0  0  0  0  0  0  0  0
    5.9928   -7.6180    0.0000 C   0  0  0  0  0  0  0  0  0  0  0  0
    5.9928   -6.7930    0.0000 C   0  0  0  0  0  0  0  0  0  0  0  0
    6.7073   -6.3805    0.0000 C   0  0  0  0  0  0  0  0  0  0  0  0
    5.2784   -6.3805    0.0000 O   0  0  0  0  0  0  0  0  0  0  0  0
    4.5639   -6.7930    0.0000 C   0  0  0  0  0  0  0  0  0  0  0  0
    5.2784   -8.0305    0.0000 O   0  0  0  0  0  0  0  0  0  0  0  0
    5.2784   -8.8555    0.0000 C   0  0  0  0  0  0  0  0  0  0  0  0
    8.8507   -4.3180    0.0000 O   0  0  0  0  0  0  0  0  0  0  0  0
    9.5652   -3.9055    0.0000 C   0  0  0  0  0  0  0  0  0  0  0  0
    7.4218   -5.1430    0.0000 O   0  0  0  0  0  0  0  0  0  0  0  0
    7.4218   -4.3180    0.0000 C   0  0  0  0  0  0  0  0  0  0  0  0
    8.8507   -8.4430    0.0000 H   0  0  0  0  0  0  0  0  0  0  0  0
  1  2  1  0  0  0  0
  2  3  1  0  0  0  0
  3  4  1  0  0  0  0
  4  5  1  0  0  0  0
  5  6  2  0  0  0  0
  6  7  1  0  0  0  0
  7  8  1  0  0  0  0
  8  9  1  0  0  0  0
  9 10  1  0  0  0  0
  1 10  1  0  0  0  0
  5 10  1  0  0  0  0
 11 12  2  0  0  0  0
 12 13  1  0  0  0  0
 13  4  2  0  0  0  0
 11  6  1  0  0  0  0
 14 15  1  0  0  0  0
 15 16  2  0  0  0  0
 16 17  1  0  0  0  0
 17  7  2  0  0  0  0
 14  8  2  0  0  0  0
 18 19  1  0  0  0  0
 16 18  1  0  0  0  0
 20 21  1  0  0  0  0
 15 20  1  0  0  0  0
 22 23  1  0  0  0  0
 12 22  1  0  0  0  0
 24 25  1  0  0  0  0
 11 24  1  0  0  0  0
 10 26  1  6  0  0  0
M  END
>  <cdx:fragmentId>
382

$$$$
