301849.cdx
  Mrv1902 05222410202D          

  7  6  0  0  0  0            999 V2000
    7.4250   -6.0791    0.0000 C   0  0  0  0  0  0  0  0  0  0  0  0
    6.7105   -6.4916    0.0000 C   0  0  0  0  0  0  0  0  0  0  0  0
    5.9961   -6.0791    0.0000 C   0  0  0  0  0  0  0  0  0  0  0  0
    7.4250   -5.2541    0.0000 O   0  0  0  0  0  0  0  0  0  0  0  0
    8.1395   -6.4916    0.0000 N   0  0  0  0  0  0  0  0  0  0  0  0
    8.1395   -7.3166    0.0000 C   0  0  0  0  0  0  0  0  0  0  0  0
    8.8539   -6.0791    0.0000 C   0  0  0  0  0  0  0  0  0  0  0  0
  1  2  1  0  0  0  0
  2  3  1  0  0  0  0
  1  4  2  0  0  0  0
  1  5  1  0  0  0  0
  5  6  1  0  0  0  0
  5  7  1  0  0  0  0
M  END
>  <cdx:groupId>
5539

>  <cdx:fragmentId>
5522

$$$$
