301878.cdx
  Mrv1902 05222410262D          

 33 36  0  0  0  0            999 V2000
    7.7324   -6.2278    0.0000 C   0  0  1  0  0  0  0  0  0  0  0  0
    7.0179   -6.6403    0.0000 C   0  0  1  0  0  0  0  0  0  0  0  0
    6.3034   -6.2278    0.0000 C   0  0  0  0  0  0  0  0  0  0  0  0
    5.5890   -6.6403    0.0000 C   0  0  0  0  0  0  0  0  0  0  0  0
    5.5890   -7.4653    0.0000 C   0  0  0  0  0  0  0  0  0  0  0  0
    6.3034   -7.8778    0.0000 C   0  0  2  0  0  0  0  0  0  0  0  0
    7.0179   -7.4653    0.0000 C   0  0  2  0  0  0  0  0  0  0  0  0
    7.7324   -7.8778    0.0000 C   0  0  0  0  0  0  0  0  0  0  0  0
    8.4469   -7.4653    0.0000 C   0  0  1  0  0  0  0  0  0  0  0  0
    9.1608   -7.8788    0.0000 O   0  0  0  0  0  0  0  0  0  0  0  0
    9.8751   -7.4660    0.0000 C   0  0  0  0  0  0  0  0  0  0  0  0
    9.8754   -6.6410    0.0000 C   0  0  0  0  0  0  0  0  0  0  0  0
    9.1613   -6.2278    0.0000 C   0  0  1  0  0  0  0  0  0  0  0  0
    9.1613   -5.4028    0.0000 C   0  0  2  0  0  0  0  0  0  0  0  0
    8.4469   -4.9903    0.0000 C   0  0  1  0  0  0  0  0  0  0  0  0
    7.7324   -5.4028    0.0000 C   0  0  1  0  0  0  0  0  0  0  0  0
    8.4469   -6.6403    0.0000 C   0  0  1  0  0  0  0  0  0  0  0  0
    6.3034   -5.4028    0.0000 O   0  0  0  0  0  0  0  0  0  0  0  0
   10.5896   -7.8785    0.0000 O   0  0  0  0  0  0  0  0  0  0  0  0
    8.4469   -5.8153    0.0000 C   0  0  0  0  0  0  0  0  0  0  0  0
    9.9863   -5.4028    0.0000 C   0  0  0  0  0  0  0  0  0  0  0  0
    6.3034   -8.7028    0.0000 C   0  0  0  0  0  0  0  0  0  0  0  0
    7.0179   -5.8153    0.0000 C   0  0  0  0  0  0  0  0  0  0  0  0
    8.4469   -4.1653    0.0000 O   0  0  0  0  0  0  0  0  0  0  0  0
    9.1613   -3.7528    0.0000 C   0  0  0  0  0  0  0  0  0  0  0  0
    4.8745   -6.2278    0.0000 O   0  0  0  0  0  0  0  0  0  0  0  0
    4.1600   -6.6403    0.0000 C   0  0  0  0  0  0  0  0  0  0  0  0
    7.0179   -4.9903    0.0000 O   0  0  0  0  0  0  0  0  0  0  0  0
    9.5738   -4.6884    0.0000 O   0  0  0  0  0  0  0  0  0  0  0  0
    9.8758   -5.8153    0.0000 O   0  0  0  0  0  0  0  0  0  0  0  0
    7.7324   -7.0528    0.0000 H   0  0  0  0  0  0  0  0  0  0  0  0
    7.0179   -8.2903    0.0000 H   0  0  0  0  0  0  0  0  0  0  0  0
    8.4469   -8.2903    0.0000 H   0  0  0  0  0  0  0  0  0  0  0  0
  1  2  1  0  0  0  0
  2  3  1  0  0  0  0
  3  4  1  0  0  0  0
  4  5  2  0  0  0  0
  5  6  1  0  0  0  0
  6  7  1  0  0  0  0
  7  8  1  0  0  0  0
  8  9  1  0  0  0  0
  9 10  1  0  0  0  0
 10 11  1  0  0  0  0
 11 12  1  0  0  0  0
 12 13  1  0  0  0  0
 13 14  1  0  0  0  0
 14 15  1  0  0  0  0
 15 16  1  0  0  0  0
  1 16  1  0  0  0  0
  1 17  1  0  0  0  0
 17  9  1  0  0  0  0
  2  7  1  0  0  0  0
 13 17  1  0  0  0  0
  3 18  2  0  0  0  0
 11 19  2  0  0  0  0
 17 20  1  1  0  0  0
 14 21  1  6  0  0  0
  6 22  1  6  0  0  0
  2 23  1  1  0  0  0
 24 25  1  0  0  0  0
 15 24  1  1  0  0  0
 26 27  1  0  0  0  0
  4 26  1  0  0  0  0
 16 28  1  6  0  0  0
 14 29  1  1  0  0  0
 13 30  1  1  0  0  0
  1 31  1  6  0  0  0
  7 32  1  6  0  0  0
  9 33  1  1  0  0  0
M  END
>  <cdx:groupId>
1335

>  <cdx:fragmentId>
1236

$$$$
