301837.cdx
  Mrv1902 05222410252D          

 16 17  0  0  0  0            999 V2000
    4.9175   -5.4299    0.0000 C   0  0  0  0  0  0  0  0  0  0  0  0
    5.6284   -5.0114    0.0000 O   0  0  0  0  0  0  0  0  0  0  0  0
    4.9245   -6.2549    0.0000 C   0  0  0  0  0  0  0  0  0  0  0  0
    5.6424   -6.6613    0.0000 O   0  0  0  0  0  0  0  0  0  0  0  0
    9.9291   -6.6250    0.0000 C   0  0  0  0  0  0  0  0  0  0  0  0
    8.5072   -7.4621    0.0000 O   0  0  0  0  0  0  0  0  0  0  0  0
    7.7822   -6.2307    0.0000 C   0  0  0  0  0  0  0  0  0  0  0  0
    7.0713   -6.6492    0.0000 C   0  0  0  0  0  0  0  0  0  0  0  0
    6.3533   -6.2428    0.0000 C   0  0  0  0  0  0  0  0  0  0  0  0
    6.3464   -5.4178    0.0000 C   0  0  0  0  0  0  0  0  0  0  0  0
    7.0573   -4.9993    0.0000 C   0  0  0  0  0  0  0  0  0  0  0  0
    7.7752   -5.4057    0.0000 C   0  0  0  0  0  0  0  0  0  0  0  0
    8.4862   -4.9872    0.0000 C   0  0  0  0  0  0  0  0  0  0  0  0
    9.2041   -5.3936    0.0000 C   0  0  0  0  0  0  0  0  0  0  0  0
    9.2111   -6.2186    0.0000 N   0  0  0  0  0  0  0  0  0  0  0  0
    8.5002   -6.6371    0.0000 C   0  0  0  0  0  0  0  0  0  0  0  0
 10  2  1  0  0  0  0
  2  1  1  0  0  0  0
  9  4  1  0  0  0  0
  4  3  1  0  0  0  0
 15  5  1  0  0  0  0
 16  6  2  0  0  0  0
 12  7  2  0  0  0  0
 16  7  1  0  0  0  0
  8  7  1  0  0  0  0
  9  8  2  0  0  0  0
 10  9  1  0  0  0  0
 11 10  2  0  0  0  0
 12 11  1  0  0  0  0
 13 12  1  0  0  0  0
 14 13  1  0  0  0  0
 15 14  1  0  0  0  0
 16 15  1  0  0  0  0
M  END
>  <cdx:fragmentId>
4875

$$$$
