301853.cdx
  Mrv1902 05222410272D          

 11 12  0  0  0  0            999 V2000
    8.1395   -5.8649    0.0000 C   0  0  0  0  0  0  0  0  0  0  0  0
    8.8539   -6.2774    0.0000 C   0  0  0  0  0  0  0  0  0  0  0  0
    8.8539   -7.1024    0.0000 C   0  0  0  0  0  0  0  0  0  0  0  0
    8.1395   -7.5149    0.0000 C   0  0  0  0  0  0  0  0  0  0  0  0
    7.4250   -7.1024    0.0000 C   0  0  0  0  0  0  0  0  0  0  0  0
    6.7105   -7.5149    0.0000 C   0  0  0  0  0  0  0  0  0  0  0  0
    5.9961   -7.1024    0.0000 C   0  0  0  0  0  0  0  0  0  0  0  0
    5.9961   -6.2774    0.0000 C   0  0  0  0  0  0  0  0  0  0  0  0
    6.7105   -5.8649    0.0000 C   0  0  0  0  0  0  0  0  0  0  0  0
    7.4250   -6.2774    0.0000 C   0  0  0  0  0  0  0  0  0  0  0  0
    8.1395   -5.0399    0.0000 O   0  0  0  0  0  0  0  0  0  0  0  0
  1  2  1  0  0  0  0
  2  3  1  0  0  0  0
  3  4  2  0  0  0  0
  4  5  1  0  0  0  0
  5  6  1  0  0  0  0
  6  7  2  0  0  0  0
  7  8  1  0  0  0  0
  8  9  2  0  0  0  0
  9 10  1  0  0  0  0
  1 10  1  0  0  0  0
  5 10  2  0  0  0  0
  1 11  2  0  0  0  0
M  END
>  <cdx:groupId>
5815

>  <cdx:fragmentId>
5784

$$$$
