301836.cdx
  Mrv1902 05222410252D          

 27 31  0  0  0  0            999 V2000
    8.1652   -8.8759    0.0000 C   0  0  1  0  0  0  0  0  0  0  0  0
    8.8765   -8.4580    0.0000 C   0  0  0  0  0  0  0  0  0  0  0  0
    8.8703   -7.6331    0.0000 C   0  0  0  0  0  0  0  0  0  0  0  0
    9.5817   -7.2152    0.0000 C   0  0  0  0  0  0  0  0  0  0  0  0
    9.7471   -6.4069    0.0000 O   0  0  0  0  0  0  0  0  0  0  0  0
   10.5669   -6.3145    0.0000 C   0  0  0  0  0  0  0  0  0  0  0  0
   10.9082   -7.0657    0.0000 O   0  0  0  0  0  0  0  0  0  0  0  0
   10.2992   -7.6223    0.0000 C   0  0  0  0  0  0  0  0  0  0  0  0
   10.3055   -8.4473    0.0000 C   0  0  0  0  0  0  0  0  0  0  0  0
    9.5941   -8.8651    0.0000 C   0  0  0  0  0  0  0  0  0  0  0  0
    9.6003   -9.6901    0.0000 C   0  0  0  0  0  0  0  0  0  0  0  0
    8.8890  -10.1080    0.0000 C   0  0  0  0  0  0  0  0  0  0  0  0
    8.1714   -9.7009    0.0000 N   0  3  0  0  0  0  0  0  0  0  0  0
    7.4601  -10.1187    0.0000 C   0  0  0  0  0  0  0  0  0  0  0  0
    6.7425   -9.7116    0.0000 C   0  0  0  0  0  0  0  0  0  0  0  0
    6.0312  -10.1295    0.0000 C   0  0  0  0  0  0  0  0  0  0  0  0
    5.3136   -9.7224    0.0000 C   0  0  0  0  0  0  0  0  0  0  0  0
    5.3074   -8.8974    0.0000 C   0  0  0  0  0  0  0  0  0  0  0  0
    6.0187   -8.4796    0.0000 C   0  0  0  0  0  0  0  0  0  0  0  0
    6.7363   -8.8867    0.0000 C   0  0  0  0  0  0  0  0  0  0  0  0
    7.4476   -8.4688    0.0000 C   0  0  0  0  0  0  0  0  0  0  0  0
    8.1776  -10.5259    0.0000 C   0  0  0  0  0  0  0  0  0  0  0  0
    4.6023  -10.1403    0.0000 O   0  0  0  0  0  0  0  0  0  0  0  0
    3.8847   -9.7332    0.0000 C   0  0  0  0  0  0  0  0  0  0  0  0
    6.0374  -10.9545    0.0000 O   0  0  0  0  0  0  0  0  0  0  0  0
    5.3260  -11.3724    0.0000 C   0  0  0  0  0  0  0  0  0  0  0  0
    8.1590   -8.0509    0.0000 H   0  0  0  0  0  0  0  0  0  0  0  0
  1  2  1  0  0  0  0
  2  3  2  0  0  0  0
  3  4  1  0  0  0  0
  4  5  1  0  0  0  0
  5  6  1  0  0  0  0
  6  7  1  0  0  0  0
  7  8  1  0  0  0  0
  8  9  1  0  0  0  0
  9 10  2  0  0  0  0
 10 11  1  0  0  0  0
 11 12  1  0  0  0  0
 12 13  1  0  0  0  0
 13 14  1  0  0  0  0
 14 15  1  0  0  0  0
 15 16  1  0  0  0  0
 16 17  2  0  0  0  0
 17 18  1  0  0  0  0
 18 19  2  0  0  0  0
 19 20  1  0  0  0  0
 20 21  1  0  0  0  0
  1 21  1  0  0  0  0
  1 13  1  0  0  0  0
 15 20  2  0  0  0  0
  2 10  1  0  0  0  0
  4  8  2  0  0  0  0
 13 22  1  0  0  0  0
 23 24  1  0  0  0  0
 17 23  1  0  0  0  0
 25 26  1  0  0  0  0
 16 25  1  0  0  0  0
  1 27  1  6  0  0  0
M  CHG  1  13   1
M  END
>  <cdx:fragmentId>
4785

$$$$
