301843.cdx
  Mrv1902 05222410272D          

 25 27  0  0  0  0            999 V2000
    7.3086   -5.8990    0.0000 C   0  0  0  0  0  0  0  0  0  0  0  0
    6.5941   -6.3115    0.0000 C   0  0  0  0  0  0  0  0  0  0  0  0
    5.8796   -5.8990    0.0000 C   0  0  0  0  0  0  0  0  0  0  0  0
    7.3086   -5.0740    0.0000 O   0  0  0  0  0  0  0  0  0  0  0  0
    8.0230   -6.3115    0.0000 N   0  0  0  0  0  0  0  0  0  0  0  0
    8.7375   -5.8990    0.0000 C   0  0  0  0  0  0  0  0  0  0  0  0
    9.4520   -6.3115    0.0000 C   0  0  0  0  0  0  0  0  0  0  0  0
   10.1665   -5.8990    0.0000 C   0  0  0  0  0  0  0  0  0  0  0  0
    5.1652   -6.3115    0.0000 C   0  0  0  0  0  0  0  0  0  0  0  0
    4.4507   -5.8990    0.0000 C   0  0  0  0  0  0  0  0  0  0  0  0
    3.7362   -6.3115    0.0000 C   0  0  0  0  0  0  0  0  0  0  0  0
    3.7362   -7.1365    0.0000 C   0  0  0  0  0  0  0  0  0  0  0  0
    4.4507   -7.5490    0.0000 C   0  0  0  0  0  0  0  0  0  0  0  0
    5.1652   -7.1365    0.0000 C   0  0  0  0  0  0  0  0  0  0  0  0
    3.0217   -5.8990    0.0000 O   0  0  0  0  0  0  0  0  0  0  0  0
    2.3073   -6.3115    0.0000 C   0  0  0  0  0  0  0  0  0  0  0  0
    3.0217   -7.5490    0.0000 O   0  0  0  0  0  0  0  0  0  0  0  0
   10.9201   -6.2345    0.0000 C   0  0  0  0  0  0  0  0  0  0  0  0
   11.4722   -5.6214    0.0000 C   0  0  0  0  0  0  0  0  0  0  0  0
   11.0597   -4.9069    0.0000 C   0  0  0  0  0  0  0  0  0  0  0  0
   10.2527   -5.0785    0.0000 N   0  0  0  0  0  0  0  0  0  0  0  0
   12.2972   -5.6214    0.0000 C   0  0  0  0  0  0  0  0  0  0  0  0
   12.7097   -4.9069    0.0000 C   0  0  0  0  0  0  0  0  0  0  0  0
   12.2972   -4.1925    0.0000 C   0  0  0  0  0  0  0  0  0  0  0  0
   11.4722   -4.1925    0.0000 C   0  0  0  0  0  0  0  0  0  0  0  0
  1  2  1  0  0  0  0
  2  3  2  0  0  0  0
  1  4  2  0  0  0  0
  1  5  1  0  0  0  0
  6  7  1  0  0  0  0
  7  8  1  0  0  0  0
  5  6  1  0  0  0  0
  9 10  1  0  0  0  0
 10 11  2  0  0  0  0
 11 12  1  0  0  0  0
 12 13  2  0  0  0  0
 13 14  1  0  0  0  0
  9 14  2  0  0  0  0
 15 16  1  0  0  0  0
 11 15  1  0  0  0  0
 12 17  1  0  0  0  0
  3  9  1  0  0  0  0
  8 18  2  0  0  0  0
 18 19  1  0  0  0  0
 19 20  2  0  0  0  0
 20 21  1  0  0  0  0
 21  8  1  0  0  0  0
 19 22  1  0  0  0  0
 22 23  2  0  0  0  0
 23 24  1  0  0  0  0
 24 25  2  0  0  0  0
 25 20  1  0  0  0  0
M  END
>  <cdx:fragmentId>
5173

$$$$
