301831.cdx
  Mrv1902 05222410242D          

 28 29  0  0  0  0            999 V2000
    9.1299   -6.4837    0.0000 C   0  0  0  0  0  0  0  0  0  0  0  0
    8.4154   -6.8962    0.0000 C   0  0  0  0  0  0  0  0  0  0  0  0
    9.1299   -5.6587    0.0000 O   0  0  0  0  0  0  0  0  0  0  0  0
    9.8444   -6.8962    0.0000 O   0  0  0  0  0  0  0  0  0  0  0  0
    7.7009   -6.4837    0.0000 N   0  0  0  0  0  0  0  0  0  0  0  0
    6.9865   -6.8962    0.0000 C   0  0  0  0  0  0  0  0  0  0  0  0
    6.9865   -7.7212    0.0000 O   0  0  0  0  0  0  0  0  0  0  0  0
    6.2720   -6.4837    0.0000 C   0  0  0  0  0  0  0  0  0  0  0  0
    5.5575   -6.8962    0.0000 N   0  0  0  0  0  0  0  0  0  0  0  0
    4.8431   -6.4837    0.0000 C   0  0  0  0  0  0  0  0  0  0  0  0
    4.8431   -5.6587    0.0000 O   0  0  0  0  0  0  0  0  0  0  0  0
    4.1286   -6.8962    0.0000 O   0  0  0  0  0  0  0  0  0  0  0  0
    3.4141   -6.4837    0.0000 C   0  0  0  0  0  0  0  0  0  0  0  0
    2.6996   -6.8962    0.0000 C   0  0  0  0  0  0  0  0  0  0  0  0
    2.6996   -7.7212    0.0000 C   0  0  0  0  0  0  0  0  0  0  0  0
    1.9852   -8.1337    0.0000 C   0  0  0  0  0  0  0  0  0  0  0  0
    1.2707   -7.7212    0.0000 C   0  0  0  0  0  0  0  0  0  0  0  0
    1.2707   -6.8962    0.0000 C   0  0  0  0  0  0  0  0  0  0  0  0
    1.9852   -6.4837    0.0000 C   0  0  0  0  0  0  0  0  0  0  0  0
   10.5588   -6.4837    0.0000 C   0  0  0  0  0  0  0  0  0  0  0  0
   10.5588   -5.6587    0.0000 C   0  0  0  0  0  0  0  0  0  0  0  0
   11.2733   -5.2462    0.0000 C   0  0  0  0  0  0  0  0  0  0  0  0
   11.9878   -5.6587    0.0000 C   0  0  0  0  0  0  0  0  0  0  0  0
   11.9878   -6.4837    0.0000 C   0  0  0  0  0  0  0  0  0  0  0  0
   11.2733   -6.8962    0.0000 C   0  0  0  0  0  0  0  0  0  0  0  0
   12.7022   -5.2462    0.0000 N   0  3  0  0  0  0  0  0  0  0  0  0
   12.7022   -4.4212    0.0000 O   0  0  0  0  0  0  0  0  0  0  0  0
   13.4167   -5.6587    0.0000 O   0  5  0  0  0  0  0  0  0  0  0  0
  1  2  1  0  0  0  0
  1  3  2  0  0  0  0
  1  4  1  0  0  0  0
  6  7  2  0  0  0  0
  6  8  1  0  0  0  0
 10 11  2  0  0  0  0
 12 13  1  0  0  0  0
 10 12  1  0  0  0  0
 14 15  1  0  0  0  0
 15 16  2  0  0  0  0
 16 17  1  0  0  0  0
 17 18  2  0  0  0  0
 18 19  1  0  0  0  0
 14 19  2  0  0  0  0
 13 14  1  0  0  0  0
  9 10  1  0  0  0  0
  8  9  1  0  0  0  0
  5  6  1  0  0  0  0
  2  5  1  0  0  0  0
 20 21  1  0  0  0  0
 21 22  2  0  0  0  0
 22 23  1  0  0  0  0
 23 24  2  0  0  0  0
 24 25  1  0  0  0  0
 20 25  2  0  0  0  0
 26 27  2  0  0  0  0
 26 28  1  0  0  0  0
 23 26  1  0  0  0  0
  4 20  1  0  0  0  0
M  CHG  2  26   1  28  -1
M  END
>  <cdx:groupId>
4538

>  <cdx:fragmentId>
4482

$$$$
