301846.cdx
  Mrv1902 05222410272D          

 21 21  0  0  0  0            999 V2000
   11.2051   -6.2222    0.0000 C   0  0  0  0  0  0  0  0  0  0  0  0
   11.2051   -7.0472    0.0000 C   0  0  0  0  0  0  0  0  0  0  0  0
   10.4906   -7.4597    0.0000 C   0  0  0  0  0  0  0  0  0  0  0  0
    9.7762   -7.0472    0.0000 C   0  0  0  0  0  0  0  0  0  0  0  0
    9.7762   -6.2222    0.0000 C   0  0  0  0  0  0  0  0  0  0  0  0
   10.4906   -5.8097    0.0000 C   0  0  0  0  0  0  0  0  0  0  0  0
   11.9196   -5.8097    0.0000 S   0  0  0  0  0  0  0  0  0  0  0  0
   12.3321   -6.5241    0.0000 O   0  0  0  0  0  0  0  0  0  0  0  0
   11.5071   -5.0952    0.0000 O   0  0  0  0  0  0  0  0  0  0  0  0
   12.6340   -5.3972    0.0000 O   0  0  0  0  0  0  0  0  0  0  0  0
    9.0617   -7.4597    0.0000 C   0  0  0  0  0  0  0  0  0  0  0  0
    8.3472   -7.0472    0.0000 C   0  0  0  0  0  0  0  0  0  0  0  0
    7.6327   -7.4597    0.0000 C   0  0  0  0  0  0  0  0  0  0  0  0
    6.9183   -7.0472    0.0000 C   0  0  0  0  0  0  0  0  0  0  0  0
    6.2038   -7.4597    0.0000 C   0  0  0  0  0  0  0  0  0  0  0  0
    5.4893   -7.0472    0.0000 C   0  0  0  0  0  0  0  0  0  0  0  0
    4.7749   -7.4597    0.0000 C   0  0  0  0  0  0  0  0  0  0  0  0
    4.0604   -7.0472    0.0000 C   0  0  0  0  0  0  0  0  0  0  0  0
    3.3459   -7.4597    0.0000 C   0  0  0  0  0  0  0  0  0  0  0  0
    2.6315   -7.0472    0.0000 C   0  0  0  0  0  0  0  0  0  0  0  0
    1.9170   -7.4597    0.0000 C   0  0  0  0  0  0  0  0  0  0  0  0
  1  2  1  0  0  0  0
  2  3  2  0  0  0  0
  3  4  1  0  0  0  0
  4  5  2  0  0  0  0
  5  6  1  0  0  0  0
  1  6  2  0  0  0  0
  7  8  2  0  0  0  0
  7  9  2  0  0  0  0
  7 10  1  0  0  0  0
  1  7  1  0  0  0  0
 11 12  1  0  0  0  0
 12 13  1  0  0  0  0
 13 14  1  0  0  0  0
 14 15  1  0  0  0  0
 15 16  1  0  0  0  0
 16 17  1  0  0  0  0
 17 18  1  0  0  0  0
 18 19  1  0  0  0  0
 19 20  1  0  0  0  0
 20 21  1  0  0  0  0
  4 11  1  0  0  0  0
M  END
>  <cdx:groupId>
5379

>  <cdx:fragmentId>
5339

$$$$
