301811.cdx
  Mrv1902 05222410212D          

 29 31  0  0  0  0            999 V2000
    7.1120   -3.4902    0.0000 N   0  0  0  0  0  0  0  0  0  0  0  0
    6.5600   -2.8771    0.0000 C   0  0  0  0  0  0  0  0  0  0  0  0
    6.8149   -2.0925    0.0000 C   0  0  1  0  0  0  0  0  0  0  0  0
    7.6219   -1.9210    0.0000 N   0  0  0  0  0  0  0  0  0  0  0  0
    8.1739   -2.5341    0.0000 C   0  0  0  0  0  0  0  0  0  0  0  0
    7.9190   -3.3187    0.0000 C   0  0  0  0  0  0  0  0  0  0  0  0
    5.7530   -3.0487    0.0000 O   0  0  0  0  0  0  0  0  0  0  0  0
    8.9809   -2.3626    0.0000 O   0  0  0  0  0  0  0  0  0  0  0  0
    8.4710   -3.9318    0.0000 C   0  0  0  0  0  0  0  0  0  0  0  0
    8.2161   -6.0513    0.0000 N   0  0  0  0  0  0  0  0  0  0  0  0
    8.7010   -5.3839    0.0000 C   0  0  0  0  0  0  0  0  0  0  0  0
    8.2161   -4.7164    0.0000 C   0  0  0  0  0  0  0  0  0  0  0  0
    7.4315   -4.9714    0.0000 C   0  0  0  0  0  0  0  0  0  0  0  0
    6.7170   -4.5589    0.0000 C   0  0  0  0  0  0  0  0  0  0  0  0
    6.0025   -4.9714    0.0000 C   0  0  0  0  0  0  0  0  0  0  0  0
    6.0025   -5.7964    0.0000 C   0  0  0  0  0  0  0  0  0  0  0  0
    6.7170   -6.2089    0.0000 C   0  0  0  0  0  0  0  0  0  0  0  0
    7.4315   -5.7964    0.0000 C   0  0  0  0  0  0  0  0  0  0  0  0
    5.2880   -4.5589    0.0000 C   0  0  0  0  0  0  0  0  0  0  0  0
    4.5736   -4.9714    0.0000 C   0  0  0  0  0  0  0  0  0  0  0  0
    3.8591   -4.5589    0.0000 C   0  0  0  0  0  0  0  0  0  0  0  0
    3.8591   -3.7339    0.0000 C   0  0  0  0  0  0  0  0  0  0  0  0
    3.1446   -4.9714    0.0000 C   0  0  0  0  0  0  0  0  0  0  0  0
   10.2405   -4.9714    0.0000 C   0  0  0  0  0  0  0  0  0  0  0  0
    9.5260   -5.3839    0.0000 C   0  0  0  0  0  0  0  0  0  0  0  0
    9.9385   -6.0983    0.0000 C   0  0  0  0  0  0  0  0  0  0  0  0
   10.7635   -6.0983    0.0000 C   0  0  0  0  0  0  0  0  0  0  0  0
    9.5260   -4.5589    0.0000 C   0  0  0  0  0  0  0  0  0  0  0  0
    6.2629   -1.4794    0.0000 C   0  0  0  0  0  0  0  0  0  0  0  0
  1  2  1  0  0  0  0
  2  3  1  0  0  0  0
  3  4  1  0  0  0  0
  4  5  1  0  0  0  0
  5  6  1  0  0  0  0
  1  6  1  0  0  0  0
  2  7  2  0  0  0  0
  5  8  2  0  0  0  0
 10 11  1  0  0  0  0
 11 12  2  0  0  0  0
 12 13  1  0  0  0  0
 13 14  1  0  0  0  0
 14 15  2  0  0  0  0
 15 16  1  0  0  0  0
 16 17  2  0  0  0  0
 17 18  1  0  0  0  0
 10 18  1  0  0  0  0
 13 18  2  0  0  0  0
 19 20  1  0  0  0  0
 20 21  2  0  0  0  0
 21 22  1  0  0  0  0
 21 23  1  0  0  0  0
 15 19  1  0  0  0  0
 24 25  1  0  0  0  0
 25 26  1  0  0  0  0
 26 27  2  0  0  0  0
 25 28  1  0  0  0  0
 11 25  1  0  0  0  0
  9 12  1  0  0  0  0
  6  9  1  0  0  0  0
  3 29  1  6  0  0  0
M  END
>  <cdx:fragmentId>
23

$$$$
