301851.cdx
  Mrv1902 05222410262D          

 21 20  0  0  0  0            999 V2000
   13.0630   -7.5350    0.0000 C   0  0  0  0  0  0  0  0  0  0  0  0
   12.3486   -7.9475    0.0000 C   0  0  0  0  0  0  0  0  0  0  0  0
   11.6341   -7.5350    0.0000 C   0  0  0  0  0  0  0  0  0  0  0  0
   10.9196   -7.9475    0.0000 C   0  0  0  0  0  0  0  0  0  0  0  0
   10.2051   -7.5350    0.0000 C   0  0  0  0  0  0  0  0  0  0  0  0
    9.4907   -7.9475    0.0000 C   0  0  0  0  0  0  0  0  0  0  0  0
    8.7762   -7.5350    0.0000 C   0  0  0  0  0  0  0  0  0  0  0  0
    8.0617   -7.9475    0.0000 C   0  0  0  0  0  0  0  0  0  0  0  0
    7.3473   -7.5350    0.0000 C   0  0  0  0  0  0  0  0  0  0  0  0
    6.6328   -7.9475    0.0000 C   0  0  0  0  0  0  0  0  0  0  0  0
    5.9183   -7.5350    0.0000 C   0  0  0  0  0  0  0  0  0  0  0  0
    5.2038   -7.9475    0.0000 C   0  0  0  0  0  0  0  0  0  0  0  0
    4.4894   -7.5350    0.0000 C   0  0  0  0  0  0  0  0  0  0  0  0
    3.7749   -7.9475    0.0000 C   0  0  0  0  0  0  0  0  0  0  0  0
    3.0604   -7.5350    0.0000 C   0  0  0  0  0  0  0  0  0  0  0  0
    2.3460   -7.9475    0.0000 C   0  0  0  0  0  0  0  0  0  0  0  0
    1.6315   -7.5350    0.0000 C   0  0  0  0  0  0  0  0  0  0  0  0
    0.9170   -7.9475    0.0000 C   0  0  0  0  0  0  0  0  0  0  0  0
   13.7775   -7.9475    0.0000 O   0  0  0  0  0  0  0  0  0  0  0  0
   13.0630   -6.7100    0.0000 O   0  0  0  0  0  0  0  0  0  0  0  0
   12.3486   -8.7725    0.0000 O   0  0  0  0  0  0  0  0  0  0  0  0
  1  2  1  0  0  0  0
  2  3  1  0  0  0  0
  3  4  1  0  0  0  0
  4  5  1  0  0  0  0
  5  6  1  0  0  0  0
  6  7  1  0  0  0  0
  7  8  1  0  0  0  0
  8  9  1  0  0  0  0
  9 10  1  0  0  0  0
 10 11  1  0  0  0  0
 11 12  1  0  0  0  0
 12 13  1  0  0  0  0
 13 14  1  0  0  0  0
 14 15  1  0  0  0  0
 15 16  1  0  0  0  0
 16 17  1  0  0  0  0
 17 18  1  0  0  0  0
  1 19  1  0  0  0  0
  1 20  2  0  0  0  0
  2 21  1  0  0  0  0
M  END
>  <cdx:fragmentId>
756

$$$$
