30188.cdx
  Mrv1902 05222410242D          

 24 25  0  0  0  0            999 V2000
    4.3803   -8.5033    0.0000 C   0  0  0  0  0  0  0  0  0  0  0  0
    5.0948   -8.0908    0.0000 C   0  0  0  0  0  0  0  0  0  0  0  0
    5.8093   -8.5033    0.0000 C   0  0  0  0  0  0  0  0  0  0  0  0
    6.5238   -8.0908    0.0000 C   0  0  0  0  0  0  0  0  0  0  0  0
    7.2382   -8.5033    0.0000 C   0  0  0  0  0  0  0  0  0  0  0  0
    7.9527   -8.0908    0.0000 C   0  0  0  0  0  0  0  0  0  0  0  0
    8.6672   -8.5033    0.0000 C   0  0  0  0  0  0  0  0  0  0  0  0
    9.3816   -8.0908    0.0000 C   0  0  0  0  0  0  0  0  0  0  0  0
   10.0961   -8.5033    0.0000 C   0  0  0  0  0  0  0  0  0  0  0  0
   10.0961   -9.3283    0.0000 C   0  0  0  0  0  0  0  0  0  0  0  0
   10.8106   -9.7408    0.0000 C   0  0  0  0  0  0  0  0  0  0  0  0
   11.5250   -9.3283    0.0000 C   0  0  0  0  0  0  0  0  0  0  0  0
   11.5250   -8.5033    0.0000 C   0  0  0  0  0  0  0  0  0  0  0  0
   10.8106   -8.0908    0.0000 C   0  0  0  0  0  0  0  0  0  0  0  0
    3.6659   -8.0908    0.0000 C   0  0  0  0  0  0  0  0  0  0  0  0
    2.9514   -8.5033    0.0000 C   0  0  0  0  0  0  0  0  0  0  0  0
    2.9514   -9.3283    0.0000 C   0  0  0  0  0  0  0  0  0  0  0  0
    3.6659   -9.7408    0.0000 C   0  0  0  0  0  0  0  0  0  0  0  0
    4.3803   -9.3283    0.0000 C   0  0  0  0  0  0  0  0  0  0  0  0
    2.2369   -8.0908    0.0000 O   0  0  0  0  0  0  0  0  0  0  0  0
    1.5225   -8.5033    0.0000 C   0  0  0  0  0  0  0  0  0  0  0  0
    2.2369   -9.7408    0.0000 O   0  0  0  0  0  0  0  0  0  0  0  0
    6.5238   -7.2658    0.0000 O   0  0  0  0  0  0  0  0  0  0  0  0
   12.2395   -9.7408    0.0000 O   0  0  0  0  0  0  0  0  0  0  0  0
  1  2  1  0  0  0  0
  2  3  1  0  0  0  0
  3  4  1  0  0  0  0
  4  5  1  0  0  0  0
  5  6  1  0  0  0  0
  6  7  1  0  0  0  0
  7  8  1  0  0  0  0
  8  9  1  0  0  0  0
  9 10  2  0  0  0  0
 10 11  1  0  0  0  0
 11 12  2  0  0  0  0
 12 13  1  0  0  0  0
 13 14  2  0  0  0  0
 14  9  1  0  0  0  0
  1 15  2  0  0  0  0
 15 16  1  0  0  0  0
 16 17  2  0  0  0  0
 17 18  1  0  0  0  0
 18 19  2  0  0  0  0
 19  1  1  0  0  0  0
 16 20  1  0  0  0  0
 20 21  1  0  0  0  0
 17 22  1  0  0  0  0
  4 23  2  0  0  0  0
 12 24  1  0  0  0  0
M  END
>  <cdx:fragmentId>
3

$$$$
