301870.cdx
  Mrv1902 05222410182D          

 22 24  0  0  0  0            999 V2000
    6.2071   -6.2012    0.0000 C   0  0  0  0  0  0  0  0  0  0  0  0
    6.2071   -5.3763    0.0000 C   0  0  0  0  0  0  0  0  0  0  0  0
    6.9215   -6.6137    0.0000 C   0  0  0  0  0  0  0  0  0  0  0  0
    7.6360   -6.2012    0.0000 C   0  0  0  0  0  0  0  0  0  0  0  0
    7.6360   -5.3763    0.0000 C   0  0  1  0  0  0  0  0  0  0  0  0
    6.9215   -4.9637    0.0000 C   0  0  1  0  0  0  0  0  0  0  0  0
    8.3505   -4.9637    0.0000 C   0  0  0  0  0  0  0  0  0  0  0  0
    8.3505   -4.1387    0.0000 C   0  0  2  0  0  0  0  0  0  0  0  0
    7.6360   -3.7262    0.0000 C   0  0  0  0  0  0  0  0  0  0  0  0
    6.9215   -4.1387    0.0000 C   0  0  0  0  0  0  0  0  0  0  0  0
    8.3505   -5.7888    0.0000 H   0  0  0  0  0  0  0  0  0  0  0  0
    8.3505   -3.3138    0.0000 C   0  0  0  0  0  0  0  0  0  0  0  0
    9.0650   -3.7262    0.0000 C   0  0  0  0  0  0  0  0  0  0  0  0
    9.7794   -4.1387    0.0000 C   0  0  0  0  0  0  0  0  0  0  0  0
    6.2071   -4.5512    0.0000 C   0  0  0  0  0  0  0  0  0  0  0  0
    5.5621   -4.8619    0.0000 C   0  0  0  0  0  0  0  0  0  0  0  0
    4.7577   -5.0455    0.0000 C   0  0  0  0  0  0  0  0  0  0  0  0
    4.3998   -5.7888    0.0000 C   0  0  0  0  0  0  0  0  0  0  0  0
    4.7577   -6.5320    0.0000 C   0  0  0  0  0  0  0  0  0  0  0  0
    5.5621   -6.7156    0.0000 C   0  0  0  0  0  0  0  0  0  0  0  0
    4.3452   -4.3310    0.0000 O   0  0  0  0  0  0  0  0  0  0  0  0
    5.7756   -7.5125    0.0000 C   0  0  0  0  0  0  0  0  0  0  0  0
  1  2  1  0  0  0  0
  1  3  1  0  0  0  0
  3  4  1  0  0  0  0
  4  5  1  0  0  0  0
  5  6  1  0  0  0  0
  6  2  1  0  0  0  0
  5  7  1  0  0  0  0
  7  8  1  0  0  0  0
  8  9  1  0  0  0  0
  9 10  1  0  0  0  0
 10  6  1  0  0  0  0
  5 11  1  6  0  0  0
  8 12  1  6  0  0  0
  8 13  1  0  0  0  0
 13 14  2  0  0  0  0
  6 15  1  1  0  0  0
  2 16  2  0  0  0  0
 16 17  1  0  0  0  0
 17 18  1  0  0  0  0
 18 19  1  0  0  0  0
 19 20  1  0  0  0  0
 20  1  2  0  0  0  0
 17 21  2  0  0  0  0
 20 22  1  0  0  0  0
M  END
>  <cdx:fragmentId>
2142

$$$$
