301822.cdx
  Mrv1902 05222410252D          

 32 35  0  0  0  0            999 V2000
    7.7822   -7.2616    0.0000 C   0  0  0  0  0  0  0  0  0  0  0  0
    7.7822   -6.4366    0.0000 C   0  0  0  0  0  0  0  0  0  0  0  0
    7.0678   -6.0241    0.0000 C   0  0  0  0  0  0  0  0  0  0  0  0
    6.3533   -6.4366    0.0000 C   0  0  0  0  0  0  0  0  0  0  0  0
    5.6388   -6.0241    0.0000 C   0  0  0  0  0  0  0  0  0  0  0  0
    4.9244   -6.4366    0.0000 C   0  0  0  0  0  0  0  0  0  0  0  0
    4.9244   -7.2616    0.0000 C   0  0  0  0  0  0  0  0  0  0  0  0
    5.6388   -7.6741    0.0000 C   0  0  0  0  0  0  0  0  0  0  0  0
    6.3533   -7.2616    0.0000 C   0  0  0  0  0  0  0  0  0  0  0  0
    7.0678   -7.6741    0.0000 O   0  0  0  0  0  0  0  0  0  0  0  0
    7.0678   -5.1991    0.0000 O   0  0  0  0  0  0  0  0  0  0  0  0
    8.4967   -7.6741    0.0000 C   0  0  0  0  0  0  0  0  0  0  0  0
    8.4967   -8.4991    0.0000 C   0  0  0  0  0  0  0  0  0  0  0  0
    9.2112   -8.9116    0.0000 C   0  0  0  0  0  0  0  0  0  0  0  0
    9.9256   -8.4991    0.0000 C   0  0  0  0  0  0  0  0  0  0  0  0
    9.9256   -7.6741    0.0000 C   0  0  0  0  0  0  0  0  0  0  0  0
    9.2112   -7.2616    0.0000 C   0  0  0  0  0  0  0  0  0  0  0  0
   10.6401   -7.2616    0.0000 O   0  0  0  0  0  0  0  0  0  0  0  0
   10.6401   -8.9116    0.0000 O   0  0  0  0  0  0  0  0  0  0  0  0
    9.2112   -9.7366    0.0000 O   0  0  0  0  0  0  0  0  0  0  0  0
    8.4967   -6.0241    0.0000 O   0  0  0  0  0  0  0  0  0  0  0  0
    7.7822   -4.7866    0.0000 O   0  0  0  0  0  0  0  0  0  0  0  0
    8.4967   -5.1991    0.0000 C   0  0  0  0  0  0  0  0  0  0  0  0
    9.2112   -4.7866    0.0000 C   0  0  0  0  0  0  0  0  0  0  0  0
    9.2112   -3.9616    0.0000 C   0  0  0  0  0  0  0  0  0  0  0  0
    8.4967   -3.5491    0.0000 C   0  0  0  0  0  0  0  0  0  0  0  0
    7.7822   -3.9616    0.0000 C   0  0  0  0  0  0  0  0  0  0  0  0
    8.4967   -2.7241    0.0000 O   0  0  0  0  0  0  0  0  0  0  0  0
    9.9256   -3.5491    0.0000 O   0  0  0  0  0  0  0  0  0  0  0  0
    9.9256   -5.1991    0.0000 O   0  0  0  0  0  0  0  0  0  0  0  0
    4.2099   -7.6741    0.0000 O   0  0  0  0  0  0  0  0  0  0  0  0
    5.6388   -5.1991    0.0000 O   0  0  0  0  0  0  0  0  0  0  0  0
  1  2  2  0  0  0  0
  2  3  1  0  0  0  0
  3  4  1  0  0  0  0
  4  5  1  0  0  0  0
  5  6  2  0  0  0  0
  6  7  1  0  0  0  0
  7  8  2  0  0  0  0
  8  9  1  0  0  0  0
  4  9  2  0  0  0  0
  9 10  1  0  0  0  0
  1 10  1  0  0  0  0
  3 11  2  0  0  0  0
 12 13  1  0  0  0  0
 13 14  2  0  0  0  0
 14 15  1  0  0  0  0
 15 16  2  0  0  0  0
 16 17  1  0  0  0  0
 12 17  2  0  0  0  0
 16 18  1  0  0  0  0
 15 19  1  0  0  0  0
 14 20  1  0  0  0  0
  1 12  1  0  0  0  0
 22 23  1  0  0  0  0
 23 24  1  0  0  0  0
 24 25  1  0  0  0  0
 25 26  1  0  0  0  0
 26 27  1  0  0  0  0
 22 27  1  0  0  0  0
 26 28  1  0  0  0  0
 25 29  1  0  0  0  0
 24 30  1  0  0  0  0
 21 23  1  0  0  0  0
  2 21  1  0  0  0  0
  7 31  1  0  0  0  0
  5 32  1  0  0  0  0
M  END
>  <cdx:groupId>
3939

>  <cdx:fragmentId>
3843

$$$$
