301858.cdx
  Mrv1902 05222410182D          

 31 34  0  0  0  0            999 V2000
    7.4250   -8.0866    0.0000 O   0  0  0  0  0  0  0  0  0  0  0  0
   12.4263   -4.3741    0.0000 O   0  0  0  0  0  0  0  0  0  0  0  0
   10.2829   -4.7866    0.0000 C   0  0  0  0  0  0  0  0  0  0  0  0
   10.9974   -4.3741    0.0000 C   0  0  0  0  0  0  0  0  0  0  0  0
   11.7118   -4.7866    0.0000 C   0  0  0  0  0  0  0  0  0  0  0  0
   11.7118   -5.6116    0.0000 C   0  0  0  0  0  0  0  0  0  0  0  0
   10.9974   -6.0241    0.0000 C   0  0  0  0  0  0  0  0  0  0  0  0
   10.2829   -5.6116    0.0000 C   0  0  0  0  0  0  0  0  0  0  0  0
    5.9961   -7.2616    0.0000 O   0  0  0  0  0  0  0  0  0  0  0  0
    4.5671   -8.0866    0.0000 O   0  0  0  0  0  0  0  0  0  0  0  0
    3.1382   -7.2616    0.0000 O   0  0  0  0  0  0  0  0  0  0  0  0
    2.4237   -6.0241    0.0000 O   0  0  0  0  0  0  0  0  0  0  0  0
    3.1382   -5.6116    0.0000 C   0  0  0  0  0  0  0  0  0  0  0  0
    3.8526   -6.0241    0.0000 C   0  0  2  0  0  0  0  0  0  0  0  0
    3.8526   -6.8491    0.0000 C   0  0  2  0  0  0  0  0  0  0  0  0
    4.5671   -7.2616    0.0000 C   0  0  1  0  0  0  0  0  0  0  0  0
    5.2816   -6.8491    0.0000 C   0  0  2  0  0  0  0  0  0  0  0  0
    5.2816   -6.0241    0.0000 C   0  0  1  0  0  0  0  0  0  0  0  0
    4.5671   -5.6116    0.0000 O   0  0  0  0  0  0  0  0  0  0  0  0
    5.9961   -5.6116    0.0000 O   0  0  0  0  0  0  0  0  0  0  0  0
    8.8539   -8.0866    0.0000 O   0  0  0  0  0  0  0  0  0  0  0  0
    8.8539   -5.6116    0.0000 O   0  0  0  0  0  0  0  0  0  0  0  0
    8.1395   -6.0241    0.0000 C   0  0  0  0  0  0  0  0  0  0  0  0
    7.4250   -5.6116    0.0000 C   0  0  0  0  0  0  0  0  0  0  0  0
    6.7105   -6.0241    0.0000 C   0  0  0  0  0  0  0  0  0  0  0  0
    6.7105   -6.8491    0.0000 C   0  0  0  0  0  0  0  0  0  0  0  0
    7.4250   -7.2616    0.0000 C   0  0  0  0  0  0  0  0  0  0  0  0
    8.1395   -6.8491    0.0000 C   0  0  0  0  0  0  0  0  0  0  0  0
    8.8539   -7.2616    0.0000 C   0  0  0  0  0  0  0  0  0  0  0  0
    9.5684   -6.8491    0.0000 C   0  0  0  0  0  0  0  0  0  0  0  0
    9.5684   -6.0241    0.0000 C   0  0  1  0  0  0  0  0  0  0  0  0
 27  1  1  0  0  0  0
 31  8  1  6  0  0  0
  5  2  1  0  0  0  0
  8  3  2  0  0  0  0
  4  3  1  0  0  0  0
  5  4  2  0  0  0  0
  6  5  1  0  0  0  0
  7  6  2  0  0  0  0
  8  7  1  0  0  0  0
 25 20  1  0  0  0  0
 18 20  1  1  0  0  0
 17  9  1  6  0  0  0
 16 10  1  1  0  0  0
 15 11  1  6  0  0  0
 14 13  1  1  0  0  0
 13 12  1  0  0  0  0
 19 14  1  0  0  0  0
 15 14  1  0  0  0  0
 16 15  1  0  0  0  0
 17 16  1  0  0  0  0
 18 17  1  0  0  0  0
 19 18  1  0  0  0  0
 29 21  2  0  0  0  0
 31 22  1  0  0  0  0
 23 22  1  0  0  0  0
 28 23  2  0  0  0  0
 24 23  1  0  0  0  0
 25 24  2  0  0  0  0
 26 25  1  0  0  0  0
 27 26  2  0  0  0  0
 28 27  1  0  0  0  0
 29 28  1  0  0  0  0
 30 29  1  0  0  0  0
 31 30  1  0  0  0  0
M  END
>  <cdx:fragmentId>
6163

$$$$
