30183.cdx
  Mrv1902 05222410202D          

 21 20  0  0  0  0            999 V2000
    7.5868   -8.6350    0.0000 O   0  0  0  0  0  0  0  0  0  0  0  0
    1.8711   -8.6350    0.0000 O   0  0  0  0  0  0  0  0  0  0  0  0
    1.1566   -7.3975    0.0000 O   0  0  0  0  0  0  0  0  0  0  0  0
    1.8711   -7.8100    0.0000 C   0  0  0  0  0  0  0  0  0  0  0  0
    2.5855   -7.3975    0.0000 C   0  0  0  0  0  0  0  0  0  0  0  0
    3.3000   -7.8100    0.0000 C   0  0  0  0  0  0  0  0  0  0  0  0
    4.0145   -7.3975    0.0000 C   0  0  0  0  0  0  0  0  0  0  0  0
    4.7289   -7.8100    0.0000 C   0  0  0  0  0  0  0  0  0  0  0  0
    5.4434   -7.3975    0.0000 C   0  0  0  0  0  0  0  0  0  0  0  0
    6.1579   -7.8100    0.0000 C   0  0  0  0  0  0  0  0  0  0  0  0
    6.8724   -7.3975    0.0000 C   0  0  0  0  0  0  0  0  0  0  0  0
    7.5868   -7.8100    0.0000 C   0  0  0  0  0  0  0  0  0  0  0  0
    8.3013   -7.3975    0.0000 C   0  0  0  0  0  0  0  0  0  0  0  0
    9.0158   -7.8100    0.0000 C   0  0  0  0  0  0  0  0  0  0  0  0
    9.7302   -7.3975    0.0000 C   0  0  0  0  0  0  0  0  0  0  0  0
   10.4447   -7.8100    0.0000 C   0  0  0  0  0  0  0  0  0  0  0  0
   11.1592   -7.3975    0.0000 C   0  0  0  0  0  0  0  0  0  0  0  0
   11.8736   -7.8100    0.0000 C   0  0  0  0  0  0  0  0  0  0  0  0
   12.5881   -7.3975    0.0000 C   0  0  0  0  0  0  0  0  0  0  0  0
   13.3026   -7.8100    0.0000 C   0  0  0  0  0  0  0  0  0  0  0  0
   14.0171   -7.3975    0.0000 C   0  0  0  0  0  0  0  0  0  0  0  0
 12  1  1  0  0  0  0
  4  2  2  0  0  0  0
  4  3  1  0  0  0  0
  4  5  1  0  0  0  0
  5  6  1  0  0  0  0
  6  7  1  0  0  0  0
  7  8  1  0  0  0  0
  8  9  1  0  0  0  0
  9 10  1  0  0  0  0
 10 11  1  0  0  0  0
 11 12  1  0  0  0  0
 12 13  1  0  0  0  0
 13 14  2  0  0  0  0
 14 15  1  0  0  0  0
 15 16  2  0  0  0  0
 16 17  1  0  0  0  0
 17 18  1  0  0  0  0
 18 19  1  0  0  0  0
 19 20  1  0  0  0  0
 20 21  1  0  0  0  0
M  END
>  <cdx:fragmentId>
4794

$$$$
