301887.cdx
  Mrv1902 05222410262D          

  2  1  0  0  0  0            999 V2000
    8.1567   -7.1826    0.0000 O   0  0  0  0  0  0  0  0  0  0  0  0
    7.3317   -7.1826    0.0000 N   0  0  0  0  0  0  0  0  0  0  0  0
  1  2  2  0  0  0  0
M  RAD  1   2   2
M  END
>  <cdx:fragmentId>
1

$$$$
