301802.cdx
  Mrv1902 05222410232D          

 12 12  0  0  0  0            999 V2000
    6.8859   -6.2049    0.0000 N   0  0  0  0  0  0  0  0  0  0  0  0
    6.9476   -7.0276    0.0000 C   0  0  0  0  0  0  0  0  0  0  0  0
    6.3428   -7.5887    0.0000 C   0  0  0  0  0  0  0  0  0  0  0  0
    5.5270   -7.4658    0.0000 C   0  0  0  0  0  0  0  0  0  0  0  0
    5.1145   -6.7513    0.0000 C   0  0  0  0  0  0  0  0  0  0  0  0
    5.4159   -5.9833    0.0000 C   0  0  0  0  0  0  0  0  0  0  0  0
    6.2043   -5.7402    0.0000 C   0  0  0  0  0  0  0  0  0  0  0  0
    7.6004   -5.7924    0.0000 C   0  0  0  0  0  0  0  0  0  0  0  0
    7.6004   -4.9674    0.0000 O   0  0  0  0  0  0  0  0  0  0  0  0
    8.3149   -6.2049    0.0000 S   0  0  0  0  0  0  0  0  0  0  0  0
    9.0293   -5.7924    0.0000 C   0  0  0  0  0  0  0  0  0  0  0  0
    9.7438   -6.2049    0.0000 C   0  0  0  0  0  0  0  0  0  0  0  0
  1  2  1  0  0  0  0
  2  3  1  0  0  0  0
  3  4  1  0  0  0  0
  4  5  1  0  0  0  0
  5  6  1  0  0  0  0
  6  7  1  0  0  0  0
  1  7  1  0  0  0  0
  8  9  2  0  0  0  0
  8 10  1  0  0  0  0
  1  8  1  0  0  0  0
 11 12  1  0  0  0  0
 10 11  1  0  0  0  0
M  END
>  <cdx:groupId>
2230

>  <cdx:fragmentId>
2197

$$$$
