301892.cdx
  Mrv1902 05222410262D          

 28 27  0  0  0  0            999 V2000
    1.0241   -6.0241    0.0000 C   0  0  0  0  0  0  0  0  0  0  0  0
    1.7386   -6.4366    0.0000 C   0  0  0  0  0  0  0  0  0  0  0  0
    2.4531   -6.0241    0.0000 O   0  0  0  0  0  0  0  0  0  0  0  0
    3.1675   -6.4366    0.0000 C   0  0  0  0  0  0  0  0  0  0  0  0
    3.8820   -6.0241    0.0000 C   0  0  0  0  0  0  0  0  0  0  0  0
    4.5965   -6.4366    0.0000 O   0  0  0  0  0  0  0  0  0  0  0  0
    5.3109   -6.0241    0.0000 C   0  0  0  0  0  0  0  0  0  0  0  0
    6.0254   -6.4366    0.0000 C   0  0  0  0  0  0  0  0  0  0  0  0
    6.7399   -6.0241    0.0000 O   0  0  0  0  0  0  0  0  0  0  0  0
    7.4544   -6.4366    0.0000 C   0  0  0  0  0  0  0  0  0  0  0  0
    8.1688   -6.0241    0.0000 C   0  0  0  0  0  0  0  0  0  0  0  0
    8.8833   -6.4366    0.0000 O   0  0  0  0  0  0  0  0  0  0  0  0
    9.5978   -6.0241    0.0000 C   0  0  0  0  0  0  0  0  0  0  0  0
   10.3122   -6.4366    0.0000 C   0  0  0  0  0  0  0  0  0  0  0  0
   11.0267   -6.0241    0.0000 O   0  0  0  0  0  0  0  0  0  0  0  0
   11.7412   -6.4366    0.0000 C   0  0  0  0  0  0  0  0  0  0  0  0
   12.4556   -6.0241    0.0000 C   0  0  0  0  0  0  0  0  0  0  0  0
   13.1701   -6.4366    0.0000 O   0  0  0  0  0  0  0  0  0  0  0  0
   13.8846   -6.0241    0.0000 C   0  0  0  0  0  0  0  0  0  0  0  0
   14.5991   -6.4366    0.0000 C   0  0  0  0  0  0  0  0  0  0  0  0
   15.3135   -6.0241    0.0000 O   0  0  0  0  0  0  0  0  0  0  0  0
   16.0280   -6.4366    0.0000 C   0  0  0  0  0  0  0  0  0  0  0  0
   16.7425   -6.0241    0.0000 C   0  0  0  0  0  0  0  0  0  0  0  0
   17.4569   -6.4366    0.0000 O   0  0  0  0  0  0  0  0  0  0  0  0
   18.1714   -6.0241    0.0000 C   0  0  0  0  0  0  0  0  0  0  0  0
   18.8859   -6.4366    0.0000 C   0  0  0  0  0  0  0  0  0  0  0  0
   19.6004   -6.0241    0.0000 O   0  0  0  0  0  0  0  0  0  0  0  0
    0.3096   -6.4366    0.0000 O   0  0  0  0  0  0  0  0  0  0  0  0
  1  2  1  0  0  0  0
  4  5  1  0  0  0  0
  3  4  1  0  0  0  0
  7  8  1  0  0  0  0
  6  7  1  0  0  0  0
 10 11  1  0  0  0  0
  9 10  1  0  0  0  0
 13 14  1  0  0  0  0
 12 13  1  0  0  0  0
 16 17  1  0  0  0  0
 15 16  1  0  0  0  0
 19 20  1  0  0  0  0
 18 19  1  0  0  0  0
 22 23  1  0  0  0  0
 21 22  1  0  0  0  0
 25 26  1  0  0  0  0
 24 25  1  0  0  0  0
 26 27  1  0  0  0  0
 23 24  1  0  0  0  0
 20 21  1  0  0  0  0
 17 18  1  0  0  0  0
 14 15  1  0  0  0  0
 11 12  1  0  0  0  0
  8  9  1  0  0  0  0
  5  6  1  0  0  0  0
  2  3  1  0  0  0  0
  1 28  1  0  0  0  0
M  END
>  <cdx:groupId>
2750

>  <cdx:fragmentId>
2718

$$$$
