301809.cdx
  Mrv1902 05222410252D          

 14 15  0  0  0  0            999 V2000
    6.4024   -7.2569    0.0000 C   0  0  0  0  0  0  0  0  0  0  0  0
    7.1169   -6.8444    0.0000 C   0  0  1  0  0  0  0  0  0  0  0  0
    7.1169   -6.0194    0.0000 C   0  0  1  0  0  0  0  0  0  0  0  0
    6.4024   -5.6069    0.0000 C   0  0  0  0  0  0  0  0  0  0  0  0
    5.6880   -6.0194    0.0000 C   0  0  0  0  0  0  0  0  0  0  0  0
    5.6880   -6.8444    0.0000 O   0  0  0  0  0  0  0  0  0  0  0  0
    7.9015   -5.7645    0.0000 C   0  0  0  0  0  0  0  0  0  0  0  0
    8.3865   -6.4319    0.0000 C   0  0  0  0  0  0  0  0  0  0  0  0
    7.9015   -7.0994    0.0000 C   0  0  0  0  0  0  0  0  0  0  0  0
    6.4024   -8.0819    0.0000 O   0  0  0  0  0  0  0  0  0  0  0  0
    8.1565   -7.8840    0.0000 C   0  0  0  0  0  0  0  0  0  0  0  0
    8.9634   -8.0555    0.0000 O   0  0  0  0  0  0  0  0  0  0  0  0
    7.2031   -5.1990    0.0000 H   0  0  0  0  0  0  0  0  0  0  0  0
    7.2031   -7.6649    0.0000 H   0  0  0  0  0  0  0  0  0  0  0  0
  1  2  1  0  0  0  0
  2  3  1  0  0  0  0
  3  4  1  0  0  0  0
  4  5  1  0  0  0  0
  5  6  1  0  0  0  0
  1  6  1  0  0  0  0
  7  8  1  0  0  0  0
  8  9  2  0  0  0  0
  9  2  1  0  0  0  0
  7  3  1  0  0  0  0
  1 10  2  0  0  0  0
 11 12  1  0  0  0  0
  9 11  1  0  0  0  0
  3 13  1  6  0  0  0
  2 14  1  6  0  0  0
M  END
>  <cdx:groupId>
2760

>  <cdx:fragmentId>
2720

$$$$
