301807.cdx
  Mrv1902 05222410212D          

 23 26  0  0  0  0            999 V2000
    4.0643   -8.8118    0.0000 C   0  0  0  0  0  0  0  0  0  0  0  0
    7.7169   -5.9074    0.0000 C   0  0  0  0  0  0  0  0  0  0  0  0
    7.2309   -5.2408    0.0000 C   0  0  0  0  0  0  0  0  0  0  0  0
    7.2331   -6.5756    0.0000 O   0  0  0  0  0  0  0  0  0  0  0  0
    6.4481   -6.3220    0.0000 C   0  0  0  0  0  0  0  0  0  0  0  0
    6.4467   -5.4970    0.0000 C   0  0  0  0  0  0  0  0  0  0  0  0
    5.7316   -5.0857    0.0000 C   0  0  0  0  0  0  0  0  0  0  0  0
    5.0178   -5.4993    0.0000 C   0  0  0  0  0  0  0  0  0  0  0  0
    5.0191   -6.3243    0.0000 C   0  0  0  0  0  0  0  0  0  0  0  0
    5.7343   -6.7357    0.0000 C   0  0  0  0  0  0  0  0  0  0  0  0
    5.8586   -7.5513    0.0000 C   0  0  0  0  0  0  0  0  0  0  0  0
    5.2984   -8.1569    0.0000 C   0  0  0  0  0  0  0  0  0  0  0  0
    4.4756   -8.0966    0.0000 C   0  0  0  0  0  0  0  0  0  0  0  0
    4.0098   -7.4158    0.0000 C   0  0  0  0  0  0  0  0  0  0  0  0
    4.2517   -6.6270    0.0000 O   0  0  0  0  0  0  0  0  0  0  0  0
   10.1943   -7.3323    0.0000 O   0  0  0  0  0  0  0  0  0  0  0  0
   10.1896   -4.4744    0.0000 O   0  0  0  0  0  0  0  0  0  0  0  0
    8.9533   -5.1909    0.0000 C   0  0  0  0  0  0  0  0  0  0  0  0
    8.5419   -5.9061    0.0000 C   0  0  0  0  0  0  0  0  0  0  0  0
    8.9556   -6.6198    0.0000 C   0  0  0  0  0  0  0  0  0  0  0  0
    9.7806   -6.6185    0.0000 C   0  0  0  0  0  0  0  0  0  0  0  0
   10.1919   -5.9033    0.0000 C   0  0  0  0  0  0  0  0  0  0  0  0
    9.7783   -5.1896    0.0000 C   0  0  0  0  0  0  0  0  0  0  0  0
 19  2  1  0  0  0  0
 13  1  1  0  0  0  0
  3  6  1  0  0  0  0
  4  5  1  0  0  0  0
  4  2  1  0  0  0  0
  3  2  2  0  0  0  0
  8  9  1  0  0  0  0
  5 10  1  0  0  0  0
  6  5  2  0  0  0  0
  7  6  1  0  0  0  0
  8  7  2  0  0  0  0
 15  9  1  0  0  0  0
 10  9  2  0  0  0  0
 11 10  1  0  0  0  0
 12 11  1  0  0  0  0
 13 12  2  0  0  0  0
 14 13  1  0  0  0  0
 15 14  1  0  0  0  0
 21 16  1  0  0  0  0
 23 17  1  0  0  0  0
 23 18  2  0  0  0  0
 19 18  1  0  0  0  0
 20 19  2  0  0  0  0
 21 20  1  0  0  0  0
 22 21  2  0  0  0  0
 23 22  1  0  0  0  0
M  END
>  <cdx:fragmentId>
2579

$$$$
