301871.cdx
  Mrv1902 05222410182D          

 23 25  0  0  0  0            999 V2000
    2.1106   -4.4138    0.0000 C   0  0  0  0  0  0  0  0  0  0  0  0
    2.1106   -5.2387    0.0000 C   0  0  0  0  0  0  0  0  0  0  0  0
    2.8251   -5.6512    0.0000 C   0  0  2  0  0  0  0  0  0  0  0  0
    3.5396   -5.2387    0.0000 C   0  0  1  0  0  0  0  0  0  0  0  0
    3.5396   -4.4138    0.0000 C   0  0  2  0  0  0  0  0  0  0  0  0
    2.8251   -4.0012    0.0000 C   0  0  0  0  0  0  0  0  0  0  0  0
    4.2540   -5.6512    0.0000 C   0  0  0  0  0  0  0  0  0  0  0  0
    4.9685   -5.2387    0.0000 C   0  0  0  0  0  0  0  0  0  0  0  0
    4.9685   -4.4138    0.0000 C   0  0  1  0  0  0  0  0  0  0  0  0
    4.2540   -4.0012    0.0000 C   0  0  1  0  0  0  0  0  0  0  0  0
    5.6830   -4.0012    0.0000 C   0  0  0  0  0  0  0  0  0  0  0  0
    5.6830   -3.1763    0.0000 C   0  0  2  0  0  0  0  0  0  0  0  0
    4.9685   -2.7637    0.0000 C   0  0  0  0  0  0  0  0  0  0  0  0
    4.2540   -3.1763    0.0000 C   0  0  0  0  0  0  0  0  0  0  0  0
    5.6830   -4.8263    0.0000 H   0  0  0  0  0  0  0  0  0  0  0  0
    5.6830   -2.3512    0.0000 C   0  0  0  0  0  0  0  0  0  0  0  0
    6.3975   -2.7637    0.0000 C   0  0  0  0  0  0  0  0  0  0  0  0
    7.1119   -3.1763    0.0000 C   0  0  0  0  0  0  0  0  0  0  0  0
    3.5396   -3.5887    0.0000 O   0  0  0  0  0  0  0  0  0  0  0  0
    3.5396   -6.0638    0.0000 H   0  0  0  0  0  0  0  0  0  0  0  0
    2.8251   -6.4763    0.0000 C   0  0  0  0  0  0  0  0  0  0  0  0
    1.3962   -5.6512    0.0000 O   0  0  0  0  0  0  0  0  0  0  0  0
    4.2540   -4.8263    0.0000 C   0  0  0  0  0  0  0  0  0  0  0  0
  1  2  1  0  0  0  0
  2  3  1  0  0  0  0
  3  4  1  0  0  0  0
  4  5  1  0  0  0  0
  5  6  1  0  0  0  0
  6  1  2  0  0  0  0
  4  7  1  0  0  0  0
  7  8  1  0  0  0  0
  8  9  1  0  0  0  0
  9 10  1  0  0  0  0
 10  5  1  0  0  0  0
  9 11  1  0  0  0  0
 11 12  1  0  0  0  0
 12 13  1  0  0  0  0
 13 14  1  0  0  0  0
 14 10  1  0  0  0  0
  9 15  1  6  0  0  0
 12 16  1  6  0  0  0
 12 17  1  0  0  0  0
 17 18  2  0  0  0  0
  5 19  1  1  0  0  0
  4 20  1  6  0  0  0
  3 21  1  6  0  0  0
  2 22  2  0  0  0  0
 10 23  1  1  0  0  0
M  END
>  <cdx:fragmentId>
2142

$$$$
