301845.cdx
  Mrv1902 05222410262D          

 24 25  0  0  0  0            999 V2000
    7.2755   -6.0241    0.0000 C   0  0  0  0  0  0  0  0  0  0  0  0
    6.5610   -6.4366    0.0000 C   0  0  0  0  0  0  0  0  0  0  0  0
    5.8466   -6.0241    0.0000 C   0  0  0  0  0  0  0  0  0  0  0  0
    7.2755   -5.1991    0.0000 O   0  0  0  0  0  0  0  0  0  0  0  0
    7.9900   -6.4366    0.0000 N   0  0  0  0  0  0  0  0  0  0  0  0
    5.1321   -6.4366    0.0000 C   0  0  0  0  0  0  0  0  0  0  0  0
    4.4176   -6.0241    0.0000 C   0  0  0  0  0  0  0  0  0  0  0  0
    3.7032   -6.4366    0.0000 C   0  0  0  0  0  0  0  0  0  0  0  0
    3.7032   -7.2616    0.0000 C   0  0  0  0  0  0  0  0  0  0  0  0
    4.4176   -7.6741    0.0000 C   0  0  0  0  0  0  0  0  0  0  0  0
    5.1321   -7.2616    0.0000 C   0  0  0  0  0  0  0  0  0  0  0  0
    2.9887   -6.0241    0.0000 O   0  0  0  0  0  0  0  0  0  0  0  0
    2.2742   -6.4366    0.0000 C   0  0  0  0  0  0  0  0  0  0  0  0
    2.9887   -7.6741    0.0000 O   0  0  0  0  0  0  0  0  0  0  0  0
    8.7045   -6.0241    0.0000 C   0  0  0  0  0  0  0  0  0  0  0  0
    9.4189   -6.4366    0.0000 C   0  0  0  0  0  0  0  0  0  0  0  0
   10.1334   -6.0241    0.0000 C   0  0  0  0  0  0  0  0  0  0  0  0
   10.8479   -6.4366    0.0000 C   0  0  0  0  0  0  0  0  0  0  0  0
   11.5623   -6.0241    0.0000 C   0  0  0  0  0  0  0  0  0  0  0  0
   11.5623   -5.1991    0.0000 C   0  0  0  0  0  0  0  0  0  0  0  0
   10.8479   -4.7866    0.0000 C   0  0  0  0  0  0  0  0  0  0  0  0
   10.1334   -5.1991    0.0000 C   0  0  0  0  0  0  0  0  0  0  0  0
   12.2768   -4.7866    0.0000 O   0  0  0  0  0  0  0  0  0  0  0  0
   12.2768   -6.4366    0.0000 O   0  0  0  0  0  0  0  0  0  0  0  0
  1  2  1  0  0  0  0
  2  3  2  0  0  0  0
  1  4  2  0  0  0  0
  1  5  1  0  0  0  0
  6  7  1  0  0  0  0
  7  8  2  0  0  0  0
  8  9  1  0  0  0  0
  9 10  2  0  0  0  0
 10 11  1  0  0  0  0
  6 11  2  0  0  0  0
 12 13  1  0  0  0  0
  8 12  1  0  0  0  0
  9 14  1  0  0  0  0
  3  6  1  0  0  0  0
 15 16  1  0  0  0  0
 17 18  1  0  0  0  0
 18 19  2  0  0  0  0
 19 20  1  0  0  0  0
 20 21  2  0  0  0  0
 21 22  1  0  0  0  0
 17 22  2  0  0  0  0
 20 23  1  0  0  0  0
 19 24  1  0  0  0  0
 16 17  1  0  0  0  0
  5 15  1  0  0  0  0
M  END
>  <cdx:fragmentId>
5252

$$$$
