301864.cdx
  Mrv1902 05222410182D          

 29 31  0  0  0  0            999 V2000
    7.5864   -5.4831    0.0000 N   0  0  0  0  0  0  0  0  0  0  0  0
    7.0344   -4.8700    0.0000 C   0  0  0  0  0  0  0  0  0  0  0  0
    7.2893   -4.0854    0.0000 C   0  0  1  0  0  0  0  0  0  0  0  0
    8.0963   -3.9138    0.0000 N   0  0  0  0  0  0  0  0  0  0  0  0
    8.6483   -4.5269    0.0000 C   0  0  0  0  0  0  0  0  0  0  0  0
    8.3934   -5.3115    0.0000 C   0  0  0  0  0  0  0  0  0  0  0  0
    6.2274   -5.0415    0.0000 O   0  0  0  0  0  0  0  0  0  0  0  0
    9.4553   -4.3554    0.0000 O   0  0  0  0  0  0  0  0  0  0  0  0
    8.9454   -5.9246    0.0000 C   0  0  0  0  0  0  0  0  0  0  0  0
    8.6904   -8.0441    0.0000 N   0  0  0  0  0  0  0  0  0  0  0  0
    9.1754   -7.3767    0.0000 C   0  0  0  0  0  0  0  0  0  0  0  0
    8.6904   -6.7093    0.0000 C   0  0  0  0  0  0  0  0  0  0  0  0
    7.9058   -6.9642    0.0000 C   0  0  0  0  0  0  0  0  0  0  0  0
    7.1914   -6.5517    0.0000 C   0  0  0  0  0  0  0  0  0  0  0  0
    6.4769   -6.9642    0.0000 C   0  0  0  0  0  0  0  0  0  0  0  0
    6.4769   -7.7892    0.0000 C   0  0  0  0  0  0  0  0  0  0  0  0
    7.1914   -8.2017    0.0000 C   0  0  0  0  0  0  0  0  0  0  0  0
    7.9058   -7.7892    0.0000 C   0  0  0  0  0  0  0  0  0  0  0  0
    5.7624   -8.2017    0.0000 C   0  0  0  0  0  0  0  0  0  0  0  0
    5.0479   -7.7892    0.0000 C   0  0  0  0  0  0  0  0  0  0  0  0
    4.3335   -8.2017    0.0000 C   0  0  0  0  0  0  0  0  0  0  0  0
    4.3335   -9.0267    0.0000 C   0  0  0  0  0  0  0  0  0  0  0  0
    3.6190   -7.7892    0.0000 C   0  0  0  0  0  0  0  0  0  0  0  0
   10.7148   -6.9642    0.0000 C   0  0  0  0  0  0  0  0  0  0  0  0
   10.0004   -7.3767    0.0000 C   0  0  0  0  0  0  0  0  0  0  0  0
   10.4129   -8.0912    0.0000 C   0  0  0  0  0  0  0  0  0  0  0  0
   11.2379   -8.0912    0.0000 C   0  0  0  0  0  0  0  0  0  0  0  0
   10.0004   -6.5517    0.0000 C   0  0  0  0  0  0  0  0  0  0  0  0
    6.7373   -3.4723    0.0000 C   0  0  0  0  0  0  0  0  0  0  0  0
  1  2  1  0  0  0  0
  2  3  1  0  0  0  0
  3  4  1  0  0  0  0
  4  5  1  0  0  0  0
  5  6  1  0  0  0  0
  1  6  1  0  0  0  0
  2  7  2  0  0  0  0
  5  8  2  0  0  0  0
 10 11  1  0  0  0  0
 11 12  2  0  0  0  0
 12 13  1  0  0  0  0
 13 14  1  0  0  0  0
 14 15  2  0  0  0  0
 15 16  1  0  0  0  0
 16 17  2  0  0  0  0
 17 18  1  0  0  0  0
 10 18  1  0  0  0  0
 13 18  2  0  0  0  0
 19 20  1  0  0  0  0
 20 21  2  0  0  0  0
 21 22  1  0  0  0  0
 21 23  1  0  0  0  0
 16 19  1  0  0  0  0
 24 25  1  0  0  0  0
 25 26  1  0  0  0  0
 26 27  2  0  0  0  0
 25 28  1  0  0  0  0
 11 25  1  0  0  0  0
  9 12  1  0  0  0  0
  6  9  2  0  0  0  0
  3 29  1  6  0  0  0
M  END
>  <cdx:groupId>
208

>  <cdx:fragmentId>
140

$$$$
