301819.cdx
  Mrv1902 05222410242D          

 12 12  0  0  0  0            999 V2000
    5.7744   -9.1692    0.0000 N   0  3  0  0  0  0  0  0  0  0  0  0
    5.0600   -9.5817    0.0000 C   0  0  0  0  0  0  0  0  0  0  0  0
    5.7744   -8.3442    0.0000 C   0  0  0  0  0  0  0  0  0  0  0  0
    5.0600   -8.7567    0.0000 C   0  0  0  0  0  0  0  0  0  0  0  0
    6.4889   -9.5817    0.0000 C   0  0  0  0  0  0  0  0  0  0  0  0
    7.9571   -9.5047    0.0000 O   0  0  0  0  0  0  0  0  0  0  0  0
    7.2034   -9.1692    0.0000 C   0  0  1  0  0  0  0  0  0  0  0  0
    7.2896   -8.3487    0.0000 C   0  0  0  0  0  0  0  0  0  0  0  0
    8.0966   -8.1772    0.0000 C   0  0  2  0  0  0  0  0  0  0  0  0
    8.5091   -8.8916    0.0000 C   0  0  2  0  0  0  0  0  0  0  0  0
    9.3296   -8.9779    0.0000 C   0  0  0  0  0  0  0  0  0  0  0  0
    8.4322   -7.4235    0.0000 O   0  0  0  0  0  0  0  0  0  0  0  0
  1  2  1  0  0  0  0
  1  3  1  0  0  0  0
  1  4  1  0  0  0  0
  6  7  1  0  0  0  0
  7  8  1  0  0  0  0
  8  9  1  0  0  0  0
  9 10  1  0  0  0  0
  6 10  1  0  0  0  0
 10 11  1  6  0  0  0
  9 12  1  1  0  0  0
  7  5  1  6  0  0  0
  1  5  1  0  0  0  0
M  CHG  1   1   1
M  END
>  <cdx:fragmentId>
15

$$$$
