301847.cdx
  Mrv1902 05222410272D          

 22 22  0  0  0  0            999 V2000
   10.0535   -9.7817    0.0000 C   0  0  0  0  0  0  0  0  0  0  0  0
   10.7680  -10.1942    0.0000 C   0  0  0  0  0  0  0  0  0  0  0  0
   12.1969  -10.1942    0.0000 O   0  0  0  0  0  0  0  0  0  0  0  0
   11.4825   -9.7817    0.0000 C   0  0  0  0  0  0  0  0  0  0  0  0
   12.9114   -8.9567    0.0000 C   0  0  0  0  0  0  0  0  0  0  0  0
   12.1969   -8.5442    0.0000 O   0  0  0  0  0  0  0  0  0  0  0  0
   11.4825   -8.9567    0.0000 C   0  0  0  0  0  0  0  0  0  0  0  0
   10.7680   -8.5442    0.0000 C   0  0  0  0  0  0  0  0  0  0  0  0
   10.0535   -8.9567    0.0000 C   0  0  0  0  0  0  0  0  0  0  0  0
    9.3391   -8.5442    0.0000 C   0  0  0  0  0  0  0  0  0  0  0  0
    8.6246   -8.9567    0.0000 N   0  0  0  0  0  0  0  0  0  0  0  0
    7.9101   -7.7192    0.0000 O   0  0  0  0  0  0  0  0  0  0  0  0
    1.4799   -8.9567    0.0000 C   0  0  0  0  0  0  0  0  0  0  0  0
    2.1944   -8.5442    0.0000 C   0  0  0  0  0  0  0  0  0  0  0  0
    2.9088   -8.9567    0.0000 C   0  0  0  0  0  0  0  0  0  0  0  0
    3.6233   -8.5442    0.0000 C   0  0  0  0  0  0  0  0  0  0  0  0
    4.3378   -8.9567    0.0000 C   0  0  0  0  0  0  0  0  0  0  0  0
    5.0522   -8.5442    0.0000 C   0  0  0  0  0  0  0  0  0  0  0  0
    5.7667   -8.9567    0.0000 C   0  0  0  0  0  0  0  0  0  0  0  0
    6.4812   -8.5442    0.0000 C   0  0  0  0  0  0  0  0  0  0  0  0
    7.1956   -8.9567    0.0000 C   0  0  0  0  0  0  0  0  0  0  0  0
    7.9101   -8.5442    0.0000 C   0  0  0  0  0  0  0  0  0  0  0  0
 11 10  1  0  0  0  0
  9  1  2  0  0  0  0
  2  1  1  0  0  0  0
  4  2  2  0  0  0  0
  4  3  1  0  0  0  0
  7  4  1  0  0  0  0
  6  5  1  0  0  0  0
  7  6  1  0  0  0  0
  8  7  2  0  0  0  0
  9  8  1  0  0  0  0
 10  9  1  0  0  0  0
 22 11  1  0  0  0  0
 22 12  2  0  0  0  0
 14 13  1  0  0  0  0
 15 14  1  0  0  0  0
 16 15  1  0  0  0  0
 17 16  1  0  0  0  0
 18 17  1  0  0  0  0
 19 18  1  0  0  0  0
 20 19  1  0  0  0  0
 21 20  1  0  0  0  0
 22 21  1  0  0  0  0
M  END
>  <cdx:fragmentId>
5

$$$$
