301827.cdx
  Mrv1902 05222410232D          

 14 14  0  0  0  0            999 V2000
    5.1321   -6.2304    0.0000 C   0  0  0  0  0  0  0  0  0  0  0  0
    4.4176   -6.6429    0.0000 C   0  0  0  0  0  0  0  0  0  0  0  0
    5.1321   -5.4054    0.0000 O   0  0  0  0  0  0  0  0  0  0  0  0
    5.8466   -6.6429    0.0000 N   0  0  0  0  0  0  0  0  0  0  0  0
    6.5610   -6.2304    0.0000 C   0  0  0  0  0  0  0  0  0  0  0  0
    7.2755   -6.6429    0.0000 C   0  0  0  0  0  0  0  0  0  0  0  0
    7.9900   -6.2304    0.0000 C   0  0  0  0  0  0  0  0  0  0  0  0
    7.9900   -5.4054    0.0000 C   0  0  0  0  0  0  0  0  0  0  0  0
    8.7045   -4.9929    0.0000 C   0  0  0  0  0  0  0  0  0  0  0  0
    9.4189   -5.4054    0.0000 C   0  0  0  0  0  0  0  0  0  0  0  0
    9.4189   -6.2304    0.0000 C   0  0  0  0  0  0  0  0  0  0  0  0
    8.7045   -6.6429    0.0000 C   0  0  0  0  0  0  0  0  0  0  0  0
   10.1334   -4.9929    0.0000 O   0  0  0  0  0  0  0  0  0  0  0  0
    7.2755   -7.4679    0.0000 O   0  0  0  0  0  0  0  0  0  0  0  0
  1  2  1  0  0  0  0
  1  3  2  0  0  0  0
  1  4  1  0  0  0  0
  5  6  1  0  0  0  0
  7  8  1  0  0  0  0
  8  9  2  0  0  0  0
  9 10  1  0  0  0  0
 10 11  2  0  0  0  0
 11 12  1  0  0  0  0
  7 12  2  0  0  0  0
 10 13  1  0  0  0  0
  6  7  1  0  0  0  0
  6 14  1  0  0  0  0
  4  5  1  0  0  0  0
M  END
>  <cdx:groupId>
4296

>  <cdx:fragmentId>
4269

$$$$
