301825.cdx
  Mrv1902 05222410242D          

 25 26  0  0  0  0            999 V2000
    4.5706   -7.0927    0.0000 C   0  0  0  0  0  0  0  0  0  0  0  0
    3.8561   -7.5052    0.0000 C   0  0  0  0  0  0  0  0  0  0  0  0
    3.1416   -7.0927    0.0000 C   0  0  0  0  0  0  0  0  0  0  0  0
    4.5706   -6.2677    0.0000 O   0  0  0  0  0  0  0  0  0  0  0  0
    5.2850   -7.5052    0.0000 N   0  0  0  0  0  0  0  0  0  0  0  0
    3.1416   -6.2677    0.0000 C   0  0  0  0  0  0  0  0  0  0  0  0
    2.4271   -5.8552    0.0000 C   0  0  0  0  0  0  0  0  0  0  0  0
    2.4271   -5.0302    0.0000 C   0  0  0  0  0  0  0  0  0  0  0  0
    3.1416   -4.6177    0.0000 C   0  0  0  0  0  0  0  0  0  0  0  0
    3.8561   -5.0302    0.0000 C   0  0  0  0  0  0  0  0  0  0  0  0
    3.8561   -5.8552    0.0000 C   0  0  0  0  0  0  0  0  0  0  0  0
    5.9995   -7.0927    0.0000 C   0  0  0  0  0  0  0  0  0  0  0  0
    6.7140   -7.5052    0.0000 C   0  0  0  0  0  0  0  0  0  0  0  0
    7.4284   -7.0927    0.0000 C   0  0  0  0  0  0  0  0  0  0  0  0
    7.4284   -6.2677    0.0000 C   0  0  0  0  0  0  0  0  0  0  0  0
    8.1429   -5.8552    0.0000 C   0  0  0  0  0  0  0  0  0  0  0  0
    8.8574   -6.2677    0.0000 C   0  0  0  0  0  0  0  0  0  0  0  0
    8.8574   -7.0927    0.0000 C   0  0  0  0  0  0  0  0  0  0  0  0
    8.1429   -7.5052    0.0000 C   0  0  0  0  0  0  0  0  0  0  0  0
    9.5719   -5.8552    0.0000 O   0  0  0  0  0  0  0  0  0  0  0  0
   10.2863   -6.2677    0.0000 C   0  0  0  0  0  0  0  0  0  0  0  0
   11.0008   -5.8552    0.0000 C   0  0  0  0  0  0  0  0  0  0  0  0
   11.7153   -6.2677    0.0000 C   0  0  0  0  0  0  0  0  0  0  0  0
   12.4297   -5.8552    0.0000 C   0  0  0  0  0  0  0  0  0  0  0  0
   11.7153   -7.0927    0.0000 C   0  0  0  0  0  0  0  0  0  0  0  0
  1  2  1  0  0  0  0
  2  3  2  0  0  0  0
  1  4  2  0  0  0  0
  1  5  1  0  0  0  0
  6  7  1  0  0  0  0
  7  8  2  0  0  0  0
  8  9  1  0  0  0  0
  9 10  2  0  0  0  0
 10 11  1  0  0  0  0
  6 11  2  0  0  0  0
  3  6  1  0  0  0  0
 12 13  1  0  0  0  0
 14 15  1  0  0  0  0
 15 16  2  0  0  0  0
 16 17  1  0  0  0  0
 17 18  2  0  0  0  0
 18 19  1  0  0  0  0
 14 19  2  0  0  0  0
 21 22  1  0  0  0  0
 22 23  2  0  0  0  0
 23 24  1  0  0  0  0
 20 21  1  0  0  0  0
 23 25  1  0  0  0  0
 17 20  1  0  0  0  0
 13 14  1  0  0  0  0
  5 12  1  0  0  0  0
M  END
>  <cdx:groupId>
4167

>  <cdx:fragmentId>
4120

$$$$
