301884.cdx
  Mrv1902 05222410272D          

 35 37  0  0  0  0            999 V2000
    1.6606   -5.4619    0.0000 C   0  0  0  0  0  0  0  0  0  0  0  0
    2.3750   -5.8744    0.0000 C   0  0  1  0  0  0  0  0  0  0  0  0
    3.0895   -5.4619    0.0000 C   0  0  0  0  0  0  0  0  0  0  0  0
    3.8040   -5.8744    0.0000 C   0  0  0  0  0  0  0  0  0  0  0  0
    1.6606   -4.6369    0.0000 O   0  0  0  0  0  0  0  0  0  0  0  0
    0.9461   -5.8744    0.0000 O   0  0  0  0  0  0  0  0  0  0  0  0
    4.5184   -5.4619    0.0000 O   0  0  0  0  0  0  0  0  0  0  0  0
    5.2329   -5.8744    0.0000 C   0  0  0  0  0  0  0  0  0  0  0  0
    5.9474   -5.4619    0.0000 C   0  0  0  0  0  0  0  0  0  0  0  0
    6.6619   -5.8744    0.0000 C   0  0  0  0  0  0  0  0  0  0  0  0
    6.6619   -6.6994    0.0000 C   0  0  0  0  0  0  0  0  0  0  0  0
    5.9474   -7.1119    0.0000 C   0  0  0  0  0  0  0  0  0  0  0  0
    5.2329   -6.6994    0.0000 C   0  0  0  0  0  0  0  0  0  0  0  0
    7.3763   -7.1119    0.0000 C   0  0  2  0  0  0  0  0  0  0  0  0
    8.0908   -6.6994    0.0000 C   0  0  0  0  0  0  0  0  0  0  0  0
    8.0908   -5.8744    0.0000 O   0  0  0  0  0  0  0  0  0  0  0  0
    8.8053   -7.1119    0.0000 N   0  0  0  0  0  0  0  0  0  0  0  0
   10.5302   -6.1160    0.0000 N   0  0  0  0  0  0  0  0  0  0  0  0
   10.3166   -6.9129    0.0000 C   0  0  0  0  0  0  0  0  0  0  0  0
    9.5197   -6.6994    0.0000 C   0  0  2  0  0  0  0  0  0  0  0  0
    9.7333   -5.9025    0.0000 C   0  0  0  0  0  0  0  0  0  0  0  0
   10.7291   -7.6274    0.0000 O   0  0  0  0  0  0  0  0  0  0  0  0
   11.2446   -5.7035    0.0000 C   0  0  2  0  0  0  0  0  0  0  0  0
   11.9591   -6.1160    0.0000 C   0  0  0  0  0  0  0  0  0  0  0  0
   12.6736   -5.7035    0.0000 C   0  0  0  0  0  0  0  0  0  0  0  0
   13.3880   -6.1160    0.0000 C   0  0  0  0  0  0  0  0  0  0  0  0
   13.3880   -6.9410    0.0000 C   0  0  0  0  0  0  0  0  0  0  0  0
   12.6736   -7.3535    0.0000 C   0  0  0  0  0  0  0  0  0  0  0  0
   11.9591   -6.9410    0.0000 C   0  0  0  0  0  0  0  0  0  0  0  0
   14.1025   -7.3535    0.0000 O   0  0  0  0  0  0  0  0  0  0  0  0
   11.2446   -4.8785    0.0000 C   0  0  0  0  0  0  0  0  0  0  0  0
   10.5302   -4.4660    0.0000 O   0  0  0  0  0  0  0  0  0  0  0  0
   11.9591   -4.4660    0.0000 O   0  0  0  0  0  0  0  0  0  0  0  0
    7.3763   -7.9369    0.0000 N   0  0  0  0  0  0  0  0  0  0  0  0
    2.3750   -6.6994    0.0000 N   0  0  0  0  0  0  0  0  0  0  0  0
  1  2  1  0  0  0  0
  2  3  1  0  0  0  0
  3  4  1  0  0  0  0
  1  5  2  0  0  0  0
  1  6  1  0  0  0  0
  8  9  1  0  0  0  0
  9 10  2  0  0  0  0
 10 11  1  0  0  0  0
 11 12  2  0  0  0  0
 12 13  1  0  0  0  0
  8 13  2  0  0  0  0
  7  8  1  0  0  0  0
 14 15  1  0  0  0  0
 15 16  2  0  0  0  0
 18 19  1  0  0  0  0
 19 20  1  0  0  0  0
 20 21  1  0  0  0  0
 18 21  1  0  0  0  0
 19 22  2  0  0  0  0
 24 25  1  0  0  0  0
 25 26  2  0  0  0  0
 26 27  1  0  0  0  0
 27 28  2  0  0  0  0
 28 29  1  0  0  0  0
 24 29  2  0  0  0  0
 27 30  1  0  0  0  0
 23 24  1  0  0  0  0
 31 32  2  0  0  0  0
 31 33  1  0  0  0  0
 23 31  1  0  0  0  0
 23 18  1  1  0  0  0
 20 17  1  1  0  0  0
 15 17  1  0  0  0  0
 14 34  1  6  0  0  0
 11 14  1  0  0  0  0
  4  7  1  0  0  0  0
  2 35  1  1  0  0  0
M  END
>  <cdx:groupId>
1869

>  <cdx:fragmentId>
1811

$$$$
