301816.cdx
  Mrv1902 05222410232D          

 33 38  0  0  0  0            999 V2000
    6.3531   -5.8214    0.0000 C   0  0  0  0  0  0  0  0  0  0  0  0
    5.6386   -5.4090    0.0000 O   0  0  0  0  0  0  0  0  0  0  0  0
    4.9242   -5.8215    0.0000 C   0  0  0  0  0  0  0  0  0  0  0  0
    4.2096   -5.4091    0.0000 C   0  0  0  0  0  0  0  0  0  0  0  0
    3.4952   -5.8216    0.0000 C   0  0  0  0  0  0  0  0  0  0  0  0
    3.4953   -6.6466    0.0000 C   0  0  0  0  0  0  0  0  0  0  0  0
    4.2098   -7.0591    0.0000 C   0  0  0  0  0  0  0  0  0  0  0  0
    4.9242   -6.6465    0.0000 C   0  0  0  0  0  0  0  0  0  0  0  0
    5.6387   -7.0590    0.0000 C   0  0  0  0  0  0  0  0  0  0  0  0
    5.6396   -7.8840    0.0000 C   0  0  0  0  0  0  0  0  0  0  0  0
    6.3542   -8.2962    0.0000 C   0  0  0  0  0  0  0  0  0  0  0  0
    7.0688   -7.8839    0.0000 O   0  0  0  0  0  0  0  0  0  0  0  0
    7.0677   -7.0589    0.0000 C   0  0  0  0  0  0  0  0  0  0  0  0
    7.7821   -6.6463    0.0000 C   0  0  0  0  0  0  0  0  0  0  0  0
    8.4966   -7.0587    0.0000 C   0  0  0  0  0  0  0  0  0  0  0  0
    9.2110   -6.6462    0.0000 C   0  0  1  0  0  0  0  0  0  0  0  0
    9.2110   -5.8212    0.0000 C   0  0  2  0  0  0  0  0  0  0  0  0
    8.4965   -5.4087    0.0000 O   0  0  0  0  0  0  0  0  0  0  0  0
    7.7820   -5.8213    0.0000 C   0  0  0  0  0  0  0  0  0  0  0  0
    7.0675   -5.4089    0.0000 C   0  0  0  0  0  0  0  0  0  0  0  0
    6.3532   -6.6464    0.0000 C   0  0  0  0  0  0  0  0  0  0  0  0
    2.7807   -5.4092    0.0000 O   0  0  0  0  0  0  0  0  0  0  0  0
    9.9255   -7.0586    0.0000 O   0  0  0  0  0  0  0  0  0  0  0  0
    6.3543   -9.1212    0.0000 O   0  0  0  0  0  0  0  0  0  0  0  0
    2.7808   -7.0592    0.0000 O   0  0  0  0  0  0  0  0  0  0  0  0
    9.9254   -5.4086    0.0000 C   0  0  0  0  0  0  0  0  0  0  0  0
   10.6399   -5.8211    0.0000 C   0  0  0  0  0  0  0  0  0  0  0  0
   11.3544   -5.4085    0.0000 C   0  0  0  0  0  0  0  0  0  0  0  0
   11.3543   -4.5835    0.0000 C   0  0  0  0  0  0  0  0  0  0  0  0
   10.6398   -4.1711    0.0000 C   0  0  0  0  0  0  0  0  0  0  0  0
    9.9253   -4.5836    0.0000 C   0  0  0  0  0  0  0  0  0  0  0  0
   12.0687   -4.1710    0.0000 O   0  0  0  0  0  0  0  0  0  0  0  0
   12.0689   -5.8210    0.0000 O   0  0  0  0  0  0  0  0  0  0  0  0
  1  2  1  0  0  0  0
  2  3  1  0  0  0  0
  3  4  1  0  0  0  0
  4  5  2  0  0  0  0
  5  6  1  0  0  0  0
  6  7  2  0  0  0  0
  7  8  1  0  0  0  0
  8  9  1  0  0  0  0
  9 10  2  0  0  0  0
 10 11  1  0  0  0  0
 11 12  1  0  0  0  0
 12 13  1  0  0  0  0
 13 14  1  0  0  0  0
 14 15  1  0  0  0  0
 15 16  1  0  0  0  0
 16 17  1  0  0  0  0
 17 18  1  0  0  0  0
 18 19  1  0  0  0  0
 19 20  1  0  0  0  0
  1 20  2  0  0  0  0
  1 21  1  0  0  0  0
 21 13  2  0  0  0  0
 14 19  2  0  0  0  0
  3  8  2  0  0  0  0
  9 21  1  0  0  0  0
  5 22  1  0  0  0  0
 16 23  1  1  0  0  0
 11 24  2  0  0  0  0
  6 25  1  0  0  0  0
 26 27  1  0  0  0  0
 27 28  2  0  0  0  0
 28 29  1  0  0  0  0
 29 30  2  0  0  0  0
 30 31  1  0  0  0  0
 26 31  2  0  0  0  0
 29 32  1  0  0  0  0
 28 33  1  0  0  0  0
 17 26  1  6  0  0  0
M  END
>  <cdx:fragmentId>
3250

$$$$
