301839.cdx
  Mrv1902 05222410212D          

 21 21  0  0  0  0            999 V2000
   12.0656   -6.6344    0.0000 C   0  0  0  0  0  0  0  0  0  0  0  0
   12.0656   -5.8094    0.0000 C   0  0  0  0  0  0  0  0  0  0  0  0
   12.7801   -5.3969    0.0000 C   0  0  0  0  0  0  0  0  0  0  0  0
   13.4946   -5.8094    0.0000 C   0  0  0  0  0  0  0  0  0  0  0  0
   13.4946   -6.6344    0.0000 C   0  0  0  0  0  0  0  0  0  0  0  0
   12.7801   -7.0469    0.0000 C   0  0  0  0  0  0  0  0  0  0  0  0
   11.3512   -7.0469    0.0000 C   0  0  0  0  0  0  0  0  0  0  0  0
   10.6367   -6.6344    0.0000 C   0  0  0  0  0  0  0  0  0  0  0  0
    9.9222   -7.0469    0.0000 C   0  0  0  0  0  0  0  0  0  0  0  0
    9.2077   -6.6344    0.0000 C   0  0  0  0  0  0  0  0  0  0  0  0
    8.4933   -7.0469    0.0000 C   0  0  0  0  0  0  0  0  0  0  0  0
    7.7788   -6.6344    0.0000 C   0  0  0  0  0  0  0  0  0  0  0  0
    7.0643   -7.0469    0.0000 C   0  0  0  0  0  0  0  0  0  0  0  0
    6.3499   -6.6344    0.0000 C   0  0  0  0  0  0  0  0  0  0  0  0
    5.6354   -7.0469    0.0000 C   0  0  0  0  0  0  0  0  0  0  0  0
    4.9209   -6.6344    0.0000 C   0  0  0  0  0  0  0  0  0  0  0  0
    4.2064   -7.0469    0.0000 C   0  0  0  0  0  0  0  0  0  0  0  0
    3.4920   -6.6344    0.0000 C   0  0  0  0  0  0  0  0  0  0  0  0
    2.7775   -7.0469    0.0000 C   0  0  0  0  0  0  0  0  0  0  0  0
    2.0630   -6.6344    0.0000 C   0  0  0  0  0  0  0  0  0  0  0  0
    1.3486   -7.0469    0.0000 C   0  0  0  0  0  0  0  0  0  0  0  0
  1  2  1  0  0  0  0
  2  3  1  0  0  0  0
  3  4  1  0  0  0  0
  4  5  1  0  0  0  0
  5  6  1  0  0  0  0
  1  6  1  0  0  0  0
  7  8  1  0  0  0  0
  8  9  1  0  0  0  0
  9 10  1  0  0  0  0
 10 11  1  0  0  0  0
 11 12  1  0  0  0  0
 12 13  1  0  0  0  0
 13 14  1  0  0  0  0
 14 15  1  0  0  0  0
 15 16  1  0  0  0  0
 16 17  1  0  0  0  0
 17 18  1  0  0  0  0
 18 19  1  0  0  0  0
 19 20  1  0  0  0  0
 20 21  1  0  0  0  0
  1  7  1  0  0  0  0
M  END
>  <cdx:groupId>
5003

>  <cdx:fragmentId>
4955

$$$$
