301850.cdx
  Mrv1902 05222410262D          

 28 29  0  0  0  0            999 V2000
    9.9256   -6.4366    0.0000 C   0  0  0  0  0  0  0  0  0  0  0  0
   10.6401   -6.0241    0.0000 C   0  0  0  0  0  0  0  0  0  0  0  0
   11.3546   -6.4366    0.0000 C   0  0  0  0  0  0  0  0  0  0  0  0
    9.9256   -7.2616    0.0000 O   0  0  0  0  0  0  0  0  0  0  0  0
    9.2112   -6.0241    0.0000 N   0  0  0  0  0  0  0  0  0  0  0  0
    8.4967   -6.4366    0.0000 C   0  0  0  0  0  0  0  0  0  0  0  0
    7.7822   -6.0241    0.0000 C   0  0  0  0  0  0  0  0  0  0  0  0
    7.0678   -6.4366    0.0000 C   0  0  0  0  0  0  0  0  0  0  0  0
    6.3533   -6.0241    0.0000 C   0  0  0  0  0  0  0  0  0  0  0  0
    5.6388   -6.4366    0.0000 N   0  0  0  0  0  0  0  0  0  0  0  0
    4.9244   -6.0241    0.0000 C   0  0  0  0  0  0  0  0  0  0  0  0
    4.2099   -6.4366    0.0000 C   0  0  0  0  0  0  0  0  0  0  0  0
    3.4954   -6.0241    0.0000 C   0  0  0  0  0  0  0  0  0  0  0  0
    4.9244   -5.1991    0.0000 O   0  0  0  0  0  0  0  0  0  0  0  0
    2.7809   -6.4366    0.0000 C   0  0  0  0  0  0  0  0  0  0  0  0
    2.7809   -7.2616    0.0000 C   0  0  0  0  0  0  0  0  0  0  0  0
    2.0665   -7.6741    0.0000 C   0  0  0  0  0  0  0  0  0  0  0  0
    1.3520   -7.2616    0.0000 C   0  0  0  0  0  0  0  0  0  0  0  0
    1.3520   -6.4366    0.0000 C   0  0  0  0  0  0  0  0  0  0  0  0
    2.0665   -6.0241    0.0000 C   0  0  0  0  0  0  0  0  0  0  0  0
    0.6375   -7.6741    0.0000 O   0  0  0  0  0  0  0  0  0  0  0  0
   12.0691   -6.0241    0.0000 C   0  0  0  0  0  0  0  0  0  0  0  0
   12.0691   -5.1991    0.0000 C   0  0  0  0  0  0  0  0  0  0  0  0
   12.7835   -4.7866    0.0000 C   0  0  0  0  0  0  0  0  0  0  0  0
   13.4980   -5.1991    0.0000 C   0  0  0  0  0  0  0  0  0  0  0  0
   13.4980   -6.0241    0.0000 C   0  0  0  0  0  0  0  0  0  0  0  0
   12.7835   -6.4366    0.0000 C   0  0  0  0  0  0  0  0  0  0  0  0
   14.2125   -4.7866    0.0000 O   0  0  0  0  0  0  0  0  0  0  0  0
  1  2  1  0  0  0  0
  2  3  2  0  0  0  0
  1  4  2  0  0  0  0
  1  5  1  0  0  0  0
  6  7  1  0  0  0  0
  7  8  1  0  0  0  0
  8  9  1  0  0  0  0
 11 12  1  0  0  0  0
 12 13  2  0  0  0  0
 11 14  2  0  0  0  0
 15 16  1  0  0  0  0
 16 17  2  0  0  0  0
 17 18  1  0  0  0  0
 18 19  2  0  0  0  0
 19 20  1  0  0  0  0
 15 20  2  0  0  0  0
 18 21  1  0  0  0  0
 13 15  1  0  0  0  0
 10 11  1  0  0  0  0
  9 10  1  0  0  0  0
  5  6  1  0  0  0  0
 22 23  1  0  0  0  0
 23 24  2  0  0  0  0
 24 25  1  0  0  0  0
 25 26  2  0  0  0  0
 26 27  1  0  0  0  0
 22 27  2  0  0  0  0
 25 28  1  0  0  0  0
  3 22  1  0  0  0  0
M  END
>  <cdx:groupId>
5625

>  <cdx:fragmentId>
5571

$$$$
