301800.cdx
  Mrv1902 05222410222D          

 30 34  0  0  0  0            999 V2000
    9.7286   -8.5083    0.0000 C   0  0  0  0  0  0  0  0  0  0  0  0
    8.2718   -4.3931    0.0000 H   0  0  0  0  0  0  0  0  0  0  0  0
    6.8710   -6.8775    0.0000 H   0  0  0  0  0  0  0  0  0  0  0  0
    8.2885   -6.8680    0.0000 H   0  0  0  0  0  0  0  0  0  0  0  0
    8.9835   -3.9758    0.0000 C   0  0  0  0  0  0  0  0  0  0  0  0
    9.7230   -7.6834    0.0000 O   0  0  0  0  0  0  0  0  0  0  0  0
    8.2941   -7.6930    0.0000 O   0  0  0  0  0  0  0  0  0  0  0  0
    9.0057   -7.2757    0.0000 C   0  0  0  0  0  0  0  0  0  0  0  0
    9.7063   -5.2084    0.0000 O   0  0  0  0  0  0  0  0  0  0  0  0
    9.7118   -6.0334    0.0000 C   0  0  0  0  0  0  0  0  0  0  0  0
    9.0002   -6.4507    0.0000 C   0  0  0  0  0  0  0  0  0  0  0  0
    8.9890   -4.8007    0.0000 C   0  0  2  0  0  0  0  0  0  0  0  0
    6.8540   -6.0527    0.0000 C   0  0  2  0  0  0  0  0  0  0  0  0
    7.5713   -6.4604    0.0000 C   0  0  0  0  0  0  0  0  0  0  0  0
    8.2829   -6.0430    0.0000 C   0  0  1  0  0  0  0  0  0  0  0  0
    8.2774   -5.2181    0.0000 C   0  0  2  0  0  0  0  0  0  0  0  0
    7.5601   -4.8104    0.0000 C   0  0  0  0  0  0  0  0  0  0  0  0
    6.8485   -5.2277    0.0000 N   0  0  0  0  0  0  0  0  0  0  0  0
    6.0621   -4.9781    0.0000 C   0  0  0  0  0  0  0  0  0  0  0  0
    5.5817   -5.6488    0.0000 C   0  0  0  0  0  0  0  0  0  0  0  0
    6.0711   -6.3129    0.0000 C   0  0  2  0  0  0  0  0  0  0  0  0
    5.2883   -6.5732    0.0000 C   0  0  0  0  0  0  0  0  0  0  0  0
    5.2938   -7.3981    0.0000 N   0  0  0  0  0  0  0  0  0  0  0  0
    6.0802   -7.6478    0.0000 C   0  0  0  0  0  0  0  0  0  0  0  0
    6.5606   -6.9771    0.0000 C   0  0  0  0  0  0  0  0  0  0  0  0
    6.4208   -8.3992    0.0000 C   0  0  0  0  0  0  0  0  0  0  0  0
    7.2418   -8.4799    0.0000 C   0  0  0  0  0  0  0  0  0  0  0  0
    7.7222   -7.8092    0.0000 C   0  0  0  0  0  0  0  0  0  0  0  0
    7.3816   -7.0578    0.0000 C   0  0  0  0  0  0  0  0  0  0  0  0
    4.6176   -6.0928    0.0000 O   0  0  0  0  0  0  0  0  0  0  0  0
  6  1  1  0  0  0  0
 16  2  1  1  0  0  0
 13  3  1  6  0  0  0
 15  4  1  6  0  0  0
 12  5  1  6  0  0  0
 11  8  1  0  0  0  0
  8  6  1  0  0  0  0
  8  7  2  0  0  0  0
 11 15  1  0  0  0  0
 12 16  1  0  0  0  0
 12  9  1  0  0  0  0
 10  9  1  0  0  0  0
 11 10  2  0  0  0  0
 18 13  1  0  0  0  0
 21 13  1  0  0  0  0
 14 13  1  0  0  0  0
 15 14  1  0  0  0  0
 16 15  1  0  0  0  0
 17 16  1  0  0  0  0
 18 17  1  0  0  0  0
 19 18  1  0  0  0  0
 20 19  1  0  0  0  0
 21 20  1  6  0  0  0
 21 22  1  0  0  0  0
 22 23  1  0  0  0  0
 23 24  1  0  0  0  0
 24 25  2  0  0  0  0
 25 21  1  0  0  0  0
 24 26  1  0  0  0  0
 26 27  2  0  0  0  0
 27 28  1  0  0  0  0
 28 29  2  0  0  0  0
 29 25  1  0  0  0  0
 22 30  2  0  0  0  0
M  END
>  <cdx:fragmentId>
1978

$$$$
