301881.cdx
  Mrv1902 05222410272D          

 32 36  0  0  0  0            999 V2000
    7.0145   -6.5188    0.0000 C   0  0  1  0  0  0  0  0  0  0  0  0
    7.7290   -6.1063    0.0000 O   0  0  0  0  0  0  0  0  0  0  0  0
    8.4434   -6.5188    0.0000 C   0  0  0  0  0  0  0  0  0  0  0  0
    9.1579   -6.1063    0.0000 C   0  0  0  0  0  0  0  0  0  0  0  0
    9.3294   -5.2993    0.0000 C   0  0  0  0  0  0  0  0  0  0  0  0
   10.1499   -5.2131    0.0000 C   0  0  2  0  0  0  0  0  0  0  0  0
   10.4855   -5.9667    0.0000 O   0  0  0  0  0  0  0  0  0  0  0  0
    9.8724   -6.5188    0.0000 C   0  0  0  0  0  0  0  0  0  0  0  0
    9.8724   -7.3438    0.0000 C   0  0  0  0  0  0  0  0  0  0  0  0
    9.1579   -7.7563    0.0000 C   0  0  0  0  0  0  0  0  0  0  0  0
    8.4434   -7.3438    0.0000 C   0  0  0  0  0  0  0  0  0  0  0  0
    7.7290   -7.7563    0.0000 C   0  0  0  0  0  0  0  0  0  0  0  0
    7.0145   -7.3438    0.0000 C   0  0  1  0  0  0  0  0  0  0  0  0
    6.2299   -7.5987    0.0000 O   0  0  0  0  0  0  0  0  0  0  0  0
    5.7449   -6.9313    0.0000 C   0  0  0  0  0  0  0  0  0  0  0  0
    4.9245   -6.8450    0.0000 C   0  0  0  0  0  0  0  0  0  0  0  0
    4.5889   -6.0914    0.0000 C   0  0  0  0  0  0  0  0  0  0  0  0
    5.0738   -5.4239    0.0000 C   0  0  0  0  0  0  0  0  0  0  0  0
    5.8943   -5.5101    0.0000 C   0  0  0  0  0  0  0  0  0  0  0  0
    6.2299   -6.2638    0.0000 C   0  0  0  0  0  0  0  0  0  0  0  0
    7.7290   -8.5813    0.0000 O   0  0  0  0  0  0  0  0  0  0  0  0
   10.1499   -3.7841    0.0000 C   0  0  0  0  0  0  0  0  0  0  0  0
   10.5624   -4.4986    0.0000 C   0  0  0  0  0  0  0  0  0  0  0  0
   11.3874   -4.4986    0.0000 C   0  0  0  0  0  0  0  0  0  0  0  0
    6.9283   -5.6983    0.0000 C   0  0  0  0  0  0  0  0  0  0  0  0
    7.5957   -5.2134    0.0000 C   0  0  0  0  0  0  0  0  0  0  0  0
    7.5095   -4.3929    0.0000 C   0  0  0  0  0  0  0  0  0  0  0  0
    6.7558   -4.0573    0.0000 C   0  0  0  0  0  0  0  0  0  0  0  0
    8.1769   -3.9080    0.0000 C   0  0  0  0  0  0  0  0  0  0  0  0
    3.7684   -6.0051    0.0000 O   0  0  0  0  0  0  0  0  0  0  0  0
    6.9283   -8.1642    0.0000 O   0  0  0  0  0  0  0  0  0  0  0  0
    9.1579   -8.5813    0.0000 O   0  0  0  0  0  0  0  0  0  0  0  0
  1  2  1  0  0  0  0
  2  3  1  0  0  0  0
  3  4  1  0  0  0  0
  4  5  1  0  0  0  0
  5  6  1  0  0  0  0
  6  7  1  0  0  0  0
  7  8  1  0  0  0  0
  8  9  1  0  0  0  0
  9 10  2  0  0  0  0
 10 11  1  0  0  0  0
 11 12  1  0  0  0  0
 12 13  1  0  0  0  0
 13 14  1  0  0  0  0
 14 15  1  0  0  0  0
 15 16  1  0  0  0  0
 16 17  2  0  0  0  0
 17 18  1  0  0  0  0
 18 19  2  0  0  0  0
 19 20  1  0  0  0  0
  1 20  1  0  0  0  0
  1 13  1  0  0  0  0
  3 11  2  0  0  0  0
  4  8  2  0  0  0  0
 15 20  2  0  0  0  0
 12 21  2  0  0  0  0
 22 23  2  0  0  0  0
 23 24  1  0  0  0  0
  6 23  1  1  0  0  0
 25 26  1  0  0  0  0
 26 27  2  0  0  0  0
 27 28  1  0  0  0  0
 27 29  1  0  0  0  0
  1 25  1  6  0  0  0
 17 30  1  0  0  0  0
 13 31  1  6  0  0  0
 10 32  1  0  0  0  0
M  END
>  <cdx:fragmentId>
1531

$$$$
