301877.cdx
  Mrv1902 05222410192D          

 31 37  0  0  0  0            999 V2000
    7.4283  -11.7251    0.0000 C   0  0  0  0  0  0  0  0  0  0  0  0
    7.4283  -12.5501    0.0000 C   0  0  0  0  0  0  0  0  0  0  0  0
    8.1428  -12.9626    0.0000 C   0  0  0  0  0  0  0  0  0  0  0  0
    8.8572  -12.5501    0.0000 C   0  0  0  0  0  0  0  0  0  0  0  0
    8.8572  -11.7251    0.0000 C   0  0  0  0  0  0  0  0  0  0  0  0
    8.1428  -11.3126    0.0000 C   0  0  0  0  0  0  0  0  0  0  0  0
   10.2669  -11.6694    0.0000 C   0  0  0  0  0  0  0  0  0  0  0  0
    9.5717  -12.9626    0.0000 N   0  0  0  0  0  0  0  0  0  0  0  0
   10.2669  -12.4944    0.0000 C   0  0  1  0  0  0  0  0  0  0  0  0
   10.9813  -12.9069    0.0000 C   0  0  1  0  0  0  0  0  0  0  0  0
   11.6958  -12.4944    0.0000 C   0  0  1  0  0  0  0  0  0  0  0  0
   11.6958  -11.6694    0.0000 C   0  0  0  0  0  0  0  0  0  0  0  0
   10.9813  -11.2569    0.0000 C   0  0  2  0  0  0  0  0  0  0  0  0
   10.8098  -10.4500    0.0000 N   0  0  0  0  0  0  0  0  0  0  0  0
    9.9893  -10.3637    0.0000 C   0  0  0  0  0  0  0  0  0  0  0  0
    9.6538  -11.1174    0.0000 C   0  0  0  0  0  0  0  0  0  0  0  0
    9.5524  -13.7319    0.0000 C   0  0  0  0  0  0  0  0  0  0  0  0
   10.2669  -14.1444    0.0000 C   0  0  0  0  0  0  0  0  0  0  0  0
   10.9813  -13.7319    0.0000 C   0  0  2  0  0  0  0  0  0  0  0  0
   11.5647  -14.3153    0.0000 O   0  0  0  0  0  0  0  0  0  0  0  0
   12.4856  -12.7779    0.0000 C   0  0  0  0  0  0  0  0  0  0  0  0
   13.0980  -13.5017    0.0000 C   0  0  0  0  0  0  0  0  0  0  0  0
   12.8753  -14.3090    0.0000 C   0  0  0  0  0  0  0  0  0  0  0  0
   12.4697  -10.8584    0.0000 C   0  0  0  0  0  0  0  0  0  0  0  0
   11.6958  -10.8444    0.0000 H   0  0  0  0  0  0  0  0  0  0  0  0
   12.4103  -12.0819    0.0000 H   0  0  0  0  0  0  0  0  0  0  0  0
   11.5647  -13.4903    0.0000 H   0  0  0  0  0  0  0  0  0  0  0  0
   10.9813  -14.5569    0.0000 H   0  0  0  0  0  0  0  0  0  0  0  0
    8.8328  -14.1354    0.0000 O   0  0  0  0  0  0  0  0  0  0  0  0
    6.7138  -11.3126    0.0000 O   0  0  0  0  0  0  0  0  0  0  0  0
   10.2669  -13.3194    0.0000 H   0  0  0  0  0  0  0  0  0  0  0  0
  1  2  2  0  0  0  0
  2  3  1  0  0  0  0
  3  4  2  0  0  0  0
  4  5  1  0  0  0  0
  5  6  2  0  0  0  0
  6  1  1  0  0  0  0
  5  7  1  0  0  0  0
  4  8  1  0  0  0  0
  7  9  1  0  0  0  0
  9  8  1  0  0  0  0
  9 10  1  0  0  0  0
 10 11  1  0  0  0  0
 11 12  1  0  0  0  0
 12 13  1  0  0  0  0
 13  7  1  0  0  0  0
 13 14  1  0  0  0  0
 14 15  1  0  0  0  0
 15 16  1  0  0  0  0
 16  7  1  0  0  0  0
  8 17  1  0  0  0  0
 17 18  1  0  0  0  0
 18 19  1  0  0  0  0
 19 10  1  0  0  0  0
 19 20  1  0  0  0  0
 11 21  1  0  0  0  0
 21 22  2  0  0  0  0
 22 23  1  0  0  0  0
 20 23  1  0  0  0  0
 14 24  1  0  0  0  0
 21 24  1  0  0  0  0
 13 25  1  6  0  0  0
 11 26  1  6  0  0  0
 10 27  1  6  0  0  0
 19 28  1  6  0  0  0
 17 29  2  0  0  0  0
  1 30  1  0  0  0  0
  9 31  1  1  0  0  0
M  END
>  <cdx:fragmentId>
691

$$$$
