301857.cdx
  Mrv1902 05222410272D          

 32 35  0  0  0  0            999 V2000
   10.2829   -7.6741    0.0000 O   0  0  0  0  0  0  0  0  0  0  0  0
   10.9974   -7.2616    0.0000 C   0  0  1  0  0  0  0  0  0  0  0  0
   10.9974   -6.4366    0.0000 C   0  0  2  0  0  0  0  0  0  0  0  0
   10.2829   -6.0241    0.0000 C   0  0  1  0  0  0  0  0  0  0  0  0
    9.5684   -6.4366    0.0000 C   0  0  2  0  0  0  0  0  0  0  0  0
    9.5684   -7.2616    0.0000 C   0  0  2  0  0  0  0  0  0  0  0  0
   11.7118   -7.6741    0.0000 C   0  0  0  0  0  0  0  0  0  0  0  0
   11.7118   -8.4991    0.0000 O   0  0  0  0  0  0  0  0  0  0  0  0
   12.4263   -7.2616    0.0000 O   0  0  0  0  0  0  0  0  0  0  0  0
    8.8539   -6.0241    0.0000 O   0  0  0  0  0  0  0  0  0  0  0  0
   10.2829   -5.1991    0.0000 O   0  0  0  0  0  0  0  0  0  0  0  0
   11.7118   -6.0241    0.0000 O   0  0  0  0  0  0  0  0  0  0  0  0
    8.8539   -7.6741    0.0000 O   0  0  0  0  0  0  0  0  0  0  0  0
    8.1395   -7.2616    0.0000 C   0  0  0  0  0  0  0  0  0  0  0  0
    7.4250   -7.6741    0.0000 C   0  0  0  0  0  0  0  0  0  0  0  0
    6.7105   -7.2616    0.0000 C   0  0  0  0  0  0  0  0  0  0  0  0
    6.7105   -6.4366    0.0000 C   0  0  0  0  0  0  0  0  0  0  0  0
    7.4250   -6.0241    0.0000 C   0  0  0  0  0  0  0  0  0  0  0  0
    8.1395   -6.4366    0.0000 C   0  0  0  0  0  0  0  0  0  0  0  0
    5.9961   -6.0241    0.0000 C   0  0  0  0  0  0  0  0  0  0  0  0
    5.9961   -5.1991    0.0000 C   0  0  0  0  0  0  0  0  0  0  0  0
    5.2816   -4.7866    0.0000 C   0  0  0  0  0  0  0  0  0  0  0  0
    4.5671   -5.1991    0.0000 C   0  0  0  0  0  0  0  0  0  0  0  0
    3.8526   -4.7866    0.0000 C   0  0  0  0  0  0  0  0  0  0  0  0
    3.1382   -5.1991    0.0000 C   0  0  0  0  0  0  0  0  0  0  0  0
    3.1382   -6.0241    0.0000 C   0  0  0  0  0  0  0  0  0  0  0  0
    3.8526   -6.4366    0.0000 C   0  0  0  0  0  0  0  0  0  0  0  0
    4.5671   -6.0241    0.0000 C   0  0  0  0  0  0  0  0  0  0  0  0
    5.2816   -6.4366    0.0000 O   0  0  0  0  0  0  0  0  0  0  0  0
    5.2816   -3.9616    0.0000 O   0  0  0  0  0  0  0  0  0  0  0  0
    2.4237   -6.4366    0.0000 O   0  0  0  0  0  0  0  0  0  0  0  0
    3.8526   -3.9616    0.0000 O   0  0  0  0  0  0  0  0  0  0  0  0
  1  2  1  0  0  0  0
  2  3  1  0  0  0  0
  3  4  1  0  0  0  0
  4  5  1  0  0  0  0
  5  6  1  0  0  0  0
  1  6  1  0  0  0  0
  7  8  2  0  0  0  0
  7  9  1  0  0  0  0
  2  7  1  1  0  0  0
  5 10  1  6  0  0  0
  4 11  1  1  0  0  0
  3 12  1  6  0  0  0
 14 15  1  0  0  0  0
 15 16  2  0  0  0  0
 16 17  1  0  0  0  0
 17 18  2  0  0  0  0
 18 19  1  0  0  0  0
 14 19  2  0  0  0  0
 13 14  1  0  0  0  0
 20 21  1  0  0  0  0
 21 22  1  0  0  0  0
 22 23  1  0  0  0  0
 23 24  1  0  0  0  0
 24 25  2  0  0  0  0
 25 26  1  0  0  0  0
 26 27  2  0  0  0  0
 27 28  1  0  0  0  0
 23 28  2  0  0  0  0
 28 29  1  0  0  0  0
 20 29  1  0  0  0  0
 22 30  2  0  0  0  0
 26 31  1  0  0  0  0
 24 32  1  0  0  0  0
 17 20  1  0  0  0  0
  6 13  1  1  0  0  0
M  END
>  <cdx:groupId>
6129

>  <cdx:fragmentId>
6071

$$$$
