301893.cdx
  Mrv1902 05222410262D          

 21 21  0  0  0  0            999 V2000
    7.7822   -5.8179    0.0000 C   0  0  0  0  0  0  0  0  0  0  0  0
    7.0678   -6.2304    0.0000 C   0  0  0  0  0  0  0  0  0  0  0  0
    6.3533   -5.8179    0.0000 C   0  0  0  0  0  0  0  0  0  0  0  0
    5.6388   -6.2304    0.0000 C   0  0  0  0  0  0  0  0  0  0  0  0
    4.9244   -5.8179    0.0000 C   0  0  0  0  0  0  0  0  0  0  0  0
    4.2099   -6.2304    0.0000 C   0  0  0  0  0  0  0  0  0  0  0  0
    3.4954   -5.8179    0.0000 C   0  0  0  0  0  0  0  0  0  0  0  0
    2.7809   -6.2304    0.0000 C   0  0  0  0  0  0  0  0  0  0  0  0
    2.0665   -5.8179    0.0000 C   0  0  0  0  0  0  0  0  0  0  0  0
    7.7822   -4.9929    0.0000 O   0  0  0  0  0  0  0  0  0  0  0  0
    8.4967   -6.2304    0.0000 N   0  0  0  0  0  0  0  0  0  0  0  0
    9.2112   -5.8179    0.0000 C   0  0  0  0  0  0  0  0  0  0  0  0
    9.9256   -6.2304    0.0000 C   0  0  0  0  0  0  0  0  0  0  0  0
   10.6401   -5.8179    0.0000 C   0  0  0  0  0  0  0  0  0  0  0  0
   11.3546   -6.2304    0.0000 C   0  0  0  0  0  0  0  0  0  0  0  0
   11.3546   -7.0554    0.0000 C   0  0  0  0  0  0  0  0  0  0  0  0
   10.6401   -7.4679    0.0000 C   0  0  0  0  0  0  0  0  0  0  0  0
    9.9256   -7.0554    0.0000 C   0  0  0  0  0  0  0  0  0  0  0  0
   12.0691   -5.8179    0.0000 O   0  0  0  0  0  0  0  0  0  0  0  0
   12.7835   -6.2304    0.0000 C   0  0  0  0  0  0  0  0  0  0  0  0
   12.0691   -7.4679    0.0000 O   0  0  0  0  0  0  0  0  0  0  0  0
  1  2  1  0  0  0  0
  2  3  1  0  0  0  0
  3  4  1  0  0  0  0
  4  5  1  0  0  0  0
  5  6  1  0  0  0  0
  6  7  1  0  0  0  0
  7  8  1  0  0  0  0
  8  9  1  0  0  0  0
  1 10  2  0  0  0  0
  1 11  1  0  0  0  0
 13 14  1  0  0  0  0
 14 15  2  0  0  0  0
 15 16  1  0  0  0  0
 16 17  2  0  0  0  0
 17 18  1  0  0  0  0
 13 18  2  0  0  0  0
 19 20  1  0  0  0  0
 15 19  1  0  0  0  0
 16 21  1  0  0  0  0
 12 13  1  0  0  0  0
 11 12  1  0  0  0  0
M  END
>  <cdx:groupId>
65

>  <cdx:fragmentId>
5

$$$$
