301828.cdx
  Mrv1902 05222410222D          

 15 15  0  0  0  0            999 V2000
    8.1360   -5.2462    0.0000 C   0  0  0  0  0  0  0  0  0  0  0  0
    7.4216   -5.6587    0.0000 C   0  0  2  0  0  0  0  0  0  0  0  0
    7.4216   -6.4837    0.0000 C   0  0  0  0  0  0  0  0  0  0  0  0
    8.1360   -4.4212    0.0000 O   0  0  0  0  0  0  0  0  0  0  0  0
    8.8505   -5.6587    0.0000 O   0  0  0  0  0  0  0  0  0  0  0  0
    8.1360   -6.8962    0.0000 C   0  0  0  0  0  0  0  0  0  0  0  0
    8.8505   -6.4837    0.0000 C   0  0  0  0  0  0  0  0  0  0  0  0
    9.5650   -6.8962    0.0000 C   0  0  0  0  0  0  0  0  0  0  0  0
    9.5650   -7.7212    0.0000 C   0  0  0  0  0  0  0  0  0  0  0  0
    8.8505   -8.1337    0.0000 C   0  0  0  0  0  0  0  0  0  0  0  0
    8.1360   -7.7212    0.0000 C   0  0  0  0  0  0  0  0  0  0  0  0
    5.9926   -5.6587    0.0000 C   0  0  0  0  0  0  0  0  0  0  0  0
    5.2781   -5.2462    0.0000 C   0  0  0  0  0  0  0  0  0  0  0  0
    5.9926   -6.4837    0.0000 O   0  0  0  0  0  0  0  0  0  0  0  0
    6.7071   -5.2462    0.0000 N   0  0  0  0  0  0  0  0  0  0  0  0
  1  2  1  0  0  0  0
  2  3  1  6  0  0  0
  1  4  2  0  0  0  0
  1  5  1  0  0  0  0
  6  7  1  0  0  0  0
  7  8  2  0  0  0  0
  8  9  1  0  0  0  0
  9 10  2  0  0  0  0
 10 11  1  0  0  0  0
  6 11  2  0  0  0  0
  3  6  1  0  0  0  0
 12 13  1  0  0  0  0
 12 14  2  0  0  0  0
 12 15  1  0  0  0  0
  2 15  1  0  0  0  0
M  END
>  <cdx:groupId>
4343

>  <cdx:fragmentId>
4311

$$$$
