301814.cdx
  Mrv1902 05222410222D          

 37 41  0  0  0  0            999 V2000
   10.5624   -8.2424    0.0000 C   0  0  0  0  0  0  0  0  0  0  0  0
   11.3874   -8.2424    0.0000 C   0  0  0  0  0  0  0  0  0  0  0  0
   10.1499   -8.9569    0.0000 O   0  0  0  0  0  0  0  0  0  0  0  0
   10.1499   -7.5279    0.0000 O   0  0  0  0  0  0  0  0  0  0  0  0
    5.1974   -7.9404    0.0000 C   0  0  0  0  0  0  0  0  0  0  0  0
    4.4830   -8.3529    0.0000 C   0  0  0  0  0  0  0  0  0  0  0  0
    4.4830   -9.1779    0.0000 C   0  0  1  0  0  0  0  0  0  0  0  0
    5.1974   -9.5904    0.0000 C   0  0  0  0  0  0  0  0  0  0  0  0
    5.9119   -9.1779    0.0000 C   0  0  0  0  0  0  0  0  0  0  0  0
    6.6264   -9.5904    0.0000 C   0  0  0  0  0  0  0  0  0  0  0  0
    7.3408   -9.1779    0.0000 C   0  0  0  0  0  0  0  0  0  0  0  0
    7.3408   -8.3529    0.0000 C   0  0  1  0  0  0  0  0  0  0  0  0
    8.0553   -7.9404    0.0000 C   0  0  2  0  0  0  0  0  0  0  0  0
    8.8399   -8.1954    0.0000 C   0  0  0  0  0  0  0  0  0  0  0  0
    9.3249   -7.5279    0.0000 C   0  0  2  0  0  0  0  0  0  0  0  0
    8.8399   -6.8605    0.0000 C   0  0  1  0  0  0  0  0  0  0  0  0
    8.0553   -7.1154    0.0000 C   0  0  1  0  0  0  0  0  0  0  0  0
    7.3408   -6.7029    0.0000 C   0  0  0  0  0  0  0  0  0  0  0  0
    6.6264   -7.1154    0.0000 C   0  0  0  0  0  0  0  0  0  0  0  0
    6.6264   -7.9404    0.0000 C   0  0  2  0  0  0  0  0  0  0  0  0
    5.9119   -8.3529    0.0000 C   0  0  1  0  0  0  0  0  0  0  0  0
    9.0949   -6.0759    0.0000 C   0  0  2  0  0  0  0  0  0  0  0  0
    9.9018   -5.9044    0.0000 C   0  0  0  0  0  0  0  0  0  0  0  0
    8.7978   -4.6782    0.0000 N   0  0  0  0  0  0  0  0  0  0  0  0
    8.5428   -5.4628    0.0000 C   0  0  1  0  0  0  0  0  0  0  0  0
    7.7359   -5.6343    0.0000 C   0  0  0  0  0  0  0  0  0  0  0  0
    7.1838   -5.0212    0.0000 C   0  0  0  0  0  0  0  0  0  0  0  0
    7.4388   -4.2366    0.0000 C   0  0  1  0  0  0  0  0  0  0  0  0
    8.2457   -4.0651    0.0000 C   0  0  0  0  0  0  0  0  0  0  0  0
    6.8867   -3.6235    0.0000 C   0  0  0  0  0  0  0  0  0  0  0  0
    8.1415   -6.2950    0.0000 C   0  0  0  0  0  0  0  0  0  0  0  0
    5.9119   -7.5279    0.0000 C   0  0  0  0  0  0  0  0  0  0  0  0
    3.7685   -9.5904    0.0000 O   0  0  0  0  0  0  0  0  0  0  0  0
    7.3408   -7.5279    0.0000 H   0  0  0  0  0  0  0  0  0  0  0  0
    6.6264   -8.7654    0.0000 H   0  0  0  0  0  0  0  0  0  0  0  0
    8.0553   -8.7654    0.0000 H   0  0  0  0  0  0  0  0  0  0  0  0
    9.6246   -6.6056    0.0000 H   0  0  0  0  0  0  0  0  0  0  0  0
  1  2  1  0  0  0  0
  1  3  2  0  0  0  0
  1  4  1  0  0  0  0
  5  6  1  0  0  0  0
  6  7  1  0  0  0  0
  7  8  1  0  0  0  0
  8  9  1  0  0  0  0
  9 10  2  0  0  0  0
 10 11  1  0  0  0  0
 11 12  1  0  0  0  0
 12 13  1  0  0  0  0
 13 14  1  0  0  0  0
 14 15  1  0  0  0  0
 16 15  1  0  0  0  0
 16 17  1  0  0  0  0
 13 17  1  0  0  0  0
 17 18  1  0  0  0  0
 18 19  1  0  0  0  0
 19 20  1  0  0  0  0
 12 20  1  0  0  0  0
 20 21  1  0  0  0  0
  9 21  1  0  0  0  0
  5 21  1  0  0  0  0
 22 23  1  1  0  0  0
 25 24  1  6  0  0  0
 25 26  1  0  0  0  0
 26 27  1  0  0  0  0
 27 28  1  0  0  0  0
 28 29  1  0  0  0  0
 24 29  1  0  0  0  0
 28 30  1  6  0  0  0
 22 25  1  0  0  0  0
 16 22  1  0  0  0  0
 17 31  1  1  0  0  0
 21 32  1  1  0  0  0
  7 33  1  1  0  0  0
 15  4  1  6  0  0  0
 12 34  1  1  0  0  0
 20 35  1  6  0  0  0
 13 36  1  6  0  0  0
 16 37  1  6  0  0  0
M  END
>  <cdx:groupId>
3171

>  <cdx:fragmentId>
3070

$$$$
