301823.cdx
  Mrv1902 05222410252D          

 21 22  0  0  0  0            999 V2000
    5.5536   -8.2775    0.0000 C   0  0  0  0  0  0  0  0  0  0  0  0
    4.8415   -8.6939    0.0000 C   0  0  0  0  0  0  0  0  0  0  0  0
    4.1247   -8.2854    0.0000 C   0  0  0  0  0  0  0  0  0  0  0  0
    4.1202   -7.4604    0.0000 C   0  0  0  0  0  0  0  0  0  0  0  0
    4.8324   -7.0439    0.0000 C   0  0  0  0  0  0  0  0  0  0  0  0
    5.5491   -7.4525    0.0000 C   0  0  0  0  0  0  0  0  0  0  0  0
    6.3323   -7.1932    0.0000 C   0  0  0  0  0  0  0  0  0  0  0  0
    6.8209   -7.8580    0.0000 C   0  0  0  0  0  0  0  0  0  0  0  0
    6.3397   -8.5281    0.0000 N   0  0  0  0  0  0  0  0  0  0  0  0
    6.5829   -6.4072    0.0000 C   0  0  0  0  0  0  0  0  0  0  0  0
    7.9443   -6.8413    0.0000 O   0  0  0  0  0  0  0  0  0  0  0  0
    7.3889   -6.2313    0.0000 C   0  0  0  0  0  0  0  0  0  0  0  0
    7.6395   -5.4452    0.0000 N   0  0  0  0  0  0  0  0  0  0  0  0
    9.7528   -3.5213    0.0000 O   0  0  0  0  0  0  0  0  0  0  0  0
   10.0576   -4.9173    0.0000 O   0  0  0  0  0  0  0  0  0  0  0  0
    9.8070   -5.7033    0.0000 O   0  0  0  0  0  0  0  0  0  0  0  0
    8.7504   -6.6653    0.0000 O   0  0  0  0  0  0  0  0  0  0  0  0
    9.5022   -4.3073    0.0000 C   0  0  0  0  0  0  0  0  0  0  0  0
    8.6962   -4.4833    0.0000 C   0  0  0  0  0  0  0  0  0  0  0  0
    8.4456   -5.2693    0.0000 C   0  0  0  0  0  0  0  0  0  0  0  0
    9.0010   -5.8793    0.0000 C   0  0  0  0  0  0  0  0  0  0  0  0
 20 13  1  0  0  0  0
 13 12  1  0  0  0  0
 10  7  1  0  0  0  0
  6  1  2  0  0  0  0
  9  1  1  0  0  0  0
  2  1  1  0  0  0  0
  3  2  2  0  0  0  0
  4  3  1  0  0  0  0
  5  4  2  0  0  0  0
  6  5  1  0  0  0  0
  7  6  1  0  0  0  0
  8  7  2  0  0  0  0
  9  8  1  0  0  0  0
 12 10  1  0  0  0  0
 12 11  2  0  0  0  0
 18 14  1  0  0  0  0
 18 15  2  0  0  0  0
 21 16  1  0  0  0  0
 21 17  2  0  0  0  0
 19 18  1  0  0  0  0
 20 19  1  0  0  0  0
 21 20  1  0  0  0  0
M  END
>  <cdx:fragmentId>
3971

$$$$
