301876.cdx
  Mrv1902 05222410192D          

 29 30  0  0  0  0            999 V2000
    6.1512   -8.2225    0.0000 O   0  0  0  0  0  0  0  0  0  0  0  0
    6.1512   -9.0475    0.0000 C   0  0  0  0  0  0  0  0  0  0  0  0
    6.8656   -9.4600    0.0000 C   0  0  0  0  0  0  0  0  0  0  0  0
    7.5801   -9.0475    0.0000 C   0  0  0  0  0  0  0  0  0  0  0  0
    7.5801   -8.2225    0.0000 C   0  0  0  0  0  0  0  0  0  0  0  0
    6.8656   -7.8100    0.0000 C   0  0  0  0  0  0  0  0  0  0  0  0
    4.7222   -9.0475    0.0000 C   0  0  0  0  0  0  0  0  0  0  0  0
    5.4367   -9.4600    0.0000 C   0  0  0  0  0  0  0  0  0  0  0  0
    3.8972   -9.0475    0.0000 C   0  0  0  0  0  0  0  0  0  0  0  0
    3.4847   -8.3330    0.0000 C   0  0  0  0  0  0  0  0  0  0  0  0
    3.8972   -7.6186    0.0000 C   0  0  0  0  0  0  0  0  0  0  0  0
    4.7222   -7.6186    0.0000 C   0  0  0  0  0  0  0  0  0  0  0  0
    5.1347   -6.9041    0.0000 C   0  0  0  0  0  0  0  0  0  0  0  0
    5.9597   -6.9041    0.0000 C   0  0  0  0  0  0  0  0  0  0  0  0
    6.3722   -6.1896    0.0000 C   0  0  0  0  0  0  0  0  0  0  0  0
    7.1972   -6.1896    0.0000 C   0  0  0  0  0  0  0  0  0  0  0  0
    7.6097   -6.9041    0.0000 C   0  0  0  0  0  0  0  0  0  0  0  0
    8.4347   -6.9041    0.0000 C   0  0  0  0  0  0  0  0  0  0  0  0
    8.8472   -7.6186    0.0000 C   0  0  0  0  0  0  0  0  0  0  0  0
    8.4347   -8.3330    0.0000 C   0  0  0  0  0  0  0  0  0  0  0  0
    8.8005   -9.0725    0.0000 C   0  0  0  0  0  0  0  0  0  0  0  0
    9.6255   -9.0725    0.0000 C   0  0  0  0  0  0  0  0  0  0  0  0
   10.0380   -9.7870    0.0000 C   0  0  0  0  0  0  0  0  0  0  0  0
   10.8630   -9.7870    0.0000 C   0  0  0  0  0  0  0  0  0  0  0  0
   11.2755   -9.0725    0.0000 C   0  0  0  0  0  0  0  0  0  0  0  0
   10.8630   -8.3581    0.0000 C   0  0  0  0  0  0  0  0  0  0  0  0
   11.2755   -7.6436    0.0000 C   0  0  0  0  0  0  0  0  0  0  0  0
    6.8656   -6.9850    0.0000 O   0  0  0  0  0  0  0  0  0  0  0  0
    8.2946   -9.4600    0.0000 O   0  0  0  0  0  0  0  0  0  0  0  0
  1  2  1  0  0  0  0
  2  3  2  0  0  0  0
  3  4  1  0  0  0  0
  4  5  2  0  0  0  0
  5  6  1  0  0  0  0
  6  1  1  0  0  0  0
  7  8  1  0  0  0  0
  8  2  1  0  0  0  0
  7  9  1  0  0  0  0
  9 10  1  0  0  0  0
 10 11  1  0  0  0  0
 11 12  1  0  0  0  0
 12 13  1  0  0  0  0
 13 14  1  0  0  0  0
 14 15  1  0  0  0  0
 15 16  2  0  0  0  0
 16 17  1  0  0  0  0
 17 18  1  0  0  0  0
 18 19  2  0  0  0  0
 19 20  1  0  0  0  0
 20  5  1  0  0  0  0
 20 21  1  0  0  0  0
 21 22  2  0  0  0  0
 22 23  1  0  0  0  0
 23 24  1  0  0  0  0
 24 25  2  0  0  0  0
 25 26  1  0  0  0  0
 26 27  1  0  0  0  0
  6 28  2  0  0  0  0
  4 29  1  0  0  0  0
M  END
>  <cdx:fragmentId>
5

$$$$
