301854.cdx
  Mrv1902 05222410282D          

 12 13  0  0  0  0            999 V2000
    8.1395   -7.0554    0.0000 C   0  0  0  0  0  0  0  0  0  0  0  0
    8.8539   -6.6429    0.0000 C   0  0  0  0  0  0  0  0  0  0  0  0
    8.8539   -5.8179    0.0000 C   0  0  0  0  0  0  0  0  0  0  0  0
    8.1395   -5.4054    0.0000 C   0  0  0  0  0  0  0  0  0  0  0  0
    7.4250   -5.8179    0.0000 C   0  0  0  0  0  0  0  0  0  0  0  0
    6.7105   -5.4054    0.0000 C   0  0  0  0  0  0  0  0  0  0  0  0
    5.9961   -5.8179    0.0000 C   0  0  0  0  0  0  0  0  0  0  0  0
    5.9961   -6.6429    0.0000 C   0  0  0  0  0  0  0  0  0  0  0  0
    6.7105   -7.0554    0.0000 C   0  0  0  0  0  0  0  0  0  0  0  0
    7.4250   -6.6429    0.0000 C   0  0  0  0  0  0  0  0  0  0  0  0
    8.1395   -7.8804    0.0000 O   0  0  0  0  0  0  0  0  0  0  0  0
    8.1395   -4.5804    0.0000 O   0  0  0  0  0  0  0  0  0  0  0  0
  1  2  1  0  0  0  0
  2  3  2  0  0  0  0
  3  4  1  0  0  0  0
  4  5  1  0  0  0  0
  5  6  1  0  0  0  0
  6  7  2  0  0  0  0
  7  8  1  0  0  0  0
  8  9  2  0  0  0  0
  9 10  1  0  0  0  0
  1 10  1  0  0  0  0
  5 10  2  0  0  0  0
  1 11  2  0  0  0  0
  4 12  2  0  0  0  0
M  END
>  <cdx:groupId>
5854

>  <cdx:fragmentId>
5820

$$$$
