301834.cdx
  Mrv1902 05222410252D          

 18 17  0  0  0  0            999 V2000
    3.4954   -6.0791    0.0000 C   0  0  0  0  0  0  0  0  0  0  0  0
    2.7809   -6.4916    0.0000 C   0  0  0  0  0  0  0  0  0  0  0  0
    2.7809   -7.3166    0.0000 C   0  0  0  0  0  0  0  0  0  0  0  0
    3.4954   -5.2541    0.0000 O   0  0  0  0  0  0  0  0  0  0  0  0
    4.2099   -6.4916    0.0000 O   0  0  0  0  0  0  0  0  0  0  0  0
    2.0665   -6.0791    0.0000 C   0  0  0  0  0  0  0  0  0  0  0  0
    4.9244   -6.0791    0.0000 C   0  0  0  0  0  0  0  0  0  0  0  0
    5.6388   -6.4916    0.0000 C   0  0  0  0  0  0  0  0  0  0  0  0
    6.3533   -6.0791    0.0000 C   0  0  0  0  0  0  0  0  0  0  0  0
    7.0678   -6.4916    0.0000 C   0  0  0  0  0  0  0  0  0  0  0  0
    7.7822   -6.0791    0.0000 C   0  0  0  0  0  0  0  0  0  0  0  0
    8.4967   -6.4916    0.0000 C   0  0  0  0  0  0  0  0  0  0  0  0
    9.2112   -6.0791    0.0000 C   0  0  0  0  0  0  0  0  0  0  0  0
    9.9256   -6.4916    0.0000 C   0  0  0  0  0  0  0  0  0  0  0  0
   10.6401   -6.0791    0.0000 C   0  0  0  0  0  0  0  0  0  0  0  0
   11.3546   -6.4916    0.0000 C   0  0  0  0  0  0  0  0  0  0  0  0
   12.0691   -6.0791    0.0000 C   0  0  0  0  0  0  0  0  0  0  0  0
   12.7835   -6.4916    0.0000 C   0  0  0  0  0  0  0  0  0  0  0  0
  1  2  1  0  0  0  0
  2  3  2  0  0  0  0
  1  4  2  0  0  0  0
  1  5  1  0  0  0  0
  2  6  1  0  0  0  0
  7  8  1  0  0  0  0
  8  9  1  0  0  0  0
  9 10  1  0  0  0  0
 10 11  1  0  0  0  0
 11 12  1  0  0  0  0
 12 13  1  0  0  0  0
 13 14  1  0  0  0  0
 14 15  1  0  0  0  0
 15 16  1  0  0  0  0
 16 17  1  0  0  0  0
 17 18  1  0  0  0  0
  5  7  1  0  0  0  0
M  END
>  <cdx:groupId>
4749

>  <cdx:fragmentId>
4711

$$$$
