301813.cdx
  Mrv1902 05222410212D          

 28 30  0  0  0  0            999 V2000
    9.6882   -4.2738    0.0000 C   0  0  0  0  0  0  0  0  0  0  0  0
   10.1189   -4.9774    0.0000 C   0  0  0  0  0  0  0  0  0  0  0  0
    9.7249   -5.7022    0.0000 C   0  0  0  0  0  0  0  0  0  0  0  0
    8.9002   -5.7234    0.0000 C   0  0  0  0  0  0  0  0  0  0  0  0
    8.4695   -5.0198    0.0000 C   0  0  0  0  0  0  0  0  0  0  0  0
    8.8635   -4.2950    0.0000 C   0  0  0  0  0  0  0  0  0  0  0  0
   10.0823   -3.5490    0.0000 O   0  0  0  0  0  0  0  0  0  0  0  0
   10.1556   -6.4059    0.0000 O   0  0  0  0  0  0  0  0  0  0  0  0
    7.1771   -5.7206    0.0000 O   0  0  0  0  0  0  0  0  0  0  0  0
    7.6448   -5.0410    0.0000 C   0  0  0  0  0  0  0  0  0  0  0  0
    7.1429   -4.3862    0.0000 C   0  0  0  0  0  0  0  0  0  0  0  0
    6.3650   -4.6612    0.0000 C   0  0  0  0  0  0  0  0  0  0  0  0
    5.6402   -4.2672    0.0000 C   0  0  0  0  0  0  0  0  0  0  0  0
    4.9366   -4.6979    0.0000 C   0  0  0  0  0  0  0  0  0  0  0  0
    4.9577   -5.5226    0.0000 C   0  0  0  0  0  0  0  0  0  0  0  0
    5.6826   -5.9166    0.0000 C   0  0  0  0  0  0  0  0  0  0  0  0
    6.3862   -5.4859    0.0000 C   0  0  0  0  0  0  0  0  0  0  0  0
    4.2541   -5.9533    0.0000 O   0  0  0  0  0  0  0  0  0  0  0  0
    5.7037   -6.7413    0.0000 C   0  0  0  0  0  0  0  0  0  0  0  0
    5.0001   -7.1720    0.0000 C   0  0  0  0  0  0  0  0  0  0  0  0
    5.0213   -7.9968    0.0000 C   0  0  0  0  0  0  0  0  0  0  0  0
    4.3176   -8.4275    0.0000 C   0  0  0  0  0  0  0  0  0  0  0  0
    4.3388   -9.2522    0.0000 C   0  0  0  0  0  0  0  0  0  0  0  0
    3.6352   -9.6829    0.0000 C   0  0  0  0  0  0  0  0  0  0  0  0
    3.6563  -10.5076    0.0000 C   0  0  0  0  0  0  0  0  0  0  0  0
    4.3812  -10.9017    0.0000 C   0  0  0  0  0  0  0  0  0  0  0  0
    2.9527  -10.9383    0.0000 C   0  0  0  0  0  0  0  0  0  0  0  0
    5.7461   -8.3908    0.0000 C   0  0  0  0  0  0  0  0  0  0  0  0
  1  2  1  0  0  0  0
  2  3  2  0  0  0  0
  3  4  1  0  0  0  0
  4  5  2  0  0  0  0
  5  6  1  0  0  0  0
  1  6  2  0  0  0  0
  1  7  1  0  0  0  0
  3  8  1  0  0  0  0
  9 10  1  0  0  0  0
 10 11  2  0  0  0  0
 11 12  1  0  0  0  0
 12 13  1  0  0  0  0
 13 14  2  0  0  0  0
 14 15  1  0  0  0  0
 15 16  2  0  0  0  0
 16 17  1  0  0  0  0
 12 17  2  0  0  0  0
  9 17  1  0  0  0  0
 15 18  1  0  0  0  0
 19 20  1  0  0  0  0
 20 21  2  0  0  0  0
 21 22  1  0  0  0  0
 22 23  1  0  0  0  0
 23 24  1  0  0  0  0
 24 25  2  0  0  0  0
 25 26  1  0  0  0  0
 25 27  1  0  0  0  0
 21 28  1  0  0  0  0
 16 19  1  0  0  0  0
  5 10  1  0  0  0  0
M  END
>  <cdx:fragmentId>
2983

$$$$
