30182.cdx
  Mrv1902 05222410212D          

 12 12  0  0  0  0            999 V2000
    6.6152  -10.2358    0.0000 C   0  0  0  0  0  0  0  0  0  0  0  0
    6.6152  -11.0608    0.0000 C   0  0  0  0  0  0  0  0  0  0  0  0
    7.3297  -11.4733    0.0000 C   0  0  0  0  0  0  0  0  0  0  0  0
    8.0442  -11.0608    0.0000 C   0  0  0  0  0  0  0  0  0  0  0  0
    8.0442  -10.2358    0.0000 C   0  0  0  0  0  0  0  0  0  0  0  0
    7.3297   -9.8233    0.0000 C   0  0  0  0  0  0  0  0  0  0  0  0
    5.9008  -11.4733    0.0000 C   0  0  0  0  0  0  0  0  0  0  0  0
    5.1863  -11.0608    0.0000 C   0  0  0  0  0  0  0  0  0  0  0  0
    5.9008  -12.2983    0.0000 C   0  0  0  0  0  0  0  0  0  0  0  0
    7.3297   -8.9983    0.0000 C   0  0  0  0  0  0  0  0  0  0  0  0
    6.6152   -8.5858    0.0000 C   0  0  0  0  0  0  0  0  0  0  0  0
    8.0442   -8.5858    0.0000 C   0  0  0  0  0  0  0  0  0  0  0  0
  1  2  2  0  0  0  0
  2  3  1  0  0  0  0
  3  4  2  0  0  0  0
  4  5  1  0  0  0  0
  5  6  2  0  0  0  0
  6  1  1  0  0  0  0
  2  7  1  0  0  0  0
  7  8  2  0  0  0  0
  7  9  1  0  0  0  0
  6 10  1  0  0  0  0
 10 11  1  0  0  0  0
 10 12  1  0  0  0  0
M  END
>  <cdx:fragmentId>
5

$$$$
