301808.cdx
  Mrv1902 05222410252D          

 23 25  0  0  0  0            999 V2000
   10.8787   -7.4210    0.0000 C   0  0  0  0  0  0  0  0  0  0  0  0
   11.2912   -6.7065    0.0000 C   0  0  0  0  0  0  0  0  0  0  0  0
   10.8787   -5.9921    0.0000 C   0  0  0  0  0  0  0  0  0  0  0  0
   10.0537   -5.9921    0.0000 C   0  0  0  0  0  0  0  0  0  0  0  0
    9.6412   -6.7065    0.0000 C   0  0  0  0  0  0  0  0  0  0  0  0
   10.0537   -7.4210    0.0000 C   0  0  0  0  0  0  0  0  0  0  0  0
   11.2912   -8.1355    0.0000 O   0  0  0  0  0  0  0  0  0  0  0  0
   11.2912   -5.2776    0.0000 O   0  0  0  0  0  0  0  0  0  0  0  0
    8.3313   -7.3740    0.0000 O   0  0  0  0  0  0  0  0  0  0  0  0
    8.8162   -6.7065    0.0000 C   0  0  0  0  0  0  0  0  0  0  0  0
    8.3313   -6.0391    0.0000 C   0  0  0  0  0  0  0  0  0  0  0  0
    7.5467   -6.2940    0.0000 C   0  0  0  0  0  0  0  0  0  0  0  0
    6.8322   -5.8815    0.0000 C   0  0  0  0  0  0  0  0  0  0  0  0
    6.1177   -6.2940    0.0000 C   0  0  0  0  0  0  0  0  0  0  0  0
    6.1177   -7.1190    0.0000 C   0  0  0  0  0  0  0  0  0  0  0  0
    6.8322   -7.5315    0.0000 C   0  0  0  0  0  0  0  0  0  0  0  0
    7.5467   -7.1190    0.0000 C   0  0  0  0  0  0  0  0  0  0  0  0
    4.6888   -3.8190    0.0000 C   0  0  0  0  0  0  0  0  0  0  0  0
    5.4032   -7.5315    0.0000 O   0  0  0  0  0  0  0  0  0  0  0  0
    3.9743   -5.0565    0.0000 C   0  0  0  0  0  0  0  0  0  0  0  0
    4.6888   -4.6440    0.0000 C   0  0  0  0  0  0  0  0  0  0  0  0
    5.4032   -5.0565    0.0000 C   0  0  0  0  0  0  0  0  0  0  0  0
    5.4032   -5.8815    0.0000 C   0  0  0  0  0  0  0  0  0  0  0  0
 21 18  1  0  0  0  0
 21 20  1  0  0  0  0
 22 21  2  0  0  0  0
 23 22  1  0  0  0  0
  1  2  1  0  0  0  0
  2  3  2  0  0  0  0
  3  4  1  0  0  0  0
  4  5  2  0  0  0  0
  5  6  1  0  0  0  0
  1  6  2  0  0  0  0
  1  7  1  0  0  0  0
  3  8  1  0  0  0  0
  9 10  1  0  0  0  0
 10 11  2  0  0  0  0
 11 12  1  0  0  0  0
 12 13  1  0  0  0  0
 13 14  2  0  0  0  0
 14 15  1  0  0  0  0
 15 16  2  0  0  0  0
 16 17  1  0  0  0  0
 12 17  2  0  0  0  0
  9 17  1  0  0  0  0
 14 23  1  0  0  0  0
 15 19  1  0  0  0  0
  5 10  1  0  0  0  0
M  END
>  <cdx:fragmentId>
2658

$$$$
