301880.cdx
  Mrv1902 05222410272D          

 23 24  0  0  0  0            999 V2000
    6.7373   -4.5640    0.0000 O   0  0  0  0  0  0  0  0  0  0  0  0
    7.4532   -4.9740    0.0000 C   0  0  0  0  0  0  0  0  0  0  0  0
    7.4561   -5.7990    0.0000 C   0  0  1  0  0  0  0  0  0  0  0  0
    6.7430   -6.2140    0.0000 C   0  0  1  0  0  0  0  0  0  0  0  0
    6.0271   -5.8039    0.0000 C   0  0  1  0  0  0  0  0  0  0  0  0
    6.0243   -4.9790    0.0000 C   0  0  1  0  0  0  0  0  0  0  0  0
    8.1663   -4.5591    0.0000 O   0  0  0  0  0  0  0  0  0  0  0  0
    8.1719   -6.2091    0.0000 O   0  0  0  0  0  0  0  0  0  0  0  0
    5.3141   -6.2189    0.0000 O   0  0  0  0  0  0  0  0  0  0  0  0
    5.3084   -4.5689    0.0000 C   0  0  0  0  0  0  0  0  0  0  0  0
    4.5939   -4.9814    0.0000 O   0  0  0  0  0  0  0  0  0  0  0  0
    6.7515   -8.6890    0.0000 O   0  0  0  0  0  0  0  0  0  0  0  0
    5.3254   -9.5189    0.0000 O   0  0  0  0  0  0  0  0  0  0  0  0
    3.8937   -8.6988    0.0000 O   0  0  0  0  0  0  0  0  0  0  0  0
    3.1749   -7.4638    0.0000 O   0  0  0  0  0  0  0  0  0  0  0  0
    3.8880   -7.0488    0.0000 C   0  0  0  0  0  0  0  0  0  0  0  0
    4.6039   -7.4589    0.0000 C   0  0  2  0  0  0  0  0  0  0  0  0
    4.6067   -8.2838    0.0000 C   0  0  2  0  0  0  0  0  0  0  0  0
    5.3226   -8.6939    0.0000 C   0  0  1  0  0  0  0  0  0  0  0  0
    6.0356   -8.2789    0.0000 C   0  0  2  0  0  0  0  0  0  0  0  0
    6.0328   -7.4539    0.0000 C   0  0  2  0  0  0  0  0  0  0  0  0
    5.3169   -7.0439    0.0000 O   0  0  0  0  0  0  0  0  0  0  0  0
    6.7459   -7.0390    0.0000 O   0  0  0  0  0  0  0  0  0  0  0  0
 21 23  1  6  0  0  0
 20 12  1  6  0  0  0
 19 13  1  1  0  0  0
 18 14  1  6  0  0  0
 17 16  1  1  0  0  0
 16 15  1  0  0  0  0
 22 17  1  0  0  0  0
 18 17  1  0  0  0  0
 19 18  1  0  0  0  0
 20 19  1  0  0  0  0
 21 20  1  0  0  0  0
 22 21  1  0  0  0  0
  1  2  1  0  0  0  0
  2  3  1  0  0  0  0
  3  4  1  0  0  0  0
  4  5  1  0  0  0  0
  5  6  1  0  0  0  0
  1  6  1  0  0  0  0
  2  7  1  0  0  0  0
  3  8  1  6  0  0  0
  5  9  1  6  0  0  0
  4 23  1  6  0  0  0
 10 11  1  0  0  0  0
  6 10  1  1  0  0  0
M  END
>  <cdx:groupId>
1522

>  <cdx:fragmentId>
1475

$$$$
