301821.cdx
  Mrv1902 05222410252D          

 49 54  0  0  0  0            999 V2000
    5.0050   -9.0277    0.0000 H   0  0  0  0  0  0  0  0  0  0  0  0
    5.7065   -7.7779    0.0000 H   0  0  0  0  0  0  0  0  0  0  0  0
    7.0979   -5.2784    0.0000 H   0  0  0  0  0  0  0  0  0  0  0  0
    7.8051   -4.8535    0.0000 C   0  0  0  0  0  0  0  0  0  0  0  0
    8.5123   -4.4286    0.0000 C   0  0  0  0  0  0  0  0  0  0  0  0
    9.2338   -4.8286    0.0000 C   0  0  0  0  0  0  0  0  0  0  0  0
    9.2481   -5.6535    0.0000 C   0  0  0  0  0  0  0  0  0  0  0  0
    8.5410   -6.0784    0.0000 C   0  0  2  0  0  0  0  0  0  0  0  0
    8.5553   -6.9032    0.0000 C   0  0  0  0  0  0  0  0  0  0  0  0
    7.8481   -7.3281    0.0000 C   0  0  0  0  0  0  0  0  0  0  0  0
    7.1266   -6.9281    0.0000 C   0  0  1  0  0  0  0  0  0  0  0  0
    6.4194   -7.3530    0.0000 C   0  0  2  0  0  0  0  0  0  0  0  0
    6.4337   -8.1778    0.0000 C   0  0  0  0  0  0  0  0  0  0  0  0
    5.7266   -8.6027    0.0000 C   0  0  0  0  0  0  0  0  0  0  0  0
    5.0050   -8.2027    0.0000 C   0  0  1  0  0  0  0  0  0  0  0  0
    4.2978   -8.6276    0.0000 C   0  0  0  0  0  0  0  0  0  0  0  0
    3.5763   -8.2276    0.0000 C   0  0  2  0  0  0  0  0  0  0  0  0
    3.5619   -7.4027    0.0000 C   0  0  0  0  0  0  0  0  0  0  0  0
    4.2691   -6.9778    0.0000 C   0  0  0  0  0  0  0  0  0  0  0  0
    4.9907   -7.3778    0.0000 C   0  0  2  0  0  0  0  0  0  0  0  0
    5.6979   -6.9530    0.0000 C   0  0  1  0  0  0  0  0  0  0  0  0
    5.6835   -6.1281    0.0000 C   0  0  0  0  0  0  0  0  0  0  0  0
    6.3907   -5.7032    0.0000 C   0  0  0  0  0  0  0  0  0  0  0  0
    7.1122   -6.1032    0.0000 C   0  0  0  0  0  0  0  0  0  0  0  0
    7.8194   -5.6784    0.0000 C   0  0  2  0  0  0  0  0  0  0  0  0
    9.2625   -6.4784    0.0000 C   0  0  0  0  0  0  0  0  0  0  0  0
    9.2768   -7.3033    0.0000 O   0  0  0  0  0  0  0  0  0  0  0  0
    9.9697   -6.0535    0.0000 O   0  0  0  0  0  0  0  0  0  0  0  0
    4.9763   -6.5530    0.0000 C   0  0  0  0  0  0  0  0  0  0  0  0
    4.7227   -9.3348    0.0000 C   0  0  0  0  0  0  0  0  0  0  0  0
    3.8978   -9.3491    0.0000 C   0  0  0  0  0  0  0  0  0  0  0  0
    8.0874   -3.7214    0.0000 C   0  0  0  0  0  0  0  0  0  0  0  0
    8.9123   -3.7071    0.0000 C   0  0  0  0  0  0  0  0  0  0  0  0
    2.8691   -8.6524    0.0000 O   0  0  0  0  0  0  0  0  0  0  0  0
    7.1409   -7.7530    0.0000 C   0  0  0  0  0  0  0  0  0  0  0  0
    7.8625   -8.1530    0.0000 O   0  0  0  0  0  0  0  0  0  0  0  0
    7.8768   -8.9779    0.0000 C   0  0  0  0  0  0  0  0  0  0  0  0
    8.5984   -9.3779    0.0000 C   0  0  0  0  0  0  0  0  0  0  0  0
    8.6127  -10.2027    0.0000 C   0  0  0  0  0  0  0  0  0  0  0  0
    7.1696   -9.4027    0.0000 O   0  0  0  0  0  0  0  0  0  0  0  0
    9.3343  -10.6028    0.0000 C   0  0  0  0  0  0  0  0  0  0  0  0
   10.0414  -10.1779    0.0000 C   0  0  0  0  0  0  0  0  0  0  0  0
   10.7630  -10.5779    0.0000 C   0  0  0  0  0  0  0  0  0  0  0  0
   10.7773  -11.4028    0.0000 C   0  0  0  0  0  0  0  0  0  0  0  0
   10.0702  -11.8276    0.0000 C   0  0  0  0  0  0  0  0  0  0  0  0
    9.3486  -11.4276    0.0000 C   0  0  0  0  0  0  0  0  0  0  0  0
   11.4989  -11.8028    0.0000 O   0  0  0  0  0  0  0  0  0  0  0  0
   11.4702  -10.1530    0.0000 O   0  0  0  0  0  0  0  0  0  0  0  0
    6.4194   -6.5280    0.0000 C   0  0  0  0  0  0  0  0  0  0  0  0
 15  1  1  6  0  0  0
 21  2  1  6  0  0  0
 25  3  1  1  0  0  0
  4  5  1  0  0  0  0
  5  6  1  0  0  0  0
  6  7  1  0  0  0  0
  7  8  1  0  0  0  0
  8  9  1  0  0  0  0
  9 10  1  0  0  0  0
 10 11  1  0  0  0  0
 11 12  1  0  0  0  0
 12 13  1  0  0  0  0
 13 14  1  0  0  0  0
 14 15  1  0  0  0  0
 15 16  1  0  0  0  0
 16 17  1  0  0  0  0
 17 18  1  0  0  0  0
 18 19  1  0  0  0  0
 19 20  1  0  0  0  0
 15 20  1  0  0  0  0
 20 21  1  0  0  0  0
 12 21  1  0  0  0  0
 21 22  1  0  0  0  0
 22 23  1  0  0  0  0
 23 24  2  0  0  0  0
 11 24  1  0  0  0  0
 24 25  1  0  0  0  0
  8 25  1  0  0  0  0
  4 25  1  0  0  0  0
 26 27  2  0  0  0  0
 26 28  1  0  0  0  0
  8 26  1  1  0  0  0
 20 29  1  1  0  0  0
 16 30  1  0  0  0  0
 16 31  1  0  0  0  0
  5 32  1  0  0  0  0
  5 33  1  0  0  0  0
 17 34  1  1  0  0  0
 37 38  1  0  0  0  0
 38 39  2  0  0  0  0
 37 40  2  0  0  0  0
 36 37  1  0  0  0  0
 41 42  1  0  0  0  0
 42 43  2  0  0  0  0
 43 44  1  0  0  0  0
 44 45  2  0  0  0  0
 45 46  1  0  0  0  0
 41 46  2  0  0  0  0
 44 47  1  0  0  0  0
 43 48  1  0  0  0  0
 39 41  1  0  0  0  0
 35 36  1  0  0  0  0
 11 35  1  6  0  0  0
 12 49  1  1  0  0  0
M  END
>  <cdx:fragmentId>
3688

$$$$
