301897.cdx
  Mrv1902 05222410192D          

 25 28  0  0  0  0            999 V2000
    5.7338   -6.4894    0.0000 C   0  0  0  0  0  0  0  0  0  0  0  0
    5.0193   -6.9019    0.0000 C   0  0  0  0  0  0  0  0  0  0  0  0
    5.0193   -7.7269    0.0000 C   0  0  0  0  0  0  0  0  0  0  0  0
    5.7338   -8.1394    0.0000 C   0  0  0  0  0  0  0  0  0  0  0  0
    6.4482   -7.7269    0.0000 C   0  0  0  0  0  0  0  0  0  0  0  0
    7.1627   -8.1394    0.0000 C   0  0  0  0  0  0  0  0  0  0  0  0
    7.8772   -7.7269    0.0000 C   0  0  0  0  0  0  0  0  0  0  0  0
    7.8772   -6.9019    0.0000 C   0  0  1  0  0  0  0  0  0  0  0  0
    8.5916   -6.4894    0.0000 C   0  0  2  0  0  0  0  0  0  0  0  0
    9.3763   -6.7443    0.0000 C   0  0  0  0  0  0  0  0  0  0  0  0
    9.8612   -6.0769    0.0000 C   0  0  0  0  0  0  0  0  0  0  0  0
    9.3763   -5.4095    0.0000 C   0  0  1  0  0  0  0  0  0  0  0  0
    8.5916   -5.6644    0.0000 C   0  0  1  0  0  0  0  0  0  0  0  0
    7.8772   -5.2519    0.0000 C   0  0  0  0  0  0  0  0  0  0  0  0
    7.1627   -5.6644    0.0000 C   0  0  0  0  0  0  0  0  0  0  0  0
    7.1627   -6.4894    0.0000 C   0  0  2  0  0  0  0  0  0  0  0  0
    6.4482   -6.9019    0.0000 C   0  0  0  0  0  0  0  0  0  0  0  0
    4.3048   -8.1394    0.0000 O   0  0  0  0  0  0  0  0  0  0  0  0
    8.6779   -4.8439    0.0000 C   0  0  0  0  0  0  0  0  0  0  0  0
    9.2047   -4.6025    0.0000 O   0  0  0  0  0  0  0  0  0  0  0  0
    9.9894   -4.8574    0.0000 C   0  0  0  0  0  0  0  0  0  0  0  0
   10.5727   -4.2741    0.0000 C   0  0  0  0  0  0  0  0  0  0  0  0
    7.8772   -6.0769    0.0000 H   0  0  0  0  0  0  0  0  0  0  0  0
    7.1627   -7.3144    0.0000 H   0  0  0  0  0  0  0  0  0  0  0  0
    8.5916   -7.3144    0.0000 H   0  0  0  0  0  0  0  0  0  0  0  0
  1  2  1  0  0  0  0
  2  3  1  0  0  0  0
  3  4  1  0  0  0  0
  4  5  1  0  0  0  0
  5  6  1  0  0  0  0
  6  7  1  0  0  0  0
  7  8  1  0  0  0  0
  8  9  1  0  0  0  0
  9 10  1  0  0  0  0
 10 11  1  0  0  0  0
 11 12  1  0  0  0  0
 12 13  1  0  0  0  0
  9 13  1  0  0  0  0
 13 14  1  0  0  0  0
 14 15  1  0  0  0  0
 15 16  1  0  0  0  0
  8 16  1  0  0  0  0
 16 17  1  0  0  0  0
  5 17  2  0  0  0  0
  1 17  1  0  0  0  0
  3 18  2  0  0  0  0
 13 19  1  1  0  0  0
 12 20  1  1  0  0  0
 21 22  3  0  0  0  0
 12 21  1  6  0  0  0
  8 23  1  1  0  0  0
 16 24  1  6  0  0  0
  9 25  1  6  0  0  0
M  END
>  <cdx:groupId>
373

>  <cdx:fragmentId>
298

$$$$
