301885.cdx
  Mrv1902 05222410272D          

 23 25  0  0  0  0            999 V2000
    7.5745   -6.4366    0.0000 C   0  0  0  0  0  0  0  0  0  0  0  0
    7.5745   -5.6116    0.0000 C   0  0  0  0  0  0  0  0  0  0  0  0
    6.8600   -5.1991    0.0000 C   0  0  0  0  0  0  0  0  0  0  0  0
    6.1455   -5.6116    0.0000 C   0  0  0  0  0  0  0  0  0  0  0  0
    5.4311   -5.1991    0.0000 C   0  0  0  0  0  0  0  0  0  0  0  0
    4.7166   -5.6116    0.0000 C   0  0  0  0  0  0  0  0  0  0  0  0
    4.7166   -6.4366    0.0000 C   0  0  0  0  0  0  0  0  0  0  0  0
    5.4311   -6.8491    0.0000 C   0  0  0  0  0  0  0  0  0  0  0  0
    6.1455   -6.4366    0.0000 C   0  0  0  0  0  0  0  0  0  0  0  0
    6.8600   -6.8491    0.0000 O   0  0  0  0  0  0  0  0  0  0  0  0
    6.8600   -4.3741    0.0000 O   0  0  0  0  0  0  0  0  0  0  0  0
    8.2890   -6.8491    0.0000 C   0  0  0  0  0  0  0  0  0  0  0  0
    9.0034   -6.4366    0.0000 C   0  0  0  0  0  0  0  0  0  0  0  0
    9.7179   -6.8491    0.0000 C   0  0  0  0  0  0  0  0  0  0  0  0
    9.7179   -7.6741    0.0000 C   0  0  0  0  0  0  0  0  0  0  0  0
    9.0034   -8.0866    0.0000 C   0  0  0  0  0  0  0  0  0  0  0  0
    8.2890   -7.6741    0.0000 C   0  0  0  0  0  0  0  0  0  0  0  0
   10.4324   -6.4366    0.0000 O   0  0  0  0  0  0  0  0  0  0  0  0
   11.1468   -6.8491    0.0000 C   0  0  0  0  0  0  0  0  0  0  0  0
   10.4324   -8.0866    0.0000 O   0  0  0  0  0  0  0  0  0  0  0  0
    4.0021   -6.8491    0.0000 O   0  0  0  0  0  0  0  0  0  0  0  0
    4.0021   -5.1991    0.0000 O   0  0  0  0  0  0  0  0  0  0  0  0
    5.4311   -4.3741    0.0000 O   0  0  0  0  0  0  0  0  0  0  0  0
  1  2  2  0  0  0  0
  2  3  1  0  0  0  0
  3  4  1  0  0  0  0
  4  5  1  0  0  0  0
  5  6  2  0  0  0  0
  6  7  1  0  0  0  0
  7  8  2  0  0  0  0
  8  9  1  0  0  0  0
  4  9  2  0  0  0  0
  9 10  1  0  0  0  0
  1 10  1  0  0  0  0
  3 11  2  0  0  0  0
 12 13  1  0  0  0  0
 13 14  2  0  0  0  0
 14 15  1  0  0  0  0
 15 16  2  0  0  0  0
 16 17  1  0  0  0  0
 12 17  2  0  0  0  0
 18 19  1  0  0  0  0
 14 18  1  0  0  0  0
 15 20  1  0  0  0  0
  1 12  1  0  0  0  0
  7 21  1  0  0  0  0
  6 22  1  0  0  0  0
  5 23  1  0  0  0  0
M  END
>  <cdx:groupId>
1946

>  <cdx:fragmentId>
1878

$$$$
