301882.cdx
  Mrv1902 05222410282D          

 14 14  0  0  0  0            999 V2000
    7.9306   -7.6433    0.0000 C   0  0  0  0  0  0  0  0  0  0  0  0
    7.2085   -3.9322    0.0000 C   0  0  0  0  0  0  0  0  0  0  0  0
    7.9238   -4.3433    0.0000 C   0  0  0  0  0  0  0  0  0  0  0  0
    8.6375   -3.9293    0.0000 C   0  0  0  0  0  0  0  0  0  0  0  0
    7.2136   -6.4072    0.0000 C   0  0  0  0  0  0  0  0  0  0  0  0
    7.9289   -6.8183    0.0000 C   0  0  1  0  0  0  0  0  0  0  0  0
    8.6425   -6.4043    0.0000 C   0  0  0  0  0  0  0  0  0  0  0  0
    8.6408   -5.5793    0.0000 C   0  0  0  0  0  0  0  0  0  0  0  0
    7.9255   -5.1683    0.0000 C   0  0  2  0  0  0  0  0  0  0  0  0
    7.2119   -5.5822    0.0000 C   0  0  1  0  0  0  0  0  0  0  0  0
    6.4966   -5.1712    0.0000 O   0  0  0  0  0  0  0  0  0  0  0  0
    5.7846   -6.4101    0.0000 O   0  0  0  0  0  0  0  0  0  0  0  0
    5.0676   -5.1741    0.0000 C   0  0  0  0  0  0  0  0  0  0  0  0
    5.7829   -5.5851    0.0000 C   0  0  0  0  0  0  0  0  0  0  0  0
 10 11  1  6  0  0  0
  6  1  1  1  0  0  0
  9  3  1  6  0  0  0
  3  2  1  0  0  0  0
  4  3  1  0  0  0  0
 10  5  1  0  0  0  0
  6  5  1  0  0  0  0
  7  6  1  0  0  0  0
  8  7  1  0  0  0  0
  9  8  1  0  0  0  0
 10  9  1  0  0  0  0
 14 11  1  0  0  0  0
 14 12  2  0  0  0  0
 14 13  1  0  0  0  0
M  END
>  <cdx:fragmentId>
1655

$$$$
