301806.cdx
  Mrv1902 05222410202D          

 21 23  0  0  0  0            999 V2000
    7.3572   -7.3103    0.0000 O   0  0  0  0  0  0  0  0  0  0  0  0
    7.8422   -6.6429    0.0000 C   0  0  0  0  0  0  0  0  0  0  0  0
    7.3572   -5.9754    0.0000 C   0  0  0  0  0  0  0  0  0  0  0  0
    6.5726   -6.2304    0.0000 C   0  0  0  0  0  0  0  0  0  0  0  0
    5.8581   -5.8179    0.0000 C   0  0  0  0  0  0  0  0  0  0  0  0
    5.1437   -6.2304    0.0000 C   0  0  0  0  0  0  0  0  0  0  0  0
    5.1437   -7.0554    0.0000 C   0  0  0  0  0  0  0  0  0  0  0  0
    5.8581   -7.4679    0.0000 C   0  0  0  0  0  0  0  0  0  0  0  0
    6.5726   -7.0554    0.0000 C   0  0  0  0  0  0  0  0  0  0  0  0
    4.4292   -5.8179    0.0000 O   0  0  0  0  0  0  0  0  0  0  0  0
    4.4292   -7.4679    0.0000 O   0  0  0  0  0  0  0  0  0  0  0  0
    3.7147   -7.0554    0.0000 C   0  0  0  0  0  0  0  0  0  0  0  0
   10.3172   -5.2139    0.0000 O   0  0  0  0  0  0  0  0  0  0  0  0
   11.1422   -8.0718    0.0000 C   0  0  0  0  0  0  0  0  0  0  0  0
   10.3172   -8.0718    0.0000 O   0  0  0  0  0  0  0  0  0  0  0  0
    9.0797   -7.3573    0.0000 C   0  0  0  0  0  0  0  0  0  0  0  0
    9.9047   -7.3573    0.0000 C   0  0  0  0  0  0  0  0  0  0  0  0
   10.3172   -6.6429    0.0000 C   0  0  0  0  0  0  0  0  0  0  0  0
    9.9047   -5.9284    0.0000 C   0  0  0  0  0  0  0  0  0  0  0  0
    9.0797   -5.9284    0.0000 C   0  0  0  0  0  0  0  0  0  0  0  0
    8.6672   -6.6429    0.0000 C   0  0  0  0  0  0  0  0  0  0  0  0
 19 13  1  0  0  0  0
 17 15  1  0  0  0  0
 15 14  1  0  0  0  0
 21 16  2  0  0  0  0
 17 16  1  0  0  0  0
 18 17  2  0  0  0  0
 19 18  1  0  0  0  0
 20 19  2  0  0  0  0
 21 20  1  0  0  0  0
  1  2  1  0  0  0  0
  2  3  2  0  0  0  0
  3  4  1  0  0  0  0
  4  5  1  0  0  0  0
  5  6  2  0  0  0  0
  6  7  1  0  0  0  0
  7  8  2  0  0  0  0
  8  9  1  0  0  0  0
  4  9  2  0  0  0  0
  1  9  1  0  0  0  0
  6 10  1  0  0  0  0
 11 12  1  0  0  0  0
  7 11  1  0  0  0  0
  2 21  1  0  0  0  0
M  END
>  <cdx:fragmentId>
2492

$$$$
