301820.cdx
  Mrv1902 05222410252D          

 53 56  0  0  0  0            999 V2000
    4.6628   -7.4274    0.0000 C   0  0  2  0  0  0  0  0  0  0  0  0
    5.3773   -7.0149    0.0000 C   0  0  1  0  0  0  0  0  0  0  0  0
    6.0918   -7.4274    0.0000 C   0  0  2  0  0  0  0  0  0  0  0  0
    6.5043   -6.7129    0.0000 O   0  0  0  0  0  0  0  0  0  0  0  0
    7.3293   -6.7129    0.0000 C   0  0  0  0  0  0  0  0  0  0  0  0
    7.7418   -7.4274    0.0000 C   0  0  0  0  0  0  0  0  0  0  0  0
    7.3293   -8.1419    0.0000 C   0  0  0  0  0  0  0  0  0  0  0  0
    8.0437   -8.5544    0.0000 C   0  0  1  0  0  0  0  0  0  0  0  0
    8.0437   -9.3794    0.0000 C   0  0  2  0  0  0  0  0  0  0  0  0
    7.3293   -9.7919    0.0000 C   0  0  2  0  0  0  0  0  0  0  0  0
    6.6148   -9.3794    0.0000 C   0  0  0  0  0  0  0  0  0  0  0  0
    6.2023  -10.0938    0.0000 C   0  0  2  0  0  0  0  0  0  0  0  0
    5.3773  -10.0938    0.0000 C   0  0  0  0  0  0  0  0  0  0  0  0
    4.9648   -9.3794    0.0000 C   0  0  0  0  0  0  0  0  0  0  0  0
    5.3773   -8.6649    0.0000 C   0  0  0  0  0  0  0  0  0  0  0  0
    4.6628   -8.2524    0.0000 C   0  0  1  0  0  0  0  0  0  0  0  0
    3.9484   -7.8399    0.0000 O   0  0  0  0  0  0  0  0  0  0  0  0
    7.7418   -5.9985    0.0000 O   0  0  0  0  0  0  0  0  0  0  0  0
    4.9648  -10.8083    0.0000 O   0  0  0  0  0  0  0  0  0  0  0  0
    6.6148  -10.8083    0.0000 C   0  0  0  0  0  0  0  0  0  0  0  0
    7.3293  -10.6169    0.0000 C   0  0  0  0  0  0  0  0  0  0  0  0
    8.7582   -8.1419    0.0000 C   0  0  0  0  0  0  0  0  0  0  0  0
    5.3773   -6.1899    0.0000 C   0  0  0  0  0  0  0  0  0  0  0  0
    4.6628   -5.7774    0.0000 O   0  0  0  0  0  0  0  0  0  0  0  0
    5.3773   -4.5399    0.0000 O   0  0  0  0  0  0  0  0  0  0  0  0
    4.6628   -4.9524    0.0000 C   0  0  2  0  0  0  0  0  0  0  0  0
    3.9484   -4.5399    0.0000 C   0  0  1  0  0  0  0  0  0  0  0  0
    3.9484   -3.7149    0.0000 C   0  0  1  0  0  0  0  0  0  0  0  0
    4.6628   -3.3024    0.0000 C   0  0  1  0  0  0  0  0  0  0  0  0
    5.3773   -3.7149    0.0000 C   0  0  1  0  0  0  0  0  0  0  0  0
    6.0918   -3.3024    0.0000 C   0  0  0  0  0  0  0  0  0  0  0  0
    3.2339   -3.3024    0.0000 O   0  0  0  0  0  0  0  0  0  0  0  0
    2.5194   -3.7149    0.0000 C   0  0  0  0  0  0  0  0  0  0  0  0
    3.2339   -4.9524    0.0000 O   0  0  0  0  0  0  0  0  0  0  0  0
    2.5194   -4.5399    0.0000 C   0  0  0  0  0  0  0  0  0  0  0  0
    4.6628   -2.4774    0.0000 O   0  0  0  0  0  0  0  0  0  0  0  0
    6.0918   -6.6024    0.0000 O   0  0  0  0  0  0  0  0  0  0  0  0
    6.3053   -8.2243    0.0000 C   0  0  0  0  0  0  0  0  0  0  0  0
    6.9030   -8.3844    0.0000 C   0  0  0  0  0  0  0  0  0  0  0  0
    8.7582   -9.7919    0.0000 O   0  0  0  0  0  0  0  0  0  0  0  0
    9.4727   -8.5544    0.0000 O   0  0  0  0  0  0  0  0  0  0  0  0
    9.4727   -9.3794    0.0000 C   0  0  2  0  0  0  0  0  0  0  0  0
   10.1872   -9.7919    0.0000 C   0  0  1  0  0  0  0  0  0  0  0  0
   10.9016   -9.3794    0.0000 C   0  0  2  0  0  0  0  0  0  0  0  0
   10.9016   -8.5544    0.0000 C   0  0  0  0  0  0  0  0  0  0  0  0
   10.1872   -8.1419    0.0000 C   0  0  1  0  0  0  0  0  0  0  0  0
   10.1872   -7.3169    0.0000 C   0  0  0  0  0  0  0  0  0  0  0  0
   10.1872  -10.6169    0.0000 O   0  0  0  0  0  0  0  0  0  0  0  0
   11.6161   -9.7919    0.0000 N   0  0  0  0  0  0  0  0  0  0  0  0
   11.6161  -10.6169    0.0000 C   0  0  0  0  0  0  0  0  0  0  0  0
   12.3306   -9.3794    0.0000 C   0  0  0  0  0  0  0  0  0  0  0  0
    4.2503   -6.7129    0.0000 H   0  0  0  0  0  0  0  0  0  0  0  0
    4.2503   -8.9669    0.0000 H   0  0  0  0  0  0  0  0  0  0  0  0
  1  2  1  0  0  0  0
  2  3  1  0  0  0  0
  3  4  1  0  0  0  0
  4  5  1  0  0  0  0
  5  6  1  0  0  0  0
  6  7  2  0  0  0  0
  7  8  1  0  0  0  0
  8  9  1  0  0  0  0
  9 10  1  0  0  0  0
 10 11  1  0  0  0  0
 11 12  1  0  0  0  0
 12 13  1  0  0  0  0
 13 14  1  0  0  0  0
 14 15  2  0  0  0  0
 15 16  1  0  0  0  0
 16 17  1  0  0  0  0
  1 17  1  0  0  0  0
  1 16  1  0  0  0  0
  5 18  2  0  0  0  0
 13 19  2  0  0  0  0
 12 20  1  1  0  0  0
 10 21  1  1  0  0  0
  8 22  1  6  0  0  0
 25 26  1  0  0  0  0
 26 27  1  0  0  0  0
 27 28  1  0  0  0  0
 28 29  1  0  0  0  0
 29 30  1  0  0  0  0
 25 30  1  0  0  0  0
 30 31  1  1  0  0  0
 32 33  1  0  0  0  0
 28 32  1  6  0  0  0
 34 35  1  0  0  0  0
 27 34  1  6  0  0  0
 29 36  1  6  0  0  0
 26 24  1  1  0  0  0
 23 24  1  0  0  0  0
  2 23  1  0  0  0  0
  2 37  1  1  0  0  0
 38 39  1  0  0  0  0
  3 38  1  6  0  0  0
 41 42  1  0  0  0  0
 42 43  1  0  0  0  0
 43 44  1  0  0  0  0
 44 45  1  0  0  0  0
 45 46  1  0  0  0  0
 41 46  1  0  0  0  0
 46 47  1  6  0  0  0
 43 48  1  1  0  0  0
 49 50  1  0  0  0  0
 49 51  1  0  0  0  0
 44 49  1  6  0  0  0
 42 40  1  6  0  0  0
  9 40  1  1  0  0  0
  1 52  1  1  0  0  0
 16 53  1  6  0  0  0
M  END
>  <cdx:groupId>
3675

>  <cdx:fragmentId>
3516

$$$$
