301874.cdx
  Mrv1902 05222410202D          

 25 26  0  0  0  0            999 V2000
    6.3031   -6.8466    0.0000 C   0  0  0  0  0  0  0  0  0  0  0  0
    5.5886   -7.2591    0.0000 C   0  0  0  0  0  0  0  0  0  0  0  0
    4.8742   -6.8466    0.0000 C   0  0  0  0  0  0  0  0  0  0  0  0
    4.1597   -7.2591    0.0000 C   0  0  0  0  0  0  0  0  0  0  0  0
    3.4452   -6.8466    0.0000 C   0  0  0  0  0  0  0  0  0  0  0  0
    6.3031   -6.0216    0.0000 O   0  0  0  0  0  0  0  0  0  0  0  0
    7.0176   -7.2591    0.0000 O   0  0  0  0  0  0  0  0  0  0  0  0
    4.8742   -6.0216    0.0000 C   0  0  0  0  0  0  0  0  0  0  0  0
   10.5899   -6.8466    0.0000 O   0  0  0  0  0  0  0  0  0  0  0  0
   10.5899   -6.0216    0.0000 C   0  0  0  0  0  0  0  0  0  0  0  0
    9.8755   -5.6091    0.0000 C   0  0  0  0  0  0  0  0  0  0  0  0
    9.1610   -6.0216    0.0000 C   0  0  0  0  0  0  0  0  0  0  0  0
    8.4465   -5.6091    0.0000 C   0  0  0  0  0  0  0  0  0  0  0  0
    7.7320   -6.0216    0.0000 C   0  0  0  0  0  0  0  0  0  0  0  0
    7.7320   -6.8466    0.0000 C   0  0  0  0  0  0  0  0  0  0  0  0
    8.4465   -7.2591    0.0000 C   0  0  0  0  0  0  0  0  0  0  0  0
    9.1610   -6.8466    0.0000 C   0  0  0  0  0  0  0  0  0  0  0  0
    9.8755   -7.2591    0.0000 C   0  0  0  0  0  0  0  0  0  0  0  0
    7.7320   -4.3716    0.0000 C   0  0  0  0  0  0  0  0  0  0  0  0
    8.4465   -4.7841    0.0000 C   0  0  0  0  0  0  0  0  0  0  0  0
    9.1610   -4.3716    0.0000 C   0  0  0  0  0  0  0  0  0  0  0  0
   11.3044   -5.6091    0.0000 O   0  0  0  0  0  0  0  0  0  0  0  0
    8.4465   -8.0841    0.0000 C   0  0  0  0  0  0  0  0  0  0  0  0
    9.8755   -4.7841    0.0000 C   0  0  0  0  0  0  0  0  0  0  0  0
   10.5899   -4.3716    0.0000 C   0  0  0  0  0  0  0  0  0  0  0  0
  1  2  1  0  0  0  0
  2  3  2  0  0  0  0
  3  4  1  0  0  0  0
  4  5  1  0  0  0  0
  1  6  2  0  0  0  0
  1  7  1  0  0  0  0
  3  8  1  0  0  0  0
  9 10  1  0  0  0  0
 10 11  1  0  0  0  0
 11 12  1  0  0  0  0
 12 13  1  0  0  0  0
 13 14  2  0  0  0  0
 14 15  1  0  0  0  0
 15 16  1  0  0  0  0
 16 17  1  0  0  0  0
 12 17  1  0  0  0  0
 17 18  1  0  0  0  0
  9 18  1  0  0  0  0
 19 20  1  0  0  0  0
 20 21  1  0  0  0  0
 13 20  1  0  0  0  0
 10 22  2  0  0  0  0
 16 23  2  0  0  0  0
 24 25  1  0  0  0  0
 11 24  2  0  0  0  0
  7 15  1  0  0  0  0
M  END
>  <cdx:groupId>
1060

>  <cdx:fragmentId>
1003

$$$$
