301812.cdx
  Mrv1902 05222410202D          

 29 31  0  0  0  0            999 V2000
    9.9215   -4.8102    0.0000 C   0  0  0  0  0  0  0  0  0  0  0  0
   10.3489   -5.5158    0.0000 C   0  0  0  0  0  0  0  0  0  0  0  0
    9.9516   -6.2388    0.0000 C   0  0  0  0  0  0  0  0  0  0  0  0
    9.1268   -6.2562    0.0000 C   0  0  0  0  0  0  0  0  0  0  0  0
    8.6993   -5.5506    0.0000 C   0  0  0  0  0  0  0  0  0  0  0  0
    9.0966   -4.8276    0.0000 C   0  0  0  0  0  0  0  0  0  0  0  0
   10.3188   -4.0871    0.0000 O   0  0  0  0  0  0  0  0  0  0  0  0
   10.3791   -6.9444    0.0000 O   0  0  0  0  0  0  0  0  0  0  0  0
    7.4037   -6.2455    0.0000 O   0  0  0  0  0  0  0  0  0  0  0  0
    7.8745   -5.5680    0.0000 C   0  0  0  0  0  0  0  0  0  0  0  0
    7.3756   -4.9109    0.0000 C   0  0  0  0  0  0  0  0  0  0  0  0
    6.5965   -5.1823    0.0000 C   0  0  0  0  0  0  0  0  0  0  0  0
    5.8735   -4.7850    0.0000 C   0  0  0  0  0  0  0  0  0  0  0  0
    5.1679   -5.2125    0.0000 C   0  0  0  0  0  0  0  0  0  0  0  0
    5.1853   -6.0373    0.0000 C   0  0  0  0  0  0  0  0  0  0  0  0
    5.9083   -6.4346    0.0000 C   0  0  0  0  0  0  0  0  0  0  0  0
    6.6139   -6.0071    0.0000 C   0  0  0  0  0  0  0  0  0  0  0  0
    4.4797   -6.4648    0.0000 O   0  0  0  0  0  0  0  0  0  0  0  0
    3.7652   -6.0523    0.0000 C   0  0  0  0  0  0  0  0  0  0  0  0
    5.9257   -7.2594    0.0000 C   0  0  0  0  0  0  0  0  0  0  0  0
    5.2201   -7.6869    0.0000 C   0  0  0  0  0  0  0  0  0  0  0  0
    5.2375   -8.5117    0.0000 C   0  0  0  0  0  0  0  0  0  0  0  0
    4.5319   -8.9392    0.0000 C   0  0  0  0  0  0  0  0  0  0  0  0
    4.5493   -9.7640    0.0000 C   0  0  0  0  0  0  0  0  0  0  0  0
    3.8437  -10.1915    0.0000 C   0  0  0  0  0  0  0  0  0  0  0  0
    3.8611  -11.0163    0.0000 C   0  0  0  0  0  0  0  0  0  0  0  0
    4.5841  -11.4136    0.0000 C   0  0  0  0  0  0  0  0  0  0  0  0
    3.1554  -11.4438    0.0000 C   0  0  0  0  0  0  0  0  0  0  0  0
    5.9605   -8.9091    0.0000 C   0  0  0  0  0  0  0  0  0  0  0  0
  1  2  1  0  0  0  0
  2  3  2  0  0  0  0
  3  4  1  0  0  0  0
  4  5  2  0  0  0  0
  5  6  1  0  0  0  0
  1  6  2  0  0  0  0
  1  7  1  0  0  0  0
  3  8  1  0  0  0  0
  9 10  1  0  0  0  0
 10 11  2  0  0  0  0
 11 12  1  0  0  0  0
 12 13  1  0  0  0  0
 13 14  2  0  0  0  0
 14 15  1  0  0  0  0
 15 16  2  0  0  0  0
 16 17  1  0  0  0  0
 12 17  2  0  0  0  0
  9 17  1  0  0  0  0
 18 19  1  0  0  0  0
 15 18  1  0  0  0  0
 20 21  1  0  0  0  0
 21 22  2  0  0  0  0
 22 23  1  0  0  0  0
 23 24  1  0  0  0  0
 24 25  1  0  0  0  0
 25 26  2  0  0  0  0
 26 27  1  0  0  0  0
 26 28  1  0  0  0  0
 22 29  1  0  0  0  0
 16 20  1  0  0  0  0
  5 10  1  0  0  0  0
M  END
>  <cdx:fragmentId>
2884

$$$$
