301865.cdx
  Mrv1902 05222410182D          

 37 42  0  0  0  0            999 V2000
   12.9541   -9.8450    0.0000 C   0  0  1  0  0  0  0  0  0  0  0  0
   12.9541   -9.0200    0.0000 C   0  0  1  0  0  0  0  0  0  0  0  0
   13.6685   -8.6075    0.0000 C   0  0  0  0  0  0  0  0  0  0  0  0
   13.6685  -10.2575    0.0000 C   0  0  0  0  0  0  0  0  0  0  0  0
   14.3830   -9.8450    0.0000 C   0  0  2  0  0  0  0  0  0  0  0  0
   15.0975  -10.2575    0.0000 C   0  0  0  0  0  0  0  0  0  0  0  0
   15.8119   -9.8450    0.0000 C   0  0  0  0  0  0  0  0  0  0  0  0
   15.8119   -9.0200    0.0000 C   0  0  1  0  0  0  0  0  0  0  0  0
   16.5264   -8.6075    0.0000 C   0  0  2  0  0  0  0  0  0  0  0  0
   17.3110   -8.8624    0.0000 C   0  0  0  0  0  0  0  0  0  0  0  0
   17.7960   -8.1950    0.0000 C   0  0  2  0  0  0  0  0  0  0  0  0
   18.2809   -8.8624    0.0000 H   0  0  0  0  0  0  0  0  0  0  0  0
   18.5806   -7.9400    0.0000 O   0  0  0  0  0  0  0  0  0  0  0  0
   17.3110   -7.5275    0.0000 C   0  0  2  0  0  0  0  0  0  0  0  0
   16.9494   -6.7860    0.0000 H   0  0  0  0  0  0  0  0  0  0  0  0
   17.7960   -6.8601    0.0000 C   0  0  1  0  0  0  0  0  0  0  0  0
   18.5806   -7.1150    0.0000 C   0  0  2  0  0  0  0  0  0  0  0  0
   18.4943   -6.2946    0.0000 O   0  0  0  0  0  0  0  0  0  0  0  0
   19.3343   -7.4506    0.0000 C   0  0  0  0  0  0  0  0  0  0  0  0
   20.0017   -6.9657    0.0000 C   0  0  0  0  0  0  0  0  0  0  0  0
   19.9155   -6.1452    0.0000 C   0  0  1  0  0  0  0  0  0  0  0  0
   19.1618   -5.8096    0.0000 C   0  0  0  0  0  0  0  0  0  0  0  0
   20.5829   -5.6603    0.0000 C   0  0  0  0  0  0  0  0  0  0  0  0
   17.5410   -6.0755    0.0000 C   0  0  0  0  0  0  0  0  0  0  0  0
   16.5264   -7.7825    0.0000 C   0  0  2  0  0  0  0  0  0  0  0  0
   16.5264   -6.9575    0.0000 C   0  0  0  0  0  0  0  0  0  0  0  0
   15.8119   -7.3700    0.0000 C   0  0  0  0  0  0  0  0  0  0  0  0
   15.0975   -7.7825    0.0000 C   0  0  0  0  0  0  0  0  0  0  0  0
   15.0975   -8.6075    0.0000 C   0  0  2  0  0  0  0  0  0  0  0  0
   14.3830   -9.0200    0.0000 C   0  0  1  0  0  0  0  0  0  0  0  0
   14.3830   -8.1950    0.0000 C   0  0  0  0  0  0  0  0  0  0  0  0
   15.0975   -9.4325    0.0000 H   0  0  0  0  0  0  0  0  0  0  0  0
   15.8119   -8.1950    0.0000 H   0  0  0  0  0  0  0  0  0  0  0  0
   16.5264   -9.4325    0.0000 H   0  0  0  0  0  0  0  0  0  0  0  0
   12.2396  -10.2575    0.0000 O   0  0  0  0  0  0  0  0  0  0  0  0
   14.3830  -10.6700    0.0000 H   0  0  0  0  0  0  0  0  0  0  0  0
   12.2396   -8.6075    0.0000 O   0  0  0  0  0  0  0  0  0  0  0  0
  1  2  1  0  0  0  0
  2  3  1  0  0  0  0
  1  4  1  0  0  0  0
  4  5  1  0  0  0  0
  5  6  1  0  0  0  0
  6  7  1  0  0  0  0
  7  8  1  0  0  0  0
  8  9  1  0  0  0  0
  9 10  1  0  0  0  0
 10 11  1  0  0  0  0
 11 12  1  6  0  0  0
 11 13  1  0  0  0  0
 11 14  1  0  0  0  0
 14 15  1  6  0  0  0
 14 16  1  0  0  0  0
 16 17  1  0  0  0  0
 17 13  1  6  0  0  0
 17 18  1  0  0  0  0
 17 19  1  0  0  0  0
 19 20  1  0  0  0  0
 20 21  1  0  0  0  0
 21 22  1  0  0  0  0
 18 22  1  0  0  0  0
 21 23  1  1  0  0  0
 16 24  1  6  0  0  0
 14 25  1  0  0  0  0
  9 25  1  0  0  0  0
 25 26  1  1  0  0  0
 25 27  1  0  0  0  0
 27 28  1  0  0  0  0
 28 29  1  0  0  0  0
  8 29  1  0  0  0  0
 29 30  1  0  0  0  0
  3 30  1  0  0  0  0
  5 30  1  0  0  0  0
 30 31  1  1  0  0  0
 29 32  1  6  0  0  0
  8 33  1  1  0  0  0
  9 34  1  6  0  0  0
  1 35  1  1  0  0  0
  5 36  1  6  0  0  0
  2 37  1  6  0  0  0
M  END
>  <cdx:fragmentId>
860

$$$$
