301835.cdx
  Mrv1902 05222410252D          

  9  9  0  0  0  0            999 V2000
    7.1327   -7.0332    0.0000 N   0  0  0  0  0  0  0  0  0  0  0  0
    7.2189   -6.2127    0.0000 C   0  0  1  0  0  0  0  0  0  0  0  0
    6.4652   -5.8772    0.0000 C   0  0  0  0  0  0  0  0  0  0  0  0
    5.9132   -6.4903    0.0000 C   0  0  0  0  0  0  0  0  0  0  0  0
    6.3257   -7.2047    0.0000 C   0  0  0  0  0  0  0  0  0  0  0  0
    7.9334   -5.8002    0.0000 C   0  0  0  0  0  0  0  0  0  0  0  0
    7.9334   -4.9752    0.0000 O   0  0  0  0  0  0  0  0  0  0  0  0
    8.6479   -6.2127    0.0000 O   0  0  0  0  0  0  0  0  0  0  0  0
    7.7458   -7.5853    0.0000 C   0  0  0  0  0  0  0  0  0  0  0  0
  1  2  1  0  0  0  0
  2  3  1  0  0  0  0
  3  4  1  0  0  0  0
  4  5  1  0  0  0  0
  1  5  1  0  0  0  0
  6  7  2  0  0  0  0
  6  8  1  0  0  0  0
  2  6  1  1  0  0  0
  1  9  1  0  0  0  0
M  END
>  <cdx:groupId>
4780

>  <cdx:fragmentId>
4756

$$$$
