30189.cdx
  Mrv1902 05222410242D          

  7  6  0  0  0  0            999 V2000
    5.9891   -7.4720    0.0000 C   0  0  0  0  0  0  0  0  0  0  0  0
    6.7036   -7.0595    0.0000 Si  0  0  0  0  0  0  0  0  0  0  0  0
    7.4180   -6.6470    0.0000 C   0  0  0  0  0  0  0  0  0  0  0  0
    8.1325   -6.2345    0.0000 C   0  0  0  0  0  0  0  0  0  0  0  0
    8.8470   -5.8220    0.0000 C   0  0  0  0  0  0  0  0  0  0  0  0
    6.2911   -6.3451    0.0000 C   0  0  0  0  0  0  0  0  0  0  0  0
    7.1161   -7.7740    0.0000 C   0  0  0  0  0  0  0  0  0  0  0  0
  1  2  1  0  0  0  0
  2  3  1  0  0  0  0
  3  4  3  0  0  0  0
  4  5  1  0  0  0  0
  2  6  1  0  0  0  0
  2  7  1  0  0  0  0
M  END
>  <cdx:fragmentId>
3

$$$$
