301852.cdx
  Mrv1902 05222410272D          

 10 11  0  0  0  0            999 V2000
    8.1395   -5.3969    0.0000 C   0  0  0  0  0  0  0  0  0  0  0  0
    8.8539   -5.8094    0.0000 C   0  0  0  0  0  0  0  0  0  0  0  0
    8.8539   -6.6344    0.0000 C   0  0  0  0  0  0  0  0  0  0  0  0
    8.1395   -7.0469    0.0000 C   0  0  0  0  0  0  0  0  0  0  0  0
    7.4250   -6.6344    0.0000 C   0  0  0  0  0  0  0  0  0  0  0  0
    6.7105   -7.0469    0.0000 C   0  0  0  0  0  0  0  0  0  0  0  0
    5.9961   -6.6344    0.0000 C   0  0  0  0  0  0  0  0  0  0  0  0
    5.9961   -5.8094    0.0000 C   0  0  0  0  0  0  0  0  0  0  0  0
    6.7105   -5.3969    0.0000 C   0  0  0  0  0  0  0  0  0  0  0  0
    7.4250   -5.8094    0.0000 C   0  0  0  0  0  0  0  0  0  0  0  0
  1  2  1  0  0  0  0
  2  3  1  0  0  0  0
  3  4  1  0  0  0  0
  4  5  1  0  0  0  0
  5  6  1  0  0  0  0
  6  7  2  0  0  0  0
  7  8  1  0  0  0  0
  8  9  1  0  0  0  0
  9 10  2  0  0  0  0
  1 10  1  0  0  0  0
  5 10  1  0  0  0  0
M  END
>  <cdx:groupId>
5779

>  <cdx:fragmentId>
5751

$$$$
