30184.cdx
  Mrv1902 05222410222D          

 12 12  0  0  0  0            999 V2000
    7.1721  -11.5558    0.0000 C   0  0  0  0  0  0  0  0  0  0  0  0
    7.1721  -12.3808    0.0000 C   0  0  0  0  0  0  0  0  0  0  0  0
    7.8866  -12.7933    0.0000 C   0  0  0  0  0  0  0  0  0  0  0  0
    8.6011  -12.3808    0.0000 C   0  0  0  0  0  0  0  0  0  0  0  0
    8.6011  -11.5558    0.0000 C   0  0  0  0  0  0  0  0  0  0  0  0
    7.8866  -11.1433    0.0000 C   0  0  0  0  0  0  0  0  0  0  0  0
    6.4576  -11.1433    0.0000 C   0  0  0  0  0  0  0  0  0  0  0  0
    6.4576  -12.7933    0.0000 C   0  0  0  0  0  0  0  0  0  0  0  0
    7.8866  -10.3183    0.0000 C   0  0  0  0  0  0  0  0  0  0  0  0
    8.6011   -9.9058    0.0000 C   0  0  0  0  0  0  0  0  0  0  0  0
    8.6011   -9.0808    0.0000 C   0  0  0  0  0  0  0  0  0  0  0  0
    9.3155   -8.6683    0.0000 C   0  0  0  0  0  0  0  0  0  0  0  0
  1  2  2  0  0  0  0
  2  3  1  0  0  0  0
  3  4  2  0  0  0  0
  4  5  1  0  0  0  0
  5  6  2  0  0  0  0
  6  1  1  0  0  0  0
  1  7  1  0  0  0  0
  2  8  1  0  0  0  0
  6  9  1  0  0  0  0
  9 10  1  0  0  0  0
 10 11  2  3  0  0  0
 11 12  1  0  0  0  0
M  END
>  <cdx:fragmentId>
5

$$$$
