301830.cdx
  Mrv1902 05222410242D          

 14 13  0  0  0  0            999 V2000
    5.9961   -5.8669    0.0000 C   0  0  0  0  0  0  0  0  0  0  0  0
    5.2816   -6.2794    0.0000 C   0  0  0  0  0  0  0  0  0  0  0  0
    4.5671   -5.8669    0.0000 C   0  0  0  0  0  0  0  0  0  0  0  0
    3.8526   -6.2794    0.0000 C   0  0  0  0  0  0  0  0  0  0  0  0
    5.9961   -5.0419    0.0000 O   0  0  0  0  0  0  0  0  0  0  0  0
    6.7105   -6.2794    0.0000 O   0  0  0  0  0  0  0  0  0  0  0  0
    7.4250   -5.8669    0.0000 C   0  0  0  0  0  0  0  0  0  0  0  0
    8.1395   -6.2794    0.0000 C   0  0  0  0  0  0  0  0  0  0  0  0
    8.8539   -5.8669    0.0000 C   0  0  0  0  0  0  0  0  0  0  0  0
    9.5684   -6.2794    0.0000 C   0  0  0  0  0  0  0  0  0  0  0  0
   10.2829   -5.8669    0.0000 C   0  0  0  0  0  0  0  0  0  0  0  0
   10.9974   -6.2794    0.0000 C   0  0  0  0  0  0  0  0  0  0  0  0
    8.1395   -7.1044    0.0000 C   0  0  0  0  0  0  0  0  0  0  0  0
    8.8539   -7.5169    0.0000 C   0  0  0  0  0  0  0  0  0  0  0  0
  1  2  1  0  0  0  0
  2  3  1  0  0  0  0
  3  4  1  0  0  0  0
  1  5  2  0  0  0  0
  1  6  1  0  0  0  0
  7  8  1  0  0  0  0
  8  9  1  0  0  0  0
  9 10  1  0  0  0  0
 10 11  1  0  0  0  0
 11 12  1  0  0  0  0
 13 14  1  0  0  0  0
  8 13  1  0  0  0  0
  6  7  1  0  0  0  0
M  END
>  <cdx:groupId>
4449

>  <cdx:fragmentId>
4423

$$$$
