301805.cdx
  Mrv1902 05222410212D          

 30 34  0  0  0  0            999 V2000
    9.7194   -8.5195    0.0000 C   0  0  0  0  0  0  0  0  0  0  0  0
    8.2854   -4.3963    0.0000 H   0  0  0  0  0  0  0  0  0  0  0  0
    6.8709   -6.8729    0.0000 H   0  0  0  0  0  0  0  0  0  0  0  0
    8.2884   -6.8713    0.0000 H   0  0  0  0  0  0  0  0  0  0  0  0
    8.9993   -3.9829    0.0000 C   0  0  0  0  0  0  0  0  0  0  0  0
    9.7184   -7.6945    0.0000 O   0  0  0  0  0  0  0  0  0  0  0  0
    8.2894   -7.6963    0.0000 O   0  0  0  0  0  0  0  0  0  0  0  0
    9.0034   -7.2829    0.0000 C   0  0  0  0  0  0  0  0  0  0  0  0
    9.7153   -5.2195    0.0000 O   0  0  0  0  0  0  0  0  0  0  0  0
    9.7164   -6.0445    0.0000 C   0  0  0  0  0  0  0  0  0  0  0  0
    9.0024   -6.4579    0.0000 C   0  0  0  0  0  0  0  0  0  0  0  0
    9.0004   -4.8079    0.0000 C   0  0  2  0  0  0  0  0  0  0  0  0
    6.8585   -6.0480    0.0000 C   0  0  2  0  0  0  0  0  0  0  0  0
    7.5734   -6.4597    0.0000 C   0  0  0  0  0  0  0  0  0  0  0  0
    8.2874   -6.0463    0.0000 C   0  0  1  0  0  0  0  0  0  0  0  0
    8.2864   -5.2213    0.0000 C   0  0  1  0  0  0  0  0  0  0  0  0
    7.5714   -4.8097    0.0000 C   0  0  0  0  0  0  0  0  0  0  0  0
    6.8575   -5.2230    0.0000 N   0  0  0  0  0  0  0  0  0  0  0  0
    6.0725   -4.9691    0.0000 C   0  0  0  0  0  0  0  0  0  0  0  0
    5.5884   -5.6371    0.0000 C   0  0  0  0  0  0  0  0  0  0  0  0
    6.0742   -6.3039    0.0000 C   0  0  1  0  0  0  0  0  0  0  0  0
    5.2899   -6.5598    0.0000 C   0  0  0  0  0  0  0  0  0  0  0  0
    5.2909   -7.3848    0.0000 N   0  0  0  0  0  0  0  0  0  0  0  0
    6.0758   -7.6388    0.0000 C   0  0  0  0  0  0  0  0  0  0  0  0
    6.5599   -6.9708    0.0000 C   0  0  0  0  0  0  0  0  0  0  0  0
    6.4123   -8.3921    0.0000 C   0  0  0  0  0  0  0  0  0  0  0  0
    7.2329   -8.4773    0.0000 C   0  0  0  0  0  0  0  0  0  0  0  0
    7.7170   -7.8093    0.0000 C   0  0  0  0  0  0  0  0  0  0  0  0
    7.3805   -7.0560    0.0000 C   0  0  0  0  0  0  0  0  0  0  0  0
    4.6218   -6.0757    0.0000 O   0  0  0  0  0  0  0  0  0  0  0  0
  6  1  1  0  0  0  0
 16  2  1  6  0  0  0
 13  3  1  6  0  0  0
 15  4  1  6  0  0  0
 12  5  1  6  0  0  0
 11  8  1  0  0  0  0
  8  6  1  0  0  0  0
  8  7  2  0  0  0  0
 11 15  1  0  0  0  0
 12 16  1  0  0  0  0
 12  9  1  0  0  0  0
 10  9  1  0  0  0  0
 11 10  2  0  0  0  0
 18 13  1  0  0  0  0
 21 13  1  0  0  0  0
 14 13  1  0  0  0  0
 15 14  1  0  0  0  0
 16 15  1  0  0  0  0
 17 16  1  0  0  0  0
 18 17  1  0  0  0  0
 19 18  1  0  0  0  0
 20 19  1  0  0  0  0
 21 20  1  1  0  0  0
 21 22  1  0  0  0  0
 22 23  1  0  0  0  0
 23 24  1  0  0  0  0
 24 25  2  0  0  0  0
 25 21  1  0  0  0  0
 24 26  1  0  0  0  0
 26 27  2  0  0  0  0
 27 28  1  0  0  0  0
 28 29  2  0  0  0  0
 29 25  1  0  0  0  0
 22 30  2  0  0  0  0
M  END
>  <cdx:fragmentId>
1978

$$$$
