301894.cdx
  Mrv1902 05222410272D          

 28 33  0  0  0  0            999 V2000
    6.3033   -7.9344    0.0000 C   0  0  2  0  0  0  0  0  0  0  0  0
    5.4783   -7.9363    0.0000 C   0  0  0  0  0  0  0  0  0  0  0  0
    4.9249   -7.3245    0.0000 C   0  0  0  0  0  0  0  0  0  0  0  0
    4.1183   -7.4979    0.0000 C   0  0  0  0  0  0  0  0  0  0  0  0
    3.8652   -8.2831    0.0000 C   0  0  0  0  0  0  0  0  0  0  0  0
    4.4186   -8.8949    0.0000 C   0  0  0  0  0  0  0  0  0  0  0  0
    5.2252   -8.7215    0.0000 C   0  0  0  0  0  0  0  0  0  0  0  0
    5.8938   -9.2049    0.0000 N   0  0  0  0  0  0  0  0  0  0  0  0
    6.5601   -8.7184    0.0000 C   0  0  1  0  0  0  0  0  0  0  0  0
    7.3675   -8.8881    0.0000 C   0  0  1  0  0  0  0  0  0  0  0  0
    6.9550   -9.6026    0.0000 H   0  0  0  0  0  0  0  0  0  0  0  0
    7.9181   -8.2737    0.0000 N   0  0  0  0  0  0  0  0  0  0  0  0
    7.6613   -7.4897    0.0000 C   0  0  1  0  0  0  0  0  0  0  0  0
    6.3250   -6.8475    0.0000 C   0  0  2  0  0  0  0  0  0  0  0  0
    6.8539   -7.3200    0.0000 C   0  0  0  0  0  0  0  0  0  0  0  0
    5.9125   -6.1330    0.0000 O   0  0  0  0  0  0  0  0  0  0  0  0
    6.5601   -9.5434    0.0000 H   0  0  0  0  0  0  0  0  0  0  0  0
    7.6613   -6.6647    0.0000 H   0  0  0  0  0  0  0  0  0  0  0  0
    7.6242   -9.6721    0.0000 C   0  0  0  0  0  0  0  0  0  0  0  0
    8.4316   -9.8418    0.0000 C   0  0  1  0  0  0  0  0  0  0  0  0
    8.9822   -9.2274    0.0000 C   0  0  1  0  0  0  0  0  0  0  0  0
    8.7254   -8.4434    0.0000 C   0  0  1  0  0  0  0  0  0  0  0  0
    9.2760   -7.8289    0.0000 O   0  0  0  0  0  0  0  0  0  0  0  0
    9.7896   -9.3970    0.0000 C   0  0  0  0  0  0  0  0  0  0  0  0
   10.0031  -10.1939    0.0000 C   0  0  0  0  0  0  0  0  0  0  0  0
    8.6884  -10.6258    0.0000 H   0  0  0  0  0  0  0  0  0  0  0  0
    8.4150   -6.8475    0.0000 C   0  0  2  0  0  0  0  0  0  0  0  0
    8.9984   -6.2641    0.0000 H   0  0  0  0  0  0  0  0  0  0  0  0
  1  2  1  6  0  0  0
  2  3  2  0  0  0  0
  3  4  1  0  0  0  0
  4  5  2  0  0  0  0
  5  6  1  0  0  0  0
  6  7  2  0  0  0  0
  7  8  1  0  0  0  0
  8  9  1  0  0  0  0
  9 10  1  0  0  0  0
 10 11  1  6  0  0  0
 12 13  1  0  0  0  0
  1 14  1  0  0  0  0
  1 15  1  0  0  0  0
 15 13  1  0  0  0  0
 10 12  1  0  0  0  0
  1  9  1  0  0  0  0
  2  7  1  0  0  0  0
 14 16  1  6  0  0  0
  9 17  1  1  0  0  0
 13 18  1  6  0  0  0
 10 19  1  0  0  0  0
 19 20  1  0  0  0  0
 20 21  1  0  0  0  0
 21 22  1  0  0  0  0
 22 12  1  0  0  0  0
 22 23  1  6  0  0  0
 21 24  1  1  0  0  0
 24 25  1  0  0  0  0
 20 26  1  1  0  0  0
 14 27  1  0  0  0  0
 27 20  1  0  0  0  0
 27 13  1  0  0  0  0
 27 28  1  6  0  0  0
M  END
>  <cdx:groupId>
9664

>  <cdx:fragmentId>
9575

$$$$
