301868.cdx
  Mrv1902 05222410282D          

 20 19  0  0  0  0            999 V2000
    6.3533   -6.8486    0.0000 C   0  0  0  0  0  0  0  0  0  0  0  0
    9.2112   -6.8486    0.0000 C   0  0  0  0  0  0  0  0  0  0  0  0
   12.0691   -6.8486    0.0000 C   0  0  0  0  0  0  0  0  0  0  0  0
    3.4954   -6.8486    0.0000 C   0  0  0  0  0  0  0  0  0  0  0  0
   12.7835   -5.6111    0.0000 C   0  0  0  0  0  0  0  0  0  0  0  0
   12.0691   -6.0236    0.0000 C   0  0  0  0  0  0  0  0  0  0  0  0
   11.3546   -5.6111    0.0000 C   0  0  0  0  0  0  0  0  0  0  0  0
   10.6401   -6.0236    0.0000 C   0  0  0  0  0  0  0  0  0  0  0  0
    9.9256   -5.6111    0.0000 C   0  0  0  0  0  0  0  0  0  0  0  0
    9.2112   -6.0236    0.0000 C   0  0  0  0  0  0  0  0  0  0  0  0
    8.4967   -5.6111    0.0000 C   0  0  0  0  0  0  0  0  0  0  0  0
    7.7822   -6.0236    0.0000 C   0  0  0  0  0  0  0  0  0  0  0  0
    7.0678   -5.6111    0.0000 C   0  0  0  0  0  0  0  0  0  0  0  0
    6.3533   -6.0236    0.0000 C   0  0  0  0  0  0  0  0  0  0  0  0
    5.6388   -5.6111    0.0000 C   0  0  0  0  0  0  0  0  0  0  0  0
    4.9244   -6.0236    0.0000 C   0  0  0  0  0  0  0  0  0  0  0  0
    4.2099   -5.6111    0.0000 C   0  0  0  0  0  0  0  0  0  0  0  0
    3.4954   -6.0236    0.0000 C   0  0  0  0  0  0  0  0  0  0  0  0
    2.7809   -5.6111    0.0000 C   0  0  0  0  0  0  0  0  0  0  0  0
    2.0665   -6.0236    0.0000 C   0  0  0  0  0  0  0  0  0  0  0  0
 14  1  1  0  0  0  0
 10  2  1  0  0  0  0
  6  3  1  0  0  0  0
 18  4  2  0  0  0  0
  6  5  1  0  0  0  0
  7  6  1  0  0  0  0
  8  7  1  0  0  0  0
  9  8  1  0  0  0  0
 10  9  1  0  0  0  0
 11 10  1  0  0  0  0
 12 11  1  0  0  0  0
 13 12  1  0  0  0  0
 14 13  1  0  0  0  0
 15 14  1  0  0  0  0
 16 15  1  0  0  0  0
 17 16  1  0  0  0  0
 18 17  1  0  0  0  0
 19 18  1  0  0  0  0
 20 19  2  0  0  0  0
M  END
>  <cdx:fragmentId>
702

$$$$
