301863.cdx
  Mrv1902 05222410192D          

 36 39  0  0  0  0            999 V2000
    8.4157  -10.7266    0.0000 O   0  0  0  0  0  0  0  0  0  0  0  0
    9.8446   -9.9016    0.0000 O   0  0  0  0  0  0  0  0  0  0  0  0
    9.8446   -8.2516    0.0000 O   0  0  0  0  0  0  0  0  0  0  0  0
    5.5578   -8.2516    0.0000 O   0  0  0  0  0  0  0  0  0  0  0  0
   10.5591   -4.5391    0.0000 O   0  0  0  0  0  0  0  0  0  0  0  0
    8.4157   -4.9516    0.0000 C   0  0  0  0  0  0  0  0  0  0  0  0
    9.1302   -4.5391    0.0000 C   0  0  0  0  0  0  0  0  0  0  0  0
    9.8446   -4.9516    0.0000 C   0  0  0  0  0  0  0  0  0  0  0  0
    9.8446   -5.7766    0.0000 C   0  0  0  0  0  0  0  0  0  0  0  0
    9.1302   -6.1891    0.0000 C   0  0  0  0  0  0  0  0  0  0  0  0
    8.4157   -5.7766    0.0000 C   0  0  0  0  0  0  0  0  0  0  0  0
    3.4144   -6.1891    0.0000 C   0  0  0  0  0  0  0  0  0  0  0  0
    4.1289   -5.7766    0.0000 O   0  0  0  0  0  0  0  0  0  0  0  0
    6.9868   -8.2516    0.0000 O   0  0  0  0  0  0  0  0  0  0  0  0
    6.9868   -5.7766    0.0000 O   0  0  0  0  0  0  0  0  0  0  0  0
    6.2723   -6.1891    0.0000 C   0  0  0  0  0  0  0  0  0  0  0  0
    5.5578   -5.7766    0.0000 C   0  0  0  0  0  0  0  0  0  0  0  0
    4.8434   -6.1891    0.0000 C   0  0  0  0  0  0  0  0  0  0  0  0
    4.8434   -7.0141    0.0000 C   0  0  0  0  0  0  0  0  0  0  0  0
    5.5578   -7.4266    0.0000 C   0  0  0  0  0  0  0  0  0  0  0  0
    6.2723   -7.0141    0.0000 C   0  0  0  0  0  0  0  0  0  0  0  0
    6.9868   -7.4266    0.0000 C   0  0  0  0  0  0  0  0  0  0  0  0
    7.7012   -7.0141    0.0000 C   0  0  0  0  0  0  0  0  0  0  0  0
    7.7012   -6.1891    0.0000 C   0  0  0  0  0  0  0  0  0  0  0  0
    8.4157   -7.4266    0.0000 O   0  0  0  0  0  0  0  0  0  0  0  0
    8.4157   -8.2516    0.0000 C   0  0  1  0  0  0  0  0  0  0  0  0
    9.1302   -8.6641    0.0000 C   0  0  1  0  0  0  0  0  0  0  0  0
    9.1302   -9.4891    0.0000 C   0  0  2  0  0  0  0  0  0  0  0  0
    8.4157   -9.9016    0.0000 C   0  0  1  0  0  0  0  0  0  0  0  0
    7.7012   -9.4891    0.0000 C   0  0  2  0  0  0  0  0  0  0  0  0
    7.7012   -8.6641    0.0000 O   0  0  0  0  0  0  0  0  0  0  0  0
    6.9868   -9.9016    0.0000 C   0  0  0  0  0  0  0  0  0  0  0  0
    6.2723   -9.4891    0.0000 O   0  0  0  0  0  0  0  0  0  0  0  0
    5.5578  -10.7266    0.0000 O   0  0  0  0  0  0  0  0  0  0  0  0
    4.8434   -9.4891    0.0000 C   0  0  0  0  0  0  0  0  0  0  0  0
    5.5578   -9.9016    0.0000 C   0  0  0  0  0  0  0  0  0  0  0  0
 33 32  1  0  0  0  0
 30 32  1  1  0  0  0
 29  1  1  6  0  0  0
 28  2  1  1  0  0  0
 27  3  1  6  0  0  0
 26 25  1  1  0  0  0
 25 23  1  0  0  0  0
 20  4  1  0  0  0  0
 24 11  1  0  0  0  0
  8  5  1  0  0  0  0
 11  6  2  0  0  0  0
  7  6  1  0  0  0  0
  8  7  2  0  0  0  0
  9  8  1  0  0  0  0
 10  9  2  0  0  0  0
 11 10  1  0  0  0  0
 18 13  1  0  0  0  0
 13 12  1  0  0  0  0
 22 14  2  0  0  0  0
 24 15  1  0  0  0  0
 16 15  1  0  0  0  0
 21 16  2  0  0  0  0
 17 16  1  0  0  0  0
 18 17  2  0  0  0  0
 19 18  1  0  0  0  0
 20 19  2  0  0  0  0
 21 20  1  0  0  0  0
 22 21  1  0  0  0  0
 23 22  1  0  0  0  0
 24 23  2  0  0  0  0
 31 26  1  0  0  0  0
 27 26  1  0  0  0  0
 28 27  1  0  0  0  0
 29 28  1  0  0  0  0
 30 29  1  0  0  0  0
 31 30  1  0  0  0  0
 36 33  1  0  0  0  0
 36 34  2  0  0  0  0
 36 35  1  0  0  0  0
M  END
>  <cdx:fragmentId>
29

$$$$
