301838.cdx
  Mrv1902 05222410212D          

  5  4  0  0  0  0            999 V2000
    7.1056   -6.7870    0.0000 N   0  0  0  0  0  0  0  0  0  0  0  0
    6.3911   -6.3745    0.0000 O   0  0  0  0  0  0  0  0  0  0  0  0
    7.8200   -6.3745    0.0000 N   0  0  0  0  0  0  0  0  0  0  0  0
    7.8200   -5.5495    0.0000 C   0  0  0  0  0  0  0  0  0  0  0  0
    8.5345   -6.7870    0.0000 C   0  0  0  0  0  0  0  0  0  0  0  0
  1  2  2  0  0  0  0
  1  3  1  0  0  0  0
  3  4  1  0  0  0  0
  3  5  1  0  0  0  0
M  END
>  <cdx:groupId>
4938

>  <cdx:fragmentId>
4927

$$$$
