301818.cdx
  Mrv1902 05222410242D          

 12 12  0  0  0  0            999 V2000
    5.6766   -6.9866    0.0000 C   0  0  0  0  0  0  0  0  0  0  0  0
    6.3911   -6.5741    0.0000 C   0  0  0  0  0  0  0  0  0  0  0  0
    7.1056   -6.9866    0.0000 C   0  0  0  0  0  0  0  0  0  0  0  0
    7.8200   -6.5741    0.0000 C   0  0  0  0  0  0  0  0  0  0  0  0
    7.8200   -5.7491    0.0000 C   0  0  0  0  0  0  0  0  0  0  0  0
    7.1056   -5.3366    0.0000 C   0  0  0  0  0  0  0  0  0  0  0  0
    6.3911   -5.7491    0.0000 C   0  0  0  0  0  0  0  0  0  0  0  0
    4.9622   -6.5741    0.0000 O   0  0  0  0  0  0  0  0  0  0  0  0
    8.5345   -5.3366    0.0000 O   0  0  0  0  0  0  0  0  0  0  0  0
    8.5345   -6.9866    0.0000 O   0  0  0  0  0  0  0  0  0  0  0  0
    9.2490   -6.5741    0.0000 C   0  0  0  0  0  0  0  0  0  0  0  0
    9.9635   -6.9866    0.0000 C   0  0  0  0  0  0  0  0  0  0  0  0
  1  2  1  0  0  0  0
  2  3  1  0  0  0  0
  3  4  2  0  0  0  0
  4  5  1  0  0  0  0
  5  6  2  0  0  0  0
  6  7  1  0  0  0  0
  2  7  2  0  0  0  0
  1  8  2  0  0  0  0
  5  9  1  0  0  0  0
 11 12  1  0  0  0  0
 10 11  1  0  0  0  0
  4 10  1  0  0  0  0
M  END
>  <cdx:groupId>
1791

>  <cdx:fragmentId>
1758

$$$$
