301824.cdx
  Mrv1902 05222410242D          

 24 26  0  0  0  0            999 V2000
    8.5001   -7.0469    0.0000 C   0  0  0  0  0  0  0  0  0  0  0  0
    7.7857   -6.6344    0.0000 C   0  0  0  0  0  0  0  0  0  0  0  0
    7.0712   -7.0469    0.0000 C   0  0  0  0  0  0  0  0  0  0  0  0
    8.5001   -7.8719    0.0000 O   0  0  0  0  0  0  0  0  0  0  0  0
    9.2146   -6.6344    0.0000 N   0  0  0  0  0  0  0  0  0  0  0  0
    6.3567   -6.6344    0.0000 N   0  0  0  0  0  0  0  0  0  0  0  0
    6.3567   -5.8094    0.0000 C   0  0  0  0  0  0  0  0  0  0  0  0
    5.6423   -5.3969    0.0000 C   0  0  0  0  0  0  0  0  0  0  0  0
    4.9278   -5.8094    0.0000 N   0  0  0  0  0  0  0  0  0  0  0  0
    4.9278   -6.6344    0.0000 C   0  0  0  0  0  0  0  0  0  0  0  0
    5.6423   -7.0469    0.0000 C   0  0  0  0  0  0  0  0  0  0  0  0
    4.2133   -5.3969    0.0000 C   0  0  0  0  0  0  0  0  0  0  0  0
    4.2133   -4.5719    0.0000 C   0  0  0  0  0  0  0  0  0  0  0  0
    3.4988   -4.1594    0.0000 C   0  0  0  0  0  0  0  0  0  0  0  0
    2.7844   -4.5719    0.0000 C   0  0  0  0  0  0  0  0  0  0  0  0
    2.7844   -5.3969    0.0000 C   0  0  0  0  0  0  0  0  0  0  0  0
    3.4988   -5.8094    0.0000 C   0  0  0  0  0  0  0  0  0  0  0  0
    9.9291   -7.0469    0.0000 C   0  0  0  0  0  0  0  0  0  0  0  0
    9.9291   -7.8719    0.0000 C   0  0  0  0  0  0  0  0  0  0  0  0
   10.6436   -8.2844    0.0000 C   0  0  0  0  0  0  0  0  0  0  0  0
   11.3580   -7.8719    0.0000 C   0  0  0  0  0  0  0  0  0  0  0  0
   11.3580   -7.0469    0.0000 C   0  0  0  0  0  0  0  0  0  0  0  0
   10.6436   -6.6344    0.0000 C   0  0  0  0  0  0  0  0  0  0  0  0
   12.0725   -8.2844    0.0000 C   0  0  0  0  0  0  0  0  0  0  0  0
  1  2  1  0  0  0  0
  2  3  1  0  0  0  0
  1  4  2  0  0  0  0
  1  5  1  0  0  0  0
  6  7  1  0  0  0  0
  7  8  1  0  0  0  0
  8  9  1  0  0  0  0
  9 10  1  0  0  0  0
 10 11  1  0  0  0  0
  6 11  1  0  0  0  0
 12 13  1  0  0  0  0
 13 14  2  0  0  0  0
 14 15  1  0  0  0  0
 15 16  2  0  0  0  0
 16 17  1  0  0  0  0
 12 17  2  0  0  0  0
  9 12  1  0  0  0  0
  3  6  1  0  0  0  0
 18 19  1  0  0  0  0
 19 20  2  0  0  0  0
 20 21  1  0  0  0  0
 21 22  2  0  0  0  0
 22 23  1  0  0  0  0
 18 23  2  0  0  0  0
 21 24  1  0  0  0  0
  5 18  1  0  0  0  0
M  END
>  <cdx:groupId>
4087

>  <cdx:fragmentId>
4038

$$$$
