301832.cdx
  Mrv1902 05222410232D          

 25 26  0  0  0  0            999 V2000
    6.3533   -7.5608    0.0000 C   0  0  0  0  0  0  0  0  0  0  0  0
    5.6388   -7.9733    0.0000 C   0  0  0  0  0  0  0  0  0  0  0  0
    4.9244   -7.5608    0.0000 C   0  0  0  0  0  0  0  0  0  0  0  0
    6.3533   -6.7358    0.0000 O   0  0  0  0  0  0  0  0  0  0  0  0
    7.0678   -7.9733    0.0000 N   0  0  0  0  0  0  0  0  0  0  0  0
    7.7822   -7.5608    0.0000 C   0  0  0  0  0  0  0  0  0  0  0  0
    8.4967   -7.9733    0.0000 C   0  0  0  0  0  0  0  0  0  0  0  0
    9.2112   -7.5608    0.0000 C   0  0  0  0  0  0  0  0  0  0  0  0
    9.9256   -7.9733    0.0000 C   0  0  0  0  0  0  0  0  0  0  0  0
   10.6401   -7.5608    0.0000 C   0  0  0  0  0  0  0  0  0  0  0  0
   10.6401   -6.7358    0.0000 C   0  0  0  0  0  0  0  0  0  0  0  0
    9.9256   -6.3233    0.0000 C   0  0  0  0  0  0  0  0  0  0  0  0
    9.2112   -6.7358    0.0000 C   0  0  0  0  0  0  0  0  0  0  0  0
   11.3546   -7.9733    0.0000 O   0  0  0  0  0  0  0  0  0  0  0  0
   12.0691   -7.5608    0.0000 C   0  0  0  0  0  0  0  0  0  0  0  0
   11.3546   -6.3233    0.0000 O   0  0  0  0  0  0  0  0  0  0  0  0
    4.9244   -6.7358    0.0000 C   0  0  0  0  0  0  0  0  0  0  0  0
    4.2099   -6.3233    0.0000 C   0  0  0  0  0  0  0  0  0  0  0  0
    4.2099   -5.4983    0.0000 C   0  0  0  0  0  0  0  0  0  0  0  0
    4.9244   -5.0858    0.0000 C   0  0  0  0  0  0  0  0  0  0  0  0
    5.6388   -5.4983    0.0000 C   0  0  0  0  0  0  0  0  0  0  0  0
    5.6388   -6.3233    0.0000 C   0  0  0  0  0  0  0  0  0  0  0  0
    3.4954   -5.0858    0.0000 O   0  0  0  0  0  0  0  0  0  0  0  0
    2.7809   -5.4983    0.0000 C   0  0  0  0  0  0  0  0  0  0  0  0
    4.9244   -4.2608    0.0000 O   0  0  0  0  0  0  0  0  0  0  0  0
  1  2  1  0  0  0  0
  2  3  2  0  0  0  0
  1  4  2  0  0  0  0
  1  5  1  0  0  0  0
  6  7  1  0  0  0  0
  8  9  1  0  0  0  0
  9 10  2  0  0  0  0
 10 11  1  0  0  0  0
 11 12  2  0  0  0  0
 12 13  1  0  0  0  0
  8 13  2  0  0  0  0
 14 15  1  0  0  0  0
 10 14  1  0  0  0  0
 11 16  1  0  0  0  0
  7  8  1  0  0  0  0
  5  6  1  0  0  0  0
 17 18  1  0  0  0  0
 18 19  2  0  0  0  0
 19 20  1  0  0  0  0
 20 21  2  0  0  0  0
 21 22  1  0  0  0  0
 17 22  2  0  0  0  0
 23 24  1  0  0  0  0
 19 23  1  0  0  0  0
 20 25  1  0  0  0  0
  3 17  1  0  0  0  0
M  END
>  <cdx:groupId>
4621

>  <cdx:fragmentId>
4562

$$$$
