301804.cdx
  Mrv1902 05222410212D          

 10  9  0  0  0  0            999 V2000
    9.0617   -6.4366    0.0000 C   0  0  0  0  0  0  0  0  0  0  0  0
    8.3472   -6.8491    0.0000 C   0  0  0  0  0  0  0  0  0  0  0  0
    7.6327   -6.4366    0.0000 C   0  0  0  0  0  0  0  0  0  0  0  0
    6.9183   -6.8491    0.0000 C   0  0  0  0  0  0  0  0  0  0  0  0
    9.0617   -5.6116    0.0000 O   0  0  0  0  0  0  0  0  0  0  0  0
    9.7762   -6.8491    0.0000 O   0  0  0  0  0  0  0  0  0  0  0  0
    6.9183   -7.6741    0.0000 O   0  0  0  0  0  0  0  0  0  0  0  0
    6.2038   -6.4366    0.0000 O   0  0  0  0  0  0  0  0  0  0  0  0
    5.4893   -6.8491    0.0000 C   0  0  0  0  0  0  0  0  0  0  0  0
    4.7749   -6.4366    0.0000 C   0  0  0  0  0  0  0  0  0  0  0  0
  1  2  1  0  0  0  0
  2  3  2  0  0  0  0
  3  4  1  0  0  0  0
  1  5  2  0  0  0  0
  1  6  1  0  0  0  0
  4  7  2  0  0  0  0
  9 10  1  0  0  0  0
  8  9  1  0  0  0  0
  4  8  1  0  0  0  0
M  END
>  <cdx:fragmentId>
2325

$$$$
