301875.cdx
  Mrv1902 05222410202D          

  8  6  0  0  0  0            999 V2000
    7.0678   -6.1669    0.0000 N   0  3  0  0  0  0  0  0  0  0  0  0
    6.3533   -6.5794    0.0000 C   0  0  0  0  0  0  0  0  0  0  0  0
    7.0678   -5.3419    0.0000 C   0  0  0  0  0  0  0  0  0  0  0  0
    6.3533   -5.7544    0.0000 C   0  0  0  0  0  0  0  0  0  0  0  0
    7.7822   -6.5794    0.0000 C   0  0  0  0  0  0  0  0  0  0  0  0
    8.4967   -6.1669    0.0000 C   0  0  0  0  0  0  0  0  0  0  0  0
    6.8840   -7.2801    0.0000 O   0  5  0  0  0  0  0  0  0  0  0  0
    7.7095   -7.2784    0.0000 H   0  0  0  0  0  0  0  0  0  0  0  0
  1  2  1  0  0  0  0
  1  3  1  0  0  0  0
  1  4  1  0  0  0  0
  5  6  2  0  0  0  0
  1  5  1  0  0  0  0
  7  8  1  0  0  0  0
M  CHG  2   1   1   7  -1
M  END
>  <cdx:groupId>
1084

>  <cdx:fragmentId>
1095

$$$$
