301867.cdx
  Mrv1902 05222410192D          

 72 79  0  0  0  0            999 V2000
    5.2820   -9.7895    0.0000 H   0  0  0  0  0  0  0  0  0  0  0  0
    5.2572   -8.1541    0.0000 C   0  0  0  0  0  0  0  0  0  0  0  0
    5.9632   -7.7273    0.0000 C   0  0  0  0  0  0  0  0  0  0  0  0
    6.6858   -8.1253    0.0000 C   0  0  1  0  0  0  0  0  0  0  0  0
    6.7024   -8.9501    0.0000 C   0  0  0  0  0  0  0  0  0  0  0  0
    5.9964   -9.3770    0.0000 C   0  0  1  0  0  0  0  0  0  0  0  0
    5.2738   -8.9790    0.0000 O   0  0  0  0  0  0  0  0  0  0  0  0
    5.9465   -6.9025    0.0000 C   0  0  0  0  0  0  0  0  0  0  0  0
    7.3918   -7.6985    0.0000 C   0  0  2  0  0  0  0  0  0  0  0  0
    7.3752   -6.8737    0.0000 C   0  0  1  0  0  0  0  0  0  0  0  0
    6.6525   -6.4756    0.0000 O   0  0  0  0  0  0  0  0  0  0  0  0
    8.0812   -6.4468    0.0000 O   0  0  0  0  0  0  0  0  0  0  0  0
    8.8351   -5.2330    0.0000 O   0  0  0  0  0  0  0  0  0  0  0  0
    8.1077   -5.6223    0.0000 C   0  0  2  0  0  0  0  0  0  0  0  0
    7.4069   -5.1870    0.0000 C   0  0  1  0  0  0  0  0  0  0  0  0
    7.4334   -4.3624    0.0000 C   0  0  2  0  0  0  0  0  0  0  0  0
    8.1608   -3.9731    0.0000 C   0  0  1  0  0  0  0  0  0  0  0  0
    8.8617   -4.4084    0.0000 C   0  0  1  0  0  0  0  0  0  0  0  0
    9.5890   -4.0191    0.0000 C   0  0  0  0  0  0  0  0  0  0  0  0
    9.5890   -3.1941    0.0000 O   0  0  0  0  0  0  0  0  0  0  0  0
    8.1874   -3.1485    0.0000 O   0  0  0  0  0  0  0  0  0  0  0  0
    6.7326   -3.9271    0.0000 O   0  0  0  0  0  0  0  0  0  0  0  0
    6.6795   -5.5763    0.0000 O   0  0  0  0  0  0  0  0  0  0  0  0
    4.5345   -7.7561    0.0000 O   0  0  0  0  0  0  0  0  0  0  0  0
    8.1145   -8.0965    0.0000 C   0  0  0  0  0  0  0  0  0  0  0  0
    8.1311   -8.9213    0.0000 C   0  0  0  0  0  0  0  0  0  0  0  0
    7.4084   -8.5233    0.0000 H   0  0  0  0  0  0  0  0  0  0  0  0
    8.9242  -12.6152    0.0000 O   0  0  0  0  0  0  0  0  0  0  0  0
    9.6575  -13.8416    0.0000 O   0  0  0  0  0  0  0  0  0  0  0  0
    9.6449  -13.0167    0.0000 C   0  0  2  0  0  0  0  0  0  0  0  0
   10.3529  -12.5932    0.0000 C   0  0  1  0  0  0  0  0  0  0  0  0
   11.0736  -12.9947    0.0000 C   0  0  2  0  0  0  0  0  0  0  0  0
   11.0863  -13.8196    0.0000 C   0  0  1  0  0  0  0  0  0  0  0  0
   10.3783  -14.2430    0.0000 C   0  0  1  0  0  0  0  0  0  0  0  0
   10.3909  -15.0680    0.0000 C   0  0  0  0  0  0  0  0  0  0  0  0
   11.1116  -15.4694    0.0000 O   0  0  0  0  0  0  0  0  0  0  0  0
   11.8070  -14.2211    0.0000 O   0  0  0  0  0  0  0  0  0  0  0  0
   11.7817  -12.5713    0.0000 O   0  0  0  0  0  0  0  0  0  0  0  0
   10.3403  -11.7683    0.0000 O   0  0  0  0  0  0  0  0  0  0  0  0
    8.1834  -11.3932    0.0000 C   0  0  0  0  0  0  0  0  0  0  0  0
    7.4779  -11.8209    0.0000 C   0  0  0  0  0  0  0  0  0  0  0  0
    5.4143  -15.5783    0.0000 C   0  0  0  0  0  0  0  0  0  0  0  0
    6.1198  -15.1507    0.0000 O   0  0  0  0  0  0  0  0  0  0  0  0
    5.4008  -13.8914    0.0000 O   0  0  0  0  0  0  0  0  0  0  0  0
    6.1022  -14.3258    0.0000 C   0  0  0  0  0  0  0  0  0  0  0  0
    8.2363  -13.8677    0.0000 O   0  0  0  0  0  0  0  0  0  0  0  0
    7.5308  -14.2953    0.0000 C   0  0  0  0  0  0  0  0  0  0  0  0
    6.8077  -13.8982    0.0000 C   0  0  0  0  0  0  0  0  0  0  0  0
    6.7900  -13.0734    0.0000 C   0  0  2  0  0  0  0  0  0  0  0  0
    7.4955  -12.6457    0.0000 C   0  0  2  0  0  0  0  0  0  0  0  0
    8.2187  -13.0428    0.0000 C   0  0  2  0  0  0  0  0  0  0  0  0
    6.0669  -12.6762    0.0000 C   0  0  0  0  0  0  0  0  0  0  0  0
    8.1658  -10.5684    0.0000 O   0  0  0  0  0  0  0  0  0  0  0  0
    7.4251   -9.3465    0.0000 O   0  0  0  0  0  0  0  0  0  0  0  0
    7.4427  -10.1713    0.0000 C   0  0  0  0  0  0  0  0  0  0  0  0
    6.7548  -11.4237    0.0000 N   0  0  0  0  0  0  0  0  0  0  0  0
    6.7372  -10.5989    0.0000 C   0  0  2  0  0  0  0  0  0  0  0  0
    6.0141  -10.2018    0.0000 C   0  0  2  0  0  0  0  0  0  0  0  0
    6.0493  -11.8514    0.0000 C   0  0  2  0  0  0  0  0  0  0  0  0
    4.0481  -11.0690    0.0000 C   0  0  0  0  0  0  0  0  0  0  0  0
    3.2260  -11.0003    0.0000 C   0  0  0  0  0  0  0  0  0  0  0  0
    2.8744  -10.2539    0.0000 C   0  0  0  0  0  0  0  0  0  0  0  0
    3.3450   -9.5763    0.0000 C   0  0  0  0  0  0  0  0  0  0  0  0
    4.1671   -9.6450    0.0000 C   0  0  0  0  0  0  0  0  0  0  0  0
    4.5187  -10.3913    0.0000 C   0  0  0  0  0  0  0  0  0  0  0  0
    5.3086  -10.6295    0.0000 C   0  0  0  0  0  0  0  0  0  0  0  0
    5.3262  -11.4543    0.0000 C   0  0  0  0  0  0  0  0  0  0  0  0
    4.5472  -11.7259    0.0000 N   0  0  0  0  0  0  0  0  0  0  0  0
    6.7285   -9.7893    0.0000 H   0  0  0  0  0  0  0  0  0  0  0  0
    5.3348  -12.2639    0.0000 H   0  0  0  0  0  0  0  0  0  0  0  0
    6.0756  -13.4859    0.0000 H   0  0  0  0  0  0  0  0  0  0  0  0
    8.2100  -12.2332    0.0000 H   0  0  0  0  0  0  0  0  0  0  0  0
  6  1  1  1  0  0  0
 58  6  1  0  0  0  0
 59 52  1  0  0  0  0
 49 52  1  0  0  0  0
 50 41  1  0  0  0  0
 41 40  2  0  0  0  0
 48 45  1  0  0  0  0
 45 43  1  0  0  0  0
 43 42  1  0  0  0  0
 45 44  2  0  0  0  0
 51 28  1  6  0  0  0
 51 46  1  0  0  0  0
 47 46  1  0  0  0  0
 48 47  2  0  0  0  0
 49 48  1  0  0  0  0
 50 49  1  0  0  0  0
 51 50  1  0  0  0  0
 57 55  1  6  0  0  0
 55 53  1  0  0  0  0
 55 54  2  0  0  0  0
 58 66  1  0  0  0  0
 59 67  1  0  0  0  0
 59 56  1  0  0  0  0
 57 56  1  0  0  0  0
 58 57  1  0  0  0  0
 65 60  2  0  0  0  0
 68 60  1  0  0  0  0
 61 60  1  0  0  0  0
 62 61  2  0  0  0  0
 63 62  1  0  0  0  0
 64 63  2  0  0  0  0
 65 64  1  0  0  0  0
 66 65  1  0  0  0  0
 67 66  2  0  0  0  0
 68 67  1  0  0  0  0
  2  3  1  0  0  0  0
  3  4  1  0  0  0  0
  4  5  1  0  0  0  0
  5  6  1  0  0  0  0
  6  7  1  0  0  0  0
  2  7  1  0  0  0  0
  9 10  1  0  0  0  0
 10 11  1  0  0  0  0
  8 11  1  0  0  0  0
  8  3  2  0  0  0  0
  9  4  1  0  0  0  0
 13 14  1  0  0  0  0
 14 15  1  0  0  0  0
 15 16  1  0  0  0  0
 16 17  1  0  0  0  0
 17 18  1  0  0  0  0
 13 18  1  0  0  0  0
 19 20  1  0  0  0  0
 18 19  1  1  0  0  0
 17 21  1  6  0  0  0
 16 22  1  1  0  0  0
 15 23  1  6  0  0  0
 14 12  1  1  0  0  0
 10 12  1  1  0  0  0
  2 24  2  0  0  0  0
 25 26  2  0  0  0  0
 29 30  1  0  0  0  0
 30 31  1  0  0  0  0
 31 32  1  0  0  0  0
 32 33  1  0  0  0  0
 33 34  1  0  0  0  0
 29 34  1  0  0  0  0
 35 36  1  0  0  0  0
 34 35  1  1  0  0  0
 33 37  1  6  0  0  0
 32 38  1  1  0  0  0
 31 39  1  6  0  0  0
 30 28  1  1  0  0  0
 58 69  1  1  0  0  0
  9 25  1  6  0  0  0
  4 27  1  1  0  0  0
 59 70  1  6  0  0  0
 49 71  1  6  0  0  0
 50 72  1  6  0  0  0
M  END
>  <cdx:fragmentId>
529

$$$$
