301891.cdx
  Mrv1902 05222410272D          

 18 18  0  0  0  0            999 V2000
    6.0170   -7.4137    0.0000 C   0  0  0  0  0  0  0  0  0  0  0  0
    3.8736   -6.1762    0.0000 F   0  0  0  0  0  0  0  0  0  0  0  0
    4.5880   -7.4137    0.0000 F   0  0  0  0  0  0  0  0  0  0  0  0
    3.8736   -7.0012    0.0000 F   0  0  0  0  0  0  0  0  0  0  0  0
    4.5880   -6.5887    0.0000 C   0  0  0  0  0  0  0  0  0  0  0  0
    6.7314   -5.3512    0.0000 C   0  0  0  0  0  0  0  0  0  0  0  0
    6.0170   -4.9387    0.0000 C   0  0  0  0  0  0  0  0  0  0  0  0
    5.3025   -5.3512    0.0000 C   0  0  0  0  0  0  0  0  0  0  0  0
    5.3025   -6.1762    0.0000 C   0  0  0  0  0  0  0  0  0  0  0  0
    6.0170   -6.5887    0.0000 C   0  0  0  0  0  0  0  0  0  0  0  0
    6.7314   -6.1762    0.0000 C   0  0  0  0  0  0  0  0  0  0  0  0
    7.4459   -6.5887    0.0000 N   0  0  0  0  0  0  0  0  0  0  0  0
    8.1604   -5.3512    0.0000 O   0  0  0  0  0  0  0  0  0  0  0  0
   11.0183   -6.1762    0.0000 C   0  0  0  0  0  0  0  0  0  0  0  0
   10.3038   -6.5887    0.0000 C   0  0  0  0  0  0  0  0  0  0  0  0
    9.5893   -6.1762    0.0000 C   0  0  0  0  0  0  0  0  0  0  0  0
    8.8749   -6.5887    0.0000 C   0  0  0  0  0  0  0  0  0  0  0  0
    8.1604   -6.1762    0.0000 C   0  0  0  0  0  0  0  0  0  0  0  0
 12 11  1  0  0  0  0
 10  1  1  0  0  0  0
  9  5  1  0  0  0  0
  5  2  1  0  0  0  0
  5  3  1  0  0  0  0
  5  4  1  0  0  0  0
 11  6  2  0  0  0  0
  7  6  1  0  0  0  0
  8  7  2  0  0  0  0
  9  8  1  0  0  0  0
 10  9  2  0  0  0  0
 11 10  1  0  0  0  0
 18 12  1  0  0  0  0
 18 13  2  0  0  0  0
 15 14  1  0  0  0  0
 16 15  1  0  0  0  0
 17 16  1  0  0  0  0
 18 17  1  0  0  0  0
M  END
>  <cdx:fragmentId>
2627

$$$$
