301826.cdx
  Mrv1902 05222410232D          

 24 28  0  0  0  0            999 V2000
    8.8541   -8.2835    0.0000 C   0  0  0  0  0  0  0  0  0  0  0  0
    9.5685   -8.6960    0.0000 C   0  0  0  0  0  0  0  0  0  0  0  0
    7.4247   -5.8092    0.0000 C   0  0  0  0  0  0  0  0  0  0  0  0
    7.4247   -4.9842    0.0000 C   0  0  0  0  0  0  0  0  0  0  0  0
    6.8116   -4.4322    0.0000 O   0  0  0  0  0  0  0  0  0  0  0  0
    7.1472   -3.6785    0.0000 C   0  0  0  0  0  0  0  0  0  0  0  0
    7.9677   -3.7647    0.0000 O   0  0  0  0  0  0  0  0  0  0  0  0
    8.1392   -4.5717    0.0000 C   0  0  0  0  0  0  0  0  0  0  0  0
    8.8537   -4.9842    0.0000 C   0  0  0  0  0  0  0  0  0  0  0  0
    8.8537   -5.8092    0.0000 C   0  0  0  0  0  0  0  0  0  0  0  0
    9.5687   -6.2208    0.0000 C   0  0  0  0  0  0  0  0  0  0  0  0
    9.5684   -7.0458    0.0000 C   0  0  0  0  0  0  0  0  0  0  0  0
    8.8541   -7.4585    0.0000 N   0  0  0  0  0  0  0  0  0  0  0  0
    8.1392   -7.0467    0.0000 C   0  0  2  0  0  0  0  0  0  0  0  0
    7.4247   -7.4592    0.0000 C   0  0  0  0  0  0  0  0  0  0  0  0
    6.7103   -7.0467    0.0000 C   0  0  0  0  0  0  0  0  0  0  0  0
    5.9958   -7.4592    0.0000 C   0  0  0  0  0  0  0  0  0  0  0  0
    5.2813   -7.0467    0.0000 C   0  0  0  0  0  0  0  0  0  0  0  0
    5.2813   -6.2217    0.0000 C   0  0  0  0  0  0  0  0  0  0  0  0
    5.9958   -5.8092    0.0000 C   0  0  0  0  0  0  0  0  0  0  0  0
    6.7103   -6.2217    0.0000 C   0  0  0  0  0  0  0  0  0  0  0  0
    8.1392   -6.2217    0.0000 C   0  0  0  0  0  0  0  0  0  0  0  0
    8.1396   -8.6960    0.0000 O   0  0  0  0  0  0  0  0  0  0  0  0
    8.1392   -7.8717    0.0000 H   0  0  0  0  0  0  0  0  0  0  0  0
  1  2  1  0  0  0  0
  3  4  1  0  0  0  0
  4  5  1  0  0  0  0
  5  6  1  0  0  0  0
  6  7  1  0  0  0  0
  7  8  1  0  0  0  0
  8  9  1  0  0  0  0
  9 10  2  0  0  0  0
 10 11  1  0  0  0  0
 11 12  1  0  0  0  0
 12 13  1  0  0  0  0
 13 14  1  0  0  0  0
 14 15  1  0  0  0  0
 15 16  1  0  0  0  0
 16 17  2  0  0  0  0
 17 18  1  0  0  0  0
 18 19  2  0  0  0  0
 19 20  1  0  0  0  0
 20 21  2  0  0  0  0
  3 21  1  0  0  0  0
  3 22  2  0  0  0  0
 22 14  1  0  0  0  0
 16 21  1  0  0  0  0
  4  8  2  0  0  0  0
 10 22  1  0  0  0  0
  1 13  1  0  0  0  0
  1 23  2  0  0  0  0
 14 24  1  1  0  0  0
M  END
>  <cdx:groupId>
4249

>  <cdx:fragmentId>
4180

$$$$
