301869.cdx
  Mrv1902 05222410282D          

 22 25  0  0  0  0            999 V2000
    5.4381   -5.6788    0.0000 C   0  0  0  0  0  0  0  0  0  0  0  0
    5.4381   -6.5038    0.0000 C   0  0  2  0  0  0  0  0  0  0  0  0
    6.1526   -6.9162    0.0000 C   0  0  2  0  0  0  0  0  0  0  0  0
    6.8671   -6.5038    0.0000 C   0  0  0  0  0  0  0  0  0  0  0  0
    6.8671   -5.6788    0.0000 C   0  0  0  0  0  0  0  0  0  0  0  0
    6.1526   -5.2663    0.0000 C   0  0  0  0  0  0  0  0  0  0  0  0
    7.5815   -6.9162    0.0000 C   0  0  0  0  0  0  0  0  0  0  0  0
    8.2960   -6.5038    0.0000 C   0  0  0  0  0  0  0  0  0  0  0  0
    8.2960   -5.6788    0.0000 C   0  0  1  0  0  0  0  0  0  0  0  0
    7.5815   -5.2663    0.0000 C   0  0  1  0  0  0  0  0  0  0  0  0
    9.0105   -5.2663    0.0000 C   0  0  0  0  0  0  0  0  0  0  0  0
    9.0105   -4.4412    0.0000 C   0  0  2  0  0  0  0  0  0  0  0  0
    8.2960   -4.0287    0.0000 C   0  0  0  0  0  0  0  0  0  0  0  0
    7.5815   -4.4412    0.0000 C   0  0  0  0  0  0  0  0  0  0  0  0
    4.7237   -5.2663    0.0000 O   0  0  0  0  0  0  0  0  0  0  0  0
    5.4381   -7.3287    0.0000 C   0  0  0  0  0  0  0  0  0  0  0  0
    9.0105   -6.0912    0.0000 H   0  0  0  0  0  0  0  0  0  0  0  0
    9.0105   -3.6163    0.0000 C   0  0  0  0  0  0  0  0  0  0  0  0
    9.7250   -4.0287    0.0000 C   0  0  0  0  0  0  0  0  0  0  0  0
   10.4394   -4.4412    0.0000 C   0  0  0  0  0  0  0  0  0  0  0  0
    6.8671   -4.8538    0.0000 C   0  0  0  0  0  0  0  0  0  0  0  0
    6.5651   -7.6307    0.0000 C   0  0  0  0  0  0  0  0  0  0  0  0
  1  2  1  0  0  0  0
  2  3  1  0  0  0  0
  3  4  1  0  0  0  0
  4  5  1  0  0  0  0
  5  6  2  0  0  0  0
  6  1  1  0  0  0  0
  4  7  2  0  0  0  0
  7  8  1  0  0  0  0
  8  9  1  0  0  0  0
  9 10  1  0  0  0  0
 10  5  1  0  0  0  0
  9 11  1  0  0  0  0
 11 12  1  0  0  0  0
 12 13  1  0  0  0  0
 13 14  1  0  0  0  0
 14 10  1  0  0  0  0
  1 15  2  0  0  0  0
  3 16  1  6  0  0  0
  9 17  1  6  0  0  0
 12 18  1  6  0  0  0
 12 19  1  0  0  0  0
 19 20  2  0  0  0  0
 10 21  1  1  0  0  0
  3 22  1  1  0  0  0
  2 16  1  6  0  0  0
M  END
>  <cdx:fragmentId>
2142

$$$$
