301801.cdx
  Mrv1902 05222410222D          

 36 39  0  0  0  0            999 V2000
    4.8768   -7.3804    0.0000 C   0  0  0  0  0  0  0  0  0  0  0  0
    4.1624   -7.7929    0.0000 C   0  0  0  0  0  0  0  0  0  0  0  0
    4.1624   -8.6179    0.0000 C   0  0  1  0  0  0  0  0  0  0  0  0
    4.8768   -9.0304    0.0000 C   0  0  0  0  0  0  0  0  0  0  0  0
    5.5913   -8.6179    0.0000 C   0  0  0  0  0  0  0  0  0  0  0  0
    6.3058   -9.0304    0.0000 C   0  0  0  0  0  0  0  0  0  0  0  0
    7.0203   -8.6179    0.0000 C   0  0  0  0  0  0  0  0  0  0  0  0
    7.0203   -7.7929    0.0000 C   0  0  1  0  0  0  0  0  0  0  0  0
    7.7347   -7.3804    0.0000 C   0  0  2  0  0  0  0  0  0  0  0  0
    8.5194   -7.6354    0.0000 C   0  0  0  0  0  0  0  0  0  0  0  0
    9.0043   -6.9679    0.0000 C   0  0  0  0  0  0  0  0  0  0  0  0
    8.5194   -6.3005    0.0000 C   0  0  1  0  0  0  0  0  0  0  0  0
    7.7347   -6.5554    0.0000 C   0  0  1  0  0  0  0  0  0  0  0  0
    7.0203   -6.1429    0.0000 C   0  0  0  0  0  0  0  0  0  0  0  0
    6.3058   -6.5554    0.0000 C   0  0  2  0  0  0  0  0  0  0  0  0
    6.3058   -7.3804    0.0000 C   0  0  1  0  0  0  0  0  0  0  0  0
    5.5913   -7.7929    0.0000 C   0  0  2  0  0  0  0  0  0  0  0  0
    3.4479   -9.0304    0.0000 O   0  0  0  0  0  0  0  0  0  0  0  0
    5.5913   -6.1429    0.0000 O   0  0  0  0  0  0  0  0  0  0  0  0
    7.7347   -8.2054    0.0000 C   0  0  0  0  0  0  0  0  0  0  0  0
    7.8210   -5.7349    0.0000 C   0  0  0  0  0  0  0  0  0  0  0  0
    6.3058   -8.2054    0.0000 C   0  0  0  0  0  0  0  0  0  0  0  0
    5.2893   -9.7449    0.0000 C   0  0  0  0  0  0  0  0  0  0  0  0
    4.4643   -9.7449    0.0000 C   0  0  0  0  0  0  0  0  0  0  0  0
    8.2223   -4.9028    0.0000 C   0  0  0  0  0  0  0  0  0  0  0  0
    8.7743   -5.5159    0.0000 C   0  0  2  0  0  0  0  0  0  0  0  0
    9.5813   -5.3443    0.0000 C   0  0  0  0  0  0  0  0  0  0  0  0
    9.8362   -4.5597    0.0000 C   0  0  0  0  0  0  0  0  0  0  0  0
   10.6432   -4.3882    0.0000 C   0  0  2  0  0  0  0  0  0  0  0  0
   10.8981   -3.6036    0.0000 C   0  0  0  0  0  0  0  0  0  0  0  0
   10.3461   -2.9905    0.0000 C   0  0  0  0  0  0  0  0  0  0  0  0
   11.7051   -3.4320    0.0000 C   0  0  0  0  0  0  0  0  0  0  0  0
   11.1531   -2.8189    0.0000 O   0  0  0  0  0  0  0  0  0  0  0  0
   11.1952   -5.0013    0.0000 O   0  0  0  0  0  0  0  0  0  0  0  0
    7.0203   -6.9679    0.0000 H   0  0  0  0  0  0  0  0  0  0  0  0
    5.5913   -6.9679    0.0000 H   0  0  0  0  0  0  0  0  0  0  0  0
  1  2  1  0  0  0  0
  2  3  1  0  0  0  0
  3  4  1  0  0  0  0
  4  5  1  0  0  0  0
  5  6  2  0  0  0  0
  6  7  1  0  0  0  0
  7  8  1  0  0  0  0
  8  9  1  0  0  0  0
  9 10  1  0  0  0  0
 10 11  1  0  0  0  0
 12 11  1  1  0  0  0
 12 13  1  0  0  0  0
  9 13  1  0  0  0  0
 13 14  1  0  0  0  0
 14 15  1  0  0  0  0
 15 16  1  0  0  0  0
  8 16  1  0  0  0  0
 16 17  1  0  0  0  0
  5 17  1  0  0  0  0
  1 17  1  0  0  0  0
  3 18  1  1  0  0  0
 15 19  1  6  0  0  0
  9 20  1  6  0  0  0
 13 21  1  1  0  0  0
 16 22  1  1  0  0  0
  4 23  1  0  0  0  0
  4 24  1  0  0  0  0
 26 25  1  6  0  0  0
 26 27  1  0  0  0  0
 27 28  1  0  0  0  0
 28 29  1  0  0  0  0
 29 30  1  0  0  0  0
 30 31  1  0  0  0  0
 30 32  1  0  0  0  0
 30 33  1  0  0  0  0
 29 34  1  6  0  0  0
 12 26  1  0  0  0  0
  8 35  1  1  0  0  0
 17 36  1  6  0  0  0
M  END
>  <cdx:groupId>
2185

>  <cdx:fragmentId>
2077

$$$$
