301810.cdx
  Mrv1902 05222410212D          

 30 32  0  0  0  0            999 V2000
    7.8067   -6.7856    0.0000 C   0  0  1  0  0  0  0  0  0  0  0  0
    8.5211   -6.3731    0.0000 C   0  0  1  0  0  0  0  0  0  0  0  0
    8.5211   -5.5481    0.0000 C   0  0  1  0  0  0  0  0  0  0  0  0
    7.8067   -5.1356    0.0000 C   0  0  0  0  0  0  0  0  0  0  0  0
    7.0922   -5.5481    0.0000 C   0  0  0  0  0  0  0  0  0  0  0  0
    7.0922   -6.3731    0.0000 O   0  0  0  0  0  0  0  0  0  0  0  0
    9.3058   -5.2932    0.0000 C   0  0  0  0  0  0  0  0  0  0  0  0
    9.7907   -5.9606    0.0000 C   0  0  2  0  0  0  0  0  0  0  0  0
    9.3058   -6.6281    0.0000 C   0  0  1  0  0  0  0  0  0  0  0  0
    7.8067   -4.3106    0.0000 C   0  0  0  0  0  0  0  0  0  0  0  0
    8.5211   -3.8981    0.0000 O   0  0  0  0  0  0  0  0  0  0  0  0
    7.0922   -3.8981    0.0000 O   0  0  0  0  0  0  0  0  0  0  0  0
    7.8067   -7.6106    0.0000 O   0  0  0  0  0  0  0  0  0  0  0  0
    6.3777   -7.6106    0.0000 O   0  0  0  0  0  0  0  0  0  0  0  0
    7.0922   -8.0231    0.0000 C   0  0  2  0  0  0  0  0  0  0  0  0
    7.0922   -8.8481    0.0000 C   0  0  1  0  0  0  0  0  0  0  0  0
    6.3777   -9.2606    0.0000 C   0  0  2  0  0  0  0  0  0  0  0  0
    5.6633   -8.8481    0.0000 C   0  0  1  0  0  0  0  0  0  0  0  0
    5.6633   -8.0231    0.0000 C   0  0  1  0  0  0  0  0  0  0  0  0
    4.9488   -7.6106    0.0000 C   0  0  0  0  0  0  0  0  0  0  0  0
    4.2343   -8.0231    0.0000 O   0  0  0  0  0  0  0  0  0  0  0  0
    4.9488   -9.2606    0.0000 O   0  0  0  0  0  0  0  0  0  0  0  0
    6.3777  -10.0856    0.0000 O   0  0  0  0  0  0  0  0  0  0  0  0
    7.8067   -9.2606    0.0000 O   0  0  0  0  0  0  0  0  0  0  0  0
    9.5607   -7.4127    0.0000 C   0  0  0  0  0  0  0  0  0  0  0  0
   10.3677   -7.5842    0.0000 O   0  0  0  0  0  0  0  0  0  0  0  0
   10.6157   -5.9606    0.0000 O   0  0  0  0  0  0  0  0  0  0  0  0
    8.6074   -4.7276    0.0000 H   0  0  0  0  0  0  0  0  0  0  0  0
    8.6074   -7.1936    0.0000 H   0  0  0  0  0  0  0  0  0  0  0  0
    7.0922   -3.0731    0.0000 C   0  0  0  0  0  0  0  0  0  0  0  0
  1  2  1  0  0  0  0
  2  3  1  0  0  0  0
  3  4  1  0  0  0  0
  4  5  2  0  0  0  0
  5  6  1  0  0  0  0
  1  6  1  0  0  0  0
  7  8  1  0  0  0  0
  8  9  1  0  0  0  0
  9  2  1  0  0  0  0
  7  3  1  0  0  0  0
 10 11  2  0  0  0  0
 10 12  1  0  0  0  0
  4 10  1  0  0  0  0
 14 15  1  0  0  0  0
 15 16  1  0  0  0  0
 16 17  1  0  0  0  0
 17 18  1  0  0  0  0
 18 19  1  0  0  0  0
 14 19  1  0  0  0  0
 20 21  1  0  0  0  0
 19 20  1  1  0  0  0
 18 22  1  6  0  0  0
 17 23  1  1  0  0  0
 16 24  1  6  0  0  0
 15 13  1  1  0  0  0
  1 13  1  6  0  0  0
 25 26  1  0  0  0  0
  9 25  1  1  0  0  0
  8 27  1  1  0  0  0
  3 28  1  6  0  0  0
  2 29  1  6  0  0  0
 12 30  1  0  0  0  0
M  END
>  <cdx:groupId>
2856

>  <cdx:fragmentId>
2767

$$$$
