301879.cdx
  Mrv1902 05222410262D          

 34 37  0  0  0  0            999 V2000
    6.8096   -4.2224    0.0000 C   0  0  0  0  0  0  0  0  0  0  0  0
    6.0952   -3.8099    0.0000 C   0  0  0  0  0  0  0  0  0  0  0  0
    7.5241   -3.8099    0.0000 O   0  0  0  0  0  0  0  0  0  0  0  0
    6.8096   -5.0474    0.0000 O   0  0  0  0  0  0  0  0  0  0  0  0
    7.5241   -6.2849    0.0000 C   0  0  1  0  0  0  0  0  0  0  0  0
    6.8100   -6.6981    0.0000 C   0  0  1  0  0  0  0  0  0  0  0  0
    6.0954   -6.2858    0.0000 C   0  0  0  0  0  0  0  0  0  0  0  0
    5.3811   -6.6986    0.0000 C   0  0  2  0  0  0  0  0  0  0  0  0
    5.3814   -7.5236    0.0000 C   0  0  0  0  0  0  0  0  0  0  0  0
    6.0960   -7.9358    0.0000 C   0  0  2  0  0  0  0  0  0  0  0  0
    6.8103   -7.5231    0.0000 C   0  0  2  0  0  0  0  0  0  0  0  0
    7.5246   -7.9358    0.0000 C   0  0  0  0  0  0  0  0  0  0  0  0
    8.2386   -7.5224    0.0000 C   0  0  1  0  0  0  0  0  0  0  0  0
    8.9530   -7.9349    0.0000 O   0  0  0  0  0  0  0  0  0  0  0  0
    9.6675   -7.5224    0.0000 C   0  0  0  0  0  0  0  0  0  0  0  0
    9.6675   -6.6974    0.0000 C   0  0  0  0  0  0  0  0  0  0  0  0
    8.9530   -6.2849    0.0000 C   0  0  1  0  0  0  0  0  0  0  0  0
    8.9530   -5.4599    0.0000 C   0  0  2  0  0  0  0  0  0  0  0  0
    8.2386   -5.0474    0.0000 C   0  0  1  0  0  0  0  0  0  0  0  0
    7.5241   -5.4599    0.0000 C   0  0  1  0  0  0  0  0  0  0  0  0
    8.2386   -6.6974    0.0000 C   0  0  1  0  0  0  0  0  0  0  0  0
   10.3820   -7.9349    0.0000 O   0  0  0  0  0  0  0  0  0  0  0  0
    6.0954   -5.4608    0.0000 O   0  0  0  0  0  0  0  0  0  0  0  0
    8.2386   -5.8724    0.0000 C   0  0  0  0  0  0  0  0  0  0  0  0
    9.6675   -5.0474    0.0000 C   0  0  0  0  0  0  0  0  0  0  0  0
    6.0960   -8.7608    0.0000 C   0  0  0  0  0  0  0  0  0  0  0  0
    6.8100   -5.8731    0.0000 C   0  0  0  0  0  0  0  0  0  0  0  0
    8.2386   -4.2224    0.0000 O   0  0  0  0  0  0  0  0  0  0  0  0
    8.9530   -3.8099    0.0000 C   0  0  0  0  0  0  0  0  0  0  0  0
    4.6666   -6.2861    0.0000 O   0  0  0  0  0  0  0  0  0  0  0  0
    7.5241   -7.1099    0.0000 H   0  0  0  0  0  0  0  0  0  0  0  0
    6.8103   -8.3481    0.0000 H   0  0  0  0  0  0  0  0  0  0  0  0
    8.2386   -8.3474    0.0000 H   0  0  0  0  0  0  0  0  0  0  0  0
    9.6675   -5.8724    0.0000 H   0  0  0  0  0  0  0  0  0  0  0  0
  1  2  1  0  0  0  0
  1  3  2  0  0  0  0
  1  4  1  0  0  0  0
  5  6  1  0  0  0  0
  6  7  1  0  0  0  0
  7  8  1  0  0  0  0
  8  9  1  0  0  0  0
  9 10  1  0  0  0  0
 10 11  1  0  0  0  0
 11 12  1  0  0  0  0
 12 13  1  0  0  0  0
 13 14  1  0  0  0  0
 14 15  1  0  0  0  0
 15 16  1  0  0  0  0
 16 17  1  0  0  0  0
 17 18  1  0  0  0  0
 18 19  1  0  0  0  0
 19 20  1  0  0  0  0
  5 20  1  0  0  0  0
  5 21  1  0  0  0  0
 21 13  1  0  0  0  0
  6 11  1  0  0  0  0
 17 21  1  0  0  0  0
 15 22  2  0  0  0  0
  7 23  2  0  0  0  0
 21 24  1  1  0  0  0
 18 25  1  6  0  0  0
 10 26  1  6  0  0  0
  6 27  1  1  0  0  0
 28 29  1  0  0  0  0
 19 28  1  1  0  0  0
  8 30  1  6  0  0  0
 20  4  1  6  0  0  0
  5 31  1  6  0  0  0
 11 32  1  6  0  0  0
 13 33  1  1  0  0  0
 17 34  1  1  0  0  0
M  END
>  <cdx:groupId>
1445

>  <cdx:fragmentId>
1351

$$$$
