301896.cdx
  Mrv1902 05222410282D          

 27 32  0  0  0  0            999 V2000
    6.9343   -4.4512    0.0000 H   0  0  0  0  0  0  0  0  0  0  0  0
    6.9512   -6.9261    0.0000 H   0  0  0  0  0  0  0  0  0  0  0  0
    6.2171   -4.0435    0.0000 O   0  0  0  0  0  0  0  0  0  0  0  0
    7.6628   -6.5088    0.0000 N   0  0  0  0  0  0  0  0  0  0  0  0
    8.3745   -6.0914    0.0000 C   0  0  0  0  0  0  0  0  0  0  0  0
    8.3689   -5.2664    0.0000 C   0  0  0  0  0  0  0  0  0  0  0  0
    9.0805   -4.8491    0.0000 C   0  0  0  0  0  0  0  0  0  0  0  0
    9.8669   -5.0986    0.0000 O   0  0  0  0  0  0  0  0  0  0  0  0
   10.3472   -4.4279    0.0000 C   0  0  0  0  0  0  0  0  0  0  0  0
    9.8578   -3.7638    0.0000 O   0  0  0  0  0  0  0  0  0  0  0  0
    9.0749   -4.0241    0.0000 C   0  0  0  0  0  0  0  0  0  0  0  0
    8.3576   -3.6165    0.0000 C   0  0  0  0  0  0  0  0  0  0  0  0
    7.6460   -4.0338    0.0000 C   0  0  0  0  0  0  0  0  0  0  0  0
    7.6516   -4.8588    0.0000 C   0  0  0  0  0  0  0  0  0  0  0  0
    6.9400   -5.2761    0.0000 C   0  0  1  0  0  0  0  0  0  0  0  0
    6.2227   -4.8685    0.0000 C   0  0  2  0  0  0  0  0  0  0  0  0
    5.5111   -5.2859    0.0000 C   0  0  0  0  0  0  0  0  0  0  0  0
    5.5167   -6.1109    0.0000 C   0  0  0  0  0  0  0  0  0  0  0  0
    4.8050   -6.5282    0.0000 C   0  0  0  0  0  0  0  0  0  0  0  0
    4.8107   -7.3532    0.0000 C   0  0  0  0  0  0  0  0  0  0  0  0
    4.2013   -7.9094    0.0000 O   0  0  0  0  0  0  0  0  0  0  0  0
    4.5420   -8.6608    0.0000 C   0  0  0  0  0  0  0  0  0  0  0  0
    5.3619   -8.5689    0.0000 O   0  0  0  0  0  0  0  0  0  0  0  0
    5.5279   -7.7608    0.0000 C   0  0  0  0  0  0  0  0  0  0  0  0
    6.2396   -7.3435    0.0000 C   0  0  0  0  0  0  0  0  0  0  0  0
    6.2339   -6.5185    0.0000 C   0  0  0  0  0  0  0  0  0  0  0  0
    6.9456   -6.1011    0.0000 C   0  0  1  0  0  0  0  0  0  0  0  0
 15  1  1  1  0  0  0
 27  2  1  1  0  0  0
 16  3  1  6  0  0  0
 24 20  2  0  0  0  0
 26 18  1  0  0  0  0
 11  7  2  0  0  0  0
 14  6  2  0  0  0  0
 27 15  1  0  0  0  0
 27  4  1  0  0  0  0
  5  4  1  0  0  0  0
  6  5  1  0  0  0  0
  7  6  1  0  0  0  0
  8  7  1  0  0  0  0
  9  8  1  0  0  0  0
 10  9  1  0  0  0  0
 11 10  1  0  0  0  0
 12 11  1  0  0  0  0
 13 12  2  0  0  0  0
 14 13  1  0  0  0  0
 15 14  1  0  0  0  0
 16 15  1  0  0  0  0
 17 16  1  0  0  0  0
 18 17  1  0  0  0  0
 19 18  2  0  0  0  0
 20 19  1  0  0  0  0
 21 20  1  0  0  0  0
 22 21  1  0  0  0  0
 23 22  1  0  0  0  0
 24 23  1  0  0  0  0
 25 24  1  0  0  0  0
 26 25  2  0  0  0  0
 27 26  1  0  0  0  0
M  END
>  <cdx:fragmentId>
207

$$$$
