301873.cdx
  Mrv1902 05222410192D          

 23 24  0  0  0  0            999 V2000
    7.4120   -5.8253    0.0000 O   0  0  0  0  0  0  0  0  0  0  0  0
    7.4044   -5.0004    0.0000 C   0  0  1  0  0  0  0  0  0  0  0  0
    8.1150   -4.5812    0.0000 C   0  0  2  0  0  0  0  0  0  0  0  0
    8.8333   -4.9871    0.0000 C   0  0  1  0  0  0  0  0  0  0  0  0
    8.8409   -5.8121    0.0000 C   0  0  2  0  0  0  0  0  0  0  0  0
    8.1303   -6.2312    0.0000 C   0  0  1  0  0  0  0  0  0  0  0  0
    8.1073   -3.7563    0.0000 O   0  0  0  0  0  0  0  0  0  0  0  0
    9.5439   -4.5680    0.0000 O   0  0  0  0  0  0  0  0  0  0  0  0
    9.5592   -6.2179    0.0000 O   0  0  0  0  0  0  0  0  0  0  0  0
    8.1380   -7.0561    0.0000 O   0  0  0  0  0  0  0  0  0  0  0  0
    6.6861   -4.5945    0.0000 C   0  0  0  0  0  0  0  0  0  0  0  0
    6.6784   -3.7696    0.0000 O   0  0  0  0  0  0  0  0  0  0  0  0
    8.1380   -8.7061    0.0000 O   0  0  0  0  0  0  0  0  0  0  0  0
    6.7090   -9.5311    0.0000 O   0  0  0  0  0  0  0  0  0  0  0  0
    5.2801   -8.7061    0.0000 O   0  0  0  0  0  0  0  0  0  0  0  0
    4.5656   -7.4686    0.0000 O   0  0  0  0  0  0  0  0  0  0  0  0
    5.2801   -7.0561    0.0000 C   0  0  0  0  0  0  0  0  0  0  0  0
    5.9946   -7.4686    0.0000 C   0  0  2  0  0  0  0  0  0  0  0  0
    5.9946   -8.2936    0.0000 C   0  0  2  0  0  0  0  0  0  0  0  0
    6.7090   -8.7061    0.0000 C   0  0  1  0  0  0  0  0  0  0  0  0
    7.4235   -8.2936    0.0000 C   0  0  2  0  0  0  0  0  0  0  0  0
    7.4235   -7.4686    0.0000 C   0  0  1  0  0  0  0  0  0  0  0  0
    6.7090   -7.0561    0.0000 O   0  0  0  0  0  0  0  0  0  0  0  0
 22 10  1  1  0  0  0
 21 13  1  6  0  0  0
 20 14  1  1  0  0  0
 19 15  1  6  0  0  0
 18 17  1  1  0  0  0
 17 16  1  0  0  0  0
 23 18  1  0  0  0  0
 19 18  1  0  0  0  0
 20 19  1  0  0  0  0
 21 20  1  0  0  0  0
 22 21  1  0  0  0  0
 23 22  1  0  0  0  0
  1  2  1  0  0  0  0
  2  3  1  0  0  0  0
  3  4  1  0  0  0  0
  4  5  1  0  0  0  0
  5  6  1  0  0  0  0
  1  6  1  0  0  0  0
  3  7  1  1  0  0  0
  4  8  1  6  0  0  0
  5  9  1  1  0  0  0
  6 10  1  1  0  0  0
 11 12  1  0  0  0  0
  2 11  1  6  0  0  0
M  END
>  <cdx:groupId>
833

>  <cdx:fragmentId>
786

$$$$
