301897.cdx
  Mrv1902 05222410282D          

 23 26  0  0  0  0            999 V2000
    4.8881   -5.9538    0.0000 C   0  0  0  0  0  0  0  0  0  0  0  0
    4.8881   -6.7788    0.0000 C   0  0  0  0  0  0  0  0  0  0  0  0
    5.6026   -7.1913    0.0000 C   0  0  0  0  0  0  0  0  0  0  0  0
    6.3171   -6.7788    0.0000 C   0  0  0  0  0  0  0  0  0  0  0  0
    6.3171   -5.9538    0.0000 C   0  0  0  0  0  0  0  0  0  0  0  0
    5.6026   -5.5413    0.0000 C   0  0  0  0  0  0  0  0  0  0  0  0
    7.0315   -7.1913    0.0000 C   0  0  0  0  0  0  0  0  0  0  0  0
    7.7460   -6.7788    0.0000 C   0  0  0  0  0  0  0  0  0  0  0  0
    7.7460   -5.9538    0.0000 C   0  0  1  0  0  0  0  0  0  0  0  0
    7.0315   -5.5413    0.0000 C   0  0  1  0  0  0  0  0  0  0  0  0
    8.4605   -5.5413    0.0000 C   0  0  0  0  0  0  0  0  0  0  0  0
    8.4605   -4.7162    0.0000 C   0  0  2  0  0  0  0  0  0  0  0  0
    7.7460   -4.3037    0.0000 C   0  0  0  0  0  0  0  0  0  0  0  0
    7.0315   -4.7162    0.0000 C   0  0  0  0  0  0  0  0  0  0  0  0
    6.3171   -5.1287    0.0000 C   0  0  0  0  0  0  0  0  0  0  0  0
    8.4605   -3.8912    0.0000 C   0  0  0  0  0  0  0  0  0  0  0  0
    9.1750   -4.3037    0.0000 C   0  0  0  0  0  0  0  0  0  0  0  0
    9.8894   -4.7162    0.0000 C   0  0  0  0  0  0  0  0  0  0  0  0
    4.2750   -7.3308    0.0000 C   0  0  0  0  0  0  0  0  0  0  0  0
    4.6106   -8.0845    0.0000 O   0  0  0  0  0  0  0  0  0  0  0  0
    5.4311   -7.9982    0.0000 C   0  0  0  0  0  0  0  0  0  0  0  0
    6.0144   -8.5816    0.0000 O   0  0  0  0  0  0  0  0  0  0  0  0
    8.4605   -6.3662    0.0000 H   0  0  0  0  0  0  0  0  0  0  0  0
  1  2  2  0  0  0  0
  2  3  1  0  0  0  0
  3  4  2  0  0  0  0
  4  5  1  0  0  0  0
  5  6  2  0  0  0  0
  6  1  1  0  0  0  0
  4  7  1  0  0  0  0
  7  8  1  0  0  0  0
  8  9  1  0  0  0  0
  9 10  1  0  0  0  0
 10  5  1  0  0  0  0
  9 11  1  0  0  0  0
 11 12  1  0  0  0  0
 12 13  1  0  0  0  0
 13 14  1  0  0  0  0
 14 10  1  0  0  0  0
 10 15  1  1  0  0  0
 12 16  1  6  0  0  0
 12 17  1  1  0  0  0
 17 18  2  0  0  0  0
  2 19  1  0  0  0  0
 19 20  1  0  0  0  0
 20 21  1  0  0  0  0
 21  3  1  0  0  0  0
 21 22  2  0  0  0  0
  9 23  1  6  0  0  0
M  END
>  <cdx:fragmentId>
2246

$$$$
