301815.cdx
  Mrv1902 05222410222D          

 20 20  0  0  0  0            999 V2000
    3.1405   -6.4773    0.0000 O   0  0  0  0  0  0  0  0  0  0  0  0
    2.5885   -7.0904    0.0000 C   0  0  0  0  0  0  0  0  0  0  0  0
    3.0010   -7.8048    0.0000 C   0  0  0  0  0  0  0  0  0  0  0  0
    3.8080   -7.6333    0.0000 C   0  0  0  0  0  0  0  0  0  0  0  0
    3.8942   -6.8128    0.0000 C   0  0  0  0  0  0  0  0  0  0  0  0
    1.7680   -7.0041    0.0000 O   0  0  0  0  0  0  0  0  0  0  0  0
    4.6087   -6.4003    0.0000 C   0  0  0  0  0  0  0  0  0  0  0  0
    5.3232   -6.8128    0.0000 C   0  0  0  0  0  0  0  0  0  0  0  0
    6.0376   -6.4003    0.0000 C   0  0  0  0  0  0  0  0  0  0  0  0
    6.7521   -6.8128    0.0000 C   0  0  0  0  0  0  0  0  0  0  0  0
    7.4666   -6.4003    0.0000 C   0  0  0  0  0  0  0  0  0  0  0  0
    8.1810   -6.8128    0.0000 C   0  0  0  0  0  0  0  0  0  0  0  0
    8.8955   -6.4003    0.0000 C   0  0  0  0  0  0  0  0  0  0  0  0
    9.6100   -6.8128    0.0000 C   0  0  0  0  0  0  0  0  0  0  0  0
   10.3245   -6.4003    0.0000 C   0  0  0  0  0  0  0  0  0  0  0  0
   11.0389   -6.8128    0.0000 C   0  0  0  0  0  0  0  0  0  0  0  0
   11.7534   -6.4003    0.0000 C   0  0  0  0  0  0  0  0  0  0  0  0
   12.4679   -6.8128    0.0000 C   0  0  0  0  0  0  0  0  0  0  0  0
   13.1823   -6.4003    0.0000 C   0  0  0  0  0  0  0  0  0  0  0  0
    4.6087   -5.5753    0.0000 O   0  0  0  0  0  0  0  0  0  0  0  0
  1  2  1  0  0  0  0
  2  3  1  0  0  0  0
  3  4  1  0  0  0  0
  4  5  1  0  0  0  0
  1  5  1  0  0  0  0
  2  6  2  0  0  0  0
  7  8  1  0  0  0  0
  8  9  1  0  0  0  0
  9 10  1  0  0  0  0
 10 11  1  0  0  0  0
 11 12  1  0  0  0  0
 12 13  1  0  0  0  0
 13 14  1  0  0  0  0
 14 15  1  0  0  0  0
 15 16  1  0  0  0  0
 16 17  1  0  0  0  0
 17 18  1  0  0  0  0
 18 19  1  0  0  0  0
  7 20  1  0  0  0  0
  5  7  1  0  0  0  0
M  END
>  <cdx:groupId>
3241

>  <cdx:fragmentId>
3196

$$$$
