301883.cdx
  Mrv1902 05222410282D          

 37 40  0  0  0  0            999 V2000
    4.3149   -6.3655    0.0000 C   0  0  2  0  0  0  0  0  0  0  0  0
    4.1433   -7.1725    0.0000 C   0  0  2  0  0  0  0  0  0  0  0  0
    3.3228   -7.2587    0.0000 C   0  0  2  0  0  0  0  0  0  0  0  0
    2.9873   -6.5050    0.0000 O   0  0  0  0  0  0  0  0  0  0  0  0
    3.6004   -5.9530    0.0000 C   0  0  1  0  0  0  0  0  0  0  0  0
    3.6004   -5.1280    0.0000 C   0  0  0  0  0  0  0  0  0  0  0  0
    4.3149   -4.7155    0.0000 C   0  0  0  0  0  0  0  0  0  0  0  0
    5.0293   -5.1280    0.0000 C   0  0  1  0  0  0  0  0  0  0  0  0
    5.7179   -5.5438    0.0000 C   0  0  1  0  0  0  0  0  0  0  0  0
    5.7129   -6.3481    0.0000 C   0  0  2  0  0  0  0  0  0  0  0  0
    5.0188   -6.7546    0.0000 O   0  0  0  0  0  0  0  0  0  0  0  0
    5.0293   -5.9530    0.0000 O   0  0  0  0  0  0  0  0  0  0  0  0
    4.6954   -7.7856    0.0000 C   0  0  0  0  0  0  0  0  0  0  0  0
    4.4404   -8.5702    0.0000 O   0  0  0  0  0  0  0  0  0  0  0  0
    5.5023   -7.6140    0.0000 O   0  0  0  0  0  0  0  0  0  0  0  0
    4.3149   -3.8905    0.0000 O   0  0  0  0  0  0  0  0  0  0  0  0
    6.4324   -5.1313    0.0000 C   0  0  0  0  0  0  0  0  0  0  0  0
    2.8467   -5.6175    0.0000 C   0  0  0  0  0  0  0  0  0  0  0  0
    2.9103   -7.9732    0.0000 C   0  0  0  0  0  0  0  0  0  0  0  0
    6.4274   -7.5856    0.0000 C   0  0  0  0  0  0  0  0  0  0  0  0
    6.4274   -6.7606    0.0000 C   0  0  2  0  0  0  0  0  0  0  0  0
    7.1419   -6.3481    0.0000 C   0  0  0  0  0  0  0  0  0  0  0  0
    7.8564   -6.7606    0.0000 C   0  0  0  0  0  0  0  0  0  0  0  0
    8.5708   -6.3481    0.0000 C   0  0  0  0  0  0  0  0  0  0  0  0
    9.2853   -6.7606    0.0000 C   0  0  0  0  0  0  0  0  0  0  0  0
    9.9998   -6.3481    0.0000 C   0  0  0  0  0  0  0  0  0  0  0  0
    7.8564   -7.5856    0.0000 C   0  0  0  0  0  0  0  0  0  0  0  0
    9.9998   -5.5231    0.0000 O   0  0  0  0  0  0  0  0  0  0  0  0
   11.6074   -7.7526    0.0000 N   0  0  0  0  0  0  0  0  0  0  0  0
   10.8005   -7.5811    0.0000 C   0  0  0  0  0  0  0  0  0  0  0  0
   10.7142   -6.7606    0.0000 C   0  0  0  0  0  0  0  0  0  0  0  0
   11.4679   -6.4251    0.0000 C   0  0  0  0  0  0  0  0  0  0  0  0
   12.0199   -7.0382    0.0000 C   0  0  0  0  0  0  0  0  0  0  0  0
   11.6394   -5.6181    0.0000 O   0  0  0  0  0  0  0  0  0  0  0  0
   10.1874   -8.1331    0.0000 O   0  0  0  0  0  0  0  0  0  0  0  0
    5.4418   -4.4135    0.0000 H   0  0  0  0  0  0  0  0  0  0  0  0
    6.0857   -8.1974    0.0000 C   0  0  0  0  0  0  0  0  0  0  0  0
  1  2  1  0  0  0  0
  2  3  1  0  0  0  0
  3  4  1  0  0  0  0
  4  5  1  0  0  0  0
  5  6  1  0  0  0  0
  6  7  1  0  0  0  0
  7  8  1  0  0  0  0
  8  9  1  0  0  0  0
  9 10  1  0  0  0  0
 10 11  1  1  0  0  0
  1 11  1  6  0  0  0
  1 12  1  0  0  0  0
  8 12  1  6  0  0  0
  1  5  1  0  0  0  0
 13 14  2  0  0  0  0
 13 15  1  0  0  0  0
  2 13  1  1  0  0  0
  7 16  2  0  0  0  0
  9 17  1  6  0  0  0
  5 18  1  6  0  0  0
  3 19  1  1  0  0  0
 21 20  1  1  0  0  0
 21 22  1  0  0  0  0
 22 23  2  0  0  0  0
 23 24  1  0  0  0  0
 24 25  2  0  0  0  0
 25 26  1  0  0  0  0
 23 27  1  0  0  0  0
 26 28  1  0  0  0  0
 29 30  1  0  0  0  0
 30 31  1  0  0  0  0
 31 32  1  0  0  0  0
 32 33  1  0  0  0  0
 29 33  1  0  0  0  0
 32 34  2  0  0  0  0
 30 35  2  0  0  0  0
 26 31  2  0  0  0  0
 10 21  1  0  0  0  0
  8 36  1  0  0  0  0
 15 37  1  0  0  0  0
M  END
>  <cdx:groupId>
1756

>  <cdx:fragmentId>
1645

$$$$
