301866.cdx
  Mrv1902 05222410192D          

 43 46  0  0  0  0            999 V2000
    4.5505   -5.1235    0.0000 O   0  0  0  0  0  0  0  0  0  0  0  0
    5.9890   -4.3152    0.0000 O   0  0  0  0  0  0  0  0  0  0  0  0
    7.4178   -4.3319    0.0000 O   0  0  0  0  0  0  0  0  0  0  0  0
    7.4082   -5.1568    0.0000 C   0  0  0  0  0  0  0  0  0  0  0  0
    3.0867   -7.6782    0.0000 O   0  0  0  0  0  0  0  0  0  0  0  0
    3.0704   -9.3281    0.0000 O   0  0  0  0  0  0  0  0  0  0  0  0
    4.4912  -10.1672    0.0000 O   0  0  0  0  0  0  0  0  0  0  0  0
    5.9282   -9.3563    0.0000 C   0  0  0  0  0  0  0  0  0  0  0  0
    5.2178   -8.9368    0.0000 C   0  0  1  0  0  0  0  0  0  0  0  0
    4.4993   -9.3422    0.0000 C   0  0  1  0  0  0  0  0  0  0  0  0
    3.7889   -8.9227    0.0000 C   0  0  2  0  0  0  0  0  0  0  0  0
    3.7971   -8.0977    0.0000 C   0  0  2  0  0  0  0  0  0  0  0  0
    4.5156   -7.6923    0.0000 C   0  0  1  0  0  0  0  0  0  0  0  0
    5.2259   -8.1118    0.0000 O   0  0  0  0  0  0  0  0  0  0  0  0
    4.5179   -6.8227    0.0000 O   0  0  0  0  0  0  0  0  0  0  0  0
    6.6890   -5.5610    0.0000 C   0  0  2  0  0  0  0  0  0  0  0  0
    5.9794   -5.1402    0.0000 C   0  0  2  0  0  0  0  0  0  0  0  0
    5.2601   -5.5443    0.0000 C   0  0  1  0  0  0  0  0  0  0  0  0
    5.2505   -6.3692    0.0000 C   0  0  2  0  0  0  0  0  0  0  0  0
    5.9601   -6.7900    0.0000 C   0  0  1  0  0  0  0  0  0  0  0  0
    6.6794   -6.3859    0.0000 O   0  0  0  0  0  0  0  0  0  0  0  0
    5.9505   -7.6150    0.0000 O   0  0  0  0  0  0  0  0  0  0  0  0
    8.8082   -7.6455    0.0000 O   0  0  0  0  0  0  0  0  0  0  0  0
    7.3529  -10.1051    0.0000 O   0  0  0  0  0  0  0  0  0  0  0  0
    7.3618   -9.2802    0.0000 C   0  0  0  0  0  0  0  0  0  0  0  0
    6.6517   -8.8600    0.0000 C   0  0  0  0  0  0  0  0  0  0  0  0
    6.6605   -8.0351    0.0000 C   0  0  0  0  0  0  0  0  0  0  0  0
    7.3794   -7.6302    0.0000 C   0  0  0  0  0  0  0  0  0  0  0  0
    8.0894   -8.0504    0.0000 C   0  0  0  0  0  0  0  0  0  0  0  0
    8.0806   -8.8753    0.0000 C   0  0  0  0  0  0  0  0  0  0  0  0
   13.0772   -9.3412    0.0000 O   0  0  0  0  0  0  0  0  0  0  0  0
   13.8048   -8.1114    0.0000 C   0  0  0  0  0  0  0  0  0  0  0  0
   13.0948   -7.6913    0.0000 O   0  0  0  0  0  0  0  0  0  0  0  0
   10.9471   -8.0809    0.0000 C   0  0  0  0  0  0  0  0  0  0  0  0
   11.6660   -7.6760    0.0000 C   0  0  0  0  0  0  0  0  0  0  0  0
   12.3760   -8.0961    0.0000 C   0  0  0  0  0  0  0  0  0  0  0  0
   12.3672   -8.9211    0.0000 C   0  0  0  0  0  0  0  0  0  0  0  0
   11.6483   -9.3259    0.0000 C   0  0  0  0  0  0  0  0  0  0  0  0
   10.9383   -8.9058    0.0000 C   0  0  0  0  0  0  0  0  0  0  0  0
    8.7818  -10.1204    0.0000 O   0  0  0  0  0  0  0  0  0  0  0  0
   10.2195   -9.3107    0.0000 C   0  0  0  0  0  0  0  0  0  0  0  0
    9.5095   -8.8906    0.0000 C   0  0  0  0  0  0  0  0  0  0  0  0
    8.7906   -9.2954    0.0000 C   0  0  0  0  0  0  0  0  0  0  0  0
 43 30  1  0  0  0  0
 27 22  1  0  0  0  0
 20 22  1  1  0  0  0
 18  1  1  1  0  0  0
 17  2  1  6  0  0  0
 16  4  1  1  0  0  0
  4  3  1  0  0  0  0
 19 15  1  6  0  0  0
 13 15  1  6  0  0  0
 12  5  1  1  0  0  0
 11  6  1  1  0  0  0
 10  7  1  6  0  0  0
  9  8  1  1  0  0  0
 14  9  1  0  0  0  0
 10  9  1  0  0  0  0
 11 10  1  0  0  0  0
 12 11  1  0  0  0  0
 13 12  1  0  0  0  0
 14 13  1  0  0  0  0
 21 16  1  0  0  0  0
 17 16  1  0  0  0  0
 18 17  1  0  0  0  0
 19 18  1  0  0  0  0
 20 19  1  0  0  0  0
 21 20  1  0  0  0  0
 29 23  1  0  0  0  0
 25 24  1  0  0  0  0
 30 25  2  0  0  0  0
 26 25  1  0  0  0  0
 27 26  2  0  0  0  0
 28 27  1  0  0  0  0
 29 28  2  0  0  0  0
 30 29  1  0  0  0  0
 41 39  1  0  0  0  0
 37 31  1  0  0  0  0
 36 33  1  0  0  0  0
 33 32  1  0  0  0  0
 39 34  2  0  0  0  0
 35 34  1  0  0  0  0
 36 35  2  0  0  0  0
 37 36  1  0  0  0  0
 38 37  2  0  0  0  0
 39 38  1  0  0  0  0
 43 40  2  0  0  0  0
 42 41  1  0  0  0  0
 43 42  1  0  0  0  0
M  END
>  <cdx:fragmentId>
63

$$$$
