301953.cdx
  Mrv1902 05222410232D          

 65 73  0  0  0  0            999 V2000
   15.8013   -7.3944    0.0000 C   0  0  1  0  0  0  0  0  0  0  0  0
   16.5127   -6.9768    0.0000 C   0  0  2  0  0  0  0  0  0  0  0  0
   17.2992   -7.2260    0.0000 C   0  0  0  0  0  0  0  0  0  0  0  0
   17.7793   -6.5551    0.0000 C   0  0  2  0  0  0  0  0  0  0  0  0
   18.5620   -6.2945    0.0000 O   0  0  0  0  0  0  0  0  0  0  0  0
   18.5561   -5.4695    0.0000 C   0  0  2  0  0  0  0  0  0  0  0  0
   17.7696   -5.2203    0.0000 C   0  0  2  0  0  0  0  0  0  0  0  0
   17.2895   -5.8912    0.0000 C   0  0  2  0  0  0  0  0  0  0  0  0
   16.5068   -6.1518    0.0000 C   0  0  1  0  0  0  0  0  0  0  0  0
   15.7894   -5.7444    0.0000 C   0  0  0  0  0  0  0  0  0  0  0  0
   15.0779   -6.1621    0.0000 C   0  0  0  0  0  0  0  0  0  0  0  0
   15.0838   -6.9871    0.0000 C   0  0  2  0  0  0  0  0  0  0  0  0
   14.3724   -7.4047    0.0000 C   0  0  1  0  0  0  0  0  0  0  0  0
   13.6549   -6.9974    0.0000 C   0  0  0  0  0  0  0  0  0  0  0  0
   12.9435   -7.4150    0.0000 C   0  0  0  0  0  0  0  0  0  0  0  0
   12.9494   -8.2400    0.0000 C   0  0  1  0  0  0  0  0  0  0  0  0
   13.6668   -8.6473    0.0000 C   0  0  0  0  0  0  0  0  0  0  0  0
   14.3783   -8.2297    0.0000 C   0  0  0  0  0  0  0  0  0  0  0  0
   15.0958   -8.6370    0.0000 C   0  0  0  0  0  0  0  0  0  0  0  0
   15.8072   -8.2194    0.0000 C   0  0  0  0  0  0  0  0  0  0  0  0
   18.4639   -4.6497    0.0000 O   0  0  0  0  0  0  0  0  0  0  0  0
   19.3122   -5.7996    0.0000 C   0  0  0  0  0  0  0  0  0  0  0  0
   19.9761   -5.3099    0.0000 C   0  0  0  0  0  0  0  0  0  0  0  0
   19.8839   -4.4901    0.0000 C   0  0  2  0  0  0  0  0  0  0  0  0
   19.1278   -4.1600    0.0000 C   0  0  0  0  0  0  0  0  0  0  0  0
   12.2379   -8.6577    0.0000 O   0  0  0  0  0  0  0  0  0  0  0  0
   14.3664   -6.5797    0.0000 C   0  0  0  0  0  0  0  0  0  0  0  0
   16.5068   -5.3268    0.0000 C   0  0  0  0  0  0  0  0  0  0  0  0
   17.5090   -4.4375    0.0000 C   0  0  0  0  0  0  0  0  0  0  0  0
   20.5478   -4.0003    0.0000 C   0  0  0  0  0  0  0  0  0  0  0  0
   15.7953   -6.5694    0.0000 H   0  0  0  0  0  0  0  0  0  0  0  0
   16.5187   -7.8017    0.0000 O   0  0  0  0  0  0  0  0  0  0  0  0
   18.2690   -7.2190    0.0000 H   0  0  0  0  0  0  0  0  0  0  0  0
   16.9225   -5.1523    0.0000 O   0  0  0  0  0  0  0  0  0  0  0  0
   15.0898   -7.8120    0.0000 H   0  0  0  0  0  0  0  0  0  0  0  0
   11.5205   -8.2503    0.0000 C   0  0  2  0  0  0  0  0  0  0  0  0
   11.5116   -7.4254    0.0000 O   0  0  0  0  0  0  0  0  0  0  0  0
   10.7927   -7.0207    0.0000 C   0  0  1  0  0  0  0  0  0  0  0  0
   10.0827   -7.4254    0.0000 C   0  0  2  0  0  0  0  0  0  0  0  0
   10.0827   -8.2503    0.0000 C   0  0  1  0  0  0  0  0  0  0  0  0
   10.7927   -8.6550    0.0000 C   0  0  1  0  0  0  0  0  0  0  0  0
   10.7904   -6.1957    0.0000 C   0  0  0  0  0  0  0  0  0  0  0  0
    9.3694   -8.6648    0.0000 O   0  0  0  0  0  0  0  0  0  0  0  0
    9.3694   -7.0109    0.0000 O   0  0  0  0  0  0  0  0  0  0  0  0
   10.7883   -9.4800    0.0000 O   0  0  0  0  0  0  0  0  0  0  0  0
   10.0760   -5.7832    0.0000 O   0  0  0  0  0  0  0  0  0  0  0  0
   10.0667   -9.8800    0.0000 C   0  0  2  0  0  0  0  0  0  0  0  0
    9.3607   -9.4533    0.0000 O   0  0  0  0  0  0  0  0  0  0  0  0
    8.6381   -9.8514    0.0000 C   0  0  2  0  0  0  0  0  0  0  0  0
    8.6313  -10.6820    0.0000 C   0  0  1  0  0  0  0  0  0  0  0  0
    9.3407  -11.1031    0.0000 C   0  0  2  0  0  0  0  0  0  0  0  0
   10.0667  -10.6994    0.0000 C   0  0  1  0  0  0  0  0  0  0  0  0
    7.9127  -11.0873    0.0000 O   0  0  0  0  0  0  0  0  0  0  0  0
    7.9295   -9.4289    0.0000 C   0  0  0  0  0  0  0  0  0  0  0  0
    9.3291  -11.9280    0.0000 O   0  0  0  0  0  0  0  0  0  0  0  0
   10.7778  -11.1176    0.0000 O   0  0  0  0  0  0  0  0  0  0  0  0
    8.5444   -7.0068    0.0000 C   0  0  2  0  0  0  0  0  0  0  0  0
    8.1375   -6.2891    0.0000 O   0  0  0  0  0  0  0  0  0  0  0  0
    7.3085   -6.2894    0.0000 C   0  0  0  0  0  0  0  0  0  0  0  0
    6.8944   -7.0029    0.0000 C   0  0  2  0  0  0  0  0  0  0  0  0
    7.3052   -7.7229    0.0000 C   0  0  1  0  0  0  0  0  0  0  0  0
    8.1302   -7.7203    0.0000 C   0  0  1  0  0  0  0  0  0  0  0  0
    8.5430   -8.4346    0.0000 O   0  0  0  0  0  0  0  0  0  0  0  0
    6.8921   -8.4369    0.0000 O   0  0  0  0  0  0  0  0  0  0  0  0
    6.0694   -6.9999    0.0000 O   0  0  0  0  0  0  0  0  0  0  0  0
  1  2  1  0  0  0  0
  2  3  1  0  0  0  0
  3  4  1  0  0  0  0
  4  5  1  0  0  0  0
  6  5  1  6  0  0  0
  6  7  1  0  0  0  0
  7  8  1  0  0  0  0
  8  9  1  0  0  0  0
  9 10  1  0  0  0  0
 10 11  1  0  0  0  0
 11 12  1  0  0  0  0
 12 13  1  0  0  0  0
 13 14  1  0  0  0  0
 14 15  1  0  0  0  0
 15 16  1  0  0  0  0
 16 17  1  0  0  0  0
 17 18  1  0  0  0  0
 18 19  2  0  0  0  0
 19 20  1  0  0  0  0
  1 20  1  0  0  0  0
  1 12  1  0  0  0  0
 13 18  1  0  0  0  0
  2  9  1  0  0  0  0
  4  8  1  0  0  0  0
 22 23  1  0  0  0  0
 23 24  1  0  0  0  0
 24 25  1  0  0  0  0
 21 25  1  0  0  0  0
  6 21  1  0  0  0  0
  6 22  1  0  0  0  0
 16 26  1  1  0  0  0
 13 27  1  1  0  0  0
  9 28  1  1  0  0  0
  7 29  1  6  0  0  0
 24 30  1  6  0  0  0
  1 31  1  1  0  0  0
  2 32  1  6  0  0  0
  4 33  1  6  0  0  0
  8 34  1  6  0  0  0
 12 35  1  6  0  0  0
 36 26  1  1  0  0  0
 36 37  1  0  0  0  0
 37 38  1  0  0  0  0
 38 39  1  0  0  0  0
 39 40  1  0  0  0  0
 40 41  1  0  0  0  0
 41 36  1  0  0  0  0
 38 42  1  1  0  0  0
 40 43  1  1  0  0  0
 39 44  1  6  0  0  0
 41 45  1  6  0  0  0
 42 46  1  0  0  0  0
 47 45  1  1  0  0  0
 47 48  1  0  0  0  0
 48 49  1  0  0  0  0
 49 50  1  0  0  0  0
 50 51  1  0  0  0  0
 51 52  1  0  0  0  0
 52 47  1  0  0  0  0
 50 53  1  1  0  0  0
 49 54  1  6  0  0  0
 51 55  1  6  0  0  0
 52 56  1  6  0  0  0
 57 44  1  1  0  0  0
 57 58  1  0  0  0  0
 58 59  1  0  0  0  0
 59 60  1  0  0  0  0
 60 61  1  0  0  0  0
 61 62  1  0  0  0  0
 62 57  1  0  0  0  0
 62 63  1  6  0  0  0
 61 64  1  1  0  0  0
 60 65  1  6  0  0  0
M  END
>  <cdx:fragmentId>
5

$$$$
