301917.cdx
  Mrv1902 05222410192D          

 15 14  0  0  0  0            999 V2000
    8.4589   -5.6606    0.0000 C   0  0  0  0  0  0  0  0  0  0  0  0
    7.7444   -6.0731    0.0000 C   0  0  0  0  0  0  0  0  0  0  0  0
    7.7444   -6.8981    0.0000 C   0  0  0  0  0  0  0  0  0  0  0  0
    8.4589   -7.3106    0.0000 C   0  0  0  0  0  0  0  0  0  0  0  0
    8.4589   -8.1356    0.0000 C   0  0  0  0  0  0  0  0  0  0  0  0
    7.7444   -8.5481    0.0000 C   0  0  0  0  0  0  0  0  0  0  0  0
    8.4589   -4.8356    0.0000 O   0  0  0  0  0  0  0  0  0  0  0  0
    9.1734   -6.0731    0.0000 O   0  0  0  0  0  0  0  0  0  0  0  0
    7.0300   -7.3106    0.0000 C   0  0  0  0  0  0  0  0  0  0  0  0
    6.3155   -6.8981    0.0000 C   0  0  0  0  0  0  0  0  0  0  0  0
    6.3155   -6.0731    0.0000 O   0  0  0  0  0  0  0  0  0  0  0  0
    5.6010   -7.3106    0.0000 O   0  0  0  0  0  0  0  0  0  0  0  0
    4.8865   -6.8981    0.0000 C   0  0  0  0  0  0  0  0  0  0  0  0
    9.1734   -6.8981    0.0000 C   0  0  0  0  0  0  0  0  0  0  0  0
    9.8878   -7.3106    0.0000 O   0  0  0  0  0  0  0  0  0  0  0  0
  1  2  1  0  0  0  0
  2  3  1  0  0  0  0
  3  4  1  0  0  0  0
  4  5  2  0  0  0  0
  5  6  1  0  0  0  0
  1  7  2  0  0  0  0
  1  8  1  0  0  0  0
  9 10  1  0  0  0  0
 10 11  2  0  0  0  0
 12 13  1  0  0  0  0
 10 12  1  0  0  0  0
  3  9  1  0  0  0  0
 14 15  2  0  0  0  0
  4 14  1  0  0  0  0
M  END
>  <cdx:groupId>
2189

>  <cdx:fragmentId>
2148

$$$$
