301941.cdx
  Mrv1902 05222410242D          

 23 22  0  0  0  0            999 V2000
    4.1617  -11.2795    0.0000 C   0  0  0  0  0  0  0  0  0  0  0  0
    4.8761  -10.8670    0.0000 C   0  0  0  0  0  0  0  0  0  0  0  0
    5.5906  -11.2795    0.0000 C   0  0  0  0  0  0  0  0  0  0  0  0
    6.3051  -10.8670    0.0000 C   0  0  0  0  0  0  0  0  0  0  0  0
    7.0195  -11.2795    0.0000 C   0  0  0  0  0  0  0  0  0  0  0  0
    7.7340  -10.8670    0.0000 C   0  0  0  0  0  0  0  0  0  0  0  0
    8.4485  -11.2795    0.0000 C   0  0  0  0  0  0  0  0  0  0  0  0
    9.1630  -10.8670    0.0000 C   0  0  0  0  0  0  0  0  0  0  0  0
    9.8774  -11.2795    0.0000 C   0  0  0  0  0  0  0  0  0  0  0  0
    4.1617  -12.1045    0.0000 O   0  0  0  0  0  0  0  0  0  0  0  0
    3.4472  -10.8670    0.0000 N   0  0  0  0  0  0  0  0  0  0  0  0
    2.7327  -11.2795    0.0000 C   0  0  0  0  0  0  0  0  0  0  0  0
    2.0183  -10.8670    0.0000 C   0  0  0  0  0  0  0  0  0  0  0  0
    1.3038  -11.2795    0.0000 O   0  0  0  0  0  0  0  0  0  0  0  0
   10.5919  -10.8670    0.0000 C   0  0  0  0  0  0  0  0  0  0  0  0
   10.5919  -10.0420    0.0000 C   0  0  0  0  0  0  0  0  0  0  0  0
   11.3064   -9.6295    0.0000 C   0  0  0  0  0  0  0  0  0  0  0  0
   11.3064   -8.8045    0.0000 C   0  0  0  0  0  0  0  0  0  0  0  0
   12.0208   -8.3920    0.0000 C   0  0  0  0  0  0  0  0  0  0  0  0
   12.0208   -7.5670    0.0000 C   0  0  0  0  0  0  0  0  0  0  0  0
   12.7353   -7.1545    0.0000 C   0  0  0  0  0  0  0  0  0  0  0  0
   12.7353   -6.3295    0.0000 C   0  0  0  0  0  0  0  0  0  0  0  0
   13.4498   -5.9170    0.0000 C   0  0  0  0  0  0  0  0  0  0  0  0
  1  2  1  0  0  0  0
  2  3  1  0  0  0  0
  3  4  1  0  0  0  0
  4  5  1  0  0  0  0
  5  6  1  0  0  0  0
  6  7  1  0  0  0  0
  7  8  1  0  0  0  0
  8  9  1  0  0  0  0
  1 10  2  0  0  0  0
  1 11  1  0  0  0  0
 12 13  1  0  0  0  0
 13 14  1  0  0  0  0
 11 12  1  0  0  0  0
  9 15  2  0  0  0  0
 15 16  1  0  0  0  0
 16 17  1  0  0  0  0
 17 18  1  0  0  0  0
 18 19  1  0  0  0  0
 19 20  1  0  0  0  0
 20 21  1  0  0  0  0
 21 22  1  0  0  0  0
 22 23  1  0  0  0  0
M  END
>  <cdx:fragmentId>
691

$$$$
