301981.cdx
  Mrv1902 05222410252D          

 43 47  0  0  0  0            999 V2000
    7.0391   -4.5071    0.0000 C   0  0  2  0  0  0  0  0  0  0  0  0
    7.0391   -5.3321    0.0000 C   0  0  0  0  0  0  0  0  0  0  0  0
    6.3247   -5.7446    0.0000 C   0  0  0  0  0  0  0  0  0  0  0  0
    5.6102   -5.3321    0.0000 C   0  0  0  0  0  0  0  0  0  0  0  0
    4.8957   -5.7446    0.0000 C   0  0  0  0  0  0  0  0  0  0  0  0
    4.1813   -5.3321    0.0000 C   0  0  0  0  0  0  0  0  0  0  0  0
    4.1813   -4.5071    0.0000 C   0  0  0  0  0  0  0  0  0  0  0  0
    4.8957   -4.0946    0.0000 C   0  0  0  0  0  0  0  0  0  0  0  0
    5.6102   -4.5071    0.0000 C   0  0  0  0  0  0  0  0  0  0  0  0
    6.3247   -4.0946    0.0000 O   0  0  0  0  0  0  0  0  0  0  0  0
    6.3247   -6.5696    0.0000 O   0  0  0  0  0  0  0  0  0  0  0  0
    4.8957   -6.5696    0.0000 O   0  0  0  0  0  0  0  0  0  0  0  0
    3.4668   -6.5696    0.0000 O   0  0  0  0  0  0  0  0  0  0  0  0
    4.1813   -6.9821    0.0000 C   0  0  2  0  0  0  0  0  0  0  0  0
    4.1813   -7.8071    0.0000 C   0  0  1  0  0  0  0  0  0  0  0  0
    3.4668   -8.2196    0.0000 C   0  0  2  0  0  0  0  0  0  0  0  0
    2.7523   -7.8071    0.0000 C   0  0  1  0  0  0  0  0  0  0  0  0
    2.7523   -6.9821    0.0000 C   0  0  1  0  0  0  0  0  0  0  0  0
    2.0378   -6.5696    0.0000 C   0  0  0  0  0  0  0  0  0  0  0  0
    1.3234   -6.9821    0.0000 O   0  0  0  0  0  0  0  0  0  0  0  0
    2.0378   -8.2196    0.0000 O   0  0  0  0  0  0  0  0  0  0  0  0
    3.4668   -9.0446    0.0000 O   0  0  0  0  0  0  0  0  0  0  0  0
    4.8957   -8.2196    0.0000 O   0  0  0  0  0  0  0  0  0  0  0  0
    7.7536   -4.0946    0.0000 C   0  0  0  0  0  0  0  0  0  0  0  0
    8.4681   -4.5071    0.0000 C   0  0  0  0  0  0  0  0  0  0  0  0
    9.1826   -4.0946    0.0000 C   0  0  0  0  0  0  0  0  0  0  0  0
    9.1826   -3.2696    0.0000 C   0  0  0  0  0  0  0  0  0  0  0  0
    8.4681   -2.8571    0.0000 C   0  0  0  0  0  0  0  0  0  0  0  0
    7.7536   -3.2696    0.0000 C   0  0  0  0  0  0  0  0  0  0  0  0
    9.8970   -2.8571    0.0000 O   0  0  0  0  0  0  0  0  0  0  0  0
    3.4668   -4.0946    0.0000 O   0  0  0  0  0  0  0  0  0  0  0  0
   11.3260   -5.3321    0.0000 O   0  0  0  0  0  0  0  0  0  0  0  0
   11.3260   -6.9821    0.0000 O   0  0  0  0  0  0  0  0  0  0  0  0
    9.8970   -7.8071    0.0000 O   0  0  0  0  0  0  0  0  0  0  0  0
    8.4681   -7.8071    0.0000 O   0  0  0  0  0  0  0  0  0  0  0  0
    8.4681   -6.9821    0.0000 C   0  0  0  0  0  0  0  0  0  0  0  0
    9.1826   -6.5696    0.0000 C   0  0  2  0  0  0  0  0  0  0  0  0
    9.8970   -6.9821    0.0000 C   0  0  2  0  0  0  0  0  0  0  0  0
   10.6115   -6.5696    0.0000 C   0  0  1  0  0  0  0  0  0  0  0  0
   10.6115   -5.7446    0.0000 C   0  0  2  0  0  0  0  0  0  0  0  0
    9.8970   -5.3321    0.0000 C   0  0  1  0  0  0  0  0  0  0  0  0
    9.1826   -5.7446    0.0000 O   0  0  0  0  0  0  0  0  0  0  0  0
    9.8970   -4.5071    0.0000 O   0  0  0  0  0  0  0  0  0  0  0  0
 41 43  1  1  0  0  0
 40 32  1  6  0  0  0
 39 33  1  1  0  0  0
 38 34  1  6  0  0  0
 37 36  1  1  0  0  0
 36 35  1  0  0  0  0
 42 37  1  0  0  0  0
 38 37  1  0  0  0  0
 39 38  1  0  0  0  0
 40 39  1  0  0  0  0
 41 40  1  0  0  0  0
 42 41  1  0  0  0  0
  1  2  1  0  0  0  0
  2  3  1  0  0  0  0
  3  4  1  0  0  0  0
  4  5  1  0  0  0  0
  5  6  2  0  0  0  0
  6  7  1  0  0  0  0
  7  8  2  0  0  0  0
  8  9  1  0  0  0  0
  4  9  2  0  0  0  0
  9 10  1  0  0  0  0
  1 10  1  0  0  0  0
  3 11  2  0  0  0  0
 13 14  1  0  0  0  0
 14 15  1  0  0  0  0
 15 16  1  0  0  0  0
 16 17  1  0  0  0  0
 17 18  1  0  0  0  0
 13 18  1  0  0  0  0
 19 20  1  0  0  0  0
 18 19  1  1  0  0  0
 17 21  1  6  0  0  0
 16 22  1  1  0  0  0
 15 23  1  6  0  0  0
 14 12  1  1  0  0  0
  5 12  1  0  0  0  0
 24 25  1  0  0  0  0
 25 26  2  0  0  0  0
 26 27  1  0  0  0  0
 27 28  2  0  0  0  0
 28 29  1  0  0  0  0
 24 29  2  0  0  0  0
 26 43  1  0  0  0  0
 27 30  1  0  0  0  0
  1 24  1  6  0  0  0
  7 31  1  0  0  0  0
M  END
>  <cdx:fragmentId>
17632

$$$$
