301958.cdx
  Mrv1902 05222410212D          

 31 32  0  0  0  0            999 V2000
    7.5117   -4.6500    0.0000 C   0  0  0  0  0  0  0  0  0  0  0  0
    8.3187   -4.8215    0.0000 C   0  0  0  0  0  0  0  0  0  0  0  0
    8.5736   -5.6062    0.0000 C   0  0  0  0  0  0  0  0  0  0  0  0
    7.2567   -3.8654    0.0000 O   0  0  0  0  0  0  0  0  0  0  0  0
    6.9597   -5.2631    0.0000 O   0  0  0  0  0  0  0  0  0  0  0  0
    8.8707   -4.2084    0.0000 C   0  0  0  0  0  0  0  0  0  0  0  0
    8.7838   -7.3826    0.0000 O   0  0  0  0  0  0  0  0  0  0  0  0
    7.9992   -7.1277    0.0000 C   0  0  1  0  0  0  0  0  0  0  0  0
    7.9992   -6.3027    0.0000 C   0  0  2  0  0  0  0  0  0  0  0  0
    8.7838   -6.0477    0.0000 C   0  0  0  0  0  0  0  0  0  0  0  0
    9.2688   -6.7152    0.0000 C   0  0  0  0  0  0  0  0  0  0  0  0
    7.2146   -6.0477    0.0000 C   0  0  1  0  0  0  0  0  0  0  0  0
    6.7297   -6.7152    0.0000 C   0  0  2  0  0  0  0  0  0  0  0  0
    5.9055   -6.6781    0.0000 C   0  0  0  0  0  0  0  0  0  0  0  0
    5.3627   -7.2994    0.0000 C   0  0  0  0  0  0  0  0  0  0  0  0
    5.5100   -8.1112    0.0000 C   0  0  0  0  0  0  0  0  0  0  0  0
    6.2365   -8.5021    0.0000 C   0  0  0  0  0  0  0  0  0  0  0  0
    6.9951   -8.1779    0.0000 C   0  0  0  0  0  0  0  0  0  0  0  0
    7.2146   -7.3826    0.0000 C   0  0  0  0  0  0  0  0  0  0  0  0
   10.0938   -6.7152    0.0000 O   0  0  0  0  0  0  0  0  0  0  0  0
    9.0388   -5.2631    0.0000 C   0  0  0  0  0  0  0  0  0  0  0  0
    7.6164   -8.7207    0.0000 C   0  0  0  0  0  0  0  0  0  0  0  0
    8.3971   -8.4540    0.0000 O   0  0  0  0  0  0  0  0  0  0  0  0
    5.5813   -5.9195    0.0000 C   0  0  0  0  0  0  0  0  0  0  0  0
    4.7622   -5.8210    0.0000 O   0  0  0  0  0  0  0  0  0  0  0  0
    5.8222   -5.1433    0.0000 O   0  0  0  0  0  0  0  0  0  0  0  0
    6.2347   -4.4289    0.0000 C   0  0  0  0  0  0  0  0  0  0  0  0
    7.0597   -4.4289    0.0000 O   0  0  0  0  0  0  0  0  0  0  0  0
    5.8222   -3.7144    0.0000 C   0  0  0  0  0  0  0  0  0  0  0  0
    7.9992   -5.4777    0.0000 H   0  0  0  0  0  0  0  0  0  0  0  0
    7.9992   -7.9527    0.0000 H   0  0  0  0  0  0  0  0  0  0  0  0
  1  2  1  0  0  0  0
  2  3  2  0  0  0  0
  1  4  2  0  0  0  0
  1  5  1  0  0  0  0
  2  6  1  0  0  0  0
  7  8  1  0  0  0  0
  8  9  1  0  0  0  0
  9 10  1  0  0  0  0
 10 11  1  0  0  0  0
  7 11  1  0  0  0  0
 12 13  1  0  0  0  0
 13 14  1  0  0  0  0
 14 15  2  0  0  0  0
 15 16  1  0  0  0  0
 16 17  1  0  0  0  0
 17 18  1  0  0  0  0
 18 19  2  0  0  0  0
 19  8  1  0  0  0  0
 12  9  1  0  0  0  0
 11 20  2  0  0  0  0
 10 21  2  0  0  0  0
 22 23  1  0  0  0  0
 18 22  1  0  0  0  0
 24 25  2  0  0  0  0
 14 24  1  0  0  0  0
 27 28  2  0  0  0  0
 27 29  1  0  0  0  0
 26 27  1  0  0  0  0
 13 26  1  1  0  0  0
 12  5  1  1  0  0  0
  9 30  1  6  0  0  0
  8 31  1  1  0  0  0
M  END
>  <cdx:groupId>
1118

>  <cdx:fragmentId>
1049

$$$$
