301938.cdx
  Mrv1902 05222410182D          

 77 85  0  0  0  0            999 V2000
   12.2185   -8.0047    0.0000 C   0  0  1  0  0  0  0  0  0  0  0  0
   12.2185   -7.1800    0.0000 C   0  0  0  0  0  0  0  0  0  0  0  0
   12.9327   -6.7676    0.0000 C   0  0  0  0  0  0  0  0  0  0  0  0
   12.9327   -8.4171    0.0000 C   0  0  0  0  0  0  0  0  0  0  0  0
   13.3451   -9.1314    0.0000 C   0  0  0  0  0  0  0  0  0  0  0  0
   12.5204   -9.1314    0.0000 C   0  0  0  0  0  0  0  0  0  0  0  0
   13.6470   -8.0047    0.0000 C   0  0  2  0  0  0  0  0  0  0  0  0
   13.6470   -8.8295    0.0000 H   0  0  0  0  0  0  0  0  0  0  0  0
   14.3612   -8.4171    0.0000 C   0  0  0  0  0  0  0  0  0  0  0  0
   15.0755   -8.0047    0.0000 C   0  0  0  0  0  0  0  0  0  0  0  0
   15.0755   -7.1800    0.0000 C   0  0  1  0  0  0  0  0  0  0  0  0
   15.0755   -6.3553    0.0000 C   0  0  0  0  0  0  0  0  0  0  0  0
   15.7897   -6.7676    0.0000 C   0  0  2  0  0  0  0  0  0  0  0  0
   15.7897   -7.5924    0.0000 C   0  0  0  0  0  0  0  0  0  0  0  0
   16.5040   -7.1800    0.0000 C   0  0  0  0  0  0  0  0  0  0  0  0
   17.2182   -6.7676    0.0000 C   0  0  0  0  0  0  0  0  0  0  0  0
   17.2182   -5.9429    0.0000 C   0  0  2  0  0  0  0  0  0  0  0  0
   17.9716   -6.2783    0.0000 C   0  0  0  0  0  0  0  0  0  0  0  0
   16.5040   -5.5305    0.0000 C   0  0  2  0  0  0  0  0  0  0  0  0
   15.8819   -5.1714    0.0000 H   0  0  0  0  0  0  0  0  0  0  0  0
   15.7897   -5.9429    0.0000 C   0  0  0  0  0  0  0  0  0  0  0  0
   15.0755   -5.5305    0.0000 C   0  0  0  0  0  0  0  0  0  0  0  0
   14.3612   -5.9429    0.0000 C   0  0  0  0  0  0  0  0  0  0  0  0
   14.3612   -6.7676    0.0000 C   0  0  2  0  0  0  0  0  0  0  0  0
   13.6470   -7.1800    0.0000 C   0  0  1  0  0  0  0  0  0  0  0  0
   13.6470   -6.3553    0.0000 C   0  0  0  0  0  0  0  0  0  0  0  0
   17.9734   -7.1031    0.0000 O   0  0  0  0  0  0  0  0  0  0  0  0
    8.6603   -6.7452    0.0000 O   0  0  0  0  0  0  0  0  0  0  0  0
   14.3612   -7.5924    0.0000 H   0  0  0  0  0  0  0  0  0  0  0  0
    7.2124   -9.2081    0.0000 C   0  0  0  0  0  0  0  0  0  0  0  0
    8.6408   -9.2193    0.0000 O   0  0  0  0  0  0  0  0  0  0  0  0
    7.9234   -9.6260    0.0000 C   0  0  2  0  0  0  0  0  0  0  0  0
    7.1994  -10.8575    0.0000 O   0  0  0  0  0  0  0  0  0  0  0  0
    7.9169  -10.4508    0.0000 C   0  0  2  0  0  0  0  0  0  0  0  0
    8.6214  -11.6935    0.0000 O   0  0  0  0  0  0  0  0  0  0  0  0
    8.6278  -10.8687    0.0000 C   0  0  1  0  0  0  0  0  0  0  0  0
   10.0563  -10.8800    0.0000 O   0  0  0  0  0  0  0  0  0  0  0  0
    9.3453  -10.4620    0.0000 C   0  0  1  0  0  0  0  0  0  0  0  0
    9.3518   -9.6373    0.0000 C   0  0  2  0  0  0  0  0  0  0  0  0
   10.7998   -7.1744    0.0000 O   0  0  0  0  0  0  0  0  0  0  0  0
   10.0888   -6.7564    0.0000 C   0  0  0  0  0  0  0  0  0  0  0  0
    9.3713   -7.1632    0.0000 C   0  0  1  0  0  0  0  0  0  0  0  0
    8.6473   -8.3946    0.0000 O   0  0  0  0  0  0  0  0  0  0  0  0
    9.3648   -7.9879    0.0000 C   0  0  2  0  0  0  0  0  0  0  0  0
   10.0693   -9.2306    0.0000 O   0  0  0  0  0  0  0  0  0  0  0  0
   10.0758   -8.4059    0.0000 C   0  0  1  0  0  0  0  0  0  0  0  0
   10.7933   -7.9991    0.0000 C   0  0  2  0  0  0  0  0  0  0  0  0
   11.5042   -8.4171    0.0000 O   0  0  0  0  0  0  0  0  0  0  0  0
   18.6850   -5.8644    0.0000 O   0  0  0  0  0  0  0  0  0  0  0  0
   17.9324   -5.5305    0.0000 C   0  0  0  0  0  0  0  0  0  0  0  0
   17.9324   -4.7058    0.0000 C   0  0  0  0  0  0  0  0  0  0  0  0
   17.2182   -4.2934    0.0000 C   0  0  0  0  0  0  0  0  0  0  0  0
   16.5040   -4.7058    0.0000 C   0  0  0  0  0  0  0  0  0  0  0  0
   16.8222   -3.6076    0.0000 C   0  0  0  0  0  0  0  0  0  0  0  0
   17.5891   -3.6511    0.0000 C   0  0  0  0  0  0  0  0  0  0  0  0
    7.9039  -12.1002    0.0000 C   0  0  2  0  0  0  0  0  0  0  0  0
    7.1960  -11.6765    0.0000 O   0  0  0  0  0  0  0  0  0  0  0  0
    6.4751  -12.1002    0.0000 C   0  0  1  0  0  0  0  0  0  0  0  0
    6.4751  -12.9251    0.0000 C   0  0  2  0  0  0  0  0  0  0  0  0
    7.1960  -13.3488    0.0000 C   0  0  1  0  0  0  0  0  0  0  0  0
    7.9039  -12.9251    0.0000 C   0  0  1  0  0  0  0  0  0  0  0  0
    5.7493  -11.6849    0.0000 C   0  0  0  0  0  0  0  0  0  0  0  0
    7.1993  -14.1850    0.0000 O   0  0  0  0  0  0  0  0  0  0  0  0
    8.6216  -13.3319    0.0000 O   0  0  0  0  0  0  0  0  0  0  0  0
    5.7493  -13.3404    0.0000 O   0  0  0  0  0  0  0  0  0  0  0  0
    5.0268  -12.1058    0.0000 O   0  0  0  0  0  0  0  0  0  0  0  0
    5.3400  -14.0695    0.0000 C   0  0  2  0  0  0  0  0  0  0  0  0
    4.5151  -14.0843    0.0000 O   0  0  0  0  0  0  0  0  0  0  0  0
    4.1141  -14.8052    0.0000 C   0  0  1  0  0  0  0  0  0  0  0  0
    4.5379  -15.5114    0.0000 C   0  0  2  0  0  0  0  0  0  0  0  0
    5.3614  -15.4991    0.0000 C   0  0  1  0  0  0  0  0  0  0  0  0
    5.7625  -14.7781    0.0000 C   0  0  1  0  0  0  0  0  0  0  0  0
    3.2892  -14.8188    0.0000 C   0  0  0  0  0  0  0  0  0  0  0  0
    5.7849  -16.2071    0.0000 O   0  0  0  0  0  0  0  0  0  0  0  0
    2.8885  -15.5399    0.0000 O   0  0  0  0  0  0  0  0  0  0  0  0
    4.1375  -16.2311    0.0000 O   0  0  0  0  0  0  0  0  0  0  0  0
    6.5874  -14.7658    0.0000 O   0  0  0  0  0  0  0  0  0  0  0  0
 47 48  1  1  0  0  0
 39 45  1  1  0  0  0
 39 31  1  0  0  0  0
 32 30  1  6  0  0  0
 32 31  1  0  0  0  0
 34 32  1  0  0  0  0
 34 33  1  1  0  0  0
 36 34  1  0  0  0  0
 36 35  1  6  0  0  0
 38 36  1  0  0  0  0
 38 37  1  6  0  0  0
 39 38  1  0  0  0  0
 47 40  1  0  0  0  0
 41 40  1  0  0  0  0
 42 41  1  0  0  0  0
 42 28  1  1  0  0  0
 44 42  1  0  0  0  0
 44 43  1  1  0  0  0
  1  2  1  0  0  0  0
  2  3  1  0  0  0  0
  1  4  1  0  0  0  0
  4  5  1  0  0  0  0
  4  6  1  0  0  0  0
  4  7  1  0  0  0  0
  7  8  1  6  0  0  0
  7  9  1  0  0  0  0
  9 10  1  0  0  0  0
 10 11  1  0  0  0  0
 11 12  1  1  0  0  0
 11 13  1  0  0  0  0
 13 14  1  6  0  0  0
 13 15  1  0  0  0  0
 15 16  1  0  0  0  0
 16 17  1  0  0  0  0
 17 18  1  1  0  0  0
 19 20  1  1  0  0  0
 17 19  1  0  0  0  0
 19 21  1  0  0  0  0
 13 21  1  0  0  0  0
 21 22  2  0  0  0  0
 22 23  1  0  0  0  0
 23 24  1  0  0  0  0
 11 24  1  0  0  0  0
 24 25  1  0  0  0  0
  3 25  1  0  0  0  0
  7 25  1  0  0  0  0
 25 26  1  1  0  0  0
 18 27  2  0  0  0  0
 18 49  1  0  0  0  0
 46 44  1  0  0  0  0
 46 45  1  6  0  0  0
 47 46  1  0  0  0  0
  1 48  1  1  0  0  0
 24 29  1  6  0  0  0
 17 50  1  0  0  0  0
 50 51  1  0  0  0  0
 51 52  1  0  0  0  0
 52 53  1  0  0  0  0
 53 19  1  0  0  0  0
 52 54  1  0  0  0  0
 52 55  1  0  0  0  0
 56 35  1  1  0  0  0
 56 57  1  0  0  0  0
 57 58  1  0  0  0  0
 58 59  1  0  0  0  0
 59 60  1  0  0  0  0
 60 61  1  0  0  0  0
 61 56  1  0  0  0  0
 58 62  1  1  0  0  0
 60 63  1  1  0  0  0
 61 64  1  6  0  0  0
 59 65  1  6  0  0  0
 62 66  1  0  0  0  0
 67 65  1  1  0  0  0
 67 68  1  0  0  0  0
 68 69  1  0  0  0  0
 69 70  1  0  0  0  0
 70 71  1  0  0  0  0
 71 72  1  0  0  0  0
 72 67  1  0  0  0  0
 69 73  1  1  0  0  0
 71 74  1  1  0  0  0
 73 75  1  0  0  0  0
 70 76  1  6  0  0  0
 72 77  1  6  0  0  0
M  END
>  <cdx:groupId>
346

>  <cdx:fragmentId>
95

$$$$
