30192.cdx
  Mrv1902 05222410222D          

 32 32  0  0  0  0            999 V2000
    6.2234   -8.2351    0.0000 C   0  0  2  0  0  0  0  0  0  0  0  0
    6.2234   -9.0601    0.0000 C   0  0  2  0  0  0  0  0  0  0  0  0
    6.9378   -9.4726    0.0000 C   0  0  1  0  0  0  0  0  0  0  0  0
    7.6523   -9.0601    0.0000 C   0  0  2  0  0  0  0  0  0  0  0  0
    7.6523   -8.2351    0.0000 C   0  0  1  0  0  0  0  0  0  0  0  0
    6.9378   -7.8226    0.0000 O   0  0  0  0  0  0  0  0  0  0  0  0
    5.5089   -9.4726    0.0000 O   0  0  0  0  0  0  0  0  0  0  0  0
    8.3668   -9.4726    0.0000 O   0  0  0  0  0  0  0  0  0  0  0  0
    8.3668   -7.8226    0.0000 O   0  0  0  0  0  0  0  0  0  0  0  0
    6.9378  -10.2976    0.0000 O   0  0  0  0  0  0  0  0  0  0  0  0
    5.5089   -7.8226    0.0000 C   0  0  0  0  0  0  0  0  0  0  0  0
    8.3668   -6.9976    0.0000 Si  0  0  0  0  0  0  0  0  0  0  0  0
    8.3668   -6.1726    0.0000 C   0  0  0  0  0  0  0  0  0  0  0  0
    9.1918   -6.9976    0.0000 C   0  0  0  0  0  0  0  0  0  0  0  0
    7.5418   -6.9976    0.0000 C   0  0  0  0  0  0  0  0  0  0  0  0
    9.0813   -9.0601    0.0000 Si  0  0  0  0  0  0  0  0  0  0  0  0
    8.6688   -8.3457    0.0000 C   0  0  0  0  0  0  0  0  0  0  0  0
    9.4938   -9.7746    0.0000 C   0  0  0  0  0  0  0  0  0  0  0  0
    9.7957   -8.6476    0.0000 C   0  0  0  0  0  0  0  0  0  0  0  0
    6.2234  -10.7101    0.0000 Si  0  0  0  0  0  0  0  0  0  0  0  0
    6.6359  -11.4246    0.0000 C   0  0  0  0  0  0  0  0  0  0  0  0
    5.8109   -9.9957    0.0000 C   0  0  0  0  0  0  0  0  0  0  0  0
    5.5089  -11.1226    0.0000 C   0  0  0  0  0  0  0  0  0  0  0  0
    4.7944   -9.0601    0.0000 Si  0  0  0  0  0  0  0  0  0  0  0  0
    5.2069   -8.3457    0.0000 C   0  0  0  0  0  0  0  0  0  0  0  0
    4.0800   -8.6476    0.0000 C   0  0  0  0  0  0  0  0  0  0  0  0
    4.3819   -9.7746    0.0000 C   0  0  0  0  0  0  0  0  0  0  0  0
    5.5089   -6.9976    0.0000 O   0  0  0  0  0  0  0  0  0  0  0  0
    4.7944   -6.5851    0.0000 Si  0  0  0  0  0  0  0  0  0  0  0  0
    4.0800   -6.1726    0.0000 C   0  0  0  0  0  0  0  0  0  0  0  0
    4.3819   -7.2996    0.0000 C   0  0  0  0  0  0  0  0  0  0  0  0
    5.2069   -5.8707    0.0000 C   0  0  0  0  0  0  0  0  0  0  0  0
  1  2  1  0  0  0  0
  2  3  1  0  0  0  0
  3  4  1  0  0  0  0
  4  5  1  0  0  0  0
  5  6  1  0  0  0  0
  6  1  1  0  0  0  0
  2  7  1  6  0  0  0
  4  8  1  6  0  0  0
  5  9  1  1  0  0  0
  3 10  1  1  0  0  0
  1 11  1  1  0  0  0
  9 12  1  0  0  0  0
 12 13  1  0  0  0  0
 12 14  1  0  0  0  0
 12 15  1  0  0  0  0
  8 16  1  0  0  0  0
 16 17  1  0  0  0  0
 16 18  1  0  0  0  0
 16 19  1  0  0  0  0
 10 20  1  0  0  0  0
 20 21  1  0  0  0  0
 20 22  1  0  0  0  0
 20 23  1  0  0  0  0
  7 24  1  0  0  0  0
 24 25  1  0  0  0  0
 24 26  1  0  0  0  0
 24 27  1  0  0  0  0
 11 28  1  0  0  0  0
 28 29  1  0  0  0  0
 29 30  1  0  0  0  0
 29 31  1  0  0  0  0
 29 32  1  0  0  0  0
M  END
>  <cdx:fragmentId>
5

$$$$
