301919.cdx
  Mrv1902 05222410262D          

 14 15  0  0  0  0            999 V2000
    9.4467   -5.7739    0.0000 C   0  0  0  0  0  0  0  0  0  0  0  0
    8.6398   -5.9454    0.0000 C   0  0  0  0  0  0  0  0  0  0  0  0
    8.3848   -8.0649    0.0000 N   0  0  0  0  0  0  0  0  0  0  0  0
    8.8697   -7.3975    0.0000 C   0  0  0  0  0  0  0  0  0  0  0  0
    8.3848   -6.7301    0.0000 C   0  0  0  0  0  0  0  0  0  0  0  0
    7.6002   -6.9850    0.0000 C   0  0  0  0  0  0  0  0  0  0  0  0
    6.8857   -6.5725    0.0000 C   0  0  0  0  0  0  0  0  0  0  0  0
    6.1713   -6.9850    0.0000 C   0  0  0  0  0  0  0  0  0  0  0  0
    6.1713   -7.8100    0.0000 C   0  0  0  0  0  0  0  0  0  0  0  0
    6.8857   -8.2225    0.0000 C   0  0  0  0  0  0  0  0  0  0  0  0
    7.6002   -7.8100    0.0000 C   0  0  0  0  0  0  0  0  0  0  0  0
    5.4568   -6.5725    0.0000 O   0  0  0  0  0  0  0  0  0  0  0  0
    4.7423   -6.9850    0.0000 C   0  0  0  0  0  0  0  0  0  0  0  0
    9.7017   -4.9893    0.0000 N   0  0  0  0  0  0  0  0  0  0  0  0
  1  2  1  0  0  0  0
  3  4  1  0  0  0  0
  4  5  2  0  0  0  0
  5  6  1  0  0  0  0
  6  7  1  0  0  0  0
  7  8  2  0  0  0  0
  8  9  1  0  0  0  0
  9 10  2  0  0  0  0
 10 11  1  0  0  0  0
  3 11  1  0  0  0  0
  6 11  2  0  0  0  0
 12 13  1  0  0  0  0
  8 12  1  0  0  0  0
  2  5  1  0  0  0  0
  1 14  1  0  0  0  0
M  END
>  <cdx:groupId>
2293

>  <cdx:fragmentId>
2257

$$$$
