301967.cdx
  Mrv1902 05222410212D          

  8  8  0  0  0  0            999 V2000
    7.3499   -6.8893    0.0000 O   0  0  0  0  0  0  0  0  0  0  0  0
    6.8650   -6.2219    0.0000 C   0  0  0  0  0  0  0  0  0  0  0  0
    7.3499   -5.5544    0.0000 N   0  0  0  0  0  0  0  0  0  0  0  0
    8.1345   -5.8094    0.0000 C   0  0  0  0  0  0  0  0  0  0  0  0
    8.1345   -6.6344    0.0000 C   0  0  0  0  0  0  0  0  0  0  0  0
    8.8020   -7.1193    0.0000 C   0  0  0  0  0  0  0  0  0  0  0  0
    8.8020   -5.3245    0.0000 C   0  0  0  0  0  0  0  0  0  0  0  0
    6.0400   -6.2219    0.0000 C   0  0  0  0  0  0  0  0  0  0  0  0
  1  2  1  0  0  0  0
  2  3  2  0  0  0  0
  3  4  1  0  0  0  0
  4  5  2  0  0  0  0
  1  5  1  0  0  0  0
  5  6  1  0  0  0  0
  4  7  1  0  0  0  0
  2  8  1  0  0  0  0
M  END
>  <cdx:groupId>
1562

>  <cdx:fragmentId>
1541

$$$$
