30198.cdx
  Mrv1902 05222410252D          

 16 18  0  0  0  0            999 V2000
    4.5127   -7.6394    0.0000 C   0  0  0  0  0  0  0  0  0  0  0  0
    4.7628   -8.4256    0.0000 C   0  0  0  0  0  0  0  0  0  0  0  0
    5.5687   -8.6021    0.0000 C   0  0  0  0  0  0  0  0  0  0  0  0
    6.1245   -7.9924    0.0000 C   0  0  0  0  0  0  0  0  0  0  0  0
    5.8744   -7.2062    0.0000 C   0  0  0  0  0  0  0  0  0  0  0  0
    5.0685   -7.0298    0.0000 C   0  0  0  0  0  0  0  0  0  0  0  0
    6.9495   -7.9975    0.0000 C   0  0  0  0  0  0  0  0  0  0  0  0
    7.2092   -7.2145    0.0000 C   0  0  0  0  0  0  0  0  0  0  0  0
    6.5448   -6.7254    0.0000 N   0  0  0  0  0  0  0  0  0  0  0  0
    7.4977   -8.6140    0.0000 C   0  0  0  0  0  0  0  0  0  0  0  0
    8.3057   -8.4474    0.0000 C   0  0  0  0  0  0  0  0  0  0  0  0
    8.5655   -7.6644    0.0000 N   0  0  0  0  0  0  0  0  0  0  0  0
    8.0173   -7.0479    0.0000 C   0  0  0  0  0  0  0  0  0  0  0  0
    8.8540   -9.0639    0.0000 C   0  0  0  0  0  0  0  0  0  0  0  0
    8.5942   -9.8469    0.0000 O   0  0  0  0  0  0  0  0  0  0  0  0
    9.6620   -8.8973    0.0000 O   0  0  0  0  0  0  0  0  0  0  0  0
  1  2  2  0  0  0  0
  2  3  1  0  0  0  0
  3  4  2  0  0  0  0
  4  5  1  0  0  0  0
  5  6  2  0  0  0  0
  6  1  1  0  0  0  0
  4  7  1  0  0  0  0
  7  8  2  0  0  0  0
  8  9  1  0  0  0  0
  9  5  1  0  0  0  0
  7 10  1  0  0  0  0
 10 11  1  0  0  0  0
 11 12  1  0  0  0  0
 12 13  1  0  0  0  0
 13  8  1  0  0  0  0
 11 14  1  0  0  0  0
 14 15  1  0  0  0  0
 14 16  2  0  0  0  0
M  END
>  <cdx:fragmentId>
5

$$$$
