301990.cdx
  Mrv1902 05222410232D          

 23 26  0  0  0  0            999 V2000
    6.3625   -8.3037    0.0000 C   0  0  0  0  0  0  0  0  0  0  0  0
    6.6676   -7.5372    0.0000 C   0  0  0  0  0  0  0  0  0  0  0  0
    6.1569   -6.8892    0.0000 C   0  0  0  0  0  0  0  0  0  0  0  0
    6.3451   -6.0860    0.0000 C   0  0  0  0  0  0  0  0  0  0  0  0
    7.0905   -5.7323    0.0000 C   0  0  0  0  0  0  0  0  0  0  0  0
    7.8317   -6.0945    0.0000 C   0  0  0  0  0  0  0  0  0  0  0  0
    8.0107   -6.8999    0.0000 C   0  0  0  0  0  0  0  0  0  0  0  0
    7.4926   -7.5419    0.0000 C   0  0  0  0  0  0  0  0  0  0  0  0
    7.7915   -8.3119    0.0000 C   0  0  0  0  0  0  0  0  0  0  0  0
    8.5036   -8.7285    0.0000 N   0  0  0  0  0  0  0  0  0  0  0  0
    8.4988   -9.5535    0.0000 C   0  0  0  0  0  0  0  0  0  0  0  0
    7.7820   -9.9619    0.0000 C   0  0  0  0  0  0  0  0  0  0  0  0
    7.0699   -9.5453    0.0000 C   0  0  0  0  0  0  0  0  0  0  0  0
    6.3531   -9.9537    0.0000 C   0  0  0  0  0  0  0  0  0  0  0  0
    5.6410   -9.5371    0.0000 C   0  0  0  0  0  0  0  0  0  0  0  0
    5.6457   -8.7121    0.0000 C   0  0  0  0  0  0  0  0  0  0  0  0
    7.0746   -8.7203    0.0000 C   0  0  0  0  0  0  0  0  0  0  0  0
    8.4673   -5.5686    0.0000 O   0  0  0  0  0  0  0  0  0  0  0  0
    4.9336   -8.2955    0.0000 O   0  0  0  0  0  0  0  0  0  0  0  0
    4.9383   -7.4705    0.0000 C   0  0  0  0  0  0  0  0  0  0  0  0
    4.9242   -9.9455    0.0000 O   0  0  0  0  0  0  0  0  0  0  0  0
    4.9194  -10.7705    0.0000 C   0  0  0  0  0  0  0  0  0  0  0  0
    7.0952   -4.9073    0.0000 O   0  0  0  0  0  0  0  0  0  0  0  0
  1  2  1  0  0  0  0
  2  3  2  0  0  0  0
  3  4  1  0  0  0  0
  4  5  2  0  0  0  0
  5  6  1  0  0  0  0
  6  7  1  0  0  0  0
  7  8  2  0  0  0  0
  8  9  1  0  0  0  0
  9 10  2  0  0  0  0
 10 11  1  0  0  0  0
 11 12  2  0  0  0  0
 12 13  1  0  0  0  0
 13 14  2  0  0  0  0
 14 15  1  0  0  0  0
 15 16  2  0  0  0  0
  1 16  1  0  0  0  0
  1 17  2  0  0  0  0
 17  9  1  0  0  0  0
  2  8  1  0  0  0  0
 13 17  1  0  0  0  0
  6 18  2  0  0  0  0
 19 20  1  0  0  0  0
 16 19  1  0  0  0  0
 21 22  1  0  0  0  0
 15 21  1  0  0  0  0
  5 23  1  0  0  0  0
M  END
>  <cdx:fragmentId>
3259

$$$$
