301905.cdx
  Mrv1902 05222410182D          

 19 21  0  0  0  0            999 V2000
    9.6186   -5.4054    0.0000 C   0  0  0  0  0  0  0  0  0  0  0  0
    9.6186   -6.2304    0.0000 C   0  0  0  0  0  0  0  0  0  0  0  0
    8.9041   -6.6429    0.0000 C   0  0  0  0  0  0  0  0  0  0  0  0
    8.1897   -6.2304    0.0000 C   0  0  0  0  0  0  0  0  0  0  0  0
    7.4752   -6.6429    0.0000 C   0  0  0  0  0  0  0  0  0  0  0  0
    6.7607   -6.2304    0.0000 C   0  0  0  0  0  0  0  0  0  0  0  0
    6.7607   -5.4054    0.0000 C   0  0  0  0  0  0  0  0  0  0  0  0
    7.4752   -4.9929    0.0000 C   0  0  0  0  0  0  0  0  0  0  0  0
    8.1897   -5.4054    0.0000 C   0  0  0  0  0  0  0  0  0  0  0  0
    8.9041   -4.9929    0.0000 O   0  0  0  0  0  0  0  0  0  0  0  0
    6.0462   -4.9929    0.0000 C   0  0  0  0  0  0  0  0  0  0  0  0
    5.3318   -5.4054    0.0000 C   0  0  0  0  0  0  0  0  0  0  0  0
    5.3318   -6.2304    0.0000 C   0  0  0  0  0  0  0  0  0  0  0  0
    6.0462   -6.6429    0.0000 C   0  0  0  0  0  0  0  0  0  0  0  0
    4.6173   -4.9929    0.0000 O   0  0  0  0  0  0  0  0  0  0  0  0
   10.3331   -4.9929    0.0000 C   0  0  0  0  0  0  0  0  0  0  0  0
    6.0462   -7.4679    0.0000 O   0  0  0  0  0  0  0  0  0  0  0  0
    7.4752   -7.4679    0.0000 O   0  0  0  0  0  0  0  0  0  0  0  0
    8.9041   -7.4679    0.0000 O   0  0  0  0  0  0  0  0  0  0  0  0
  1  2  2  0  0  0  0
  2  3  1  0  0  0  0
  3  4  2  0  0  0  0
  4  5  1  0  0  0  0
  5  6  2  0  0  0  0
  6  7  1  0  0  0  0
  7  8  1  0  0  0  0
  8  9  2  0  0  0  0
  4  9  1  0  0  0  0
  9 10  1  0  0  0  0
  1 10  1  0  0  0  0
 11 12  1  0  0  0  0
 12 13  1  0  0  0  0
 13 14  2  0  0  0  0
 14  6  1  0  0  0  0
 11  7  2  0  0  0  0
 12 15  2  0  0  0  0
  1 16  1  0  0  0  0
 14 17  1  0  0  0  0
  5 18  1  0  0  0  0
  3 19  1  0  0  0  0
M  END
>  <cdx:groupId>
714

>  <cdx:fragmentId>
658

$$$$
