30199.cdx
  Mrv1902 05222410252D          

 10 10  0  0  0  0            999 V2000
    7.0518   -9.4314    0.0000 C   0  0  0  0  0  0  0  0  0  0  0  0
    7.0518  -10.2564    0.0000 C   0  0  0  0  0  0  0  0  0  0  0  0
    7.7663  -10.6689    0.0000 C   0  0  0  0  0  0  0  0  0  0  0  0
    8.4807  -10.2564    0.0000 C   0  0  0  0  0  0  0  0  0  0  0  0
    8.4807   -9.4314    0.0000 C   0  0  0  0  0  0  0  0  0  0  0  0
    7.7663   -9.0189    0.0000 C   0  0  0  0  0  0  0  0  0  0  0  0
    6.3373  -10.6689    0.0000 C   0  0  0  0  0  0  0  0  0  0  0  0
    6.3373   -9.0189    0.0000 C   0  0  0  0  0  0  0  0  0  0  0  0
    7.7663   -8.1939    0.0000 C   0  0  0  0  0  0  0  0  0  0  0  0
    9.1952   -9.0189    0.0000 C   0  0  0  0  0  0  0  0  0  0  0  0
  1  2  2  0  0  0  0
  2  3  1  0  0  0  0
  3  4  2  0  0  0  0
  4  5  1  0  0  0  0
  5  6  2  0  0  0  0
  6  1  1  0  0  0  0
  2  7  1  0  0  0  0
  1  8  1  0  0  0  0
  6  9  1  0  0  0  0
  5 10  1  0  0  0  0
M  END
>  <cdx:fragmentId>
5

$$$$
