301949.cdx
  Mrv1902 05222410222D          

 26 29  0  0  0  0            999 V2000
    9.4449   -5.6248    0.0000 C   0  0  0  0  0  0  0  0  0  0  0  0
    8.7241   -6.0261    0.0000 C   0  0  0  0  0  0  0  0  0  0  0  0
    8.7113   -6.8510    0.0000 C   0  0  0  0  0  0  0  0  0  0  0  0
    9.4192   -7.2746    0.0000 C   0  0  0  0  0  0  0  0  0  0  0  0
   10.1529   -6.0484    0.0000 C   0  0  0  0  0  0  0  0  0  0  0  0
   10.1400   -6.8733    0.0000 C   0  0  0  0  0  0  0  0  0  0  0  0
   10.9206   -7.1404    0.0000 O   0  0  0  0  0  0  0  0  0  0  0  0
   11.4159   -6.4806    0.0000 C   0  0  0  0  0  0  0  0  0  0  0  0
   10.9414   -5.8057    0.0000 O   0  0  0  0  0  0  0  0  0  0  0  0
    7.9905   -7.2523    0.0000 C   0  0  0  0  0  0  0  0  0  0  0  0
    5.1201   -8.0326    0.0000 O   0  0  0  0  0  0  0  0  0  0  0  0
    3.7299   -5.5357    0.0000 O   0  0  0  0  0  0  0  0  0  0  0  0
    3.7041   -7.1855    0.0000 C   0  0  0  0  0  0  0  0  0  0  0  0
    6.5488   -8.0549    0.0000 O   0  0  0  0  0  0  0  0  0  0  0  0
    4.4636   -4.3094    0.0000 O   0  0  0  0  0  0  0  0  0  0  0  0
    5.1715   -4.7330    0.0000 C   0  0  0  0  0  0  0  0  0  0  0  0
    6.5874   -5.5802    0.0000 O   0  0  0  0  0  0  0  0  0  0  0  0
    5.8666   -5.9815    0.0000 C   0  0  0  0  0  0  0  0  0  0  0  0
    5.1586   -5.5579    0.0000 C   0  0  0  0  0  0  0  0  0  0  0  0
    4.4378   -5.9592    0.0000 C   0  0  0  0  0  0  0  0  0  0  0  0
    4.4250   -6.7841    0.0000 C   0  0  0  0  0  0  0  0  0  0  0  0
    5.1329   -7.2077    0.0000 C   0  0  0  0  0  0  0  0  0  0  0  0
    5.8537   -6.8064    0.0000 C   0  0  0  0  0  0  0  0  0  0  0  0
    6.5617   -7.2300    0.0000 C   0  0  0  0  0  0  0  0  0  0  0  0
    7.2825   -6.8287    0.0000 C   0  0  1  0  0  0  0  0  0  0  0  0
    7.2954   -6.0038    0.0000 C   0  0  0  0  0  0  0  0  0  0  0  0
 25 10  1  1  0  0  0
 10  3  1  0  0  0  0
  4  6  2  0  0  0  0
  1  5  2  0  0  0  0
  2  1  1  0  0  0  0
  3  2  2  0  0  0  0
  4  3  1  0  0  0  0
  9  5  1  0  0  0  0
  6  5  1  0  0  0  0
  7  6  1  0  0  0  0
  8  7  1  0  0  0  0
  9  8  1  0  0  0  0
 22 11  1  0  0  0  0
 20 12  1  0  0  0  0
 21 13  1  0  0  0  0
 24 14  2  0  0  0  0
 19 16  1  0  0  0  0
 16 15  2  0  0  0  0
 26 17  1  0  0  0  0
 18 17  1  0  0  0  0
 23 18  2  0  0  0  0
 19 18  1  0  0  0  0
 20 19  2  0  0  0  0
 21 20  1  0  0  0  0
 22 21  2  0  0  0  0
 23 22  1  0  0  0  0
 24 23  1  0  0  0  0
 25 24  1  0  0  0  0
 26 25  1  0  0  0  0
M  END
>  <cdx:fragmentId>
188

$$$$
