301977.cdx
  Mrv1902 05222410222D          

 69 76  0  0  0  0            999 V2000
    3.3709   -6.8494    0.0000 C   0  0  0  0  0  0  0  0  0  0  0  0
    3.9817   -6.2948    0.0000 C   0  0  0  0  0  0  0  0  0  0  0  0
    4.7674   -6.5464    0.0000 C   0  0  0  0  0  0  0  0  0  0  0  0
    5.3781   -5.9918    0.0000 C   0  0  0  0  0  0  0  0  0  0  0  0
    5.2032   -5.1856    0.0000 C   0  0  0  0  0  0  0  0  0  0  0  0
    4.4175   -4.9340    0.0000 C   0  0  0  0  0  0  0  0  0  0  0  0
    3.8067   -5.4886    0.0000 C   0  0  0  0  0  0  0  0  0  0  0  0
    2.5852   -6.5978    0.0000 O   0  0  0  0  0  0  0  0  0  0  0  0
    3.5844   -7.6463    0.0000 O   0  0  0  0  0  0  0  0  0  0  0  0
    4.2426   -4.1277    0.0000 O   0  0  0  0  0  0  0  0  0  0  0  0
    5.8139   -4.6310    0.0000 O   0  0  0  0  0  0  0  0  0  0  0  0
    6.1638   -6.2434    0.0000 O   0  0  0  0  0  0  0  0  0  0  0  0
    3.4680   -8.4116    0.0000 C   0  0  0  0  0  0  0  0  0  0  0  0
    2.8550   -8.9636    0.0000 C   0  0  0  0  0  0  0  0  0  0  0  0
    3.0265   -9.7706    0.0000 C   0  0  0  0  0  0  0  0  0  0  0  0
    3.8111  -10.0256    0.0000 C   0  0  0  0  0  0  0  0  0  0  0  0
    4.4242   -9.4735    0.0000 C   0  0  0  0  0  0  0  0  0  0  0  0
    5.0373  -10.0256    0.0000 C   0  0  0  0  0  0  0  0  0  0  0  0
    4.5524  -10.6930    0.0000 C   0  0  0  0  0  0  0  0  0  0  0  0
    4.8879  -11.4467    0.0000 C   0  0  0  0  0  0  0  0  0  0  0  0
    5.7084  -11.5329    0.0000 C   0  0  0  0  0  0  0  0  0  0  0  0
    6.1933  -10.8655    0.0000 C   0  0  0  0  0  0  0  0  0  0  0  0
    5.8578  -10.1118    0.0000 C   0  0  0  0  0  0  0  0  0  0  0  0
    6.5722   -9.6993    0.0000 C   0  0  0  0  0  0  0  0  0  0  0  0
    6.9078   -8.9456    0.0000 O   0  0  0  0  0  0  0  0  0  0  0  0
    6.7363   -8.1386    0.0000 C   0  0  1  0  0  0  0  0  0  0  0  0
    6.1232   -7.5866    0.0000 C   0  0  1  0  0  0  0  0  0  0  0  0
    5.3027   -7.5004    0.0000 O   0  0  0  0  0  0  0  0  0  0  0  0
    4.5882   -7.9129    0.0000 C   0  0  0  0  0  0  0  0  0  0  0  0
    4.2527   -8.6665    0.0000 C   0  0  0  0  0  0  0  0  0  0  0  0
    4.9423   -7.3527    0.0000 C   0  0  2  0  0  0  0  0  0  0  0  0
    3.9751   -7.3608    0.0000 O   0  0  0  0  0  0  0  0  0  0  0  0
    7.1853  -10.2513    0.0000 O   0  0  0  0  0  0  0  0  0  0  0  0
    6.0440  -12.2866    0.0000 O   0  0  0  0  0  0  0  0  0  0  0  0
    4.4030  -12.1141    0.0000 O   0  0  0  0  0  0  0  0  0  0  0  0
    3.8684  -11.1543    0.0000 O   0  0  0  0  0  0  0  0  0  0  0  0
    3.4238  -10.7540    0.0000 O   0  0  0  0  0  0  0  0  0  0  0  0
    2.4134  -10.3226    0.0000 O   0  0  0  0  0  0  0  0  0  0  0  0
    2.0703   -8.7087    0.0000 O   0  0  0  0  0  0  0  0  0  0  0  0
   10.1776   -8.9257    0.0000 C   0  0  0  0  0  0  0  0  0  0  0  0
    9.5942   -9.5090    0.0000 C   0  0  0  0  0  0  0  0  0  0  0  0
   10.0067  -10.2235    0.0000 C   0  0  0  0  0  0  0  0  0  0  0  0
    9.5942  -10.9380    0.0000 C   0  0  0  0  0  0  0  0  0  0  0  0
    8.7692  -10.9380    0.0000 C   0  0  0  0  0  0  0  0  0  0  0  0
    8.3567  -10.2235    0.0000 C   0  0  0  0  0  0  0  0  0  0  0  0
    8.7692   -9.5090    0.0000 C   0  0  0  0  0  0  0  0  0  0  0  0
    8.1858   -8.9257    0.0000 C   0  0  0  0  0  0  0  0  0  0  0  0
    8.1858   -8.1007    0.0000 O   0  0  0  0  0  0  0  0  0  0  0  0
    7.4507   -7.7261    0.0000 C   0  0  2  0  0  0  0  0  0  0  0  0
    7.5798   -6.9113    0.0000 C   0  0  0  0  0  0  0  0  0  0  0  0
    8.3946   -6.7822    0.0000 C   0  0  0  0  0  0  0  0  0  0  0  0
    8.7692   -7.5173    0.0000 O   0  0  0  0  0  0  0  0  0  0  0  0
    9.5942   -7.5173    0.0000 C   0  0  0  0  0  0  0  0  0  0  0  0
   10.1776   -8.1007    0.0000 C   0  0  0  0  0  0  0  0  0  0  0  0
   10.8920   -7.6882    0.0000 C   0  0  0  0  0  0  0  0  0  0  0  0
   11.6065   -8.1007    0.0000 C   0  0  0  0  0  0  0  0  0  0  0  0
   11.6065   -8.9257    0.0000 C   0  0  0  0  0  0  0  0  0  0  0  0
   10.8920   -9.3382    0.0000 C   0  0  0  0  0  0  0  0  0  0  0  0
    9.9099   -6.7551    0.0000 O   0  0  0  0  0  0  0  0  0  0  0  0
    7.4236   -9.2414    0.0000 O   0  0  0  0  0  0  0  0  0  0  0  0
   11.1742  -10.1134    0.0000 O   0  0  0  0  0  0  0  0  0  0  0  0
   12.3210   -9.3382    0.0000 O   0  0  0  0  0  0  0  0  0  0  0  0
   12.3210   -7.6882    0.0000 O   0  0  0  0  0  0  0  0  0  0  0  0
    6.9964   -6.3279    0.0000 O   0  0  0  0  0  0  0  0  0  0  0  0
    8.3567  -11.6525    0.0000 O   0  0  0  0  0  0  0  0  0  0  0  0
   10.0067  -11.6525    0.0000 O   0  0  0  0  0  0  0  0  0  0  0  0
   10.7819  -10.5057    0.0000 O   0  0  0  0  0  0  0  0  0  0  0  0
    3.0011   -8.2297    0.0000 C   0  0  0  0  0  0  0  0  0  0  0  0
    6.5357   -6.8721    0.0000 H   0  0  0  0  0  0  0  0  0  0  0  0
  1  2  1  0  0  0  0
  2  3  1  0  0  0  0
  3  4  2  0  0  0  0
  4  5  1  0  0  0  0
  5  6  2  0  0  0  0
  6  7  1  0  0  0  0
  2  7  2  0  0  0  0
  1  8  2  0  0  0  0
  1  9  1  0  0  0  0
  6 10  1  0  0  0  0
  5 11  1  0  0  0  0
  4 12  1  0  0  0  0
 13 14  2  0  0  0  0
 14 15  1  0  0  0  0
 15 16  2  0  0  0  0
 16 17  1  0  0  0  0
 17 18  1  0  0  0  0
 18 19  2  0  0  0  0
 19 20  1  0  0  0  0
 20 21  2  0  0  0  0
 21 22  1  0  0  0  0
 22 23  2  0  0  0  0
 23 24  1  0  0  0  0
 24 25  1  0  0  0  0
 26 25  1  1  0  0  0
 26 27  1  0  0  0  0
 27 28  1  6  0  0  0
 28 29  1  0  0  0  0
 29 30  1  0  0  0  0
 13 30  1  0  0  0  0
 13 31  1  0  0  0  0
 31 27  1  0  0  0  0
 17 30  2  0  0  0  0
 18 23  1  0  0  0  0
 29 32  2  0  0  0  0
 24 33  2  0  0  0  0
 21 34  1  0  0  0  0
 20 35  1  0  0  0  0
 19 36  1  0  0  0  0
 16 37  1  0  0  0  0
 15 38  1  0  0  0  0
 14 39  1  0  0  0  0
 40 41  1  0  0  0  0
 41 42  2  0  0  0  0
 42 43  1  0  0  0  0
 43 44  2  0  0  0  0
 44 45  1  0  0  0  0
 45 46  2  0  0  0  0
 46 47  1  0  0  0  0
 47 48  1  0  0  0  0
 49 48  1  1  0  0  0
 49 50  1  0  0  0  0
 50 51  1  0  0  0  0
 51 52  1  0  0  0  0
 52 53  1  0  0  0  0
 53 54  1  0  0  0  0
 54 55  2  0  0  0  0
 55 56  1  0  0  0  0
 56 57  2  0  0  0  0
 57 58  1  0  0  0  0
 40 58  2  0  0  0  0
 40 54  1  0  0  0  0
 41 46  1  0  0  0  0
 53 59  2  0  0  0  0
 47 60  2  0  0  0  0
 58 61  1  0  0  0  0
 57 62  1  0  0  0  0
 56 63  1  0  0  0  0
 50 64  1  0  0  0  0
 44 65  1  0  0  0  0
 43 66  1  0  0  0  0
 42 67  1  0  0  0  0
 26 49  1  0  0  0  0
 31  3  1  1  0  0  0
  9 68  1  0  0  0  0
 27 69  1  0  0  0  0
M  END
>  <cdx:fragmentId>
83

$$$$
