301969.cdx
  Mrv1902 05222410242D          

 19 21  0  0  0  0            999 V2000
    6.4262   -5.0302    0.0000 H   0  0  0  0  0  0  0  0  0  0  0  0
    6.4262   -7.4787    0.0000 O   0  0  0  0  0  0  0  0  0  0  0  0
    5.5340   -7.7065    0.0000 C   0  0  0  0  0  0  0  0  0  0  0  0
    9.4359   -6.7848    0.0000 C   0  0  0  0  0  0  0  0  0  0  0  0
    9.5588   -7.6006    0.0000 C   0  0  0  0  0  0  0  0  0  0  0  0
    7.0350   -4.5233    0.0000 C   0  0  0  0  0  0  0  0  0  0  0  0
    9.2058   -6.2545    0.0000 O   0  0  0  0  0  0  0  0  0  0  0  0
    8.7908   -7.2992    0.0000 C   0  0  0  0  0  0  0  0  0  0  0  0
    8.1458   -7.8135    0.0000 O   0  0  0  0  0  0  0  0  0  0  0  0
    6.5735   -6.6670    0.0000 C   0  0  2  0  0  0  0  0  0  0  0  0
    7.2186   -7.1813    0.0000 C   0  0  0  0  0  0  0  0  0  0  0  0
    8.0229   -6.9978    0.0000 C   0  0  1  0  0  0  0  0  0  0  0  0
    8.3808   -6.2545    0.0000 C   0  0  0  0  0  0  0  0  0  0  0  0
    8.0229   -5.5112    0.0000 C   0  0  0  0  0  0  0  0  0  0  0  0
    7.2186   -5.3276    0.0000 C   0  0  0  0  0  0  0  0  0  0  0  0
    6.5735   -5.8420    0.0000 C   0  0  2  0  0  0  0  0  0  0  0  0
    5.7889   -5.5870    0.0000 C   0  0  0  0  0  0  0  0  0  0  0  0
    5.3040   -6.2545    0.0000 C   0  0  0  0  0  0  0  0  0  0  0  0
    5.7889   -6.9219    0.0000 C   0  0  2  0  0  0  0  0  0  0  0  0
 16  1  1  6  0  0  0
 10  2  1  1  0  0  0
 19  3  1  1  0  0  0
  8  4  1  0  0  0  0
  8  5  1  0  0  0  0
 15  6  1  0  0  0  0
 13  7  2  0  0  0  0
 12  8  1  0  0  0  0
 12  9  1  6  0  0  0
  9  8  1  0  0  0  0
 16 10  1  0  0  0  0
 19 10  1  0  0  0  0
 11 10  1  0  0  0  0
 12 11  1  0  0  0  0
 13 12  1  0  0  0  0
 14 13  1  0  0  0  0
 15 14  2  0  0  0  0
 16 15  1  0  0  0  0
 17 16  1  0  0  0  0
 18 17  1  0  0  0  0
 19 18  1  0  0  0  0
M  END
>  <cdx:groupId>
1710

>  <cdx:fragmentId>
1654

$$$$
