301944.cdx
  Mrv1902 05222410242D          

 26 29  0  0  0  0            999 V2000
    7.7822   -3.3429    0.0000 C   0  0  0  0  0  0  0  0  0  0  0  0
    8.4967   -3.7554    0.0000 C   0  0  0  0  0  0  0  0  0  0  0  0
    8.4967   -4.5804    0.0000 C   0  0  0  0  0  0  0  0  0  0  0  0
    7.7822   -4.9929    0.0000 C   0  0  0  0  0  0  0  0  0  0  0  0
    7.0678   -4.5804    0.0000 C   0  0  0  0  0  0  0  0  0  0  0  0
    7.0678   -3.7554    0.0000 N   0  0  0  0  0  0  0  0  0  0  0  0
    9.2112   -3.3429    0.0000 C   0  0  0  0  0  0  0  0  0  0  0  0
    9.2112   -4.9929    0.0000 C   0  0  0  0  0  0  0  0  0  0  0  0
    9.9256   -4.5804    0.0000 C   0  0  0  0  0  0  0  0  0  0  0  0
    9.9256   -3.7554    0.0000 O   0  0  0  0  0  0  0  0  0  0  0  0
    9.2112   -2.5179    0.0000 O   0  0  0  0  0  0  0  0  0  0  0  0
    7.7822   -5.8179    0.0000 C   0  0  0  0  0  0  0  0  0  0  0  0
    7.0678   -6.2304    0.0000 C   0  0  0  0  0  0  0  0  0  0  0  0
    7.0678   -7.0554    0.0000 C   0  0  0  0  0  0  0  0  0  0  0  0
    7.7822   -7.4679    0.0000 C   0  0  0  0  0  0  0  0  0  0  0  0
    4.9244   -8.2929    0.0000 C   0  0  0  0  0  0  0  0  0  0  0  0
    5.6388   -8.7054    0.0000 C   0  0  0  0  0  0  0  0  0  0  0  0
    6.3533   -8.2929    0.0000 C   0  0  0  0  0  0  0  0  0  0  0  0
    6.3533   -7.4679    0.0000 C   0  0  0  0  0  0  0  0  0  0  0  0
    5.6388   -7.0554    0.0000 C   0  0  0  0  0  0  0  0  0  0  0  0
    4.9244   -7.4679    0.0000 N   0  0  0  0  0  0  0  0  0  0  0  0
    5.6388   -9.5304    0.0000 C   0  0  0  0  0  0  0  0  0  0  0  0
    7.0678   -8.7054    0.0000 C   0  0  0  0  0  0  0  0  0  0  0  0
    7.0678   -9.5304    0.0000 C   0  0  0  0  0  0  0  0  0  0  0  0
    6.3533   -9.9429    0.0000 O   0  0  0  0  0  0  0  0  0  0  0  0
    4.9244   -9.9429    0.0000 O   0  0  0  0  0  0  0  0  0  0  0  0
  1  2  1  0  0  0  0
  2  3  2  0  0  0  0
  3  4  1  0  0  0  0
  4  5  2  0  0  0  0
  5  6  1  0  0  0  0
  1  6  2  0  0  0  0
  8  9  1  0  0  0  0
  9 10  1  0  0  0  0
  7 10  1  0  0  0  0
  7  2  1  0  0  0  0
  8  3  1  0  0  0  0
  7 11  2  0  0  0  0
 12 13  1  0  0  0  0
 13 14  1  0  0  0  0
 14 15  1  0  0  0  0
 16 17  1  0  0  0  0
 17 18  2  0  0  0  0
 18 19  1  0  0  0  0
 19 20  2  0  0  0  0
 20 21  1  0  0  0  0
 16 21  2  0  0  0  0
 23 24  1  0  0  0  0
 24 25  1  0  0  0  0
 22 25  1  0  0  0  0
 22 17  1  0  0  0  0
 23 18  1  0  0  0  0
 22 26  2  0  0  0  0
 14 19  1  0  0  0  0
  4 12  1  0  0  0  0
M  END
>  <cdx:groupId>
302

>  <cdx:fragmentId>
254

$$$$
