301939.cdx
  Mrv1902 05222410182D          

 27 28  0  0  0  0            999 V2000
    6.5676   -5.2481    0.0000 C   0  0  0  0  0  0  0  0  0  0  0  0
    5.8532   -5.6606    0.0000 C   0  0  0  0  0  0  0  0  0  0  0  0
    5.8532   -6.4856    0.0000 C   0  0  2  0  0  0  0  0  0  0  0  0
    6.5676   -6.8981    0.0000 C   0  0  0  0  0  0  0  0  0  0  0  0
    7.2821   -6.4856    0.0000 C   0  0  1  0  0  0  0  0  0  0  0  0
    7.2821   -5.6606    0.0000 O   0  0  0  0  0  0  0  0  0  0  0  0
    5.1387   -5.2481    0.0000 C   0  0  0  0  0  0  0  0  0  0  0  0
    5.1387   -4.4231    0.0000 O   0  0  0  0  0  0  0  0  0  0  0  0
    4.4242   -5.6606    0.0000 O   0  0  0  0  0  0  0  0  0  0  0  0
    7.9966   -6.8981    0.0000 O   0  0  0  0  0  0  0  0  0  0  0  0
    9.4255   -6.8981    0.0000 O   0  0  0  0  0  0  0  0  0  0  0  0
    8.7110   -6.4856    0.0000 C   0  0  2  0  0  0  0  0  0  0  0  0
    8.7110   -5.6606    0.0000 C   0  0  1  0  0  0  0  0  0  0  0  0
    9.4255   -5.2481    0.0000 C   0  0  2  0  0  0  0  0  0  0  0  0
   10.1400   -5.6606    0.0000 C   0  0  1  0  0  0  0  0  0  0  0  0
   10.1400   -6.4856    0.0000 C   0  0  1  0  0  0  0  0  0  0  0  0
   10.8545   -6.8981    0.0000 C   0  0  0  0  0  0  0  0  0  0  0  0
   11.5689   -6.4856    0.0000 O   0  0  0  0  0  0  0  0  0  0  0  0
   10.8545   -5.2481    0.0000 O   0  0  0  0  0  0  0  0  0  0  0  0
    9.4255   -4.4231    0.0000 O   0  0  0  0  0  0  0  0  0  0  0  0
    7.9966   -5.2481    0.0000 O   0  0  0  0  0  0  0  0  0  0  0  0
    6.5676   -7.7231    0.0000 C   0  0  0  0  0  0  0  0  0  0  0  0
    5.8532   -8.1356    0.0000 C   0  0  0  0  0  0  0  0  0  0  0  0
    4.7100   -7.1456    0.0000 C   0  0  0  0  0  0  0  0  0  0  0  0
    3.9955   -6.7331    0.0000 C   0  0  0  0  0  0  0  0  0  0  0  0
    3.9955   -5.9081    0.0000 O   0  0  0  0  0  0  0  0  0  0  0  0
    3.2811   -7.1456    0.0000 O   0  0  0  0  0  0  0  0  0  0  0  0
  1  2  2  0  0  0  0
  2  3  1  0  0  0  0
  3  4  1  0  0  0  0
  4  5  1  0  0  0  0
  5  6  1  0  0  0  0
  1  6  1  0  0  0  0
  7  8  2  0  0  0  0
  7  9  1  0  0  0  0
  2  7  1  0  0  0  0
 11 12  1  0  0  0  0
 12 13  1  0  0  0  0
 13 14  1  0  0  0  0
 14 15  1  0  0  0  0
 15 16  1  0  0  0  0
 11 16  1  0  0  0  0
 17 18  1  0  0  0  0
 16 17  1  1  0  0  0
 15 19  1  6  0  0  0
 14 20  1  1  0  0  0
 13 21  1  6  0  0  0
 12 10  1  1  0  0  0
  5 10  1  1  0  0  0
 22 23  1  0  0  0  0
  4 22  2  0  0  0  0
 25 26  2  0  0  0  0
 25 27  1  0  0  0  0
 24 25  1  0  0  0  0
  3 24  1  6  0  0  0
M  END
>  <cdx:groupId>
587

>  <cdx:fragmentId>
528

$$$$
