301950.cdx
  Mrv1902 05222410242D          

 27 29  0  0  0  0            999 V2000
    9.3412   -8.0677    0.0000 O   0  0  0  0  0  0  0  0  0  0  0  0
   10.7789   -7.2580    0.0000 O   0  0  0  0  0  0  0  0  0  0  0  0
   11.5064   -6.0281    0.0000 C   0  0  0  0  0  0  0  0  0  0  0  0
   10.7964   -5.6080    0.0000 O   0  0  0  0  0  0  0  0  0  0  0  0
    8.6487   -5.9978    0.0000 C   0  0  0  0  0  0  0  0  0  0  0  0
    9.3675   -5.5929    0.0000 C   0  0  0  0  0  0  0  0  0  0  0  0
   10.0776   -6.0129    0.0000 C   0  0  0  0  0  0  0  0  0  0  0  0
   10.0688   -6.8379    0.0000 C   0  0  0  0  0  0  0  0  0  0  0  0
    9.3500   -7.2428    0.0000 C   0  0  0  0  0  0  0  0  0  0  0  0
    8.6400   -6.8227    0.0000 C   0  0  0  0  0  0  0  0  0  0  0  0
    7.9211   -7.2276    0.0000 C   0  0  0  0  0  0  0  0  0  0  0  0
    5.0547   -8.0222    0.0000 O   0  0  0  0  0  0  0  0  0  0  0  0
    3.6521   -5.5321    0.0000 O   0  0  0  0  0  0  0  0  0  0  0  0
    4.3797   -4.3023    0.0000 C   0  0  0  0  0  0  0  0  0  0  0  0
    5.0897   -4.7224    0.0000 O   0  0  0  0  0  0  0  0  0  0  0  0
    3.6346   -7.1821    0.0000 C   0  0  0  0  0  0  0  0  0  0  0  0
    6.4835   -8.0374    0.0000 O   0  0  0  0  0  0  0  0  0  0  0  0
    6.5098   -5.5625    0.0000 O   0  0  0  0  0  0  0  0  0  0  0  0
    5.7910   -5.9674    0.0000 C   0  0  0  0  0  0  0  0  0  0  0  0
    5.0809   -5.5473    0.0000 C   0  0  0  0  0  0  0  0  0  0  0  0
    4.3621   -5.9522    0.0000 C   0  0  0  0  0  0  0  0  0  0  0  0
    4.3534   -6.7772    0.0000 C   0  0  0  0  0  0  0  0  0  0  0  0
    5.0634   -7.1972    0.0000 C   0  0  0  0  0  0  0  0  0  0  0  0
    5.7822   -6.7923    0.0000 C   0  0  0  0  0  0  0  0  0  0  0  0
    6.4923   -7.2124    0.0000 C   0  0  0  0  0  0  0  0  0  0  0  0
    7.2111   -6.8075    0.0000 C   0  0  1  0  0  0  0  0  0  0  0  0
    7.2199   -5.9826    0.0000 C   0  0  0  0  0  0  0  0  0  0  0  0
 26 11  1  1  0  0  0
 11 10  1  0  0  0  0
  9  1  1  0  0  0  0
  8  2  1  0  0  0  0
  7  4  1  0  0  0  0
  4  3  1  0  0  0  0
 10  5  2  0  0  0  0
  6  5  1  0  0  0  0
  7  6  2  0  0  0  0
  8  7  1  0  0  0  0
  9  8  2  0  0  0  0
 10  9  1  0  0  0  0
 23 12  1  0  0  0  0
 21 13  1  0  0  0  0
 20 15  1  0  0  0  0
 15 14  1  0  0  0  0
 22 16  1  0  0  0  0
 25 17  2  0  0  0  0
 27 18  1  0  0  0  0
 19 18  1  0  0  0  0
 24 19  2  0  0  0  0
 20 19  1  0  0  0  0
 21 20  2  0  0  0  0
 22 21  1  0  0  0  0
 23 22  2  0  0  0  0
 24 23  1  0  0  0  0
 25 24  1  0  0  0  0
 26 25  1  0  0  0  0
 27 26  1  0  0  0  0
M  END
>  <cdx:fragmentId>
274

$$$$
