301915.cdx
  Mrv1902 05222410202D          

 31 32  0  0  0  0            999 V2000
    6.2038   -3.7141    0.0000 C   0  0  0  0  0  0  0  0  0  0  0  0
    6.9183   -4.1266    0.0000 C   0  0  0  0  0  0  0  0  0  0  0  0
    6.2038   -2.8891    0.0000 O   0  0  0  0  0  0  0  0  0  0  0  0
    5.4893   -4.1266    0.0000 O   0  0  0  0  0  0  0  0  0  0  0  0
    7.6327   -6.6841    0.0000 C   0  0  0  0  0  0  0  0  0  0  0  0
    7.6327   -5.8591    0.0000 C   0  0  0  0  0  0  0  0  0  0  0  0
    6.9183   -5.4466    0.0000 C   0  0  0  0  0  0  0  0  0  0  0  0
    6.2038   -5.8591    0.0000 C   0  0  0  0  0  0  0  0  0  0  0  0
    6.2038   -6.6841    0.0000 C   0  0  0  0  0  0  0  0  0  0  0  0
    6.9183   -7.0966    0.0000 O   0  0  0  0  0  0  0  0  0  0  0  0
    8.3472   -7.0966    0.0000 O   0  0  0  0  0  0  0  0  0  0  0  0
    9.0617   -8.3341    0.0000 O   0  0  0  0  0  0  0  0  0  0  0  0
    8.3472   -7.9216    0.0000 C   0  0  2  0  0  0  0  0  0  0  0  0
    7.6327   -8.3341    0.0000 C   0  0  1  0  0  0  0  0  0  0  0  0
    7.6327   -9.1591    0.0000 C   0  0  2  0  0  0  0  0  0  0  0  0
    8.3472   -9.5716    0.0000 C   0  0  1  0  0  0  0  0  0  0  0  0
    9.0617   -9.1591    0.0000 C   0  0  1  0  0  0  0  0  0  0  0  0
    9.7762   -9.5716    0.0000 C   0  0  0  0  0  0  0  0  0  0  0  0
   10.4906   -9.1591    0.0000 O   0  0  0  0  0  0  0  0  0  0  0  0
    8.3472  -10.3966    0.0000 O   0  0  0  0  0  0  0  0  0  0  0  0
    6.9183   -9.5716    0.0000 O   0  0  0  0  0  0  0  0  0  0  0  0
    6.9183   -7.9216    0.0000 O   0  0  0  0  0  0  0  0  0  0  0  0
    5.4893   -5.4466    0.0000 C   0  0  0  0  0  0  0  0  0  0  0  0
    5.4893   -4.6216    0.0000 O   0  0  0  0  0  0  0  0  0  0  0  0
    4.7749   -5.8591    0.0000 O   0  0  0  0  0  0  0  0  0  0  0  0
    4.0604   -5.4466    0.0000 C   0  0  0  0  0  0  0  0  0  0  0  0
    7.6327   -5.0341    0.0000 O   0  0  0  0  0  0  0  0  0  0  0  0
    8.3472   -5.4466    0.0000 C   0  0  0  0  0  0  0  0  0  0  0  0
    8.3472   -4.6216    0.0000 C   0  0  0  0  0  0  0  0  0  0  0  0
    7.6327   -4.2091    0.0000 O   0  0  0  0  0  0  0  0  0  0  0  0
    9.0617   -4.2091    0.0000 O   0  0  0  0  0  0  0  0  0  0  0  0
  1  2  1  0  0  0  0
  1  3  2  0  0  0  0
  1  4  1  0  0  0  0
  5  6  1  0  0  0  0
  6  7  1  0  0  0  0
  7  8  1  0  0  0  0
  8  9  2  0  0  0  0
  9 10  1  0  0  0  0
  5 10  1  0  0  0  0
 12 13  1  0  0  0  0
 13 14  1  0  0  0  0
 14 15  1  0  0  0  0
 15 16  1  0  0  0  0
 16 17  1  0  0  0  0
 12 17  1  0  0  0  0
 18 19  1  0  0  0  0
 17 18  1  6  0  0  0
 16 20  1  1  0  0  0
 15 21  1  6  0  0  0
 14 22  1  1  0  0  0
 13 11  1  6  0  0  0
  5 11  1  0  0  0  0
 23 24  2  0  0  0  0
 25 26  1  0  0  0  0
 23 25  1  0  0  0  0
  8 23  1  0  0  0  0
  6 27  1  0  0  0  0
 29 30  2  0  0  0  0
 29 31  1  0  0  0  0
 28 29  1  0  0  0  0
  6 28  1  0  0  0  0
  2  7  1  0  0  0  0
M  END
>  <cdx:groupId>
1990

>  <cdx:fragmentId>
1921

$$$$
