301924.cdx
  Mrv1902 05222410262D          

 56 62  0  0  0  0            999 V2000
    8.4967   -4.4650    0.0000 C   0  0  2  0  0  0  0  0  0  0  0  0
    9.2112   -4.0525    0.0000 C   0  0  0  0  0  0  0  0  0  0  0  0
    9.9256   -4.4650    0.0000 C   0  0  0  0  0  0  0  0  0  0  0  0
    9.9256   -5.2900    0.0000 C   0  0  0  0  0  0  0  0  0  0  0  0
    9.2112   -5.7025    0.0000 C   0  0  2  0  0  0  0  0  0  0  0  0
    9.2112   -6.5275    0.0000 C   0  0  0  0  0  0  0  0  0  0  0  0
    8.4967   -6.9400    0.0000 C   0  0  0  0  0  0  0  0  0  0  0  0
    7.7822   -6.5275    0.0000 C   0  0  1  0  0  0  0  0  0  0  0  0
    7.0678   -6.9400    0.0000 C   0  0  2  0  0  0  0  0  0  0  0  0
    7.0678   -7.7650    0.0000 C   0  0  0  0  0  0  0  0  0  0  0  0
    6.3533   -8.1775    0.0000 C   0  0  0  0  0  0  0  0  0  0  0  0
    5.6388   -7.7650    0.0000 C   0  0  1  0  0  0  0  0  0  0  0  0
    4.9244   -8.1775    0.0000 C   0  0  0  0  0  0  0  0  0  0  0  0
    4.2099   -7.7650    0.0000 C   0  0  2  0  0  0  0  0  0  0  0  0
    4.2099   -6.9400    0.0000 C   0  0  0  0  0  0  0  0  0  0  0  0
    4.9244   -6.5275    0.0000 C   0  0  0  0  0  0  0  0  0  0  0  0
    5.6388   -6.9400    0.0000 C   0  0  1  0  0  0  0  0  0  0  0  0
    6.3533   -6.5275    0.0000 C   0  0  0  0  0  0  0  0  0  0  0  0
    6.3533   -5.7025    0.0000 C   0  0  0  0  0  0  0  0  0  0  0  0
    7.0678   -5.2900    0.0000 C   0  0  0  0  0  0  0  0  0  0  0  0
    7.7822   -5.7025    0.0000 C   0  0  0  0  0  0  0  0  0  0  0  0
    8.4967   -5.2900    0.0000 C   0  0  2  0  0  0  0  0  0  0  0  0
    9.9256   -6.1150    0.0000 C   0  0  0  0  0  0  0  0  0  0  0  0
    9.9256   -6.9400    0.0000 O   0  0  0  0  0  0  0  0  0  0  0  0
   10.6401   -5.7025    0.0000 O   0  0  0  0  0  0  0  0  0  0  0  0
    3.4954   -8.1775    0.0000 O   0  0  0  0  0  0  0  0  0  0  0  0
    2.7809   -6.9400    0.0000 O   0  0  0  0  0  0  0  0  0  0  0  0
    2.7809   -7.7650    0.0000 C   0  0  2  0  0  0  0  0  0  0  0  0
    2.0665   -8.1775    0.0000 C   0  0  1  0  0  0  0  0  0  0  0  0
    1.3520   -7.7650    0.0000 C   0  0  2  0  0  0  0  0  0  0  0  0
    1.3520   -6.9400    0.0000 C   0  0  1  0  0  0  0  0  0  0  0  0
    2.0665   -6.5275    0.0000 C   0  0  0  0  0  0  0  0  0  0  0  0
    0.6375   -6.5275    0.0000 O   0  0  0  0  0  0  0  0  0  0  0  0
    0.6375   -8.1775    0.0000 O   0  0  0  0  0  0  0  0  0  0  0  0
    2.0665   -9.0025    0.0000 O   0  0  0  0  0  0  0  0  0  0  0  0
    5.6388   -6.1150    0.0000 C   0  0  0  0  0  0  0  0  0  0  0  0
    5.3369   -8.8920    0.0000 C   0  0  0  0  0  0  0  0  0  0  0  0
    4.5119   -8.8920    0.0000 C   0  0  0  0  0  0  0  0  0  0  0  0
    8.7987   -3.3381    0.0000 C   0  0  0  0  0  0  0  0  0  0  0  0
    9.6237   -3.3381    0.0000 C   0  0  0  0  0  0  0  0  0  0  0  0
    7.7822   -4.0525    0.0000 O   0  0  0  0  0  0  0  0  0  0  0  0
    5.6388   -8.5900    0.0000 H   0  0  0  0  0  0  0  0  0  0  0  0
    8.4967   -6.1150    0.0000 H   0  0  0  0  0  0  0  0  0  0  0  0
   12.0691   -5.7025    0.0000 O   0  0  0  0  0  0  0  0  0  0  0  0
   11.3546   -6.1150    0.0000 C   0  0  2  0  0  0  0  0  0  0  0  0
   11.3546   -6.9400    0.0000 C   0  0  1  0  0  0  0  0  0  0  0  0
   12.0691   -7.3525    0.0000 C   0  0  2  0  0  0  0  0  0  0  0  0
   12.7835   -6.9400    0.0000 C   0  0  1  0  0  0  0  0  0  0  0  0
   12.7835   -6.1150    0.0000 C   0  0  1  0  0  0  0  0  0  0  0  0
   13.4980   -5.7025    0.0000 C   0  0  0  0  0  0  0  0  0  0  0  0
   14.2125   -6.1150    0.0000 O   0  0  0  0  0  0  0  0  0  0  0  0
   13.4980   -7.3525    0.0000 O   0  0  0  0  0  0  0  0  0  0  0  0
   12.0691   -8.1775    0.0000 O   0  0  0  0  0  0  0  0  0  0  0  0
   10.6401   -7.3525    0.0000 O   0  0  0  0  0  0  0  0  0  0  0  0
    7.9958   -7.3244    0.0000 C   0  0  0  0  0  0  0  0  0  0  0  0
    7.6511   -7.5234    0.0000 C   0  0  0  0  0  0  0  0  0  0  0  0
  1  2  1  0  0  0  0
  2  3  1  0  0  0  0
  3  4  1  0  0  0  0
  4  5  1  0  0  0  0
  5  6  1  0  0  0  0
  6  7  1  0  0  0  0
  7  8  1  0  0  0  0
  8  9  1  0  0  0  0
  9 10  1  0  0  0  0
 10 11  1  0  0  0  0
 11 12  1  0  0  0  0
 12 13  1  0  0  0  0
 13 14  1  0  0  0  0
 14 15  1  0  0  0  0
 15 16  1  0  0  0  0
 16 17  1  0  0  0  0
 12 17  1  0  0  0  0
 17 18  1  0  0  0  0
  9 18  1  0  0  0  0
 18 19  1  0  0  0  0
 19 20  1  0  0  0  0
 20 21  2  0  0  0  0
  8 21  1  0  0  0  0
 21 22  1  0  0  0  0
  5 22  1  0  0  0  0
  1 22  1  0  0  0  0
 23 24  2  0  0  0  0
 23 25  1  0  0  0  0
  5 23  1  1  0  0  0
 27 28  1  0  0  0  0
 28 29  1  0  0  0  0
 29 30  1  0  0  0  0
 30 31  1  0  0  0  0
 31 32  1  0  0  0  0
 27 32  1  0  0  0  0
 31 33  1  6  0  0  0
 30 34  1  1  0  0  0
 29 35  1  6  0  0  0
 28 26  1  1  0  0  0
 14 26  1  1  0  0  0
 17 36  1  6  0  0  0
 13 37  1  0  0  0  0
 13 38  1  0  0  0  0
  2 39  1  0  0  0  0
  2 40  1  0  0  0  0
  1 41  1  6  0  0  0
 12 42  1  6  0  0  0
 22 43  1  1  0  0  0
 44 45  1  0  0  0  0
 45 46  1  0  0  0  0
 46 47  1  0  0  0  0
 47 48  1  0  0  0  0
 48 49  1  0  0  0  0
 44 49  1  0  0  0  0
 50 51  1  0  0  0  0
 49 50  1  6  0  0  0
 48 52  1  1  0  0  0
 47 53  1  6  0  0  0
 46 54  1  1  0  0  0
 45 25  1  6  0  0  0
  8 55  1  6  0  0  0
  9 56  1  1  0  0  0
M  END
>  <cdx:groupId>
409

>  <cdx:fragmentId>
238

$$$$
