301904.cdx
  Mrv1902 05222410182D          

 15 17  0  0  0  0            999 V2000
    6.4900   -6.7375    0.0000 C   0  0  0  0  0  0  0  0  0  0  0  0
    7.6482   -6.9752    0.0000 C   0  0  0  0  0  0  0  0  0  0  0  0
    7.6568   -6.1503    0.0000 C   0  0  0  0  0  0  0  0  0  0  0  0
    8.3755   -5.7452    0.0000 C   0  0  0  0  0  0  0  0  0  0  0  0
    8.3840   -4.9203    0.0000 C   0  0  0  0  0  0  0  0  0  0  0  0
    7.6739   -4.5004    0.0000 C   0  0  0  0  0  0  0  0  0  0  0  0
    6.9552   -4.9054    0.0000 C   0  0  0  0  0  0  0  0  0  0  0  0
    6.9466   -5.7304    0.0000 C   0  0  0  0  0  0  0  0  0  0  0  0
    5.7750   -6.2150    0.0000 C   0  0  0  0  0  0  0  0  0  0  0  0
    5.7750   -7.0400    0.0000 C   0  0  0  0  0  0  0  0  0  0  0  0
    6.4350   -5.4175    0.0000 C   0  0  0  0  0  0  0  0  0  0  0  0
    8.3669   -6.5702    0.0000 O   0  0  0  0  0  0  0  0  0  0  0  0
    7.6653   -5.3253    0.0000 C   0  0  0  0  0  0  0  0  0  0  0  0
    8.3627   -7.3877    0.0000 C   0  0  0  0  0  0  0  0  0  0  0  0
    7.6482   -7.8002    0.0000 C   0  0  0  0  0  0  0  0  0  0  0  0
  1  2  1  0  0  0  0
  2  3  1  0  0  0  0
  3  4  1  0  0  0  0
  4  5  1  0  0  0  0
  5  6  2  0  0  0  0
  6  7  1  0  0  0  0
  7  8  1  0  0  0  0
  8  9  1  0  0  0  0
  9 10  1  0  0  0  0
  1 10  1  0  0  0  0
  1 11  1  0  0  0  0
 11  7  1  0  0  0  0
  3  8  1  0  0  0  0
  3 12  1  0  0  0  0
  8 13  1  0  0  0  0
  2 14  1  0  0  0  0
  2 15  1  0  0  0  0
M  END
>  <cdx:fragmentId>
608

$$$$
