301920.cdx
  Mrv1902 05222410282D          

 35 34  0  0  0  0            999 V2000
    1.0242   -6.4366    0.0000 C   0  0  0  0  0  0  0  0  0  0  0  0
    1.7387   -6.8491    0.0000 C   0  0  0  0  0  0  0  0  0  0  0  0
    2.4531   -6.4366    0.0000 O   0  0  0  0  0  0  0  0  0  0  0  0
    3.1676   -6.8491    0.0000 C   0  0  0  0  0  0  0  0  0  0  0  0
    3.8821   -6.4366    0.0000 C   0  0  0  0  0  0  0  0  0  0  0  0
    4.5966   -6.8491    0.0000 O   0  0  0  0  0  0  0  0  0  0  0  0
    5.3110   -6.4366    0.0000 C   0  0  0  0  0  0  0  0  0  0  0  0
    6.0255   -6.8491    0.0000 C   0  0  0  0  0  0  0  0  0  0  0  0
    6.7400   -6.4366    0.0000 O   0  0  0  0  0  0  0  0  0  0  0  0
    7.4544   -6.8491    0.0000 C   0  0  0  0  0  0  0  0  0  0  0  0
    8.1689   -6.4366    0.0000 C   0  0  0  0  0  0  0  0  0  0  0  0
    8.8834   -6.8491    0.0000 O   0  0  0  0  0  0  0  0  0  0  0  0
    9.5979   -6.4366    0.0000 C   0  0  0  0  0  0  0  0  0  0  0  0
   10.3123   -6.8491    0.0000 C   0  0  0  0  0  0  0  0  0  0  0  0
   11.0268   -6.4366    0.0000 O   0  0  0  0  0  0  0  0  0  0  0  0
   11.7413   -6.8491    0.0000 C   0  0  0  0  0  0  0  0  0  0  0  0
   12.4557   -6.4366    0.0000 C   0  0  0  0  0  0  0  0  0  0  0  0
   13.1702   -6.8491    0.0000 O   0  0  0  0  0  0  0  0  0  0  0  0
   13.8847   -6.4366    0.0000 C   0  0  0  0  0  0  0  0  0  0  0  0
   14.5991   -6.8491    0.0000 C   0  0  0  0  0  0  0  0  0  0  0  0
   15.3136   -6.4366    0.0000 O   0  0  0  0  0  0  0  0  0  0  0  0
   16.0281   -6.8491    0.0000 C   0  0  0  0  0  0  0  0  0  0  0  0
   16.7426   -6.4366    0.0000 C   0  0  0  0  0  0  0  0  0  0  0  0
   17.4570   -6.8491    0.0000 O   0  0  0  0  0  0  0  0  0  0  0  0
   18.1715   -6.4366    0.0000 C   0  0  0  0  0  0  0  0  0  0  0  0
   18.8860   -6.8491    0.0000 C   0  0  0  0  0  0  0  0  0  0  0  0
   19.6004   -6.4366    0.0000 O   0  0  0  0  0  0  0  0  0  0  0  0
   20.3149   -6.8491    0.0000 C   0  0  0  0  0  0  0  0  0  0  0  0
   21.0294   -6.4366    0.0000 C   0  0  0  0  0  0  0  0  0  0  0  0
   21.7439   -6.8491    0.0000 O   0  0  0  0  0  0  0  0  0  0  0  0
   22.4583   -6.4366    0.0000 C   0  0  0  0  0  0  0  0  0  0  0  0
   23.1728   -6.8491    0.0000 C   0  0  0  0  0  0  0  0  0  0  0  0
   23.8873   -6.4366    0.0000 O   0  0  0  0  0  0  0  0  0  0  0  0
   24.6017   -6.8491    0.0000 C   0  0  0  0  0  0  0  0  0  0  0  0
    0.3097   -6.8491    0.0000 O   0  0  0  0  0  0  0  0  0  0  0  0
  1  2  1  0  0  0  0
  4  5  1  0  0  0  0
  3  4  1  0  0  0  0
  7  8  1  0  0  0  0
  6  7  1  0  0  0  0
 10 11  1  0  0  0  0
  9 10  1  0  0  0  0
 13 14  1  0  0  0  0
 12 13  1  0  0  0  0
 16 17  1  0  0  0  0
 15 16  1  0  0  0  0
 19 20  1  0  0  0  0
 18 19  1  0  0  0  0
 22 23  1  0  0  0  0
 21 22  1  0  0  0  0
 25 26  1  0  0  0  0
 24 25  1  0  0  0  0
 28 29  1  0  0  0  0
 27 28  1  0  0  0  0
 31 32  1  0  0  0  0
 30 31  1  0  0  0  0
 33 34  1  0  0  0  0
 32 33  1  0  0  0  0
 29 30  1  0  0  0  0
 26 27  1  0  0  0  0
 23 24  1  0  0  0  0
 20 21  1  0  0  0  0
 17 18  1  0  0  0  0
 14 15  1  0  0  0  0
 11 12  1  0  0  0  0
  8  9  1  0  0  0  0
  5  6  1  0  0  0  0
  2  3  1  0  0  0  0
  1 35  1  0  0  0  0
M  END
>  <cdx:groupId>
2400

>  <cdx:fragmentId>
2359

$$$$
