301928.cdx
  Mrv1902 05222410202D          

 25 24  0  0  0  0            999 V2000
    0.7923   -6.3404    0.0000 O   0  0  0  0  0  0  0  0  0  0  0  0
    1.5068   -7.5779    0.0000 O   0  0  0  0  0  0  0  0  0  0  0  0
    2.2213   -7.1654    0.0000 C   0  0  0  0  0  0  0  0  0  0  0  0
    2.2213   -6.3404    0.0000 C   0  0  0  0  0  0  0  0  0  0  0  0
    1.5068   -5.9279    0.0000 C   0  0  0  0  0  0  0  0  0  0  0  0
    2.9358   -5.9279    0.0000 O   0  0  0  0  0  0  0  0  0  0  0  0
    3.6502   -7.1654    0.0000 O   0  0  0  0  0  0  0  0  0  0  0  0
   15.7962   -5.9279    0.0000 C   0  0  0  0  0  0  0  0  0  0  0  0
   15.0818   -6.3404    0.0000 C   0  0  0  0  0  0  0  0  0  0  0  0
   14.3673   -5.9279    0.0000 C   0  0  0  0  0  0  0  0  0  0  0  0
   13.6528   -6.3404    0.0000 C   0  0  0  0  0  0  0  0  0  0  0  0
   12.9384   -5.9279    0.0000 C   0  0  0  0  0  0  0  0  0  0  0  0
   12.2239   -6.3404    0.0000 C   0  0  0  0  0  0  0  0  0  0  0  0
   11.5094   -5.9279    0.0000 C   0  0  0  0  0  0  0  0  0  0  0  0
   10.7949   -6.3404    0.0000 C   0  0  0  0  0  0  0  0  0  0  0  0
   10.0805   -5.9279    0.0000 C   0  0  0  0  0  0  0  0  0  0  0  0
    9.3660   -6.3404    0.0000 C   0  0  0  0  0  0  0  0  0  0  0  0
    8.6515   -5.9279    0.0000 C   0  0  0  0  0  0  0  0  0  0  0  0
    7.9371   -6.3404    0.0000 C   0  0  0  0  0  0  0  0  0  0  0  0
    7.2226   -5.9279    0.0000 C   0  0  0  0  0  0  0  0  0  0  0  0
    6.5081   -6.3404    0.0000 C   0  0  0  0  0  0  0  0  0  0  0  0
    5.7936   -5.9279    0.0000 C   0  0  0  0  0  0  0  0  0  0  0  0
    5.0792   -6.3404    0.0000 C   0  0  0  0  0  0  0  0  0  0  0  0
    4.3647   -5.9279    0.0000 C   0  0  0  0  0  0  0  0  0  0  0  0
    3.6502   -6.3404    0.0000 C   0  0  0  0  0  0  0  0  0  0  0  0
  6  4  1  0  0  0  0
  5  1  1  0  0  0  0
  3  2  1  0  0  0  0
  4  3  1  0  0  0  0
  5  4  1  0  0  0  0
 25  6  1  0  0  0  0
 25  7  2  0  0  0  0
  9  8  1  0  0  0  0
 10  9  1  0  0  0  0
 11 10  1  0  0  0  0
 12 11  1  0  0  0  0
 13 12  1  0  0  0  0
 14 13  1  0  0  0  0
 15 14  1  0  0  0  0
 16 15  1  0  0  0  0
 17 16  1  0  0  0  0
 18 17  1  0  0  0  0
 19 18  1  0  0  0  0
 20 19  1  0  0  0  0
 21 20  1  0  0  0  0
 22 21  1  0  0  0  0
 23 22  1  0  0  0  0
 24 23  1  0  0  0  0
 25 24  1  0  0  0  0
M  END
>  <cdx:fragmentId>
826

$$$$
