301931.cdx
  Mrv1902 05222410262D          

 22 21  0  0  0  0            999 V2000
    6.8475   -6.1685    0.0000 C   0  0  0  0  0  0  0  0  0  0  0  0
    6.1330   -5.7560    0.0000 C   0  0  0  0  0  0  0  0  0  0  0  0
    5.4186   -6.1685    0.0000 C   0  0  0  0  0  0  0  0  0  0  0  0
    4.7041   -5.7560    0.0000 C   0  0  0  0  0  0  0  0  0  0  0  0
    3.9896   -6.1685    0.0000 C   0  0  0  0  0  0  0  0  0  0  0  0
    3.2751   -5.7560    0.0000 C   0  0  0  0  0  0  0  0  0  0  0  0
    2.5607   -6.1685    0.0000 C   0  0  0  0  0  0  0  0  0  0  0  0
    1.8462   -5.7560    0.0000 C   0  0  0  0  0  0  0  0  0  0  0  0
    1.1317   -6.1685    0.0000 C   0  0  0  0  0  0  0  0  0  0  0  0
    1.1317   -6.9935    0.0000 O   0  0  0  0  0  0  0  0  0  0  0  0
    0.4173   -5.7560    0.0000 O   0  0  0  0  0  0  0  0  0  0  0  0
    7.5620   -5.7560    0.0000 C   0  0  0  0  0  0  0  0  0  0  0  0
    8.2764   -6.1685    0.0000 C   0  0  0  0  0  0  0  0  0  0  0  0
    8.9909   -5.7560    0.0000 C   0  0  0  0  0  0  0  0  0  0  0  0
    9.7054   -6.1685    0.0000 C   0  0  0  0  0  0  0  0  0  0  0  0
   10.4199   -5.7560    0.0000 C   0  0  0  0  0  0  0  0  0  0  0  0
   11.1343   -6.1685    0.0000 C   0  0  0  0  0  0  0  0  0  0  0  0
   11.8488   -5.7560    0.0000 C   0  0  0  0  0  0  0  0  0  0  0  0
   12.5633   -6.1685    0.0000 C   0  0  0  0  0  0  0  0  0  0  0  0
   13.2777   -5.7560    0.0000 C   0  0  0  0  0  0  0  0  0  0  0  0
   13.9922   -6.1685    0.0000 O   0  0  0  0  0  0  0  0  0  0  0  0
   13.2777   -4.9310    0.0000 O   0  0  0  0  0  0  0  0  0  0  0  0
  1  2  1  0  0  0  0
  2  3  1  0  0  0  0
  3  4  1  0  0  0  0
  4  5  1  0  0  0  0
  5  6  1  0  0  0  0
  6  7  1  0  0  0  0
  7  8  1  0  0  0  0
  8  9  1  0  0  0  0
  9 10  2  0  0  0  0
  9 11  1  0  0  0  0
  1 12  2  0  0  0  0
 12 13  1  0  0  0  0
 13 14  1  0  0  0  0
 14 15  1  0  0  0  0
 15 16  1  0  0  0  0
 16 17  1  0  0  0  0
 17 18  1  0  0  0  0
 18 19  1  0  0  0  0
 19 20  1  0  0  0  0
 20 21  1  0  0  0  0
 20 22  2  0  0  0  0
M  END
>  <cdx:fragmentId>
5

$$$$
