301909.cdx
  Mrv1902 05222410282D          

 21 23  0  0  0  0            999 V2000
    5.1862  -10.3753    0.0000 C   0  0  0  0  0  0  0  0  0  0  0  0
    5.1862  -11.2003    0.0000 C   0  0  0  0  0  0  0  0  0  0  0  0
    5.9006  -11.6128    0.0000 C   0  0  0  0  0  0  0  0  0  0  0  0
    6.6151  -11.2003    0.0000 C   0  0  0  0  0  0  0  0  0  0  0  0
    6.6151  -10.3753    0.0000 C   0  0  0  0  0  0  0  0  0  0  0  0
    5.9006   -9.9628    0.0000 C   0  0  0  0  0  0  0  0  0  0  0  0
    7.3296  -11.6128    0.0000 C   0  0  0  0  0  0  0  0  0  0  0  0
    8.0440  -11.2003    0.0000 C   0  0  0  0  0  0  0  0  0  0  0  0
    8.0440  -10.3753    0.0000 C   0  0  1  0  0  0  0  0  0  0  0  0
    7.3296   -9.9628    0.0000 C   0  0  1  0  0  0  0  0  0  0  0  0
    8.7585   -9.9628    0.0000 C   0  0  0  0  0  0  0  0  0  0  0  0
    8.7585   -9.1378    0.0000 C   0  0  2  0  0  0  0  0  0  0  0  0
    8.0440   -8.7253    0.0000 C   0  0  0  0  0  0  0  0  0  0  0  0
    7.3296   -9.1378    0.0000 C   0  0  0  0  0  0  0  0  0  0  0  0
    4.4717  -11.6128    0.0000 O   0  0  0  0  0  0  0  0  0  0  0  0
    5.9006  -12.4378    0.0000 C   0  0  0  0  0  0  0  0  0  0  0  0
    6.6151   -9.5503    0.0000 C   0  0  0  0  0  0  0  0  0  0  0  0
    8.7585   -8.3128    0.0000 C   0  0  0  0  0  0  0  0  0  0  0  0
    9.4730   -8.7253    0.0000 C   0  0  0  0  0  0  0  0  0  0  0  0
   10.1875   -9.1378    0.0000 C   0  0  0  0  0  0  0  0  0  0  0  0
    8.7585  -10.7878    0.0000 H   0  0  0  0  0  0  0  0  0  0  0  0
  1  2  2  0  0  0  0
  2  3  1  0  0  0  0
  3  4  2  0  0  0  0
  4  5  1  0  0  0  0
  5  6  2  0  0  0  0
  6  1  1  0  0  0  0
  4  7  1  0  0  0  0
  7  8  1  0  0  0  0
  8  9  1  0  0  0  0
  9 10  1  0  0  0  0
 10  5  1  0  0  0  0
  9 11  1  0  0  0  0
 11 12  1  0  0  0  0
 12 13  1  0  0  0  0
 13 14  1  0  0  0  0
 14 10  1  0  0  0  0
  2 15  1  0  0  0  0
  3 16  1  0  0  0  0
 10 17  1  1  0  0  0
 12 18  1  6  0  0  0
 12 19  1  1  0  0  0
 19 20  2  0  0  0  0
  9 21  1  6  0  0  0
M  END
>  <cdx:fragmentId>
2401

$$$$
