301986.cdx
  Mrv1902 05222410242D          

 16 17  0  0  0  0            999 V2000
    6.0981   -6.3662    0.0000 C   0  0  2  0  0  0  0  0  0  0  0  0
    5.6856   -7.0807    0.0000 C   0  0  0  0  0  0  0  0  0  0  0  0
    6.0981   -7.7952    0.0000 C   0  0  0  0  0  0  0  0  0  0  0  0
    6.9231   -7.7952    0.0000 C   0  0  0  0  0  0  0  0  0  0  0  0
    7.3356   -7.0807    0.0000 C   0  0  0  0  0  0  0  0  0  0  0  0
    6.9231   -6.3662    0.0000 C   0  0  0  0  0  0  0  0  0  0  0  0
    6.3117   -5.5694    0.0000 C   0  0  0  0  0  0  0  0  0  0  0  0
    5.6197   -5.1200    0.0000 C   0  0  0  0  0  0  0  0  0  0  0  0
    4.9786   -5.6392    0.0000 C   0  0  2  0  0  0  0  0  0  0  0  0
    5.2743   -6.4094    0.0000 C   0  0  0  0  0  0  0  0  0  0  0  0
    4.1817   -5.4257    0.0000 C   0  0  0  0  0  0  0  0  0  0  0  0
    3.5983   -6.0091    0.0000 C   0  0  0  0  0  0  0  0  0  0  0  0
    3.9682   -4.6288    0.0000 O   0  0  0  0  0  0  0  0  0  0  0  0
    7.3356   -5.6518    0.0000 C   0  0  0  0  0  0  0  0  0  0  0  0
    4.9712   -6.6682    0.0000 C   0  0  0  0  0  0  0  0  0  0  0  0
    5.2731   -7.7952    0.0000 C   0  0  0  0  0  0  0  0  0  0  0  0
  1  2  1  0  0  0  0
  2  3  1  0  0  0  0
  3  4  2  0  0  0  0
  4  5  1  0  0  0  0
  5  6  2  0  0  0  0
  6  1  1  0  0  0  0
  7  8  1  0  0  0  0
  8  9  1  0  0  0  0
  9 10  1  0  0  0  0
 10  1  1  0  0  0  0
  1  7  1  1  0  0  0
  9 11  1  6  0  0  0
 11 12  1  0  0  0  0
 11 13  2  0  0  0  0
  6 14  1  0  0  0  0
  2 15  1  0  0  0  0
  2 16  1  0  0  0  0
M  END
>  <cdx:fragmentId>
2980

$$$$
