30197.cdx
  Mrv1902 05222410202D          

 13 15  0  0  0  0            999 V2000
    5.0957   -7.1035    0.0000 C   0  0  0  0  0  0  0  0  0  0  0  0
    5.3433   -7.8905    0.0000 C   0  0  0  0  0  0  0  0  0  0  0  0
    6.1486   -8.0695    0.0000 C   0  0  0  0  0  0  0  0  0  0  0  0
    6.7064   -7.4616    0.0000 C   0  0  0  0  0  0  0  0  0  0  0  0
    6.4588   -6.6747    0.0000 C   0  0  0  0  0  0  0  0  0  0  0  0
    5.6534   -6.4956    0.0000 C   0  0  0  0  0  0  0  0  0  0  0  0
    7.5313   -7.4693    0.0000 C   0  0  0  0  0  0  0  0  0  0  0  0
    7.7936   -6.6871    0.0000 C   0  0  0  0  0  0  0  0  0  0  0  0
    7.1307   -6.1960    0.0000 N   0  0  0  0  0  0  0  0  0  0  0  0
    8.0776   -8.0875    0.0000 C   0  0  0  0  0  0  0  0  0  0  0  0
    8.8862   -7.9235    0.0000 C   0  0  0  0  0  0  0  0  0  0  0  0
    9.1484   -7.1413    0.0000 N   0  0  0  0  0  0  0  0  0  0  0  0
    8.6021   -6.5231    0.0000 C   0  0  0  0  0  0  0  0  0  0  0  0
  1  2  2  0  0  0  0
  2  3  1  0  0  0  0
  3  4  2  0  0  0  0
  4  5  1  0  0  0  0
  5  6  2  0  0  0  0
  6  1  1  0  0  0  0
  4  7  1  0  0  0  0
  7  8  2  0  0  0  0
  8  9  1  0  0  0  0
  9  5  1  0  0  0  0
  7 10  1  0  0  0  0
 10 11  1  0  0  0  0
 11 12  1  0  0  0  0
 12 13  1  0  0  0  0
 13  8  1  0  0  0  0
M  END
>  <cdx:fragmentId>
5

$$$$
