301975.cdx
  Mrv1902 05222410222D          

 34 36  0  0  0  0            999 V2000
    7.4186   -6.3731    0.0000 C   0  0  1  0  0  0  0  0  0  0  0  0
    8.1331   -5.9606    0.0000 C   0  0  1  0  0  0  0  0  0  0  0  0
    8.1331   -5.1356    0.0000 C   0  0  1  0  0  0  0  0  0  0  0  0
    7.4186   -4.7231    0.0000 C   0  0  0  0  0  0  0  0  0  0  0  0
    6.7042   -5.1356    0.0000 C   0  0  0  0  0  0  0  0  0  0  0  0
    6.7042   -5.9606    0.0000 O   0  0  0  0  0  0  0  0  0  0  0  0
    8.9177   -4.8807    0.0000 C   0  0  2  0  0  0  0  0  0  0  0  0
    9.4027   -5.5481    0.0000 C   0  0  0  0  0  0  0  0  0  0  0  0
    8.9177   -6.2156    0.0000 C   0  0  0  0  0  0  0  0  0  0  0  0
    7.4186   -3.8981    0.0000 C   0  0  0  0  0  0  0  0  0  0  0  0
    8.1331   -3.4856    0.0000 O   0  0  0  0  0  0  0  0  0  0  0  0
    6.7042   -3.4856    0.0000 O   0  0  0  0  0  0  0  0  0  0  0  0
    7.4186   -7.1981    0.0000 O   0  0  0  0  0  0  0  0  0  0  0  0
    5.9897   -7.1981    0.0000 O   0  0  0  0  0  0  0  0  0  0  0  0
    6.7042   -7.6106    0.0000 C   0  0  2  0  0  0  0  0  0  0  0  0
    6.7042   -8.4356    0.0000 C   0  0  1  0  0  0  0  0  0  0  0  0
    5.9897   -8.8481    0.0000 C   0  0  2  0  0  0  0  0  0  0  0  0
    5.2752   -8.4356    0.0000 C   0  0  1  0  0  0  0  0  0  0  0  0
    5.2752   -7.6106    0.0000 C   0  0  1  0  0  0  0  0  0  0  0  0
    4.5608   -7.1981    0.0000 C   0  0  0  0  0  0  0  0  0  0  0  0
    3.8463   -7.6106    0.0000 O   0  0  0  0  0  0  0  0  0  0  0  0
    4.5608   -8.8481    0.0000 O   0  0  0  0  0  0  0  0  0  0  0  0
    5.9897   -9.6731    0.0000 O   0  0  0  0  0  0  0  0  0  0  0  0
    7.4186   -8.8481    0.0000 O   0  0  0  0  0  0  0  0  0  0  0  0
    9.1727   -7.0002    0.0000 C   0  0  0  0  0  0  0  0  0  0  0  0
    9.9796   -7.1717    0.0000 O   0  0  0  0  0  0  0  0  0  0  0  0
   10.2346   -7.9563    0.0000 C   0  0  0  0  0  0  0  0  0  0  0  0
    9.6825   -8.5694    0.0000 O   0  0  0  0  0  0  0  0  0  0  0  0
   11.0415   -8.1279    0.0000 S   0  0  0  0  0  0  0  0  0  0  0  0
   11.2965   -8.9125    0.0000 C   0  0  0  0  0  0  0  0  0  0  0  0
    9.1727   -4.0961    0.0000 O   0  0  0  0  0  0  0  0  0  0  0  0
    8.2193   -4.3151    0.0000 H   0  0  0  0  0  0  0  0  0  0  0  0
    8.2193   -6.7811    0.0000 H   0  0  0  0  0  0  0  0  0  0  0  0
    6.7042   -2.6606    0.0000 C   0  0  0  0  0  0  0  0  0  0  0  0
  1  2  1  0  0  0  0
  2  3  1  0  0  0  0
  3  4  1  0  0  0  0
  4  5  2  0  0  0  0
  5  6  1  0  0  0  0
  1  6  1  0  0  0  0
  7  8  1  0  0  0  0
  8  9  2  0  0  0  0
  9  2  1  0  0  0  0
  7  3  1  0  0  0  0
 10 11  2  0  0  0  0
 10 12  1  0  0  0  0
  4 10  1  0  0  0  0
 14 15  1  0  0  0  0
 15 16  1  0  0  0  0
 16 17  1  0  0  0  0
 17 18  1  0  0  0  0
 18 19  1  0  0  0  0
 14 19  1  0  0  0  0
 20 21  1  0  0  0  0
 19 20  1  1  0  0  0
 18 22  1  6  0  0  0
 17 23  1  1  0  0  0
 16 24  1  6  0  0  0
 15 13  1  1  0  0  0
  1 13  1  6  0  0  0
 27 28  2  0  0  0  0
 29 30  1  0  0  0  0
 27 29  1  0  0  0  0
 26 27  1  0  0  0  0
 25 26  1  0  0  0  0
  9 25  1  0  0  0  0
  7 31  1  1  0  0  0
  3 32  1  6  0  0  0
  2 33  1  6  0  0  0
 12 34  1  0  0  0  0
M  END
>  <cdx:groupId>
2118

>  <cdx:fragmentId>
2017

$$$$
