301923.cdx
  Mrv1902 05222410272D          

 57 63  0  0  0  0            999 V2000
    8.4967   -4.2149    0.0000 C   0  0  1  0  0  0  0  0  0  0  0  0
    9.2112   -3.8024    0.0000 C   0  0  1  0  0  0  0  0  0  0  0  0
    9.9256   -4.2149    0.0000 C   0  0  0  0  0  0  0  0  0  0  0  0
    9.9256   -5.0399    0.0000 C   0  0  0  0  0  0  0  0  0  0  0  0
    9.2112   -5.4524    0.0000 C   0  0  2  0  0  0  0  0  0  0  0  0
    9.2112   -6.2774    0.0000 C   0  0  0  0  0  0  0  0  0  0  0  0
    8.4967   -6.6899    0.0000 C   0  0  0  0  0  0  0  0  0  0  0  0
    7.7822   -6.2774    0.0000 C   0  0  1  0  0  0  0  0  0  0  0  0
    7.0678   -6.6899    0.0000 C   0  0  2  0  0  0  0  0  0  0  0  0
    7.0678   -7.5149    0.0000 C   0  0  0  0  0  0  0  0  0  0  0  0
    6.3533   -7.9274    0.0000 C   0  0  0  0  0  0  0  0  0  0  0  0
    5.6388   -7.5149    0.0000 C   0  0  1  0  0  0  0  0  0  0  0  0
    4.9244   -7.9274    0.0000 C   0  0  2  0  0  0  0  0  0  0  0  0
    4.2099   -7.5149    0.0000 C   0  0  2  0  0  0  0  0  0  0  0  0
    4.2099   -6.6899    0.0000 C   0  0  0  0  0  0  0  0  0  0  0  0
    4.9244   -6.2774    0.0000 C   0  0  0  0  0  0  0  0  0  0  0  0
    5.6388   -6.6899    0.0000 C   0  0  1  0  0  0  0  0  0  0  0  0
    6.3533   -6.2774    0.0000 C   0  0  0  0  0  0  0  0  0  0  0  0
    6.3533   -5.4524    0.0000 C   0  0  0  0  0  0  0  0  0  0  0  0
    7.0678   -5.0399    0.0000 C   0  0  0  0  0  0  0  0  0  0  0  0
    7.7822   -5.4524    0.0000 C   0  0  0  0  0  0  0  0  0  0  0  0
    8.4967   -5.0399    0.0000 C   0  0  2  0  0  0  0  0  0  0  0  0
    9.9256   -5.8649    0.0000 C   0  0  0  0  0  0  0  0  0  0  0  0
    9.9256   -6.6899    0.0000 O   0  0  0  0  0  0  0  0  0  0  0  0
   10.6401   -5.4524    0.0000 O   0  0  0  0  0  0  0  0  0  0  0  0
    3.4954   -7.9274    0.0000 O   0  0  0  0  0  0  0  0  0  0  0  0
    2.7809   -6.6899    0.0000 O   0  0  0  0  0  0  0  0  0  0  0  0
    2.7809   -7.5149    0.0000 C   0  0  2  0  0  0  0  0  0  0  0  0
    2.0665   -7.9274    0.0000 C   0  0  1  0  0  0  0  0  0  0  0  0
    1.3520   -7.5149    0.0000 C   0  0  2  0  0  0  0  0  0  0  0  0
    1.3520   -6.6899    0.0000 C   0  0  1  0  0  0  0  0  0  0  0  0
    2.0665   -6.2774    0.0000 C   0  0  0  0  0  0  0  0  0  0  0  0
    0.6375   -6.2774    0.0000 O   0  0  0  0  0  0  0  0  0  0  0  0
    0.6375   -7.9274    0.0000 O   0  0  0  0  0  0  0  0  0  0  0  0
    2.0665   -8.7524    0.0000 O   0  0  0  0  0  0  0  0  0  0  0  0
    5.6388   -5.8649    0.0000 C   0  0  0  0  0  0  0  0  0  0  0  0
    4.5119   -8.6419    0.0000 C   0  0  0  0  0  0  0  0  0  0  0  0
    9.2112   -2.9774    0.0000 C   0  0  0  0  0  0  0  0  0  0  0  0
    8.0842   -3.5004    0.0000 C   0  0  0  0  0  0  0  0  0  0  0  0
    5.3369   -8.6419    0.0000 C   0  0  0  0  0  0  0  0  0  0  0  0
    4.9244   -9.3563    0.0000 O   0  0  0  0  0  0  0  0  0  0  0  0
    7.6717   -4.2149    0.0000 O   0  0  0  0  0  0  0  0  0  0  0  0
    5.6388   -8.3399    0.0000 H   0  0  0  0  0  0  0  0  0  0  0  0
    8.4967   -5.8649    0.0000 H   0  0  0  0  0  0  0  0  0  0  0  0
   12.0691   -5.4524    0.0000 O   0  0  0  0  0  0  0  0  0  0  0  0
   11.3546   -5.8649    0.0000 C   0  0  2  0  0  0  0  0  0  0  0  0
   11.3546   -6.6899    0.0000 C   0  0  1  0  0  0  0  0  0  0  0  0
   12.0691   -7.1024    0.0000 C   0  0  2  0  0  0  0  0  0  0  0  0
   12.7835   -6.6899    0.0000 C   0  0  1  0  0  0  0  0  0  0  0  0
   12.7835   -5.8649    0.0000 C   0  0  1  0  0  0  0  0  0  0  0  0
   13.4980   -5.4524    0.0000 C   0  0  0  0  0  0  0  0  0  0  0  0
   14.2125   -5.8649    0.0000 O   0  0  0  0  0  0  0  0  0  0  0  0
   13.4980   -7.1024    0.0000 O   0  0  0  0  0  0  0  0  0  0  0  0
   12.0691   -7.9274    0.0000 O   0  0  0  0  0  0  0  0  0  0  0  0
   10.6401   -7.1024    0.0000 O   0  0  0  0  0  0  0  0  0  0  0  0
    7.9958   -7.0743    0.0000 C   0  0  0  0  0  0  0  0  0  0  0  0
    7.6511   -7.2733    0.0000 C   0  0  0  0  0  0  0  0  0  0  0  0
  1  2  1  0  0  0  0
  2  3  1  0  0  0  0
  3  4  1  0  0  0  0
  4  5  1  0  0  0  0
  5  6  1  0  0  0  0
  6  7  1  0  0  0  0
  7  8  1  0  0  0  0
  8  9  1  0  0  0  0
  9 10  1  0  0  0  0
 10 11  1  0  0  0  0
 11 12  1  0  0  0  0
 12 13  1  0  0  0  0
 13 14  1  0  0  0  0
 14 15  1  0  0  0  0
 15 16  1  0  0  0  0
 16 17  1  0  0  0  0
 12 17  1  0  0  0  0
 17 18  1  0  0  0  0
  9 18  1  0  0  0  0
 18 19  1  0  0  0  0
 19 20  1  0  0  0  0
 20 21  2  0  0  0  0
  8 21  1  0  0  0  0
 21 22  1  0  0  0  0
  5 22  1  0  0  0  0
  1 22  1  0  0  0  0
 23 24  2  0  0  0  0
 23 25  1  0  0  0  0
  5 23  1  1  0  0  0
 27 28  1  0  0  0  0
 28 29  1  0  0  0  0
 29 30  1  0  0  0  0
 30 31  1  0  0  0  0
 31 32  1  0  0  0  0
 27 32  1  0  0  0  0
 31 33  1  6  0  0  0
 30 34  1  1  0  0  0
 29 35  1  6  0  0  0
 28 26  1  1  0  0  0
 14 26  1  1  0  0  0
 17 36  1  6  0  0  0
 13 37  1  1  0  0  0
  2 38  1  6  0  0  0
  1 39  1  1  0  0  0
 40 41  1  0  0  0  0
 13 40  1  6  0  0  0
  1 42  1  6  0  0  0
 12 43  1  6  0  0  0
 22 44  1  1  0  0  0
 45 46  1  0  0  0  0
 46 47  1  0  0  0  0
 47 48  1  0  0  0  0
 48 49  1  0  0  0  0
 49 50  1  0  0  0  0
 45 50  1  0  0  0  0
 51 52  1  0  0  0  0
 50 51  1  6  0  0  0
 49 53  1  1  0  0  0
 48 54  1  6  0  0  0
 47 55  1  1  0  0  0
 46 25  1  6  0  0  0
  8 56  1  6  0  0  0
  9 57  1  1  0  0  0
M  END
>  <cdx:groupId>
216

>  <cdx:fragmentId>
42

$$$$
