301995.cdx
  Mrv1902 05222410252D          

 31 35  0  0  0  0            999 V2000
    7.3769   -4.8538    0.0000 C   0  0  0  0  0  0  0  0  0  0  0  0
    7.3769   -5.6788    0.0000 C   0  0  0  0  0  0  0  0  0  0  0  0
    8.0913   -6.0912    0.0000 C   0  0  0  0  0  0  0  0  0  0  0  0
    8.8058   -5.6788    0.0000 C   0  0  0  0  0  0  0  0  0  0  0  0
    8.8058   -4.8538    0.0000 C   0  0  0  0  0  0  0  0  0  0  0  0
    8.0913   -4.4412    0.0000 C   0  0  0  0  0  0  0  0  0  0  0  0
    9.5203   -6.0912    0.0000 C   0  0  0  0  0  0  0  0  0  0  0  0
   10.2348   -5.6788    0.0000 C   0  0  0  0  0  0  0  0  0  0  0  0
   10.2348   -4.8538    0.0000 C   0  0  0  0  0  0  0  0  0  0  0  0
    9.5203   -4.4412    0.0000 O   0  0  0  0  0  0  0  0  0  0  0  0
    8.0913   -6.9162    0.0000 C   0  0  0  0  0  0  0  0  0  0  0  0
    8.8058   -7.3287    0.0000 O   0  0  0  0  0  0  0  0  0  0  0  0
    9.5203   -6.9162    0.0000 C   0  0  0  0  0  0  0  0  0  0  0  0
   10.2348   -7.3287    0.0000 C   0  0  0  0  0  0  0  0  0  0  0  0
   10.9492   -6.9162    0.0000 C   0  0  0  0  0  0  0  0  0  0  0  0
   10.9492   -6.0912    0.0000 C   0  0  0  0  0  0  0  0  0  0  0  0
    8.0913   -3.6163    0.0000 O   0  0  0  0  0  0  0  0  0  0  0  0
    6.6624   -4.4412    0.0000 O   0  0  0  0  0  0  0  0  0  0  0  0
   10.2348   -8.1538    0.0000 O   0  0  0  0  0  0  0  0  0  0  0  0
   11.6637   -7.3287    0.0000 O   0  0  0  0  0  0  0  0  0  0  0  0
   10.9492   -4.4412    0.0000 O   0  0  0  0  0  0  0  0  0  0  0  0
    7.3769   -7.3287    0.0000 O   0  0  0  0  0  0  0  0  0  0  0  0
    5.9479   -4.8538    0.0000 C   0  0  0  0  0  0  0  0  0  0  0  0
    5.2335   -4.4413    0.0000 O   0  0  0  0  0  0  0  0  0  0  0  0
    4.5190   -4.8538    0.0000 C   0  0  0  0  0  0  0  0  0  0  0  0
    4.5190   -5.6788    0.0000 C   0  0  0  0  0  0  0  0  0  0  0  0
    5.2335   -6.0912    0.0000 C   0  0  0  0  0  0  0  0  0  0  0  0
    5.9479   -5.6788    0.0000 C   0  0  0  0  0  0  0  0  0  0  0  0
    3.8045   -6.0912    0.0000 O   0  0  0  0  0  0  0  0  0  0  0  0
    5.2335   -6.9162    0.0000 O   0  0  0  0  0  0  0  0  0  0  0  0
    6.6624   -6.0912    0.0000 O   0  0  0  0  0  0  0  0  0  0  0  0
  1  2  2  0  0  0  0
  2  3  1  0  0  0  0
  3  4  2  0  0  0  0
  4  5  1  0  0  0  0
  5  6  2  0  0  0  0
  6  1  1  0  0  0  0
  4  7  1  0  0  0  0
  7  8  1  0  0  0  0
  8  9  1  0  0  0  0
  9 10  1  0  0  0  0
 10  5  1  0  0  0  0
  3 11  1  0  0  0  0
 11 12  1  0  0  0  0
 12 13  1  0  0  0  0
 13  7  2  0  0  0  0
 13 14  1  0  0  0  0
 14 15  2  0  0  0  0
 15 16  1  0  0  0  0
 16  8  2  0  0  0  0
  6 17  1  0  0  0  0
  1 18  1  0  0  0  0
 14 19  1  0  0  0  0
 15 20  1  0  0  0  0
  9 21  2  0  0  0  0
 11 22  2  0  0  0  0
 18 23  1  0  0  0  0
 23 24  1  0  0  0  0
 24 25  1  0  0  0  0
 25 26  1  0  0  0  0
 26 27  1  0  0  0  0
 27 28  1  0  0  0  0
 28 23  1  0  0  0  0
 26 29  1  0  0  0  0
 27 30  1  0  0  0  0
 28 31  1  0  0  0  0
M  END
>  <cdx:fragmentId>
3241

$$$$
