301914.cdx
  Mrv1902 05222410202D          

 16 16  0  0  0  0            999 V2000
    9.1527   -4.0855    0.0000 C   0  0  0  0  0  0  0  0  0  0  0  0
    7.0986  -10.3032    0.0000 C   0  0  0  0  0  0  0  0  0  0  0  0
    7.7833   -8.2306    0.0000 C   0  0  0  0  0  0  0  0  0  0  0  0
    7.7952   -9.0555    0.0000 C   0  0  0  0  0  0  0  0  0  0  0  0
    7.0867   -9.4782    0.0000 C   0  0  0  0  0  0  0  0  0  0  0  0
    6.3664   -9.0761    0.0000 C   0  0  0  0  0  0  0  0  0  0  0  0
    6.3545   -8.2512    0.0000 C   0  0  0  0  0  0  0  0  0  0  0  0
    7.0630   -7.8284    0.0000 C   0  0  0  0  0  0  0  0  0  0  0  0
    7.7121   -3.2811    0.0000 O   0  0  0  0  0  0  0  0  0  0  0  0
    6.3308   -6.6013    0.0000 C   0  0  0  0  0  0  0  0  0  0  0  0
    7.0511   -7.0035    0.0000 C   0  0  0  0  0  0  0  0  0  0  0  0
    7.7596   -6.5808    0.0000 C   0  0  0  0  0  0  0  0  0  0  0  0
    7.7477   -5.7558    0.0000 C   0  0  0  0  0  0  0  0  0  0  0  0
    8.4562   -5.3331    0.0000 C   0  0  0  0  0  0  0  0  0  0  0  0
    8.4443   -4.5082    0.0000 C   0  0  0  0  0  0  0  0  0  0  0  0
    7.7240   -4.1060    0.0000 C   0  0  0  0  0  0  0  0  0  0  0  0
 15  1  1  0  0  0  0
 11  8  1  0  0  0  0
  5  2  1  0  0  0  0
  8  3  2  0  0  0  0
  4  3  1  0  0  0  0
  5  4  2  0  0  0  0
  6  5  1  0  0  0  0
  7  6  2  0  0  0  0
  8  7  1  0  0  0  0
 16  9  1  0  0  0  0
 11 10  1  0  0  0  0
 12 11  1  0  0  0  0
 13 12  1  0  0  0  0
 14 13  1  0  0  0  0
 15 14  2  0  0  0  0
 16 15  1  0  0  0  0
M  END
>  <cdx:fragmentId>
1846

$$$$
