301988.cdx
  Mrv1902 05222410222D          

 14 15  0  0  0  0            999 V2000
    8.3510   -5.9686    0.0000 N   0  0  0  0  0  0  0  0  0  0  0  0
    8.3510   -5.1436    0.0000 C   0  0  0  0  0  0  0  0  0  0  0  0
    9.0655   -4.7311    0.0000 C   0  0  0  0  0  0  0  0  0  0  0  0
    9.7800   -5.1436    0.0000 N   0  0  0  0  0  0  0  0  0  0  0  0
    9.7800   -5.9686    0.0000 C   0  0  0  0  0  0  0  0  0  0  0  0
    9.0655   -6.3811    0.0000 C   0  0  0  0  0  0  0  0  0  0  0  0
    7.6366   -6.3811    0.0000 C   0  0  0  0  0  0  0  0  0  0  0  0
    7.6366   -7.2061    0.0000 C   0  0  0  0  0  0  0  0  0  0  0  0
    6.9221   -7.6186    0.0000 C   0  0  0  0  0  0  0  0  0  0  0  0
    6.2076   -7.2061    0.0000 C   0  0  0  0  0  0  0  0  0  0  0  0
    6.2076   -6.3811    0.0000 C   0  0  0  0  0  0  0  0  0  0  0  0
    6.9221   -5.9686    0.0000 C   0  0  0  0  0  0  0  0  0  0  0  0
    5.4932   -7.6186    0.0000 O   0  0  0  0  0  0  0  0  0  0  0  0
    4.7787   -7.2061    0.0000 C   0  0  0  0  0  0  0  0  0  0  0  0
  1  2  1  0  0  0  0
  2  3  1  0  0  0  0
  3  4  1  0  0  0  0
  4  5  1  0  0  0  0
  5  6  1  0  0  0  0
  1  6  1  0  0  0  0
  7  8  1  0  0  0  0
  8  9  2  0  0  0  0
  9 10  1  0  0  0  0
 10 11  2  0  0  0  0
 11 12  1  0  0  0  0
  7 12  2  0  0  0  0
 13 14  1  0  0  0  0
 10 13  1  0  0  0  0
  1  7  1  0  0  0  0
M  END
>  <cdx:groupId>
3162

>  <cdx:fragmentId>
3134

$$$$
