301916.cdx
  Mrv1902 05222410192D          

 43 46  0  0  0  0            999 V2000
    9.5937   -4.2906    0.0000 C   0  0  0  0  0  0  0  0  0  0  0  0
    9.5866   -3.4657    0.0000 C   0  0  0  0  0  0  0  0  0  0  0  0
    8.8685   -3.0594    0.0000 C   0  0  0  0  0  0  0  0  0  0  0  0
   10.3118   -4.6969    0.0000 O   0  0  0  0  0  0  0  0  0  0  0  0
    8.8829   -4.7093    0.0000 N   0  0  0  0  0  0  0  0  0  0  0  0
   10.2974   -3.0470    0.0000 N   0  0  0  0  0  0  0  0  0  0  0  0
   10.2903   -2.2220    0.0000 C   0  0  0  0  0  0  0  0  0  0  0  0
    8.1792   -5.9530    0.0000 C   0  0  0  0  0  0  0  0  0  0  0  0
    8.8900   -5.5343    0.0000 C   0  0  0  0  0  0  0  0  0  0  0  0
    9.6081   -5.9406    0.0000 C   0  0  0  0  0  0  0  0  0  0  0  0
   10.3189   -5.5219    0.0000 C   0  0  0  0  0  0  0  0  0  0  0  0
    7.4612   -5.5467    0.0000 O   0  0  0  0  0  0  0  0  0  0  0  0
    9.6152   -6.7655    0.0000 C   0  0  0  0  0  0  0  0  0  0  0  0
    7.7849   -8.0510    0.0000 C   0  0  0  0  0  0  0  0  0  0  0  0
    8.6099   -8.0439    0.0000 C   0  0  0  0  0  0  0  0  0  0  0  0
    8.8580   -7.2570    0.0000 C   0  0  0  0  0  0  0  0  0  0  0  0
    8.1863   -6.7779    0.0000 N   0  0  0  0  0  0  0  0  0  0  0  0
    7.5231   -7.2686    0.0000 C   0  0  0  0  0  0  0  0  0  0  0  0
    6.8054   -6.8619    0.0000 C   0  0  0  0  0  0  0  0  0  0  0  0
    6.7988   -6.0369    0.0000 N   0  0  0  0  0  0  0  0  0  0  0  0
    7.5199   -6.4494    0.0000 O   0  0  0  0  0  0  0  0  0  0  0  0
    7.7550   -8.9925    0.0000 O   0  0  0  0  0  0  0  0  0  0  0  0
    7.0818   -9.7565    0.0000 C   0  0  0  0  0  0  0  0  0  0  0  0
    6.6743   -9.0391    0.0000 C   0  0  0  0  0  0  0  0  0  0  0  0
    5.8494   -9.0333    0.0000 C   0  0  0  0  0  0  0  0  0  0  0  0
    5.4319   -9.7449    0.0000 C   0  0  0  0  0  0  0  0  0  0  0  0
    5.8393  -10.4622    0.0000 C   0  0  0  0  0  0  0  0  0  0  0  0
    6.6643  -10.4680    0.0000 C   0  0  0  0  0  0  0  0  0  0  0  0
    4.6069   -9.7391    0.0000 O   0  0  0  0  0  0  0  0  0  0  0  0
    4.1994   -9.0217    0.0000 C   0  0  0  0  0  0  0  0  0  0  0  0
    6.0811   -5.6301    0.0000 C   0  0  0  0  0  0  0  0  0  0  0  0
    6.0745   -4.8051    0.0000 C   0  0  0  0  0  0  0  0  0  0  0  0
    6.7857   -4.3869    0.0000 C   0  0  0  0  0  0  0  0  0  0  0  0
    7.5066   -4.7880    0.0000 C   0  0  0  0  0  0  0  0  0  0  0  0
    8.2144   -4.3869    0.0000 C   0  0  0  0  0  0  0  0  0  0  0  0
    8.2144   -3.5620    0.0000 C   0  0  0  0  0  0  0  0  0  0  0  0
    7.5066   -3.1610    0.0000 C   0  0  0  0  0  0  0  0  0  0  0  0
    6.7857   -3.5620    0.0000 C   0  0  0  0  0  0  0  0  0  0  0  0
    5.3699   -6.0483    0.0000 C   0  0  0  0  0  0  0  0  0  0  0  0
    4.6522   -5.6415    0.0000 O   0  0  0  0  0  0  0  0  0  0  0  0
    5.4020   -8.3020    0.0000 C   0  0  0  0  0  0  0  0  0  0  0  0
    5.8017   -7.5802    0.0000 C   0  0  0  0  0  0  0  0  0  0  0  0
    5.3765   -6.8732    0.0000 N   0  0  0  0  0  0  0  0  0  0  0  0
  1  2  1  0  0  0  0
  2  3  1  0  0  0  0
  1  4  2  0  0  0  0
  1  5  1  0  0  0  0
  6  7  1  0  0  0  0
  2  6  1  0  0  0  0
  8  9  1  0  0  0  0
  9 10  1  0  0  0  0
 10 11  1  0  0  0  0
  8 12  2  0  0  0  0
 10 13  1  0  0  0  0
 14 15  1  0  0  0  0
 15 16  1  0  0  0  0
 16 17  1  0  0  0  0
 17 18  1  0  0  0  0
 18 19  1  0  0  0  0
 19 20  1  0  0  0  0
 14 18  1  0  0  0  0
 19 21  2  0  0  0  0
  8 17  1  0  0  0  0
  5  9  1  0  0  0  0
 23 24  2  0  0  0  0
 24 25  1  0  0  0  0
 25 26  2  0  0  0  0
 26 27  1  0  0  0  0
 27 28  2  0  0  0  0
 28 23  1  0  0  0  0
 26 29  1  0  0  0  0
 29 30  1  0  0  0  0
 20 31  1  0  0  0  0
 31 32  1  0  0  0  0
 32 33  1  0  0  0  0
 33 34  2  0  0  0  0
 34 35  1  0  0  0  0
 35 36  2  0  0  0  0
 36 37  1  0  0  0  0
 37 38  2  0  0  0  0
 38 33  1  0  0  0  0
 31 39  1  0  0  0  0
 39 40  2  0  0  0  0
 39 43  1  0  0  0  0
 42 41  2  0  0  0  0
 43 42  1  0  0  0  0
 25 41  1  0  0  0  0
 23 22  1  0  0  0  0
 14 22  1  0  0  0  0
M  END
>  <cdx:fragmentId>
2029

$$$$
