301959.cdx
  Mrv1902 05222410212D          

 24 26  0  0  0  0            999 V2000
    8.1471   -7.0520    0.0000 C   0  0  0  0  0  0  0  0  0  0  0  0
    8.1547   -7.8770    0.0000 C   0  0  0  0  0  0  0  0  0  0  0  0
    8.8730   -8.2829    0.0000 C   0  0  0  0  0  0  0  0  0  0  0  0
    9.5836   -7.8637    0.0000 C   0  0  0  0  0  0  0  0  0  0  0  0
    9.5760   -7.0388    0.0000 C   0  0  0  0  0  0  0  0  0  0  0  0
    8.8577   -6.6329    0.0000 C   0  0  0  0  0  0  0  0  0  0  0  0
    8.8807   -9.1078    0.0000 O   0  0  0  0  0  0  0  0  0  0  0  0
    9.5990   -9.5137    0.0000 C   0  0  0  0  0  0  0  0  0  0  0  0
   10.3019   -8.2696    0.0000 O   0  0  0  0  0  0  0  0  0  0  0  0
    7.4288   -6.6462    0.0000 C   0  0  0  0  0  0  0  0  0  0  0  0
    3.8375   -4.6170    0.0000 C   0  0  0  0  0  0  0  0  0  0  0  0
    4.5481   -4.1978    0.0000 O   0  0  0  0  0  0  0  0  0  0  0  0
    8.8500   -5.8080    0.0000 C   0  0  0  0  0  0  0  0  0  0  0  0
    4.5634   -5.8478    0.0000 O   0  0  0  0  0  0  0  0  0  0  0  0
    6.7029   -5.4154    0.0000 C   0  0  0  0  0  0  0  0  0  0  0  0
    5.9923   -5.8345    0.0000 C   0  0  0  0  0  0  0  0  0  0  0  0
    5.2740   -5.4287    0.0000 C   0  0  0  0  0  0  0  0  0  0  0  0
    5.2663   -4.6037    0.0000 C   0  0  0  0  0  0  0  0  0  0  0  0
    5.9769   -4.1846    0.0000 C   0  0  0  0  0  0  0  0  0  0  0  0
    6.6952   -4.5904    0.0000 C   0  0  0  0  0  0  0  0  0  0  0  0
    7.4058   -4.1713    0.0000 C   0  0  0  0  0  0  0  0  0  0  0  0
    8.1241   -4.5771    0.0000 C   0  0  0  0  0  0  0  0  0  0  0  0
    8.1318   -5.4021    0.0000 N   0  0  0  0  0  0  0  0  0  0  0  0
    7.4212   -5.8212    0.0000 C   0  0  0  0  0  0  0  0  0  0  0  0
 24 10  1  0  0  0  0
 10  1  1  0  0  0  0
 18 12  1  0  0  0  0
 12 11  1  0  0  0  0
 23 13  1  0  0  0  0
 17 14  1  0  0  0  0
 20 15  2  0  0  0  0
 24 15  1  0  0  0  0
 16 15  1  0  0  0  0
 17 16  2  0  0  0  0
 18 17  1  0  0  0  0
 19 18  2  0  0  0  0
 20 19  1  0  0  0  0
 21 20  1  0  0  0  0
 22 21  1  0  0  0  0
 23 22  1  0  0  0  0
 24 23  1  0  0  0  0
  1  2  1  0  0  0  0
  2  3  2  0  0  0  0
  3  4  1  0  0  0  0
  4  5  2  0  0  0  0
  5  6  1  0  0  0  0
  1  6  2  0  0  0  0
  7  8  1  0  0  0  0
  3  7  1  0  0  0  0
  4  9  1  0  0  0  0
M  END
>  <cdx:fragmentId>
1130

$$$$
