301929.cdx
  Mrv1902 05222410202D          

 36 35  0  0  0  0            999 V2000
   11.4395   -5.7544    0.0000 C   0  0  0  0  0  0  0  0  0  0  0  0
   11.4395   -6.5794    0.0000 C   0  0  1  0  0  0  0  0  0  0  0  0
   10.7250   -6.9919    0.0000 C   0  0  1  0  0  0  0  0  0  0  0  0
   10.0105   -6.5794    0.0000 C   0  0  0  0  0  0  0  0  0  0  0  0
    9.2961   -6.9919    0.0000 C   0  0  0  0  0  0  0  0  0  0  0  0
    8.5816   -6.5794    0.0000 C   0  0  0  0  0  0  0  0  0  0  0  0
    7.8671   -6.9919    0.0000 C   0  0  0  0  0  0  0  0  0  0  0  0
    7.1526   -6.5794    0.0000 C   0  0  0  0  0  0  0  0  0  0  0  0
    6.4382   -6.9919    0.0000 C   0  0  0  0  0  0  0  0  0  0  0  0
    5.7237   -6.5794    0.0000 C   0  0  0  0  0  0  0  0  0  0  0  0
    5.0092   -6.9919    0.0000 C   0  0  0  0  0  0  0  0  0  0  0  0
    4.2948   -6.5794    0.0000 C   0  0  0  0  0  0  0  0  0  0  0  0
    3.5803   -6.9919    0.0000 C   0  0  0  0  0  0  0  0  0  0  0  0
    2.8658   -6.5794    0.0000 C   0  0  0  0  0  0  0  0  0  0  0  0
    2.1513   -6.9919    0.0000 C   0  0  0  0  0  0  0  0  0  0  0  0
    1.4369   -6.5794    0.0000 C   0  0  0  0  0  0  0  0  0  0  0  0
    0.7224   -6.9919    0.0000 C   0  0  0  0  0  0  0  0  0  0  0  0
    0.0079   -6.5794    0.0000 C   0  0  0  0  0  0  0  0  0  0  0  0
   10.7250   -5.3419    0.0000 O   0  0  0  0  0  0  0  0  0  0  0  0
   12.1539   -5.3419    0.0000 O   0  0  0  0  0  0  0  0  0  0  0  0
   12.1539   -6.9919    0.0000 C   0  0  0  0  0  0  0  0  0  0  0  0
   12.8684   -6.5794    0.0000 C   0  0  0  0  0  0  0  0  0  0  0  0
   13.5829   -6.9919    0.0000 C   0  0  0  0  0  0  0  0  0  0  0  0
   14.2974   -6.5794    0.0000 C   0  0  0  0  0  0  0  0  0  0  0  0
   15.0118   -6.9919    0.0000 C   0  0  0  0  0  0  0  0  0  0  0  0
   15.7263   -6.5794    0.0000 C   0  0  0  0  0  0  0  0  0  0  0  0
   16.4408   -6.9919    0.0000 C   0  0  0  0  0  0  0  0  0  0  0  0
   17.1552   -6.5794    0.0000 C   0  0  0  0  0  0  0  0  0  0  0  0
   17.8697   -6.9919    0.0000 C   0  0  0  0  0  0  0  0  0  0  0  0
   18.5842   -6.5794    0.0000 C   0  0  0  0  0  0  0  0  0  0  0  0
   19.2987   -6.9919    0.0000 C   0  0  0  0  0  0  0  0  0  0  0  0
   20.0131   -6.5794    0.0000 C   0  0  0  0  0  0  0  0  0  0  0  0
   20.7276   -6.9919    0.0000 C   0  0  0  0  0  0  0  0  0  0  0  0
   21.4421   -6.5794    0.0000 C   0  0  0  0  0  0  0  0  0  0  0  0
   10.7250   -7.8169    0.0000 O   0  0  0  0  0  0  0  0  0  0  0  0
   12.1539   -4.5169    0.0000 C   0  0  0  0  0  0  0  0  0  0  0  0
  2  1  1  6  0  0  0
  2  3  1  0  0  0  0
  3  4  1  0  0  0  0
  4  5  1  0  0  0  0
  5  6  1  0  0  0  0
  6  7  1  0  0  0  0
  7  8  1  0  0  0  0
  8  9  1  0  0  0  0
  9 10  1  0  0  0  0
 10 11  1  0  0  0  0
 11 12  1  0  0  0  0
 12 13  1  0  0  0  0
 13 14  1  0  0  0  0
 14 15  1  0  0  0  0
 15 16  1  0  0  0  0
 16 17  1  0  0  0  0
 17 18  1  0  0  0  0
  1 19  2  0  0  0  0
  1 20  1  0  0  0  0
 21 22  1  0  0  0  0
 22 23  1  0  0  0  0
 23 24  1  0  0  0  0
 24 25  1  0  0  0  0
 25 26  1  0  0  0  0
 26 27  1  0  0  0  0
 27 28  1  0  0  0  0
 28 29  1  0  0  0  0
 29 30  1  0  0  0  0
 30 31  1  0  0  0  0
 31 32  1  0  0  0  0
 32 33  1  0  0  0  0
 33 34  1  0  0  0  0
  2 21  1  0  0  0  0
  3 35  1  6  0  0  0
 20 36  1  0  0  0  0
M  END
>  <cdx:groupId>
109

>  <cdx:fragmentId>
3

$$$$
