301965.cdx
  Mrv1902 05222410212D          

 19 19  0  0  0  0            999 V2000
    6.7140   -5.8649    0.0000 C   0  0  0  0  0  0  0  0  0  0  0  0
    5.9995   -6.2774    0.0000 C   0  0  0  0  0  0  0  0  0  0  0  0
    6.7140   -5.0399    0.0000 O   0  0  0  0  0  0  0  0  0  0  0  0
    7.4284   -6.2774    0.0000 O   0  0  0  0  0  0  0  0  0  0  0  0
    5.9995   -7.1024    0.0000 O   0  0  0  0  0  0  0  0  0  0  0  0
    5.2850   -5.8649    0.0000 O   0  0  0  0  0  0  0  0  0  0  0  0
    4.5706   -6.2774    0.0000 C   0  0  0  0  0  0  0  0  0  0  0  0
    4.5706   -7.1024    0.0000 C   0  0  0  0  0  0  0  0  0  0  0  0
    3.8561   -7.5149    0.0000 C   0  0  0  0  0  0  0  0  0  0  0  0
    3.1416   -7.1024    0.0000 C   0  0  0  0  0  0  0  0  0  0  0  0
    3.1416   -6.2774    0.0000 C   0  0  0  0  0  0  0  0  0  0  0  0
    3.8561   -5.8649    0.0000 C   0  0  0  0  0  0  0  0  0  0  0  0
    5.2850   -7.5149    0.0000 C   0  0  0  0  0  0  0  0  0  0  0  0
    8.1429   -5.8649    0.0000 C   0  0  0  0  0  0  0  0  0  0  0  0
    8.8574   -6.2774    0.0000 C   0  0  0  0  0  0  0  0  0  0  0  0
    9.5719   -5.8649    0.0000 C   0  0  0  0  0  0  0  0  0  0  0  0
   10.2863   -6.2774    0.0000 C   0  0  0  0  0  0  0  0  0  0  0  0
   11.0008   -5.8649    0.0000 C   0  0  0  0  0  0  0  0  0  0  0  0
   11.7153   -6.2774    0.0000 C   0  0  0  0  0  0  0  0  0  0  0  0
  1  2  1  0  0  0  0
  1  3  2  0  0  0  0
  1  4  1  0  0  0  0
  2  5  2  0  0  0  0
  2  6  1  0  0  0  0
  7  8  1  0  0  0  0
  8  9  2  0  0  0  0
  9 10  1  0  0  0  0
 10 11  2  0  0  0  0
 11 12  1  0  0  0  0
  7 12  2  0  0  0  0
  8 13  1  0  0  0  0
  6  7  1  0  0  0  0
 14 15  1  0  0  0  0
 15 16  1  0  0  0  0
 16 17  1  0  0  0  0
 17 18  1  0  0  0  0
 18 19  1  0  0  0  0
  4 14  1  0  0  0  0
M  END
>  <cdx:groupId>
1482

>  <cdx:fragmentId>
1440

$$$$
