301964.cdx
  Mrv1902 05222410212D          

  9  8  0  0  0  0            999 V2000
    7.3477  -10.6849    0.0000 O   0  0  0  0  0  0  0  0  0  0  0  0
    8.0621  -11.0974    0.0000 C   0  0  0  0  0  0  0  0  0  0  0  0
    8.7766  -10.6849    0.0000 C   0  0  0  0  0  0  0  0  0  0  0  0
    9.4911  -11.0974    0.0000 C   0  0  0  0  0  0  0  0  0  0  0  0
   10.2055  -10.6849    0.0000 C   0  0  0  0  0  0  0  0  0  0  0  0
   10.9200  -11.0974    0.0000 O   0  0  0  0  0  0  0  0  0  0  0  0
   10.2055   -9.8599    0.0000 O   0  0  0  0  0  0  0  0  0  0  0  0
    9.4911  -11.9224    0.0000 O   0  0  0  0  0  0  0  0  0  0  0  0
    8.0621  -11.9224    0.0000 O   0  0  0  0  0  0  0  0  0  0  0  0
  1  2  1  0  0  0  0
  2  3  1  0  0  0  0
  3  4  1  0  0  0  0
  4  5  1  0  0  0  0
  5  6  1  0  0  0  0
  5  7  2  0  0  0  0
  4  8  2  0  0  0  0
  2  9  2  0  0  0  0
M  END
>  <cdx:fragmentId>
1561

$$$$
