30191.cdx
  Mrv1902 05222410222D          

  9  9  0  0  0  0            999 V2000
    5.7902  -10.1120    0.0000 C   0  0  0  0  0  0  0  0  0  0  0  0
    5.7902  -10.9370    0.0000 C   0  0  0  0  0  0  0  0  0  0  0  0
    6.5047  -11.3495    0.0000 C   0  0  0  0  0  0  0  0  0  0  0  0
    7.2192  -10.9370    0.0000 C   0  0  0  0  0  0  0  0  0  0  0  0
    7.2192  -10.1120    0.0000 C   0  0  0  0  0  0  0  0  0  0  0  0
    6.5047   -9.6995    0.0000 C   0  0  0  0  0  0  0  0  0  0  0  0
    5.0758  -11.3495    0.0000 C   0  0  0  0  0  0  0  0  0  0  0  0
    6.0922   -8.9851    0.0000 C   0  0  0  0  0  0  0  0  0  0  0  0
    6.9172   -8.9851    0.0000 C   0  0  0  0  0  0  0  0  0  0  0  0
  1  2  1  0  0  0  0
  2  3  1  0  0  0  0
  3  4  1  0  0  0  0
  4  5  1  0  0  0  0
  5  6  1  0  0  0  0
  6  1  1  0  0  0  0
  2  7  1  0  0  0  0
  6  8  1  0  0  0  0
  6  9  1  0  0  0  0
M  END
>  <cdx:fragmentId>
5

$$$$
