3019.cdx
  Mrv1902 05222410212D          

 51 53  0  0  0  0            999 V2000
    4.9972   -8.1294    0.0000 O   0  0  0  0  0  0  0  0  0  0  0  0
    4.9991   -8.9544    0.0000 C   0  0  0  0  0  0  0  0  0  0  0  0
    4.2856   -9.3685    0.0000 C   0  0  0  0  0  0  0  0  0  0  0  0
    3.5702   -8.9577    0.0000 C   0  0  0  0  0  0  0  0  0  0  0  0
    1.4296  -10.2000    0.0000 C   0  0  0  0  0  0  0  0  0  0  0  0
    2.1450  -10.6109    0.0000 C   0  0  0  0  0  0  0  0  0  0  0  0
    2.8585  -10.1968    0.0000 C   0  0  0  0  0  0  0  0  0  0  0  0
    2.8566   -9.3718    0.0000 C   0  0  0  0  0  0  0  0  0  0  0  0
    2.1412   -8.9609    0.0000 C   0  0  0  0  0  0  0  0  0  0  0  0
    1.4277   -9.3750    0.0000 C   0  0  0  0  0  0  0  0  0  0  0  0
    0.7160  -10.6141    0.0000 O   0  0  0  0  0  0  0  0  0  0  0  0
    0.7123   -8.9641    0.0000 O   0  0  0  0  0  0  0  0  0  0  0  0
    7.1413   -7.6724    0.0000 C   0  0  2  0  0  0  0  0  0  0  0  0
    7.5555   -6.9589    0.0000 C   0  0  0  0  0  0  0  0  0  0  0  0
    6.7305   -6.9570    0.0000 O   0  0  0  0  0  0  0  0  0  0  0  0
    7.1446   -6.2435    0.0000 O   0  0  0  0  0  0  0  0  0  0  0  0
    8.3805   -6.9608    0.0000 O   0  0  0  0  0  0  0  0  0  0  0  0
    8.5665   -9.3257    0.0000 O   0  0  0  0  0  0  0  0  0  0  0  0
    7.1357  -10.1474    0.0000 O   0  0  0  0  0  0  0  0  0  0  0  0
    5.7086   -9.3192    0.0000 O   0  0  0  0  0  0  0  0  0  0  0  0
    6.4240   -8.9083    0.0000 C   0  0  1  0  0  0  0  0  0  0  0  0
    7.1376   -9.3224    0.0000 C   0  0  1  0  0  0  0  0  0  0  0  0
    7.8530   -8.9116    0.0000 C   0  0  1  0  0  0  0  0  0  0  0  0
    7.8549   -8.0866    0.0000 C   0  0  0  0  0  0  0  0  0  0  0  0
    6.4259   -8.0833    0.0000 C   0  0  0  0  0  0  0  0  0  0  0  0
    8.5346  -10.1416    0.0000 O   0  0  0  0  0  0  0  0  0  0  0  0
    7.7951  -13.0228    0.0000 O   0  0  0  0  0  0  0  0  0  0  0  0
    9.2239  -13.0352    0.0000 O   0  0  0  0  0  0  0  0  0  0  0  0
    8.5131  -12.6165    0.0000 C   0  0  0  0  0  0  0  0  0  0  0  0
    8.5202  -11.7915    0.0000 C   0  0  0  0  0  0  0  0  0  0  0  0
    7.8094  -11.3728    0.0000 C   0  0  0  0  0  0  0  0  0  0  0  0
    7.8166  -10.5479    0.0000 C   0  0  0  0  0  0  0  0  0  0  0  0
    5.5211   -7.6528    0.0000 O   0  0  0  0  0  0  0  0  0  0  0  0
    4.7707   -4.7744    0.0000 O   0  0  0  0  0  0  0  0  0  0  0  0
    3.5150   -5.4564    0.0000 O   0  0  0  0  0  0  0  0  0  0  0  0
    4.3397   -5.4779    0.0000 C   0  0  0  0  0  0  0  0  0  0  0  0
    4.7335   -6.2028    0.0000 C   0  0  0  0  0  0  0  0  0  0  0  0
    5.5582   -6.2243    0.0000 C   0  0  0  0  0  0  0  0  0  0  0  0
    5.9520   -6.9493    0.0000 C   0  0  0  0  0  0  0  0  0  0  0  0
    9.2714   -8.1315    0.0000 O   0  0  0  0  0  0  0  0  0  0  0  0
    9.2696   -8.9565    0.0000 C   0  0  0  0  0  0  0  0  0  0  0  0
    9.9831   -9.3706    0.0000 C   0  0  0  0  0  0  0  0  0  0  0  0
   10.6985   -8.9597    0.0000 C   0  0  0  0  0  0  0  0  0  0  0  0
   12.8391  -10.2021    0.0000 C   0  0  0  0  0  0  0  0  0  0  0  0
   12.1237  -10.6130    0.0000 C   0  0  0  0  0  0  0  0  0  0  0  0
   11.4102  -10.1988    0.0000 C   0  0  0  0  0  0  0  0  0  0  0  0
   11.4121   -9.3738    0.0000 C   0  0  0  0  0  0  0  0  0  0  0  0
   12.1275   -8.9630    0.0000 C   0  0  0  0  0  0  0  0  0  0  0  0
   12.8410   -9.3771    0.0000 C   0  0  0  0  0  0  0  0  0  0  0  0
   13.5527  -10.6162    0.0000 O   0  0  0  0  0  0  0  0  0  0  0  0
   13.5564   -8.9662    0.0000 O   0  0  0  0  0  0  0  0  0  0  0  0
  2 20  1  0  0  0  0
  2  1  2  0  0  0  0
  3  2  1  0  0  0  0
  4  3  2  0  0  0  0
  8  4  1  0  0  0  0
  5  6  2  0  0  0  0
  6  7  1  0  0  0  0
  7  8  2  0  0  0  0
  8  9  1  0  0  0  0
  9 10  2  0  0  0  0
 10  5  1  0  0  0  0
  5 11  1  0  0  0  0
 10 12  1  0  0  0  0
 13 14  1  0  0  0  0
 13 15  1  1  0  0  0
 14 16  1  0  0  0  0
 14 17  2  0  0  0  0
 23 18  1  1  0  0  0
 22 19  1  1  0  0  0
 21 20  1  6  0  0  0
 21 25  1  0  0  0  0
 22 21  1  0  0  0  0
 23 22  1  0  0  0  0
 24 23  1  0  0  0  0
 13 24  1  0  0  0  0
 25 13  1  0  0  0  0
 32 26  2  0  0  0  0
 29 27  2  0  0  0  0
 28 29  1  0  0  0  0
 29 30  1  0  0  0  0
 30 31  1  0  0  0  0
 31 32  1  0  0  0  0
 32 19  1  0  0  0  0
 39 33  2  0  0  0  0
 36 34  2  0  0  0  0
 35 36  1  0  0  0  0
 36 37  1  0  0  0  0
 37 38  2  0  0  0  0
 38 39  1  0  0  0  0
 39 15  1  0  0  0  0
 41 40  2  0  0  0  0
 42 41  1  0  0  0  0
 43 42  2  0  0  0  0
 47 43  1  0  0  0  0
 44 45  2  0  0  0  0
 45 46  1  0  0  0  0
 46 47  2  0  0  0  0
 47 48  1  0  0  0  0
 48 49  2  0  0  0  0
 49 44  1  0  0  0  0
 44 50  1  0  0  0  0
 49 51  1  0  0  0  0
 41 18  1  0  0  0  0
M  END
>  <cdx:fragmentId>
5

$$$$
