301906.cdx
  Mrv1902 05222410182D          

 25 28  0  0  0  0            999 V2000
    6.7375   -6.3937    0.0000 C   0  0  0  0  0  0  0  0  0  0  0  0
    5.9125   -6.3937    0.0000 C   0  0  0  0  0  0  0  0  0  0  0  0
    5.5000   -5.6792    0.0000 C   0  0  0  0  0  0  0  0  0  0  0  0
    7.1500   -5.6792    0.0000 O   0  0  0  0  0  0  0  0  0  0  0  0
    7.1500   -7.1082    0.0000 O   0  0  0  0  0  0  0  0  0  0  0  0
    5.5000   -7.1082    0.0000 C   0  0  0  0  0  0  0  0  0  0  0  0
    5.9125   -7.8226    0.0000 C   0  0  0  0  0  0  0  0  0  0  0  0
    5.5000   -8.5371    0.0000 C   0  0  0  0  0  0  0  0  0  0  0  0
    4.6750   -8.5371    0.0000 C   0  0  0  0  0  0  0  0  0  0  0  0
    4.2625   -7.8226    0.0000 C   0  0  0  0  0  0  0  0  0  0  0  0
    4.6750   -7.1082    0.0000 C   0  0  0  0  0  0  0  0  0  0  0  0
    4.6750   -5.6792    0.0000 O   0  0  0  0  0  0  0  0  0  0  0  0
    9.1373   -8.0351    0.0000 C   0  0  2  0  0  0  0  0  0  0  0  0
    9.7823   -7.5207    0.0000 C   0  0  1  0  0  0  0  0  0  0  0  0
   10.4967   -7.1082    0.0000 O   0  0  0  0  0  0  0  0  0  0  0  0
    9.7823   -6.6957    0.0000 C   0  0  1  0  0  0  0  0  0  0  0  0
    9.1373   -6.1813    0.0000 C   0  0  1  0  0  0  0  0  0  0  0  0
    8.3329   -6.3649    0.0000 C   0  0  0  0  0  0  0  0  0  0  0  0
    7.9750   -7.1082    0.0000 C   0  0  0  0  0  0  0  0  0  0  0  0
    8.3329   -7.8515    0.0000 C   0  0  0  0  0  0  0  0  0  0  0  0
    8.6026   -7.1072    0.0000 N   0  0  0  0  0  0  0  0  0  0  0  0
    9.3208   -8.8394    0.0000 H   0  0  0  0  0  0  0  0  0  0  0  0
   10.1948   -8.2351    0.0000 H   0  0  0  0  0  0  0  0  0  0  0  0
   10.1948   -5.9812    0.0000 H   0  0  0  0  0  0  0  0  0  0  0  0
    9.3208   -5.3770    0.0000 H   0  0  0  0  0  0  0  0  0  0  0  0
  1  2  1  0  0  0  0
  2  3  1  0  0  0  0
  1  4  2  0  0  0  0
  1  5  1  0  0  0  0
  6  7  1  0  0  0  0
  7  8  2  0  0  0  0
  8  9  1  0  0  0  0
  9 10  2  0  0  0  0
 10 11  1  0  0  0  0
  6 11  2  0  0  0  0
  2  6  1  0  0  0  0
  3 12  1  0  0  0  0
 13 14  1  0  0  0  0
 14 15  1  0  0  0  0
 15 16  1  0  0  0  0
 16 17  1  0  0  0  0
 17 18  1  0  0  0  0
 18 19  1  0  0  0  0
 19 20  1  0  0  0  0
 13 20  1  0  0  0  0
 13 21  1  0  0  0  0
 17 21  1  0  0  0  0
 14 16  1  0  0  0  0
  5 19  1  0  0  0  0
 13 22  1  1  0  0  0
 14 23  1  1  0  0  0
 16 24  1  1  0  0  0
 17 25  1  1  0  0  0
M  END
>  <cdx:fragmentId>
729

$$$$
