301960.cdx
  Mrv1902 05222410222D          

 21 23  0  0  0  0            999 V2000
   10.6405   -6.0355    0.0000 O   0  0  0  0  0  0  0  0  0  0  0  0
   10.6364   -7.6855    0.0000 O   0  0  0  0  0  0  0  0  0  0  0  0
    8.4940   -7.2676    0.0000 C   0  0  0  0  0  0  0  0  0  0  0  0
    9.2074   -7.6819    0.0000 C   0  0  0  0  0  0  0  0  0  0  0  0
    9.9229   -7.2712    0.0000 C   0  0  0  0  0  0  0  0  0  0  0  0
    9.9250   -6.4462    0.0000 C   0  0  0  0  0  0  0  0  0  0  0  0
    9.2115   -6.0319    0.0000 C   0  0  0  0  0  0  0  0  0  0  0  0
    8.4960   -6.4426    0.0000 C   0  0  0  0  0  0  0  0  0  0  0  0
    5.6361   -7.2605    0.0000 O   0  0  0  0  0  0  0  0  0  0  0  0
    4.2134   -4.7819    0.0000 O   0  0  0  0  0  0  0  0  0  0  0  0
    7.0651   -7.2641    0.0000 O   0  0  0  0  0  0  0  0  0  0  0  0
    7.0712   -4.7891    0.0000 O   0  0  0  0  0  0  0  0  0  0  0  0
    6.3557   -5.1998    0.0000 C   0  0  0  0  0  0  0  0  0  0  0  0
    5.6423   -4.7855    0.0000 C   0  0  0  0  0  0  0  0  0  0  0  0
    4.9268   -5.1962    0.0000 C   0  0  0  0  0  0  0  0  0  0  0  0
    4.9247   -6.0212    0.0000 C   0  0  0  0  0  0  0  0  0  0  0  0
    5.6382   -6.4355    0.0000 C   0  0  0  0  0  0  0  0  0  0  0  0
    6.3537   -6.0248    0.0000 C   0  0  0  0  0  0  0  0  0  0  0  0
    7.0671   -6.4391    0.0000 C   0  0  0  0  0  0  0  0  0  0  0  0
    7.7826   -6.0284    0.0000 C   0  0  0  0  0  0  0  0  0  0  0  0
    7.7847   -5.2034    0.0000 C   0  0  0  0  0  0  0  0  0  0  0  0
 20  8  1  0  0  0  0
  6  1  1  0  0  0  0
  5  2  1  0  0  0  0
  8  3  2  0  0  0  0
  4  3  1  0  0  0  0
  5  4  2  0  0  0  0
  6  5  1  0  0  0  0
  7  6  2  0  0  0  0
  8  7  1  0  0  0  0
 17  9  1  0  0  0  0
 15 10  1  0  0  0  0
 19 11  2  0  0  0  0
 21 12  1  0  0  0  0
 13 12  1  0  0  0  0
 18 13  2  0  0  0  0
 14 13  1  0  0  0  0
 15 14  2  0  0  0  0
 16 15  1  0  0  0  0
 17 16  2  0  0  0  0
 18 17  1  0  0  0  0
 19 18  1  0  0  0  0
 20 19  1  0  0  0  0
 21 20  2  0  0  0  0
M  END
>  <cdx:groupId>
1273

>  <cdx:fragmentId>
1211

$$$$
