301992.cdx
  Mrv1902 05222410242D          

 11 11  0  0  0  0            999 V2000
    6.3557   -5.9960    0.0000 N   0  0  0  0  0  0  0  0  0  0  0  0
    7.1093   -6.3316    0.0000 C   0  0  1  0  0  0  0  0  0  0  0  0
    7.0231   -7.1521    0.0000 C   0  0  0  0  0  0  0  0  0  0  0  0
    6.2161   -7.3236    0.0000 C   0  0  0  0  0  0  0  0  0  0  0  0
    5.8036   -6.6091    0.0000 C   0  0  0  0  0  0  0  0  0  0  0  0
    7.8238   -5.9191    0.0000 C   0  0  0  0  0  0  0  0  0  0  0  0
    7.8238   -5.0941    0.0000 O   0  0  0  0  0  0  0  0  0  0  0  0
    8.5383   -6.3316    0.0000 O   0  0  0  0  0  0  0  0  0  0  0  0
    4.9832   -6.5229    0.0000 O   0  0  0  0  0  0  0  0  0  0  0  0
    9.2528   -5.9191    0.0000 C   0  0  0  0  0  0  0  0  0  0  0  0
    9.9672   -6.3316    0.0000 C   0  0  0  0  0  0  0  0  0  0  0  0
  1  2  1  0  0  0  0
  2  3  1  0  0  0  0
  3  4  1  0  0  0  0
  4  5  1  0  0  0  0
  1  5  1  0  0  0  0
  6  7  2  0  0  0  0
  6  8  1  0  0  0  0
  2  6  1  6  0  0  0
  5  9  2  0  0  0  0
 10 11  1  0  0  0  0
  8 10  1  0  0  0  0
M  END
>  <cdx:groupId>
3130

>  <cdx:fragmentId>
3100

$$$$
