301982.cdx
  Mrv1902 05222410242D          

 60 66  0  0  0  0            999 V2000
   11.7118   -4.7649    0.0000 C   0  0  0  0  0  0  0  0  0  0  0  0
   12.4263   -4.3524    0.0000 C   0  0  1  0  0  0  0  0  0  0  0  0
   13.1408   -4.7649    0.0000 C   0  0  0  0  0  0  0  0  0  0  0  0
   13.1408   -5.5899    0.0000 C   0  0  0  0  0  0  0  0  0  0  0  0
   12.4263   -6.0024    0.0000 C   0  0  0  0  0  0  0  0  0  0  0  0
   12.4263   -6.8274    0.0000 C   0  0  0  0  0  0  0  0  0  0  0  0
   11.7118   -7.2399    0.0000 C   0  0  0  0  0  0  0  0  0  0  0  0
   10.9974   -6.8274    0.0000 C   0  0  1  0  0  0  0  0  0  0  0  0
   10.2829   -7.2399    0.0000 C   0  0  2  0  0  0  0  0  0  0  0  0
   10.2829   -8.0649    0.0000 C   0  0  0  0  0  0  0  0  0  0  0  0
    9.5684   -8.4774    0.0000 C   0  0  0  0  0  0  0  0  0  0  0  0
    8.8539   -8.0649    0.0000 C   0  0  1  0  0  0  0  0  0  0  0  0
    8.1395   -8.4774    0.0000 C   0  0  2  0  0  0  0  0  0  0  0  0
    7.4250   -8.0649    0.0000 C   0  0  2  0  0  0  0  0  0  0  0  0
    7.4250   -7.2399    0.0000 C   0  0  2  0  0  0  0  0  0  0  0  0
    8.1395   -6.8274    0.0000 C   0  0  0  0  0  0  0  0  0  0  0  0
    8.8539   -7.2399    0.0000 C   0  0  2  0  0  0  0  0  0  0  0  0
    9.5684   -6.8274    0.0000 C   0  0  1  0  0  0  0  0  0  0  0  0
    9.5684   -6.0024    0.0000 C   0  0  0  0  0  0  0  0  0  0  0  0
   10.2829   -5.5899    0.0000 C   0  0  0  0  0  0  0  0  0  0  0  0
   10.9974   -6.0024    0.0000 C   0  0  0  0  0  0  0  0  0  0  0  0
   11.7118   -5.5899    0.0000 C   0  0  0  0  0  0  0  0  0  0  0  0
   13.1408   -6.4149    0.0000 C   0  0  0  0  0  0  0  0  0  0  0  0
   13.1408   -7.2399    0.0000 O   0  0  0  0  0  0  0  0  0  0  0  0
   13.8552   -6.0024    0.0000 O   0  0  0  0  0  0  0  0  0  0  0  0
    8.8539   -6.4149    0.0000 C   0  0  0  0  0  0  0  0  0  0  0  0
    7.7270   -9.1919    0.0000 C   0  0  0  0  0  0  0  0  0  0  0  0
   10.9974   -7.6524    0.0000 C   0  0  0  0  0  0  0  0  0  0  0  0
   13.1408   -3.9399    0.0000 C   0  0  0  0  0  0  0  0  0  0  0  0
   12.4263   -3.5274    0.0000 C   0  0  0  0  0  0  0  0  0  0  0  0
   11.7118   -3.1149    0.0000 O   0  0  0  0  0  0  0  0  0  0  0  0
   13.1408   -3.1149    0.0000 O   0  0  0  0  0  0  0  0  0  0  0  0
   13.1408   -2.2899    0.0000 C   0  0  0  0  0  0  0  0  0  0  0  0
    8.5520   -9.1919    0.0000 C   0  0  0  0  0  0  0  0  0  0  0  0
    8.1395   -9.9063    0.0000 O   0  0  0  0  0  0  0  0  0  0  0  0
    6.7105   -6.8274    0.0000 O   0  0  0  0  0  0  0  0  0  0  0  0
    6.7105   -8.4774    0.0000 O   0  0  0  0  0  0  0  0  0  0  0  0
    5.9961   -7.2399    0.0000 O   0  0  0  0  0  0  0  0  0  0  0  0
    5.9961   -8.0649    0.0000 C   0  0  2  0  0  0  0  0  0  0  0  0
    5.2816   -8.4774    0.0000 C   0  0  1  0  0  0  0  0  0  0  0  0
    4.5671   -8.0649    0.0000 C   0  0  2  0  0  0  0  0  0  0  0  0
    4.5671   -7.2399    0.0000 C   0  0  1  0  0  0  0  0  0  0  0  0
    5.2816   -6.8274    0.0000 C   0  0  0  0  0  0  0  0  0  0  0  0
    3.8526   -6.8274    0.0000 O   0  0  0  0  0  0  0  0  0  0  0  0
    3.1382   -8.0649    0.0000 O   0  0  0  0  0  0  0  0  0  0  0  0
    3.1382   -7.2399    0.0000 C   0  0  2  0  0  0  0  0  0  0  0  0
    2.4237   -6.8274    0.0000 C   0  0  1  0  0  0  0  0  0  0  0  0
    1.7092   -7.2399    0.0000 C   0  0  2  0  0  0  0  0  0  0  0  0
    1.7092   -8.0649    0.0000 C   0  0  1  0  0  0  0  0  0  0  0  0
    2.4237   -8.4774    0.0000 C   0  0  1  0  0  0  0  0  0  0  0  0
    2.4237   -9.3024    0.0000 C   0  0  0  0  0  0  0  0  0  0  0  0
    1.7092   -9.7149    0.0000 O   0  0  0  0  0  0  0  0  0  0  0  0
    0.9948   -8.4774    0.0000 O   0  0  0  0  0  0  0  0  0  0  0  0
    0.9948   -6.8274    0.0000 O   0  0  0  0  0  0  0  0  0  0  0  0
    2.4237   -6.0024    0.0000 O   0  0  0  0  0  0  0  0  0  0  0  0
    3.8526   -8.4774    0.0000 O   0  0  0  0  0  0  0  0  0  0  0  0
    5.2816   -9.3024    0.0000 O   0  0  0  0  0  0  0  0  0  0  0  0
    8.8539   -8.8899    0.0000 H   0  0  0  0  0  0  0  0  0  0  0  0
   10.2829   -6.4149    0.0000 H   0  0  0  0  0  0  0  0  0  0  0  0
   10.8662   -7.8233    0.0000 C   0  0  0  0  0  0  0  0  0  0  0  0
  1  2  1  0  0  0  0
  2  3  1  0  0  0  0
  3  4  1  0  0  0  0
  4  5  1  0  0  0  0
  5  6  1  0  0  0  0
  6  7  1  0  0  0  0
  7  8  1  0  0  0  0
  8  9  1  0  0  0  0
  9 10  1  0  0  0  0
 10 11  1  0  0  0  0
 11 12  1  0  0  0  0
 12 13  1  0  0  0  0
 13 14  1  0  0  0  0
 14 15  1  0  0  0  0
 15 16  1  0  0  0  0
 16 17  1  0  0  0  0
 12 17  1  0  0  0  0
 17 18  1  0  0  0  0
  9 18  1  0  0  0  0
 18 19  1  0  0  0  0
 19 20  2  0  0  0  0
 20 21  1  0  0  0  0
  8 21  1  0  0  0  0
 21 22  2  0  0  0  0
  5 22  1  0  0  0  0
  1 22  1  0  0  0  0
 23 24  2  0  0  0  0
 23 25  1  0  0  0  0
  5 23  1  0  0  0  0
 17 26  1  1  0  0  0
 13 27  1  1  0  0  0
  8 28  1  6  0  0  0
  2 29  1  6  0  0  0
 30 31  2  0  0  0  0
 32 33  1  0  0  0  0
 30 32  1  0  0  0  0
  2 30  1  0  0  0  0
 34 35  1  0  0  0  0
 13 34  1  6  0  0  0
 15 36  1  1  0  0  0
 38 39  1  0  0  0  0
 39 40  1  0  0  0  0
 40 41  1  0  0  0  0
 41 42  1  0  0  0  0
 42 43  1  0  0  0  0
 38 43  1  0  0  0  0
 45 46  1  0  0  0  0
 46 47  1  0  0  0  0
 47 48  1  0  0  0  0
 48 49  1  0  0  0  0
 49 50  1  0  0  0  0
 45 50  1  0  0  0  0
 51 52  1  0  0  0  0
 50 51  1  6  0  0  0
 49 53  1  1  0  0  0
 48 54  1  6  0  0  0
 47 55  1  1  0  0  0
 46 44  1  6  0  0  0
 42 44  1  6  0  0  0
 41 56  1  1  0  0  0
 40 57  1  6  0  0  0
 39 37  1  1  0  0  0
 14 37  1  1  0  0  0
 12 58  1  6  0  0  0
 18 59  1  6  0  0  0
  9 60  1  1  0  0  0
M  END
>  <cdx:groupId>
2962

>  <cdx:fragmentId>
2782

$$$$
