301934.cdx
  Mrv1902 05222410282D          

 26 25  0  0  0  0            999 V2000
   10.7372   -6.4366    0.0000 C   0  0  0  0  0  0  0  0  0  0  0  0
   10.0227   -6.8491    0.0000 C   0  0  0  0  0  0  0  0  0  0  0  0
    9.3082   -6.4366    0.0000 C   0  0  0  0  0  0  0  0  0  0  0  0
    8.5938   -6.8491    0.0000 C   0  0  0  0  0  0  0  0  0  0  0  0
    7.8793   -6.4366    0.0000 C   0  0  0  0  0  0  0  0  0  0  0  0
    7.1648   -6.8491    0.0000 C   0  0  0  0  0  0  0  0  0  0  0  0
    6.4503   -6.4366    0.0000 C   0  0  0  0  0  0  0  0  0  0  0  0
    5.7359   -6.8491    0.0000 C   0  0  0  0  0  0  0  0  0  0  0  0
    5.0214   -6.4366    0.0000 C   0  0  0  0  0  0  0  0  0  0  0  0
    4.3069   -6.8491    0.0000 C   0  0  0  0  0  0  0  0  0  0  0  0
    3.5925   -6.4366    0.0000 C   0  0  0  0  0  0  0  0  0  0  0  0
    2.8780   -6.8491    0.0000 C   0  0  0  0  0  0  0  0  0  0  0  0
    2.1635   -6.4366    0.0000 C   0  0  0  0  0  0  0  0  0  0  0  0
    1.4490   -6.8491    0.0000 C   0  0  0  0  0  0  0  0  0  0  0  0
    0.7346   -6.4366    0.0000 C   0  0  0  0  0  0  0  0  0  0  0  0
    0.0201   -6.8491    0.0000 C   0  0  0  0  0  0  0  0  0  0  0  0
   10.7372   -5.6116    0.0000 O   0  0  0  0  0  0  0  0  0  0  0  0
   11.4516   -6.8491    0.0000 O   0  0  0  0  0  0  0  0  0  0  0  0
   12.1661   -6.4366    0.0000 C   0  0  0  0  0  0  0  0  0  0  0  0
   12.8806   -6.8491    0.0000 C   0  0  0  0  0  0  0  0  0  0  0  0
   13.5950   -6.4366    0.0000 C   0  0  0  0  0  0  0  0  0  0  0  0
   14.3095   -6.8491    0.0000 C   0  0  0  0  0  0  0  0  0  0  0  0
   15.0240   -6.4366    0.0000 C   0  0  0  0  0  0  0  0  0  0  0  0
   15.7385   -6.8491    0.0000 C   0  0  0  0  0  0  0  0  0  0  0  0
   16.4529   -6.4366    0.0000 C   0  0  0  0  0  0  0  0  0  0  0  0
   17.1674   -6.8491    0.0000 C   0  0  0  0  0  0  0  0  0  0  0  0
  1  2  1  0  0  0  0
  2  3  1  0  0  0  0
  3  4  1  0  0  0  0
  4  5  1  0  0  0  0
  5  6  1  0  0  0  0
  6  7  1  0  0  0  0
  7  8  1  0  0  0  0
  8  9  1  0  0  0  0
  9 10  1  0  0  0  0
 10 11  1  0  0  0  0
 11 12  1  0  0  0  0
 12 13  1  0  0  0  0
 13 14  1  0  0  0  0
 14 15  1  0  0  0  0
 15 16  1  0  0  0  0
  1 17  2  0  0  0  0
  1 18  1  0  0  0  0
 19 20  1  0  0  0  0
 20 21  1  0  0  0  0
 21 22  1  0  0  0  0
 22 23  1  0  0  0  0
 23 24  1  0  0  0  0
 24 25  1  0  0  0  0
 25 26  1  0  0  0  0
 18 19  1  0  0  0  0
M  END
>  <cdx:groupId>
524

>  <cdx:fragmentId>
450

$$$$
