301947.cdx
  Mrv1902 05222410232D          

 56 63  0  0  0  0            999 V2000
   15.8013   -9.0719    0.0000 C   0  0  1  0  0  0  0  0  0  0  0  0
   16.5127   -8.6543    0.0000 C   0  0  2  0  0  0  0  0  0  0  0  0
   17.2992   -8.9035    0.0000 C   0  0  0  0  0  0  0  0  0  0  0  0
   17.7793   -8.2326    0.0000 C   0  0  2  0  0  0  0  0  0  0  0  0
   18.5620   -7.9720    0.0000 O   0  0  0  0  0  0  0  0  0  0  0  0
   18.5561   -7.1470    0.0000 C   0  0  2  0  0  0  0  0  0  0  0  0
   17.7696   -6.8978    0.0000 C   0  0  2  0  0  0  0  0  0  0  0  0
   17.2895   -7.5687    0.0000 C   0  0  2  0  0  0  0  0  0  0  0  0
   16.5068   -7.8293    0.0000 C   0  0  1  0  0  0  0  0  0  0  0  0
   15.7894   -7.4219    0.0000 C   0  0  0  0  0  0  0  0  0  0  0  0
   15.0779   -7.8396    0.0000 C   0  0  0  0  0  0  0  0  0  0  0  0
   15.0838   -8.6646    0.0000 C   0  0  2  0  0  0  0  0  0  0  0  0
   14.3724   -9.0822    0.0000 C   0  0  1  0  0  0  0  0  0  0  0  0
   13.6549   -8.6749    0.0000 C   0  0  0  0  0  0  0  0  0  0  0  0
   12.9435   -9.0925    0.0000 C   0  0  0  0  0  0  0  0  0  0  0  0
   12.9494   -9.9175    0.0000 C   0  0  1  0  0  0  0  0  0  0  0  0
   13.6668  -10.3248    0.0000 C   0  0  0  0  0  0  0  0  0  0  0  0
   14.3783   -9.9072    0.0000 C   0  0  0  0  0  0  0  0  0  0  0  0
   15.0958  -10.3145    0.0000 C   0  0  0  0  0  0  0  0  0  0  0  0
   15.8072   -9.8969    0.0000 C   0  0  0  0  0  0  0  0  0  0  0  0
   18.4639   -6.3272    0.0000 O   0  0  0  0  0  0  0  0  0  0  0  0
   19.3122   -7.4771    0.0000 C   0  0  0  0  0  0  0  0  0  0  0  0
   19.9761   -6.9874    0.0000 C   0  0  0  0  0  0  0  0  0  0  0  0
   19.8839   -6.1676    0.0000 C   0  0  2  0  0  0  0  0  0  0  0  0
   19.1278   -5.8375    0.0000 C   0  0  0  0  0  0  0  0  0  0  0  0
   12.2379  -10.3352    0.0000 O   0  0  0  0  0  0  0  0  0  0  0  0
   14.3664   -8.2572    0.0000 C   0  0  0  0  0  0  0  0  0  0  0  0
   16.5068   -7.0043    0.0000 C   0  0  0  0  0  0  0  0  0  0  0  0
   17.5090   -6.1150    0.0000 C   0  0  0  0  0  0  0  0  0  0  0  0
   20.5478   -5.6778    0.0000 C   0  0  0  0  0  0  0  0  0  0  0  0
   15.7953   -8.2469    0.0000 H   0  0  0  0  0  0  0  0  0  0  0  0
   16.5187   -9.4792    0.0000 O   0  0  0  0  0  0  0  0  0  0  0  0
   18.2690   -8.8965    0.0000 H   0  0  0  0  0  0  0  0  0  0  0  0
   16.9225   -6.8298    0.0000 O   0  0  0  0  0  0  0  0  0  0  0  0
   15.0898   -9.4895    0.0000 H   0  0  0  0  0  0  0  0  0  0  0  0
   11.5205   -9.9278    0.0000 C   0  0  2  0  0  0  0  0  0  0  0  0
   11.5116   -9.1029    0.0000 O   0  0  0  0  0  0  0  0  0  0  0  0
   10.7927   -8.6982    0.0000 C   0  0  1  0  0  0  0  0  0  0  0  0
   10.0827   -9.1029    0.0000 C   0  0  2  0  0  0  0  0  0  0  0  0
   10.0827   -9.9278    0.0000 C   0  0  1  0  0  0  0  0  0  0  0  0
   10.7927  -10.3325    0.0000 C   0  0  1  0  0  0  0  0  0  0  0  0
   10.7904   -7.8732    0.0000 C   0  0  0  0  0  0  0  0  0  0  0  0
    9.3694  -10.3423    0.0000 O   0  0  0  0  0  0  0  0  0  0  0  0
   10.7883  -11.1575    0.0000 O   0  0  0  0  0  0  0  0  0  0  0  0
    9.3694   -8.6884    0.0000 O   0  0  0  0  0  0  0  0  0  0  0  0
   10.0760   -7.4607    0.0000 O   0  0  0  0  0  0  0  0  0  0  0  0
   11.1855  -11.8806    0.0000 C   0  0  2  0  0  0  0  0  0  0  0  0
   10.7561  -12.5850    0.0000 O   0  0  0  0  0  0  0  0  0  0  0  0
   11.1514  -13.3091    0.0000 C   0  0  2  0  0  0  0  0  0  0  0  0
   11.9820  -13.3190    0.0000 C   0  0  1  0  0  0  0  0  0  0  0  0
   12.4058  -12.6112    0.0000 C   0  0  2  0  0  0  0  0  0  0  0  0
   12.0048  -11.8837    0.0000 C   0  0  1  0  0  0  0  0  0  0  0  0
   12.3846  -14.0392    0.0000 O   0  0  0  0  0  0  0  0  0  0  0  0
   10.7262  -14.0161    0.0000 C   0  0  0  0  0  0  0  0  0  0  0  0
   13.2307  -12.6260    0.0000 O   0  0  0  0  0  0  0  0  0  0  0  0
   12.4258  -11.1742    0.0000 O   0  0  0  0  0  0  0  0  0  0  0  0
  1  2  1  0  0  0  0
  2  3  1  0  0  0  0
  3  4  1  0  0  0  0
  4  5  1  0  0  0  0
  6  5  1  6  0  0  0
  6  7  1  0  0  0  0
  7  8  1  0  0  0  0
  8  9  1  0  0  0  0
  9 10  1  0  0  0  0
 10 11  1  0  0  0  0
 11 12  1  0  0  0  0
 12 13  1  0  0  0  0
 13 14  1  0  0  0  0
 14 15  1  0  0  0  0
 15 16  1  0  0  0  0
 16 17  1  0  0  0  0
 17 18  1  0  0  0  0
 18 19  2  0  0  0  0
 19 20  1  0  0  0  0
  1 20  1  0  0  0  0
  1 12  1  0  0  0  0
 13 18  1  0  0  0  0
  2  9  1  0  0  0  0
  4  8  1  0  0  0  0
 22 23  1  0  0  0  0
 23 24  1  0  0  0  0
 24 25  1  0  0  0  0
 21 25  1  0  0  0  0
  6 21  1  0  0  0  0
  6 22  1  0  0  0  0
 16 26  1  1  0  0  0
 13 27  1  1  0  0  0
  9 28  1  1  0  0  0
  7 29  1  6  0  0  0
 24 30  1  6  0  0  0
  1 31  1  1  0  0  0
  2 32  1  6  0  0  0
  4 33  1  6  0  0  0
  8 34  1  6  0  0  0
 12 35  1  6  0  0  0
 36 26  1  1  0  0  0
 36 37  1  0  0  0  0
 37 38  1  0  0  0  0
 38 39  1  0  0  0  0
 39 40  1  0  0  0  0
 40 41  1  0  0  0  0
 41 36  1  0  0  0  0
 38 42  1  1  0  0  0
 40 43  1  1  0  0  0
 41 44  1  6  0  0  0
 39 45  1  6  0  0  0
 42 46  1  0  0  0  0
 47 44  1  1  0  0  0
 47 48  1  0  0  0  0
 48 49  1  0  0  0  0
 49 50  1  0  0  0  0
 50 51  1  0  0  0  0
 51 52  1  0  0  0  0
 52 47  1  0  0  0  0
 50 53  1  1  0  0  0
 49 54  1  6  0  0  0
 51 55  1  6  0  0  0
 52 56  1  6  0  0  0
M  END
>  <cdx:groupId>
115

>  <cdx:fragmentId>
5

$$$$
