301942.cdx
  Mrv1902 05222410252D          

 27 28  0  0  0  0            999 V2000
    3.1818   -6.0791    0.0000 C   0  0  0  0  0  0  0  0  0  0  0  0
    3.8962   -6.4916    0.0000 C   0  0  0  0  0  0  0  0  0  0  0  0
    4.6107   -6.0791    0.0000 C   0  0  2  0  0  0  0  0  0  0  0  0
    4.6107   -5.2541    0.0000 C   0  0  0  0  0  0  0  0  0  0  0  0
    3.8962   -4.8416    0.0000 C   0  0  1  0  0  0  0  0  0  0  0  0
    3.1818   -5.2541    0.0000 O   0  0  0  0  0  0  0  0  0  0  0  0
    3.8962   -7.3166    0.0000 C   0  0  0  0  0  0  0  0  0  0  0  0
    4.6107   -7.7291    0.0000 O   0  0  0  0  0  0  0  0  0  0  0  0
    3.1818   -7.7291    0.0000 O   0  0  0  0  0  0  0  0  0  0  0  0
    3.8962   -4.0166    0.0000 O   0  0  0  0  0  0  0  0  0  0  0  0
    5.3252   -4.8416    0.0000 C   0  0  0  0  0  0  0  0  0  0  0  0
    6.0397   -5.2541    0.0000 C   0  0  0  0  0  0  0  0  0  0  0  0
    5.7539   -6.7391    0.0000 C   0  0  0  0  0  0  0  0  0  0  0  0
    6.4683   -6.3266    0.0000 C   0  0  0  0  0  0  0  0  0  0  0  0
    6.4683   -5.5016    0.0000 O   0  0  0  0  0  0  0  0  0  0  0  0
    7.1828   -6.7391    0.0000 O   0  0  0  0  0  0  0  0  0  0  0  0
    7.8973   -6.3266    0.0000 C   0  0  0  0  0  0  0  0  0  0  0  0
    8.6117   -6.7391    0.0000 C   0  0  0  0  0  0  0  0  0  0  0  0
    9.3262   -6.3266    0.0000 C   0  0  0  0  0  0  0  0  0  0  0  0
   10.0407   -6.7391    0.0000 C   0  0  0  0  0  0  0  0  0  0  0  0
   10.7552   -6.3266    0.0000 C   0  0  0  0  0  0  0  0  0  0  0  0
   10.7552   -5.5016    0.0000 C   0  0  0  0  0  0  0  0  0  0  0  0
   10.0407   -5.0891    0.0000 C   0  0  0  0  0  0  0  0  0  0  0  0
    9.3262   -5.5016    0.0000 C   0  0  0  0  0  0  0  0  0  0  0  0
   11.4696   -5.0891    0.0000 O   0  0  0  0  0  0  0  0  0  0  0  0
   11.4696   -6.7391    0.0000 O   0  0  0  0  0  0  0  0  0  0  0  0
    3.1818   -8.5541    0.0000 C   0  0  0  0  0  0  0  0  0  0  0  0
  1  2  2  0  0  0  0
  2  3  1  0  0  0  0
  3  4  1  0  0  0  0
  4  5  1  0  0  0  0
  5  6  1  0  0  0  0
  1  6  1  0  0  0  0
  7  8  2  0  0  0  0
  7  9  1  0  0  0  0
  2  7  1  0  0  0  0
  5 10  1  1  0  0  0
 11 12  1  0  0  0  0
  4 11  2  0  0  0  0
 13 14  1  0  0  0  0
 14 15  2  0  0  0  0
 17 18  1  0  0  0  0
 16 17  1  0  0  0  0
 19 20  1  0  0  0  0
 20 21  2  0  0  0  0
 21 22  1  0  0  0  0
 22 23  2  0  0  0  0
 23 24  1  0  0  0  0
 19 24  2  0  0  0  0
 22 25  1  0  0  0  0
 21 26  1  0  0  0  0
 18 19  1  0  0  0  0
 14 16  1  0  0  0  0
  3 13  1  6  0  0  0
  9 27  1  0  0  0  0
M  END
>  <cdx:groupId>
84

>  <cdx:fragmentId>
41

$$$$
