301903.cdx
  Mrv1902 05222410192D          

 20 23  0  0  0  0            999 V2000
    5.2220   -6.4209    0.0000 O   0  0  0  0  0  0  0  0  0  0  0  0
    9.6266   -5.6860    0.0000 N   0  0  0  0  0  0  0  0  0  0  0  0
    9.6590   -6.5213    0.0000 C   0  0  0  0  0  0  0  0  0  0  0  0
    8.8550   -6.9025    0.0000 C   0  0  0  0  0  0  0  0  0  0  0  0
    8.0772   -7.2553    0.0000 C   0  0  0  0  0  0  0  0  0  0  0  0
    8.7903   -7.6701    0.0000 C   0  0  0  0  0  0  0  0  0  0  0  0
    9.5061   -7.2599    0.0000 C   0  0  0  0  0  0  0  0  0  0  0  0
    9.5088   -6.4349    0.0000 C   0  0  0  0  0  0  0  0  0  0  0  0
    8.7957   -6.0201    0.0000 C   0  0  1  0  0  0  0  0  0  0  0  0
    8.7984   -5.1951    0.0000 C   0  0  1  0  0  0  0  0  0  0  0  0
    8.0852   -4.7803    0.0000 C   0  0  0  0  0  0  0  0  0  0  0  0
    7.3694   -5.1905    0.0000 C   0  0  0  0  0  0  0  0  0  0  0  0
    6.6563   -4.7756    0.0000 C   0  0  0  0  0  0  0  0  0  0  0  0
    5.9405   -5.1858    0.0000 C   0  0  0  0  0  0  0  0  0  0  0  0
    5.9378   -6.0108    0.0000 C   0  0  0  0  0  0  0  0  0  0  0  0
    6.6509   -6.4256    0.0000 C   0  0  0  0  0  0  0  0  0  0  0  0
    7.3667   -6.0154    0.0000 C   0  0  0  0  0  0  0  0  0  0  0  0
    8.0798   -6.4303    0.0000 C   0  0  2  0  0  0  0  0  0  0  0  0
    9.3817   -4.6118    0.0000 H   0  0  0  0  0  0  0  0  0  0  0  0
    8.0812   -5.6076    0.0000 H   0  0  0  0  0  0  0  0  0  0  0  0
 15  1  1  0  0  0  0
 17 12  2  0  0  0  0
 18  9  1  0  0  0  0
  2 10  1  0  0  0  0
 18  4  1  0  0  0  0
 18  5  1  6  0  0  0
  3  2  1  0  0  0  0
  4  3  1  0  0  0  0
  6  5  1  0  0  0  0
  7  6  1  0  0  0  0
  8  7  1  0  0  0  0
  9  8  1  0  0  0  0
 10  9  1  0  0  0  0
 11 10  1  0  0  0  0
 12 11  1  0  0  0  0
 13 12  1  0  0  0  0
 14 13  2  0  0  0  0
 15 14  1  0  0  0  0
 16 15  2  0  0  0  0
 17 16  1  0  0  0  0
 18 17  1  0  0  0  0
 10 19  1  6  0  0  0
  9 20  1  1  0  0  0
M  END
>  <cdx:fragmentId>
548

$$$$
