301901.cdx
  Mrv1902 05222410202D          

 21 23  0  0  0  0            999 V2000
    5.5756   -6.9712    0.0000 C   0  0  0  0  0  0  0  0  0  0  0  0
    5.5756   -7.7963    0.0000 C   0  0  0  0  0  0  0  0  0  0  0  0
    6.2901   -8.2088    0.0000 C   0  0  0  0  0  0  0  0  0  0  0  0
    7.0046   -7.7963    0.0000 C   0  0  0  0  0  0  0  0  0  0  0  0
    7.0046   -6.9712    0.0000 C   0  0  0  0  0  0  0  0  0  0  0  0
    6.2901   -6.5587    0.0000 C   0  0  0  0  0  0  0  0  0  0  0  0
    7.7190   -8.2088    0.0000 C   0  0  0  0  0  0  0  0  0  0  0  0
    8.4335   -7.7963    0.0000 C   0  0  0  0  0  0  0  0  0  0  0  0
    8.4335   -6.9712    0.0000 C   0  0  1  0  0  0  0  0  0  0  0  0
    7.7190   -6.5587    0.0000 C   0  0  1  0  0  0  0  0  0  0  0  0
    9.1480   -6.5587    0.0000 C   0  0  0  0  0  0  0  0  0  0  0  0
    9.1480   -5.7338    0.0000 C   0  0  2  0  0  0  0  0  0  0  0  0
    8.4335   -5.3213    0.0000 C   0  0  0  0  0  0  0  0  0  0  0  0
    7.7190   -5.7338    0.0000 C   0  0  0  0  0  0  0  0  0  0  0  0
    4.8612   -8.2088    0.0000 O   0  0  0  0  0  0  0  0  0  0  0  0
    6.2901   -9.0337    0.0000 C   0  0  0  0  0  0  0  0  0  0  0  0
    7.0046   -6.1463    0.0000 C   0  0  0  0  0  0  0  0  0  0  0  0
    9.1480   -4.9088    0.0000 C   0  0  0  0  0  0  0  0  0  0  0  0
    9.8625   -5.3213    0.0000 C   0  0  0  0  0  0  0  0  0  0  0  0
   10.5769   -5.7338    0.0000 C   0  0  0  0  0  0  0  0  0  0  0  0
    9.1480   -7.3838    0.0000 H   0  0  0  0  0  0  0  0  0  0  0  0
  1  2  2  0  0  0  0
  2  3  1  0  0  0  0
  3  4  2  0  0  0  0
  4  5  1  0  0  0  0
  5  6  2  0  0  0  0
  6  1  1  0  0  0  0
  4  7  1  0  0  0  0
  7  8  2  0  0  0  0
  8  9  1  0  0  0  0
  9 10  1  0  0  0  0
 10  5  1  0  0  0  0
  9 11  1  0  0  0  0
 11 12  1  0  0  0  0
 12 13  1  0  0  0  0
 13 14  1  0  0  0  0
 14 10  1  0  0  0  0
  2 15  1  0  0  0  0
  3 16  1  0  0  0  0
 10 17  1  1  0  0  0
 12 18  1  6  0  0  0
 12 19  1  1  0  0  0
 19 20  2  0  0  0  0
  9 21  1  6  0  0  0
M  END
>  <cdx:fragmentId>
2318

$$$$
