301981.cdx
  Mrv1902 05222410252D          

 38 42  0  0  0  0            999 V2000
    9.0617   -6.4281    0.0000 C   0  0  0  0  0  0  0  0  0  0  0  0
    9.0617   -7.2531    0.0000 C   0  0  0  0  0  0  0  0  0  0  0  0
    9.7762   -7.6656    0.0000 C   0  0  0  0  0  0  0  0  0  0  0  0
   10.4906   -7.2531    0.0000 C   0  0  0  0  0  0  0  0  0  0  0  0
   11.2051   -7.6656    0.0000 C   0  0  0  0  0  0  0  0  0  0  0  0
   11.9196   -7.2531    0.0000 C   0  0  0  0  0  0  0  0  0  0  0  0
   11.9196   -6.4281    0.0000 C   0  0  0  0  0  0  0  0  0  0  0  0
   11.2051   -6.0156    0.0000 C   0  0  0  0  0  0  0  0  0  0  0  0
   10.4906   -6.4281    0.0000 C   0  0  0  0  0  0  0  0  0  0  0  0
    9.7762   -6.0156    0.0000 O   0  0  0  0  0  0  0  0  0  0  0  0
    9.7762   -8.4906    0.0000 O   0  0  0  0  0  0  0  0  0  0  0  0
    6.2038   -6.4281    0.0000 O   0  0  0  0  0  0  0  0  0  0  0  0
    5.4893   -6.0156    0.0000 C   0  0  1  0  0  0  0  0  0  0  0  0
    5.4893   -5.1906    0.0000 C   0  0  2  0  0  0  0  0  0  0  0  0
    6.2038   -4.7781    0.0000 O   0  0  0  0  0  0  0  0  0  0  0  0
    6.9183   -5.1906    0.0000 C   0  0  0  0  0  0  0  0  0  0  0  0
    6.9183   -6.0156    0.0000 C   0  0  0  0  0  0  0  0  0  0  0  0
    7.6327   -4.7781    0.0000 C   0  0  0  0  0  0  0  0  0  0  0  0
    8.3472   -5.1906    0.0000 C   0  0  0  0  0  0  0  0  0  0  0  0
    8.3472   -6.0156    0.0000 C   0  0  0  0  0  0  0  0  0  0  0  0
    7.6327   -6.4281    0.0000 C   0  0  0  0  0  0  0  0  0  0  0  0
    7.6327   -3.9531    0.0000 O   0  0  0  0  0  0  0  0  0  0  0  0
    8.3472   -3.5406    0.0000 C   0  0  0  0  0  0  0  0  0  0  0  0
    4.7749   -4.7781    0.0000 C   0  0  0  0  0  0  0  0  0  0  0  0
    4.0604   -5.1906    0.0000 O   0  0  0  0  0  0  0  0  0  0  0  0
    4.7749   -6.4281    0.0000 C   0  0  0  0  0  0  0  0  0  0  0  0
    4.7749   -7.2531    0.0000 C   0  0  0  0  0  0  0  0  0  0  0  0
    4.0604   -7.6656    0.0000 C   0  0  0  0  0  0  0  0  0  0  0  0
    3.3459   -7.2531    0.0000 C   0  0  0  0  0  0  0  0  0  0  0  0
    3.3459   -6.4281    0.0000 C   0  0  0  0  0  0  0  0  0  0  0  0
    4.0604   -6.0156    0.0000 C   0  0  0  0  0  0  0  0  0  0  0  0
    2.6315   -6.0156    0.0000 O   0  0  0  0  0  0  0  0  0  0  0  0
    1.9170   -6.4281    0.0000 C   0  0  0  0  0  0  0  0  0  0  0  0
    4.0604   -8.4906    0.0000 O   0  0  0  0  0  0  0  0  0  0  0  0
    3.3459   -8.9031    0.0000 C   0  0  0  0  0  0  0  0  0  0  0  0
    2.6315   -7.6656    0.0000 O   0  0  0  0  0  0  0  0  0  0  0  0
   12.6340   -6.0156    0.0000 O   0  0  0  0  0  0  0  0  0  0  0  0
   11.2051   -8.4906    0.0000 O   0  0  0  0  0  0  0  0  0  0  0  0
  1  2  2  0  0  0  0
  2  3  1  0  0  0  0
  3  4  1  0  0  0  0
  4  5  1  0  0  0  0
  5  6  2  0  0  0  0
  6  7  1  0  0  0  0
  7  8  2  0  0  0  0
  8  9  1  0  0  0  0
  4  9  2  0  0  0  0
  9 10  1  0  0  0  0
  1 10  1  0  0  0  0
  3 11  2  0  0  0  0
 12 13  1  0  0  0  0
 13 14  1  0  0  0  0
 14 15  1  0  0  0  0
 15 16  1  0  0  0  0
 16 17  1  0  0  0  0
 12 17  1  0  0  0  0
 18 19  1  0  0  0  0
 19 20  2  0  0  0  0
 20 21  1  0  0  0  0
 21 17  2  0  0  0  0
 18 16  2  0  0  0  0
 22 23  1  0  0  0  0
 18 22  1  0  0  0  0
 24 25  1  0  0  0  0
 14 24  1  1  0  0  0
 26 27  1  0  0  0  0
 27 28  2  0  0  0  0
 28 29  1  0  0  0  0
 29 30  2  0  0  0  0
 30 31  1  0  0  0  0
 26 31  2  0  0  0  0
 32 33  1  0  0  0  0
 30 32  1  0  0  0  0
 34 35  1  0  0  0  0
 28 34  1  0  0  0  0
 29 36  1  0  0  0  0
 13 26  1  6  0  0  0
  1 20  1  0  0  0  0
  7 37  1  0  0  0  0
  5 38  1  0  0  0  0
M  END
>  <cdx:groupId>
3015

>  <cdx:fragmentId>
2922

$$$$
