301963.cdx
  Mrv1902 05222410222D          

 15 15  0  0  0  0            999 V2000
    7.1145   -7.0469    0.0000 O   0  0  0  0  0  0  0  0  0  0  0  0
    6.4000   -6.6344    0.0000 C   0  0  0  0  0  0  0  0  0  0  0  0
    6.4000   -5.8094    0.0000 C   0  0  0  0  0  0  0  0  0  0  0  0
    7.1145   -5.3969    0.0000 C   0  0  0  0  0  0  0  0  0  0  0  0
    7.1145   -4.5719    0.0000 C   0  0  0  0  0  0  0  0  0  0  0  0
    7.8290   -4.1594    0.0000 C   0  0  0  0  0  0  0  0  0  0  0  0
    8.5435   -4.5719    0.0000 C   0  0  0  0  0  0  0  0  0  0  0  0
    8.5435   -5.3969    0.0000 C   0  0  0  0  0  0  0  0  0  0  0  0
    9.2579   -5.8094    0.0000 C   0  0  0  0  0  0  0  0  0  0  0  0
    9.2579   -6.6344    0.0000 C   0  0  0  0  0  0  0  0  0  0  0  0
    8.5435   -7.0469    0.0000 C   0  0  0  0  0  0  0  0  0  0  0  0
    8.5435   -7.8719    0.0000 C   0  0  0  0  0  0  0  0  0  0  0  0
    7.8290   -8.2844    0.0000 C   0  0  0  0  0  0  0  0  0  0  0  0
    7.1145   -7.8719    0.0000 C   0  0  0  0  0  0  0  0  0  0  0  0
    5.6856   -7.0469    0.0000 O   0  0  0  0  0  0  0  0  0  0  0  0
  1  2  1  0  0  0  0
  2  3  1  0  0  0  0
  3  4  1  0  0  0  0
  4  5  1  0  0  0  0
  5  6  1  0  0  0  0
  6  7  1  0  0  0  0
  7  8  1  0  0  0  0
  8  9  1  0  0  0  0
  9 10  1  0  0  0  0
 10 11  1  0  0  0  0
 11 12  1  0  0  0  0
 12 13  1  0  0  0  0
 13 14  1  0  0  0  0
  1 14  1  0  0  0  0
  2 15  2  0  0  0  0
M  END
>  <cdx:groupId>
1421

>  <cdx:fragmentId>
1379

$$$$
