301991.cdx
  Mrv1902 05222410252D          

 39 42  0  0  0  0            999 V2000
    5.9167  -13.2637    0.0000 O   0  0  0  0  0  0  0  0  0  0  0  0
    6.6298  -13.6786    0.0000 C   0  0  2  0  0  0  0  0  0  0  0  0
    6.6270  -14.5036    0.0000 C   0  0  1  0  0  0  0  0  0  0  0  0
    5.9111  -14.9137    0.0000 C   0  0  2  0  0  0  0  0  0  0  0  0
    5.1980  -14.4987    0.0000 C   0  0  1  0  0  0  0  0  0  0  0  0
    5.2008  -13.6737    0.0000 C   0  0  1  0  0  0  0  0  0  0  0  0
    7.3400  -14.9185    0.0000 O   0  0  0  0  0  0  0  0  0  0  0  0
    5.9083  -15.7387    0.0000 O   0  0  0  0  0  0  0  0  0  0  0  0
    4.4822  -14.9088    0.0000 O   0  0  0  0  0  0  0  0  0  0  0  0
    4.4878  -13.2588    0.0000 C   0  0  0  0  0  0  0  0  0  0  0  0
    3.7719  -13.6689    0.0000 O   0  0  0  0  0  0  0  0  0  0  0  0
    7.3456  -13.2685    0.0000 O   0  0  0  0  0  0  0  0  0  0  0  0
   10.2307   -5.5249    0.0000 O   0  0  0  0  0  0  0  0  0  0  0  0
   11.5409   -6.0951    0.0000 C   0  0  0  0  0  0  0  0  0  0  0  0
   11.2117   -6.8516    0.0000 O   0  0  0  0  0  0  0  0  0  0  0  0
    8.9205   -4.9546    0.0000 C   0  0  0  0  0  0  0  0  0  0  0  0
    8.5913   -5.7111    0.0000 O   0  0  0  0  0  0  0  0  0  0  0  0
    8.7525   -7.1309    0.0000 C   0  0  0  0  0  0  0  0  0  0  0  0
    9.0818   -6.3744    0.0000 C   0  0  0  0  0  0  0  0  0  0  0  0
    9.9015   -6.2813    0.0000 C   0  0  0  0  0  0  0  0  0  0  0  0
   10.3920   -6.9447    0.0000 C   0  0  0  0  0  0  0  0  0  0  0  0
   10.0628   -7.7011    0.0000 C   0  0  0  0  0  0  0  0  0  0  0  0
    9.2430   -7.7942    0.0000 C   0  0  0  0  0  0  0  0  0  0  0  0
    7.6554   -7.3737    0.0000 O   0  0  0  0  0  0  0  0  0  0  0  0
    7.4906   -8.1821    0.0000 C   0  0  0  0  0  0  0  0  0  0  0  0
    8.9138   -8.5507    0.0000 C   0  0  1  0  0  0  0  0  0  0  0  0
    8.1083   -8.7290    0.0000 C   0  0  1  0  0  0  0  0  0  0  0  0
    8.0289   -9.5502    0.0000 C   0  0  1  0  0  0  0  0  0  0  0  0
    8.7854   -9.8794    0.0000 C   0  0  0  0  0  0  0  0  0  0  0  0
    9.3323   -9.2617    0.0000 O   0  0  0  0  0  0  0  0  0  0  0  0
    7.3180   -9.9686    0.0000 C   0  0  0  0  0  0  0  0  0  0  0  0
    9.4786  -12.0131    0.0000 C   0  0  0  0  0  0  0  0  0  0  0  0
    8.7676  -12.4316    0.0000 O   0  0  0  0  0  0  0  0  0  0  0  0
    6.6208  -12.0371    0.0000 C   0  0  0  0  0  0  0  0  0  0  0  0
    6.6139  -11.2121    0.0000 C   0  0  0  0  0  0  0  0  0  0  0  0
    7.3249  -10.7936    0.0000 C   0  0  0  0  0  0  0  0  0  0  0  0
    8.0428  -11.2001    0.0000 C   0  0  0  0  0  0  0  0  0  0  0  0
    8.0497  -12.0251    0.0000 C   0  0  0  0  0  0  0  0  0  0  0  0
    7.3387  -12.4435    0.0000 C   0  0  0  0  0  0  0  0  0  0  0  0
 36 31  1  0  0  0  0
 28 31  1  1  0  0  0
 26 23  1  6  0  0  0
 20 13  1  0  0  0  0
 21 15  1  0  0  0  0
 15 14  1  0  0  0  0
 19 17  1  0  0  0  0
 17 16  1  0  0  0  0
 23 18  2  0  0  0  0
 19 18  1  0  0  0  0
 20 19  2  0  0  0  0
 21 20  1  0  0  0  0
 22 21  2  0  0  0  0
 23 22  1  0  0  0  0
 27 25  1  1  0  0  0
 25 24  1  0  0  0  0
 30 26  1  0  0  0  0
 27 26  1  0  0  0  0
 28 27  1  0  0  0  0
 29 28  1  0  0  0  0
 30 29  1  0  0  0  0
 38 33  1  0  0  0  0
 33 32  1  0  0  0  0
 12 39  1  0  0  0  0
 39 34  2  0  0  0  0
 35 34  1  0  0  0  0
 36 35  2  0  0  0  0
 37 36  1  0  0  0  0
 38 37  2  0  0  0  0
 39 38  1  0  0  0  0
  1  2  1  0  0  0  0
  2  3  1  0  0  0  0
  3  4  1  0  0  0  0
  4  5  1  0  0  0  0
  5  6  1  0  0  0  0
  1  6  1  0  0  0  0
  3  7  1  6  0  0  0
  4  8  1  1  0  0  0
  5  9  1  6  0  0  0
 10 11  1  0  0  0  0
  6 10  1  1  0  0  0
  2 12  1  1  0  0  0
M  END
>  <cdx:fragmentId>
3416

$$$$
