301921.cdx
  Mrv1902 05222410282D          

 11 11  0  0  0  0            999 V2000
    8.8161   -6.5873    0.0000 C   0  0  0  0  0  0  0  0  0  0  0  0
    8.1017   -6.1748    0.0000 C   0  0  0  0  0  0  0  0  0  0  0  0
    7.3872   -6.5873    0.0000 C   0  0  0  0  0  0  0  0  0  0  0  0
    6.6727   -6.1748    0.0000 C   0  0  0  0  0  0  0  0  0  0  0  0
    6.6727   -5.3498    0.0000 C   0  0  0  0  0  0  0  0  0  0  0  0
    7.3872   -4.9373    0.0000 C   0  0  0  0  0  0  0  0  0  0  0  0
    8.1017   -5.3498    0.0000 C   0  0  0  0  0  0  0  0  0  0  0  0
    9.5306   -6.1748    0.0000 O   0  0  0  0  0  0  0  0  0  0  0  0
    5.9582   -6.5873    0.0000 O   0  0  0  0  0  0  0  0  0  0  0  0
    5.2438   -6.1748    0.0000 C   0  0  0  0  0  0  0  0  0  0  0  0
    7.3872   -7.4123    0.0000 O   0  0  0  0  0  0  0  0  0  0  0  0
  1  2  1  0  0  0  0
  2  3  1  0  0  0  0
  3  4  2  0  0  0  0
  4  5  1  0  0  0  0
  5  6  2  0  0  0  0
  6  7  1  0  0  0  0
  2  7  2  0  0  0  0
  1  8  2  0  0  0  0
  9 10  1  0  0  0  0
  4  9  1  0  0  0  0
  3 11  1  0  0  0  0
M  END
>  <cdx:groupId>
35

>  <cdx:fragmentId>
5

$$$$
