301930.cdx
  Mrv1902 05222410262D          

 24 23  0  0  0  0            999 V2000
    1.5596   -7.7016    0.0000 C   0  0  0  0  0  0  0  0  0  0  0  0
    2.2740   -8.1141    0.0000 C   0  0  0  0  0  0  0  0  0  0  0  0
    2.9885   -7.7016    0.0000 C   0  0  0  0  0  0  0  0  0  0  0  0
    3.7030   -8.1141    0.0000 C   0  0  0  0  0  0  0  0  0  0  0  0
    4.4175   -7.7016    0.0000 O   0  0  0  0  0  0  0  0  0  0  0  0
    5.1319   -8.9391    0.0000 O   0  0  0  0  0  0  0  0  0  0  0  0
   17.2779   -7.7016    0.0000 C   0  0  0  0  0  0  0  0  0  0  0  0
   16.5635   -8.1141    0.0000 C   0  0  0  0  0  0  0  0  0  0  0  0
   15.8490   -7.7016    0.0000 C   0  0  0  0  0  0  0  0  0  0  0  0
   15.1345   -8.1141    0.0000 C   0  0  0  0  0  0  0  0  0  0  0  0
   14.4200   -7.7016    0.0000 C   0  0  0  0  0  0  0  0  0  0  0  0
   13.7056   -8.1141    0.0000 C   0  0  0  0  0  0  0  0  0  0  0  0
   12.9911   -7.7016    0.0000 C   0  0  0  0  0  0  0  0  0  0  0  0
   12.2766   -8.1141    0.0000 C   0  0  0  0  0  0  0  0  0  0  0  0
   11.5622   -7.7016    0.0000 C   0  0  0  0  0  0  0  0  0  0  0  0
   10.8477   -8.1141    0.0000 C   0  0  0  0  0  0  0  0  0  0  0  0
   10.1332   -7.7016    0.0000 C   0  0  0  0  0  0  0  0  0  0  0  0
    9.4187   -8.1141    0.0000 C   0  0  0  0  0  0  0  0  0  0  0  0
    8.7043   -7.7016    0.0000 C   0  0  0  0  0  0  0  0  0  0  0  0
    7.9898   -8.1141    0.0000 C   0  0  0  0  0  0  0  0  0  0  0  0
    7.2753   -7.7016    0.0000 C   0  0  0  0  0  0  0  0  0  0  0  0
    6.5609   -8.1141    0.0000 C   0  0  0  0  0  0  0  0  0  0  0  0
    5.8464   -7.7016    0.0000 C   0  0  0  0  0  0  0  0  0  0  0  0
    5.1319   -8.1141    0.0000 C   0  0  0  0  0  0  0  0  0  0  0  0
  5  4  1  0  0  0  0
  2  1  1  0  0  0  0
  3  2  1  0  0  0  0
  4  3  1  0  0  0  0
 24  5  1  0  0  0  0
 24  6  2  0  0  0  0
  8  7  1  0  0  0  0
  9  8  1  0  0  0  0
 10  9  1  0  0  0  0
 11 10  1  0  0  0  0
 12 11  1  0  0  0  0
 13 12  1  0  0  0  0
 14 13  1  0  0  0  0
 15 14  1  0  0  0  0
 16 15  1  0  0  0  0
 17 16  1  0  0  0  0
 18 17  1  0  0  0  0
 19 18  1  0  0  0  0
 20 19  1  0  0  0  0
 21 20  1  0  0  0  0
 22 21  1  0  0  0  0
 23 22  1  0  0  0  0
 24 23  1  0  0  0  0
M  END
>  <cdx:fragmentId>
5

$$$$
