301985.cdx
  Mrv1902 05222410242D          

  9  9  0  0  0  0            999 V2000
    7.0535   -7.2776    0.0000 O   0  0  0  0  0  0  0  0  0  0  0  0
    6.7986   -6.4930    0.0000 C   0  0  0  0  0  0  0  0  0  0  0  0
    7.4660   -6.0081    0.0000 C   0  0  1  0  0  0  0  0  0  0  0  0
    8.1335   -6.4930    0.0000 C   0  0  0  0  0  0  0  0  0  0  0  0
    7.8785   -7.2776    0.0000 C   0  0  0  0  0  0  0  0  0  0  0  0
    6.0140   -6.2381    0.0000 O   0  0  0  0  0  0  0  0  0  0  0  0
    8.6855   -5.8799    0.0000 C   0  0  0  0  0  0  0  0  0  0  0  0
    8.9404   -6.6645    0.0000 C   0  0  0  0  0  0  0  0  0  0  0  0
    7.4660   -5.1831    0.0000 O   0  0  0  0  0  0  0  0  0  0  0  0
  1  2  1  0  0  0  0
  2  3  1  0  0  0  0
  3  4  1  0  0  0  0
  4  5  1  0  0  0  0
  1  5  1  0  0  0  0
  2  6  2  0  0  0  0
  4  7  1  0  0  0  0
  4  8  1  0  0  0  0
  3  9  1  6  0  0  0
M  END
>  <cdx:groupId>
3118

>  <cdx:fragmentId>
3094

$$$$
