301971.cdx
  Mrv1902 05222410212D          

 16 17  0  0  0  0            999 V2000
    8.8505   -5.6113    0.0000 C   0  0  2  0  0  0  0  0  0  0  0  0
    9.5650   -6.0238    0.0000 C   0  0  0  0  0  0  0  0  0  0  0  0
    9.5650   -6.8488    0.0000 C   0  0  0  0  0  0  0  0  0  0  0  0
    8.8505   -7.2613    0.0000 C   0  0  0  0  0  0  0  0  0  0  0  0
    8.1360   -6.8488    0.0000 C   0  0  2  0  0  0  0  0  0  0  0  0
    7.4216   -7.2613    0.0000 C   0  0  0  0  0  0  0  0  0  0  0  0
    6.7071   -6.8488    0.0000 C   0  0  0  0  0  0  0  0  0  0  0  0
    6.7071   -6.0238    0.0000 C   0  0  2  0  0  0  0  0  0  0  0  0
    7.4216   -5.6113    0.0000 C   0  0  0  0  0  0  0  0  0  0  0  0
    8.1360   -6.0238    0.0000 C   0  0  0  0  0  0  0  0  0  0  0  0
    8.4380   -4.8969    0.0000 O   0  0  0  0  0  0  0  0  0  0  0  0
    5.9926   -4.7863    0.0000 C   0  0  0  0  0  0  0  0  0  0  0  0
    5.9926   -5.6113    0.0000 C   0  0  0  0  0  0  0  0  0  0  0  0
    5.2781   -6.0238    0.0000 C   0  0  0  0  0  0  0  0  0  0  0  0
    8.1360   -7.6738    0.0000 C   0  0  0  0  0  0  0  0  0  0  0  0
    9.2630   -4.8969    0.0000 C   0  0  0  0  0  0  0  0  0  0  0  0
  1  2  1  0  0  0  0
  2  3  1  0  0  0  0
  3  4  1  0  0  0  0
  4  5  1  0  0  0  0
  5  6  1  0  0  0  0
  6  7  1  0  0  0  0
  7  8  1  0  0  0  0
  8  9  1  0  0  0  0
  9 10  2  0  0  0  0
  1 10  1  0  0  0  0
  5 10  1  0  0  0  0
  1 11  1  6  0  0  0
 12 13  2  0  0  0  0
 13 14  1  0  0  0  0
  8 13  1  1  0  0  0
  5 15  1  1  0  0  0
  1 16  1  1  0  0  0
M  END
>  <cdx:groupId>
1857

>  <cdx:fragmentId>
1811

$$$$
