301962.cdx
  Mrv1902 05222410232D          

 18 18  0  0  0  0            999 V2000
    7.6028   -5.2131    0.0000 O   0  0  0  0  0  0  0  0  0  0  0  0
    8.0153   -4.4986    0.0000 C   0  0  0  0  0  0  0  0  0  0  0  0
    8.8403   -4.4986    0.0000 C   0  0  0  0  0  0  0  0  0  0  0  0
    9.2528   -5.2005    0.0000 C   0  0  0  0  0  0  0  0  0  0  0  0
    8.8403   -5.9149    0.0000 C   0  0  0  0  0  0  0  0  0  0  0  0
    9.2528   -6.6294    0.0000 C   0  0  0  0  0  0  0  0  0  0  0  0
    8.8403   -7.3439    0.0000 C   0  0  0  0  0  0  0  0  0  0  0  0
    9.2528   -8.0583    0.0000 C   0  0  0  0  0  0  0  0  0  0  0  0
    8.8403   -8.7728    0.0000 C   0  0  0  0  0  0  0  0  0  0  0  0
    8.0153   -8.7728    0.0000 C   0  0  0  0  0  0  0  0  0  0  0  0
    7.6028   -8.0583    0.0000 C   0  0  0  0  0  0  0  0  0  0  0  0
    6.7778   -8.0583    0.0000 C   0  0  0  0  0  0  0  0  0  0  0  0
    6.3653   -7.3439    0.0000 C   0  0  0  0  0  0  0  0  0  0  0  0
    5.5951   -7.0482    0.0000 C   0  0  0  0  0  0  0  0  0  0  0  0
    5.5951   -6.2232    0.0000 C   0  0  0  0  0  0  0  0  0  0  0  0
    6.3653   -5.9276    0.0000 C   0  0  0  0  0  0  0  0  0  0  0  0
    6.7778   -5.2131    0.0000 C   0  0  0  0  0  0  0  0  0  0  0  0
    7.6028   -3.7841    0.0000 O   0  0  0  0  0  0  0  0  0  0  0  0
  1  2  1  0  0  0  0
  2  3  1  0  0  0  0
  3  4  1  0  0  0  0
  4  5  1  0  0  0  0
  5  6  1  0  0  0  0
  6  7  1  0  0  0  0
  7  8  1  0  0  0  0
  8  9  1  0  0  0  0
  9 10  1  0  0  0  0
 10 11  1  0  0  0  0
 11 12  1  0  0  0  0
 12 13  1  0  0  0  0
 13 14  1  0  0  0  0
 14 15  1  0  0  0  0
 15 16  1  0  0  0  0
 16 17  1  0  0  0  0
  1 17  1  0  0  0  0
  2 18  2  0  0  0  0
M  END
>  <cdx:groupId>
1370

>  <cdx:fragmentId>
1319

$$$$
