301966.cdx
  Mrv1902 05222410202D          

 15 14  0  0  0  0            999 V2000
    7.7822   -6.4366    0.0000 C   0  0  0  0  0  0  0  0  0  0  0  0
    8.4967   -6.0241    0.0000 C   0  0  0  0  0  0  0  0  0  0  0  0
    7.7822   -7.2616    0.0000 O   0  0  0  0  0  0  0  0  0  0  0  0
    7.0678   -6.0241    0.0000 O   0  0  0  0  0  0  0  0  0  0  0  0
    8.4967   -5.1991    0.0000 O   0  0  0  0  0  0  0  0  0  0  0  0
    9.2112   -6.4366    0.0000 O   0  0  0  0  0  0  0  0  0  0  0  0
    6.3533   -6.4366    0.0000 C   0  0  0  0  0  0  0  0  0  0  0  0
    5.6388   -6.0241    0.0000 C   0  0  0  0  0  0  0  0  0  0  0  0
    4.9244   -6.4366    0.0000 C   0  0  0  0  0  0  0  0  0  0  0  0
    4.2099   -6.0241    0.0000 C   0  0  0  0  0  0  0  0  0  0  0  0
    3.4954   -6.4366    0.0000 C   0  0  0  0  0  0  0  0  0  0  0  0
    9.9256   -6.0241    0.0000 C   0  0  0  0  0  0  0  0  0  0  0  0
   10.6401   -6.4366    0.0000 C   0  0  0  0  0  0  0  0  0  0  0  0
   11.3546   -6.0241    0.0000 C   0  0  0  0  0  0  0  0  0  0  0  0
   10.6401   -7.2616    0.0000 C   0  0  0  0  0  0  0  0  0  0  0  0
  1  2  1  0  0  0  0
  1  3  2  0  0  0  0
  1  4  1  0  0  0  0
  2  5  2  0  0  0  0
  2  6  1  0  0  0  0
  7  8  1  0  0  0  0
  8  9  1  0  0  0  0
  9 10  1  0  0  0  0
 10 11  1  0  0  0  0
  4  7  1  0  0  0  0
 12 13  1  0  0  0  0
 13 14  1  0  0  0  0
 13 15  1  0  0  0  0
  6 12  1  0  0  0  0
M  END
>  <cdx:groupId>
1533

>  <cdx:fragmentId>
1492

$$$$
