301984.cdx
  Mrv1902 05222410232D          

 20 19  0  0  0  0            999 V2000
   13.1408   -5.1991    0.0000 C   0  0  0  0  0  0  0  0  0  0  0  0
   12.4263   -5.6116    0.0000 C   0  0  0  0  0  0  0  0  0  0  0  0
   11.7118   -5.1991    0.0000 C   0  0  0  0  0  0  0  0  0  0  0  0
   10.9974   -5.6116    0.0000 C   0  0  0  0  0  0  0  0  0  0  0  0
   10.2829   -6.0241    0.0000 C   0  0  0  0  0  0  0  0  0  0  0  0
    9.5684   -6.4366    0.0000 C   0  0  0  0  0  0  0  0  0  0  0  0
    8.8539   -6.8491    0.0000 C   0  0  0  0  0  0  0  0  0  0  0  0
    8.1395   -7.2616    0.0000 C   0  0  0  0  0  0  0  0  0  0  0  0
    7.4250   -6.8491    0.0000 C   0  0  0  0  0  0  0  0  0  0  0  0
    6.7105   -7.2616    0.0000 C   0  0  0  0  0  0  0  0  0  0  0  0
    5.9961   -6.8491    0.0000 C   0  0  0  0  0  0  0  0  0  0  0  0
    5.2816   -7.2616    0.0000 C   0  0  0  0  0  0  0  0  0  0  0  0
    4.5671   -6.8491    0.0000 C   0  0  0  0  0  0  0  0  0  0  0  0
    3.8526   -7.2616    0.0000 C   0  0  0  0  0  0  0  0  0  0  0  0
    3.1382   -6.8491    0.0000 C   0  0  0  0  0  0  0  0  0  0  0  0
    2.4237   -7.2616    0.0000 C   0  0  0  0  0  0  0  0  0  0  0  0
    1.7092   -6.8491    0.0000 C   0  0  0  0  0  0  0  0  0  0  0  0
   11.7118   -4.3741    0.0000 O   0  0  0  0  0  0  0  0  0  0  0  0
    7.4250   -6.0241    0.0000 O   0  0  0  0  0  0  0  0  0  0  0  0
    6.7105   -8.0866    0.0000 Cl  0  0  0  0  0  0  0  0  0  0  0  0
  1  2  2  0  0  0  0
  2  3  1  0  0  0  0
  3  4  1  0  0  0  0
  4  5  3  0  0  0  0
  5  6  1  0  0  0  0
  6  7  3  0  0  0  0
  7  8  1  0  0  0  0
  8  9  1  0  0  0  0
  9 10  1  0  0  0  0
 10 11  1  0  0  0  0
 11 12  1  0  0  0  0
 12 13  1  0  0  0  0
 13 14  1  0  0  0  0
 14 15  1  0  0  0  0
 15 16  1  0  0  0  0
 16 17  1  0  0  0  0
  3 18  1  0  0  0  0
  9 19  1  0  0  0  0
 10 20  1  0  0  0  0
M  END
>  <cdx:groupId>
3085

>  <cdx:fragmentId>
3029

$$$$
