301935.cdx
  Mrv1902 05222410282D          

 28 27  0  0  0  0            999 V2000
   12.1529   -6.4366    0.0000 C   0  0  0  0  0  0  0  0  0  0  0  0
   11.4384   -6.8491    0.0000 C   0  0  0  0  0  0  0  0  0  0  0  0
   10.7239   -6.4366    0.0000 C   0  0  0  0  0  0  0  0  0  0  0  0
   10.0095   -6.8491    0.0000 C   0  0  0  0  0  0  0  0  0  0  0  0
    9.2950   -6.4366    0.0000 C   0  0  0  0  0  0  0  0  0  0  0  0
    8.5805   -6.8491    0.0000 C   0  0  0  0  0  0  0  0  0  0  0  0
    7.8661   -6.4366    0.0000 C   0  0  0  0  0  0  0  0  0  0  0  0
    7.1516   -6.8491    0.0000 C   0  0  0  0  0  0  0  0  0  0  0  0
    6.4371   -6.4366    0.0000 C   0  0  0  0  0  0  0  0  0  0  0  0
    5.7226   -6.8491    0.0000 C   0  0  0  0  0  0  0  0  0  0  0  0
    5.0082   -6.4366    0.0000 C   0  0  0  0  0  0  0  0  0  0  0  0
    4.2937   -6.8491    0.0000 C   0  0  0  0  0  0  0  0  0  0  0  0
    3.5792   -6.4366    0.0000 C   0  0  0  0  0  0  0  0  0  0  0  0
    2.8648   -6.8491    0.0000 C   0  0  0  0  0  0  0  0  0  0  0  0
    2.1503   -6.4366    0.0000 C   0  0  0  0  0  0  0  0  0  0  0  0
    1.4358   -6.8491    0.0000 C   0  0  0  0  0  0  0  0  0  0  0  0
    0.7213   -6.4366    0.0000 C   0  0  0  0  0  0  0  0  0  0  0  0
    0.0069   -6.8491    0.0000 C   0  0  0  0  0  0  0  0  0  0  0  0
   12.1529   -5.6116    0.0000 O   0  0  0  0  0  0  0  0  0  0  0  0
   12.8674   -6.8491    0.0000 O   0  0  0  0  0  0  0  0  0  0  0  0
   13.5818   -6.4366    0.0000 C   0  0  0  0  0  0  0  0  0  0  0  0
   14.2963   -6.8491    0.0000 C   0  0  0  0  0  0  0  0  0  0  0  0
   15.0108   -6.4366    0.0000 C   0  0  0  0  0  0  0  0  0  0  0  0
   15.7252   -6.8491    0.0000 C   0  0  0  0  0  0  0  0  0  0  0  0
   16.4397   -6.4366    0.0000 C   0  0  0  0  0  0  0  0  0  0  0  0
   17.1542   -6.8491    0.0000 C   0  0  0  0  0  0  0  0  0  0  0  0
   17.8687   -6.4366    0.0000 C   0  0  0  0  0  0  0  0  0  0  0  0
   18.5831   -6.8491    0.0000 C   0  0  0  0  0  0  0  0  0  0  0  0
  1  2  1  0  0  0  0
  2  3  1  0  0  0  0
  3  4  1  0  0  0  0
  4  5  1  0  0  0  0
  5  6  1  0  0  0  0
  6  7  1  0  0  0  0
  7  8  1  0  0  0  0
  8  9  1  0  0  0  0
  9 10  1  0  0  0  0
 10 11  1  0  0  0  0
 11 12  1  0  0  0  0
 12 13  1  0  0  0  0
 13 14  1  0  0  0  0
 14 15  1  0  0  0  0
 15 16  1  0  0  0  0
 16 17  1  0  0  0  0
 17 18  1  0  0  0  0
  1 19  2  0  0  0  0
  1 20  1  0  0  0  0
 21 22  1  0  0  0  0
 22 23  1  0  0  0  0
 23 24  1  0  0  0  0
 24 25  1  0  0  0  0
 25 26  1  0  0  0  0
 26 27  1  0  0  0  0
 27 28  1  0  0  0  0
 20 21  1  0  0  0  0
M  END
>  <cdx:groupId>
85

>  <cdx:fragmentId>
5

$$$$
