301910.cdx
  Mrv1902 05222410182D          

 79 86  0  0  0  0            999 V2000
   18.3850   -4.8849    0.0000 O   0  0  0  0  0  0  0  0  0  0  0  0
   17.6646   -4.4830    0.0000 C   0  0  1  0  0  0  0  0  0  0  0  0
   17.6524   -3.6581    0.0000 C   0  0  1  0  0  0  0  0  0  0  0  0
   18.3607   -3.2351    0.0000 C   0  0  2  0  0  0  0  0  0  0  0  0
   19.0812   -3.6370    0.0000 C   0  0  2  0  0  0  0  0  0  0  0  0
   19.0934   -4.4619    0.0000 C   0  0  0  0  0  0  0  0  0  0  0  0
   16.9320   -3.2561    0.0000 O   0  0  0  0  0  0  0  0  0  0  0  0
   18.3486   -2.4102    0.0000 O   0  0  0  0  0  0  0  0  0  0  0  0
   19.7895   -3.2140    0.0000 O   0  0  0  0  0  0  0  0  0  0  0  0
   16.9563   -4.9060    0.0000 O   0  0  0  0  0  0  0  0  0  0  0  0
   16.9553   -5.7278    0.0000 C   0  0  0  0  0  0  0  0  0  0  0  0
   16.2592   -6.9757    0.0000 O   0  0  0  0  0  0  0  0  0  0  0  0
   16.2470   -6.1508    0.0000 C   0  0  1  0  0  0  0  0  0  0  0  0
   15.5266   -5.7489    0.0000 C   0  0  2  0  0  0  0  0  0  0  0  0
   14.8182   -6.1718    0.0000 C   0  0  1  0  0  0  0  0  0  0  0  0
   14.8304   -6.9968    0.0000 C   0  0  2  0  0  0  0  0  0  0  0  0
   15.5509   -7.3987    0.0000 C   0  0  1  0  0  0  0  0  0  0  0  0
   14.1221   -7.4197    0.0000 O   0  0  0  0  0  0  0  0  0  0  0  0
   14.0978   -5.7699    0.0000 O   0  0  0  0  0  0  0  0  0  0  0  0
   15.5144   -4.9240    0.0000 O   0  0  0  0  0  0  0  0  0  0  0  0
   15.5786   -8.2232    0.0000 O   0  0  0  0  0  0  0  0  0  0  0  0
   16.1454   -8.8072    0.0000 C   0  0  2  0  0  0  0  0  0  0  0  0
   12.2479  -10.6718    0.0000 C   0  0  0  0  0  0  0  0  0  0  0  0
   11.5335  -11.0843    0.0000 C   0  0  0  0  0  0  0  0  0  0  0  0
   11.5335  -11.9093    0.0000 C   0  0  1  0  0  0  0  0  0  0  0  0
   12.2479  -12.3218    0.0000 C   0  0  0  0  0  0  0  0  0  0  0  0
   12.9624  -11.9093    0.0000 C   0  0  2  0  0  0  0  0  0  0  0  0
   13.6769  -12.3218    0.0000 C   0  0  0  0  0  0  0  0  0  0  0  0
   14.3913  -11.9093    0.0000 C   0  0  0  0  0  0  0  0  0  0  0  0
   14.3913  -11.0843    0.0000 C   0  0  1  0  0  0  0  0  0  0  0  0
   15.1058  -10.6718    0.0000 C   0  0  2  0  0  0  0  0  0  0  0  0
   15.8904  -10.9267    0.0000 C   0  0  0  0  0  0  0  0  0  0  0  0
   16.3754  -10.2593    0.0000 C   0  0  0  0  0  0  0  0  0  0  0  0
   15.8904   -9.5919    0.0000 C   0  0  1  0  0  0  0  0  0  0  0  0
   15.1058   -9.8468    0.0000 C   0  0  1  0  0  0  0  0  0  0  0  0
   14.3913   -9.4343    0.0000 C   0  0  1  0  0  0  0  0  0  0  0  0
   13.6769   -9.8468    0.0000 C   0  0  0  0  0  0  0  0  0  0  0  0
   13.6769  -10.6718    0.0000 C   0  0  2  0  0  0  0  0  0  0  0  0
   12.9624  -11.0843    0.0000 C   0  0  1  0  0  0  0  0  0  0  0  0
   15.1058  -11.4968    0.0000 C   0  0  0  0  0  0  0  0  0  0  0  0
   12.9624  -10.2593    0.0000 C   0  0  0  0  0  0  0  0  0  0  0  0
   14.3913  -10.2593    0.0000 C   0  0  0  0  0  0  0  0  0  0  0  0
   12.6604  -13.0363    0.0000 C   0  0  0  0  0  0  0  0  0  0  0  0
   11.8354  -13.0363    0.0000 C   0  0  0  0  0  0  0  0  0  0  0  0
   14.3913   -8.6093    0.0000 O   0  0  0  0  0  0  0  0  0  0  0  0
   10.8190  -12.3218    0.0000 O   0  0  0  0  0  0  0  0  0  0  0  0
   10.1061  -11.0834    0.0000 O   0  0  0  0  0  0  0  0  0  0  0  0
   10.1050  -11.9084    0.0000 C   0  0  1  0  0  0  0  0  0  0  0  0
    9.3901  -12.3200    0.0000 C   0  0  1  0  0  0  0  0  0  0  0  0
    8.6761  -11.9066    0.0000 C   0  0  2  0  0  0  0  0  0  0  0  0
    8.6771  -11.0816    0.0000 C   0  0  2  0  0  0  0  0  0  0  0  0
    9.3921  -10.6700    0.0000 C   0  0  1  0  0  0  0  0  0  0  0  0
    9.3890  -13.1450    0.0000 O   0  0  0  0  0  0  0  0  0  0  0  0
    7.9601  -13.1432    0.0000 O   0  0  0  0  0  0  0  0  0  0  0  0
    8.6740  -13.5566    0.0000 C   0  0  2  0  0  0  0  0  0  0  0  0
    8.6730  -14.3816    0.0000 C   0  0  1  0  0  0  0  0  0  0  0  0
    7.9580  -14.7932    0.0000 C   0  0  2  0  0  0  0  0  0  0  0  0
    7.2441  -14.3798    0.0000 C   0  0  1  0  0  0  0  0  0  0  0  0
    7.2451  -13.5548    0.0000 C   0  0  1  0  0  0  0  0  0  0  0  0
    6.5311  -13.1414    0.0000 C   0  0  0  0  0  0  0  0  0  0  0  0
    6.5291  -14.7914    0.0000 O   0  0  0  0  0  0  0  0  0  0  0  0
    7.9570  -15.6182    0.0000 O   0  0  0  0  0  0  0  0  0  0  0  0
    9.3869  -14.7950    0.0000 O   0  0  0  0  0  0  0  0  0  0  0  0
    9.3932   -9.8450    0.0000 C   0  0  0  0  0  0  0  0  0  0  0  0
    8.6792   -9.4316    0.0000 O   0  0  0  0  0  0  0  0  0  0  0  0
    7.9632  -10.6682    0.0000 O   0  0  0  0  0  0  0  0  0  0  0  0
    7.9611  -12.3182    0.0000 O   0  0  0  0  0  0  0  0  0  0  0  0
   12.9624  -12.7343    0.0000 H   0  0  0  0  0  0  0  0  0  0  0  0
   13.6769  -11.4968    0.0000 H   0  0  0  0  0  0  0  0  0  0  0  0
   15.1921   -9.0263    0.0000 H   0  0  0  0  0  0  0  0  0  0  0  0
   16.7053   -9.4628    0.0000 H   0  0  0  0  0  0  0  0  0  0  0  0
    5.8161  -13.5530    0.0000 O   0  0  0  0  0  0  0  0  0  0  0  0
   16.9524   -8.6357    0.0000 C   0  0  0  0  0  0  0  0  0  0  0  0
   17.5044   -9.2488    0.0000 C   0  0  0  0  0  0  0  0  0  0  0  0
   18.3114   -9.0773    0.0000 C   0  0  0  0  0  0  0  0  0  0  0  0
   18.8634   -9.6904    0.0000 C   0  0  0  0  0  0  0  0  0  0  0  0
   19.6704   -9.5189    0.0000 C   0  0  0  0  0  0  0  0  0  0  0  0
   18.6085  -10.4750    0.0000 C   0  0  0  0  0  0  0  0  0  0  0  0
   16.4003   -8.0226    0.0000 C   0  0  0  0  0  0  0  0  0  0  0  0
  1  2  1  0  0  0  0
  2  3  1  0  0  0  0
  3  4  1  0  0  0  0
  4  5  1  0  0  0  0
  5  6  1  0  0  0  0
  1  6  1  0  0  0  0
  3  7  1  6  0  0  0
  4  8  1  1  0  0  0
  5  9  1  1  0  0  0
 12 13  1  0  0  0  0
 13 14  1  0  0  0  0
 14 15  1  0  0  0  0
 15 16  1  0  0  0  0
 16 17  1  0  0  0  0
 12 17  1  0  0  0  0
 16 18  1  6  0  0  0
 15 19  1  1  0  0  0
 14 20  1  6  0  0  0
 23 24  1  0  0  0  0
 24 25  1  0  0  0  0
 25 26  1  0  0  0  0
 26 27  1  0  0  0  0
 27 28  1  0  0  0  0
 28 29  1  0  0  0  0
 29 30  1  0  0  0  0
 30 31  1  0  0  0  0
 31 32  1  0  0  0  0
 32 33  1  0  0  0  0
 34 33  1  0  0  0  0
 34 35  1  0  0  0  0
 31 35  1  0  0  0  0
 35 36  1  0  0  0  0
 36 37  1  0  0  0  0
 37 38  1  0  0  0  0
 30 38  1  0  0  0  0
 38 39  1  0  0  0  0
 27 39  1  0  0  0  0
 23 39  1  0  0  0  0
 31 40  1  6  0  0  0
 39 41  1  1  0  0  0
 30 42  1  1  0  0  0
 26 43  1  0  0  0  0
 26 44  1  0  0  0  0
 36 45  1  1  0  0  0
 47 48  1  0  0  0  0
 48 49  1  0  0  0  0
 49 50  1  0  0  0  0
 50 51  1  0  0  0  0
 51 52  1  0  0  0  0
 47 52  1  0  0  0  0
 54 55  1  0  0  0  0
 55 56  1  0  0  0  0
 56 57  1  0  0  0  0
 57 58  1  0  0  0  0
 58 59  1  0  0  0  0
 54 59  1  0  0  0  0
 59 60  1  1  0  0  0
 58 61  1  6  0  0  0
 57 62  1  1  0  0  0
 56 63  1  6  0  0  0
 55 53  1  1  0  0  0
 49 53  1  6  0  0  0
 64 65  1  0  0  0  0
 52 64  1  1  0  0  0
 51 66  1  1  0  0  0
 50 67  1  1  0  0  0
 48 46  1  6  0  0  0
 25 46  1  1  0  0  0
 22 34  1  0  0  0  0
 17 21  1  6  0  0  0
 13 11  1  1  0  0  0
  2 10  1  6  0  0  0
 27 68  1  6  0  0  0
 38 69  1  6  0  0  0
 35 70  1  1  0  0  0
 34 71  1  6  0  0  0
 10 11  1  0  0  0  0
 60 72  1  0  0  0  0
 22 73  1  0  0  0  0
 73 74  1  0  0  0  0
 74 75  1  0  0  0  0
 75 76  2  0  0  0  0
 76 77  1  0  0  0  0
 76 78  1  0  0  0  0
 22 79  1  6  0  0  0
 22 21  1  1  0  0  0
M  END
>  <cdx:fragmentId>
31612

$$$$
