301927.cdx
  Mrv1902 05222410262D          

 20 19  0  0  0  0            999 V2000
    1.1810   -6.8202    0.0000 N   0  0  0  0  0  0  0  0  0  0  0  0
    1.8955   -5.5827    0.0000 O   0  0  0  0  0  0  0  0  0  0  0  0
   14.0415   -6.8202    0.0000 C   0  0  0  0  0  0  0  0  0  0  0  0
   13.3270   -6.4077    0.0000 C   0  0  0  0  0  0  0  0  0  0  0  0
   12.6126   -6.8202    0.0000 C   0  0  0  0  0  0  0  0  0  0  0  0
   11.8981   -6.4077    0.0000 C   0  0  0  0  0  0  0  0  0  0  0  0
   11.1836   -6.8202    0.0000 C   0  0  0  0  0  0  0  0  0  0  0  0
   10.4691   -6.4077    0.0000 C   0  0  0  0  0  0  0  0  0  0  0  0
    9.7547   -6.8202    0.0000 C   0  0  0  0  0  0  0  0  0  0  0  0
    9.0402   -6.4077    0.0000 C   0  0  0  0  0  0  0  0  0  0  0  0
    8.3257   -6.8202    0.0000 C   0  0  0  0  0  0  0  0  0  0  0  0
    7.6113   -6.4077    0.0000 C   0  0  0  0  0  0  0  0  0  0  0  0
    6.8968   -6.8202    0.0000 C   0  0  0  0  0  0  0  0  0  0  0  0
    6.1823   -6.4077    0.0000 C   0  0  0  0  0  0  0  0  0  0  0  0
    5.4679   -6.8202    0.0000 C   0  0  0  0  0  0  0  0  0  0  0  0
    4.7534   -6.4077    0.0000 C   0  0  0  0  0  0  0  0  0  0  0  0
    4.0389   -6.8202    0.0000 C   0  0  0  0  0  0  0  0  0  0  0  0
    3.3244   -6.4077    0.0000 C   0  0  0  0  0  0  0  0  0  0  0  0
    2.6100   -6.8202    0.0000 C   0  0  0  0  0  0  0  0  0  0  0  0
    1.8955   -6.4077    0.0000 C   0  0  0  0  0  0  0  0  0  0  0  0
 20  1  1  0  0  0  0
 20  2  2  0  0  0  0
  4  3  1  0  0  0  0
  5  4  1  0  0  0  0
  6  5  1  0  0  0  0
  7  6  1  0  0  0  0
  8  7  1  0  0  0  0
  9  8  1  0  0  0  0
 10  9  1  0  0  0  0
 11 10  1  0  0  0  0
 12 11  1  0  0  0  0
 13 12  1  0  0  0  0
 14 13  1  0  0  0  0
 15 14  1  0  0  0  0
 16 15  1  0  0  0  0
 17 16  1  0  0  0  0
 18 17  1  0  0  0  0
 19 18  1  0  0  0  0
 20 19  1  0  0  0  0
M  END
>  <cdx:groupId>
818

>  <cdx:fragmentId>
762

$$$$
