301926.cdx
  Mrv1902 05222410272D          

 37 41  0  0  0  0            999 V2000
    8.8539   -4.6237    0.0000 C   0  0  1  0  0  0  0  0  0  0  0  0
    9.5684   -4.2112    0.0000 C   0  0  1  0  0  0  0  0  0  0  0  0
   10.2829   -4.6237    0.0000 C   0  0  0  0  0  0  0  0  0  0  0  0
   10.2829   -5.4487    0.0000 C   0  0  0  0  0  0  0  0  0  0  0  0
    9.5684   -5.8612    0.0000 C   0  0  2  0  0  0  0  0  0  0  0  0
    9.5684   -6.6862    0.0000 C   0  0  0  0  0  0  0  0  0  0  0  0
    8.8539   -7.0987    0.0000 C   0  0  0  0  0  0  0  0  0  0  0  0
    8.1395   -6.6862    0.0000 C   0  0  1  0  0  0  0  0  0  0  0  0
    7.4250   -7.0987    0.0000 C   0  0  2  0  0  0  0  0  0  0  0  0
    7.4250   -7.9237    0.0000 C   0  0  0  0  0  0  0  0  0  0  0  0
    6.7105   -8.3362    0.0000 C   0  0  0  0  0  0  0  0  0  0  0  0
    5.9961   -7.9237    0.0000 C   0  0  1  0  0  0  0  0  0  0  0  0
    5.2816   -8.3362    0.0000 C   0  0  0  0  0  0  0  0  0  0  0  0
    4.5671   -7.9237    0.0000 C   0  0  2  0  0  0  0  0  0  0  0  0
    4.5671   -7.0987    0.0000 C   0  0  0  0  0  0  0  0  0  0  0  0
    5.2816   -6.6862    0.0000 C   0  0  0  0  0  0  0  0  0  0  0  0
    5.9961   -7.0987    0.0000 C   0  0  2  0  0  0  0  0  0  0  0  0
    6.7105   -6.6862    0.0000 C   0  0  1  0  0  0  0  0  0  0  0  0
    6.7105   -5.8612    0.0000 C   0  0  0  0  0  0  0  0  0  0  0  0
    7.4250   -5.4487    0.0000 C   0  0  0  0  0  0  0  0  0  0  0  0
    8.1395   -5.8612    0.0000 C   0  0  0  0  0  0  0  0  0  0  0  0
    8.8539   -5.4487    0.0000 C   0  0  2  0  0  0  0  0  0  0  0  0
   10.2829   -6.2737    0.0000 C   0  0  0  0  0  0  0  0  0  0  0  0
   10.2829   -7.0987    0.0000 O   0  0  0  0  0  0  0  0  0  0  0  0
   10.9974   -5.8612    0.0000 O   0  0  0  0  0  0  0  0  0  0  0  0
    5.9961   -5.4487    0.0000 O   0  0  0  0  0  0  0  0  0  0  0  0
    5.9961   -6.2737    0.0000 C   0  0  0  0  0  0  0  0  0  0  0  0
    5.6941   -9.0507    0.0000 C   0  0  0  0  0  0  0  0  0  0  0  0
    4.8691   -9.0507    0.0000 C   0  0  0  0  0  0  0  0  0  0  0  0
    9.5684   -3.3862    0.0000 C   0  0  0  0  0  0  0  0  0  0  0  0
    8.1395   -4.2112    0.0000 C   0  0  0  0  0  0  0  0  0  0  0  0
    3.8526   -8.3362    0.0000 O   0  0  0  0  0  0  0  0  0  0  0  0
    5.9961   -8.7487    0.0000 H   0  0  0  0  0  0  0  0  0  0  0  0
    8.1395   -5.0362    0.0000 H   0  0  0  0  0  0  0  0  0  0  0  0
    8.1395   -7.5112    0.0000 C   0  0  0  0  0  0  0  0  0  0  0  0
    7.4250   -6.2737    0.0000 C   0  0  0  0  0  0  0  0  0  0  0  0
    6.7105   -7.5112    0.0000 H   0  0  0  0  0  0  0  0  0  0  0  0
  1  2  1  0  0  0  0
  2  3  1  0  0  0  0
  3  4  1  0  0  0  0
  4  5  1  0  0  0  0
  5  6  1  0  0  0  0
  6  7  1  0  0  0  0
  7  8  1  0  0  0  0
  8  9  1  0  0  0  0
  9 10  1  0  0  0  0
 10 11  1  0  0  0  0
 11 12  1  0  0  0  0
 12 13  1  0  0  0  0
 13 14  1  0  0  0  0
 14 15  1  0  0  0  0
 15 16  1  0  0  0  0
 16 17  1  0  0  0  0
 12 17  1  0  0  0  0
 17 18  1  0  0  0  0
  9 18  1  0  0  0  0
 18 19  1  0  0  0  0
 19 20  1  0  0  0  0
 20 21  2  0  0  0  0
  8 21  1  0  0  0  0
 21 22  1  0  0  0  0
  5 22  1  0  0  0  0
  1 22  1  0  0  0  0
 23 24  2  0  0  0  0
 23 25  1  0  0  0  0
  5 23  1  1  0  0  0
 19 26  2  0  0  0  0
 17 27  1  1  0  0  0
 13 28  1  0  0  0  0
 13 29  1  0  0  0  0
  2 30  1  6  0  0  0
  1 31  1  1  0  0  0
 14 32  1  1  0  0  0
 12 33  1  6  0  0  0
 22 34  1  1  0  0  0
  8 35  1  6  0  0  0
  9 36  1  1  0  0  0
 18 37  1  6  0  0  0
M  END
>  <cdx:fragmentId>
633

$$$$
