301976.cdx
  Mrv1902 05222410232D          

 23 25  0  0  0  0            999 V2000
    4.7899   -4.1113    0.0000 C   0  0  0  0  0  0  0  0  0  0  0  0
    4.7899   -4.9363    0.0000 C   0  0  0  0  0  0  0  0  0  0  0  0
    5.5044   -5.3487    0.0000 C   0  0  0  0  0  0  0  0  0  0  0  0
    6.2189   -4.9363    0.0000 C   0  0  0  0  0  0  0  0  0  0  0  0
    6.2189   -4.1113    0.0000 C   0  0  0  0  0  0  0  0  0  0  0  0
    5.5044   -3.6988    0.0000 C   0  0  0  0  0  0  0  0  0  0  0  0
    6.9333   -5.3487    0.0000 C   0  0  0  0  0  0  0  0  0  0  0  0
    7.6478   -4.9363    0.0000 C   0  0  0  0  0  0  0  0  0  0  0  0
    7.6478   -4.1113    0.0000 C   0  0  0  0  0  0  0  0  0  0  0  0
    6.9333   -3.6988    0.0000 O   0  0  0  0  0  0  0  0  0  0  0  0
    4.0755   -3.6987    0.0000 O   0  0  0  0  0  0  0  0  0  0  0  0
    5.5044   -6.1737    0.0000 O   0  0  0  0  0  0  0  0  0  0  0  0
    6.9333   -6.1737    0.0000 O   0  0  0  0  0  0  0  0  0  0  0  0
    8.3623   -3.6987    0.0000 C   0  0  0  0  0  0  0  0  0  0  0  0
    9.0768   -4.1112    0.0000 C   0  0  0  0  0  0  0  0  0  0  0  0
    9.7912   -3.6987    0.0000 C   0  0  0  0  0  0  0  0  0  0  0  0
    9.7912   -2.8737    0.0000 C   0  0  0  0  0  0  0  0  0  0  0  0
    9.0768   -2.4612    0.0000 C   0  0  0  0  0  0  0  0  0  0  0  0
    8.3623   -2.8737    0.0000 C   0  0  0  0  0  0  0  0  0  0  0  0
   10.5057   -2.4612    0.0000 O   0  0  0  0  0  0  0  0  0  0  0  0
    9.0768   -1.6363    0.0000 O   0  0  0  0  0  0  0  0  0  0  0  0
    8.3623   -1.2238    0.0000 C   0  0  0  0  0  0  0  0  0  0  0  0
    3.3610   -4.1112    0.0000 C   0  0  0  0  0  0  0  0  0  0  0  0
  1  2  2  0  0  0  0
  2  3  1  0  0  0  0
  3  4  2  0  0  0  0
  4  5  1  0  0  0  0
  5  6  2  0  0  0  0
  6  1  1  0  0  0  0
  4  7  1  0  0  0  0
  7  8  1  0  0  0  0
  8  9  1  0  0  0  0
  9 10  1  0  0  0  0
 10  5  1  0  0  0  0
  1 11  1  0  0  0  0
  3 12  1  0  0  0  0
  7 13  2  0  0  0  0
  9 14  1  0  0  0  0
 14 15  2  0  0  0  0
 15 16  1  0  0  0  0
 16 17  2  0  0  0  0
 17 18  1  0  0  0  0
 18 19  2  0  0  0  0
 19 14  1  0  0  0  0
 17 20  1  0  0  0  0
 18 21  1  0  0  0  0
 21 22  1  0  0  0  0
 11 23  1  0  0  0  0
M  END
>  <cdx:fragmentId>
2357

$$$$
