301989.cdx
  Mrv1902 05222410232D          

 27 30  0  0  0  0            999 V2000
    6.1770   -8.6366    0.0000 C   0  0  0  0  0  0  0  0  0  0  0  0
    6.4766   -7.8680    0.0000 C   0  0  0  0  0  0  0  0  0  0  0  0
    5.9613   -7.2237    0.0000 C   0  0  0  0  0  0  0  0  0  0  0  0
    6.1437   -6.4191    0.0000 C   0  0  0  0  0  0  0  0  0  0  0  0
    6.8865   -6.0601    0.0000 C   0  0  0  0  0  0  0  0  0  0  0  0
    7.6303   -6.4170    0.0000 C   0  0  0  0  0  0  0  0  0  0  0  0
    7.8151   -7.2211    0.0000 C   0  0  0  0  0  0  0  0  0  0  0  0
    7.3016   -7.8668    0.0000 C   0  0  0  0  0  0  0  0  0  0  0  0
    7.6059   -8.6346    0.0000 C   0  0  0  0  0  0  0  0  0  0  0  0
    8.3210   -9.0461    0.0000 N   0  0  0  0  0  0  0  0  0  0  0  0
    8.3222   -9.8711    0.0000 C   0  0  0  0  0  0  0  0  0  0  0  0
    7.6083  -10.2846    0.0000 C   0  0  0  0  0  0  0  0  0  0  0  0
    6.8932   -9.8731    0.0000 C   0  0  0  0  0  0  0  0  0  0  0  0
    6.1793  -10.2866    0.0000 C   0  0  0  0  0  0  0  0  0  0  0  0
    5.4643   -9.8752    0.0000 C   0  0  0  0  0  0  0  0  0  0  0  0
    5.4631   -9.0502    0.0000 C   0  0  0  0  0  0  0  0  0  0  0  0
    6.8921   -9.0481    0.0000 C   0  0  0  0  0  0  0  0  0  0  0  0
    6.8854   -5.2351    0.0000 O   0  0  0  0  0  0  0  0  0  0  0  0
    4.7481   -8.6387    0.0000 O   0  0  0  0  0  0  0  0  0  0  0  0
    4.7469   -7.8137    0.0000 C   0  0  0  0  0  0  0  0  0  0  0  0
    4.7504  -10.2887    0.0000 O   0  0  0  0  0  0  0  0  0  0  0  0
    4.7516  -11.1137    0.0000 C   0  0  0  0  0  0  0  0  0  0  0  0
    6.1805  -11.1116    0.0000 O   0  0  0  0  0  0  0  0  0  0  0  0
    5.4666  -11.5251    0.0000 C   0  0  0  0  0  0  0  0  0  0  0  0
    8.6196   -7.4035    0.0000 O   0  0  0  0  0  0  0  0  0  0  0  0
    9.1799   -6.7979    0.0000 C   0  0  0  0  0  0  0  0  0  0  0  0
    8.2622   -5.8865    0.0000 O   0  0  0  0  0  0  0  0  0  0  0  0
  1  2  1  0  0  0  0
  2  3  1  0  0  0  0
  3  4  2  0  0  0  0
  4  5  1  0  0  0  0
  5  6  1  0  0  0  0
  6  7  2  0  0  0  0
  7  8  1  0  0  0  0
  8  9  1  0  0  0  0
  9 10  2  0  0  0  0
 10 11  1  0  0  0  0
 11 12  2  0  0  0  0
 12 13  1  0  0  0  0
 13 14  1  0  0  0  0
 14 15  2  0  0  0  0
 15 16  1  0  0  0  0
  1 16  2  0  0  0  0
  1 17  1  0  0  0  0
 17  9  1  0  0  0  0
  2  8  2  0  0  0  0
 13 17  2  0  0  0  0
  5 18  2  0  0  0  0
 19 20  1  0  0  0  0
 16 19  1  0  0  0  0
 21 22  1  0  0  0  0
 15 21  1  0  0  0  0
 23 24  1  0  0  0  0
 14 23  1  0  0  0  0
 25 26  1  0  0  0  0
  7 25  1  0  0  0  0
  6 27  1  0  0  0  0
M  END
>  <cdx:fragmentId>
3169

$$$$
