301973.cdx
  Mrv1902 05222410212D          

 10 10  0  0  0  0            999 V2000
    7.2815   -8.3631    0.0000 C   0  0  0  0  0  0  0  0  0  0  0  0
    7.9960   -4.6506    0.0000 C   0  0  0  0  0  0  0  0  0  0  0  0
    7.2815   -5.0631    0.0000 C   0  0  0  0  0  0  0  0  0  0  0  0
    6.5670   -4.6506    0.0000 C   0  0  0  0  0  0  0  0  0  0  0  0
    6.5670   -7.1256    0.0000 C   0  0  0  0  0  0  0  0  0  0  0  0
    6.5670   -6.3006    0.0000 C   0  0  0  0  0  0  0  0  0  0  0  0
    7.2815   -5.8881    0.0000 C   0  0  0  0  0  0  0  0  0  0  0  0
    7.9960   -6.3006    0.0000 C   0  0  0  0  0  0  0  0  0  0  0  0
    7.9960   -7.1256    0.0000 C   0  0  0  0  0  0  0  0  0  0  0  0
    7.2815   -7.5381    0.0000 C   0  0  0  0  0  0  0  0  0  0  0  0
 10  1  2  0  0  0  0
  7  3  1  0  0  0  0
  3  2  1  0  0  0  0
  4  3  2  0  0  0  0
 10  5  1  0  0  0  0
  6  5  1  0  0  0  0
  7  6  1  0  0  0  0
  8  7  1  0  0  0  0
  9  8  1  0  0  0  0
 10  9  1  0  0  0  0
M  END
>  <cdx:groupId>
1947

>  <cdx:fragmentId>
1920

$$$$
