301945.cdx
  Mrv1902 05222410242D          

 36 39  0  0  0  0            999 V2000
    7.1715   -5.0988    0.0000 C   0  0  0  0  0  0  0  0  0  0  0  0
    7.8794   -4.6752    0.0000 C   0  0  0  0  0  0  0  0  0  0  0  0
    8.6003   -5.0765    0.0000 C   0  0  0  0  0  0  0  0  0  0  0  0
    8.6131   -5.9014    0.0000 C   0  0  2  0  0  0  0  0  0  0  0  0
    7.9052   -6.3250    0.0000 C   0  0  1  0  0  0  0  0  0  0  0  0
    7.1844   -5.9237    0.0000 O   0  0  0  0  0  0  0  0  0  0  0  0
    7.8666   -3.8503    0.0000 C   0  0  0  0  0  0  0  0  0  0  0  0
    9.3082   -4.6529    0.0000 C   0  0  0  0  0  0  0  0  0  0  0  0
    9.2953   -3.8280    0.0000 C   0  0  0  0  0  0  0  0  0  0  0  0
    8.5745   -3.4267    0.0000 O   0  0  0  0  0  0  0  0  0  0  0  0
    7.1457   -3.4490    0.0000 O   0  0  0  0  0  0  0  0  0  0  0  0
    9.3340   -6.3027    0.0000 C   0  0  0  0  0  0  0  0  0  0  0  0
    9.3469   -7.1276    0.0000 C   0  0  0  0  0  0  0  0  0  0  0  0
    7.9181   -7.1499    0.0000 O   0  0  0  0  0  0  0  0  0  0  0  0
    6.4752   -9.6168    0.0000 O   0  0  0  0  0  0  0  0  0  0  0  0
    5.0509   -8.7837    0.0000 O   0  0  0  0  0  0  0  0  0  0  0  0
    4.3434   -7.5422    0.0000 O   0  0  0  0  0  0  0  0  0  0  0  0
    5.0602   -7.1337    0.0000 C   0  0  0  0  0  0  0  0  0  0  0  0
    5.7724   -7.5503    0.0000 C   0  0  2  0  0  0  0  0  0  0  0  0
    5.7677   -8.3753    0.0000 C   0  0  2  0  0  0  0  0  0  0  0  0
    6.4798   -8.7918    0.0000 C   0  0  1  0  0  0  0  0  0  0  0  0
    7.1966   -8.3834    0.0000 C   0  0  2  0  0  0  0  0  0  0  0  0
    7.2013   -7.5584    0.0000 C   0  0  1  0  0  0  0  0  0  0  0  0
    6.4892   -7.1418    0.0000 O   0  0  0  0  0  0  0  0  0  0  0  0
   11.4600  -12.5326    0.0000 O   0  0  0  0  0  0  0  0  0  0  0  0
   10.0404  -10.8745    0.0000 C   0  0  0  0  0  0  0  0  0  0  0  0
   10.7526  -11.2910    0.0000 C   0  0  0  0  0  0  0  0  0  0  0  0
   10.7479  -12.1160    0.0000 C   0  0  0  0  0  0  0  0  0  0  0  0
   10.0311  -12.5245    0.0000 C   0  0  0  0  0  0  0  0  0  0  0  0
    9.3190  -12.1079    0.0000 C   0  0  0  0  0  0  0  0  0  0  0  0
    9.3236  -11.2829    0.0000 C   0  0  0  0  0  0  0  0  0  0  0  0
    7.9087   -8.7999    0.0000 O   0  0  0  0  0  0  0  0  0  0  0  0
    7.1873  -10.0333    0.0000 O   0  0  0  0  0  0  0  0  0  0  0  0
    8.6115  -10.8664    0.0000 C   0  0  0  0  0  0  0  0  0  0  0  0
    8.6162  -10.0414    0.0000 C   0  0  0  0  0  0  0  0  0  0  0  0
    7.9041   -9.6249    0.0000 C   0  0  0  0  0  0  0  0  0  0  0  0
 22 32  1  6  0  0  0
 23 14  1  1  0  0  0
 21 15  1  1  0  0  0
 20 16  1  6  0  0  0
 19 18  1  1  0  0  0
 18 17  1  0  0  0  0
 24 19  1  0  0  0  0
 20 19  1  0  0  0  0
 21 20  1  0  0  0  0
 22 21  1  0  0  0  0
 23 22  1  0  0  0  0
 24 23  1  0  0  0  0
 34 31  1  0  0  0  0
 28 25  1  0  0  0  0
 31 26  2  0  0  0  0
 27 26  1  0  0  0  0
 28 27  2  0  0  0  0
 29 28  1  0  0  0  0
 30 29  2  0  0  0  0
 31 30  1  0  0  0  0
 36 32  1  0  0  0  0
 36 33  2  0  0  0  0
 35 34  2  0  0  0  0
 36 35  1  0  0  0  0
  1  2  2  0  0  0  0
  2  3  1  0  0  0  0
  3  4  1  0  0  0  0
  4  5  1  0  0  0  0
  5  6  1  0  0  0  0
  1  6  1  0  0  0  0
  8  9  1  0  0  0  0
  9 10  1  0  0  0  0
  7 10  1  0  0  0  0
  7  2  1  0  0  0  0
  8  3  2  0  0  0  0
  7 11  2  0  0  0  0
 12 13  2  0  0  0  0
  4 12  1  1  0  0  0
  5 14  1  6  0  0  0
M  END
>  <cdx:fragmentId>
357

$$$$
