301968.cdx
  Mrv1902 05222410252D          

 26 29  0  0  0  0            999 V2000
    7.7822   -6.4281    0.0000 C   0  0  0  0  0  0  0  0  0  0  0  0
    7.7822   -7.2531    0.0000 N   0  0  0  0  0  0  0  0  0  0  0  0
    8.4967   -7.6656    0.0000 C   0  0  0  0  0  0  0  0  0  0  0  0
    9.2112   -7.2531    0.0000 C   0  0  0  0  0  0  0  0  0  0  0  0
    9.2112   -6.4281    0.0000 C   0  0  0  0  0  0  0  0  0  0  0  0
    9.9256   -6.0156    0.0000 C   0  0  0  0  0  0  0  0  0  0  0  0
    9.9256   -5.1906    0.0000 C   0  0  0  0  0  0  0  0  0  0  0  0
    9.2112   -4.7781    0.0000 C   0  0  0  0  0  0  0  0  0  0  0  0
    8.4967   -5.1906    0.0000 C   0  0  0  0  0  0  0  0  0  0  0  0
    8.4967   -6.0156    0.0000 C   0  0  0  0  0  0  0  0  0  0  0  0
    7.0678   -7.6656    0.0000 C   0  0  0  0  0  0  0  0  0  0  0  0
    7.0678   -6.0156    0.0000 C   0  0  0  0  0  0  0  0  0  0  0  0
    6.3533   -6.4281    0.0000 C   0  0  0  0  0  0  0  0  0  0  0  0
    5.6388   -6.0156    0.0000 C   0  0  0  0  0  0  0  0  0  0  0  0
    4.9244   -6.4281    0.0000 C   0  0  0  0  0  0  0  0  0  0  0  0
    4.9244   -7.2531    0.0000 C   0  0  0  0  0  0  0  0  0  0  0  0
    5.6388   -7.6656    0.0000 C   0  0  0  0  0  0  0  0  0  0  0  0
    6.3533   -7.2531    0.0000 C   0  0  0  0  0  0  0  0  0  0  0  0
    4.2099   -7.6656    0.0000 O   0  0  0  0  0  0  0  0  0  0  0  0
    3.4954   -7.2531    0.0000 C   0  0  0  0  0  0  0  0  0  0  0  0
    5.6388   -8.4906    0.0000 O   0  0  0  0  0  0  0  0  0  0  0  0
    4.9244   -8.9031    0.0000 C   0  0  0  0  0  0  0  0  0  0  0  0
   10.6401   -4.7781    0.0000 O   0  0  0  0  0  0  0  0  0  0  0  0
   11.3546   -5.1906    0.0000 C   0  0  0  0  0  0  0  0  0  0  0  0
    9.2112   -3.9531    0.0000 O   0  0  0  0  0  0  0  0  0  0  0  0
    9.9256   -3.5406    0.0000 C   0  0  0  0  0  0  0  0  0  0  0  0
  1  2  1  0  0  0  0
  2  3  1  0  0  0  0
  3  4  2  0  0  0  0
  4  5  1  0  0  0  0
  5  6  1  0  0  0  0
  6  7  2  0  0  0  0
  7  8  1  0  0  0  0
  8  9  2  0  0  0  0
  9 10  1  0  0  0  0
  1 10  1  0  0  0  0
  5 10  2  0  0  0  0
 12 13  1  0  0  0  0
 13 14  1  0  0  0  0
 14 15  2  0  0  0  0
 15 16  1  0  0  0  0
 16 17  2  0  0  0  0
 17 18  1  0  0  0  0
 11 18  1  0  0  0  0
 13 18  2  0  0  0  0
 12  1  2  0  0  0  0
 11  2  1  0  0  0  0
 19 20  1  0  0  0  0
 16 19  1  0  0  0  0
 21 22  1  0  0  0  0
 17 21  1  0  0  0  0
 23 24  1  0  0  0  0
  7 23  1  0  0  0  0
 25 26  1  0  0  0  0
  8 25  1  0  0  0  0
M  END
>  <cdx:groupId>
1645

>  <cdx:fragmentId>
1567

$$$$
