301961.cdx
  Mrv1902 05222410222D          

 10 11  0  0  0  0            999 V2000
    7.2875   -6.3525    0.0000 C   0  0  0  0  0  0  0  0  0  0  0  0
    6.6550   -6.8200    0.0000 C   0  0  0  0  0  0  0  0  0  0  0  0
    6.0775   -6.3525    0.0000 C   0  0  0  0  0  0  0  0  0  0  0  0
    6.3800   -5.6925    0.0000 C   0  0  0  0  0  0  0  0  0  0  0  0
    7.4800   -5.6100    0.0000 C   0  0  0  0  0  0  0  0  0  0  0  0
    8.0358   -6.2582    0.0000 C   0  0  0  0  0  0  0  0  0  0  0  0
    7.0400   -4.8125    0.0000 C   0  0  0  0  0  0  0  0  0  0  0  0
    8.8327   -6.0447    0.0000 C   0  0  0  0  0  0  0  0  0  0  0  0
    8.6192   -6.8415    0.0000 C   0  0  0  0  0  0  0  0  0  0  0  0
    5.2806   -6.5660    0.0000 C   0  0  0  0  0  0  0  0  0  0  0  0
  1  2  1  0  0  0  0
  2  3  1  0  0  0  0
  3  4  2  0  0  0  0
  4  5  1  0  0  0  0
  5  6  1  0  0  0  0
  1  6  1  0  0  0  0
  1  7  1  0  0  0  0
  7  5  1  0  0  0  0
  6  8  1  0  0  0  0
  6  9  1  0  0  0  0
  3 10  1  0  0  0  0
M  END
>  <cdx:fragmentId>
1284

$$$$
