301937.cdx
  Mrv1902 05222410272D          

 37 42  0  0  0  0            999 V2000
   10.0717   -5.8094    0.0000 C   0  0  2  0  0  0  0  0  0  0  0  0
   10.0717   -6.6344    0.0000 C   0  0  0  0  0  0  0  0  0  0  0  0
    9.3572   -7.0469    0.0000 C   0  0  0  0  0  0  0  0  0  0  0  0
    8.6428   -6.6344    0.0000 C   0  0  1  0  0  0  0  0  0  0  0  0
    7.9283   -7.0469    0.0000 C   0  0  2  0  0  0  0  0  0  0  0  0
    7.9283   -7.8719    0.0000 C   0  0  0  0  0  0  0  0  0  0  0  0
    7.2138   -8.2844    0.0000 C   0  0  0  0  0  0  0  0  0  0  0  0
    6.4993   -7.8719    0.0000 C   0  0  1  0  0  0  0  0  0  0  0  0
    5.7849   -8.2844    0.0000 C   0  0  0  0  0  0  0  0  0  0  0  0
    5.0704   -7.8719    0.0000 C   0  0  2  0  0  0  0  0  0  0  0  0
    5.0704   -7.0469    0.0000 C   0  0  0  0  0  0  0  0  0  0  0  0
    5.7849   -6.6344    0.0000 C   0  0  0  0  0  0  0  0  0  0  0  0
    6.4993   -7.0469    0.0000 C   0  0  2  0  0  0  0  0  0  0  0  0
    7.2138   -6.6344    0.0000 C   0  0  1  0  0  0  0  0  0  0  0  0
    7.2138   -5.8094    0.0000 C   0  0  0  0  0  0  0  0  0  0  0  0
    7.9283   -5.3969    0.0000 C   0  0  1  0  0  0  0  0  0  0  0  0
    8.6428   -5.8094    0.0000 C   0  0  2  0  0  0  0  0  0  0  0  0
    9.3572   -5.3969    0.0000 C   0  0  2  0  0  0  0  0  0  0  0  0
    9.3572   -4.5719    0.0000 C   0  0  0  0  0  0  0  0  0  0  0  0
   10.0717   -4.1594    0.0000 C   0  0  0  0  0  0  0  0  0  0  0  0
   10.7862   -4.5719    0.0000 C   0  0  0  0  0  0  0  0  0  0  0  0
   10.7862   -5.3969    0.0000 C   0  0  0  0  0  0  0  0  0  0  0  0
    9.6964   -5.2416    0.0000 C   0  0  0  0  0  0  0  0  0  0  0  0
    9.0157   -5.2416    0.0000 O   0  0  0  0  0  0  0  0  0  0  0  0
   10.0057   -4.7057    0.0000 O   0  0  0  0  0  0  0  0  0  0  0  0
    9.6592   -3.4449    0.0000 C   0  0  0  0  0  0  0  0  0  0  0  0
   10.4842   -3.4449    0.0000 C   0  0  0  0  0  0  0  0  0  0  0  0
    6.4993   -6.2219    0.0000 C   0  0  0  0  0  0  0  0  0  0  0  0
    6.1974   -8.9988    0.0000 C   0  0  0  0  0  0  0  0  0  0  0  0
    5.3724   -8.9988    0.0000 C   0  0  0  0  0  0  0  0  0  0  0  0
    7.9283   -6.2219    0.0000 C   0  0  0  0  0  0  0  0  0  0  0  0
    8.6428   -7.4594    0.0000 C   0  0  0  0  0  0  0  0  0  0  0  0
    7.9283   -4.5719    0.0000 O   0  0  0  0  0  0  0  0  0  0  0  0
    4.3559   -8.2844    0.0000 O   0  0  0  0  0  0  0  0  0  0  0  0
    6.4993   -8.6969    0.0000 H   0  0  0  0  0  0  0  0  0  0  0  0
    7.2138   -7.4594    0.0000 H   0  0  0  0  0  0  0  0  0  0  0  0
    9.3572   -6.2219    0.0000 H   0  0  0  0  0  0  0  0  0  0  0  0
  1  2  1  0  0  0  0
  2  3  1  0  0  0  0
  3  4  1  0  0  0  0
  4  5  1  0  0  0  0
  5  6  1  0  0  0  0
  6  7  1  0  0  0  0
  7  8  1  0  0  0  0
  8  9  1  0  0  0  0
  9 10  1  0  0  0  0
 10 11  1  0  0  0  0
 11 12  1  0  0  0  0
 12 13  1  0  0  0  0
 13 14  1  0  0  0  0
 14 15  1  0  0  0  0
 15 16  1  0  0  0  0
 16 17  1  0  0  0  0
 17 18  1  0  0  0  0
 18 19  1  0  0  0  0
 19 20  1  0  0  0  0
 20 21  1  0  0  0  0
 21 22  1  0  0  0  0
 23 24  1  0  0  0  0
  1 22  1  0  0  0  0
  1 23  1  1  0  0  0
 17 24  1  1  0  0  0
  1 18  1  0  0  0  0
  4 17  1  0  0  0  0
  5 14  1  0  0  0  0
  8 13  1  0  0  0  0
 23 25  2  0  0  0  0
 20 26  1  0  0  0  0
 20 27  1  0  0  0  0
 13 28  1  1  0  0  0
  9 29  1  0  0  0  0
  9 30  1  0  0  0  0
  5 31  1  1  0  0  0
  4 32  1  6  0  0  0
 16 33  1  6  0  0  0
 10 34  1  1  0  0  0
  8 35  1  6  0  0  0
 14 36  1  6  0  0  0
 18 37  1  1  0  0  0
M  END
>  <cdx:groupId>
235

>  <cdx:fragmentId>
122

$$$$
