301912.cdx
  Mrv1902 05222410182D          

 21 23  0  0  0  0            999 V2000
    5.3237   -8.9925    0.0000 C   0  0  0  0  0  0  0  0  0  0  0  0
    5.3237   -9.8175    0.0000 C   0  0  0  0  0  0  0  0  0  0  0  0
    6.0381  -10.2300    0.0000 C   0  0  0  0  0  0  0  0  0  0  0  0
    6.7526   -9.8175    0.0000 C   0  0  0  0  0  0  0  0  0  0  0  0
    6.7526   -8.9925    0.0000 C   0  0  0  0  0  0  0  0  0  0  0  0
    6.0381   -8.5800    0.0000 C   0  0  0  0  0  0  0  0  0  0  0  0
    7.4671  -10.2300    0.0000 C   0  0  0  0  0  0  0  0  0  0  0  0
    8.1815   -9.8175    0.0000 C   0  0  0  0  0  0  0  0  0  0  0  0
    8.1815   -8.9925    0.0000 C   0  0  1  0  0  0  0  0  0  0  0  0
    7.4671   -8.5800    0.0000 C   0  0  1  0  0  0  0  0  0  0  0  0
    8.8960   -8.5800    0.0000 C   0  0  0  0  0  0  0  0  0  0  0  0
    8.8960   -7.7550    0.0000 C   0  0  2  0  0  0  0  0  0  0  0  0
    8.1815   -7.3425    0.0000 C   0  0  0  0  0  0  0  0  0  0  0  0
    7.4671   -7.7550    0.0000 C   0  0  0  0  0  0  0  0  0  0  0  0
    4.6092  -10.2300    0.0000 O   0  0  0  0  0  0  0  0  0  0  0  0
    6.0381  -11.0550    0.0000 C   0  0  0  0  0  0  0  0  0  0  0  0
    6.7526   -8.1675    0.0000 C   0  0  0  0  0  0  0  0  0  0  0  0
    8.8960   -6.9300    0.0000 C   0  0  0  0  0  0  0  0  0  0  0  0
    9.6105   -7.3425    0.0000 C   0  0  0  0  0  0  0  0  0  0  0  0
   10.3250   -7.7550    0.0000 C   0  0  0  0  0  0  0  0  0  0  0  0
    8.8960   -9.4050    0.0000 O   0  0  0  0  0  0  0  0  0  0  0  0
  1  2  2  0  0  0  0
  2  3  1  0  0  0  0
  3  4  2  0  0  0  0
  4  5  1  0  0  0  0
  5  6  2  0  0  0  0
  6  1  1  0  0  0  0
  4  7  1  0  0  0  0
  7  8  1  0  0  0  0
  8  9  1  0  0  0  0
  9 10  1  0  0  0  0
 10  5  1  0  0  0  0
  9 11  1  0  0  0  0
 11 12  1  0  0  0  0
 12 13  1  0  0  0  0
 13 14  1  0  0  0  0
 14 10  1  0  0  0  0
  2 15  1  0  0  0  0
  3 16  1  0  0  0  0
 10 17  1  1  0  0  0
 12 18  1  6  0  0  0
 12 19  1  1  0  0  0
 19 20  2  0  0  0  0
  9 21  1  6  0  0  0
M  END
>  <cdx:fragmentId>
2401

$$$$
