301943.cdx
  Mrv1902 05222410262D          

 40 42  0  0  0  0            999 V2000
    6.8534   -7.8228    0.0000 C   0  0  0  0  0  0  0  0  0  0  0  0
    6.1390   -7.4103    0.0000 C   0  0  0  0  0  0  0  0  0  0  0  0
    6.8534   -8.6478    0.0000 O   0  0  0  0  0  0  0  0  0  0  0  0
    7.5679   -7.4103    0.0000 O   0  0  0  0  0  0  0  0  0  0  0  0
    5.4245   -6.1728    0.0000 C   0  0  0  0  0  0  0  0  0  0  0  0
    6.1390   -6.5853    0.0000 C   0  0  0  0  0  0  0  0  0  0  0  0
    6.8534   -6.1728    0.0000 C   0  0  0  0  0  0  0  0  0  0  0  0
    6.8534   -5.3478    0.0000 C   0  0  0  0  0  0  0  0  0  0  0  0
    6.1390   -4.9353    0.0000 C   0  0  0  0  0  0  0  0  0  0  0  0
    5.4245   -5.3478    0.0000 O   0  0  0  0  0  0  0  0  0  0  0  0
    4.7100   -6.5853    0.0000 O   0  0  0  0  0  0  0  0  0  0  0  0
    3.2811   -6.5853    0.0000 O   0  0  0  0  0  0  0  0  0  0  0  0
    3.9955   -6.1728    0.0000 C   0  0  2  0  0  0  0  0  0  0  0  0
    3.9955   -5.3478    0.0000 C   0  0  1  0  0  0  0  0  0  0  0  0
    3.2811   -4.9353    0.0000 C   0  0  2  0  0  0  0  0  0  0  0  0
    2.5666   -5.3478    0.0000 C   0  0  1  0  0  0  0  0  0  0  0  0
    2.5666   -6.1728    0.0000 C   0  0  1  0  0  0  0  0  0  0  0  0
    1.8521   -6.5853    0.0000 C   0  0  0  0  0  0  0  0  0  0  0  0
    1.1377   -6.1728    0.0000 O   0  0  0  0  0  0  0  0  0  0  0  0
    1.8521   -4.9353    0.0000 O   0  0  0  0  0  0  0  0  0  0  0  0
    3.2811   -4.1103    0.0000 O   0  0  0  0  0  0  0  0  0  0  0  0
    4.7100   -4.9353    0.0000 O   0  0  0  0  0  0  0  0  0  0  0  0
    7.5679   -4.9353    0.0000 C   0  0  0  0  0  0  0  0  0  0  0  0
    8.2824   -5.3478    0.0000 O   0  0  0  0  0  0  0  0  0  0  0  0
    7.5679   -4.1103    0.0000 O   0  0  0  0  0  0  0  0  0  0  0  0
    8.2824   -3.6978    0.0000 C   0  0  0  0  0  0  0  0  0  0  0  0
    7.9966   -6.8328    0.0000 C   0  0  0  0  0  0  0  0  0  0  0  0
    8.7110   -6.4203    0.0000 C   0  0  0  0  0  0  0  0  0  0  0  0
    8.7110   -5.5953    0.0000 O   0  0  0  0  0  0  0  0  0  0  0  0
    9.4255   -6.8328    0.0000 O   0  0  0  0  0  0  0  0  0  0  0  0
   10.1400   -6.4203    0.0000 C   0  0  0  0  0  0  0  0  0  0  0  0
   10.8545   -6.8328    0.0000 C   0  0  0  0  0  0  0  0  0  0  0  0
   11.5689   -6.4203    0.0000 C   0  0  0  0  0  0  0  0  0  0  0  0
   12.2834   -6.8328    0.0000 C   0  0  0  0  0  0  0  0  0  0  0  0
   12.9979   -6.4203    0.0000 C   0  0  0  0  0  0  0  0  0  0  0  0
   12.9979   -5.5953    0.0000 C   0  0  0  0  0  0  0  0  0  0  0  0
   12.2834   -5.1828    0.0000 C   0  0  0  0  0  0  0  0  0  0  0  0
   11.5689   -5.5953    0.0000 C   0  0  0  0  0  0  0  0  0  0  0  0
   13.7123   -5.1828    0.0000 O   0  0  0  0  0  0  0  0  0  0  0  0
   13.7123   -6.8328    0.0000 O   0  0  0  0  0  0  0  0  0  0  0  0
  1  2  1  0  0  0  0
  1  3  2  0  0  0  0
  1  4  1  0  0  0  0
  5  6  1  0  0  0  0
  6  7  1  0  0  0  0
  7  8  1  0  0  0  0
  8  9  2  0  0  0  0
  9 10  1  0  0  0  0
  5 10  1  0  0  0  0
 12 13  1  0  0  0  0
 13 14  1  0  0  0  0
 14 15  1  0  0  0  0
 15 16  1  0  0  0  0
 16 17  1  0  0  0  0
 12 17  1  0  0  0  0
 18 19  1  0  0  0  0
 17 18  1  6  0  0  0
 16 20  1  1  0  0  0
 15 21  1  6  0  0  0
 14 22  1  1  0  0  0
 13 11  1  6  0  0  0
  5 11  1  0  0  0  0
 23 24  2  0  0  0  0
 25 26  1  0  0  0  0
 23 25  1  0  0  0  0
  8 23  1  0  0  0  0
 27 28  1  0  0  0  0
 28 29  2  0  0  0  0
 31 32  1  0  0  0  0
 30 31  1  0  0  0  0
 33 34  1  0  0  0  0
 34 35  2  0  0  0  0
 35 36  1  0  0  0  0
 36 37  2  0  0  0  0
 37 38  1  0  0  0  0
 33 38  2  0  0  0  0
 36 39  1  0  0  0  0
 35 40  1  0  0  0  0
 32 33  1  0  0  0  0
 28 30  1  0  0  0  0
  7 27  1  0  0  0  0
  2  6  2  0  0  0  0
M  END
>  <cdx:groupId>
213

>  <cdx:fragmentId>
116

$$$$
