301907.cdx
  Mrv1902 05222410192D          

 26 31  0  0  0  0            999 V2000
    8.3512   -6.8325    0.0000 C   0  0  2  0  0  0  0  0  0  0  0  0
    9.1358   -7.0875    0.0000 C   0  0  0  0  0  0  0  0  0  0  0  0
    9.4713   -7.8412    0.0000 C   0  0  0  0  0  0  0  0  0  0  0  0
   10.2918   -7.9274    0.0000 C   0  0  0  0  0  0  0  0  0  0  0  0
   10.7767   -7.2599    0.0000 C   0  0  0  0  0  0  0  0  0  0  0  0
   10.4412   -6.5063    0.0000 C   0  0  0  0  0  0  0  0  0  0  0  0
    9.6207   -6.4200    0.0000 C   0  0  0  0  0  0  0  0  0  0  0  0
    9.1358   -5.7526    0.0000 N   0  0  0  0  0  0  0  0  0  0  0  0
    8.3512   -6.0075    0.0000 C   0  0  1  0  0  0  0  0  0  0  0  0
    7.6367   -5.5950    0.0000 C   0  0  2  0  0  0  0  0  0  0  0  0
    7.2708   -6.4028    0.0000 C   0  0  0  0  0  0  0  0  0  0  0  0
    5.4933   -6.8325    0.0000 C   0  0  1  0  0  0  0  0  0  0  0  0
    5.4933   -6.0075    0.0000 C   0  0  0  0  0  0  0  0  0  0  0  0
    6.2078   -5.5950    0.0000 C   0  0  0  0  0  0  0  0  0  0  0  0
    6.9222   -6.0075    0.0000 N   0  0  0  0  0  0  0  0  0  0  0  0
    6.9222   -6.8325    0.0000 C   0  0  2  0  0  0  0  0  0  0  0  0
    6.2078   -7.2450    0.0000 C   0  0  0  0  0  0  0  0  0  0  0  0
    7.4064   -7.7007    0.0000 C   0  0  1  0  0  0  0  0  0  0  0  0
    7.6367   -7.2450    0.0000 C   0  0  0  0  0  0  0  0  0  0  0  0
    7.5622   -8.5109    0.0000 O   0  0  0  0  0  0  0  0  0  0  0  0
    4.7788   -5.5950    0.0000 C   0  0  0  0  0  0  0  0  0  0  0  0
    4.0643   -6.0075    0.0000 C   0  0  0  0  0  0  0  0  0  0  0  0
    8.4374   -5.1871    0.0000 H   0  0  0  0  0  0  0  0  0  0  0  0
    7.6367   -4.7700    0.0000 H   0  0  0  0  0  0  0  0  0  0  0  0
    4.7788   -7.2450    0.0000 H   0  0  0  0  0  0  0  0  0  0  0  0
    7.7347   -6.6893    0.0000 H   0  0  0  0  0  0  0  0  0  0  0  0
  1  2  1  0  0  0  0
  2  3  2  0  0  0  0
  3  4  1  0  0  0  0
  4  5  2  0  0  0  0
  5  6  1  0  0  0  0
  6  7  2  0  0  0  0
  7  8  1  0  0  0  0
  8  9  1  0  0  0  0
  9 10  1  0  0  0  0
 10 11  1  1  0  0  0
 12 11  1  1  0  0  0
 12 13  1  0  0  0  0
 13 14  1  0  0  0  0
 14 15  1  0  0  0  0
 15 16  1  0  0  0  0
 16 17  1  0  0  0  0
 17 18  1  0  0  0  0
  1 18  1  0  0  0  0
  1 19  1  6  0  0  0
 19 16  1  0  0  0  0
 12 17  1  0  0  0  0
 10 15  1  0  0  0  0
  1  9  1  0  0  0  0
  2  7  1  0  0  0  0
 18 20  1  6  0  0  0
 21 22  1  0  0  0  0
 13 21  2  0  0  0  0
  9 23  1  1  0  0  0
 10 24  1  0  0  0  0
 12 25  1  0  0  0  0
 16 26  1  6  0  0  0
M  END
>  <cdx:groupId>
883

>  <cdx:fragmentId>
803

$$$$
