301918.cdx
  Mrv1902 05222410262D          

 17 17  0  0  0  0            999 V2000
    8.1395   -5.6606    0.0000 C   0  0  0  0  0  0  0  0  0  0  0  0
    7.4250   -6.0731    0.0000 C   0  0  0  0  0  0  0  0  0  0  0  0
    6.7105   -5.6606    0.0000 C   0  0  0  0  0  0  0  0  0  0  0  0
    5.9961   -6.0731    0.0000 C   0  0  0  0  0  0  0  0  0  0  0  0
    5.9961   -6.8981    0.0000 C   0  0  0  0  0  0  0  0  0  0  0  0
    6.7105   -7.3106    0.0000 C   0  0  0  0  0  0  0  0  0  0  0  0
    7.4250   -6.8981    0.0000 C   0  0  0  0  0  0  0  0  0  0  0  0
    8.1395   -4.8356    0.0000 O   0  0  0  0  0  0  0  0  0  0  0  0
    8.8539   -6.0731    0.0000 O   0  0  0  0  0  0  0  0  0  0  0  0
    6.7105   -8.1356    0.0000 O   0  0  0  0  0  0  0  0  0  0  0  0
    5.9961   -8.5481    0.0000 C   0  0  0  0  0  0  0  0  0  0  0  0
    5.2816   -5.6606    0.0000 O   0  0  0  0  0  0  0  0  0  0  0  0
    4.5671   -6.0731    0.0000 C   0  0  0  0  0  0  0  0  0  0  0  0
    5.2816   -7.3106    0.0000 O   0  0  0  0  0  0  0  0  0  0  0  0
    9.5684   -5.6606    0.0000 C   0  0  0  0  0  0  0  0  0  0  0  0
    9.5684   -4.8356    0.0000 O   0  0  0  0  0  0  0  0  0  0  0  0
   10.2829   -6.0731    0.0000 C   0  0  0  0  0  0  0  0  0  0  0  0
  1  2  1  0  0  0  0
  2  3  1  0  0  0  0
  3  4  2  0  0  0  0
  4  5  1  0  0  0  0
  5  6  2  0  0  0  0
  6  7  1  0  0  0  0
  2  7  2  0  0  0  0
  1  8  2  0  0  0  0
  1  9  1  0  0  0  0
 10 11  1  0  0  0  0
  6 10  1  0  0  0  0
 12 13  1  0  0  0  0
  4 12  1  0  0  0  0
  5 14  1  0  0  0  0
 15 16  2  0  0  0  0
 15 17  1  0  0  0  0
  9 15  1  0  0  0  0
M  END
>  <cdx:groupId>
2244

>  <cdx:fragmentId>
2196

$$$$
