301902.cdx
  Mrv1902 05222410192D          

 23 25  0  0  0  0            999 V2000
    5.1862  -10.5875    0.0000 C   0  0  0  0  0  0  0  0  0  0  0  0
    5.1862  -11.4125    0.0000 C   0  0  0  0  0  0  0  0  0  0  0  0
    5.9006  -11.8250    0.0000 C   0  0  0  0  0  0  0  0  0  0  0  0
    6.6151  -11.4125    0.0000 C   0  0  0  0  0  0  0  0  0  0  0  0
    6.6151  -10.5875    0.0000 C   0  0  0  0  0  0  0  0  0  0  0  0
    5.9006  -10.1750    0.0000 C   0  0  0  0  0  0  0  0  0  0  0  0
    7.3296  -11.8250    0.0000 C   0  0  1  0  0  0  0  0  0  0  0  0
    8.0440  -11.4125    0.0000 C   0  0  0  0  0  0  0  0  0  0  0  0
    8.0440  -10.5875    0.0000 C   0  0  1  0  0  0  0  0  0  0  0  0
    7.3296  -10.1750    0.0000 C   0  0  1  0  0  0  0  0  0  0  0  0
    8.7585  -10.1750    0.0000 C   0  0  0  0  0  0  0  0  0  0  0  0
    8.7585   -9.3500    0.0000 C   0  0  2  0  0  0  0  0  0  0  0  0
    8.0440   -8.9375    0.0000 C   0  0  0  0  0  0  0  0  0  0  0  0
    7.3296   -9.3500    0.0000 C   0  0  0  0  0  0  0  0  0  0  0  0
    4.4717  -11.8250    0.0000 O   0  0  0  0  0  0  0  0  0  0  0  0
    5.9006  -12.6500    0.0000 C   0  0  0  0  0  0  0  0  0  0  0  0
    6.6151   -9.7625    0.0000 C   0  0  0  0  0  0  0  0  0  0  0  0
    8.7585   -8.5250    0.0000 C   0  0  0  0  0  0  0  0  0  0  0  0
    9.4730   -8.9375    0.0000 C   0  0  0  0  0  0  0  0  0  0  0  0
   10.1875   -9.3500    0.0000 C   0  0  0  0  0  0  0  0  0  0  0  0
    8.7585  -11.0000    0.0000 H   0  0  0  0  0  0  0  0  0  0  0  0
    7.3296  -12.6500    0.0000 O   0  0  0  0  0  0  0  0  0  0  0  0
    8.0440  -13.0625    0.0000 C   0  0  0  0  0  0  0  0  0  0  0  0
  1  2  2  0  0  0  0
  2  3  1  0  0  0  0
  3  4  2  0  0  0  0
  4  5  1  0  0  0  0
  5  6  2  0  0  0  0
  6  1  1  0  0  0  0
  4  7  1  0  0  0  0
  7  8  1  0  0  0  0
  8  9  1  0  0  0  0
  9 10  1  0  0  0  0
 10  5  1  0  0  0  0
  9 11  1  0  0  0  0
 11 12  1  0  0  0  0
 12 13  1  0  0  0  0
 13 14  1  0  0  0  0
 14 10  1  0  0  0  0
  2 15  1  0  0  0  0
  3 16  1  0  0  0  0
 10 17  1  1  0  0  0
 12 18  1  6  0  0  0
 12 19  1  1  0  0  0
 19 20  2  0  0  0  0
  9 21  1  6  0  0  0
  7 22  1  1  0  0  0
 22 23  1  0  0  0  0
M  END
>  <cdx:fragmentId>
2401

$$$$
