302045.cdx
  Mrv1902 05222410242D          

 32 35  0  0  0  0            999 V2000
    7.4752   -8.2844    0.0000 C   0  0  1  0  0  0  0  0  0  0  0  0
    6.7607   -7.8719    0.0000 C   0  0  1  0  0  0  0  0  0  0  0  0
    6.7607   -8.6969    0.0000 O   0  0  0  0  0  0  0  0  0  0  0  0
    6.0462   -7.4594    0.0000 C   0  0  0  0  0  0  0  0  0  0  0  0
    8.1897   -4.5719    0.0000 C   0  0  0  0  0  0  0  0  0  0  0  0
    8.1897   -5.3969    0.0000 C   0  0  1  0  0  0  0  0  0  0  0  0
    7.4752   -5.8094    0.0000 C   0  0  1  0  0  0  0  0  0  0  0  0
    6.7607   -5.3969    0.0000 C   0  0  0  0  0  0  0  0  0  0  0  0
    6.0462   -5.8094    0.0000 C   0  0  0  0  0  0  0  0  0  0  0  0
    5.3318   -5.3969    0.0000 C   0  0  0  0  0  0  0  0  0  0  0  0
    5.3318   -4.5719    0.0000 C   0  0  0  0  0  0  0  0  0  0  0  0
    6.0462   -4.1594    0.0000 C   0  0  0  0  0  0  0  0  0  0  0  0
    6.7607   -4.5719    0.0000 C   0  0  0  0  0  0  0  0  0  0  0  0
    7.4752   -4.1594    0.0000 O   0  0  0  0  0  0  0  0  0  0  0  0
    4.6173   -5.8094    0.0000 C   0  0  0  0  0  0  0  0  0  0  0  0
    3.9028   -5.3969    0.0000 C   0  0  0  0  0  0  0  0  0  0  0  0
    3.9028   -4.5719    0.0000 C   0  0  0  0  0  0  0  0  0  0  0  0
    4.6173   -4.1594    0.0000 O   0  0  0  0  0  0  0  0  0  0  0  0
    3.1884   -4.1594    0.0000 O   0  0  0  0  0  0  0  0  0  0  0  0
    8.9041   -5.8094    0.0000 O   0  0  0  0  0  0  0  0  0  0  0  0
    9.6186   -5.3969    0.0000 C   0  0  0  0  0  0  0  0  0  0  0  0
    9.6186   -4.5719    0.0000 O   0  0  0  0  0  0  0  0  0  0  0  0
   11.0475   -5.3969    0.0000 C   0  0  0  0  0  0  0  0  0  0  0  0
    8.6022   -3.8574    0.0000 C   0  0  0  0  0  0  0  0  0  0  0  0
    9.0147   -4.5719    0.0000 C   0  0  0  0  0  0  0  0  0  0  0  0
    7.4752   -6.6344    0.0000 O   0  0  0  0  0  0  0  0  0  0  0  0
    6.0462   -6.6344    0.0000 O   0  0  0  0  0  0  0  0  0  0  0  0
    6.7607   -7.0469    0.0000 C   0  0  0  0  0  0  0  0  0  0  0  0
    9.6186   -7.0469    0.0000 C   0  0  0  0  0  0  0  0  0  0  0  0
   10.3331   -6.6344    0.0000 C   0  0  0  0  0  0  0  0  0  0  0  0
   10.3331   -5.8094    0.0000 C   0  0  0  0  0  0  0  0  0  0  0  0
    8.3002   -8.2844    0.0000 C   0  0  0  0  0  0  0  0  0  0  0  0
  2 28  1  6  0  0  0
 28 26  1  0  0  0  0
 28 27  2  0  0  0  0
 31 23  1  0  0  0  0
 30 29  1  0  0  0  0
 31 30  2  0  0  0  0
  1  2  1  0  0  0  0
  2  3  1  0  0  0  0
  1  3  1  0  0  0  0
  2  4  1  0  0  0  0
  5  6  1  0  0  0  0
  6  7  1  0  0  0  0
  7  8  1  0  0  0  0
  8  9  1  0  0  0  0
  9 10  2  0  0  0  0
 10 11  1  0  0  0  0
 11 12  2  0  0  0  0
 12 13  1  0  0  0  0
  8 13  2  0  0  0  0
 13 14  1  0  0  0  0
  5 14  1  0  0  0  0
 15 16  2  0  0  0  0
 16 17  1  0  0  0  0
 17 18  1  0  0  0  0
 15 10  1  0  0  0  0
 18 11  1  0  0  0  0
 17 19  2  0  0  0  0
 21 31  1  0  0  0  0
 21 22  2  0  0  0  0
 20 21  1  0  0  0  0
  6 20  1  6  0  0  0
  5 24  1  0  0  0  0
  5 25  1  0  0  0  0
  7 26  1  6  0  0  0
  1 32  1  6  0  0  0
M  END
>  <cdx:fragmentId>
1638

$$$$
