302064.cdx
  Mrv1902 05222410222D          

  8  8  0  0  0  0            999 V2000
    6.6937   -8.6737    0.0000 C   0  0  0  0  0  0  0  0  0  0  0  0
    7.4075   -9.0873    0.0000 C   0  0  0  0  0  0  0  0  0  0  0  0
    7.4062   -9.9123    0.0000 C   0  0  0  0  0  0  0  0  0  0  0  0
    6.6911  -10.3237    0.0000 C   0  0  0  0  0  0  0  0  0  0  0  0
    5.9773   -9.9100    0.0000 C   0  0  0  0  0  0  0  0  0  0  0  0
    5.9786   -9.0850    0.0000 C   0  0  0  0  0  0  0  0  0  0  0  0
    6.6950   -7.8487    0.0000 C   0  0  0  0  0  0  0  0  0  0  0  0
    6.6964   -7.0237    0.0000 C   0  0  0  0  0  0  0  0  0  0  0  0
  1  2  1  0  0  0  0
  2  3  2  0  0  0  0
  3  4  1  0  0  0  0
  4  5  2  0  0  0  0
  5  6  1  0  0  0  0
  1  6  2  0  0  0  0
  7  8  3  0  0  0  0
  1  7  1  0  0  0  0
M  END
>  <cdx:fragmentId>
803

$$$$
