302073.cdx
  Mrv1902 05222410222D          

 32 37  0  0  0  0            999 V2000
    4.1801   -8.6110    0.0000 O   0  0  0  0  0  0  0  0  0  0  0  0
    4.4842   -9.3779    0.0000 C   0  0  0  0  0  0  0  0  0  0  0  0
    5.3075   -9.3258    0.0000 O   0  0  0  0  0  0  0  0  0  0  0  0
    5.5124   -8.5266    0.0000 C   0  0  0  0  0  0  0  0  0  0  0  0
    4.8156   -8.0849    0.0000 C   0  0  0  0  0  0  0  0  0  0  0  0
    6.2433   -8.1441    0.0000 C   0  0  0  0  0  0  0  0  0  0  0  0
    6.2775   -7.3198    0.0000 C   0  0  0  0  0  0  0  0  0  0  0  0
    5.5808   -6.8781    0.0000 C   0  0  0  0  0  0  0  0  0  0  0  0
    4.8498   -7.2606    0.0000 C   0  0  0  0  0  0  0  0  0  0  0  0
    6.9401   -8.5859    0.0000 C   0  0  1  0  0  0  0  0  0  0  0  0
    7.6710   -8.2034    0.0000 N   0  0  0  0  0  0  0  0  0  0  0  0
    7.7052   -7.3791    0.0000 C   0  0  0  0  0  0  0  0  0  0  0  0
    7.0085   -6.9373    0.0000 C   0  0  0  0  0  0  0  0  0  0  0  0
    8.4362   -6.9966    0.0000 C   0  0  0  0  0  0  0  0  0  0  0  0
    8.4704   -6.1723    0.0000 C   0  0  0  0  0  0  0  0  0  0  0  0
    7.7737   -5.7305    0.0000 C   0  0  0  0  0  0  0  0  0  0  0  0
    7.0427   -6.1130    0.0000 C   0  0  0  0  0  0  0  0  0  0  0  0
    9.1330   -7.4384    0.0000 C   0  0  0  0  0  0  0  0  0  0  0  0
    9.8639   -7.0558    0.0000 C   0  0  0  0  0  0  0  0  0  0  0  0
    9.8981   -6.2315    0.0000 C   0  0  0  0  0  0  0  0  0  0  0  0
    9.2014   -5.7898    0.0000 C   0  0  0  0  0  0  0  0  0  0  0  0
   10.6373   -7.3431    0.0000 O   0  0  0  0  0  0  0  0  0  0  0  0
   11.1495   -6.6963    0.0000 C   0  0  0  0  0  0  0  0  0  0  0  0
   10.6927   -6.0094    0.0000 O   0  0  0  0  0  0  0  0  0  0  0  0
    8.3855   -8.6159    0.0000 C   0  0  0  0  0  0  0  0  0  0  0  0
    6.9401   -9.4109    0.0000 C   0  0  0  0  0  0  0  0  0  0  0  0
    7.6545   -9.8234    0.0000 C   0  0  0  0  0  0  0  0  0  0  0  0
    7.6545  -10.6484    0.0000 O   0  0  0  0  0  0  0  0  0  0  0  0
    8.3690   -9.4109    0.0000 O   0  0  0  0  0  0  0  0  0  0  0  0
    8.3690  -11.0609    0.0000 C   0  0  0  0  0  0  0  0  0  0  0  0
    8.3690  -11.8859    0.0000 C   0  0  0  0  0  0  0  0  0  0  0  0
    7.6545   -8.9984    0.0000 H   0  0  0  0  0  0  0  0  0  0  0  0
  1  2  1  0  0  0  0
  2  3  1  0  0  0  0
  3  4  1  0  0  0  0
  4  5  2  0  0  0  0
  5  1  1  0  0  0  0
  4  6  1  0  0  0  0
  6  7  2  0  0  0  0
  7  8  1  0  0  0  0
  8  9  2  0  0  0  0
  9  5  1  0  0  0  0
  6 10  1  0  0  0  0
 10 11  1  0  0  0  0
 11 12  1  0  0  0  0
 12 13  2  0  0  0  0
 13  7  1  0  0  0  0
 12 14  1  0  0  0  0
 14 15  2  0  0  0  0
 15 16  1  0  0  0  0
 16 17  2  0  0  0  0
 17 13  1  0  0  0  0
 14 18  1  0  0  0  0
 18 19  2  0  0  0  0
 19 20  1  0  0  0  0
 20 21  2  0  0  0  0
 21 15  1  0  0  0  0
 19 22  1  0  0  0  0
 22 23  1  0  0  0  0
 23 24  1  0  0  0  0
 24 20  1  0  0  0  0
 11 25  1  0  0  0  0
 10 26  1  0  0  0  0
 26 27  1  0  0  0  0
 27 28  1  0  0  0  0
 27 29  2  0  0  0  0
 28 30  1  0  0  0  0
 30 31  1  0  0  0  0
 10 32  1  6  0  0  0
M  END
>  <cdx:fragmentId>
5102

$$$$
