30204.cdx
  Mrv1902 05222410252D          

  9  9  0  0  0  0            999 V2000
    6.9556   -8.4964    0.0000 C   0  0  0  0  0  0  0  0  0  0  0  0
    6.9556   -9.3214    0.0000 C   0  0  0  0  0  0  0  0  0  0  0  0
    7.6700   -9.7339    0.0000 C   0  0  0  0  0  0  0  0  0  0  0  0
    8.3845   -9.3214    0.0000 C   0  0  0  0  0  0  0  0  0  0  0  0
    8.3845   -8.4964    0.0000 C   0  0  0  0  0  0  0  0  0  0  0  0
    7.6700   -8.0839    0.0000 C   0  0  0  0  0  0  0  0  0  0  0  0
    6.2411   -8.0839    0.0000 C   0  0  0  0  0  0  0  0  0  0  0  0
    9.0990   -9.7339    0.0000 C   0  0  0  0  0  0  0  0  0  0  0  0
    7.6700   -7.2589    0.0000 C   0  0  0  0  0  0  0  0  0  0  0  0
  1  2  1  0  0  0  0
  2  3  1  0  0  0  0
  3  4  1  0  0  0  0
  4  5  1  0  0  0  0
  5  6  1  0  0  0  0
  6  1  1  0  0  0  0
  1  7  1  0  0  0  0
  4  8  1  0  0  0  0
  6  9  1  0  0  0  0
M  END
>  <cdx:fragmentId>
5

$$$$
