302093.cdx
  Mrv1902 05222410252D          

 20 23  0  0  0  0            999 V2000
    7.0972   -6.3323    0.0000 N   0  0  0  0  0  0  0  0  0  0  0  0
    7.3031   -5.5333    0.0000 C   0  0  0  0  0  0  0  0  0  0  0  0
    8.0910   -5.2887    0.0000 C   0  0  0  0  0  0  0  0  0  0  0  0
    8.7113   -5.8326    0.0000 C   0  0  0  0  0  0  0  0  0  0  0  0
    8.5716   -6.6457    0.0000 C   0  0  0  0  0  0  0  0  0  0  0  0
    9.1236   -7.2588    0.0000 N   0  0  0  0  0  0  0  0  0  0  0  0
    8.8687   -8.0434    0.0000 C   0  0  0  0  0  0  0  0  0  0  0  0
    8.0617   -8.2150    0.0000 C   0  0  0  0  0  0  0  0  0  0  0  0
    7.5097   -7.6019    0.0000 C   0  0  0  0  0  0  0  0  0  0  0  0
    6.6847   -7.6019    0.0000 C   0  0  0  0  0  0  0  0  0  0  0  0
    6.1326   -8.2150    0.0000 C   0  0  0  0  0  0  0  0  0  0  0  0
    5.3257   -8.0434    0.0000 C   0  0  0  0  0  0  0  0  0  0  0  0
    5.0707   -7.2588    0.0000 C   0  0  0  0  0  0  0  0  0  0  0  0
    5.6228   -6.6457    0.0000 C   0  0  0  0  0  0  0  0  0  0  0  0
    6.4297   -6.8172    0.0000 C   0  0  0  0  0  0  0  0  0  0  0  0
    7.7646   -6.8172    0.0000 C   0  0  0  0  0  0  0  0  0  0  0  0
    6.7057   -4.9644    0.0000 O   0  0  0  0  0  0  0  0  0  0  0  0
    8.2625   -4.4817    0.0000 O   0  0  0  0  0  0  0  0  0  0  0  0
    9.0472   -4.2268    0.0000 C   0  0  0  0  0  0  0  0  0  0  0  0
    9.4890   -5.5572    0.0000 O   0  0  0  0  0  0  0  0  0  0  0  0
  1  2  1  0  0  0  0
  2  3  1  0  0  0  0
  3  4  2  0  0  0  0
  4  5  1  0  0  0  0
  5  6  1  0  0  0  0
  6  7  2  0  0  0  0
  7  8  1  0  0  0  0
  8  9  2  0  0  0  0
  9 10  1  0  0  0  0
 10 11  2  0  0  0  0
 11 12  1  0  0  0  0
 12 13  2  0  0  0  0
 13 14  1  0  0  0  0
 14 15  2  0  0  0  0
  1 15  1  0  0  0  0
  1 16  1  0  0  0  0
 16  9  1  0  0  0  0
 10 15  1  0  0  0  0
  5 16  2  0  0  0  0
  2 17  2  0  0  0  0
 18 19  1  0  0  0  0
  3 18  1  0  0  0  0
  4 20  1  0  0  0  0
M  END
>  <cdx:groupId>
2256

>  <cdx:fragmentId>
2196

$$$$
