30205.cdx
  Mrv1902 05222410242D          

  8  8  0  0  0  0            999 V2000
    6.0435   -7.8914    0.0000 C   0  0  0  0  0  0  0  0  0  0  0  0
    6.0435   -8.7164    0.0000 C   0  0  0  0  0  0  0  0  0  0  0  0
    6.8281   -8.9713    0.0000 C   0  0  0  0  0  0  0  0  0  0  0  0
    7.3131   -8.3039    0.0000 C   0  0  0  0  0  0  0  0  0  0  0  0
    6.8281   -7.6365    0.0000 C   0  0  0  0  0  0  0  0  0  0  0  0
    5.3761   -7.4065    0.0000 C   0  0  0  0  0  0  0  0  0  0  0  0
    7.0831   -6.8518    0.0000 C   0  0  0  0  0  0  0  0  0  0  0  0
    7.0831   -9.7560    0.0000 C   0  0  0  0  0  0  0  0  0  0  0  0
  1  2  1  0  0  0  0
  2  3  1  0  0  0  0
  3  4  1  0  0  0  0
  4  5  1  0  0  0  0
  5  1  1  0  0  0  0
  1  6  1  0  0  0  0
  5  7  1  0  0  0  0
  3  8  1  0  0  0  0
M  END
>  <cdx:fragmentId>
5

$$$$
