302080.cdx
  Mrv1902 05222410232D          

 16 15  0  0  0  0            999 V2000
    9.5684   -6.9919    0.0000 P   0  0  0  0  0  0  0  0  0  0  0  0
    9.5684   -7.8169    0.0000 O   0  0  0  0  0  0  0  0  0  0  0  0
    8.8539   -6.5794    0.0000 O   0  0  0  0  0  0  0  0  0  0  0  0
    9.5684   -6.1669    0.0000 O   0  0  0  0  0  0  0  0  0  0  0  0
   10.2829   -6.5794    0.0000 O   0  0  0  0  0  0  0  0  0  0  0  0
    7.4250   -6.5794    0.0000 C   0  0  0  0  0  0  0  0  0  0  0  0
    8.1395   -6.9919    0.0000 C   0  0  0  0  0  0  0  0  0  0  0  0
    7.4250   -7.4044    0.0000 O   0  0  0  0  0  0  0  0  0  0  0  0
    6.7105   -4.5169    0.0000 C   0  0  0  0  0  0  0  0  0  0  0  0
    6.7105   -5.3419    0.0000 C   0  0  0  0  0  0  0  0  0  0  0  0
    7.4250   -5.7544    0.0000 C   0  0  0  0  0  0  0  0  0  0  0  0
    6.7105   -6.9919    0.0000 C   0  0  0  0  0  0  0  0  0  0  0  0
    5.9961   -6.5794    0.0000 C   0  0  0  0  0  0  0  0  0  0  0  0
    5.2816   -6.9919    0.0000 C   0  0  0  0  0  0  0  0  0  0  0  0
    4.5671   -6.5794    0.0000 O   0  0  0  0  0  0  0  0  0  0  0  0
    5.9961   -5.7544    0.0000 O   0  0  0  0  0  0  0  0  0  0  0  0
  1  2  2  0  0  0  0
  1  3  1  0  0  0  0
  1  4  1  0  0  0  0
  1  5  1  0  0  0  0
  6  7  1  0  0  0  0
  6  8  1  0  0  0  0
  3  7  1  0  0  0  0
  9 10  1  0  0  0  0
 10 11  1  0  0  0  0
  6 11  1  0  0  0  0
 12 13  1  0  0  0  0
 13 14  1  0  0  0  0
 14 15  1  0  0  0  0
 13 16  1  0  0  0  0
  6 12  1  0  0  0  0
M  END
>  <cdx:groupId>
1498

>  <cdx:fragmentId>
1454

$$$$
