302056.cdx
  Mrv1902 05222410242D          

 25 28  0  0  0  0            999 V2000
    7.2050   -9.5150    0.0000 C   0  0  2  0  0  0  0  0  0  0  0  0
    7.8432   -9.9854    0.0000 C   0  0  0  0  0  0  0  0  0  0  0  0
    8.2518  -10.7021    0.0000 C   0  0  0  0  0  0  0  0  0  0  0  0
    9.0768  -10.7066    0.0000 C   0  0  0  0  0  0  0  0  0  0  0  0
    9.4932   -9.9944    0.0000 C   0  0  0  0  0  0  0  0  0  0  0  0
    9.0846   -9.2777    0.0000 C   0  0  0  0  0  0  0  0  0  0  0  0
    8.2596   -9.2732    0.0000 C   0  0  0  0  0  0  0  0  0  0  0  0
    8.0300   -8.6075    0.0000 C   0  0  0  0  0  0  0  0  0  0  0  0
    6.9300   -8.4975    0.0000 C   0  0  1  0  0  0  0  0  0  0  0  0
    6.2217   -8.5634    0.0000 N   0  0  0  0  0  0  0  0  0  0  0  0
    5.6650   -9.1025    0.0000 C   0  0  0  0  0  0  0  0  0  0  0  0
    6.0225   -9.8450    0.0000 C   0  0  0  0  0  0  0  0  0  0  0  0
    7.5900   -7.7825    0.0000 C   0  0  2  0  0  0  0  0  0  0  0  0
    9.4854  -11.4233    0.0000 O   0  0  0  0  0  0  0  0  0  0  0  0
    5.8131   -7.8467    0.0000 C   0  0  0  0  0  0  0  0  0  0  0  0
    4.9881   -7.8422    0.0000 C   0  0  0  0  0  0  0  0  0  0  0  0
    4.5795   -7.1255    0.0000 C   0  0  0  0  0  0  0  0  0  0  0  0
    3.7545   -7.1210    0.0000 C   0  0  0  0  0  0  0  0  0  0  0  0
    3.3459   -6.4043    0.0000 C   0  0  0  0  0  0  0  0  0  0  0  0
    3.7622   -5.6921    0.0000 C   0  0  0  0  0  0  0  0  0  0  0  0
    4.5872   -5.6966    0.0000 C   0  0  0  0  0  0  0  0  0  0  0  0
    4.9958   -6.4133    0.0000 C   0  0  0  0  0  0  0  0  0  0  0  0
    7.8035   -6.9856    0.0000 C   0  0  0  0  0  0  0  0  0  0  0  0
    7.2050  -10.3400    0.0000 C   0  0  0  0  0  0  0  0  0  0  0  0
    6.9300   -7.6725    0.0000 H   0  0  0  0  0  0  0  0  0  0  0  0
  1  2  1  0  0  0  0
  2  3  1  0  0  0  0
  3  4  2  0  0  0  0
  4  5  1  0  0  0  0
  5  6  2  0  0  0  0
  6  7  1  0  0  0  0
  7  8  1  0  0  0  0
  8  9  1  0  0  0  0
  9 10  1  0  0  0  0
 10 11  1  0  0  0  0
 11 12  1  0  0  0  0
  1 12  1  0  0  0  0
  1 13  1  0  0  0  0
 13  9  1  0  0  0  0
  2  7  2  0  0  0  0
  4 14  1  0  0  0  0
 15 16  1  0  0  0  0
 17 18  1  0  0  0  0
 18 19  2  0  0  0  0
 19 20  1  0  0  0  0
 20 21  2  0  0  0  0
 21 22  1  0  0  0  0
 17 22  2  0  0  0  0
 16 17  1  0  0  0  0
 10 15  1  0  0  0  0
 13 23  1  6  0  0  0
  1 24  1  1  0  0  0
  9 25  1  6  0  0  0
M  END
>  <cdx:groupId>
467

>  <cdx:fragmentId>
392

$$$$
