302036.cdx
  Mrv1902 05222410272D          

  5  4  0  0  0  0            999 V2000
    6.9183   -6.8491    0.0000 C   0  0  0  0  0  0  0  0  0  0  0  0
    6.2038   -7.2616    0.0000 C   0  0  0  0  0  0  0  0  0  0  0  0
    6.9183   -6.0241    0.0000 O   0  0  0  0  0  0  0  0  0  0  0  0
    7.6327   -7.2616    0.0000 O   0  0  0  0  0  0  0  0  0  0  0  0
    8.3472   -6.8491    0.0000 O   0  0  0  0  0  0  0  0  0  0  0  0
  1  2  1  0  0  0  0
  1  3  2  0  0  0  0
  4  5  1  0  0  0  0
  1  4  1  0  0  0  0
M  END
>  <cdx:groupId>
1063

>  <cdx:fragmentId>
1052

$$$$
