302084.cdx
  Mrv1902 05222410252D          

 27 27  0  0  0  0            999 V2000
   13.4435  -16.2972    0.0000 C   0  0  0  0  0  0  0  0  0  0  0  0
   13.4435  -17.1222    0.0000 C   0  0  0  0  0  0  0  0  0  0  0  0
   14.1580  -17.5347    0.0000 C   0  0  0  0  0  0  0  0  0  0  0  0
   14.8725  -17.1222    0.0000 C   0  0  0  0  0  0  0  0  0  0  0  0
   14.8725  -16.2972    0.0000 C   0  0  0  0  0  0  0  0  0  0  0  0
   14.1580  -15.8847    0.0000 C   0  0  0  0  0  0  0  0  0  0  0  0
   12.7291  -15.8847    0.0000 C   0  0  0  0  0  0  0  0  0  0  0  0
   12.0146  -16.2972    0.0000 O   0  0  0  0  0  0  0  0  0  0  0  0
   11.3001  -15.8847    0.0000 C   0  0  0  0  0  0  0  0  0  0  0  0
   10.5857  -16.2972    0.0000 C   0  0  0  0  0  0  0  0  0  0  0  0
    9.8712  -15.8847    0.0000 C   0  0  0  0  0  0  0  0  0  0  0  0
    9.1567  -16.2972    0.0000 C   0  0  0  0  0  0  0  0  0  0  0  0
   14.1580  -15.0597    0.0000 C   0  0  0  0  0  0  0  0  0  0  0  0
   14.8725  -14.6472    0.0000 O   0  0  0  0  0  0  0  0  0  0  0  0
   14.8725  -13.8222    0.0000 C   0  0  0  0  0  0  0  0  0  0  0  0
   15.5870  -13.4097    0.0000 C   0  0  0  0  0  0  0  0  0  0  0  0
   15.5870  -12.5847    0.0000 C   0  0  0  0  0  0  0  0  0  0  0  0
   16.3014  -12.1722    0.0000 C   0  0  0  0  0  0  0  0  0  0  0  0
   12.7291  -15.0597    0.0000 O   0  0  0  0  0  0  0  0  0  0  0  0
   13.4435  -14.6472    0.0000 O   0  0  0  0  0  0  0  0  0  0  0  0
   16.3014  -11.3472    0.0000 C   0  0  0  0  0  0  0  0  0  0  0  0
   17.0159  -10.9347    0.0000 C   0  0  0  0  0  0  0  0  0  0  0  0
   17.0159  -10.1097    0.0000 C   0  0  0  0  0  0  0  0  0  0  0  0
   17.7304   -9.6972    0.0000 C   0  0  0  0  0  0  0  0  0  0  0  0
   17.7304   -8.8722    0.0000 C   0  0  0  0  0  0  0  0  0  0  0  0
   18.4448   -8.4597    0.0000 C   0  0  0  0  0  0  0  0  0  0  0  0
   18.4448   -7.6347    0.0000 C   0  0  0  0  0  0  0  0  0  0  0  0
  1  2  2  0  0  0  0
  2  3  1  0  0  0  0
  3  4  2  0  0  0  0
  4  5  1  0  0  0  0
  5  6  2  0  0  0  0
  6  1  1  0  0  0  0
  1  7  1  0  0  0  0
  7  8  1  0  0  0  0
  8  9  1  0  0  0  0
  9 10  1  0  0  0  0
 10 11  1  0  0  0  0
 11 12  1  0  0  0  0
  6 13  1  0  0  0  0
 13 14  1  0  0  0  0
 14 15  1  0  0  0  0
 15 16  1  0  0  0  0
 16 17  1  0  0  0  0
 17 18  1  0  0  0  0
  7 19  2  0  0  0  0
 13 20  2  0  0  0  0
 18 21  1  0  0  0  0
 21 22  1  0  0  0  0
 22 23  1  0  0  0  0
 23 24  1  0  0  0  0
 24 25  1  0  0  0  0
 25 26  1  0  0  0  0
 26 27  1  0  0  0  0
M  END
>  <cdx:fragmentId>
489

$$$$
