302097.cdx
  Mrv1902 05222410242D          

 59 65  0  0  0  0            999 V2000
    3.5960   -8.3685    0.0000 C   0  0  0  0  0  0  0  0  0  0  0  0
    2.8815   -8.7810    0.0000 C   0  0  0  0  0  0  0  0  0  0  0  0
    2.1670   -8.3685    0.0000 C   0  0  0  0  0  0  0  0  0  0  0  0
    1.4526   -8.7810    0.0000 C   0  0  0  0  0  0  0  0  0  0  0  0
    3.5960   -7.5435    0.0000 O   0  0  0  0  0  0  0  0  0  0  0  0
    4.3105   -8.7810    0.0000 C   0  0  0  0  0  0  0  0  0  0  0  0
    5.0249   -8.3685    0.0000 C   0  0  0  0  0  0  0  0  0  0  0  0
    5.7394   -8.7810    0.0000 C   0  0  0  0  0  0  0  0  0  0  0  0
    5.7394   -9.6060    0.0000 C   0  0  0  0  0  0  0  0  0  0  0  0
    5.0249  -10.0185    0.0000 C   0  0  0  0  0  0  0  0  0  0  0  0
    4.3105   -9.6060    0.0000 C   0  0  0  0  0  0  0  0  0  0  0  0
    5.0249  -10.8435    0.0000 C   0  0  0  0  0  0  0  0  0  0  0  0
    3.5960  -10.0185    0.0000 O   0  0  0  0  0  0  0  0  0  0  0  0
    2.8815   -9.6060    0.0000 C   0  0  0  0  0  0  0  0  0  0  0  0
    6.4539  -10.0185    0.0000 O   0  0  0  0  0  0  0  0  0  0  0  0
    5.0249   -7.5435    0.0000 O   0  0  0  0  0  0  0  0  0  0  0  0
    6.6682   -8.2447    0.0000 C   0  0  0  0  0  0  0  0  0  0  0  0
    8.8116   -6.7597    0.0000 C   0  0  2  0  0  0  0  0  0  0  0  0
    8.8116   -5.9347    0.0000 C   0  0  2  0  0  0  0  0  0  0  0  0
    8.0972   -5.5222    0.0000 C   0  0  1  0  0  0  0  0  0  0  0  0
    7.3827   -5.9347    0.0000 C   0  0  0  0  0  0  0  0  0  0  0  0
    6.6682   -5.5222    0.0000 C   0  0  0  0  0  0  0  0  0  0  0  0
    5.9537   -5.9347    0.0000 C   0  0  0  0  0  0  0  0  0  0  0  0
    5.9537   -6.7597    0.0000 C   0  0  0  0  0  0  0  0  0  0  0  0
    6.6682   -7.1722    0.0000 C   0  0  0  0  0  0  0  0  0  0  0  0
    7.3827   -6.7597    0.0000 C   0  0  0  0  0  0  0  0  0  0  0  0
    8.0972   -7.1722    0.0000 O   0  0  0  0  0  0  0  0  0  0  0  0
    5.2393   -7.1722    0.0000 O   0  0  0  0  0  0  0  0  0  0  0  0
    6.6682   -4.6972    0.0000 O   0  0  0  0  0  0  0  0  0  0  0  0
    9.5261   -5.5222    0.0000 O   0  0  0  0  0  0  0  0  0  0  0  0
   10.2406   -3.7897    0.0000 C   0  0  2  0  0  0  0  0  0  0  0  0
   10.2406   -2.9647    0.0000 C   0  0  1  0  0  0  0  0  0  0  0  0
    9.5261   -2.5522    0.0000 C   0  0  0  0  0  0  0  0  0  0  0  0
    8.8116   -2.9647    0.0000 C   0  0  0  0  0  0  0  0  0  0  0  0
    8.0972   -2.5522    0.0000 C   0  0  0  0  0  0  0  0  0  0  0  0
    7.3827   -2.9647    0.0000 C   0  0  0  0  0  0  0  0  0  0  0  0
    7.3827   -3.7897    0.0000 C   0  0  0  0  0  0  0  0  0  0  0  0
    8.0972   -4.2022    0.0000 C   0  0  0  0  0  0  0  0  0  0  0  0
    8.8116   -3.7897    0.0000 C   0  0  0  0  0  0  0  0  0  0  0  0
    9.5261   -4.2022    0.0000 O   0  0  0  0  0  0  0  0  0  0  0  0
    6.6682   -4.2022    0.0000 O   0  0  0  0  0  0  0  0  0  0  0  0
    8.0972   -1.7272    0.0000 O   0  0  0  0  0  0  0  0  0  0  0  0
   10.9550   -2.5522    0.0000 O   0  0  0  0  0  0  0  0  0  0  0  0
   10.9550   -4.2022    0.0000 C   0  0  0  0  0  0  0  0  0  0  0  0
   11.6695   -3.7897    0.0000 C   0  0  0  0  0  0  0  0  0  0  0  0
   12.3840   -4.2022    0.0000 C   0  0  0  0  0  0  0  0  0  0  0  0
   12.3840   -5.0272    0.0000 C   0  0  0  0  0  0  0  0  0  0  0  0
   11.6695   -5.4397    0.0000 C   0  0  0  0  0  0  0  0  0  0  0  0
   10.9550   -5.0272    0.0000 C   0  0  0  0  0  0  0  0  0  0  0  0
   13.0985   -5.4397    0.0000 O   0  0  0  0  0  0  0  0  0  0  0  0
   13.0985   -3.7897    0.0000 O   0  0  0  0  0  0  0  0  0  0  0  0
    9.5261   -7.1722    0.0000 C   0  0  0  0  0  0  0  0  0  0  0  0
   10.2406   -6.7597    0.0000 C   0  0  0  0  0  0  0  0  0  0  0  0
   10.9550   -7.1722    0.0000 C   0  0  0  0  0  0  0  0  0  0  0  0
   10.9550   -7.9972    0.0000 C   0  0  0  0  0  0  0  0  0  0  0  0
   10.2406   -8.4097    0.0000 C   0  0  0  0  0  0  0  0  0  0  0  0
    9.5261   -7.9972    0.0000 C   0  0  0  0  0  0  0  0  0  0  0  0
   11.6695   -8.4097    0.0000 O   0  0  0  0  0  0  0  0  0  0  0  0
   11.6695   -6.7597    0.0000 O   0  0  0  0  0  0  0  0  0  0  0  0
  1  2  1  0  0  0  0
  2  3  1  0  0  0  0
  3  4  1  0  0  0  0
  1  5  2  0  0  0  0
  6  7  1  0  0  0  0
  7  8  2  0  0  0  0
  8  9  1  0  0  0  0
  9 10  2  0  0  0  0
 10 11  1  0  0  0  0
  6 11  2  0  0  0  0
 10 12  1  0  0  0  0
 13 14  1  0  0  0  0
 11 13  1  0  0  0  0
  9 15  1  0  0  0  0
  7 16  1  0  0  0  0
 18 19  1  0  0  0  0
 19 20  1  0  0  0  0
 20 21  1  0  0  0  0
 21 22  1  0  0  0  0
 22 23  2  0  0  0  0
 23 24  1  0  0  0  0
 24 25  2  0  0  0  0
 25 26  1  0  0  0  0
 21 26  2  0  0  0  0
 26 27  1  0  0  0  0
 18 27  1  0  0  0  0
 24 28  1  0  0  0  0
 22 29  1  0  0  0  0
 19 30  1  6  0  0  0
 31 32  1  0  0  0  0
 32 33  1  0  0  0  0
 33 34  1  0  0  0  0
 34 35  1  0  0  0  0
 35 36  2  0  0  0  0
 36 37  1  0  0  0  0
 37 38  2  0  0  0  0
 38 39  1  0  0  0  0
 34 39  2  0  0  0  0
 39 40  1  0  0  0  0
 31 40  1  0  0  0  0
 37 41  1  0  0  0  0
 35 42  1  0  0  0  0
 32 43  1  1  0  0  0
 44 45  1  0  0  0  0
 45 46  2  0  0  0  0
 46 47  1  0  0  0  0
 47 48  2  0  0  0  0
 48 49  1  0  0  0  0
 44 49  2  0  0  0  0
 47 50  1  0  0  0  0
 46 51  1  0  0  0  0
 31 44  1  1  0  0  0
 20 38  1  1  0  0  0
 52 53  1  0  0  0  0
 53 54  2  0  0  0  0
 54 55  1  0  0  0  0
 55 56  2  0  0  0  0
 56 57  1  0  0  0  0
 52 57  2  0  0  0  0
 55 58  1  0  0  0  0
 54 59  1  0  0  0  0
 18 52  1  1  0  0  0
 17 25  1  0  0  0  0
  8 17  1  0  0  0  0
  1  6  1  0  0  0  0
M  END
>  <cdx:groupId>
2820

>  <cdx:fragmentId>
2700

$$$$
