302061.cdx
  Mrv1902 05222410212D          

 14 14  0  0  0  0            999 V2000
    7.0643   -6.0176    0.0000 C   0  0  0  0  0  0  0  0  0  0  0  0
    6.3499   -6.4301    0.0000 C   0  0  0  0  0  0  0  0  0  0  0  0
    5.6354   -6.0176    0.0000 C   0  0  0  0  0  0  0  0  0  0  0  0
    4.9209   -6.4301    0.0000 C   0  0  0  0  0  0  0  0  0  0  0  0
    7.0643   -5.1926    0.0000 O   0  0  0  0  0  0  0  0  0  0  0  0
    7.7788   -6.4301    0.0000 O   0  0  0  0  0  0  0  0  0  0  0  0
    6.3499   -7.2551    0.0000 C   0  0  0  0  0  0  0  0  0  0  0  0
    5.6354   -7.6676    0.0000 C   0  0  0  0  0  0  0  0  0  0  0  0
    8.4933   -6.0176    0.0000 C   0  0  0  0  0  0  0  0  0  0  0  0
    8.4933   -5.1926    0.0000 C   0  0  0  0  0  0  0  0  0  0  0  0
    9.2077   -4.7801    0.0000 C   0  0  0  0  0  0  0  0  0  0  0  0
    9.9222   -5.1926    0.0000 C   0  0  0  0  0  0  0  0  0  0  0  0
    9.9222   -6.0176    0.0000 C   0  0  0  0  0  0  0  0  0  0  0  0
    9.2077   -6.4301    0.0000 C   0  0  0  0  0  0  0  0  0  0  0  0
  1  2  1  0  0  0  0
  2  3  1  0  0  0  0
  3  4  1  0  0  0  0
  1  5  2  0  0  0  0
  1  6  1  0  0  0  0
  7  8  1  0  0  0  0
  2  7  1  0  0  0  0
  9 10  1  0  0  0  0
 10 11  2  0  0  0  0
 11 12  1  0  0  0  0
 12 13  2  0  0  0  0
 13 14  1  0  0  0  0
  9 14  2  0  0  0  0
  6  9  1  0  0  0  0
M  END
>  <cdx:groupId>
691

>  <cdx:fragmentId>
652

$$$$
