302091.cdx
  Mrv1902 05222410252D          

 22 21  0  0  0  0            999 V2000
    2.7219   -8.4769    0.0000 C   0  0  2  0  0  0  0  0  0  0  0  0
    3.4364   -8.0644    0.0000 C   0  0  1  0  0  0  0  0  0  0  0  0
    4.1509   -8.4769    0.0000 C   0  0  0  0  0  0  0  0  0  0  0  0
    4.8653   -8.0644    0.0000 C   0  0  0  0  0  0  0  0  0  0  0  0
    5.5798   -8.4769    0.0000 C   0  0  0  0  0  0  0  0  0  0  0  0
    6.2943   -8.0644    0.0000 C   0  0  0  0  0  0  0  0  0  0  0  0
    7.0088   -8.4769    0.0000 C   0  0  0  0  0  0  0  0  0  0  0  0
    7.7232   -8.0644    0.0000 C   0  0  0  0  0  0  0  0  0  0  0  0
    8.4377   -8.4769    0.0000 C   0  0  0  0  0  0  0  0  0  0  0  0
    9.1522   -8.0644    0.0000 C   0  0  0  0  0  0  0  0  0  0  0  0
    9.8666   -8.4769    0.0000 C   0  0  0  0  0  0  0  0  0  0  0  0
   10.5811   -8.0644    0.0000 C   0  0  0  0  0  0  0  0  0  0  0  0
   11.2956   -8.4769    0.0000 C   0  0  0  0  0  0  0  0  0  0  0  0
   12.0101   -8.0644    0.0000 C   0  0  0  0  0  0  0  0  0  0  0  0
   12.7245   -8.4769    0.0000 C   0  0  0  0  0  0  0  0  0  0  0  0
   13.4390   -8.0644    0.0000 C   0  0  0  0  0  0  0  0  0  0  0  0
    2.0075   -8.0644    0.0000 C   0  0  2  0  0  0  0  0  0  0  0  0
    2.0075   -7.2394    0.0000 C   0  0  0  0  0  0  0  0  0  0  0  0
    1.2930   -6.8269    0.0000 O   0  0  0  0  0  0  0  0  0  0  0  0
    1.2930   -8.4769    0.0000 N   0  0  0  0  0  0  0  0  0  0  0  0
    2.7219   -9.3019    0.0000 O   0  0  0  0  0  0  0  0  0  0  0  0
    3.4364   -7.2394    0.0000 O   0  0  0  0  0  0  0  0  0  0  0  0
  1  2  1  0  0  0  0
  2  3  1  0  0  0  0
  3  4  1  0  0  0  0
  4  5  1  0  0  0  0
  5  6  1  0  0  0  0
  6  7  1  0  0  0  0
  7  8  1  0  0  0  0
  8  9  1  0  0  0  0
  9 10  1  0  0  0  0
 10 11  1  0  0  0  0
 11 12  1  0  0  0  0
 12 13  1  0  0  0  0
 13 14  1  0  0  0  0
 14 15  1  0  0  0  0
 15 16  1  0  0  0  0
  1 17  1  0  0  0  0
 17 18  1  0  0  0  0
 18 19  1  0  0  0  0
 17 20  1  1  0  0  0
  1 21  1  1  0  0  0
  2 22  1  6  0  0  0
M  END
>  <cdx:fragmentId>
573

$$$$
