302058.cdx
  Mrv1902 05222410222D          

 13 13  0  0  0  0            999 V2000
    7.1790   -5.4054    0.0000 C   0  0  0  0  0  0  0  0  0  0  0  0
    7.8935   -5.8179    0.0000 C   0  0  0  0  0  0  0  0  0  0  0  0
    7.8935   -6.6429    0.0000 C   0  0  0  0  0  0  0  0  0  0  0  0
    7.1790   -7.0554    0.0000 C   0  0  0  0  0  0  0  0  0  0  0  0
    6.4646   -6.6429    0.0000 C   0  0  0  0  0  0  0  0  0  0  0  0
    6.4646   -5.8179    0.0000 C   0  0  0  0  0  0  0  0  0  0  0  0
    7.1790   -4.5804    0.0000 O   0  0  0  0  0  0  0  0  0  0  0  0
    5.7501   -7.0554    0.0000 C   0  0  0  0  0  0  0  0  0  0  0  0
    8.6080   -7.0554    0.0000 O   0  0  0  0  0  0  0  0  0  0  0  0
    9.3225   -6.6429    0.0000 C   0  0  0  0  0  0  0  0  0  0  0  0
    5.7501   -5.4054    0.0000 Cl  0  0  0  0  0  0  0  0  0  0  0  0
    7.1790   -7.8804    0.0000 Cl  0  0  0  0  0  0  0  0  0  0  0  0
    8.6080   -5.4054    0.0000 Cl  0  0  0  0  0  0  0  0  0  0  0  0
  1  2  1  0  0  0  0
  2  3  2  0  0  0  0
  3  4  1  0  0  0  0
  4  5  2  0  0  0  0
  5  6  1  0  0  0  0
  1  6  2  0  0  0  0
  1  7  1  0  0  0  0
  5  8  1  0  0  0  0
  9 10  1  0  0  0  0
  3  9  1  0  0  0  0
  6 11  1  0  0  0  0
  4 12  1  0  0  0  0
  2 13  1  0  0  0  0
M  END
>  <cdx:groupId>
556

>  <cdx:fragmentId>
520

$$$$
