302079.cdx
  Mrv1902 05222410242D          

 29 32  0  0  0  0            999 V2000
    7.3141   -6.4601    0.0000 C   0  0  2  0  0  0  0  0  0  0  0  0
    7.1087   -5.6611    0.0000 C   0  0  2  0  0  0  0  0  0  0  0  0
    6.3287   -5.3923    0.0000 C   0  0  0  0  0  0  0  0  0  0  0  0
    6.3433   -4.5674    0.0000 C   0  0  0  0  0  0  0  0  0  0  0  0
    7.1323   -4.3264    0.0000 C   0  0  0  0  0  0  0  0  0  0  0  0
    7.6053   -5.0023    0.0000 C   0  0  1  0  0  0  0  0  0  0  0  0
    8.4300   -4.9798    0.0000 C   0  0  0  0  0  0  0  0  0  0  0  0
    8.9618   -5.6106    0.0000 C   0  0  0  0  0  0  0  0  0  0  0  0
    8.8001   -6.4196    0.0000 C   0  0  0  0  0  0  0  0  0  0  0  0
    8.0669   -6.7977    0.0000 C   0  0  1  0  0  0  0  0  0  0  0  0
    8.1509   -7.6184    0.0000 C   0  0  2  0  0  0  0  0  0  0  0  0
    8.2349   -8.4391    0.0000 C   0  0  0  0  0  0  0  0  0  0  0  0
    7.4821   -8.1015    0.0000 C   0  0  2  0  0  0  0  0  0  0  0  0
    6.7294   -7.7639    0.0000 C   0  0  1  0  0  0  0  0  0  0  0  0
    6.6453   -6.9432    0.0000 C   0  0  1  0  0  0  0  0  0  0  0  0
    7.4010   -3.5464    0.0000 O   0  0  0  0  0  0  0  0  0  0  0  0
    5.8926   -6.6056    0.0000 C   0  0  0  0  0  0  0  0  0  0  0  0
    9.0318   -8.6526    0.0000 C   0  0  0  0  0  0  0  0  0  0  0  0
    8.0214   -9.2360    0.0000 C   0  0  0  0  0  0  0  0  0  0  0  0
    5.6845   -4.0708    0.0000 C   0  0  0  0  0  0  0  0  0  0  0  0
    9.7608   -5.4052    0.0000 C   0  0  0  0  0  0  0  0  0  0  0  0
    9.9824   -4.6106    0.0000 O   0  0  0  0  0  0  0  0  0  0  0  0
    6.0606   -8.2470    0.0000 O   0  0  0  0  0  0  0  0  0  0  0  0
    7.1445   -8.8543    0.0000 O   0  0  0  0  0  0  0  0  0  0  0  0
    7.9429   -4.2495    0.0000 O   0  0  0  0  0  0  0  0  0  0  0  0
    6.5613   -6.1225    0.0000 O   0  0  0  0  0  0  0  0  0  0  0  0
    7.8615   -5.9987    0.0000 H   0  0  0  0  0  0  0  0  0  0  0  0
    8.8196   -7.1353    0.0000 H   0  0  0  0  0  0  0  0  0  0  0  0
    8.9716   -7.5344    0.0000 H   0  0  0  0  0  0  0  0  0  0  0  0
  1  2  1  0  0  0  0
  2  3  1  0  0  0  0
  3  4  2  0  0  0  0
  4  5  1  0  0  0  0
  5  6  1  0  0  0  0
  6  7  1  0  0  0  0
  7  8  1  0  0  0  0
  8  9  2  0  0  0  0
  9 10  1  0  0  0  0
 10 11  1  0  0  0  0
 11 12  1  0  0  0  0
 12 13  1  0  0  0  0
 13 14  1  0  0  0  0
 14 15  1  0  0  0  0
  1 15  1  0  0  0  0
  1 10  1  0  0  0  0
 11 13  1  0  0  0  0
  2  6  1  0  0  0  0
  5 16  2  0  0  0  0
 15 17  1  1  0  0  0
 12 18  1  0  0  0  0
 12 19  1  0  0  0  0
  4 20  1  0  0  0  0
 21 22  1  0  0  0  0
  8 21  1  0  0  0  0
 14 23  1  6  0  0  0
 13 24  1  1  0  0  0
  6 25  1  6  0  0  0
  1 26  1  1  0  0  0
  2 27  1  1  0  0  0
 10 28  1  6  0  0  0
 11 29  1  1  0  0  0
M  END
>  <cdx:fragmentId>
1359

$$$$
