302033.cdx
  Mrv1902 05222410272D          

  8  7  0  0  0  0            999 V2000
    5.2816   -6.4366    0.0000 C   0  0  0  0  0  0  0  0  0  0  0  0
    5.9961   -6.0241    0.0000 O   0  0  0  0  0  0  0  0  0  0  0  0
    6.7105   -7.2616    0.0000 O   0  0  0  0  0  0  0  0  0  0  0  0
    9.5684   -6.4366    0.0000 C   0  0  0  0  0  0  0  0  0  0  0  0
    8.8539   -6.0241    0.0000 C   0  0  0  0  0  0  0  0  0  0  0  0
    8.1395   -6.4366    0.0000 C   0  0  0  0  0  0  0  0  0  0  0  0
    7.4250   -6.0241    0.0000 C   0  0  0  0  0  0  0  0  0  0  0  0
    6.7105   -6.4366    0.0000 C   0  0  0  0  0  0  0  0  0  0  0  0
  2  1  1  0  0  0  0
  8  2  1  0  0  0  0
  8  3  2  0  0  0  0
  5  4  1  0  0  0  0
  6  5  1  0  0  0  0
  7  6  1  0  0  0  0
  8  7  1  0  0  0  0
M  END
>  <cdx:fragmentId>
839

$$$$
