302039.cdx
  Mrv1902 05222410202D          

 46 51  0  0  0  0            999 V2000
    3.1406   -7.4529    0.0000 C   0  0  1  0  0  0  0  0  0  0  0  0
    2.4262   -7.8654    0.0000 C   0  0  0  0  0  0  0  0  0  0  0  0
    2.4262   -8.6904    0.0000 C   0  0  0  0  0  0  0  0  0  0  0  0
    3.1406   -9.1029    0.0000 C   0  0  0  0  0  0  0  0  0  0  0  0
    3.8551   -8.6904    0.0000 C   0  0  1  0  0  0  0  0  0  0  0  0
    3.8551   -7.8654    0.0000 O   0  0  0  0  0  0  0  0  0  0  0  0
    3.1406   -9.9279    0.0000 O   0  0  0  0  0  0  0  0  0  0  0  0
    3.1406   -6.6279    0.0000 C   0  0  0  0  0  0  0  0  0  0  0  0
    1.7117   -9.1029    0.0000 O   0  0  0  0  0  0  0  0  0  0  0  0
    0.9972   -8.6904    0.0000 C   0  0  0  0  0  0  0  0  0  0  0  0
    4.5696   -9.1029    0.0000 O   0  0  0  0  0  0  0  0  0  0  0  0
    5.9985   -7.4529    0.0000 C   0  0  0  0  0  0  0  0  0  0  0  0
    5.2840   -7.8654    0.0000 C   0  0  0  0  0  0  0  0  0  0  0  0
    5.2840   -8.6904    0.0000 C   0  0  1  0  0  0  0  0  0  0  0  0
    5.9985   -9.1029    0.0000 C   0  0  0  0  0  0  0  0  0  0  0  0
    6.7130   -8.6904    0.0000 C   0  0  0  0  0  0  0  0  0  0  0  0
    7.4275   -9.1029    0.0000 C   0  0  0  0  0  0  0  0  0  0  0  0
    8.1419   -8.6904    0.0000 C   0  0  0  0  0  0  0  0  0  0  0  0
    8.1419   -7.8654    0.0000 C   0  0  1  0  0  0  0  0  0  0  0  0
    8.8564   -7.4529    0.0000 C   0  0  2  0  0  0  0  0  0  0  0  0
    9.6410   -7.7078    0.0000 C   0  0  0  0  0  0  0  0  0  0  0  0
   10.1259   -7.0404    0.0000 C   0  0  0  0  0  0  0  0  0  0  0  0
    9.6410   -6.3729    0.0000 C   0  0  2  0  0  0  0  0  0  0  0  0
    8.8564   -6.6279    0.0000 C   0  0  1  0  0  0  0  0  0  0  0  0
    8.1419   -6.2154    0.0000 C   0  0  0  0  0  0  0  0  0  0  0  0
    7.4275   -6.6279    0.0000 C   0  0  0  0  0  0  0  0  0  0  0  0
    7.4275   -7.4529    0.0000 C   0  0  2  0  0  0  0  0  0  0  0  0
    6.7130   -7.8654    0.0000 C   0  0  1  0  0  0  0  0  0  0  0  0
    8.9426   -5.8074    0.0000 C   0  0  0  0  0  0  0  0  0  0  0  0
    6.7130   -7.0404    0.0000 C   0  0  0  0  0  0  0  0  0  0  0  0
    9.4695   -5.5660    0.0000 O   0  0  0  0  0  0  0  0  0  0  0  0
   10.2541   -5.8209    0.0000 C   0  0  2  0  0  0  0  0  0  0  0  0
   10.0826   -5.0139    0.0000 C   0  0  0  0  0  0  0  0  0  0  0  0
   11.0387   -6.0758    0.0000 O   0  0  0  0  0  0  0  0  0  0  0  0
   12.4364   -5.7787    0.0000 O   0  0  0  0  0  0  0  0  0  0  0  0
   11.6518   -5.5238    0.0000 C   0  0  1  0  0  0  0  0  0  0  0  0
   11.4803   -4.7168    0.0000 C   0  0  0  0  0  0  0  0  0  0  0  0
   12.0934   -4.1648    0.0000 C   0  0  1  0  0  0  0  0  0  0  0  0
   12.8780   -4.4197    0.0000 C   0  0  1  0  0  0  0  0  0  0  0  0
   13.0495   -5.2267    0.0000 C   0  0  2  0  0  0  0  0  0  0  0  0
   13.8342   -5.4817    0.0000 C   0  0  0  0  0  0  0  0  0  0  0  0
   13.4911   -3.8677    0.0000 O   0  0  0  0  0  0  0  0  0  0  0  0
   11.9219   -3.3578    0.0000 O   0  0  0  0  0  0  0  0  0  0  0  0
    8.1419   -7.0404    0.0000 H   0  0  0  0  0  0  0  0  0  0  0  0
    7.4275   -8.2779    0.0000 H   0  0  0  0  0  0  0  0  0  0  0  0
    8.8564   -8.2779    0.0000 H   0  0  0  0  0  0  0  0  0  0  0  0
  1  2  1  0  0  0  0
  2  3  2  0  0  0  0
  3  4  1  0  0  0  0
  4  5  1  0  0  0  0
  5  6  1  0  0  0  0
  1  6  1  0  0  0  0
  4  7  2  0  0  0  0
  1  8  1  6  0  0  0
  9 10  1  0  0  0  0
  3  9  1  0  0  0  0
 12 13  1  0  0  0  0
 13 14  1  0  0  0  0
 14 15  1  0  0  0  0
 15 16  1  0  0  0  0
 16 17  2  0  0  0  0
 17 18  1  0  0  0  0
 18 19  1  0  0  0  0
 19 20  1  0  0  0  0
 20 21  1  0  0  0  0
 21 22  1  0  0  0  0
 22 23  1  0  0  0  0
 23 24  1  0  0  0  0
 20 24  1  0  0  0  0
 24 25  1  0  0  0  0
 25 26  1  0  0  0  0
 26 27  1  0  0  0  0
 19 27  1  0  0  0  0
 27 28  1  0  0  0  0
 16 28  1  0  0  0  0
 12 28  1  0  0  0  0
 24 29  1  1  0  0  0
 28 30  1  1  0  0  0
 23 31  1  6  0  0  0
 32 33  1  6  0  0  0
 35 36  1  0  0  0  0
 36 37  1  0  0  0  0
 37 38  1  0  0  0  0
 38 39  1  0  0  0  0
 39 40  1  0  0  0  0
 35 40  1  0  0  0  0
 40 41  1  6  0  0  0
 39 42  1  6  0  0  0
 38 43  1  6  0  0  0
 36 34  1  6  0  0  0
 32 34  1  0  0  0  0
 23 32  1  0  0  0  0
 14 11  1  1  0  0  0
  5 11  1  1  0  0  0
 19 44  1  1  0  0  0
 27 45  1  6  0  0  0
 20 46  1  6  0  0  0
M  END
>  <cdx:groupId>
1279

>  <cdx:fragmentId>
1161

$$$$
