302037.cdx
  Mrv1902 05222410262D          

 22 22  0  0  0  0            999 V2000
   10.0373   -7.5169    0.0000 C   0  0  0  0  0  0  0  0  0  0  0  0
    9.3229   -7.1044    0.0000 C   0  0  0  0  0  0  0  0  0  0  0  0
    8.6084   -7.5169    0.0000 C   0  0  1  0  0  0  0  0  0  0  0  0
    7.8939   -7.1044    0.0000 C   0  0  1  0  0  0  0  0  0  0  0  0
    7.8939   -6.2794    0.0000 C   0  0  1  0  0  0  0  0  0  0  0  0
    7.1794   -5.8669    0.0000 C   0  0  0  0  0  0  0  0  0  0  0  0
   10.7518   -7.1044    0.0000 O   0  0  0  0  0  0  0  0  0  0  0  0
    7.1794   -7.5169    0.0000 O   0  0  0  0  0  0  0  0  0  0  0  0
    6.4650   -6.2794    0.0000 O   0  0  0  0  0  0  0  0  0  0  0  0
    6.4650   -7.1044    0.0000 C   0  0  2  0  0  0  0  0  0  0  0  0
    5.7505   -7.5169    0.0000 C   0  0  1  0  0  0  0  0  0  0  0  0
    5.0360   -7.1044    0.0000 C   0  0  2  0  0  0  0  0  0  0  0  0
    5.0360   -6.2794    0.0000 C   0  0  1  0  0  0  0  0  0  0  0  0
    5.7505   -5.8669    0.0000 C   0  0  1  0  0  0  0  0  0  0  0  0
    5.7505   -5.0419    0.0000 C   0  0  0  0  0  0  0  0  0  0  0  0
    5.0360   -4.6294    0.0000 O   0  0  0  0  0  0  0  0  0  0  0  0
    4.3216   -5.8669    0.0000 O   0  0  0  0  0  0  0  0  0  0  0  0
    4.3216   -7.5169    0.0000 O   0  0  0  0  0  0  0  0  0  0  0  0
    5.7505   -8.3419    0.0000 O   0  0  0  0  0  0  0  0  0  0  0  0
    8.6084   -8.3419    0.0000 O   0  0  0  0  0  0  0  0  0  0  0  0
    9.3229   -8.7544    0.0000 C   0  0  0  0  0  0  0  0  0  0  0  0
    8.6084   -5.8669    0.0000 O   0  0  0  0  0  0  0  0  0  0  0  0
  1  2  1  0  0  0  0
  2  3  1  0  0  0  0
  3  4  1  0  0  0  0
  4  5  1  0  0  0  0
  5  6  1  0  0  0  0
  1  7  2  0  0  0  0
  9 10  1  0  0  0  0
 10 11  1  0  0  0  0
 11 12  1  0  0  0  0
 12 13  1  0  0  0  0
 13 14  1  0  0  0  0
  9 14  1  0  0  0  0
 15 16  1  0  0  0  0
 14 15  1  1  0  0  0
 13 17  1  6  0  0  0
 12 18  1  1  0  0  0
 11 19  1  6  0  0  0
 10  8  1  1  0  0  0
  4  8  1  6  0  0  0
 20 21  1  0  0  0  0
  3 20  1  6  0  0  0
  5 22  1  1  0  0  0
M  END
>  <cdx:groupId>
1131

>  <cdx:fragmentId>
1084

$$$$
