302029.cdx
  Mrv1902 05222410182D          

  9  8  0  0  0  0            999 V2000
    7.1230   -7.1426    0.0000 C   0  0  0  0  0  0  0  0  0  0  0  0
    6.7105   -6.4281    0.0000 C   0  0  0  0  0  0  0  0  0  0  0  0
    7.4250   -6.0156    0.0000 C   0  0  0  0  0  0  0  0  0  0  0  0
    8.1395   -6.4281    0.0000 C   0  0  0  0  0  0  0  0  0  0  0  0
    8.8539   -6.0156    0.0000 C   0  0  0  0  0  0  0  0  0  0  0  0
    8.1395   -7.2531    0.0000 C   0  0  0  0  0  0  0  0  0  0  0  0
    7.4250   -5.1906    0.0000 C   0  0  0  0  0  0  0  0  0  0  0  0
    5.9961   -6.8406    0.0000 C   0  0  0  0  0  0  0  0  0  0  0  0
    6.2980   -5.7137    0.0000 C   0  0  0  0  0  0  0  0  0  0  0  0
  1  2  1  0  0  0  0
  2  3  1  0  0  0  0
  3  4  1  0  0  0  0
  4  5  1  0  0  0  0
  4  6  1  0  0  0  0
  3  7  1  0  0  0  0
  2  8  1  0  0  0  0
  2  9  1  0  0  0  0
M  END
>  <cdx:fragmentId>
717

$$$$
