302042.cdx
  Mrv1902 05222410242D          

 24 26  0  0  0  0            999 V2000
    6.9665   -6.6246    0.0000 O   0  0  0  0  0  0  0  0  0  0  0  0
    6.2473   -7.0288    0.0000 C   0  0  1  0  0  0  0  0  0  0  0  0
    6.2378   -7.8538    0.0000 C   0  0  2  0  0  0  0  0  0  0  0  0
    6.9475   -8.2744    0.0000 C   0  0  1  0  0  0  0  0  0  0  0  0
    7.6667   -7.8702    0.0000 C   0  0  2  0  0  0  0  0  0  0  0  0
    7.6762   -7.0452    0.0000 C   0  0  2  0  0  0  0  0  0  0  0  0
    5.5187   -8.2580    0.0000 O   0  0  0  0  0  0  0  0  0  0  0  0
    6.9380   -9.0994    0.0000 O   0  0  0  0  0  0  0  0  0  0  0  0
    8.3764   -8.2909    0.0000 O   0  0  0  0  0  0  0  0  0  0  0  0
    8.3953   -6.6410    0.0000 O   0  0  0  0  0  0  0  0  0  0  0  0
    9.2125   -5.1150    0.0000 C   0  0  1  0  0  0  0  0  0  0  0  0
    8.4048   -5.8160    0.0000 C   0  0  1  0  0  0  0  0  0  0  0  0
    7.8375   -5.1425    0.0000 C   0  0  1  0  0  0  0  0  0  0  0  0
    9.1025   -4.1800    0.0000 C   0  0  2  0  0  0  0  0  0  0  0  0
   10.4500   -4.1250    0.0000 C   0  0  0  0  0  0  0  0  0  0  0  0
   10.4500   -5.0600    0.0000 C   0  0  0  0  0  0  0  0  0  0  0  0
    8.1675   -3.6300    0.0000 O   0  0  0  0  0  0  0  0  0  0  0  0
    9.2125   -6.5720    0.0000 C   0  0  0  0  0  0  0  0  0  0  0  0
    9.6250   -5.8575    0.0000 C   0  0  0  0  0  0  0  0  0  0  0  0
   10.4500   -5.8575    0.0000 C   0  0  0  0  0  0  0  0  0  0  0  0
    9.1025   -3.3550    0.0000 C   0  0  0  0  0  0  0  0  0  0  0  0
    7.0125   -5.1425    0.0000 O   0  0  0  0  0  0  0  0  0  0  0  0
    5.5376   -6.6081    0.0000 C   0  0  0  0  0  0  0  0  0  0  0  0
    4.8185   -7.0124    0.0000 O   0  0  0  0  0  0  0  0  0  0  0  0
  1  2  1  0  0  0  0
  2  3  1  0  0  0  0
  3  4  1  0  0  0  0
  4  5  1  0  0  0  0
  5  6  1  0  0  0  0
  1  6  1  0  0  0  0
  3  7  1  6  0  0  0
  4  8  1  1  0  0  0
  5  9  1  6  0  0  0
 11 12  1  0  0  0  0
 12 13  1  0  0  0  0
 13 14  1  0  0  0  0
 14 15  1  0  0  0  0
 15 16  1  0  0  0  0
 11 16  1  0  0  0  0
 11 17  1  0  0  0  0
 14 17  1  0  0  0  0
 18 19  2  0  0  0  0
 19 20  1  0  0  0  0
 11 19  1  1  0  0  0
 14 21  1  6  0  0  0
 13 22  1  6  0  0  0
 12 10  1  6  0  0  0
  6 10  1  1  0  0  0
 23 24  1  0  0  0  0
  2 23  1  1  0  0  0
M  END
>  <cdx:fragmentId>
1379

$$$$
