302001.cdx
  Mrv1902 05222410182D          

 30 33  0  0  0  0            999 V2000
    4.6544   -6.9850    0.0000 C   0  0  0  0  0  0  0  0  0  0  0  0
    5.3688   -7.3975    0.0000 C   0  0  1  0  0  0  0  0  0  0  0  0
    6.0833   -6.9850    0.0000 C   0  0  2  0  0  0  0  0  0  0  0  0
    6.0833   -6.1600    0.0000 C   0  0  1  0  0  0  0  0  0  0  0  0
    5.3688   -5.7475    0.0000 C   0  0  0  0  0  0  0  0  0  0  0  0
    4.6544   -6.1600    0.0000 C   0  0  0  0  0  0  0  0  0  0  0  0
    6.7978   -7.3975    0.0000 C   0  0  0  0  0  0  0  0  0  0  0  0
    7.5123   -6.9850    0.0000 C   0  0  0  0  0  0  0  0  0  0  0  0
    7.5123   -6.1600    0.0000 C   0  0  0  0  0  0  0  0  0  0  0  0
    6.7978   -5.7475    0.0000 C   0  0  1  0  0  0  0  0  0  0  0  0
    8.2267   -5.7475    0.0000 C   0  0  0  0  0  0  0  0  0  0  0  0
    8.2267   -4.9225    0.0000 C   0  0  1  0  0  0  0  0  0  0  0  0
    7.5123   -4.5100    0.0000 C   0  0  0  0  0  0  0  0  0  0  0  0
    6.7978   -4.9225    0.0000 C   0  0  0  0  0  0  0  0  0  0  0  0
    4.6544   -7.8100    0.0000 C   0  0  0  0  0  0  0  0  0  0  0  0
    3.8575   -7.5965    0.0000 O   0  0  0  0  0  0  0  0  0  0  0  0
    3.0606   -7.8100    0.0000 C   0  0  0  0  0  0  0  0  0  0  0  0
    2.2637   -7.5965    0.0000 C   0  0  0  0  0  0  0  0  0  0  0  0
    3.0606   -8.6350    0.0000 O   0  0  0  0  0  0  0  0  0  0  0  0
    5.3688   -8.2225    0.0000 C   0  0  0  0  0  0  0  0  0  0  0  0
    4.6544   -8.6350    0.0000 O   0  0  0  0  0  0  0  0  0  0  0  0
    6.0833   -8.6350    0.0000 O   0  0  0  0  0  0  0  0  0  0  0  0
    6.0833   -5.3350    0.0000 C   0  0  0  0  0  0  0  0  0  0  0  0
    6.7978   -6.5725    0.0000 H   0  0  0  0  0  0  0  0  0  0  0  0
    6.0833   -7.8100    0.0000 H   0  0  0  0  0  0  0  0  0  0  0  0
    8.6392   -4.2080    0.0000 H   0  0  0  0  0  0  0  0  0  0  0  0
    8.9412   -5.3350    0.0000 C   0  0  1  0  0  0  0  0  0  0  0  0
    8.2267   -6.5725    0.0000 C   0  0  0  0  0  0  0  0  0  0  0  0
    9.7662   -5.3350    0.0000 C   0  0  0  0  0  0  0  0  0  0  0  0
   10.1787   -6.0495    0.0000 O   0  0  0  0  0  0  0  0  0  0  0  0
  1  2  1  0  0  0  0
  2  3  1  0  0  0  0
  3  4  1  0  0  0  0
  4  5  1  0  0  0  0
  5  6  1  0  0  0  0
  6  1  1  0  0  0  0
  3  7  1  0  0  0  0
  7  8  1  0  0  0  0
  8  9  1  0  0  0  0
  9 10  1  0  0  0  0
 10  4  1  0  0  0  0
  9 11  1  0  0  0  0
 11 12  1  0  0  0  0
 12 13  1  0  0  0  0
 13 14  1  0  0  0  0
 14 10  1  0  0  0  0
  2 15  1  1  0  0  0
 15 16  1  0  0  0  0
 16 17  1  0  0  0  0
 17 18  1  0  0  0  0
 17 19  2  0  0  0  0
  2 20  1  1  0  0  0
 20 21  1  0  0  0  0
 20 22  2  0  0  0  0
  4 23  1  6  0  0  0
 10 24  1  1  0  0  0
  3 25  1  1  0  0  0
 12 26  1  6  0  0  0
 12 27  1  0  0  0  0
  9 28  1  1  0  0  0
 28 27  1  0  0  0  0
 29 30  1  0  0  0  0
 27 29  1  6  0  0  0
M  END
>  <cdx:fragmentId>
3553

$$$$
