30202.cdx
  Mrv1902 05222410242D          

  9  8  0  0  0  0            999 V2000
    4.1775   -8.8401    0.0000 O   0  0  0  0  0  0  0  0  0  0  0  0
    4.8920   -8.4276    0.0000 C   0  0  0  0  0  0  0  0  0  0  0  0
    5.6065   -8.8401    0.0000 C   0  0  0  0  0  0  0  0  0  0  0  0
    6.3209   -8.4276    0.0000 C   0  0  0  0  0  0  0  0  0  0  0  0
    7.0354   -8.8401    0.0000 O   0  0  0  0  0  0  0  0  0  0  0  0
    7.7499   -8.4276    0.0000 C   0  0  0  0  0  0  0  0  0  0  0  0
    8.4644   -8.8401    0.0000 C   0  0  0  0  0  0  0  0  0  0  0  0
    5.6065   -9.6651    0.0000 O   0  0  0  0  0  0  0  0  0  0  0  0
    7.7499   -7.6026    0.0000 O   0  0  0  0  0  0  0  0  0  0  0  0
  1  2  1  0  0  0  0
  2  3  1  0  0  0  0
  3  4  1  0  0  0  0
  4  5  1  0  0  0  0
  5  6  1  0  0  0  0
  6  7  1  0  0  0  0
  3  8  1  0  0  0  0
  6  9  2  0  0  0  0
M  END
>  <cdx:fragmentId>
3

$$$$
