302013.cdx
  Mrv1902 05222410192D          

 30 33  0  0  0  0            999 V2000
    4.1319   -5.7062    0.0000 C   0  0  0  0  0  0  0  0  0  0  0  0
    4.1319   -6.5313    0.0000 C   0  0  0  0  0  0  0  0  0  0  0  0
    4.8463   -6.9438    0.0000 C   0  0  0  0  0  0  0  0  0  0  0  0
    5.5608   -6.5313    0.0000 C   0  0  0  0  0  0  0  0  0  0  0  0
    5.5608   -5.7062    0.0000 C   0  0  0  0  0  0  0  0  0  0  0  0
    4.8463   -5.2938    0.0000 C   0  0  0  0  0  0  0  0  0  0  0  0
    6.2753   -6.9438    0.0000 C   0  0  2  0  0  0  0  0  0  0  0  0
    6.9898   -6.5313    0.0000 C   0  0  1  0  0  0  0  0  0  0  0  0
    6.9898   -5.7062    0.0000 C   0  0  2  0  0  0  0  0  0  0  0  0
    6.2753   -5.2938    0.0000 O   0  0  0  0  0  0  0  0  0  0  0  0
    3.4174   -5.2938    0.0000 O   0  0  0  0  0  0  0  0  0  0  0  0
    4.8463   -7.7687    0.0000 O   0  0  0  0  0  0  0  0  0  0  0  0
    7.7042   -6.9438    0.0000 O   0  0  0  0  0  0  0  0  0  0  0  0
    7.7042   -5.2938    0.0000 C   0  0  0  0  0  0  0  0  0  0  0  0
    8.4187   -5.7062    0.0000 C   0  0  0  0  0  0  0  0  0  0  0  0
    9.1332   -5.2938    0.0000 C   0  0  0  0  0  0  0  0  0  0  0  0
    9.1332   -4.4687    0.0000 C   0  0  0  0  0  0  0  0  0  0  0  0
    8.4187   -4.0563    0.0000 C   0  0  0  0  0  0  0  0  0  0  0  0
    7.7042   -4.4687    0.0000 C   0  0  0  0  0  0  0  0  0  0  0  0
    8.4187   -3.2313    0.0000 O   0  0  0  0  0  0  0  0  0  0  0  0
    9.8476   -4.0562    0.0000 O   0  0  0  0  0  0  0  0  0  0  0  0
    6.3181   -8.1263    0.0000 C   0  0  0  0  0  0  0  0  0  0  0  0
    5.6037   -8.5388    0.0000 C   0  0  0  0  0  0  0  0  0  0  0  0
    5.6037   -9.3637    0.0000 C   0  0  0  0  0  0  0  0  0  0  0  0
    6.3181   -9.7763    0.0000 C   0  0  0  0  0  0  0  0  0  0  0  0
    7.0326   -9.3637    0.0000 C   0  0  0  0  0  0  0  0  0  0  0  0
    7.0326   -8.5388    0.0000 C   0  0  0  0  0  0  0  0  0  0  0  0
    4.8892   -8.1263    0.0000 O   0  0  0  0  0  0  0  0  0  0  0  0
    6.3181  -10.6013    0.0000 O   0  0  0  0  0  0  0  0  0  0  0  0
    7.7471   -8.1263    0.0000 O   0  0  0  0  0  0  0  0  0  0  0  0
  1  2  2  0  0  0  0
  2  3  1  0  0  0  0
  3  4  2  0  0  0  0
  4  5  1  0  0  0  0
  5  6  2  0  0  0  0
  6  1  1  0  0  0  0
  4  7  1  0  0  0  0
  7  8  1  0  0  0  0
  8  9  1  0  0  0  0
  9 10  1  0  0  0  0
 10  5  1  0  0  0  0
  1 11  1  0  0  0  0
  3 12  1  0  0  0  0
  8 13  1  1  0  0  0
  9 14  1  6  0  0  0
 14 15  2  0  0  0  0
 15 16  1  0  0  0  0
 16 17  2  0  0  0  0
 17 18  1  0  0  0  0
 18 19  2  0  0  0  0
 19 14  1  0  0  0  0
 18 20  1  0  0  0  0
 17 21  1  0  0  0  0
 22 23  2  0  0  0  0
 23 24  1  0  0  0  0
 24 25  2  0  0  0  0
 25 26  1  0  0  0  0
 26 27  2  0  0  0  0
 27 22  1  0  0  0  0
 23 28  1  0  0  0  0
 25 29  1  0  0  0  0
 27 30  1  0  0  0  0
  7 22  1  6  0  0  0
M  END
>  <cdx:fragmentId>
4149

$$$$
