302081.cdx
  Mrv1902 05222410232D          

 24 24  0  0  0  0            999 V2000
    6.5106   -6.9300    0.0000 C   0  0  0  0  0  0  0  0  0  0  0  0
    6.5106   -7.7550    0.0000 C   0  0  0  0  0  0  0  0  0  0  0  0
    7.2251   -8.1675    0.0000 C   0  0  0  0  0  0  0  0  0  0  0  0
    7.9396   -7.7550    0.0000 C   0  0  0  0  0  0  0  0  0  0  0  0
    7.9396   -6.9300    0.0000 C   0  0  0  0  0  0  0  0  0  0  0  0
    7.2251   -6.5175    0.0000 C   0  0  0  0  0  0  0  0  0  0  0  0
    5.7962   -6.5175    0.0000 C   0  0  0  0  0  0  0  0  0  0  0  0
    5.0817   -6.9300    0.0000 O   0  0  0  0  0  0  0  0  0  0  0  0
    4.3672   -6.5175    0.0000 C   0  0  0  0  0  0  0  0  0  0  0  0
    3.6527   -6.9300    0.0000 C   0  0  0  0  0  0  0  0  0  0  0  0
    2.9383   -6.5175    0.0000 C   0  0  0  0  0  0  0  0  0  0  0  0
    2.2238   -6.9300    0.0000 C   0  0  0  0  0  0  0  0  0  0  0  0
    7.2251   -5.6925    0.0000 C   0  0  0  0  0  0  0  0  0  0  0  0
    7.9396   -5.2800    0.0000 O   0  0  0  0  0  0  0  0  0  0  0  0
    7.9396   -4.4550    0.0000 C   0  0  0  0  0  0  0  0  0  0  0  0
    8.6540   -4.0425    0.0000 C   0  0  0  0  0  0  0  0  0  0  0  0
    8.6540   -3.2175    0.0000 O   0  0  0  0  0  0  0  0  0  0  0  0
    9.3685   -2.8050    0.0000 C   0  0  0  0  0  0  0  0  0  0  0  0
    9.9519   -2.2216    0.0000 C   0  0  0  0  0  0  0  0  0  0  0  0
    9.9519   -3.3884    0.0000 C   0  0  0  0  0  0  0  0  0  0  0  0
    8.7851   -2.2216    0.0000 C   0  0  0  0  0  0  0  0  0  0  0  0
    7.2251   -4.0425    0.0000 C   0  0  0  0  0  0  0  0  0  0  0  0
    5.7962   -5.6925    0.0000 O   0  0  0  0  0  0  0  0  0  0  0  0
    6.5106   -5.2800    0.0000 O   0  0  0  0  0  0  0  0  0  0  0  0
  1  2  2  0  0  0  0
  2  3  1  0  0  0  0
  3  4  2  0  0  0  0
  4  5  1  0  0  0  0
  5  6  2  0  0  0  0
  6  1  1  0  0  0  0
  1  7  1  0  0  0  0
  7  8  1  0  0  0  0
  8  9  1  0  0  0  0
  9 10  1  0  0  0  0
 10 11  1  0  0  0  0
 11 12  1  0  0  0  0
  6 13  1  0  0  0  0
 13 14  1  0  0  0  0
 14 15  1  0  0  0  0
 15 16  1  0  0  0  0
 16 17  1  0  0  0  0
 17 18  1  0  0  0  0
 18 19  1  0  0  0  0
 18 20  1  0  0  0  0
 18 21  1  0  0  0  0
 15 22  1  0  0  0  0
  7 23  2  0  0  0  0
 13 24  2  0  0  0  0
M  END
>  <cdx:fragmentId>
489

$$$$
