302095=6.cdx
  Mrv1902 05222410242D          

 59 65  0  0  0  0            999 V2000
    2.9317   -8.3685    0.0000 C   0  0  0  0  0  0  0  0  0  0  0  0
    2.9317   -7.5435    0.0000 C   0  0  0  0  0  0  0  0  0  0  0  0
    3.6462   -7.1310    0.0000 C   0  0  0  0  0  0  0  0  0  0  0  0
    2.2172   -8.7810    0.0000 O   0  0  0  0  0  0  0  0  0  0  0  0
    2.2172   -7.1310    0.0000 C   0  0  0  0  0  0  0  0  0  0  0  0
    3.6462   -8.7810    0.0000 C   0  0  0  0  0  0  0  0  0  0  0  0
    4.3606   -8.3685    0.0000 C   0  0  0  0  0  0  0  0  0  0  0  0
    5.0751   -8.7810    0.0000 C   0  0  0  0  0  0  0  0  0  0  0  0
    5.0751   -9.6060    0.0000 C   0  0  0  0  0  0  0  0  0  0  0  0
    4.3606  -10.0185    0.0000 C   0  0  0  0  0  0  0  0  0  0  0  0
    3.6462   -9.6060    0.0000 C   0  0  0  0  0  0  0  0  0  0  0  0
    4.3606  -10.8435    0.0000 C   0  0  0  0  0  0  0  0  0  0  0  0
    2.9317  -10.0185    0.0000 O   0  0  0  0  0  0  0  0  0  0  0  0
    2.2172   -9.6060    0.0000 C   0  0  0  0  0  0  0  0  0  0  0  0
    5.7896  -10.0185    0.0000 O   0  0  0  0  0  0  0  0  0  0  0  0
    4.3606   -7.5435    0.0000 O   0  0  0  0  0  0  0  0  0  0  0  0
    6.0039   -8.2447    0.0000 C   0  0  0  0  0  0  0  0  0  0  0  0
    8.1473   -6.7597    0.0000 C   0  0  2  0  0  0  0  0  0  0  0  0
    8.1473   -5.9347    0.0000 C   0  0  2  0  0  0  0  0  0  0  0  0
    7.4329   -5.5222    0.0000 C   0  0  1  0  0  0  0  0  0  0  0  0
    6.7184   -5.9347    0.0000 C   0  0  0  0  0  0  0  0  0  0  0  0
    6.0039   -5.5222    0.0000 C   0  0  0  0  0  0  0  0  0  0  0  0
    5.2895   -5.9347    0.0000 C   0  0  0  0  0  0  0  0  0  0  0  0
    5.2895   -6.7597    0.0000 C   0  0  0  0  0  0  0  0  0  0  0  0
    6.0039   -7.1722    0.0000 C   0  0  0  0  0  0  0  0  0  0  0  0
    6.7184   -6.7597    0.0000 C   0  0  0  0  0  0  0  0  0  0  0  0
    7.4329   -7.1722    0.0000 O   0  0  0  0  0  0  0  0  0  0  0  0
    4.5750   -7.1722    0.0000 O   0  0  0  0  0  0  0  0  0  0  0  0
    6.0039   -4.6972    0.0000 O   0  0  0  0  0  0  0  0  0  0  0  0
    8.8618   -5.5222    0.0000 O   0  0  0  0  0  0  0  0  0  0  0  0
    9.5763   -3.7897    0.0000 C   0  0  2  0  0  0  0  0  0  0  0  0
    9.5763   -2.9647    0.0000 C   0  0  1  0  0  0  0  0  0  0  0  0
    8.8618   -2.5522    0.0000 C   0  0  0  0  0  0  0  0  0  0  0  0
    8.1473   -2.9647    0.0000 C   0  0  0  0  0  0  0  0  0  0  0  0
    7.4329   -2.5522    0.0000 C   0  0  0  0  0  0  0  0  0  0  0  0
    6.7184   -2.9647    0.0000 C   0  0  0  0  0  0  0  0  0  0  0  0
    6.7184   -3.7897    0.0000 C   0  0  0  0  0  0  0  0  0  0  0  0
    7.4329   -4.2022    0.0000 C   0  0  0  0  0  0  0  0  0  0  0  0
    8.1473   -3.7897    0.0000 C   0  0  0  0  0  0  0  0  0  0  0  0
    8.8618   -4.2022    0.0000 O   0  0  0  0  0  0  0  0  0  0  0  0
    6.0039   -4.2022    0.0000 O   0  0  0  0  0  0  0  0  0  0  0  0
    7.4329   -1.7272    0.0000 O   0  0  0  0  0  0  0  0  0  0  0  0
   10.2908   -2.5522    0.0000 O   0  0  0  0  0  0  0  0  0  0  0  0
   10.2908   -4.2022    0.0000 C   0  0  0  0  0  0  0  0  0  0  0  0
   11.0052   -3.7897    0.0000 C   0  0  0  0  0  0  0  0  0  0  0  0
   11.7197   -4.2022    0.0000 C   0  0  0  0  0  0  0  0  0  0  0  0
   11.7197   -5.0272    0.0000 C   0  0  0  0  0  0  0  0  0  0  0  0
   11.0052   -5.4397    0.0000 C   0  0  0  0  0  0  0  0  0  0  0  0
   10.2908   -5.0272    0.0000 C   0  0  0  0  0  0  0  0  0  0  0  0
   12.4342   -5.4397    0.0000 O   0  0  0  0  0  0  0  0  0  0  0  0
   12.4342   -3.7897    0.0000 O   0  0  0  0  0  0  0  0  0  0  0  0
    8.8618   -7.1722    0.0000 C   0  0  0  0  0  0  0  0  0  0  0  0
    9.5763   -6.7597    0.0000 C   0  0  0  0  0  0  0  0  0  0  0  0
   10.2908   -7.1722    0.0000 C   0  0  0  0  0  0  0  0  0  0  0  0
   10.2908   -7.9972    0.0000 C   0  0  0  0  0  0  0  0  0  0  0  0
    9.5763   -8.4097    0.0000 C   0  0  0  0  0  0  0  0  0  0  0  0
    8.8618   -7.9972    0.0000 C   0  0  0  0  0  0  0  0  0  0  0  0
   11.0052   -8.4097    0.0000 O   0  0  0  0  0  0  0  0  0  0  0  0
   11.0052   -6.7597    0.0000 O   0  0  0  0  0  0  0  0  0  0  0  0
  1  2  1  0  0  0  0
  2  3  1  0  0  0  0
  1  4  2  0  0  0  0
  2  5  1  0  0  0  0
  6  7  1  0  0  0  0
  7  8  2  0  0  0  0
  8  9  1  0  0  0  0
  9 10  2  0  0  0  0
 10 11  1  0  0  0  0
  6 11  2  0  0  0  0
 10 12  1  0  0  0  0
 13 14  1  0  0  0  0
 11 13  1  0  0  0  0
  9 15  1  0  0  0  0
  7 16  1  0  0  0  0
 18 19  1  0  0  0  0
 19 20  1  0  0  0  0
 20 21  1  0  0  0  0
 21 22  1  0  0  0  0
 22 23  2  0  0  0  0
 23 24  1  0  0  0  0
 24 25  2  0  0  0  0
 25 26  1  0  0  0  0
 21 26  2  0  0  0  0
 26 27  1  0  0  0  0
 18 27  1  0  0  0  0
 24 28  1  0  0  0  0
 22 29  1  0  0  0  0
 19 30  1  6  0  0  0
 31 32  1  0  0  0  0
 32 33  1  0  0  0  0
 33 34  1  0  0  0  0
 34 35  1  0  0  0  0
 35 36  2  0  0  0  0
 36 37  1  0  0  0  0
 37 38  2  0  0  0  0
 38 39  1  0  0  0  0
 34 39  2  0  0  0  0
 39 40  1  0  0  0  0
 31 40  1  0  0  0  0
 37 41  1  0  0  0  0
 35 42  1  0  0  0  0
 32 43  1  1  0  0  0
 44 45  1  0  0  0  0
 45 46  2  0  0  0  0
 46 47  1  0  0  0  0
 47 48  2  0  0  0  0
 48 49  1  0  0  0  0
 44 49  2  0  0  0  0
 47 50  1  0  0  0  0
 46 51  1  0  0  0  0
 31 44  1  1  0  0  0
 20 38  1  1  0  0  0
 52 53  1  0  0  0  0
 53 54  2  0  0  0  0
 54 55  1  0  0  0  0
 55 56  2  0  0  0  0
 56 57  1  0  0  0  0
 52 57  2  0  0  0  0
 55 58  1  0  0  0  0
 54 59  1  0  0  0  0
 18 52  1  1  0  0  0
 17 25  1  0  0  0  0
  8 17  1  0  0  0  0
  1  6  1  0  0  0  0
M  END
>  <cdx:groupId>
2625

>  <cdx:fragmentId>
2505

$$$$
