30209.cdx
  Mrv1902 05222410212D          

 26 28  0  0  0  0            999 V2000
   10.7758   -6.9369    0.0000 C   0  0  0  0  0  0  0  0  0  0  0  0
   10.7818   -6.1119    0.0000 C   0  0  0  0  0  0  0  0  0  0  0  0
   10.0704   -5.6941    0.0000 C   0  0  0  0  0  0  0  0  0  0  0  0
    9.3529   -6.1014    0.0000 C   0  0  0  0  0  0  0  0  0  0  0  0
    9.3469   -6.9263    0.0000 C   0  0  0  0  0  0  0  0  0  0  0  0
   10.0583   -7.3441    0.0000 C   0  0  0  0  0  0  0  0  0  0  0  0
    7.9179   -6.9158    0.0000 C   0  0  0  0  0  0  0  0  0  0  0  0
    8.6294   -7.3336    0.0000 C   0  0  0  0  0  0  0  0  0  0  0  0
    5.0480   -8.5448    0.0000 C   0  0  0  0  0  0  0  0  0  0  0  0
    7.2005   -7.3231    0.0000 C   0  0  0  0  0  0  0  0  0  0  0  0
    3.5359   -4.8210    0.0000 C   0  0  0  0  0  0  0  0  0  0  0  0
    3.9536   -4.1096    0.0000 C   0  0  0  0  0  0  0  0  0  0  0  0
    7.2126   -5.6731    0.0000 O   0  0  0  0  0  0  0  0  0  0  0  0
    5.7898   -4.8376    0.0000 C   0  0  0  0  0  0  0  0  0  0  0  0
    5.0783   -4.4199    0.0000 C   0  0  0  0  0  0  0  0  0  0  0  0
    4.3609   -4.8271    0.0000 C   0  0  0  0  0  0  0  0  0  0  0  0
    4.3548   -5.6521    0.0000 O   0  0  0  0  0  0  0  0  0  0  0  0
    6.4951   -6.0803    0.0000 C   0  0  0  0  0  0  0  0  0  0  0  0
   11.4993   -5.7046    0.0000 O   0  0  0  0  0  0  0  0  0  0  0  0
    7.1944   -8.1480    0.0000 O   0  0  0  0  0  0  0  0  0  0  0  0
    5.7837   -5.6626    0.0000 C   0  0  0  0  0  0  0  0  0  0  0  0
    5.0662   -6.0698    0.0000 C   0  0  0  0  0  0  0  0  0  0  0  0
    5.0601   -6.8948    0.0000 C   0  0  0  0  0  0  0  0  0  0  0  0
    6.4890   -6.9053    0.0000 C   0  0  0  0  0  0  0  0  0  0  0  0
    5.7716   -7.3126    0.0000 C   0  0  0  0  0  0  0  0  0  0  0  0
    5.7655   -8.1375    0.0000 O   0  0  0  0  0  0  0  0  0  0  0  0
  1  2  2  0  0  0  0
  2  3  1  0  0  0  0
  3  4  2  0  0  0  0
  4  5  1  0  0  0  0
  5  6  2  0  0  0  0
  6  1  1  0  0  0  0
  7  8  2  0  0  0  0
  8  5  1  0  0  0  0
 26  9  1  0  0  0  0
 16 11  1  0  0  0  0
 16 12  1  0  0  0  0
 24 10  1  0  0  0  0
 10  7  1  0  0  0  0
 18 13  1  0  0  0  0
 14 21  1  0  0  0  0
 15 14  1  0  0  0  0
 16 15  1  0  0  0  0
 17 16  1  0  0  0  0
 22 17  1  0  0  0  0
 18 24  1  0  0  0  0
 21 18  2  0  0  0  0
 22 21  1  0  0  0  0
 23 22  2  0  0  0  0
 25 23  1  0  0  0  0
  2 19  1  0  0  0  0
 10 20  2  0  0  0  0
 25 24  2  0  0  0  0
 26 25  1  0  0  0  0
M  END
>  <cdx:fragmentId>
5

$$$$
