302075.cdx
  Mrv1902 05222410212D          

 27 29  0  0  0  0            999 V2000
   11.2936   -7.6869    0.0000 C   0  0  0  0  0  0  0  0  0  0  0  0
   11.8770   -7.1036    0.0000 C   0  0  0  0  0  0  0  0  0  0  0  0
   11.5071   -8.4838    0.0000 O   0  0  0  0  0  0  0  0  0  0  0  0
   10.4967   -7.4734    0.0000 O   0  0  0  0  0  0  0  0  0  0  0  0
    9.9133   -8.0568    0.0000 C   0  0  0  0  0  0  0  0  0  0  0  0
    7.9503   -7.2178    0.0000 O   0  0  0  0  0  0  0  0  0  0  0  0
    8.7708   -7.1316    0.0000 C   0  0  0  0  0  0  0  0  0  0  0  0
    9.1064   -7.8853    0.0000 C   0  0  0  0  0  0  0  0  0  0  0  0
    8.4933   -8.4373    0.0000 C   0  0  0  0  0  0  0  0  0  0  0  0
    8.4933   -9.2623    0.0000 C   0  0  0  0  0  0  0  0  0  0  0  0
    7.7788   -9.6748    0.0000 C   0  0  0  0  0  0  0  0  0  0  0  0
    7.0643   -9.2623    0.0000 C   0  0  2  0  0  0  0  0  0  0  0  0
    7.0643   -8.4373    0.0000 C   0  0  1  0  0  0  0  0  0  0  0  0
    7.7788   -8.0248    0.0000 C   0  0  1  0  0  0  0  0  0  0  0  0
    6.3499   -8.0248    0.0000 C   0  0  0  0  0  0  0  0  0  0  0  0
    5.6354   -8.4373    0.0000 C   0  0  2  0  0  0  0  0  0  0  0  0
    5.6354   -9.2623    0.0000 C   0  0  0  0  0  0  0  0  0  0  0  0
    6.3499   -9.6748    0.0000 C   0  0  1  0  0  0  0  0  0  0  0  0
    9.1833   -6.4171    0.0000 O   0  0  0  0  0  0  0  0  0  0  0  0
    6.3499   -7.1998    0.0000 C   0  0  0  0  0  0  0  0  0  0  0  0
    7.0643  -10.0873    0.0000 C   0  0  0  0  0  0  0  0  0  0  0  0
    6.3499  -10.4998    0.0000 O   0  0  0  0  0  0  0  0  0  0  0  0
    4.9209   -8.0248    0.0000 O   0  0  0  0  0  0  0  0  0  0  0  0
    4.2065   -8.4373    0.0000 C   0  0  0  0  0  0  0  0  0  0  0  0
    4.2065   -9.2623    0.0000 O   0  0  0  0  0  0  0  0  0  0  0  0
    3.4920   -8.0248    0.0000 C   0  0  0  0  0  0  0  0  0  0  0  0
    7.0643   -7.6123    0.0000 H   0  0  0  0  0  0  0  0  0  0  0  0
  1  2  1  0  0  0  0
  1  3  2  0  0  0  0
  1  4  1  0  0  0  0
  6  7  1  0  0  0  0
  7  8  1  0  0  0  0
  8  9  2  0  0  0  0
  9 10  1  0  0  0  0
 10 11  1  0  0  0  0
 11 12  1  0  0  0  0
 12 13  1  0  0  0  0
 13 14  1  0  0  0  0
  9 14  1  0  0  0  0
 14  6  1  1  0  0  0
 15 16  1  0  0  0  0
 16 17  1  0  0  0  0
 17 18  1  0  0  0  0
 18 12  1  0  0  0  0
 15 13  1  0  0  0  0
  7 19  2  0  0  0  0
 15 20  2  0  0  0  0
 12 21  1  6  0  0  0
 18 22  1  6  0  0  0
 24 25  2  0  0  0  0
 24 26  1  0  0  0  0
 23 24  1  0  0  0  0
 16 23  1  6  0  0  0
  5  8  1  0  0  0  0
  4  5  1  0  0  0  0
 13 27  1  1  0  0  0
M  END
>  <cdx:fragmentId>
5200

$$$$
