302027.cdx
  Mrv1902 05222410272D          

 22 21  0  0  0  0            999 V2000
   11.7118   -6.0791    0.0000 C   0  0  1  0  0  0  0  0  0  0  0  0
   10.9974   -6.4916    0.0000 C   0  0  1  0  0  0  0  0  0  0  0  0
   10.2829   -6.0791    0.0000 C   0  0  0  0  0  0  0  0  0  0  0  0
    9.5684   -6.4916    0.0000 C   0  0  0  0  0  0  0  0  0  0  0  0
    8.8539   -6.0791    0.0000 C   0  0  0  0  0  0  0  0  0  0  0  0
    8.1395   -6.4916    0.0000 C   0  0  2  0  0  0  0  0  0  0  0  0
    7.4250   -6.0791    0.0000 C   0  0  0  0  0  0  0  0  0  0  0  0
    6.7105   -6.4916    0.0000 C   0  0  0  0  0  0  0  0  0  0  0  0
    5.9961   -6.0791    0.0000 C   0  0  0  0  0  0  0  0  0  0  0  0
    5.2816   -6.4916    0.0000 C   0  0  1  0  0  0  0  0  0  0  0  0
    4.5671   -6.0791    0.0000 C   0  0  0  0  0  0  0  0  0  0  0  0
    3.8526   -6.4916    0.0000 C   0  0  0  0  0  0  0  0  0  0  0  0
    3.1382   -6.0791    0.0000 C   0  0  0  0  0  0  0  0  0  0  0  0
    2.4237   -6.4916    0.0000 C   0  0  0  0  0  0  0  0  0  0  0  0
    2.4237   -7.3166    0.0000 C   0  0  0  0  0  0  0  0  0  0  0  0
   11.7118   -5.2541    0.0000 O   0  0  0  0  0  0  0  0  0  0  0  0
    1.7092   -6.0791    0.0000 C   0  0  0  0  0  0  0  0  0  0  0  0
    5.2816   -7.3166    0.0000 C   0  0  0  0  0  0  0  0  0  0  0  0
    8.1395   -7.3166    0.0000 C   0  0  0  0  0  0  0  0  0  0  0  0
   10.9974   -7.3166    0.0000 C   0  0  0  0  0  0  0  0  0  0  0  0
   12.4263   -6.4916    0.0000 O   0  0  0  0  0  0  0  0  0  0  0  0
   13.1408   -6.0791    0.0000 C   0  0  0  0  0  0  0  0  0  0  0  0
  1  2  1  0  0  0  0
  2  3  1  0  0  0  0
  3  4  1  0  0  0  0
  4  5  1  0  0  0  0
  5  6  1  0  0  0  0
  6  7  1  0  0  0  0
  7  8  1  0  0  0  0
  8  9  1  0  0  0  0
  9 10  1  0  0  0  0
 10 11  1  0  0  0  0
 11 12  1  0  0  0  0
 12 13  1  0  0  0  0
 13 14  1  0  0  0  0
 14 15  1  0  0  0  0
  1 16  1  1  0  0  0
 14 17  1  0  0  0  0
 10 18  1  6  0  0  0
  6 19  1  1  0  0  0
  2 20  1  6  0  0  0
 21 22  1  0  0  0  0
  1 21  1  0  0  0  0
M  END
>  <cdx:groupId>
690

>  <cdx:fragmentId>
628

$$$$
