302082.cdx
  Mrv1902 05222410242D          

 27 28  0  0  0  0            999 V2000
   13.9585  -14.8375    0.0000 C   0  0  0  0  0  0  0  0  0  0  0  0
   13.9585  -15.6625    0.0000 C   0  0  0  0  0  0  0  0  0  0  0  0
   14.6730  -16.0750    0.0000 C   0  0  0  0  0  0  0  0  0  0  0  0
   15.3875  -15.6625    0.0000 C   0  0  0  0  0  0  0  0  0  0  0  0
   15.3875  -14.8375    0.0000 C   0  0  0  0  0  0  0  0  0  0  0  0
   14.6730  -14.4250    0.0000 C   0  0  0  0  0  0  0  0  0  0  0  0
   13.2441  -14.4250    0.0000 C   0  0  0  0  0  0  0  0  0  0  0  0
   12.5296  -14.8375    0.0000 O   0  0  0  0  0  0  0  0  0  0  0  0
   11.8151  -14.4250    0.0000 C   0  0  0  0  0  0  0  0  0  0  0  0
   11.1007  -14.8375    0.0000 C   0  0  0  0  0  0  0  0  0  0  0  0
   10.3862  -14.4250    0.0000 C   0  0  0  0  0  0  0  0  0  0  0  0
    9.6717  -14.8375    0.0000 C   0  0  0  0  0  0  0  0  0  0  0  0
   14.6730  -13.6000    0.0000 C   0  0  0  0  0  0  0  0  0  0  0  0
   15.3875  -13.1875    0.0000 O   0  0  0  0  0  0  0  0  0  0  0  0
   13.2441  -13.6000    0.0000 O   0  0  0  0  0  0  0  0  0  0  0  0
   13.9585  -13.1875    0.0000 O   0  0  0  0  0  0  0  0  0  0  0  0
   15.3875  -12.3625    0.0000 C   0  0  0  0  0  0  0  0  0  0  0  0
   16.1020  -11.9500    0.0000 C   0  0  0  0  0  0  0  0  0  0  0  0
   16.1020  -11.1250    0.0000 C   0  0  0  0  0  0  0  0  0  0  0  0
   15.3875  -10.7125    0.0000 C   0  0  0  0  0  0  0  0  0  0  0  0
   14.6730  -11.1250    0.0000 C   0  0  0  0  0  0  0  0  0  0  0  0
   14.6730  -11.9500    0.0000 C   0  0  0  0  0  0  0  0  0  0  0  0
   15.3875   -9.8875    0.0000 Br  0  0  0  0  0  0  0  0  0  0  0  0
    8.9572  -14.4250    0.0000 C   0  0  0  0  0  0  0  0  0  0  0  0
    8.2428  -14.8375    0.0000 C   0  0  0  0  0  0  0  0  0  0  0  0
    7.5283  -14.4250    0.0000 C   0  0  0  0  0  0  0  0  0  0  0  0
    6.8138  -14.8375    0.0000 C   0  0  0  0  0  0  0  0  0  0  0  0
  1  2  2  0  0  0  0
  2  3  1  0  0  0  0
  3  4  2  0  0  0  0
  4  5  1  0  0  0  0
  5  6  2  0  0  0  0
  6  1  1  0  0  0  0
  1  7  1  0  0  0  0
  7  8  1  0  0  0  0
  8  9  1  0  0  0  0
  9 10  1  0  0  0  0
 10 11  1  0  0  0  0
 11 12  1  0  0  0  0
  6 13  1  0  0  0  0
 13 14  1  0  0  0  0
  7 15  2  0  0  0  0
 13 16  2  0  0  0  0
 14 17  1  0  0  0  0
 17 18  2  0  0  0  0
 18 19  1  0  0  0  0
 19 20  2  0  0  0  0
 20 21  1  0  0  0  0
 21 22  2  0  0  0  0
 22 17  1  0  0  0  0
 20 23  1  0  0  0  0
 12 24  1  0  0  0  0
 24 25  1  0  0  0  0
 25 26  1  0  0  0  0
 26 27  1  0  0  0  0
M  END
>  <cdx:fragmentId>
489

$$$$
