302007.cdx
  Mrv1902 05222410192D          

 31 34  0  0  0  0            999 V2000
    5.6444   -7.7687    0.0000 C   0  0  0  0  0  0  0  0  0  0  0  0
    6.3588   -8.1813    0.0000 C   0  0  0  0  0  0  0  0  0  0  0  0
    7.0733   -7.7687    0.0000 C   0  0  0  0  0  0  0  0  0  0  0  0
    7.0733   -6.9438    0.0000 C   0  0  0  0  0  0  0  0  0  0  0  0
    6.3588   -6.5313    0.0000 C   0  0  0  0  0  0  0  0  0  0  0  0
    5.6444   -6.9438    0.0000 C   0  0  0  0  0  0  0  0  0  0  0  0
    7.7183   -8.2831    0.0000 O   0  0  0  0  0  0  0  0  0  0  0  0
    8.5226   -8.0995    0.0000 C   0  0  0  0  0  0  0  0  0  0  0  0
    8.8806   -7.3562    0.0000 C   0  0  0  0  0  0  0  0  0  0  0  0
    8.5226   -6.6130    0.0000 C   0  0  0  0  0  0  0  0  0  0  0  0
    7.7183   -6.4294    0.0000 C   0  0  0  0  0  0  0  0  0  0  0  0
    9.7033   -7.4179    0.0000 C   0  0  0  0  0  0  0  0  0  0  0  0
   10.1680   -6.7363    0.0000 C   0  0  0  0  0  0  0  0  0  0  0  0
    9.8101   -5.9930    0.0000 C   0  0  0  0  0  0  0  0  0  0  0  0
    8.9874   -5.9313    0.0000 C   0  0  0  0  0  0  0  0  0  0  0  0
    4.9299   -6.5313    0.0000 C   0  0  0  0  0  0  0  0  0  0  0  0
    6.3588   -9.0062    0.0000 O   0  0  0  0  0  0  0  0  0  0  0  0
   10.1158   -8.1324    0.0000 O   0  0  0  0  0  0  0  0  0  0  0  0
   10.2226   -5.2785    0.0000 O   0  0  0  0  0  0  0  0  0  0  0  0
    9.1060   -8.6829    0.0000 O   0  0  0  0  0  0  0  0  0  0  0  0
    4.2124   -9.4325    0.0000 C   0  0  2  0  0  0  0  0  0  0  0  0
    4.2124  -10.2575    0.0000 C   0  0  2  0  0  0  0  0  0  0  0  0
    4.9269  -10.6700    0.0000 C   0  0  1  0  0  0  0  0  0  0  0  0
    5.6414  -10.2575    0.0000 C   0  0  2  0  0  0  0  0  0  0  0  0
    5.6414   -9.4325    0.0000 C   0  0  1  0  0  0  0  0  0  0  0  0
    4.9269   -9.0200    0.0000 O   0  0  0  0  0  0  0  0  0  0  0  0
    3.4980   -9.0200    0.0000 C   0  0  0  0  0  0  0  0  0  0  0  0
    4.9269  -11.4950    0.0000 O   0  0  0  0  0  0  0  0  0  0  0  0
    3.4980  -10.6700    0.0000 O   0  0  0  0  0  0  0  0  0  0  0  0
    6.3558  -10.6700    0.0000 O   0  0  0  0  0  0  0  0  0  0  0  0
    2.7835   -9.4325    0.0000 O   0  0  0  0  0  0  0  0  0  0  0  0
  1  2  2  0  0  0  0
  2  3  1  0  0  0  0
  3  4  2  0  0  0  0
  4  5  1  0  0  0  0
  5  6  2  0  0  0  0
  6  1  1  0  0  0  0
  3  7  1  0  0  0  0
  7  8  1  0  0  0  0
  8  9  1  0  0  0  0
  9 10  2  0  0  0  0
 10 11  1  0  0  0  0
 11  4  1  0  0  0  0
  9 12  1  0  0  0  0
 12 13  2  0  0  0  0
 13 14  1  0  0  0  0
 14 15  2  0  0  0  0
 15 10  1  0  0  0  0
  6 16  1  0  0  0  0
  2 17  1  0  0  0  0
 12 18  1  0  0  0  0
 14 19  1  0  0  0  0
  8 20  2  0  0  0  0
 21 22  1  0  0  0  0
 22 23  1  0  0  0  0
 23 24  1  0  0  0  0
 24 25  1  0  0  0  0
 25 26  1  0  0  0  0
 26 21  1  0  0  0  0
 21 27  1  1  0  0  0
 23 28  1  1  0  0  0
 22 29  1  6  0  0  0
 24 30  1  6  0  0  0
 27 31  1  0  0  0  0
 25 17  1  1  0  0  0
M  END
>  <cdx:fragmentId>
3837

$$$$
