302048.cdx
  Mrv1902 05222410212D          

 25 27  0  0  0  0            999 V2000
    5.9926   -7.1622    0.0000 C   0  0  0  0  0  0  0  0  0  0  0  0
    5.2781   -6.7497    0.0000 C   0  0  0  0  0  0  0  0  0  0  0  0
    4.5637   -7.1622    0.0000 C   0  0  0  0  0  0  0  0  0  0  0  0
    4.5637   -7.9872    0.0000 C   0  0  0  0  0  0  0  0  0  0  0  0
    5.9926   -7.9872    0.0000 O   0  0  0  0  0  0  0  0  0  0  0  0
    6.7071   -6.7497    0.0000 O   0  0  0  0  0  0  0  0  0  0  0  0
    3.8492   -6.7497    0.0000 C   0  0  0  0  0  0  0  0  0  0  0  0
   10.2794   -5.5122    0.0000 C   0  0  0  0  0  0  0  0  0  0  0  0
   10.9939   -5.9247    0.0000 C   0  0  0  0  0  0  0  0  0  0  0  0
   10.9939   -6.7497    0.0000 C   0  0  0  0  0  0  0  0  0  0  0  0
   10.2794   -7.1622    0.0000 C   0  0  0  0  0  0  0  0  0  0  0  0
   10.2794   -7.9872    0.0000 C   0  0  0  0  0  0  0  0  0  0  0  0
    9.5650   -8.3997    0.0000 C   0  0  0  0  0  0  0  0  0  0  0  0
    8.8505   -7.9872    0.0000 C   0  0  0  0  0  0  0  0  0  0  0  0
    8.8505   -7.1622    0.0000 C   0  0  0  0  0  0  0  0  0  0  0  0
    9.5650   -6.7497    0.0000 C   0  0  0  0  0  0  0  0  0  0  0  0
    9.5650   -5.9247    0.0000 O   0  0  0  0  0  0  0  0  0  0  0  0
    8.1360   -6.7497    0.0000 C   0  0  1  0  0  0  0  0  0  0  0  0
    7.4216   -7.1622    0.0000 C   0  0  1  0  0  0  0  0  0  0  0  0
    7.4216   -7.9872    0.0000 C   0  0  0  0  0  0  0  0  0  0  0  0
    8.1360   -8.3997    0.0000 O   0  0  0  0  0  0  0  0  0  0  0  0
   10.2794   -4.6872    0.0000 O   0  0  0  0  0  0  0  0  0  0  0  0
    7.0091   -8.7017    0.0000 C   0  0  0  0  0  0  0  0  0  0  0  0
    6.5966   -7.9872    0.0000 C   0  0  0  0  0  0  0  0  0  0  0  0
    8.1360   -5.9247    0.0000 O   0  0  0  0  0  0  0  0  0  0  0  0
  1  2  1  0  0  0  0
  2  3  2  0  0  0  0
  3  4  1  0  0  0  0
  1  5  2  0  0  0  0
  1  6  1  0  0  0  0
  3  7  1  0  0  0  0
  8  9  1  0  0  0  0
  9 10  2  0  0  0  0
 10 11  1  0  0  0  0
 11 12  1  0  0  0  0
 12 13  2  0  0  0  0
 13 14  1  0  0  0  0
 14 15  2  0  0  0  0
 15 16  1  0  0  0  0
 11 16  2  0  0  0  0
 16 17  1  0  0  0  0
  8 17  1  0  0  0  0
 18 19  1  0  0  0  0
 19 20  1  0  0  0  0
 20 21  1  0  0  0  0
 21 14  1  0  0  0  0
 18 15  1  0  0  0  0
  8 22  2  0  0  0  0
 20 23  1  0  0  0  0
 20 24  1  0  0  0  0
 19  6  1  1  0  0  0
 18 25  1  1  0  0  0
M  END
>  <cdx:fragmentId>
1846

$$$$
