302062.cdx
  Mrv1902 05222410202D          

 18 18  0  0  0  0            999 V2000
    7.7788   -6.5873    0.0000 C   0  0  0  0  0  0  0  0  0  0  0  0
    7.0643   -6.9998    0.0000 C   0  0  0  0  0  0  0  0  0  0  0  0
    6.3499   -6.5873    0.0000 C   0  0  0  0  0  0  0  0  0  0  0  0
    5.6354   -6.9998    0.0000 C   0  0  0  0  0  0  0  0  0  0  0  0
    4.9209   -6.5873    0.0000 C   0  0  0  0  0  0  0  0  0  0  0  0
    4.2064   -6.9998    0.0000 C   0  0  0  0  0  0  0  0  0  0  0  0
    3.4920   -6.5873    0.0000 C   0  0  0  0  0  0  0  0  0  0  0  0
    2.7775   -6.9998    0.0000 C   0  0  0  0  0  0  0  0  0  0  0  0
    7.7788   -5.7623    0.0000 O   0  0  0  0  0  0  0  0  0  0  0  0
    8.4933   -6.9998    0.0000 O   0  0  0  0  0  0  0  0  0  0  0  0
    9.2077   -6.5873    0.0000 C   0  0  0  0  0  0  0  0  0  0  0  0
    9.9222   -6.9998    0.0000 C   0  0  0  0  0  0  0  0  0  0  0  0
   10.6367   -6.5873    0.0000 C   0  0  0  0  0  0  0  0  0  0  0  0
   10.6367   -5.7623    0.0000 C   0  0  0  0  0  0  0  0  0  0  0  0
   11.3512   -5.3498    0.0000 C   0  0  0  0  0  0  0  0  0  0  0  0
   12.0656   -5.7623    0.0000 C   0  0  0  0  0  0  0  0  0  0  0  0
   12.0656   -6.5873    0.0000 C   0  0  0  0  0  0  0  0  0  0  0  0
   11.3512   -6.9998    0.0000 C   0  0  0  0  0  0  0  0  0  0  0  0
  1  2  1  0  0  0  0
  2  3  1  0  0  0  0
  3  4  1  0  0  0  0
  4  5  1  0  0  0  0
  5  6  1  0  0  0  0
  6  7  1  0  0  0  0
  7  8  1  0  0  0  0
  1  9  2  0  0  0  0
  1 10  1  0  0  0  0
 11 12  1  0  0  0  0
 13 14  1  0  0  0  0
 14 15  2  0  0  0  0
 15 16  1  0  0  0  0
 16 17  2  0  0  0  0
 17 18  1  0  0  0  0
 13 18  2  0  0  0  0
 12 13  1  0  0  0  0
 10 11  1  0  0  0  0
M  END
>  <cdx:groupId>
747

>  <cdx:fragmentId>
696

$$$$
