302038.cdx
  Mrv1902 05222410202D          

 44 49  0  0  0  0            999 V2000
    4.7644   -4.0012    0.0000 C   0  0  0  0  0  0  0  0  0  0  0  0
    4.7644   -4.8263    0.0000 C   0  0  0  0  0  0  0  0  0  0  0  0
    5.4788   -5.2387    0.0000 C   0  0  0  0  0  0  0  0  0  0  0  0
    6.1933   -4.8263    0.0000 C   0  0  0  0  0  0  0  0  0  0  0  0
    6.1933   -4.0012    0.0000 C   0  0  0  0  0  0  0  0  0  0  0  0
    5.4788   -3.5887    0.0000 C   0  0  0  0  0  0  0  0  0  0  0  0
    6.9078   -5.2387    0.0000 C   0  0  1  0  0  0  0  0  0  0  0  0
    7.6223   -4.8263    0.0000 C   0  0  2  0  0  0  0  0  0  0  0  0
    7.6223   -4.0012    0.0000 C   0  0  2  0  0  0  0  0  0  0  0  0
    6.9078   -3.5887    0.0000 O   0  0  0  0  0  0  0  0  0  0  0  0
    4.0499   -3.5887    0.0000 O   0  0  0  0  0  0  0  0  0  0  0  0
    5.4788   -6.0638    0.0000 O   0  0  0  0  0  0  0  0  0  0  0  0
    8.3367   -5.2387    0.0000 O   0  0  0  0  0  0  0  0  0  0  0  0
    8.3367   -3.5887    0.0000 C   0  0  0  0  0  0  0  0  0  0  0  0
    9.0512   -4.0012    0.0000 C   0  0  0  0  0  0  0  0  0  0  0  0
    9.7657   -3.5887    0.0000 C   0  0  0  0  0  0  0  0  0  0  0  0
    9.7657   -2.7637    0.0000 C   0  0  0  0  0  0  0  0  0  0  0  0
    9.0512   -2.3512    0.0000 C   0  0  0  0  0  0  0  0  0  0  0  0
    8.3367   -2.7637    0.0000 C   0  0  0  0  0  0  0  0  0  0  0  0
    9.0512   -1.5263    0.0000 O   0  0  0  0  0  0  0  0  0  0  0  0
   10.4801   -2.3512    0.0000 O   0  0  0  0  0  0  0  0  0  0  0  0
    6.2219   -6.8200    0.0000 C   0  0  0  0  0  0  0  0  0  0  0  0
    6.2219   -7.6450    0.0000 C   0  0  0  0  0  0  0  0  0  0  0  0
    6.9363   -8.0575    0.0000 C   0  0  0  0  0  0  0  0  0  0  0  0
    7.6508   -7.6450    0.0000 C   0  0  0  0  0  0  0  0  0  0  0  0
    7.6508   -6.8200    0.0000 C   0  0  0  0  0  0  0  0  0  0  0  0
    6.9363   -6.4075    0.0000 C   0  0  0  0  0  0  0  0  0  0  0  0
    8.3653   -8.0575    0.0000 C   0  0  0  0  0  0  0  0  0  0  0  0
    9.0798   -7.6450    0.0000 C   0  0  2  0  0  0  0  0  0  0  0  0
    9.0798   -6.8200    0.0000 C   0  0  2  0  0  0  0  0  0  0  0  0
    8.3653   -6.4075    0.0000 O   0  0  0  0  0  0  0  0  0  0  0  0
    5.5074   -6.4075    0.0000 O   0  0  0  0  0  0  0  0  0  0  0  0
    6.9363   -8.8825    0.0000 O   0  0  0  0  0  0  0  0  0  0  0  0
    9.7942   -8.0575    0.0000 O   0  0  0  0  0  0  0  0  0  0  0  0
    9.7942   -6.4075    0.0000 C   0  0  0  0  0  0  0  0  0  0  0  0
   10.5087   -6.8200    0.0000 C   0  0  0  0  0  0  0  0  0  0  0  0
   11.2232   -6.4075    0.0000 C   0  0  0  0  0  0  0  0  0  0  0  0
   11.2232   -5.5825    0.0000 C   0  0  0  0  0  0  0  0  0  0  0  0
   10.5087   -5.1700    0.0000 C   0  0  0  0  0  0  0  0  0  0  0  0
    9.7942   -5.5825    0.0000 C   0  0  0  0  0  0  0  0  0  0  0  0
   10.5087   -4.3450    0.0000 O   0  0  0  0  0  0  0  0  0  0  0  0
   11.9376   -5.1700    0.0000 O   0  0  0  0  0  0  0  0  0  0  0  0
   11.9376   -6.8200    0.0000 O   0  0  0  0  0  0  0  0  0  0  0  0
   10.4801   -4.0012    0.0000 O   0  0  0  0  0  0  0  0  0  0  0  0
  1  2  2  0  0  0  0
  2  3  1  0  0  0  0
  3  4  2  0  0  0  0
  4  5  1  0  0  0  0
  5  6  2  0  0  0  0
  6  1  1  0  0  0  0
  4  7  1  0  0  0  0
  7  8  1  0  0  0  0
  8  9  1  0  0  0  0
  9 10  1  0  0  0  0
 10  5  1  0  0  0  0
  1 11  1  0  0  0  0
  3 12  1  0  0  0  0
  8 13  1  6  0  0  0
  9 14  1  6  0  0  0
 14 15  2  0  0  0  0
 15 16  1  0  0  0  0
 16 17  2  0  0  0  0
 17 18  1  0  0  0  0
 18 19  2  0  0  0  0
 19 14  1  0  0  0  0
 18 20  1  0  0  0  0
 17 21  1  0  0  0  0
 22 23  2  0  0  0  0
 23 24  1  0  0  0  0
 24 25  2  0  0  0  0
 25 26  1  0  0  0  0
 26 27  2  0  0  0  0
 27 22  1  0  0  0  0
 25 28  1  0  0  0  0
 28 29  1  0  0  0  0
 29 30  1  0  0  0  0
 30 31  1  0  0  0  0
 31 26  1  0  0  0  0
 22 32  1  0  0  0  0
 24 33  1  0  0  0  0
 29 34  1  6  0  0  0
 30 35  1  6  0  0  0
 35 36  2  0  0  0  0
 36 37  1  0  0  0  0
 37 38  2  0  0  0  0
 38 39  1  0  0  0  0
 39 40  2  0  0  0  0
 40 35  1  0  0  0  0
 39 41  1  0  0  0  0
 38 42  1  0  0  0  0
 37 43  1  0  0  0  0
  7 27  1  1  0  0  0
 16 44  1  0  0  0  0
M  END
>  <cdx:fragmentId>
4503

$$$$
