302054.cdx
  Mrv1902 05222410242D          

 37 40  0  0  0  0            999 V2000
   10.2597   -7.8815    0.0000 O   0  0  0  0  0  0  0  0  0  0  0  0
    7.3904   -8.6659    0.0000 O   0  0  0  0  0  0  0  0  0  0  0  0
   12.4438   -5.0246    0.0000 O   0  0  0  0  0  0  0  0  0  0  0  0
   10.2948   -5.4067    0.0000 C   0  0  0  0  0  0  0  0  0  0  0  0
   11.0150   -5.0044    0.0000 C   0  0  0  0  0  0  0  0  0  0  0  0
   11.7236   -5.4270    0.0000 C   0  0  0  0  0  0  0  0  0  0  0  0
   11.7119   -6.2519    0.0000 C   0  0  0  0  0  0  0  0  0  0  0  0
   10.9917   -6.6542    0.0000 C   0  0  0  0  0  0  0  0  0  0  0  0
   10.2831   -6.2316    0.0000 C   0  0  0  0  0  0  0  0  0  0  0  0
    6.0318   -3.6961    0.0000 C   0  0  0  0  0  0  0  0  0  0  0  0
    7.4606   -3.7164    0.0000 C   0  0  0  0  0  0  0  0  0  0  0  0
    6.7403   -4.1187    0.0000 C   0  0  0  0  0  0  0  0  0  0  0  0
    6.7287   -4.9436    0.0000 C   0  0  0  0  0  0  0  0  0  0  0  0
    7.4372   -5.3662    0.0000 C   0  0  0  0  0  0  0  0  0  0  0  0
    5.9733   -7.8207    0.0000 O   0  0  0  0  0  0  0  0  0  0  0  0
    4.5328   -8.6254    0.0000 O   0  0  0  0  0  0  0  0  0  0  0  0
    3.1157   -7.7802    0.0000 O   0  0  0  0  0  0  0  0  0  0  0  0
    2.4189   -6.5327    0.0000 O   0  0  0  0  0  0  0  0  0  0  0  0
    3.1391   -6.1303    0.0000 C   0  0  0  0  0  0  0  0  0  0  0  0
    3.8477   -6.5529    0.0000 C   0  0  2  0  0  0  0  0  0  0  0  0
    3.8360   -7.3779    0.0000 C   0  0  2  0  0  0  0  0  0  0  0  0
    4.5445   -7.8004    0.0000 C   0  0  1  0  0  0  0  0  0  0  0  0
    5.2648   -7.3981    0.0000 C   0  0  2  0  0  0  0  0  0  0  0  0
    5.2765   -6.5732    0.0000 C   0  0  1  0  0  0  0  0  0  0  0  0
    4.5679   -6.1506    0.0000 O   0  0  0  0  0  0  0  0  0  0  0  0
    5.9967   -6.1709    0.0000 O   0  0  0  0  0  0  0  0  0  0  0  0
    8.8192   -8.6861    0.0000 O   0  0  0  0  0  0  0  0  0  0  0  0
    8.8543   -6.2114    0.0000 O   0  0  0  0  0  0  0  0  0  0  0  0
    8.1341   -6.6137    0.0000 C   0  0  0  0  0  0  0  0  0  0  0  0
    7.4255   -6.1911    0.0000 C   0  0  0  0  0  0  0  0  0  0  0  0
    6.7053   -6.5934    0.0000 C   0  0  0  0  0  0  0  0  0  0  0  0
    6.6936   -7.4184    0.0000 C   0  0  0  0  0  0  0  0  0  0  0  0
    7.4021   -7.8410    0.0000 C   0  0  0  0  0  0  0  0  0  0  0  0
    8.1224   -7.4386    0.0000 C   0  0  0  0  0  0  0  0  0  0  0  0
    8.8309   -7.8612    0.0000 C   0  0  0  0  0  0  0  0  0  0  0  0
    9.5512   -7.4589    0.0000 C   0  0  1  0  0  0  0  0  0  0  0  0
    9.5629   -6.6340    0.0000 C   0  0  1  0  0  0  0  0  0  0  0  0
 36  1  1  1  0  0  0
 33  2  1  0  0  0  0
 37  9  1  6  0  0  0
  6  3  1  0  0  0  0
  9  4  2  0  0  0  0
  5  4  1  0  0  0  0
  6  5  2  0  0  0  0
  7  6  1  0  0  0  0
  8  7  2  0  0  0  0
  9  8  1  0  0  0  0
 30 14  1  0  0  0  0
 12 10  1  0  0  0  0
 12 11  1  0  0  0  0
 13 12  2  0  0  0  0
 14 13  1  0  0  0  0
 31 26  1  0  0  0  0
 24 26  1  1  0  0  0
 23 15  1  6  0  0  0
 22 16  1  1  0  0  0
 21 17  1  6  0  0  0
 20 19  1  1  0  0  0
 19 18  1  0  0  0  0
 25 20  1  0  0  0  0
 21 20  1  0  0  0  0
 22 21  1  0  0  0  0
 23 22  1  0  0  0  0
 24 23  1  0  0  0  0
 25 24  1  0  0  0  0
 35 27  2  0  0  0  0
 37 28  1  0  0  0  0
 29 28  1  0  0  0  0
 34 29  2  0  0  0  0
 30 29  1  0  0  0  0
 31 30  2  0  0  0  0
 32 31  1  0  0  0  0
 33 32  2  0  0  0  0
 34 33  1  0  0  0  0
 35 34  1  0  0  0  0
 36 35  1  0  0  0  0
 37 36  1  0  0  0  0
M  END
>  <cdx:fragmentId>
234

$$$$
