302017.cdx
  Mrv1902 05222410192D          

 36 39  0  0  0  0            999 V2000
    5.8624   -8.7862    0.0000 C   0  0  2  0  0  0  0  0  0  0  0  0
    5.8624   -9.6112    0.0000 C   0  0  2  0  0  0  0  0  0  0  0  0
    6.5769  -10.0238    0.0000 C   0  0  1  0  0  0  0  0  0  0  0  0
    7.2914   -9.6112    0.0000 C   0  0  2  0  0  0  0  0  0  0  0  0
    7.2914   -8.7862    0.0000 C   0  0  1  0  0  0  0  0  0  0  0  0
    6.5769   -8.3737    0.0000 O   0  0  0  0  0  0  0  0  0  0  0  0
    5.1480   -8.3737    0.0000 C   0  0  0  0  0  0  0  0  0  0  0  0
    4.4335   -8.7862    0.0000 O   0  0  0  0  0  0  0  0  0  0  0  0
    5.1480  -10.0237    0.0000 O   0  0  0  0  0  0  0  0  0  0  0  0
    3.7190   -7.5488    0.0000 O   0  0  0  0  0  0  0  0  0  0  0  0
    3.7190   -8.3737    0.0000 C   0  0  0  0  0  0  0  0  0  0  0  0
    8.0058   -8.3737    0.0000 O   0  0  0  0  0  0  0  0  0  0  0  0
    8.0058   -7.5488    0.0000 C   0  0  1  0  0  0  0  0  0  0  0  0
    7.2914   -7.1362    0.0000 C   0  0  0  0  0  0  0  0  0  0  0  0
    8.6189   -6.9967    0.0000 C   0  0  2  0  0  0  0  0  0  0  0  0
    8.2834   -6.2430    0.0000 C   0  0  1  0  0  0  0  0  0  0  0  0
    7.4629   -6.3293    0.0000 C   0  0  0  0  0  0  0  0  0  0  0  0
    9.4174   -7.2043    0.0000 C   0  0  1  0  0  0  0  0  0  0  0  0
   10.0775   -6.7094    0.0000 C   0  0  0  0  0  0  0  0  0  0  0  0
   10.1022   -5.8848    0.0000 C   0  0  2  0  0  0  0  0  0  0  0  0
    9.4729   -5.3513    0.0000 C   0  0  2  0  0  0  0  0  0  0  0  0
    8.6634   -5.5108    0.0000 C   0  0  0  0  0  0  0  0  0  0  0  0
   10.8040   -5.4511    0.0000 O   0  0  0  0  0  0  0  0  0  0  0  0
   10.6084   -4.6496    0.0000 C   0  0  0  0  0  0  0  0  0  0  0  0
    9.7857   -4.5880    0.0000 C   0  0  0  0  0  0  0  0  0  0  0  0
    3.0045   -8.7862    0.0000 C   0  0  0  0  0  0  0  0  0  0  0  0
    6.9109   -5.7162    0.0000 O   0  0  0  0  0  0  0  0  0  0  0  0
    9.3520   -3.8862    0.0000 C   0  0  0  0  0  0  0  0  0  0  0  0
   11.1419   -4.0203    0.0000 O   0  0  0  0  0  0  0  0  0  0  0  0
    6.5769  -10.8488    0.0000 O   0  0  0  0  0  0  0  0  0  0  0  0
    8.8972   -7.7734    0.0000 H   0  0  0  0  0  0  0  0  0  0  0  0
    9.5768   -8.0137    0.0000 C   0  0  0  0  0  0  0  0  0  0  0  0
    8.8851   -4.7724    0.0000 H   0  0  0  0  0  0  0  0  0  0  0  0
   10.7696   -6.3697    0.0000 H   0  0  0  0  0  0  0  0  0  0  0  0
    7.8924   -5.5166    0.0000 C   0  0  0  0  0  0  0  0  0  0  0  0
    8.0058  -10.0238    0.0000 O   0  0  0  0  0  0  0  0  0  0  0  0
  1  2  1  0  0  0  0
  2  3  1  0  0  0  0
  3  4  1  0  0  0  0
  4  5  1  0  0  0  0
  5  6  1  0  0  0  0
  6  1  1  0  0  0  0
  1  7  1  1  0  0  0
  7  8  1  0  0  0  0
  2  9  1  6  0  0  0
 10 11  2  0  0  0  0
 11  8  1  0  0  0  0
  5 12  1  1  0  0  0
 13 12  1  1  0  0  0
 13 14  1  0  0  0  0
 13 15  1  0  0  0  0
 15 16  1  0  0  0  0
 16 17  1  0  0  0  0
 17 14  1  0  0  0  0
 15 18  1  0  0  0  0
 18 19  1  0  0  0  0
 19 20  1  0  0  0  0
 20 21  1  0  0  0  0
 21 22  1  0  0  0  0
 22 16  1  0  0  0  0
 20 23  1  0  0  0  0
 23 24  1  0  0  0  0
 24 25  1  0  0  0  0
 25 21  1  0  0  0  0
 11 26  1  0  0  0  0
 17 27  2  0  0  0  0
 25 28  2  0  0  0  0
 24 29  2  0  0  0  0
  3 30  1  1  0  0  0
 15 31  1  1  0  0  0
 18 32  1  1  0  0  0
 21 33  1  1  0  0  0
 20 34  1  1  0  0  0
 16 35  1  6  0  0  0
  4 36  1  6  0  0  0
M  END
>  <cdx:fragmentId>
5

$$$$
