302098.cdx
  Mrv1902 05222410222D          

 39 42  0  0  0  0            999 V2000
    4.8108   -4.5551    0.0000 C   0  0  0  0  0  0  0  0  0  0  0  0
    4.0963   -4.1426    0.0000 C   0  0  0  0  0  0  0  0  0  0  0  0
    4.0963   -3.3176    0.0000 C   0  0  0  0  0  0  0  0  0  0  0  0
    3.3819   -2.9051    0.0000 C   0  0  0  0  0  0  0  0  0  0  0  0
    5.5253   -4.1426    0.0000 O   0  0  0  0  0  0  0  0  0  0  0  0
    3.3819   -4.5551    0.0000 C   0  0  0  0  0  0  0  0  0  0  0  0
    4.8108   -5.3801    0.0000 C   0  0  0  0  0  0  0  0  0  0  0  0
    5.5253   -5.7926    0.0000 C   0  0  0  0  0  0  0  0  0  0  0  0
    5.5253   -6.6176    0.0000 C   0  0  0  0  0  0  0  0  0  0  0  0
    4.8108   -7.0301    0.0000 C   0  0  0  0  0  0  0  0  0  0  0  0
    4.0963   -6.6176    0.0000 C   0  0  0  0  0  0  0  0  0  0  0  0
    4.0963   -5.7926    0.0000 C   0  0  0  0  0  0  0  0  0  0  0  0
    3.3819   -7.0301    0.0000 C   0  0  0  0  0  0  0  0  0  0  0  0
    3.3819   -5.3801    0.0000 O   0  0  0  0  0  0  0  0  0  0  0  0
    2.6674   -5.7926    0.0000 C   0  0  0  0  0  0  0  0  0  0  0  0
    4.8108   -7.8551    0.0000 O   0  0  0  0  0  0  0  0  0  0  0  0
    6.2397   -5.3801    0.0000 O   0  0  0  0  0  0  0  0  0  0  0  0
    6.4541   -7.1539    0.0000 C   0  0  0  0  0  0  0  0  0  0  0  0
    8.5975   -8.6389    0.0000 C   0  0  2  0  0  0  0  0  0  0  0  0
    8.5975   -9.4639    0.0000 C   0  0  2  0  0  0  0  0  0  0  0  0
    7.8830   -9.8764    0.0000 C   0  0  0  0  0  0  0  0  0  0  0  0
    7.1685   -9.4639    0.0000 C   0  0  0  0  0  0  0  0  0  0  0  0
    6.4541   -9.8764    0.0000 C   0  0  0  0  0  0  0  0  0  0  0  0
    5.7396   -9.4639    0.0000 C   0  0  0  0  0  0  0  0  0  0  0  0
    5.7396   -8.6389    0.0000 C   0  0  0  0  0  0  0  0  0  0  0  0
    6.4541   -8.2264    0.0000 C   0  0  0  0  0  0  0  0  0  0  0  0
    7.1685   -8.6389    0.0000 C   0  0  0  0  0  0  0  0  0  0  0  0
    7.8830   -8.2264    0.0000 O   0  0  0  0  0  0  0  0  0  0  0  0
    5.0251   -8.2264    0.0000 O   0  0  0  0  0  0  0  0  0  0  0  0
    6.4541  -10.7014    0.0000 O   0  0  0  0  0  0  0  0  0  0  0  0
    9.3120   -9.8764    0.0000 O   0  0  0  0  0  0  0  0  0  0  0  0
    9.3120   -8.2264    0.0000 C   0  0  0  0  0  0  0  0  0  0  0  0
   10.0264   -8.6389    0.0000 C   0  0  0  0  0  0  0  0  0  0  0  0
   10.7409   -8.2264    0.0000 C   0  0  0  0  0  0  0  0  0  0  0  0
   10.7409   -7.4014    0.0000 C   0  0  0  0  0  0  0  0  0  0  0  0
   10.0264   -6.9889    0.0000 C   0  0  0  0  0  0  0  0  0  0  0  0
    9.3120   -7.4014    0.0000 C   0  0  0  0  0  0  0  0  0  0  0  0
   11.4554   -6.9889    0.0000 O   0  0  0  0  0  0  0  0  0  0  0  0
   11.4554   -8.6389    0.0000 O   0  0  0  0  0  0  0  0  0  0  0  0
  1  2  1  0  0  0  0
  2  3  1  0  0  0  0
  3  4  1  0  0  0  0
  1  5  2  0  0  0  0
  2  6  1  0  0  0  0
  7  8  1  0  0  0  0
  8  9  2  0  0  0  0
  9 10  1  0  0  0  0
 10 11  2  0  0  0  0
 11 12  1  0  0  0  0
  7 12  2  0  0  0  0
 11 13  1  0  0  0  0
 14 15  1  0  0  0  0
 12 14  1  0  0  0  0
 10 16  1  0  0  0  0
  8 17  1  0  0  0  0
 19 20  1  0  0  0  0
 20 21  1  0  0  0  0
 21 22  1  0  0  0  0
 22 23  1  0  0  0  0
 23 24  2  0  0  0  0
 24 25  1  0  0  0  0
 25 26  2  0  0  0  0
 26 27  1  0  0  0  0
 22 27  2  0  0  0  0
 27 28  1  0  0  0  0
 19 28  1  0  0  0  0
 25 29  1  0  0  0  0
 23 30  1  0  0  0  0
 20 31  1  1  0  0  0
 32 33  1  0  0  0  0
 33 34  2  0  0  0  0
 34 35  1  0  0  0  0
 35 36  2  0  0  0  0
 36 37  1  0  0  0  0
 32 37  2  0  0  0  0
 35 38  1  0  0  0  0
 34 39  1  0  0  0  0
 19 32  1  6  0  0  0
 18 26  1  0  0  0  0
  9 18  1  0  0  0  0
  1  7  1  0  0  0  0
M  END
>  <cdx:fragmentId>
34787

$$$$
