302067.cdx
  Mrv1902 05222410222D          

 16 17  0  0  0  0            999 V2000
    3.4306   -5.3350    0.0000 C   0  0  2  0  0  0  0  0  0  0  0  0
    3.4306   -6.1600    0.0000 C   0  0  0  0  0  0  0  0  0  0  0  0
    4.1451   -6.5725    0.0000 C   0  0  2  0  0  0  0  0  0  0  0  0
    4.8596   -6.1600    0.0000 C   0  0  1  0  0  0  0  0  0  0  0  0
    4.8596   -5.3350    0.0000 C   0  0  0  0  0  0  0  0  0  0  0  0
    4.1451   -4.9225    0.0000 C   0  0  0  0  0  0  0  0  0  0  0  0
    5.5740   -6.5725    0.0000 C   0  0  0  0  0  0  0  0  0  0  0  0
    6.2885   -6.1600    0.0000 C   0  0  1  0  0  0  0  0  0  0  0  0
    6.2885   -5.3350    0.0000 C   0  0  0  0  0  0  0  0  0  0  0  0
    5.5740   -4.9225    0.0000 C   0  0  0  0  0  0  0  0  0  0  0  0
    7.0030   -6.5725    0.0000 C   0  0  0  0  0  0  0  0  0  0  0  0
    7.0030   -7.3975    0.0000 C   0  0  0  0  0  0  0  0  0  0  0  0
    7.7999   -6.3590    0.0000 C   0  0  0  0  0  0  0  0  0  0  0  0
    4.1451   -7.3975    0.0000 C   0  0  0  0  0  0  0  0  0  0  0  0
    4.8596   -6.9850    0.0000 C   0  0  0  0  0  0  0  0  0  0  0  0
    2.7162   -4.9225    0.0000 O   0  0  0  0  0  0  0  0  0  0  0  0
  1  2  1  0  0  0  0
  2  3  1  0  0  0  0
  3  4  1  0  0  0  0
  4  5  1  0  0  0  0
  5  6  2  0  0  0  0
  6  1  1  0  0  0  0
  4  7  1  0  0  0  0
  7  8  1  0  0  0  0
  8  9  1  0  0  0  0
  9 10  1  0  0  0  0
 10  5  1  0  0  0  0
  8 11  1  1  0  0  0
 11 12  1  0  0  0  0
 11 13  2  0  0  0  0
  3 14  1  6  0  0  0
  4 15  1  6  0  0  0
  1 16  1  1  0  0  0
M  END
>  <cdx:fragmentId>
4715

$$$$
