302043.cdx
  Mrv1902 05222410232D          

 23 25  0  0  0  0            999 V2000
    7.2755   -6.4366    0.0000 C   0  0  0  0  0  0  0  0  0  0  0  0
    7.2755   -5.6116    0.0000 C   0  0  0  0  0  0  0  0  0  0  0  0
    7.9900   -5.1991    0.0000 C   0  0  0  0  0  0  0  0  0  0  0  0
    8.7045   -5.6116    0.0000 C   0  0  0  0  0  0  0  0  0  0  0  0
    9.4189   -5.1991    0.0000 C   0  0  0  0  0  0  0  0  0  0  0  0
   10.1334   -5.6116    0.0000 C   0  0  0  0  0  0  0  0  0  0  0  0
   10.1334   -6.4366    0.0000 C   0  0  0  0  0  0  0  0  0  0  0  0
    9.4189   -6.8491    0.0000 C   0  0  0  0  0  0  0  0  0  0  0  0
    8.7045   -6.4366    0.0000 C   0  0  0  0  0  0  0  0  0  0  0  0
    7.9900   -6.8491    0.0000 O   0  3  0  0  0  0  0  0  0  0  0  0
    6.5610   -5.1991    0.0000 O   0  0  0  0  0  0  0  0  0  0  0  0
    9.4189   -4.3741    0.0000 O   0  0  0  0  0  0  0  0  0  0  0  0
   10.8479   -6.8491    0.0000 O   0  0  0  0  0  0  0  0  0  0  0  0
    6.5610   -6.8491    0.0000 C   0  0  0  0  0  0  0  0  0  0  0  0
    6.5610   -7.6741    0.0000 C   0  0  0  0  0  0  0  0  0  0  0  0
    5.8466   -8.0866    0.0000 C   0  0  0  0  0  0  0  0  0  0  0  0
    5.1321   -7.6741    0.0000 C   0  0  0  0  0  0  0  0  0  0  0  0
    5.1321   -6.8491    0.0000 C   0  0  0  0  0  0  0  0  0  0  0  0
    5.8466   -6.4366    0.0000 C   0  0  0  0  0  0  0  0  0  0  0  0
    4.4176   -6.4366    0.0000 O   0  0  0  0  0  0  0  0  0  0  0  0
    3.7032   -6.8491    0.0000 C   0  0  0  0  0  0  0  0  0  0  0  0
    4.4176   -8.0866    0.0000 O   0  0  0  0  0  0  0  0  0  0  0  0
    5.8466   -8.9116    0.0000 O   0  0  0  0  0  0  0  0  0  0  0  0
  1  2  2  0  0  0  0
  2  3  1  0  0  0  0
  3  4  2  0  0  0  0
  4  5  1  0  0  0  0
  5  6  2  0  0  0  0
  6  7  1  0  0  0  0
  7  8  2  0  0  0  0
  8  9  1  0  0  0  0
  4  9  1  0  0  0  0
  9 10  2  0  0  0  0
  1 10  1  0  0  0  0
  2 11  1  0  0  0  0
  5 12  1  0  0  0  0
  7 13  1  0  0  0  0
 14 15  1  0  0  0  0
 15 16  2  0  0  0  0
 16 17  1  0  0  0  0
 17 18  2  0  0  0  0
 18 19  1  0  0  0  0
 14 19  2  0  0  0  0
 20 21  1  0  0  0  0
 18 20  1  0  0  0  0
 17 22  1  0  0  0  0
 16 23  1  0  0  0  0
  1 14  1  0  0  0  0
M  CHG  1  10   1
M  END
>  <cdx:groupId>
1508

>  <cdx:fragmentId>
1438

$$$$
