302011.cdx
  Mrv1902 05222410202D          

 63 71  0  0  0  0            999 V2000
    5.7406   -4.6750    0.0000 C   0  0  0  0  0  0  0  0  0  0  0  0
    5.7406   -5.5000    0.0000 C   0  0  0  0  0  0  0  0  0  0  0  0
    6.4551   -5.9125    0.0000 C   0  0  0  0  0  0  0  0  0  0  0  0
    7.1696   -5.5000    0.0000 C   0  0  0  0  0  0  0  0  0  0  0  0
    7.1696   -4.6750    0.0000 C   0  0  0  0  0  0  0  0  0  0  0  0
    6.4551   -4.2625    0.0000 C   0  0  0  0  0  0  0  0  0  0  0  0
    7.8840   -5.9125    0.0000 C   0  0  1  0  0  0  0  0  0  0  0  0
    8.5985   -5.5000    0.0000 C   0  0  2  0  0  0  0  0  0  0  0  0
    8.5985   -4.6750    0.0000 C   0  0  2  0  0  0  0  0  0  0  0  0
    7.8840   -4.2625    0.0000 O   0  0  0  0  0  0  0  0  0  0  0  0
    5.0262   -4.2625    0.0000 O   0  0  0  0  0  0  0  0  0  0  0  0
    6.4551   -6.7375    0.0000 O   0  0  0  0  0  0  0  0  0  0  0  0
    9.3130   -5.9125    0.0000 O   0  0  0  0  0  0  0  0  0  0  0  0
    9.3130   -4.2625    0.0000 C   0  0  0  0  0  0  0  0  0  0  0  0
   10.0275   -4.6750    0.0000 C   0  0  0  0  0  0  0  0  0  0  0  0
   10.7419   -4.2625    0.0000 C   0  0  0  0  0  0  0  0  0  0  0  0
   10.7419   -3.4375    0.0000 C   0  0  0  0  0  0  0  0  0  0  0  0
   10.0275   -3.0250    0.0000 C   0  0  0  0  0  0  0  0  0  0  0  0
    9.3130   -3.4375    0.0000 C   0  0  0  0  0  0  0  0  0  0  0  0
   10.0275   -2.2000    0.0000 O   0  0  0  0  0  0  0  0  0  0  0  0
   11.4564   -3.0250    0.0000 O   0  0  0  0  0  0  0  0  0  0  0  0
    8.6208   -7.6832    0.0000 C   0  0  0  0  0  0  0  0  0  0  0  0
    7.9103   -7.2640    0.0000 C   0  0  0  0  0  0  0  0  0  0  0  0
    7.1919   -7.6698    0.0000 C   0  0  0  0  0  0  0  0  0  0  0  0
    7.1841   -8.4947    0.0000 C   0  0  0  0  0  0  0  0  0  0  0  0
    7.8947   -8.9139    0.0000 C   0  0  0  0  0  0  0  0  0  0  0  0
    8.6130   -8.5082    0.0000 C   0  0  0  0  0  0  0  0  0  0  0  0
    6.4658   -8.9005    0.0000 C   0  0  1  0  0  0  0  0  0  0  0  0
    6.4580   -9.7254    0.0000 C   0  0  2  0  0  0  0  0  0  0  0  0
    7.1686  -10.1446    0.0000 C   0  0  2  0  0  0  0  0  0  0  0  0
    7.8869   -9.7389    0.0000 O   0  0  0  0  0  0  0  0  0  0  0  0
    9.3391   -7.2775    0.0000 O   0  0  0  0  0  0  0  0  0  0  0  0
    6.4814   -7.2505    0.0000 O   0  0  0  0  0  0  0  0  0  0  0  0
    5.7397  -10.1312    0.0000 O   0  0  0  0  0  0  0  0  0  0  0  0
    7.1608  -10.9696    0.0000 C   0  0  0  0  0  0  0  0  0  0  0  0
    6.4424  -11.3753    0.0000 C   0  0  0  0  0  0  0  0  0  0  0  0
    6.4346  -12.2003    0.0000 C   0  0  0  0  0  0  0  0  0  0  0  0
    7.1452  -12.6195    0.0000 C   0  0  0  0  0  0  0  0  0  0  0  0
    7.8635  -12.2138    0.0000 C   0  0  0  0  0  0  0  0  0  0  0  0
    7.8713  -11.3888    0.0000 C   0  0  0  0  0  0  0  0  0  0  0  0
    8.5741  -12.6330    0.0000 O   0  0  0  0  0  0  0  0  0  0  0  0
    7.1374  -13.4445    0.0000 O   0  0  0  0  0  0  0  0  0  0  0  0
    5.5047   -7.5530    0.0000 C   0  0  0  0  0  0  0  0  0  0  0  0
    4.7941   -7.1337    0.0000 C   0  0  0  0  0  0  0  0  0  0  0  0
    4.0758   -7.5395    0.0000 C   0  0  0  0  0  0  0  0  0  0  0  0
    4.0680   -8.3644    0.0000 C   0  0  0  0  0  0  0  0  0  0  0  0
    4.7786   -8.7837    0.0000 C   0  0  0  0  0  0  0  0  0  0  0  0
    5.4969   -8.3779    0.0000 C   0  0  0  0  0  0  0  0  0  0  0  0
    3.3497   -8.7702    0.0000 C   0  0  0  0  0  0  0  0  0  0  0  0
    3.3419   -9.5951    0.0000 C   0  0  1  0  0  0  0  0  0  0  0  0
    4.0524  -10.0144    0.0000 C   0  0  2  0  0  0  0  0  0  0  0  0
    4.7708   -9.6086    0.0000 O   0  0  0  0  0  0  0  0  0  0  0  0
    6.2230   -7.1472    0.0000 O   0  0  0  0  0  0  0  0  0  0  0  0
    3.3653   -7.1202    0.0000 O   0  0  0  0  0  0  0  0  0  0  0  0
    2.6236  -10.0009    0.0000 O   0  0  0  0  0  0  0  0  0  0  0  0
    4.0447  -10.8393    0.0000 C   0  0  0  0  0  0  0  0  0  0  0  0
    3.3263  -11.2451    0.0000 C   0  0  0  0  0  0  0  0  0  0  0  0
    3.3185  -12.0700    0.0000 C   0  0  0  0  0  0  0  0  0  0  0  0
    4.0291  -12.4892    0.0000 C   0  0  0  0  0  0  0  0  0  0  0  0
    4.7474  -12.0835    0.0000 C   0  0  0  0  0  0  0  0  0  0  0  0
    4.7552  -11.2585    0.0000 C   0  0  0  0  0  0  0  0  0  0  0  0
    5.4580  -12.5027    0.0000 O   0  0  0  0  0  0  0  0  0  0  0  0
    4.0213  -13.3142    0.0000 O   0  0  0  0  0  0  0  0  0  0  0  0
  1  2  2  0  0  0  0
  2  3  1  0  0  0  0
  3  4  2  0  0  0  0
  4  5  1  0  0  0  0
  5  6  2  0  0  0  0
  6  1  1  0  0  0  0
  4  7  1  0  0  0  0
  7  8  1  0  0  0  0
  8  9  1  0  0  0  0
  9 10  1  0  0  0  0
 10  5  1  0  0  0  0
  1 11  1  0  0  0  0
  3 12  1  0  0  0  0
  8 13  1  6  0  0  0
  9 14  1  6  0  0  0
 14 15  2  0  0  0  0
 15 16  1  0  0  0  0
 16 17  2  0  0  0  0
 17 18  1  0  0  0  0
 18 19  2  0  0  0  0
 19 14  1  0  0  0  0
 18 20  1  0  0  0  0
 17 21  1  0  0  0  0
 22 23  2  0  0  0  0
 23 24  1  0  0  0  0
 24 25  2  0  0  0  0
 25 26  1  0  0  0  0
 26 27  2  0  0  0  0
 27 22  1  0  0  0  0
 25 28  1  0  0  0  0
 28 29  1  0  0  0  0
 29 30  1  0  0  0  0
 30 31  1  0  0  0  0
 31 26  1  0  0  0  0
 22 32  1  0  0  0  0
 24 33  1  0  0  0  0
 29 34  1  6  0  0  0
 30 35  1  6  0  0  0
 35 36  2  0  0  0  0
 36 37  1  0  0  0  0
 37 38  2  0  0  0  0
 38 39  1  0  0  0  0
 39 40  2  0  0  0  0
 40 35  1  0  0  0  0
 39 41  1  0  0  0  0
 38 42  1  0  0  0  0
 43 44  2  0  0  0  0
 44 45  1  0  0  0  0
 45 46  2  0  0  0  0
 46 47  1  0  0  0  0
 47 48  2  0  0  0  0
 48 43  1  0  0  0  0
 46 49  1  0  0  0  0
 49 50  1  0  0  0  0
 50 51  1  0  0  0  0
 51 52  1  0  0  0  0
 52 47  1  0  0  0  0
 43 53  1  0  0  0  0
 45 54  1  0  0  0  0
 51 56  1  6  0  0  0
 56 57  2  0  0  0  0
 57 58  1  0  0  0  0
 58 59  2  0  0  0  0
 59 60  1  0  0  0  0
 60 61  2  0  0  0  0
 61 56  1  0  0  0  0
 60 62  1  0  0  0  0
 59 63  1  0  0  0  0
 28 48  1  1  0  0  0
 50 55  1  1  0  0  0
  7 23  1  1  0  0  0
M  END
>  <cdx:fragmentId>
4326

$$$$
