302020.cdx
  Mrv1902 05222410262D          

 23 24  0  0  0  0            999 V2000
    6.4733   -6.7750    0.0000 C   0  0  0  0  0  0  0  0  0  0  0  0
    5.7651   -6.3518    0.0000 C   0  0  0  0  0  0  0  0  0  0  0  0
    5.0445   -6.7536    0.0000 C   0  0  0  0  0  0  0  0  0  0  0  0
    5.0322   -7.5785    0.0000 C   0  0  0  0  0  0  0  0  0  0  0  0
    5.7404   -8.0017    0.0000 C   0  0  0  0  0  0  0  0  0  0  0  0
    5.7774   -5.5269    0.0000 C   0  0  0  0  0  0  0  0  0  0  0  0
    6.1529   -8.7161    0.0000 C   0  0  0  0  0  0  0  0  0  0  0  0
    6.9779   -8.7161    0.0000 C   0  0  0  0  0  0  0  0  0  0  0  0
    5.7404   -9.4306    0.0000 C   0  0  0  0  0  0  0  0  0  0  0  0
    7.7000   -7.6175    0.0000 C   0  0  0  0  0  0  0  0  0  0  0  0
    7.1938   -6.3732    0.0000 C   0  0  0  0  0  0  0  0  0  0  0  0
    8.0188   -6.3732    0.0000 C   0  0  0  0  0  0  0  0  0  0  0  0
    8.7333   -5.9607    0.0000 C   0  0  0  0  0  0  0  0  0  0  0  0
    9.4478   -6.3732    0.0000 C   0  0  0  0  0  0  0  0  0  0  0  0
    9.4478   -7.1982    0.0000 C   0  0  2  0  0  0  0  0  0  0  0  0
    8.7201   -7.5869    0.0000 C   0  0  2  0  0  0  0  0  0  0  0  0
    9.4206   -8.0227    0.0000 C   0  0  0  0  0  0  0  0  0  0  0  0
    8.3076   -8.3013    0.0000 H   0  0  0  0  0  0  0  0  0  0  0  0
   10.2728   -7.1982    0.0000 H   0  0  0  0  0  0  0  0  0  0  0  0
    9.4206   -8.8477    0.0000 C   0  0  0  0  0  0  0  0  0  0  0  0
   10.1350   -8.4352    0.0000 C   0  0  0  0  0  0  0  0  0  0  0  0
    8.7333   -5.1357    0.0000 C   0  0  0  0  0  0  0  0  0  0  0  0
    9.4478   -4.7232    0.0000 O   0  0  0  0  0  0  0  0  0  0  0  0
  1  2  2  0  0  0  0
  2  3  1  0  0  0  0
  3  4  1  0  0  0  0
  4  5  1  0  0  0  0
  2  6  1  0  0  0  0
  5  7  2  0  0  0  0
  7  8  1  0  0  0  0
  7  9  1  0  0  0  0
  8 10  1  0  0  0  0
  1 11  1  0  0  0  0
 11 12  1  0  0  0  0
 12 13  1  0  0  0  0
 13 14  2  0  0  0  0
 14 15  1  0  0  0  0
 15 16  1  0  0  0  0
 16 17  1  0  0  0  0
 17 15  1  0  0  0  0
 16 10  1  0  0  0  0
 16 18  1  1  0  0  0
 15 19  1  6  0  0  0
 17 20  1  0  0  0  0
 17 21  1  0  0  0  0
 13 22  1  0  0  0  0
 22 23  2  0  0  0  0
M  END
>  <cdx:fragmentId>
104

$$$$
