302031.cdx
  Mrv1902 05222410282D          

  9  8  0  0  0  0            999 V2000
    8.1395   -6.8491    0.0000 C   0  0  0  0  0  0  0  0  0  0  0  0
    7.4250   -6.4366    0.0000 C   0  0  0  0  0  0  0  0  0  0  0  0
    6.7105   -6.8491    0.0000 C   0  0  0  0  0  0  0  0  0  0  0  0
    5.9961   -6.4366    0.0000 C   0  0  0  0  0  0  0  0  0  0  0  0
    5.2816   -6.8491    0.0000 C   0  0  0  0  0  0  0  0  0  0  0  0
    8.1395   -7.6741    0.0000 O   0  0  0  0  0  0  0  0  0  0  0  0
    8.8539   -6.4366    0.0000 O   0  0  0  0  0  0  0  0  0  0  0  0
    5.9961   -5.6116    0.0000 O   0  0  0  0  0  0  0  0  0  0  0  0
    9.5684   -6.8491    0.0000 C   0  0  0  0  0  0  0  0  0  0  0  0
  1  2  1  0  0  0  0
  2  3  1  0  0  0  0
  3  4  1  0  0  0  0
  4  5  1  0  0  0  0
  1  6  2  0  0  0  0
  1  7  1  0  0  0  0
  4  8  2  0  0  0  0
  7  9  1  0  0  0  0
M  END
>  <cdx:groupId>
805

>  <cdx:fragmentId>
782

$$$$
