302016.cdx
  Mrv1902 05222410182D          

 98108  0  0  0  0            999 V2000
   10.8078   -3.5079    0.0000 C   0  0  0  0  0  0  0  0  0  0  0  0
   11.5222   -3.0954    0.0000 C   0  0  0  0  0  0  0  0  0  0  0  0
   12.2367   -3.5079    0.0000 C   0  0  0  0  0  0  0  0  0  0  0  0
   12.2367   -4.3329    0.0000 C   0  0  0  0  0  0  0  0  0  0  0  0
   11.5222   -4.7454    0.0000 C   0  0  2  0  0  0  0  0  0  0  0  0
   11.5222   -5.5704    0.0000 C   0  0  0  0  0  0  0  0  0  0  0  0
   10.8078   -5.9829    0.0000 C   0  0  0  0  0  0  0  0  0  0  0  0
   10.0933   -5.5704    0.0000 C   0  0  1  0  0  0  0  0  0  0  0  0
    9.3788   -5.9829    0.0000 C   0  0  2  0  0  0  0  0  0  0  0  0
    9.3788   -6.8079    0.0000 C   0  0  0  0  0  0  0  0  0  0  0  0
    8.6644   -7.2204    0.0000 C   0  0  0  0  0  0  0  0  0  0  0  0
    7.9499   -6.8079    0.0000 C   0  0  1  0  0  0  0  0  0  0  0  0
    7.2354   -7.2204    0.0000 C   0  0  2  0  0  0  0  0  0  0  0  0
    6.5209   -6.8079    0.0000 C   0  0  2  0  0  0  0  0  0  0  0  0
    6.5209   -5.9829    0.0000 C   0  0  0  0  0  0  0  0  0  0  0  0
    7.2354   -5.5704    0.0000 C   0  0  0  0  0  0  0  0  0  0  0  0
    7.9499   -5.9829    0.0000 C   0  0  1  0  0  0  0  0  0  0  0  0
    8.6644   -5.5704    0.0000 C   0  0  0  0  0  0  0  0  0  0  0  0
    8.6644   -4.7454    0.0000 C   0  0  0  0  0  0  0  0  0  0  0  0
    9.3788   -4.3329    0.0000 C   0  0  0  0  0  0  0  0  0  0  0  0
   10.0933   -4.7454    0.0000 C   0  0  0  0  0  0  0  0  0  0  0  0
   10.8078   -4.3329    0.0000 C   0  0  2  0  0  0  0  0  0  0  0  0
   12.2367   -5.1579    0.0000 C   0  0  0  0  0  0  0  0  0  0  0  0
   12.2367   -5.9829    0.0000 O   0  0  0  0  0  0  0  0  0  0  0  0
   12.9512   -4.7454    0.0000 O   0  0  0  0  0  0  0  0  0  0  0  0
    7.9499   -5.1579    0.0000 C   0  0  0  0  0  0  0  0  0  0  0  0
    6.8229   -7.9348    0.0000 C   0  0  0  0  0  0  0  0  0  0  0  0
   11.1097   -2.3809    0.0000 C   0  0  0  0  0  0  0  0  0  0  0  0
   11.9347   -2.3809    0.0000 C   0  0  0  0  0  0  0  0  0  0  0  0
    7.6479   -7.9348    0.0000 C   0  0  0  0  0  0  0  0  0  0  0  0
    7.2354   -8.6493    0.0000 O   0  0  0  0  0  0  0  0  0  0  0  0
    5.8065   -7.2204    0.0000 O   0  0  0  0  0  0  0  0  0  0  0  0
    5.0920   -5.9829    0.0000 O   0  0  0  0  0  0  0  0  0  0  0  0
    5.0920   -6.8079    0.0000 C   0  0  2  0  0  0  0  0  0  0  0  0
    4.3775   -7.2204    0.0000 C   0  0  1  0  0  0  0  0  0  0  0  0
    3.6631   -6.8079    0.0000 C   0  0  2  0  0  0  0  0  0  0  0  0
    3.6631   -5.9829    0.0000 C   0  0  2  0  0  0  0  0  0  0  0  0
    4.3775   -5.5704    0.0000 C   0  0  0  0  0  0  0  0  0  0  0  0
    2.9486   -5.5704    0.0000 O   0  0  0  0  0  0  0  0  0  0  0  0
    2.9486   -7.2204    0.0000 O   0  0  0  0  0  0  0  0  0  0  0  0
    4.3775   -8.0454    0.0000 O   0  0  0  0  0  0  0  0  0  0  0  0
    2.9486   -8.0454    0.0000 O   0  0  0  0  0  0  0  0  0  0  0  0
    3.6631   -8.4579    0.0000 C   0  0  2  0  0  0  0  0  0  0  0  0
    3.6631   -9.2829    0.0000 C   0  0  1  0  0  0  0  0  0  0  0  0
    2.9486   -9.6954    0.0000 C   0  0  1  0  0  0  0  0  0  0  0  0
    2.2341   -9.2829    0.0000 C   0  0  2  0  0  0  0  0  0  0  0  0
    2.2341   -8.4579    0.0000 C   0  0  2  0  0  0  0  0  0  0  0  0
    2.9486  -10.5204    0.0000 O   0  0  0  0  0  0  0  0  0  0  0  0
    4.3775  -10.5204    0.0000 O   0  0  0  0  0  0  0  0  0  0  0  0
    3.6631  -10.9329    0.0000 C   0  0  2  0  0  0  0  0  0  0  0  0
    3.6631  -11.7579    0.0000 C   0  0  1  0  0  0  0  0  0  0  0  0
    4.3775  -12.1704    0.0000 C   0  0  2  0  0  0  0  0  0  0  0  0
    5.0920  -11.7579    0.0000 C   0  0  1  0  0  0  0  0  0  0  0  0
    5.0920  -10.9329    0.0000 C   0  0  1  0  0  0  0  0  0  0  0  0
    5.8065  -10.5204    0.0000 C   0  0  0  0  0  0  0  0  0  0  0  0
    6.5209  -10.9329    0.0000 O   0  0  0  0  0  0  0  0  0  0  0  0
    5.8065  -12.1704    0.0000 O   0  0  0  0  0  0  0  0  0  0  0  0
    4.3775  -12.9954    0.0000 O   0  0  0  0  0  0  0  0  0  0  0  0
    2.9486  -12.1704    0.0000 O   0  0  0  0  0  0  0  0  0  0  0  0
    1.5196   -8.0454    0.0000 C   0  0  0  0  0  0  0  0  0  0  0  0
    1.5196   -9.6954    0.0000 O   0  0  0  0  0  0  0  0  0  0  0  0
    4.3775   -9.6954    0.0000 O   0  0  0  0  0  0  0  0  0  0  0  0
    7.9499   -7.6329    0.0000 H   0  0  0  0  0  0  0  0  0  0  0  0
   10.8078   -5.1579    0.0000 H   0  0  0  0  0  0  0  0  0  0  0  0
   14.3801   -4.7454    0.0000 O   0  0  0  0  0  0  0  0  0  0  0  0
   13.6656   -5.1579    0.0000 C   0  0  2  0  0  0  0  0  0  0  0  0
   13.6656   -5.9829    0.0000 C   0  0  1  0  0  0  0  0  0  0  0  0
   14.3801   -6.3954    0.0000 C   0  0  2  0  0  0  0  0  0  0  0  0
   15.0946   -5.9829    0.0000 C   0  0  1  0  0  0  0  0  0  0  0  0
   15.0946   -5.1579    0.0000 C   0  0  1  0  0  0  0  0  0  0  0  0
   15.8091   -6.3954    0.0000 O   0  0  0  0  0  0  0  0  0  0  0  0
   14.3801   -7.2204    0.0000 O   0  0  0  0  0  0  0  0  0  0  0  0
   12.9512   -6.3954    0.0000 O   0  0  0  0  0  0  0  0  0  0  0  0
   15.8091   -4.7454    0.0000 C   0  0  0  0  0  0  0  0  0  0  0  0
   16.5235   -5.1579    0.0000 O   0  0  0  0  0  0  0  0  0  0  0  0
   17.9525   -5.1579    0.0000 O   0  0  0  0  0  0  0  0  0  0  0  0
   17.2380   -4.7454    0.0000 C   0  0  2  0  0  0  0  0  0  0  0  0
   17.2380   -3.9204    0.0000 C   0  0  1  0  0  0  0  0  0  0  0  0
   17.9525   -3.5079    0.0000 C   0  0  2  0  0  0  0  0  0  0  0  0
   18.6669   -3.9204    0.0000 C   0  0  1  0  0  0  0  0  0  0  0  0
   18.6669   -4.7454    0.0000 C   0  0  1  0  0  0  0  0  0  0  0  0
   19.3814   -3.5079    0.0000 O   0  0  0  0  0  0  0  0  0  0  0  0
   18.6669   -2.2704    0.0000 O   0  0  0  0  0  0  0  0  0  0  0  0
   19.3814   -2.6829    0.0000 C   0  0  2  0  0  0  0  0  0  0  0  0
   20.0959   -2.2704    0.0000 C   0  0  1  0  0  0  0  0  0  0  0  0
   20.0959   -1.4454    0.0000 C   0  0  1  0  0  0  0  0  0  0  0  0
   19.3814   -1.0329    0.0000 C   0  0  2  0  0  0  0  0  0  0  0  0
   18.6669   -1.4454    0.0000 C   0  0  2  0  0  0  0  0  0  0  0  0
   17.9525   -1.0329    0.0000 C   0  0  0  0  0  0  0  0  0  0  0  0
   19.3814   -0.2079    0.0000 O   0  0  0  0  0  0  0  0  0  0  0  0
   20.8104   -1.0329    0.0000 O   0  0  0  0  0  0  0  0  0  0  0  0
   20.8104   -2.6829    0.0000 O   0  0  0  0  0  0  0  0  0  0  0  0
   19.3814   -5.1579    0.0000 C   0  0  0  0  0  0  0  0  0  0  0  0
   20.0959   -4.7454    0.0000 O   0  0  0  0  0  0  0  0  0  0  0  0
   17.9525   -2.6829    0.0000 O   0  0  0  0  0  0  0  0  0  0  0  0
   16.5235   -3.5079    0.0000 O   0  0  0  0  0  0  0  0  0  0  0  0
   10.3068   -6.3672    0.0000 C   0  0  0  0  0  0  0  0  0  0  0  0
    9.9622   -6.5662    0.0000 C   0  0  0  0  0  0  0  0  0  0  0  0
  1  2  1  0  0  0  0
  2  3  1  0  0  0  0
  3  4  1  0  0  0  0
  4  5  1  0  0  0  0
  5  6  1  0  0  0  0
  6  7  1  0  0  0  0
  7  8  1  0  0  0  0
  8  9  1  0  0  0  0
  9 10  1  0  0  0  0
 10 11  1  0  0  0  0
 11 12  1  0  0  0  0
 12 13  1  0  0  0  0
 13 14  1  0  0  0  0
 14 15  1  0  0  0  0
 15 16  1  0  0  0  0
 16 17  1  0  0  0  0
 12 17  1  0  0  0  0
 17 18  1  0  0  0  0
  9 18  1  0  0  0  0
 18 19  1  0  0  0  0
 19 20  1  0  0  0  0
 20 21  2  0  0  0  0
  8 21  1  0  0  0  0
 21 22  1  0  0  0  0
  5 22  1  0  0  0  0
  1 22  1  0  0  0  0
 23 24  2  0  0  0  0
 23 25  1  0  0  0  0
  5 23  1  1  0  0  0
 17 26  1  6  0  0  0
 13 27  1  1  0  0  0
  2 28  1  0  0  0  0
  2 29  1  0  0  0  0
 30 31  1  0  0  0  0
 13 30  1  6  0  0  0
 33 34  1  0  0  0  0
 34 35  1  0  0  0  0
 35 36  1  0  0  0  0
 36 37  1  0  0  0  0
 37 38  1  0  0  0  0
 33 38  1  0  0  0  0
 37 39  1  1  0  0  0
 36 40  1  1  0  0  0
 42 43  1  0  0  0  0
 43 44  1  0  0  0  0
 44 45  1  0  0  0  0
 45 46  1  0  0  0  0
 46 47  1  0  0  0  0
 42 47  1  0  0  0  0
 49 50  1  0  0  0  0
 50 51  1  0  0  0  0
 51 52  1  0  0  0  0
 52 53  1  0  0  0  0
 53 54  1  0  0  0  0
 49 54  1  0  0  0  0
 55 56  1  0  0  0  0
 54 55  1  6  0  0  0
 53 57  1  1  0  0  0
 52 58  1  6  0  0  0
 51 59  1  1  0  0  0
 50 48  1  6  0  0  0
 45 48  1  6  0  0  0
 47 60  1  6  0  0  0
 46 61  1  1  0  0  0
 44 62  1  6  0  0  0
 43 41  1  1  0  0  0
 35 41  1  6  0  0  0
 34 32  1  1  0  0  0
 14 32  1  1  0  0  0
 12 63  1  6  0  0  0
 22 64  1  1  0  0  0
 65 66  1  0  0  0  0
 66 67  1  0  0  0  0
 67 68  1  0  0  0  0
 68 69  1  0  0  0  0
 69 70  1  0  0  0  0
 65 70  1  0  0  0  0
 69 71  1  1  0  0  0
 68 72  1  6  0  0  0
 67 73  1  1  0  0  0
 76 77  1  0  0  0  0
 77 78  1  0  0  0  0
 78 79  1  0  0  0  0
 79 80  1  0  0  0  0
 80 81  1  0  0  0  0
 76 81  1  0  0  0  0
 83 84  1  0  0  0  0
 84 85  1  0  0  0  0
 85 86  1  0  0  0  0
 86 87  1  0  0  0  0
 87 88  1  0  0  0  0
 83 88  1  0  0  0  0
 88 89  1  1  0  0  0
 87 90  1  6  0  0  0
 86 91  1  1  0  0  0
 85 92  1  1  0  0  0
 84 82  1  6  0  0  0
 80 82  1  6  0  0  0
 93 94  1  0  0  0  0
 81 93  1  1  0  0  0
 79 95  1  1  0  0  0
 78 96  1  6  0  0  0
 77 75  1  1  0  0  0
 74 75  1  0  0  0  0
 70 74  1  6  0  0  0
 66 25  1  6  0  0  0
  8 97  1  6  0  0  0
  9 98  1  1  0  0  0
M  END
>  <cdx:groupId>
359

>  <cdx:fragmentId>
58

$$$$
