302089.cdx
  Mrv1902 05222410202D          

 46 51  0  0  0  0            999 V2000
   10.2829   -5.1356    0.0000 C   0  0  0  0  0  0  0  0  0  0  0  0
   10.9974   -4.7231    0.0000 C   0  0  0  0  0  0  0  0  0  0  0  0
   11.7118   -5.1356    0.0000 C   0  0  0  0  0  0  0  0  0  0  0  0
   11.7118   -5.9606    0.0000 C   0  0  0  0  0  0  0  0  0  0  0  0
   10.9974   -6.3731    0.0000 C   0  0  0  0  0  0  0  0  0  0  0  0
   10.9974   -7.1981    0.0000 C   0  0  0  0  0  0  0  0  0  0  0  0
   10.2829   -7.6106    0.0000 C   0  0  0  0  0  0  0  0  0  0  0  0
    9.5684   -7.1981    0.0000 C   0  0  0  0  0  0  0  0  0  0  0  0
    8.8539   -7.6106    0.0000 C   0  0  0  0  0  0  0  0  0  0  0  0
    8.8539   -8.4356    0.0000 C   0  0  0  0  0  0  0  0  0  0  0  0
    8.1395   -8.8481    0.0000 C   0  0  0  0  0  0  0  0  0  0  0  0
    7.4250   -8.4356    0.0000 C   0  0  0  0  0  0  0  0  0  0  0  0
    6.7105   -8.8481    0.0000 C   0  0  0  0  0  0  0  0  0  0  0  0
    5.9961   -8.4356    0.0000 C   0  0  0  0  0  0  0  0  0  0  0  0
    5.9961   -7.6106    0.0000 C   0  0  0  0  0  0  0  0  0  0  0  0
    6.7105   -7.1981    0.0000 C   0  0  0  0  0  0  0  0  0  0  0  0
    7.4250   -7.6106    0.0000 C   0  0  0  0  0  0  0  0  0  0  0  0
    8.1395   -7.1981    0.0000 C   0  0  0  0  0  0  0  0  0  0  0  0
    8.1395   -6.3731    0.0000 C   0  0  0  0  0  0  0  0  0  0  0  0
    8.8539   -5.9606    0.0000 C   0  0  0  0  0  0  0  0  0  0  0  0
    9.5684   -6.3731    0.0000 C   0  0  0  0  0  0  0  0  0  0  0  0
   10.2829   -5.9606    0.0000 C   0  0  0  0  0  0  0  0  0  0  0  0
   11.7118   -6.7856    0.0000 C   0  0  0  0  0  0  0  0  0  0  0  0
   11.7118   -7.6106    0.0000 O   0  0  0  0  0  0  0  0  0  0  0  0
   12.4263   -6.3731    0.0000 O   0  0  0  0  0  0  0  0  0  0  0  0
    5.2816   -8.8481    0.0000 O   0  0  0  0  0  0  0  0  0  0  0  0
    4.5671   -7.6106    0.0000 O   0  0  0  0  0  0  0  0  0  0  0  0
    4.5671   -8.4356    0.0000 C   0  0  0  0  0  0  0  0  0  0  0  0
    3.8526   -8.8481    0.0000 C   0  0  0  0  0  0  0  0  0  0  0  0
    3.1382   -8.4356    0.0000 C   0  0  0  0  0  0  0  0  0  0  0  0
    3.1382   -7.6106    0.0000 C   0  0  0  0  0  0  0  0  0  0  0  0
    3.8526   -7.1981    0.0000 C   0  0  0  0  0  0  0  0  0  0  0  0
    2.4237   -7.1981    0.0000 O   0  0  0  0  0  0  0  0  0  0  0  0
    2.4237   -8.8481    0.0000 O   0  0  0  0  0  0  0  0  0  0  0  0
    3.8526   -9.6731    0.0000 O   0  0  0  0  0  0  0  0  0  0  0  0
    7.4250   -6.7856    0.0000 C   0  0  0  0  0  0  0  0  0  0  0  0
    6.2980   -9.5626    0.0000 C   0  0  0  0  0  0  0  0  0  0  0  0
    9.5684   -8.0231    0.0000 C   0  0  0  0  0  0  0  0  0  0  0  0
   11.7118   -4.3106    0.0000 C   0  0  0  0  0  0  0  0  0  0  0  0
   10.9974   -3.8981    0.0000 C   0  0  0  0  0  0  0  0  0  0  0  0
   10.2829   -3.4856    0.0000 O   0  0  0  0  0  0  0  0  0  0  0  0
   11.7118   -3.4856    0.0000 O   0  0  0  0  0  0  0  0  0  0  0  0
   11.7118   -2.6606    0.0000 C   0  0  0  0  0  0  0  0  0  0  0  0
    7.1230   -9.5626    0.0000 C   0  0  0  0  0  0  0  0  0  0  0  0
    7.9480   -9.5626    0.0000 O   0  0  0  0  0  0  0  0  0  0  0  0
    9.4373   -8.1940    0.0000 C   0  0  0  0  0  0  0  0  0  0  0  0
  1  2  1  0  0  0  0
  2  3  1  0  0  0  0
  3  4  1  0  0  0  0
  4  5  1  0  0  0  0
  5  6  1  0  0  0  0
  6  7  1  0  0  0  0
  7  8  1  0  0  0  0
  8  9  1  0  0  0  0
  9 10  1  0  0  0  0
 10 11  1  0  0  0  0
 11 12  1  0  0  0  0
 12 13  1  0  0  0  0
 13 14  1  0  0  0  0
 14 15  1  0  0  0  0
 15 16  1  0  0  0  0
 16 17  1  0  0  0  0
 12 17  1  0  0  0  0
 17 18  1  0  0  0  0
  9 18  1  0  0  0  0
 18 19  1  0  0  0  0
 19 20  1  0  0  0  0
 20 21  2  0  0  0  0
  8 21  1  0  0  0  0
 21 22  1  0  0  0  0
  5 22  1  0  0  0  0
  1 22  1  0  0  0  0
 23 24  2  0  0  0  0
 23 25  1  0  0  0  0
  5 23  1  0  0  0  0
 27 28  1  0  0  0  0
 28 29  1  0  0  0  0
 29 30  1  0  0  0  0
 30 31  1  0  0  0  0
 31 32  1  0  0  0  0
 27 32  1  0  0  0  0
 31 33  1  0  0  0  0
 30 34  1  0  0  0  0
 29 35  1  0  0  0  0
 26 28  1  0  0  0  0
 14 26  1  0  0  0  0
 17 36  1  0  0  0  0
 13 37  1  0  0  0  0
  8 38  1  0  0  0  0
  2 39  1  0  0  0  0
 40 41  2  0  0  0  0
 42 43  1  0  0  0  0
 40 42  1  0  0  0  0
  2 40  1  0  0  0  0
 44 45  1  0  0  0  0
 13 44  1  0  0  0  0
  9 46  1  0  0  0  0
M  END
>  <cdx:groupId>
1954

>  <cdx:fragmentId>
1814

$$$$
