302063.cdx
  Mrv1902 05222410212D          

 15 15  0  0  0  0            999 V2000
    6.3499   -6.2298    0.0000 C   0  0  0  0  0  0  0  0  0  0  0  0
    5.6354   -6.6423    0.0000 C   0  0  0  0  0  0  0  0  0  0  0  0
    4.9209   -6.2298    0.0000 C   0  0  0  0  0  0  0  0  0  0  0  0
    4.2064   -6.6423    0.0000 C   0  0  0  0  0  0  0  0  0  0  0  0
    6.3499   -5.4048    0.0000 O   0  0  0  0  0  0  0  0  0  0  0  0
    7.0643   -6.6423    0.0000 O   0  0  0  0  0  0  0  0  0  0  0  0
    5.6354   -7.4673    0.0000 C   0  0  0  0  0  0  0  0  0  0  0  0
    7.7788   -6.2298    0.0000 C   0  0  0  0  0  0  0  0  0  0  0  0
    8.4933   -6.6423    0.0000 C   0  0  0  0  0  0  0  0  0  0  0  0
    9.2077   -6.2298    0.0000 C   0  0  0  0  0  0  0  0  0  0  0  0
    9.2077   -5.4048    0.0000 C   0  0  0  0  0  0  0  0  0  0  0  0
    9.9222   -4.9923    0.0000 C   0  0  0  0  0  0  0  0  0  0  0  0
   10.6367   -5.4048    0.0000 C   0  0  0  0  0  0  0  0  0  0  0  0
   10.6367   -6.2298    0.0000 C   0  0  0  0  0  0  0  0  0  0  0  0
    9.9222   -6.6423    0.0000 C   0  0  0  0  0  0  0  0  0  0  0  0
  1  2  1  0  0  0  0
  2  3  2  0  0  0  0
  3  4  1  0  0  0  0
  1  5  2  0  0  0  0
  1  6  1  0  0  0  0
  2  7  1  0  0  0  0
  8  9  1  0  0  0  0
 10 11  1  0  0  0  0
 11 12  2  0  0  0  0
 12 13  1  0  0  0  0
 13 14  2  0  0  0  0
 14 15  1  0  0  0  0
 10 15  2  0  0  0  0
  9 10  1  0  0  0  0
  6  8  1  0  0  0  0
M  END
>  <cdx:groupId>
795

>  <cdx:fragmentId>
771

$$$$
