302055.cdx
  Mrv1902 05222410242D          

 18 20  0  0  0  0            999 V2000
    5.6423   -7.6656    0.0000 C   0  0  0  0  0  0  0  0  0  0  0  0
    4.9278   -7.2531    0.0000 C   0  0  0  0  0  0  0  0  0  0  0  0
    4.9278   -6.4281    0.0000 C   0  0  0  0  0  0  0  0  0  0  0  0
    5.6423   -6.0156    0.0000 C   0  0  0  0  0  0  0  0  0  0  0  0
    6.3567   -6.4281    0.0000 C   0  0  0  0  0  0  0  0  0  0  0  0
    7.0712   -6.0156    0.0000 C   0  0  0  0  0  0  0  0  0  0  0  0
    7.0712   -5.1906    0.0000 C   0  0  0  0  0  0  0  0  0  0  0  0
    7.7857   -4.7781    0.0000 C   0  0  0  0  0  0  0  0  0  0  0  0
    8.5001   -5.1906    0.0000 C   0  0  0  0  0  0  0  0  0  0  0  0
    8.5001   -6.0156    0.0000 C   0  0  0  0  0  0  0  0  0  0  0  0
    7.7857   -6.4281    0.0000 C   0  0  0  0  0  0  0  0  0  0  0  0
    7.7857   -7.2531    0.0000 C   0  0  0  0  0  0  0  0  0  0  0  0
    7.0712   -7.6656    0.0000 C   0  0  0  0  0  0  0  0  0  0  0  0
    6.3567   -7.2531    0.0000 C   0  0  0  0  0  0  0  0  0  0  0  0
    9.2146   -3.9531    0.0000 C   0  0  0  0  0  0  0  0  0  0  0  0
    9.2146   -4.7781    0.0000 C   0  0  0  0  0  0  0  0  0  0  0  0
    9.9291   -5.1906    0.0000 C   0  0  0  0  0  0  0  0  0  0  0  0
    5.6423   -8.4906    0.0000 C   0  0  0  0  0  0  0  0  0  0  0  0
  1  2  1  0  0  0  0
  2  3  2  0  0  0  0
  3  4  1  0  0  0  0
  4  5  2  0  0  0  0
  5  6  1  0  0  0  0
  6  7  2  0  0  0  0
  7  8  1  0  0  0  0
  8  9  2  0  0  0  0
  9 10  1  0  0  0  0
 10 11  2  0  0  0  0
  6 11  1  0  0  0  0
 11 12  1  0  0  0  0
 12 13  2  0  0  0  0
 13 14  1  0  0  0  0
  1 14  2  0  0  0  0
  5 14  1  0  0  0  0
 15 16  1  0  0  0  0
 16 17  1  0  0  0  0
  9 16  1  0  0  0  0
  1 18  1  0  0  0  0
M  END
>  <cdx:groupId>
383

>  <cdx:fragmentId>
330

$$$$
