302094.cdx
  Mrv1902 05222410232D          

 24 25  0  0  0  0            999 V2000
    9.5684   -6.1309    0.0000 C   0  0  0  0  0  0  0  0  0  0  0  0
    8.8539   -5.7184    0.0000 C   0  0  0  0  0  0  0  0  0  0  0  0
    8.1395   -6.1309    0.0000 C   0  0  0  0  0  0  0  0  0  0  0  0
    8.1395   -6.9559    0.0000 C   0  0  2  0  0  0  0  0  0  0  0  0
    8.8539   -7.3684    0.0000 C   0  0  0  0  0  0  0  0  0  0  0  0
    9.5684   -6.9559    0.0000 C   0  0  0  0  0  0  0  0  0  0  0  0
   10.2829   -5.7184    0.0000 C   0  0  0  0  0  0  0  0  0  0  0  0
   10.2829   -4.8934    0.0000 O   0  0  0  0  0  0  0  0  0  0  0  0
   10.9974   -6.1309    0.0000 O   0  0  0  0  0  0  0  0  0  0  0  0
    7.4250   -7.3684    0.0000 O   0  0  0  0  0  0  0  0  0  0  0  0
    5.9961   -7.3684    0.0000 O   0  0  0  0  0  0  0  0  0  0  0  0
    6.7105   -6.9559    0.0000 C   0  0  2  0  0  0  0  0  0  0  0  0
    6.7105   -6.1309    0.0000 C   0  0  1  0  0  0  0  0  0  0  0  0
    5.9961   -5.7184    0.0000 C   0  0  2  0  0  0  0  0  0  0  0  0
    5.2816   -6.1309    0.0000 C   0  0  1  0  0  0  0  0  0  0  0  0
    5.2816   -6.9559    0.0000 C   0  0  1  0  0  0  0  0  0  0  0  0
    4.5671   -7.3684    0.0000 C   0  0  0  0  0  0  0  0  0  0  0  0
    3.8526   -6.9559    0.0000 O   0  0  0  0  0  0  0  0  0  0  0  0
    4.5671   -5.7184    0.0000 O   0  0  0  0  0  0  0  0  0  0  0  0
    5.9961   -4.8934    0.0000 O   0  0  0  0  0  0  0  0  0  0  0  0
    7.4250   -5.7184    0.0000 O   0  0  0  0  0  0  0  0  0  0  0  0
   10.3934   -6.9559    0.0000 C   0  0  0  0  0  0  0  0  0  0  0  0
    9.9809   -7.6704    0.0000 C   0  0  0  0  0  0  0  0  0  0  0  0
    8.8539   -4.8934    0.0000 C   0  0  0  0  0  0  0  0  0  0  0  0
  1  2  2  0  0  0  0
  2  3  1  0  0  0  0
  3  4  1  0  0  0  0
  4  5  1  0  0  0  0
  5  6  1  0  0  0  0
  1  6  1  0  0  0  0
  7  8  2  0  0  0  0
  7  9  1  0  0  0  0
  1  7  1  0  0  0  0
 11 12  1  0  0  0  0
 12 13  1  0  0  0  0
 13 14  1  0  0  0  0
 14 15  1  0  0  0  0
 15 16  1  0  0  0  0
 11 16  1  0  0  0  0
 17 18  1  0  0  0  0
 16 17  1  6  0  0  0
 15 19  1  1  0  0  0
 14 20  1  6  0  0  0
 13 21  1  1  0  0  0
 12 10  1  6  0  0  0
  4 10  1  6  0  0  0
  6 22  1  0  0  0  0
  6 23  1  0  0  0  0
  2 24  1  0  0  0  0
M  END
>  <cdx:groupId>
2332

>  <cdx:fragmentId>
2282

$$$$
