302032.cdx
  Mrv1902 05222410272D          

  9  8  0  0  0  0            999 V2000
    7.7822   -6.8491    0.0000 C   0  0  0  0  0  0  0  0  0  0  0  0
    7.0678   -7.2616    0.0000 C   0  0  0  0  0  0  0  0  0  0  0  0
    6.3533   -6.8491    0.0000 C   0  0  0  0  0  0  0  0  0  0  0  0
    5.6388   -7.2616    0.0000 C   0  0  0  0  0  0  0  0  0  0  0  0
    4.9244   -6.8491    0.0000 C   0  0  0  0  0  0  0  0  0  0  0  0
    7.7822   -6.0241    0.0000 O   0  0  0  0  0  0  0  0  0  0  0  0
    8.4967   -7.2616    0.0000 O   0  0  0  0  0  0  0  0  0  0  0  0
    9.2112   -6.8491    0.0000 C   0  0  0  0  0  0  0  0  0  0  0  0
    9.9256   -7.2616    0.0000 C   0  0  0  0  0  0  0  0  0  0  0  0
  1  2  1  0  0  0  0
  2  3  1  0  0  0  0
  3  4  1  0  0  0  0
  4  5  1  0  0  0  0
  1  6  2  0  0  0  0
  1  7  1  0  0  0  0
  8  9  1  0  0  0  0
  7  8  1  0  0  0  0
M  END
>  <cdx:groupId>
833

>  <cdx:fragmentId>
810

$$$$
