302008.cdx
  Mrv1902 05222410262D          

 63 71  0  0  0  0            999 V2000
    2.6606   -3.2588    0.0000 C   0  0  0  0  0  0  0  0  0  0  0  0
    3.3751   -3.6713    0.0000 C   0  0  0  0  0  0  0  0  0  0  0  0
    4.0896   -3.2588    0.0000 C   0  0  0  0  0  0  0  0  0  0  0  0
    4.0896   -2.4337    0.0000 C   0  0  0  0  0  0  0  0  0  0  0  0
    3.3751   -2.0213    0.0000 C   0  0  0  0  0  0  0  0  0  0  0  0
    2.6606   -2.4337    0.0000 C   0  0  0  0  0  0  0  0  0  0  0  0
    4.8040   -3.6713    0.0000 C   0  0  1  0  0  0  0  0  0  0  0  0
    5.5185   -3.2588    0.0000 C   0  0  2  0  0  0  0  0  0  0  0  0
    5.5185   -2.4337    0.0000 C   0  0  2  0  0  0  0  0  0  0  0  0
    4.8040   -2.0213    0.0000 O   0  0  0  0  0  0  0  0  0  0  0  0
    6.2330   -2.0213    0.0000 C   0  0  0  0  0  0  0  0  0  0  0  0
    6.9475   -2.4337    0.0000 C   0  0  0  0  0  0  0  0  0  0  0  0
    7.6619   -2.0213    0.0000 C   0  0  0  0  0  0  0  0  0  0  0  0
    7.6619   -1.1962    0.0000 C   0  0  0  0  0  0  0  0  0  0  0  0
    6.9475   -0.7838    0.0000 C   0  0  0  0  0  0  0  0  0  0  0  0
    6.2330   -1.1962    0.0000 C   0  0  0  0  0  0  0  0  0  0  0  0
    8.3764   -0.7837    0.0000 O   0  0  0  0  0  0  0  0  0  0  0  0
    8.3764   -2.4337    0.0000 O   0  0  0  0  0  0  0  0  0  0  0  0
    1.9462   -2.0212    0.0000 O   0  0  0  0  0  0  0  0  0  0  0  0
    3.3751   -4.4962    0.0000 O   0  0  0  0  0  0  0  0  0  0  0  0
    6.2330   -3.6713    0.0000 O   0  0  0  0  0  0  0  0  0  0  0  0
    4.0631   -6.1875    0.0000 C   0  0  0  0  0  0  0  0  0  0  0  0
    4.7776   -6.6000    0.0000 C   0  0  0  0  0  0  0  0  0  0  0  0
    5.4921   -6.1875    0.0000 C   0  0  0  0  0  0  0  0  0  0  0  0
    5.4921   -5.3625    0.0000 C   0  0  0  0  0  0  0  0  0  0  0  0
    4.7776   -4.9500    0.0000 C   0  0  0  0  0  0  0  0  0  0  0  0
    4.0631   -5.3625    0.0000 C   0  0  0  0  0  0  0  0  0  0  0  0
    6.2065   -6.6000    0.0000 C   0  0  2  0  0  0  0  0  0  0  0  0
    6.9210   -6.1875    0.0000 C   0  0  1  0  0  0  0  0  0  0  0  0
    6.9210   -5.3625    0.0000 C   0  0  2  0  0  0  0  0  0  0  0  0
    6.2065   -4.9500    0.0000 O   0  0  0  0  0  0  0  0  0  0  0  0
    7.6355   -4.9500    0.0000 C   0  0  0  0  0  0  0  0  0  0  0  0
    8.3500   -5.3625    0.0000 C   0  0  0  0  0  0  0  0  0  0  0  0
    9.0644   -4.9500    0.0000 C   0  0  0  0  0  0  0  0  0  0  0  0
    9.0644   -4.1250    0.0000 C   0  0  0  0  0  0  0  0  0  0  0  0
    8.3500   -3.7125    0.0000 C   0  0  0  0  0  0  0  0  0  0  0  0
    7.6355   -4.1250    0.0000 C   0  0  0  0  0  0  0  0  0  0  0  0
    9.7789   -3.7125    0.0000 O   0  0  0  0  0  0  0  0  0  0  0  0
    9.7789   -5.3625    0.0000 O   0  0  0  0  0  0  0  0  0  0  0  0
    3.3487   -4.9500    0.0000 O   0  0  0  0  0  0  0  0  0  0  0  0
    4.7776   -7.4250    0.0000 O   0  0  0  0  0  0  0  0  0  0  0  0
    7.6355   -6.6000    0.0000 O   0  0  0  0  0  0  0  0  0  0  0  0
    5.4794   -9.1438    0.0000 C   0  0  0  0  0  0  0  0  0  0  0  0
    6.1938   -9.5563    0.0000 C   0  0  0  0  0  0  0  0  0  0  0  0
    6.9083   -9.1438    0.0000 C   0  0  0  0  0  0  0  0  0  0  0  0
    6.9083   -8.3187    0.0000 C   0  0  0  0  0  0  0  0  0  0  0  0
    6.1938   -7.9063    0.0000 C   0  0  0  0  0  0  0  0  0  0  0  0
    5.4794   -8.3187    0.0000 C   0  0  0  0  0  0  0  0  0  0  0  0
    7.6228   -9.5563    0.0000 C   0  0  0  0  0  0  0  0  0  0  0  0
    8.3373   -9.1438    0.0000 C   0  0  1  0  0  0  0  0  0  0  0  0
    8.3373   -8.3187    0.0000 C   0  0  2  0  0  0  0  0  0  0  0  0
    7.6228   -7.9063    0.0000 O   0  0  0  0  0  0  0  0  0  0  0  0
    9.0517   -7.9063    0.0000 C   0  0  0  0  0  0  0  0  0  0  0  0
    9.7662   -8.3187    0.0000 C   0  0  0  0  0  0  0  0  0  0  0  0
   10.4807   -7.9063    0.0000 C   0  0  0  0  0  0  0  0  0  0  0  0
   10.4807   -7.0812    0.0000 C   0  0  0  0  0  0  0  0  0  0  0  0
    9.7662   -6.6688    0.0000 C   0  0  0  0  0  0  0  0  0  0  0  0
    9.0517   -7.0812    0.0000 C   0  0  0  0  0  0  0  0  0  0  0  0
   11.1951   -6.6687    0.0000 O   0  0  0  0  0  0  0  0  0  0  0  0
   11.1951   -8.3187    0.0000 O   0  0  0  0  0  0  0  0  0  0  0  0
    4.7649   -7.9062    0.0000 O   0  0  0  0  0  0  0  0  0  0  0  0
    6.1938  -10.3812    0.0000 O   0  0  0  0  0  0  0  0  0  0  0  0
    9.0517   -9.5563    0.0000 O   0  0  0  0  0  0  0  0  0  0  0  0
  1  2  2  0  0  0  0
  2  3  1  0  0  0  0
  3  4  2  0  0  0  0
  4  5  1  0  0  0  0
  5  6  2  0  0  0  0
  6  1  1  0  0  0  0
  3  7  1  0  0  0  0
  7  8  1  0  0  0  0
  8  9  1  0  0  0  0
  9 10  1  0  0  0  0
 10  4  1  0  0  0  0
  9 11  1  6  0  0  0
 11 12  2  0  0  0  0
 12 13  1  0  0  0  0
 13 14  2  0  0  0  0
 14 15  1  0  0  0  0
 15 16  2  0  0  0  0
 16 11  1  0  0  0  0
 14 17  1  0  0  0  0
 13 18  1  0  0  0  0
  6 19  1  0  0  0  0
  2 20  1  0  0  0  0
  8 21  1  6  0  0  0
 22 23  2  0  0  0  0
 23 24  1  0  0  0  0
 24 25  2  0  0  0  0
 25 26  1  0  0  0  0
 26 27  2  0  0  0  0
 27 22  1  0  0  0  0
 24 28  1  0  0  0  0
 28 29  1  0  0  0  0
 29 30  1  0  0  0  0
 30 31  1  0  0  0  0
 31 25  1  0  0  0  0
 30 32  1  6  0  0  0
 32 33  2  0  0  0  0
 33 34  1  0  0  0  0
 34 35  2  0  0  0  0
 35 36  1  0  0  0  0
 36 37  2  0  0  0  0
 37 32  1  0  0  0  0
 35 38  1  0  0  0  0
 34 39  1  0  0  0  0
 27 40  1  0  0  0  0
 23 41  1  0  0  0  0
 43 44  2  0  0  0  0
 44 45  1  0  0  0  0
 45 46  2  0  0  0  0
 46 47  1  0  0  0  0
 47 48  2  0  0  0  0
 48 43  1  0  0  0  0
 45 49  1  0  0  0  0
 49 50  1  0  0  0  0
 50 51  1  0  0  0  0
 51 52  1  0  0  0  0
 52 46  1  0  0  0  0
 51 53  1  6  0  0  0
 53 54  2  0  0  0  0
 54 55  1  0  0  0  0
 55 56  2  0  0  0  0
 56 57  1  0  0  0  0
 57 58  2  0  0  0  0
 58 53  1  0  0  0  0
 56 59  1  0  0  0  0
 55 60  1  0  0  0  0
 48 61  1  0  0  0  0
 44 62  1  0  0  0  0
 29 42  1  1  0  0  0
 50 63  1  1  0  0  0
  7 26  1  1  0  0  0
 28 47  1  6  0  0  0
M  END
>  <cdx:fragmentId>
4024

$$$$
