302006.cdx
  Mrv1902 05222410192D          

 29 31  0  0  0  0            999 V2000
    4.3102   -6.2725    0.0000 C   0  0  0  0  0  0  0  0  0  0  0  0
    4.3102   -7.0975    0.0000 C   0  0  0  0  0  0  0  0  0  0  0  0
    5.0247   -7.5100    0.0000 C   0  0  0  0  0  0  0  0  0  0  0  0
    5.7391   -7.0975    0.0000 C   0  0  1  0  0  0  0  0  0  0  0  0
    5.7391   -6.2725    0.0000 C   0  0  2  0  0  0  0  0  0  0  0  0
    5.0247   -5.8600    0.0000 C   0  0  2  0  0  0  0  0  0  0  0  0
    6.4536   -7.5100    0.0000 C   0  0  0  0  0  0  0  0  0  0  0  0
    7.1681   -7.0975    0.0000 C   0  0  2  0  0  0  0  0  0  0  0  0
    7.1681   -6.2725    0.0000 C   0  0  0  0  0  0  0  0  0  0  0  0
    6.4536   -5.8600    0.0000 C   0  0  0  0  0  0  0  0  0  0  0  0
    5.0247   -5.0350    0.0000 O   0  0  0  0  0  0  0  0  0  0  0  0
    5.7391   -5.4475    0.0000 C   0  0  0  0  0  0  0  0  0  0  0  0
    5.0247   -8.3350    0.0000 C   0  0  0  0  0  0  0  0  0  0  0  0
    5.7391   -7.9225    0.0000 H   0  0  0  0  0  0  0  0  0  0  0  0
    7.8825   -7.5100    0.0000 C   0  0  0  0  0  0  0  0  0  0  0  0
    8.5970   -7.0975    0.0000 C   0  0  0  0  0  0  0  0  0  0  0  0
    7.8825   -8.3350    0.0000 C   0  0  0  0  0  0  0  0  0  0  0  0
    8.5970   -7.9225    0.0000 O   0  0  0  0  0  0  0  0  0  0  0  0
    7.8928   -9.9959    0.0000 C   0  0  2  0  0  0  0  0  0  0  0  0
    8.6079  -10.4072    0.0000 C   0  0  2  0  0  0  0  0  0  0  0  0
    9.3217   -9.9936    0.0000 C   0  0  1  0  0  0  0  0  0  0  0  0
    9.3204   -9.1686    0.0000 C   0  0  2  0  0  0  0  0  0  0  0  0
    8.6053   -8.7573    0.0000 C   0  0  1  0  0  0  0  0  0  0  0  0
    7.8915   -9.1709    0.0000 O   0  0  0  0  0  0  0  0  0  0  0  0
    7.1789  -10.4095    0.0000 C   0  0  0  0  0  0  0  0  0  0  0  0
   10.0368  -10.4050    0.0000 O   0  0  0  0  0  0  0  0  0  0  0  0
    8.6092  -11.2322    0.0000 O   0  0  0  0  0  0  0  0  0  0  0  0
   10.0342   -8.7550    0.0000 O   0  0  0  0  0  0  0  0  0  0  0  0
    7.1802  -11.2345    0.0000 O   0  0  0  0  0  0  0  0  0  0  0  0
  1  2  1  0  0  0  0
  2  3  1  0  0  0  0
  3  4  1  0  0  0  0
  4  5  1  0  0  0  0
  5  6  1  0  0  0  0
  6  1  1  0  0  0  0
  4  7  1  0  0  0  0
  7  8  1  0  0  0  0
  8  9  1  0  0  0  0
  9 10  1  0  0  0  0
 10  5  1  0  0  0  0
  6 11  1  1  0  0  0
  5 12  1  1  0  0  0
  3 13  2  0  0  0  0
  4 14  1  6  0  0  0
  8 15  1  6  0  0  0
 15 16  1  0  0  0  0
 15 17  1  0  0  0  0
 15 18  1  0  0  0  0
 19 20  1  0  0  0  0
 20 21  1  0  0  0  0
 21 22  1  0  0  0  0
 22 23  1  0  0  0  0
 23 24  1  0  0  0  0
 24 19  1  0  0  0  0
 19 25  1  1  0  0  0
 21 26  1  1  0  0  0
 20 27  1  6  0  0  0
 22 28  1  6  0  0  0
 25 29  1  0  0  0  0
 23 18  1  1  0  0  0
M  END
>  <cdx:fragmentId>
235

$$$$
