302095.cdx
  Mrv1902 05222410232D          

 32 36  0  0  0  0            999 V2000
    9.7132   -5.5031    0.0000 O   0  0  0  0  0  0  0  0  0  0  0  0
   10.1981   -4.8356    0.0000 C   0  0  0  0  0  0  0  0  0  0  0  0
    9.7132   -4.1682    0.0000 O   0  0  0  0  0  0  0  0  0  0  0  0
    8.9286   -4.4231    0.0000 C   0  0  0  0  0  0  0  0  0  0  0  0
    8.9286   -5.2481    0.0000 C   0  0  0  0  0  0  0  0  0  0  0  0
    8.2141   -4.0106    0.0000 C   0  0  0  0  0  0  0  0  0  0  0  0
    7.4996   -4.4231    0.0000 C   0  0  0  0  0  0  0  0  0  0  0  0
    7.4996   -5.2481    0.0000 C   0  0  0  0  0  0  0  0  0  0  0  0
    8.2141   -5.6606    0.0000 C   0  0  0  0  0  0  0  0  0  0  0  0
    4.8012   -4.8356    0.0000 O   0  0  0  0  0  0  0  0  0  0  0  0
    5.2861   -5.5031    0.0000 C   0  0  0  0  0  0  0  0  0  0  0  0
    6.0707   -5.2481    0.0000 C   0  0  2  0  0  0  0  0  0  0  0  0
    6.0707   -4.4231    0.0000 C   0  0  2  0  0  0  0  0  0  0  0  0
    5.2861   -4.1682    0.0000 C   0  0  0  0  0  0  0  0  0  0  0  0
    6.7852   -4.0106    0.0000 C   0  0  0  0  0  0  0  0  0  0  0  0
    6.7852   -5.6606    0.0000 C   0  0  2  0  0  0  0  0  0  0  0  0
    6.7852   -3.1856    0.0000 O   0  0  0  0  0  0  0  0  0  0  0  0
    5.0311   -6.2877    0.0000 O   0  0  0  0  0  0  0  0  0  0  0  0
    6.7852   -6.4856    0.0000 C   0  0  0  0  0  0  0  0  0  0  0  0
    7.4996   -6.8981    0.0000 C   0  0  0  0  0  0  0  0  0  0  0  0
    7.4996   -7.7231    0.0000 C   0  0  0  0  0  0  0  0  0  0  0  0
    6.7852   -8.1356    0.0000 C   0  0  0  0  0  0  0  0  0  0  0  0
    6.0707   -7.7231    0.0000 C   0  0  0  0  0  0  0  0  0  0  0  0
    6.0707   -6.8981    0.0000 C   0  0  0  0  0  0  0  0  0  0  0  0
    5.3562   -8.1356    0.0000 O   0  0  0  0  0  0  0  0  0  0  0  0
    4.6418   -7.7231    0.0000 C   0  0  0  0  0  0  0  0  0  0  0  0
    6.7852   -8.9606    0.0000 O   0  0  0  0  0  0  0  0  0  0  0  0
    6.0707   -9.3731    0.0000 C   0  0  0  0  0  0  0  0  0  0  0  0
    8.2141   -8.1356    0.0000 O   0  0  0  0  0  0  0  0  0  0  0  0
    8.9286   -7.7231    0.0000 C   0  0  0  0  0  0  0  0  0  0  0  0
    5.9845   -3.6027    0.0000 H   0  0  0  0  0  0  0  0  0  0  0  0
    5.9845   -6.0686    0.0000 H   0  0  0  0  0  0  0  0  0  0  0  0
  1  2  1  0  0  0  0
  2  3  1  0  0  0  0
  3  4  1  0  0  0  0
  4  5  1  0  0  0  0
  1  5  1  0  0  0  0
  6  7  1  0  0  0  0
  7  8  2  0  0  0  0
  8  9  1  0  0  0  0
  9  5  2  0  0  0  0
  6  4  2  0  0  0  0
 10 11  1  0  0  0  0
 11 12  1  0  0  0  0
 12 13  1  0  0  0  0
 13 14  1  0  0  0  0
 10 14  1  0  0  0  0
 16 12  1  0  0  0  0
 15 13  1  0  0  0  0
 15  7  1  0  0  0  0
 16  8  1  0  0  0  0
 15 17  2  0  0  0  0
 11 18  2  0  0  0  0
 19 20  1  0  0  0  0
 20 21  2  0  0  0  0
 21 22  1  0  0  0  0
 22 23  2  0  0  0  0
 23 24  1  0  0  0  0
 19 24  2  0  0  0  0
 25 26  1  0  0  0  0
 23 25  1  0  0  0  0
 27 28  1  0  0  0  0
 22 27  1  0  0  0  0
 29 30  1  0  0  0  0
 21 29  1  0  0  0  0
 16 19  1  1  0  0  0
 13 31  1  1  0  0  0
 12 32  1  1  0  0  0
M  END
>  <cdx:groupId>
2436

>  <cdx:fragmentId>
2339

$$$$
