302040.cdx
  Mrv1902 05222410242D          

 20 23  0  0  0  0            999 V2000
    9.5069   -4.6754    0.0000 C   0  0  0  0  0  0  0  0  0  0  0  0
    9.5069   -3.8504    0.0000 O   0  0  0  0  0  0  0  0  0  0  0  0
    8.8395   -5.9853    0.0000 O   0  0  0  0  0  0  0  0  0  0  0  0
    8.8395   -5.1603    0.0000 C   0  0  0  0  0  0  0  0  0  0  0  0
    8.0549   -4.9053    0.0000 C   0  0  0  0  0  0  0  0  0  0  0  0
    7.5699   -5.5728    0.0000 C   0  0  0  0  0  0  0  0  0  0  0  0
    8.0549   -6.2402    0.0000 C   0  0  0  0  0  0  0  0  0  0  0  0
    6.3255   -6.7114    0.0000 N   0  0  0  0  0  0  0  0  0  0  0  0
    6.9930   -7.1964    0.0000 C   0  0  0  0  0  0  0  0  0  0  0  0
    6.7380   -7.9810    0.0000 C   0  0  0  0  0  0  0  0  0  0  0  0
    5.9130   -7.9810    0.0000 C   0  0  0  0  0  0  0  0  0  0  0  0
    5.3610   -8.5941    0.0000 C   0  0  0  0  0  0  0  0  0  0  0  0
    4.5540   -8.4226    0.0000 C   0  0  0  0  0  0  0  0  0  0  0  0
    4.2991   -7.6379    0.0000 C   0  0  0  0  0  0  0  0  0  0  0  0
    4.8511   -7.0248    0.0000 C   0  0  0  0  0  0  0  0  0  0  0  0
    5.6581   -7.1964    0.0000 C   0  0  0  0  0  0  0  0  0  0  0  0
    7.7999   -7.0248    0.0000 C   0  0  0  0  0  0  0  0  0  0  0  0
    7.2901   -8.5941    0.0000 C   0  0  0  0  0  0  0  0  0  0  0  0
    8.0970   -8.4226    0.0000 C   0  0  0  0  0  0  0  0  0  0  0  0
    8.3520   -7.6379    0.0000 N   0  0  0  0  0  0  0  0  0  0  0  0
  1  2  1  0  0  0  0
  3  4  1  0  0  0  0
  4  5  2  0  0  0  0
  5  6  1  0  0  0  0
  6  7  2  0  0  0  0
  3  7  1  0  0  0  0
  8  9  1  0  0  0  0
  9 10  2  0  0  0  0
 10 11  1  0  0  0  0
 11 12  1  0  0  0  0
 12 13  2  0  0  0  0
 13 14  1  0  0  0  0
 14 15  2  0  0  0  0
 15 16  1  0  0  0  0
  8 16  1  0  0  0  0
 11 16  2  0  0  0  0
 18 19  2  0  0  0  0
 19 20  1  0  0  0  0
 17 20  2  0  0  0  0
 17  9  1  0  0  0  0
 18 10  1  0  0  0  0
  7 17  1  0  0  0  0
  1  4  1  0  0  0  0
M  END
>  <cdx:groupId>
1352

>  <cdx:fragmentId>
1306

$$$$
