302099.cdx
  Mrv1902 05222410232D          

 38 41  0  0  0  0            999 V2000
    9.8251   -8.7397    0.0000 C   0  0  0  0  0  0  0  0  0  0  0  0
   10.5395   -9.1522    0.0000 C   0  0  0  0  0  0  0  0  0  0  0  0
   11.2540   -8.7397    0.0000 C   0  0  0  0  0  0  0  0  0  0  0  0
    9.1106   -9.1522    0.0000 O   0  0  0  0  0  0  0  0  0  0  0  0
   10.5395   -9.9772    0.0000 C   0  0  0  0  0  0  0  0  0  0  0  0
    9.8251   -7.9147    0.0000 C   0  0  0  0  0  0  0  0  0  0  0  0
    9.1106   -7.5022    0.0000 C   0  0  0  0  0  0  0  0  0  0  0  0
    9.1106   -6.6772    0.0000 C   0  0  0  0  0  0  0  0  0  0  0  0
    9.8251   -6.2647    0.0000 C   0  0  0  0  0  0  0  0  0  0  0  0
   10.5395   -6.6772    0.0000 C   0  0  0  0  0  0  0  0  0  0  0  0
   10.5395   -7.5022    0.0000 C   0  0  0  0  0  0  0  0  0  0  0  0
   11.2540   -6.2647    0.0000 C   0  0  0  0  0  0  0  0  0  0  0  0
   11.2540   -7.9147    0.0000 O   0  0  0  0  0  0  0  0  0  0  0  0
   11.9685   -7.5022    0.0000 C   0  0  0  0  0  0  0  0  0  0  0  0
    9.8251   -5.4397    0.0000 O   0  0  0  0  0  0  0  0  0  0  0  0
    8.3961   -7.9147    0.0000 O   0  0  0  0  0  0  0  0  0  0  0  0
    8.1818   -6.1410    0.0000 C   0  0  0  0  0  0  0  0  0  0  0  0
    6.0384   -4.6560    0.0000 C   0  0  2  0  0  0  0  0  0  0  0  0
    6.0384   -3.8310    0.0000 C   0  0  2  0  0  0  0  0  0  0  0  0
    6.7528   -3.4185    0.0000 C   0  0  0  0  0  0  0  0  0  0  0  0
    7.4673   -3.8310    0.0000 C   0  0  0  0  0  0  0  0  0  0  0  0
    8.1818   -3.4185    0.0000 C   0  0  0  0  0  0  0  0  0  0  0  0
    8.8963   -3.8310    0.0000 C   0  0  0  0  0  0  0  0  0  0  0  0
    8.8963   -4.6560    0.0000 C   0  0  0  0  0  0  0  0  0  0  0  0
    8.1818   -5.0685    0.0000 C   0  0  0  0  0  0  0  0  0  0  0  0
    7.4673   -4.6560    0.0000 C   0  0  0  0  0  0  0  0  0  0  0  0
    6.7528   -5.0685    0.0000 O   0  0  0  0  0  0  0  0  0  0  0  0
    9.6107   -5.0685    0.0000 O   0  0  0  0  0  0  0  0  0  0  0  0
    8.1818   -2.5935    0.0000 O   0  0  0  0  0  0  0  0  0  0  0  0
    5.3239   -3.4185    0.0000 O   0  0  0  0  0  0  0  0  0  0  0  0
    5.3239   -5.0685    0.0000 C   0  0  0  0  0  0  0  0  0  0  0  0
    4.6094   -4.6560    0.0000 C   0  0  0  0  0  0  0  0  0  0  0  0
    3.8950   -5.0685    0.0000 C   0  0  0  0  0  0  0  0  0  0  0  0
    3.8950   -5.8935    0.0000 C   0  0  0  0  0  0  0  0  0  0  0  0
    4.6094   -6.3060    0.0000 C   0  0  0  0  0  0  0  0  0  0  0  0
    5.3239   -5.8935    0.0000 C   0  0  0  0  0  0  0  0  0  0  0  0
    3.1805   -6.3060    0.0000 O   0  0  0  0  0  0  0  0  0  0  0  0
    3.1805   -4.6560    0.0000 O   0  0  0  0  0  0  0  0  0  0  0  0
  1  2  1  0  0  0  0
  2  3  1  0  0  0  0
  1  4  2  0  0  0  0
  2  5  1  0  0  0  0
  6  7  1  0  0  0  0
  7  8  2  0  0  0  0
  8  9  1  0  0  0  0
  9 10  2  0  0  0  0
 10 11  1  0  0  0  0
  6 11  2  0  0  0  0
 10 12  1  0  0  0  0
 13 14  1  0  0  0  0
 11 13  1  0  0  0  0
  9 15  1  0  0  0  0
  7 16  1  0  0  0  0
 18 19  1  0  0  0  0
 19 20  1  0  0  0  0
 20 21  1  0  0  0  0
 21 22  1  0  0  0  0
 22 23  2  0  0  0  0
 23 24  1  0  0  0  0
 24 25  2  0  0  0  0
 25 26  1  0  0  0  0
 21 26  2  0  0  0  0
 26 27  1  0  0  0  0
 18 27  1  0  0  0  0
 24 28  1  0  0  0  0
 22 29  1  0  0  0  0
 19 30  1  1  0  0  0
 31 32  1  0  0  0  0
 32 33  2  0  0  0  0
 33 34  1  0  0  0  0
 34 35  2  0  0  0  0
 35 36  1  0  0  0  0
 31 36  2  0  0  0  0
 34 37  1  0  0  0  0
 33 38  1  0  0  0  0
 18 31  1  6  0  0  0
 17 25  1  0  0  0  0
  8 17  1  0  0  0  0
  1  6  1  0  0  0  0
M  END
>  <cdx:groupId>
3075

>  <cdx:fragmentId>
2995

$$$$
