302068.cdx
  Mrv1902 05222410212D          

 33 35  0  0  0  0            999 V2000
    7.6192   -6.3731    0.0000 C   0  0  1  0  0  0  0  0  0  0  0  0
    8.3336   -5.9606    0.0000 C   0  0  1  0  0  0  0  0  0  0  0  0
    8.3336   -5.1356    0.0000 C   0  0  1  0  0  0  0  0  0  0  0  0
    7.6192   -4.7231    0.0000 C   0  0  0  0  0  0  0  0  0  0  0  0
    6.9047   -5.1356    0.0000 C   0  0  0  0  0  0  0  0  0  0  0  0
    6.9047   -5.9606    0.0000 O   0  0  0  0  0  0  0  0  0  0  0  0
    9.1182   -4.8807    0.0000 C   0  0  1  0  0  0  0  0  0  0  0  0
    9.6032   -5.5481    0.0000 C   0  0  0  0  0  0  0  0  0  0  0  0
    9.1182   -6.2156    0.0000 C   0  0  1  0  0  0  0  0  0  0  0  0
    7.6192   -3.8981    0.0000 C   0  0  0  0  0  0  0  0  0  0  0  0
    8.3336   -3.4856    0.0000 O   0  0  0  0  0  0  0  0  0  0  0  0
    6.9047   -3.4856    0.0000 O   0  0  0  0  0  0  0  0  0  0  0  0
    7.6192   -7.1981    0.0000 O   0  0  0  0  0  0  0  0  0  0  0  0
    6.1902   -7.1981    0.0000 O   0  0  0  0  0  0  0  0  0  0  0  0
    6.9047   -7.6106    0.0000 C   0  0  2  0  0  0  0  0  0  0  0  0
    6.9047   -8.4356    0.0000 C   0  0  1  0  0  0  0  0  0  0  0  0
    6.1902   -8.8481    0.0000 C   0  0  2  0  0  0  0  0  0  0  0  0
    5.4757   -8.4356    0.0000 C   0  0  1  0  0  0  0  0  0  0  0  0
    5.4757   -7.6106    0.0000 C   0  0  1  0  0  0  0  0  0  0  0  0
    4.7613   -7.1981    0.0000 C   0  0  0  0  0  0  0  0  0  0  0  0
    4.0468   -7.6106    0.0000 O   0  0  0  0  0  0  0  0  0  0  0  0
    4.7613   -8.8481    0.0000 O   0  0  0  0  0  0  0  0  0  0  0  0
    6.1902   -9.6731    0.0000 O   0  0  0  0  0  0  0  0  0  0  0  0
    7.6192   -8.8481    0.0000 O   0  0  0  0  0  0  0  0  0  0  0  0
    8.9467   -7.0225    0.0000 C   0  0  0  0  0  0  0  0  0  0  0  0
    9.3732   -4.0961    0.0000 O   0  0  0  0  0  0  0  0  0  0  0  0
    8.4199   -4.3151    0.0000 O   0  0  0  0  0  0  0  0  0  0  0  0
    9.7313   -6.7676    0.0000 O   0  0  0  0  0  0  0  0  0  0  0  0
   10.5160   -6.5127    0.0000 C   0  0  0  0  0  0  0  0  0  0  0  0
   10.7295   -5.7158    0.0000 O   0  0  0  0  0  0  0  0  0  0  0  0
   11.0993   -7.0960    0.0000 C   0  0  0  0  0  0  0  0  0  0  0  0
    8.4199   -6.7811    0.0000 H   0  0  0  0  0  0  0  0  0  0  0  0
    6.9047   -2.6606    0.0000 C   0  0  0  0  0  0  0  0  0  0  0  0
  1  2  1  0  0  0  0
  2  3  1  0  0  0  0
  3  4  1  0  0  0  0
  4  5  2  0  0  0  0
  5  6  1  0  0  0  0
  1  6  1  0  0  0  0
  7  8  1  0  0  0  0
  8  9  1  0  0  0  0
  9  2  1  0  0  0  0
  7  3  1  0  0  0  0
 10 11  2  0  0  0  0
 10 12  1  0  0  0  0
  4 10  1  0  0  0  0
 14 15  1  0  0  0  0
 15 16  1  0  0  0  0
 16 17  1  0  0  0  0
 17 18  1  0  0  0  0
 18 19  1  0  0  0  0
 14 19  1  0  0  0  0
 20 21  1  0  0  0  0
 19 20  1  1  0  0  0
 18 22  1  6  0  0  0
 17 23  1  1  0  0  0
 16 24  1  6  0  0  0
 15 13  1  1  0  0  0
  1 13  1  6  0  0  0
  9 25  1  1  0  0  0
  7 26  1  6  0  0  0
  3 27  1  6  0  0  0
 29 30  2  0  0  0  0
 29 31  1  0  0  0  0
 28 29  1  0  0  0  0
  9 28  1  6  0  0  0
  2 32  1  6  0  0  0
 12 33  1  0  0  0  0
M  END
>  <cdx:groupId>
1284

>  <cdx:fragmentId>
1186

$$$$
