302015.cdx
  Mrv1902 05222410182D          

 16 18  0  0  0  0            999 V2000
    5.5173   -6.4241    0.0000 C   0  0  0  0  0  0  0  0  0  0  0  0
    8.9646   -7.1330    0.0000 C   0  0  0  0  0  0  0  0  0  0  0  0
    8.8416   -5.3363    0.0000 C   0  0  0  0  0  0  0  0  0  0  0  0
    8.8658   -6.1609    0.0000 C   0  0  0  0  0  0  0  0  0  0  0  0
    6.1945   -5.0558    0.0000 O   0  0  0  0  0  0  0  0  0  0  0  0
    8.1395   -5.7696    0.0000 C   0  0  0  0  0  0  0  0  0  0  0  0
    8.4312   -6.5036    0.0000 C   0  0  0  0  0  0  0  0  0  0  0  0
    8.7669   -5.7499    0.0000 C   0  0  0  0  0  0  0  0  0  0  0  0
    8.3869   -5.0176    0.0000 C   0  0  0  0  0  0  0  0  0  0  0  0
    7.5775   -4.8581    0.0000 C   0  0  0  0  0  0  0  0  0  0  0  0
    6.9481   -5.3914    0.0000 C   0  0  0  0  0  0  0  0  0  0  0  0
    6.9727   -6.2161    0.0000 C   0  0  0  0  0  0  0  0  0  0  0  0
    6.2980   -6.6909    0.0000 C   0  0  0  0  0  0  0  0  0  0  0  0
    6.5410   -7.4792    0.0000 C   0  0  0  0  0  0  0  0  0  0  0  0
    7.3659   -7.4917    0.0000 C   0  0  0  0  0  0  0  0  0  0  0  0
    7.6327   -6.7110    0.0000 C   0  0  0  0  0  0  0  0  0  0  0  0
 13  1  1  0  0  0  0
  7  2  1  0  0  0  0
  6  3  1  0  0  0  0
  6  4  1  0  0  0  0
 11  5  2  0  0  0  0
 16 12  1  0  0  0  0
  6 10  1  0  0  0  0
 16  6  1  0  0  0  0
 16  7  1  0  0  0  0
  8  7  1  0  0  0  0
  9  8  1  0  0  0  0
 10  9  1  0  0  0  0
 11 10  1  0  0  0  0
 12 11  1  0  0  0  0
 13 12  2  0  0  0  0
 14 13  1  0  0  0  0
 15 14  1  0  0  0  0
 16 15  1  0  0  0  0
M  END
>  <cdx:fragmentId>
5

$$$$
