302047.cdx
  Mrv1902 05222410262D          

 25 27  0  0  0  0            999 V2000
    6.2944   -4.9856    0.0000 C   0  0  0  0  0  0  0  0  0  0  0  0
    6.2870   -4.1606    0.0000 C   0  0  0  0  0  0  0  0  0  0  0  0
    5.5689   -3.7545    0.0000 C   0  0  0  0  0  0  0  0  0  0  0  0
    4.8582   -4.1733    0.0000 C   0  0  0  0  0  0  0  0  0  0  0  0
    5.5836   -5.4044    0.0000 O   0  0  0  0  0  0  0  0  0  0  0  0
    7.0125   -5.3917    0.0000 O   0  0  0  0  0  0  0  0  0  0  0  0
    6.3165   -7.4605    0.0000 C   0  0  0  0  0  0  0  0  0  0  0  0
    6.3091   -6.6355    0.0000 C   0  0  2  0  0  0  0  0  0  0  0  0
    7.0199   -6.2166    0.0000 C   0  0  2  0  0  0  0  0  0  0  0  0
    7.7380   -6.6227    0.0000 C   0  0  0  0  0  0  0  0  0  0  0  0
    8.4488   -6.2039    0.0000 C   0  0  0  0  0  0  0  0  0  0  0  0
    9.1669   -6.6100    0.0000 C   0  0  0  0  0  0  0  0  0  0  0  0
    9.1742   -7.4350    0.0000 C   0  0  0  0  0  0  0  0  0  0  0  0
    8.4635   -7.8538    0.0000 C   0  0  0  0  0  0  0  0  0  0  0  0
    7.7454   -7.4477    0.0000 C   0  0  0  0  0  0  0  0  0  0  0  0
    7.0346   -7.8666    0.0000 O   0  0  0  0  0  0  0  0  0  0  0  0
    9.8776   -6.1911    0.0000 C   0  0  0  0  0  0  0  0  0  0  0  0
    9.8703   -5.3662    0.0000 C   0  0  0  0  0  0  0  0  0  0  0  0
    9.1522   -4.9601    0.0000 C   0  0  0  0  0  0  0  0  0  0  0  0
    8.4414   -5.3789    0.0000 O   0  0  0  0  0  0  0  0  0  0  0  0
    9.1448   -4.1351    0.0000 O   0  0  0  0  0  0  0  0  0  0  0  0
    5.9104   -8.1786    0.0000 C   0  0  0  0  0  0  0  0  0  0  0  0
    5.4915   -7.4678    0.0000 C   0  0  0  0  0  0  0  0  0  0  0  0
    5.5910   -6.2294    0.0000 O   0  0  0  0  0  0  0  0  0  0  0  0
    5.5616   -2.9295    0.0000 C   0  0  0  0  0  0  0  0  0  0  0  0
  1  2  1  0  0  0  0
  2  3  2  0  0  0  0
  3  4  1  0  0  0  0
  1  5  2  0  0  0  0
  1  6  1  0  0  0  0
  7  8  1  0  0  0  0
  8  9  1  0  0  0  0
  9 10  1  0  0  0  0
 10 11  1  0  0  0  0
 11 12  2  0  0  0  0
 12 13  1  0  0  0  0
 13 14  2  0  0  0  0
 14 15  1  0  0  0  0
 10 15  2  0  0  0  0
 15 16  1  0  0  0  0
  7 16  1  0  0  0  0
 17 18  2  0  0  0  0
 18 19  1  0  0  0  0
 19 20  1  0  0  0  0
 20 11  1  0  0  0  0
 17 12  1  0  0  0  0
 19 21  2  0  0  0  0
  7 22  1  0  0  0  0
  7 23  1  0  0  0  0
  8 24  1  1  0  0  0
  9  6  1  1  0  0  0
  3 25  1  0  0  0  0
M  END
>  <cdx:fragmentId>
185274

$$$$
