302059.cdx
  Mrv1902 05222410222D          

 15 15  0  0  0  0            999 V2000
    7.4250   -6.9919    0.0000 C   0  0  0  0  0  0  0  0  0  0  0  0
    6.7105   -6.5794    0.0000 C   0  0  0  0  0  0  0  0  0  0  0  0
    6.7105   -5.7544    0.0000 C   0  0  0  0  0  0  0  0  0  0  0  0
    7.4250   -5.3419    0.0000 C   0  0  0  0  0  0  0  0  0  0  0  0
    8.1395   -5.7544    0.0000 C   0  0  0  0  0  0  0  0  0  0  0  0
    8.1395   -6.5794    0.0000 C   0  0  0  0  0  0  0  0  0  0  0  0
    7.4250   -7.8169    0.0000 O   0  0  0  0  0  0  0  0  0  0  0  0
    8.8539   -5.3419    0.0000 C   0  0  0  0  0  0  0  0  0  0  0  0
    9.5684   -4.9294    0.0000 C   0  0  0  0  0  0  0  0  0  0  0  0
    5.9961   -5.3419    0.0000 C   0  0  0  0  0  0  0  0  0  0  0  0
    5.2816   -4.9294    0.0000 C   0  0  0  0  0  0  0  0  0  0  0  0
    6.4086   -4.6274    0.0000 C   0  0  0  0  0  0  0  0  0  0  0  0
    5.5836   -6.0563    0.0000 C   0  0  0  0  0  0  0  0  0  0  0  0
    8.4414   -4.6274    0.0000 C   0  0  0  0  0  0  0  0  0  0  0  0
    9.2664   -6.0563    0.0000 C   0  0  0  0  0  0  0  0  0  0  0  0
  1  2  1  0  0  0  0
  2  3  2  0  0  0  0
  3  4  1  0  0  0  0
  4  5  2  0  0  0  0
  5  6  1  0  0  0  0
  1  6  2  0  0  0  0
  1  7  1  0  0  0  0
  8  9  1  0  0  0  0
  5  8  1  0  0  0  0
 10 11  1  0  0  0  0
  3 10  1  0  0  0  0
 10 12  1  0  0  0  0
 10 13  1  0  0  0  0
  8 14  1  0  0  0  0
  8 15  1  0  0  0  0
M  END
>  <cdx:fragmentId>
561

$$$$
