302067.cdx
  Mrv1902 05222410202D          

 34 36  0  0  0  0            999 V2000
    7.8067   -6.3731    0.0000 C   0  0  1  0  0  0  0  0  0  0  0  0
    8.5211   -5.9606    0.0000 C   0  0  1  0  0  0  0  0  0  0  0  0
    8.5211   -5.1356    0.0000 C   0  0  1  0  0  0  0  0  0  0  0  0
    7.8067   -4.7231    0.0000 C   0  0  0  0  0  0  0  0  0  0  0  0
    7.0922   -5.1356    0.0000 C   0  0  0  0  0  0  0  0  0  0  0  0
    7.0922   -5.9606    0.0000 O   0  0  0  0  0  0  0  0  0  0  0  0
    9.3058   -4.8807    0.0000 C   0  0  1  0  0  0  0  0  0  0  0  0
    9.7907   -5.5481    0.0000 C   0  0  1  0  0  0  0  0  0  0  0  0
    9.3058   -6.2156    0.0000 C   0  0  1  0  0  0  0  0  0  0  0  0
    7.8067   -3.8981    0.0000 C   0  0  0  0  0  0  0  0  0  0  0  0
    8.5211   -3.4856    0.0000 O   0  0  0  0  0  0  0  0  0  0  0  0
    7.0922   -3.4856    0.0000 O   0  0  0  0  0  0  0  0  0  0  0  0
    9.1342   -7.0225    0.0000 C   0  0  0  0  0  0  0  0  0  0  0  0
    9.9189   -6.7676    0.0000 O   0  0  0  0  0  0  0  0  0  0  0  0
   10.6157   -5.5481    0.0000 O   0  0  0  0  0  0  0  0  0  0  0  0
    9.5607   -4.0961    0.0000 O   0  0  0  0  0  0  0  0  0  0  0  0
    7.8067   -7.1981    0.0000 O   0  0  0  0  0  0  0  0  0  0  0  0
    6.3777   -7.1981    0.0000 O   0  0  0  0  0  0  0  0  0  0  0  0
    7.0922   -7.6106    0.0000 C   0  0  2  0  0  0  0  0  0  0  0  0
    7.0922   -8.4356    0.0000 C   0  0  1  0  0  0  0  0  0  0  0  0
    6.3777   -8.8481    0.0000 C   0  0  2  0  0  0  0  0  0  0  0  0
    5.6633   -8.4356    0.0000 C   0  0  1  0  0  0  0  0  0  0  0  0
    5.6633   -7.6106    0.0000 C   0  0  1  0  0  0  0  0  0  0  0  0
    4.9488   -7.1981    0.0000 C   0  0  0  0  0  0  0  0  0  0  0  0
    4.2343   -7.6106    0.0000 O   0  0  0  0  0  0  0  0  0  0  0  0
    4.9488   -8.8481    0.0000 O   0  0  0  0  0  0  0  0  0  0  0  0
    6.3777   -9.6731    0.0000 O   0  0  0  0  0  0  0  0  0  0  0  0
    7.8067   -8.8481    0.0000 O   0  0  0  0  0  0  0  0  0  0  0  0
    8.5211   -8.4356    0.0000 C   0  0  0  0  0  0  0  0  0  0  0  0
    8.5211   -7.6106    0.0000 O   0  0  0  0  0  0  0  0  0  0  0  0
    9.2356   -8.8481    0.0000 C   0  0  0  0  0  0  0  0  0  0  0  0
    8.6074   -4.3151    0.0000 H   0  0  0  0  0  0  0  0  0  0  0  0
    8.6074   -6.7811    0.0000 H   0  0  0  0  0  0  0  0  0  0  0  0
    7.0922   -2.6606    0.0000 C   0  0  0  0  0  0  0  0  0  0  0  0
  1  2  1  0  0  0  0
  2  3  1  0  0  0  0
  3  4  1  0  0  0  0
  4  5  2  0  0  0  0
  5  6  1  0  0  0  0
  1  6  1  0  0  0  0
  7  8  1  0  0  0  0
  8  9  1  0  0  0  0
  9  2  1  0  0  0  0
  7  3  1  0  0  0  0
 10 11  2  0  0  0  0
 10 12  1  0  0  0  0
  4 10  1  0  0  0  0
  9 13  1  1  0  0  0
  9 14  1  6  0  0  0
  8 15  1  6  0  0  0
  7 16  1  6  0  0  0
 18 19  1  0  0  0  0
 19 20  1  0  0  0  0
 20 21  1  0  0  0  0
 21 22  1  0  0  0  0
 22 23  1  0  0  0  0
 18 23  1  0  0  0  0
 24 25  1  0  0  0  0
 23 24  1  1  0  0  0
 22 26  1  6  0  0  0
 21 27  1  1  0  0  0
 29 30  2  0  0  0  0
 29 31  1  0  0  0  0
 28 29  1  0  0  0  0
 20 28  1  6  0  0  0
 19 17  1  1  0  0  0
  1 17  1  6  0  0  0
  3 32  1  6  0  0  0
  2 33  1  6  0  0  0
 12 34  1  0  0  0  0
M  END
>  <cdx:groupId>
1173

>  <cdx:fragmentId>
1072

$$$$
