302069.cdx
  Mrv1902 05222410242D          

 36 37  0  0  0  0            999 V2000
   17.2559   -9.3280    0.0000 C   0  0  0  0  0  0  0  0  0  0  0  0
   17.2559   -8.5030    0.0000 C   0  0  0  0  0  0  0  0  0  0  0  0
   17.9704   -8.0905    0.0000 C   0  0  0  0  0  0  0  0  0  0  0  0
   18.6848   -8.5030    0.0000 C   0  0  0  0  0  0  0  0  0  0  0  0
   18.6848   -9.3280    0.0000 C   0  0  0  0  0  0  0  0  0  0  0  0
   17.9704   -9.7405    0.0000 O   0  0  0  0  0  0  0  0  0  0  0  0
   17.9704   -7.2655    0.0000 O   0  0  0  0  0  0  0  0  0  0  0  0
   16.5414   -8.0905    0.0000 O   0  0  0  0  0  0  0  0  0  0  0  0
   15.1125   -8.0905    0.0000 O   0  0  0  0  0  0  0  0  0  0  0  0
   15.8269   -8.5030    0.0000 C   0  0  2  0  0  0  0  0  0  0  0  0
   15.8269   -9.3280    0.0000 C   0  0  1  0  0  0  0  0  0  0  0  0
   15.1125   -9.7405    0.0000 C   0  0  2  0  0  0  0  0  0  0  0  0
   14.3980   -9.3280    0.0000 C   0  0  1  0  0  0  0  0  0  0  0  0
   14.3980   -8.5030    0.0000 C   0  0  1  0  0  0  0  0  0  0  0  0
   13.6835   -8.0905    0.0000 C   0  0  0  0  0  0  0  0  0  0  0  0
   12.9691   -8.5030    0.0000 O   0  0  0  0  0  0  0  0  0  0  0  0
   13.6835   -9.7405    0.0000 O   0  0  0  0  0  0  0  0  0  0  0  0
   15.1125  -10.5655    0.0000 O   0  0  0  0  0  0  0  0  0  0  0  0
   16.5414   -9.7405    0.0000 O   0  0  0  0  0  0  0  0  0  0  0  0
   12.2392   -8.0894    0.0000 C   0  0  0  0  0  0  0  0  0  0  0  0
   11.5247   -8.5019    0.0000 C   0  0  0  0  0  0  0  0  0  0  0  0
   10.8103   -8.0894    0.0000 C   0  0  0  0  0  0  0  0  0  0  0  0
   10.0958   -8.5019    0.0000 C   0  0  0  0  0  0  0  0  0  0  0  0
    9.3813   -8.0894    0.0000 C   0  0  0  0  0  0  0  0  0  0  0  0
    8.6668   -8.5019    0.0000 C   0  0  0  0  0  0  0  0  0  0  0  0
    7.9524   -8.0894    0.0000 C   0  0  0  0  0  0  0  0  0  0  0  0
    7.2379   -8.5019    0.0000 C   0  0  0  0  0  0  0  0  0  0  0  0
    6.5234   -8.0894    0.0000 C   0  0  0  0  0  0  0  0  0  0  0  0
    5.8090   -8.5019    0.0000 C   0  0  0  0  0  0  0  0  0  0  0  0
    5.0945   -8.0894    0.0000 C   0  0  0  0  0  0  0  0  0  0  0  0
    4.3800   -8.5019    0.0000 C   0  0  0  0  0  0  0  0  0  0  0  0
    3.6655   -8.0894    0.0000 C   0  0  0  0  0  0  0  0  0  0  0  0
    2.9511   -8.5019    0.0000 C   0  0  0  0  0  0  0  0  0  0  0  0
    2.2366   -8.0894    0.0000 C   0  0  0  0  0  0  0  0  0  0  0  0
    1.5221   -8.5019    0.0000 C   0  0  0  0  0  0  0  0  0  0  0  0
   12.2392   -7.2644    0.0000 O   0  0  0  0  0  0  0  0  0  0  0  0
  1  2  2  0  0  0  0
  2  3  1  0  0  0  0
  3  4  1  0  0  0  0
  4  5  2  0  0  0  0
  5  6  1  0  0  0  0
  1  6  1  0  0  0  0
  3  7  2  0  0  0  0
  9 10  1  0  0  0  0
 10 11  1  0  0  0  0
 11 12  1  0  0  0  0
 12 13  1  0  0  0  0
 13 14  1  0  0  0  0
  9 14  1  0  0  0  0
 15 16  1  0  0  0  0
 14 15  1  1  0  0  0
 13 17  1  6  0  0  0
 12 18  1  1  0  0  0
 11 19  1  6  0  0  0
 10  8  1  1  0  0  0
  2  8  1  0  0  0  0
 20 21  1  0  0  0  0
 21 22  1  0  0  0  0
 22 23  1  0  0  0  0
 23 24  1  0  0  0  0
 24 25  1  0  0  0  0
 25 26  1  0  0  0  0
 26 27  1  0  0  0  0
 27 28  1  0  0  0  0
 28 29  1  0  0  0  0
 29 30  1  0  0  0  0
 30 31  1  0  0  0  0
 31 32  1  0  0  0  0
 32 33  1  0  0  0  0
 33 34  1  0  0  0  0
 34 35  1  0  0  0  0
 20 36  2  0  0  0  0
 20 16  1  0  0  0  0
M  END
>  <cdx:fragmentId>
21

$$$$
