302051.cdx
  Mrv1902 05222410242D          

 23 24  0  0  0  0            999 V2000
    9.9447   -4.8238    0.0000 C   0  0  0  0  0  0  0  0  0  0  0  0
    9.2247   -5.2266    0.0000 C   0  0  0  0  0  0  0  0  0  0  0  0
    9.9558   -3.9988    0.0000 O   0  0  0  0  0  0  0  0  0  0  0  0
   10.6536   -5.2459    0.0000 O   0  0  0  0  0  0  0  0  0  0  0  0
    9.2136   -6.0515    0.0000 C   0  0  0  0  0  0  0  0  0  0  0  0
    8.4937   -6.4544    0.0000 C   0  0  0  0  0  0  0  0  0  0  0  0
    8.4826   -7.2793    0.0000 C   0  0  0  0  0  0  0  0  0  0  0  0
    9.1914   -7.7014    0.0000 C   0  0  0  0  0  0  0  0  0  0  0  0
    9.9114   -7.2985    0.0000 C   0  0  0  0  0  0  0  0  0  0  0  0
    9.9225   -6.4736    0.0000 C   0  0  0  0  0  0  0  0  0  0  0  0
    7.7848   -6.0323    0.0000 O   0  0  0  0  0  0  0  0  0  0  0  0
    6.3560   -6.0130    0.0000 O   0  0  0  0  0  0  0  0  0  0  0  0
    7.0649   -6.4351    0.0000 C   0  0  2  0  0  0  0  0  0  0  0  0
    7.0538   -7.2601    0.0000 C   0  0  1  0  0  0  0  0  0  0  0  0
    6.3338   -7.6629    0.0000 C   0  0  2  0  0  0  0  0  0  0  0  0
    5.6249   -7.2408    0.0000 C   0  0  1  0  0  0  0  0  0  0  0  0
    5.6360   -6.4159    0.0000 C   0  0  1  0  0  0  0  0  0  0  0  0
    4.9272   -5.9938    0.0000 C   0  0  0  0  0  0  0  0  0  0  0  0
    4.2072   -6.3966    0.0000 O   0  0  0  0  0  0  0  0  0  0  0  0
    4.9050   -7.6437    0.0000 O   0  0  0  0  0  0  0  0  0  0  0  0
    6.3227   -8.4878    0.0000 O   0  0  0  0  0  0  0  0  0  0  0  0
    7.7626   -7.6821    0.0000 O   0  0  0  0  0  0  0  0  0  0  0  0
   10.6202   -7.7206    0.0000 O   0  0  0  0  0  0  0  0  0  0  0  0
  1  2  1  0  0  0  0
  1  3  2  0  0  0  0
  1  4  1  0  0  0  0
  5  6  1  0  0  0  0
  6  7  2  0  0  0  0
  7  8  1  0  0  0  0
  8  9  2  0  0  0  0
  9 10  1  0  0  0  0
  5 10  2  0  0  0  0
 12 13  1  0  0  0  0
 13 14  1  0  0  0  0
 14 15  1  0  0  0  0
 15 16  1  0  0  0  0
 16 17  1  0  0  0  0
 12 17  1  0  0  0  0
 18 19  1  0  0  0  0
 17 18  1  1  0  0  0
 16 20  1  6  0  0  0
 15 21  1  1  0  0  0
 14 22  1  6  0  0  0
 13 11  1  1  0  0  0
  6 11  1  0  0  0  0
  9 23  1  0  0  0  0
  2  5  1  0  0  0  0
M  END
>  <cdx:fragmentId>
92

$$$$
