302034.cdx
  Mrv1902 05222410262D          

 13 12  0  0  0  0            999 V2000
    8.1395   -6.8491    0.0000 C   0  0  0  0  0  0  0  0  0  0  0  0
    8.8539   -7.2616    0.0000 C   0  0  0  0  0  0  0  0  0  0  0  0
    9.5684   -6.8491    0.0000 C   0  0  0  0  0  0  0  0  0  0  0  0
   10.2829   -7.2616    0.0000 C   0  0  0  0  0  0  0  0  0  0  0  0
   10.9974   -6.8491    0.0000 C   0  0  0  0  0  0  0  0  0  0  0  0
    8.1395   -6.0241    0.0000 O   0  0  0  0  0  0  0  0  0  0  0  0
    7.4250   -7.2616    0.0000 O   0  0  0  0  0  0  0  0  0  0  0  0
    6.7105   -6.8491    0.0000 C   0  0  0  0  0  0  0  0  0  0  0  0
    5.9961   -7.2616    0.0000 C   0  0  0  0  0  0  0  0  0  0  0  0
    5.2816   -6.8491    0.0000 C   0  0  0  0  0  0  0  0  0  0  0  0
    4.5671   -7.2616    0.0000 C   0  0  0  0  0  0  0  0  0  0  0  0
    3.8526   -6.8491    0.0000 C   0  0  0  0  0  0  0  0  0  0  0  0
    6.7105   -6.0241    0.0000 O   0  0  0  0  0  0  0  0  0  0  0  0
  1  2  1  0  0  0  0
  2  3  1  0  0  0  0
  3  4  1  0  0  0  0
  4  5  1  0  0  0  0
  1  6  2  0  0  0  0
  1  7  1  0  0  0  0
  8  9  1  0  0  0  0
  9 10  1  0  0  0  0
 10 11  1  0  0  0  0
 11 12  1  0  0  0  0
  8 13  2  0  0  0  0
  7  8  1  0  0  0  0
M  END
>  <cdx:groupId>
899

>  <cdx:fragmentId>
864

$$$$
