302052.cdx
  Mrv1902 05222410262D          

 19 21  0  0  0  0            999 V2000
    5.6890   -7.1899    0.0000 C   0  0  0  0  0  0  0  0  0  0  0  0
    5.6890   -8.0149    0.0000 C   0  0  0  0  0  0  0  0  0  0  0  0
    6.4035   -8.4274    0.0000 C   0  0  0  0  0  0  0  0  0  0  0  0
    7.1180   -8.0149    0.0000 C   0  0  0  0  0  0  0  0  0  0  0  0
    7.8324   -8.4274    0.0000 C   0  0  0  0  0  0  0  0  0  0  0  0
    8.5469   -8.0149    0.0000 C   0  0  0  0  0  0  0  0  0  0  0  0
    8.5469   -7.1899    0.0000 C   0  0  0  0  0  0  0  0  0  0  0  0
    7.8324   -6.7774    0.0000 C   0  0  0  0  0  0  0  0  0  0  0  0
    7.1180   -7.1899    0.0000 C   0  0  0  0  0  0  0  0  0  0  0  0
    6.4035   -6.7774    0.0000 O   0  0  0  0  0  0  0  0  0  0  0  0
    4.9745   -6.7774    0.0000 O   0  0  0  0  0  0  0  0  0  0  0  0
    8.2449   -5.2380    0.0000 O   0  0  0  0  0  0  0  0  0  0  0  0
    7.8324   -5.9524    0.0000 C   0  0  1  0  0  0  0  0  0  0  0  0
    7.4199   -5.2380    0.0000 C   0  0  1  0  0  0  0  0  0  0  0  0
    6.7055   -4.0005    0.0000 C   0  0  0  0  0  0  0  0  0  0  0  0
    6.7055   -4.8255    0.0000 C   0  0  0  0  0  0  0  0  0  0  0  0
    5.9910   -5.2380    0.0000 C   0  0  0  0  0  0  0  0  0  0  0  0
    9.2614   -6.7774    0.0000 O   0  0  0  0  0  0  0  0  0  0  0  0
    9.9758   -7.1899    0.0000 C   0  0  0  0  0  0  0  0  0  0  0  0
  1  2  1  0  0  0  0
  2  3  2  0  0  0  0
  3  4  1  0  0  0  0
  4  5  1  0  0  0  0
  5  6  2  0  0  0  0
  6  7  1  0  0  0  0
  7  8  2  0  0  0  0
  8  9  1  0  0  0  0
  4  9  2  0  0  0  0
  9 10  1  0  0  0  0
  1 10  1  0  0  0  0
  1 11  2  0  0  0  0
 12 13  1  0  0  0  0
 13 14  1  0  0  0  0
 12 14  1  0  0  0  0
 15 16  2  0  0  0  0
 16 17  1  0  0  0  0
 14 16  1  1  0  0  0
 13  8  1  6  0  0  0
 18 19  1  0  0  0  0
  7 18  1  0  0  0  0
M  END
>  <cdx:groupId>
201

>  <cdx:fragmentId>
145

$$$$
