30208.cdx
  Mrv1902 05222410222D          

  8  8  0  0  0  0            999 V2000
    7.2306  -10.7651    0.0000 C   0  0  0  0  0  0  0  0  0  0  0  0
    7.2306  -11.5901    0.0000 C   0  0  0  0  0  0  0  0  0  0  0  0
    7.9450  -12.0026    0.0000 C   0  0  0  0  0  0  0  0  0  0  0  0
    8.6595  -11.5901    0.0000 C   0  0  0  0  0  0  0  0  0  0  0  0
    8.6595  -10.7651    0.0000 C   0  0  0  0  0  0  0  0  0  0  0  0
    7.9450  -10.3526    0.0000 C   0  0  0  0  0  0  0  0  0  0  0  0
    6.5161  -10.3526    0.0000 Cl  0  0  0  0  0  0  0  0  0  0  0  0
    7.9450   -9.5276    0.0000 Cl  0  0  0  0  0  0  0  0  0  0  0  0
  1  2  2  0  0  0  0
  2  3  1  0  0  0  0
  3  4  2  0  0  0  0
  4  5  1  0  0  0  0
  5  6  2  0  0  0  0
  6  1  1  0  0  0  0
  1  7  1  0  0  0  0
  6  8  1  0  0  0  0
M  END
>  <cdx:fragmentId>
5

$$$$
