302049.cdx
  Mrv1902 05222410212D          

 65 70  0  0  0  0            999 V2000
   13.3824   -6.5085    0.0000 C   0  0  0  0  0  0  0  0  0  0  0  0
   12.7149   -6.9934    0.0000 C   0  0  0  0  0  0  0  0  0  0  0  0
   11.9303   -6.7385    0.0000 C   0  0  2  0  0  0  0  0  0  0  0  0
   11.4454   -7.4059    0.0000 C   0  0  0  0  0  0  0  0  0  0  0  0
   11.9303   -8.0733    0.0000 C   0  0  0  0  0  0  0  0  0  0  0  0
   12.7149   -7.8184    0.0000 C   0  0  0  0  0  0  0  0  0  0  0  0
   13.3824   -8.3033    0.0000 N   0  0  0  0  0  0  0  0  0  0  0  0
   13.1274   -9.0880    0.0000 C   0  0  0  0  0  0  0  0  0  0  0  0
   13.6123   -9.7554    0.0000 C   0  0  0  0  0  0  0  0  0  0  0  0
   14.4373   -9.7554    0.0000 C   0  0  0  0  0  0  0  0  0  0  0  0
   14.9223  -10.4228    0.0000 C   0  0  0  0  0  0  0  0  0  0  0  0
   15.7069  -10.1679    0.0000 C   0  0  0  0  0  0  0  0  0  0  0  0
   15.7069   -9.3429    0.0000 C   0  0  0  0  0  0  0  0  0  0  0  0
   16.3743   -8.8580    0.0000 C   0  0  0  0  0  0  0  0  0  0  0  0
   16.3743   -8.0330    0.0000 C   0  0  0  0  0  0  0  0  0  0  0  0
   17.0418   -7.5480    0.0000 C   0  0  0  0  0  0  0  0  0  0  0  0
   16.7868   -6.7634    0.0000 C   0  0  0  0  0  0  0  0  0  0  0  0
   15.9618   -6.7634    0.0000 C   0  0  0  0  0  0  0  0  0  0  0  0
   15.4769   -6.0960    0.0000 C   0  0  0  0  0  0  0  0  0  0  0  0
   14.6519   -6.0960    0.0000 C   0  0  0  0  0  0  0  0  0  0  0  0
   14.1670   -5.4285    0.0000 C   0  0  2  0  0  0  0  0  0  0  0  0
   13.3824   -5.6835    0.0000 C   0  0  2  0  0  0  0  0  0  0  0  0
   14.1670   -6.7634    0.0000 N   0  0  0  0  0  0  0  0  0  0  0  0
   15.7069   -7.5480    0.0000 N   0  0  0  0  0  0  0  0  0  0  0  0
   14.9223   -9.0880    0.0000 N   0  0  0  0  0  0  0  0  0  0  0  0
   12.3640   -8.7751    0.0000 C   0  0  0  0  0  0  0  0  0  0  0  0
   11.6754   -5.9538    0.0000 C   0  0  0  0  0  0  0  0  0  0  0  0
   12.2274   -5.3408    0.0000 O   0  0  0  0  0  0  0  0  0  0  0  0
   10.8684   -5.7823    0.0000 O   0  0  0  0  0  0  0  0  0  0  0  0
   12.7149   -5.1986    0.0000 C   0  0  0  0  0  0  0  0  0  0  0  0
   12.8012   -4.3781    0.0000 C   0  0  0  0  0  0  0  0  0  0  0  0
   12.1337   -3.8932    0.0000 C   0  0  0  0  0  0  0  0  0  0  0  0
   11.3800   -4.2287    0.0000 O   0  0  0  0  0  0  0  0  0  0  0  0
   10.7126   -3.7438    0.0000 C   0  0  0  0  0  0  0  0  0  0  0  0
    9.9589   -4.0794    0.0000 C   0  0  0  0  0  0  0  0  0  0  0  0
    9.2915   -3.5944    0.0000 C   0  0  0  0  0  0  0  0  0  0  0  0
    8.5378   -3.9300    0.0000 C   0  0  0  0  0  0  0  0  0  0  0  0
    7.8704   -3.4451    0.0000 C   0  0  0  0  0  0  0  0  0  0  0  0
    7.1167   -3.7806    0.0000 C   0  0  0  0  0  0  0  0  0  0  0  0
    6.4493   -3.2957    0.0000 C   0  0  1  0  0  0  0  0  0  0  0  0
    5.6956   -3.6313    0.0000 C   0  0  0  0  0  0  0  0  0  0  0  0
    5.0281   -3.1463    0.0000 C   0  0  0  0  0  0  0  0  0  0  0  0
    4.2745   -3.4819    0.0000 C   0  0  0  0  0  0  0  0  0  0  0  0
    3.6070   -2.9970    0.0000 C   0  0  1  0  0  0  0  0  0  0  0  0
    2.8534   -3.3325    0.0000 C   0  0  0  0  0  0  0  0  0  0  0  0
    2.1859   -2.8476    0.0000 C   0  0  0  0  0  0  0  0  0  0  0  0
    1.4322   -3.1832    0.0000 C   0  0  0  0  0  0  0  0  0  0  0  0
    0.7648   -2.6982    0.0000 C   0  0  0  0  0  0  0  0  0  0  0  0
    0.8510   -1.8778    0.0000 C   0  0  0  0  0  0  0  0  0  0  0  0
    0.0111   -3.0338    0.0000 C   0  0  0  0  0  0  0  0  0  0  0  0
    3.6933   -2.1765    0.0000 C   0  0  0  0  0  0  0  0  0  0  0  0
    6.5355   -2.4752    0.0000 C   0  0  0  0  0  0  0  0  0  0  0  0
    9.3777   -2.7739    0.0000 C   0  0  0  0  0  0  0  0  0  0  0  0
   12.2199   -3.0727    0.0000 O   0  0  0  0  0  0  0  0  0  0  0  0
   10.6204   -7.4059    0.0000 O   0  0  0  0  0  0  0  0  0  0  0  0
   11.8306   -9.4045    0.0000 C   0  0  0  0  0  0  0  0  0  0  0  0
   14.4219   -4.6439    0.0000 C   0  0  0  0  0  0  0  0  0  0  0  0
   17.2717   -6.0960    0.0000 C   0  0  0  0  0  0  0  0  0  0  0  0
   16.3743  -10.6528    0.0000 C   0  0  0  0  0  0  0  0  0  0  0  0
   17.1280  -10.3173    0.0000 O   0  0  0  0  0  0  0  0  0  0  0  0
   14.6673  -11.2075    0.0000 C   0  0  0  0  0  0  0  0  0  0  0  0
   13.8603  -11.3790    0.0000 C   0  0  0  0  0  0  0  0  0  0  0  0
   17.8264   -7.8030    0.0000 C   0  0  0  0  0  0  0  0  0  0  0  0
   18.4097   -7.2196    0.0000 C   0  0  0  0  0  0  0  0  0  0  0  0
   10.6134   -4.9977    0.0000 C   0  0  0  0  0  0  0  0  0  0  0  0
  1  2  2  0  0  0  0
  2  3  1  0  0  0  0
  3  4  1  0  0  0  0
  4  5  1  0  0  0  0
  5  6  1  0  0  0  0
  6  7  2  0  0  0  0
  7  8  1  0  0  0  0
  8  9  2  0  0  0  0
  9 10  1  0  0  0  0
 10 11  2  0  0  0  0
 11 12  1  0  0  0  0
 12 13  1  0  0  0  0
 13 14  1  0  0  0  0
 14 15  2  0  0  0  0
 15 16  1  0  0  0  0
 16 17  2  0  0  0  0
 17 18  1  0  0  0  0
 18 19  1  0  0  0  0
 19 20  2  0  0  0  0
 20 21  1  0  0  0  0
 21 22  1  0  0  0  0
  1 22  1  0  0  0  0
  1 23  1  0  0  0  0
 23 20  1  0  0  0  0
 18 24  2  0  0  0  0
 24 15  1  0  0  0  0
 13 25  2  0  0  0  0
 25 10  1  0  0  0  0
  8 26  1  0  0  0  0
 26  5  2  0  0  0  0
  2  6  1  0  0  0  0
 27 28  2  0  0  0  0
 27 29  1  0  0  0  0
  3 27  1  6  0  0  0
 30 31  1  0  0  0  0
 31 32  1  0  0  0  0
 34 35  1  0  0  0  0
 35 36  2  0  0  0  0
 36 37  1  0  0  0  0
 37 38  1  0  0  0  0
 38 39  1  0  0  0  0
 39 40  1  0  0  0  0
 40 41  1  0  0  0  0
 41 42  1  0  0  0  0
 42 43  1  0  0  0  0
 43 44  1  0  0  0  0
 44 45  1  0  0  0  0
 45 46  1  0  0  0  0
 46 47  1  0  0  0  0
 47 48  1  0  0  0  0
 48 49  1  0  0  0  0
 33 34  1  0  0  0  0
 48 50  1  0  0  0  0
 44 51  1  1  0  0  0
 40 52  1  1  0  0  0
 36 53  1  0  0  0  0
 32 33  1  0  0  0  0
 32 54  2  0  0  0  0
 22 30  1  1  0  0  0
  4 55  2  0  0  0  0
 26 56  1  0  0  0  0
 21 57  1  6  0  0  0
 17 58  1  0  0  0  0
 59 60  1  0  0  0  0
 12 59  2  0  0  0  0
 61 62  1  0  0  0  0
 11 61  1  0  0  0  0
 63 64  2  0  0  0  0
 16 63  1  0  0  0  0
 29 65  1  0  0  0  0
M  END
>  <cdx:groupId>
2109

>  <cdx:fragmentId>
1912

$$$$
