302041.cdx
  Mrv1902 05222410242D          

 65 73  0  0  0  0            999 V2000
    4.7644   -4.0012    0.0000 C   0  0  0  0  0  0  0  0  0  0  0  0
    4.7644   -4.8263    0.0000 C   0  0  0  0  0  0  0  0  0  0  0  0
    5.4788   -5.2387    0.0000 C   0  0  0  0  0  0  0  0  0  0  0  0
    6.1933   -4.8263    0.0000 C   0  0  0  0  0  0  0  0  0  0  0  0
    6.1933   -4.0012    0.0000 C   0  0  0  0  0  0  0  0  0  0  0  0
    5.4788   -3.5887    0.0000 C   0  0  0  0  0  0  0  0  0  0  0  0
    6.9078   -5.2387    0.0000 C   0  0  1  0  0  0  0  0  0  0  0  0
    7.6223   -4.8263    0.0000 C   0  0  2  0  0  0  0  0  0  0  0  0
    7.6223   -4.0012    0.0000 C   0  0  2  0  0  0  0  0  0  0  0  0
    6.9078   -3.5887    0.0000 O   0  0  0  0  0  0  0  0  0  0  0  0
    4.0499   -3.5887    0.0000 O   0  0  0  0  0  0  0  0  0  0  0  0
    5.4788   -6.0638    0.0000 O   0  0  0  0  0  0  0  0  0  0  0  0
    8.3367   -5.2387    0.0000 O   0  0  0  0  0  0  0  0  0  0  0  0
    8.3367   -3.5887    0.0000 C   0  0  0  0  0  0  0  0  0  0  0  0
    9.0512   -4.0012    0.0000 C   0  0  0  0  0  0  0  0  0  0  0  0
    9.7657   -3.5887    0.0000 C   0  0  0  0  0  0  0  0  0  0  0  0
    9.7657   -2.7637    0.0000 C   0  0  0  0  0  0  0  0  0  0  0  0
    9.0512   -2.3512    0.0000 C   0  0  0  0  0  0  0  0  0  0  0  0
    8.3367   -2.7637    0.0000 C   0  0  0  0  0  0  0  0  0  0  0  0
    9.0512   -1.5263    0.0000 O   0  0  0  0  0  0  0  0  0  0  0  0
   10.4801   -2.3512    0.0000 O   0  0  0  0  0  0  0  0  0  0  0  0
    6.1944   -6.7650    0.0000 C   0  0  0  0  0  0  0  0  0  0  0  0
    6.1944   -7.5900    0.0000 C   0  0  0  0  0  0  0  0  0  0  0  0
    6.9088   -8.0025    0.0000 C   0  0  0  0  0  0  0  0  0  0  0  0
    7.6233   -7.5900    0.0000 C   0  0  0  0  0  0  0  0  0  0  0  0
    7.6233   -6.7650    0.0000 C   0  0  0  0  0  0  0  0  0  0  0  0
    6.9088   -6.3525    0.0000 C   0  0  0  0  0  0  0  0  0  0  0  0
    8.3378   -8.0025    0.0000 C   0  0  1  0  0  0  0  0  0  0  0  0
    9.0523   -7.5900    0.0000 C   0  0  2  0  0  0  0  0  0  0  0  0
    9.0523   -6.7650    0.0000 C   0  0  2  0  0  0  0  0  0  0  0  0
    8.3378   -6.3525    0.0000 O   0  0  0  0  0  0  0  0  0  0  0  0
    5.4799   -6.3525    0.0000 O   0  0  0  0  0  0  0  0  0  0  0  0
    6.9088   -8.8275    0.0000 O   0  0  0  0  0  0  0  0  0  0  0  0
    9.7667   -8.0025    0.0000 O   0  0  0  0  0  0  0  0  0  0  0  0
    9.7667   -6.3525    0.0000 C   0  0  0  0  0  0  0  0  0  0  0  0
   10.4812   -6.7650    0.0000 C   0  0  0  0  0  0  0  0  0  0  0  0
   11.1957   -6.3525    0.0000 C   0  0  0  0  0  0  0  0  0  0  0  0
   11.1957   -5.5275    0.0000 C   0  0  0  0  0  0  0  0  0  0  0  0
   10.4812   -5.1150    0.0000 C   0  0  0  0  0  0  0  0  0  0  0  0
    9.7667   -5.5275    0.0000 C   0  0  0  0  0  0  0  0  0  0  0  0
   10.4812   -4.2900    0.0000 O   0  0  0  0  0  0  0  0  0  0  0  0
   11.9101   -5.1150    0.0000 O   0  0  0  0  0  0  0  0  0  0  0  0
   11.9101   -6.7650    0.0000 O   0  0  0  0  0  0  0  0  0  0  0  0
   10.4801   -4.0012    0.0000 O   0  0  0  0  0  0  0  0  0  0  0  0
    7.6244   -9.6112    0.0000 C   0  0  0  0  0  0  0  0  0  0  0  0
    7.6244  -10.4363    0.0000 C   0  0  0  0  0  0  0  0  0  0  0  0
    8.3388  -10.8488    0.0000 C   0  0  0  0  0  0  0  0  0  0  0  0
    9.0533  -10.4363    0.0000 C   0  0  0  0  0  0  0  0  0  0  0  0
    9.0533   -9.6112    0.0000 C   0  0  0  0  0  0  0  0  0  0  0  0
    8.3388   -9.1987    0.0000 C   0  0  0  0  0  0  0  0  0  0  0  0
    9.7678  -10.8488    0.0000 C   0  0  0  0  0  0  0  0  0  0  0  0
   10.4823  -10.4363    0.0000 C   0  0  1  0  0  0  0  0  0  0  0  0
   10.4823   -9.6112    0.0000 C   0  0  2  0  0  0  0  0  0  0  0  0
    9.7678   -9.1987    0.0000 O   0  0  0  0  0  0  0  0  0  0  0  0
    6.9099   -9.1987    0.0000 O   0  0  0  0  0  0  0  0  0  0  0  0
    8.3388  -11.6738    0.0000 O   0  0  0  0  0  0  0  0  0  0  0  0
   11.1967  -10.8488    0.0000 O   0  0  0  0  0  0  0  0  0  0  0  0
   11.1967   -9.1987    0.0000 C   0  0  0  0  0  0  0  0  0  0  0  0
   11.9112   -9.6112    0.0000 C   0  0  0  0  0  0  0  0  0  0  0  0
   12.6257   -9.1987    0.0000 C   0  0  0  0  0  0  0  0  0  0  0  0
   12.6257   -8.3737    0.0000 C   0  0  0  0  0  0  0  0  0  0  0  0
   11.9112   -7.9612    0.0000 C   0  0  0  0  0  0  0  0  0  0  0  0
   11.1967   -8.3737    0.0000 C   0  0  0  0  0  0  0  0  0  0  0  0
   11.9112   -7.1362    0.0000 O   0  0  0  0  0  0  0  0  0  0  0  0
   13.3401   -7.9612    0.0000 O   0  0  0  0  0  0  0  0  0  0  0  0
  1  2  2  0  0  0  0
  2  3  1  0  0  0  0
  3  4  2  0  0  0  0
  4  5  1  0  0  0  0
  5  6  2  0  0  0  0
  6  1  1  0  0  0  0
  4  7  1  0  0  0  0
  7  8  1  0  0  0  0
  8  9  1  0  0  0  0
  9 10  1  0  0  0  0
 10  5  1  0  0  0  0
  1 11  1  0  0  0  0
  3 12  1  0  0  0  0
  8 13  1  6  0  0  0
  9 14  1  6  0  0  0
 14 15  2  0  0  0  0
 15 16  1  0  0  0  0
 16 17  2  0  0  0  0
 17 18  1  0  0  0  0
 18 19  2  0  0  0  0
 19 14  1  0  0  0  0
 18 20  1  0  0  0  0
 17 21  1  0  0  0  0
 22 23  2  0  0  0  0
 23 24  1  0  0  0  0
 24 25  2  0  0  0  0
 25 26  1  0  0  0  0
 26 27  2  0  0  0  0
 27 22  1  0  0  0  0
 25 28  1  0  0  0  0
 28 29  1  0  0  0  0
 29 30  1  0  0  0  0
 30 31  1  0  0  0  0
 31 26  1  0  0  0  0
 22 32  1  0  0  0  0
 24 33  1  0  0  0  0
 29 34  1  6  0  0  0
 30 35  1  6  0  0  0
 35 36  2  0  0  0  0
 36 37  1  0  0  0  0
 37 38  2  0  0  0  0
 38 39  1  0  0  0  0
 39 40  2  0  0  0  0
 40 35  1  0  0  0  0
 39 41  1  0  0  0  0
 38 42  1  0  0  0  0
 37 43  1  0  0  0  0
  7 27  1  1  0  0  0
 16 44  1  0  0  0  0
 45 46  2  0  0  0  0
 46 47  1  0  0  0  0
 47 48  2  0  0  0  0
 48 49  1  0  0  0  0
 49 50  2  0  0  0  0
 50 45  1  0  0  0  0
 48 51  1  0  0  0  0
 51 52  1  0  0  0  0
 52 53  1  0  0  0  0
 53 54  1  0  0  0  0
 54 49  1  0  0  0  0
 45 55  1  0  0  0  0
 47 56  1  0  0  0  0
 52 57  1  1  0  0  0
 53 58  1  6  0  0  0
 58 59  2  0  0  0  0
 59 60  1  0  0  0  0
 60 61  2  0  0  0  0
 61 62  1  0  0  0  0
 62 63  2  0  0  0  0
 63 58  1  0  0  0  0
 62 64  1  0  0  0  0
 61 65  1  0  0  0  0
 28 50  1  1  0  0  0
M  END
>  <cdx:fragmentId>
4503

$$$$
