302050.cdx
  Mrv1902 05222410252D          

 20 21  0  0  0  0            999 V2000
    9.4895   -5.5744    0.0000 C   0  0  0  0  0  0  0  0  0  0  0  0
    9.4895   -6.3994    0.0000 C   0  0  0  0  0  0  0  0  0  0  0  0
    8.7750   -6.8119    0.0000 C   0  0  0  0  0  0  0  0  0  0  0  0
    8.0605   -6.3994    0.0000 C   0  0  0  0  0  0  0  0  0  0  0  0
    7.3461   -6.8119    0.0000 C   0  0  0  0  0  0  0  0  0  0  0  0
    8.7750   -5.1619    0.0000 O   0  0  0  0  0  0  0  0  0  0  0  0
   10.2039   -5.1619    0.0000 O   0  0  0  0  0  0  0  0  0  0  0  0
    8.7750   -7.6369    0.0000 C   0  0  0  0  0  0  0  0  0  0  0  0
    5.7044   -6.9352    0.0000 C   0  0  2  0  0  0  0  0  0  0  0  0
    5.0999   -6.3738    0.0000 C   0  0  0  0  0  0  0  0  0  0  0  0
    5.1619   -5.5511    0.0000 C   0  0  0  0  0  0  0  0  0  0  0  0
    5.8438   -5.0866    0.0000 C   0  0  0  0  0  0  0  0  0  0  0  0
    6.6320   -5.3302    0.0000 C   0  0  1  0  0  0  0  0  0  0  0  0
    6.9331   -6.0983    0.0000 O   0  0  0  0  0  0  0  0  0  0  0  0
    6.5203   -6.8126    0.0000 C   0  0  0  0  0  0  0  0  0  0  0  0
    6.6316   -6.3994    0.0000 C   0  0  2  0  0  0  0  0  0  0  0  0
    4.4475   -5.1386    0.0000 O   0  0  0  0  0  0  0  0  0  0  0  0
    7.1934   -4.7256    0.0000 C   0  0  0  0  0  0  0  0  0  0  0  0
    5.4609   -7.7234    0.0000 C   0  0  0  0  0  0  0  0  0  0  0  0
    5.9171   -5.9869    0.0000 O   0  0  0  0  0  0  0  0  0  0  0  0
  1  2  1  0  0  0  0
  2  3  2  0  0  0  0
  3  4  1  0  0  0  0
  4  5  2  0  0  0  0
  1  6  2  0  0  0  0
  1  7  1  0  0  0  0
  3  8  1  0  0  0  0
  9 10  1  0  0  0  0
 10 11  1  0  0  0  0
 11 12  1  0  0  0  0
 12 13  1  0  0  0  0
 13 14  1  1  0  0  0
 14 15  1  0  0  0  0
  9 15  1  1  0  0  0
  9 16  1  0  0  0  0
 16 13  1  0  0  0  0
 11 17  2  0  0  0  0
 13 18  1  0  0  0  0
  9 19  1  0  0  0  0
 16 20  1  1  0  0  0
  5 16  1  0  0  0  0
M  END
>  <cdx:groupId>
63

>  <cdx:fragmentId>
21

$$$$
