302060.cdx
  Mrv1902 05222410212D          

 13 13  0  0  0  0            999 V2000
    5.8132   -7.1024    0.0000 C   0  0  0  0  0  0  0  0  0  0  0  0
    5.0988   -7.5149    0.0000 C   0  0  0  0  0  0  0  0  0  0  0  0
    4.3843   -7.1024    0.0000 C   0  0  0  0  0  0  0  0  0  0  0  0
    4.3843   -6.2774    0.0000 C   0  0  0  0  0  0  0  0  0  0  0  0
    5.0988   -5.8649    0.0000 C   0  0  0  0  0  0  0  0  0  0  0  0
    5.8132   -6.2774    0.0000 C   0  0  0  0  0  0  0  0  0  0  0  0
    6.5277   -5.8649    0.0000 C   0  0  0  0  0  0  0  0  0  0  0  0
    7.2422   -6.2774    0.0000 C   0  0  0  0  0  0  0  0  0  0  0  0
    7.9566   -5.8649    0.0000 C   0  0  0  0  0  0  0  0  0  0  0  0
    8.6711   -6.2774    0.0000 O   0  0  0  0  0  0  0  0  0  0  0  0
    9.3856   -5.0399    0.0000 O   0  0  0  0  0  0  0  0  0  0  0  0
   10.1001   -6.2774    0.0000 N   0  0  0  0  0  0  0  0  0  0  0  0
    9.3856   -5.8649    0.0000 C   0  0  0  0  0  0  0  0  0  0  0  0
 10  9  1  0  0  0  0
  7  6  1  0  0  0  0
  6  1  2  0  0  0  0
  2  1  1  0  0  0  0
  3  2  2  0  0  0  0
  4  3  1  0  0  0  0
  5  4  2  0  0  0  0
  6  5  1  0  0  0  0
  8  7  1  0  0  0  0
  9  8  1  0  0  0  0
 13 10  1  0  0  0  0
 13 11  2  0  0  0  0
 13 12  1  0  0  0  0
M  END
>  <cdx:fragmentId>
624

$$$$
