302085.cdx
  Mrv1902 05222410252D          

 29 32  0  0  0  0            999 V2000
    5.9242   -9.2977    0.0000 C   0  0  0  0  0  0  0  0  0  0  0  0
    5.3653   -8.6908    0.0000 C   0  0  0  0  0  0  0  0  0  0  0  0
    5.6114   -7.9034    0.0000 C   0  0  0  0  0  0  0  0  0  0  0  0
    6.4164   -7.7228    0.0000 C   0  0  0  0  0  0  0  0  0  0  0  0
    6.9753   -8.3297    0.0000 C   0  0  0  0  0  0  0  0  0  0  0  0
    6.7292   -9.1171    0.0000 C   0  0  0  0  0  0  0  0  0  0  0  0
    5.6781  -10.0851    0.0000 O   0  0  0  0  0  0  0  0  0  0  0  0
    4.5603   -8.8714    0.0000 O   0  0  0  0  0  0  0  0  0  0  0  0
    3.9704   -8.2946    0.0000 C   0  0  0  0  0  0  0  0  0  0  0  0
    6.1702   -6.2734    0.0000 O   0  0  0  0  0  0  0  0  0  0  0  0
    6.6476   -5.6006    0.0000 C   0  0  0  0  0  0  0  0  0  0  0  0
    7.4350   -5.8467    0.0000 C   0  0  1  0  0  0  0  0  0  0  0  0
    7.4442   -6.6717    0.0000 C   0  0  1  0  0  0  0  0  0  0  0  0
    6.6625   -6.9354    0.0000 C   0  0  1  0  0  0  0  0  0  0  0  0
    8.7091   -6.2449    0.0000 O   0  0  0  0  0  0  0  0  0  0  0  0
    8.2167   -5.5830    0.0000 C   0  0  1  0  0  0  0  0  0  0  0  0
    8.2317   -6.9178    0.0000 C   0  0  0  0  0  0  0  0  0  0  0  0
    8.4628   -4.7956    0.0000 C   0  0  0  0  0  0  0  0  0  0  0  0
    9.2678   -4.6150    0.0000 C   0  0  0  0  0  0  0  0  0  0  0  0
    9.5139   -3.8276    0.0000 C   0  0  0  0  0  0  0  0  0  0  0  0
    8.9551   -3.2207    0.0000 C   0  0  0  0  0  0  0  0  0  0  0  0
    8.1501   -3.4013    0.0000 C   0  0  0  0  0  0  0  0  0  0  0  0
    7.9039   -4.1887    0.0000 C   0  0  0  0  0  0  0  0  0  0  0  0
    9.2012   -2.4333    0.0000 O   0  0  0  0  0  0  0  0  0  0  0  0
   10.0062   -2.2527    0.0000 C   0  0  0  0  0  0  0  0  0  0  0  0
   10.3189   -3.6470    0.0000 O   0  0  0  0  0  0  0  0  0  0  0  0
   10.8778   -4.2538    0.0000 C   0  0  0  0  0  0  0  0  0  0  0  0
    7.4535   -7.4966    0.0000 H   0  0  0  0  0  0  0  0  0  0  0  0
    7.4257   -5.0218    0.0000 H   0  0  0  0  0  0  0  0  0  0  0  0
  1  2  1  0  0  0  0
  2  3  2  0  0  0  0
  3  4  1  0  0  0  0
  4  5  2  0  0  0  0
  5  6  1  0  0  0  0
  1  6  2  0  0  0  0
  1  7  1  0  0  0  0
  8  9  1  0  0  0  0
  2  8  1  0  0  0  0
 10 11  1  0  0  0  0
 11 12  1  0  0  0  0
 12 13  1  0  0  0  0
 13 14  1  0  0  0  0
 10 14  1  0  0  0  0
 15 16  1  0  0  0  0
 15 17  1  0  0  0  0
 16 12  1  0  0  0  0
 17 13  1  0  0  0  0
 18 19  1  0  0  0  0
 19 20  2  0  0  0  0
 20 21  1  0  0  0  0
 21 22  2  0  0  0  0
 22 23  1  0  0  0  0
 18 23  2  0  0  0  0
 24 25  1  0  0  0  0
 21 24  1  0  0  0  0
 26 27  1  0  0  0  0
 20 26  1  0  0  0  0
 16 18  1  6  0  0  0
 14  4  1  1  0  0  0
 13 28  1  1  0  0  0
 12 29  1  1  0  0  0
M  END
>  <cdx:groupId>
1592

>  <cdx:fragmentId>
1539

$$$$
