302028.cdx
  Mrv1902 05222410182D          

  6  5  0  0  0  0            999 V2000
    8.1395   -5.5952    0.0000 C   0  0  0  0  0  0  0  0  0  0  0  0
    8.1395   -6.4202    0.0000 C   0  0  0  0  0  0  0  0  0  0  0  0
    7.4250   -6.8327    0.0000 C   0  0  0  0  0  0  0  0  0  0  0  0
    6.7105   -6.4202    0.0000 C   0  0  0  0  0  0  0  0  0  0  0  0
    5.9961   -6.8327    0.0000 C   0  0  0  0  0  0  0  0  0  0  0  0
    8.8539   -6.8327    0.0000 C   0  0  0  0  0  0  0  0  0  0  0  0
  1  2  1  0  0  0  0
  2  3  1  0  0  0  0
  3  4  1  0  0  0  0
  4  5  1  0  0  0  0
  2  6  1  0  0  0  0
M  END
>  <cdx:groupId>
712

>  <cdx:fragmentId>
698

$$$$
