302035.cdx
  Mrv1902 05222410262D          

 43 47  0  0  0  0            999 V2000
    4.2099   -4.8356    0.0000 O   0  0  0  0  0  0  0  0  0  0  0  0
    4.9244   -4.4231    0.0000 C   0  0  2  0  0  0  0  0  0  0  0  0
    4.9244   -3.5981    0.0000 C   0  0  0  0  0  0  0  0  0  0  0  0
    4.2099   -3.1856    0.0000 C   0  0  2  0  0  0  0  0  0  0  0  0
    3.4954   -3.5981    0.0000 C   0  0  2  0  0  0  0  0  0  0  0  0
    3.4954   -4.4231    0.0000 C   0  0  0  0  0  0  0  0  0  0  0  0
    5.6388   -3.1856    0.0000 O   0  0  0  0  0  0  0  0  0  0  0  0
    4.2099   -2.3606    0.0000 O   0  0  0  0  0  0  0  0  0  0  0  0
    2.7809   -3.1856    0.0000 O   0  0  0  0  0  0  0  0  0  0  0  0
    2.7809   -4.8356    0.0000 C   0  0  0  0  0  0  0  0  0  0  0  0
    5.6388   -4.8356    0.0000 O   0  0  0  0  0  0  0  0  0  0  0  0
    6.3533   -4.4231    0.0000 C   0  0  0  0  0  0  0  0  0  0  0  0
    7.0678   -5.6606    0.0000 O   0  0  0  0  0  0  0  0  0  0  0  0
    7.0678   -4.8356    0.0000 C   0  0  0  0  0  0  0  0  0  0  0  0
    7.7822   -4.4231    0.0000 C   0  0  2  0  0  0  0  0  0  0  0  0
    8.4967   -4.8356    0.0000 C   0  0  0  0  0  0  0  0  0  0  0  0
    8.4967   -5.6606    0.0000 C   0  0  0  0  0  0  0  0  0  0  0  0
    7.7822   -6.0731    0.0000 C   0  0  1  0  0  0  0  0  0  0  0  0
    9.2112   -6.0731    0.0000 O   0  0  0  0  0  0  0  0  0  0  0  0
    9.2112   -4.4231    0.0000 O   0  0  0  0  0  0  0  0  0  0  0  0
    7.7822   -3.5981    0.0000 O   0  0  0  0  0  0  0  0  0  0  0  0
    7.7822   -6.8981    0.0000 O   0  0  0  0  0  0  0  0  0  0  0  0
    8.4967   -8.1356    0.0000 C   0  0  0  0  0  0  0  0  0  0  0  0
    8.4967   -7.3106    0.0000 C   0  3  0  0  0  0  0  0  0  0  0  0
    9.2112   -6.8981    0.0000 C   0  0  0  0  0  0  0  0  0  0  0  0
    9.9256   -7.3106    0.0000 C   0  0  0  0  0  0  0  0  0  0  0  0
   10.6401   -6.8981    0.0000 C   0  0  0  0  0  0  0  0  0  0  0  0
   11.3546   -7.3106    0.0000 C   0  0  0  0  0  0  0  0  0  0  0  0
   11.3546   -8.1356    0.0000 C   0  0  0  0  0  0  0  0  0  0  0  0
   10.6401   -8.5481    0.0000 C   0  0  0  0  0  0  0  0  0  0  0  0
    9.9256   -8.1356    0.0000 C   0  0  0  0  0  0  0  0  0  0  0  0
    9.2112   -8.5481    0.0000 O   0  0  0  0  0  0  0  0  0  0  0  0
    7.7822   -8.5481    0.0000 C   0  0  0  0  0  0  0  0  0  0  0  0
    7.7822   -9.3731    0.0000 C   0  0  0  0  0  0  0  0  0  0  0  0
    7.0678   -9.7856    0.0000 C   0  0  0  0  0  0  0  0  0  0  0  0
    6.3533   -9.3731    0.0000 C   0  0  0  0  0  0  0  0  0  0  0  0
    6.3533   -8.5481    0.0000 C   0  0  0  0  0  0  0  0  0  0  0  0
    7.0678   -8.1356    0.0000 C   0  0  0  0  0  0  0  0  0  0  0  0
    7.0678  -10.6106    0.0000 O   0  0  0  0  0  0  0  0  0  0  0  0
    6.3533  -11.0231    0.0000 C   0  0  0  0  0  0  0  0  0  0  0  0
    5.6388   -9.7856    0.0000 O   0  0  0  0  0  0  0  0  0  0  0  0
   12.0691   -8.5481    0.0000 O   0  0  0  0  0  0  0  0  0  0  0  0
   10.6401   -6.0731    0.0000 O   0  0  0  0  0  0  0  0  0  0  0  0
  1  2  1  0  0  0  0
  2  3  1  0  0  0  0
  3  4  1  0  0  0  0
  4  5  1  0  0  0  0
  5  6  1  0  0  0  0
  1  6  1  0  0  0  0
  3  7  1  0  0  0  0
  4  8  1  6  0  0  0
  5  9  1  6  0  0  0
  6 10  1  0  0  0  0
 11 12  1  0  0  0  0
 13 14  1  0  0  0  0
 14 15  1  0  0  0  0
 15 16  1  0  0  0  0
 16 17  1  0  0  0  0
 17 18  1  0  0  0  0
 13 18  1  0  0  0  0
 17 19  1  0  0  0  0
 16 20  1  0  0  0  0
 15 21  1  1  0  0  0
 23 24  1  0  0  0  0
 24 25  1  0  0  0  0
 25 26  1  0  0  0  0
 26 27  1  0  0  0  0
 27 28  2  0  0  0  0
 28 29  1  0  0  0  0
 29 30  2  0  0  0  0
 30 31  1  0  0  0  0
 26 31  2  0  0  0  0
 31 32  1  0  0  0  0
 23 32  1  0  0  0  0
 33 34  1  0  0  0  0
 34 35  2  0  0  0  0
 35 36  1  0  0  0  0
 36 37  2  0  0  0  0
 37 38  1  0  0  0  0
 33 38  2  0  0  0  0
 39 40  1  0  0  0  0
 35 39  1  0  0  0  0
 36 41  1  0  0  0  0
 23 33  1  0  0  0  0
 29 42  1  0  0  0  0
 27 43  1  0  0  0  0
 22 24  1  0  0  0  0
 18 22  1  1  0  0  0
 12 14  1  0  0  0  0
  2 11  1  6  0  0  0
M  CHG  1  24   1
M  END
>  <cdx:groupId>
1036

>  <cdx:fragmentId>
950

$$$$
