302188.cdx
  Mrv1902 05222410192D          

  6  5  0  0  0  0            999 V2000
    6.8384   -8.3669    0.0000 C   0  0  0  0  0  0  0  0  0  0  0  0
    6.1239   -7.9544    0.0000 C   0  0  0  0  0  0  0  0  0  0  0  0
    7.5529   -8.7794    0.0000 O   0  0  0  0  0  0  0  0  0  0  0  0
    8.2674   -8.3669    0.0000 C   0  0  0  0  0  0  0  0  0  0  0  0
    7.2509   -7.6524    0.0000 C   0  0  0  0  0  0  0  0  0  0  0  0
    6.4259   -9.0813    0.0000 C   0  0  0  0  0  0  0  0  0  0  0  0
  1  2  1  0  0  0  0
  3  4  1  0  0  0  0
  1  3  1  0  0  0  0
  1  5  1  0  0  0  0
  1  6  1  0  0  0  0
M  END
>  <cdx:fragmentId>
5

$$$$
