30217.cdx
  Mrv1902 05222410232D          

 14 14  0  0  0  0            999 V2000
    6.3706   -9.5280    0.0000 C   0  0  0  0  0  0  0  0  0  0  0  0
    5.5456   -9.5280    0.0000 C   0  0  0  0  0  0  0  0  0  0  0  0
    5.1331   -8.8135    0.0000 C   0  0  0  0  0  0  0  0  0  0  0  0
    5.5456   -8.0990    0.0000 C   0  0  0  0  0  0  0  0  0  0  0  0
    6.3706   -8.0990    0.0000 C   0  0  0  0  0  0  0  0  0  0  0  0
    6.7831   -7.3845    0.0000 C   0  0  0  0  0  0  0  0  0  0  0  0
    7.6081   -7.3845    0.0000 C   0  0  0  0  0  0  0  0  0  0  0  0
    8.0206   -8.0990    0.0000 C   0  0  0  0  0  0  0  0  0  0  0  0
    8.8456   -8.0990    0.0000 C   0  0  0  0  0  0  0  0  0  0  0  0
    9.2581   -8.8135    0.0000 C   0  0  0  0  0  0  0  0  0  0  0  0
    8.8456   -9.5280    0.0000 C   0  0  0  0  0  0  0  0  0  0  0  0
    8.0206   -9.5280    0.0000 C   0  0  0  0  0  0  0  0  0  0  0  0
    7.6081   -8.8135    0.0000 C   0  0  0  0  0  0  0  0  0  0  0  0
    6.7831   -8.8135    0.0000 C   0  0  0  0  0  0  0  0  0  0  0  0
  1  2  2  0  0  0  0
  2  3  1  0  0  0  0
  3  4  2  0  0  0  0
  4  5  1  0  0  0  0
  5  6  1  0  0  0  0
  6  7  2  0  0  0  0
  7  8  1  0  0  0  0
  8  9  1  0  0  0  0
  9 10  1  0  0  0  0
 10 11  2  0  0  0  0
 11 12  1  0  0  0  0
 12 13  1  0  0  0  0
 13 14  1  0  0  0  0
  1 14  1  0  0  0  0
M  END
>  <cdx:fragmentId>
5

$$$$
