302156.cdx
  Mrv1902 05222410272D          

 20 20  0  0  0  0            999 V2000
    6.9971   -7.7160    0.0000 C   0  0  0  0  0  0  0  0  0  0  0  0
    6.2827   -8.1285    0.0000 C   0  0  0  0  0  0  0  0  0  0  0  0
    5.5682   -7.7160    0.0000 C   0  0  0  0  0  0  0  0  0  0  0  0
    4.8537   -8.1285    0.0000 C   0  0  0  0  0  0  0  0  0  0  0  0
    5.5682   -6.8910    0.0000 C   0  0  0  0  0  0  0  0  0  0  0  0
    6.2827   -8.9535    0.0000 C   0  0  0  0  0  0  0  0  0  0  0  0
    5.5682   -9.3660    0.0000 C   0  0  0  0  0  0  0  0  0  0  0  0
    4.8537   -8.9535    0.0000 C   0  0  0  0  0  0  0  0  0  0  0  0
    5.5682  -10.1910    0.0000 C   0  0  0  0  0  0  0  0  0  0  0  0
    6.1515  -10.7744    0.0000 C   0  0  0  0  0  0  0  0  0  0  0  0
    4.9848  -10.7744    0.0000 C   0  0  0  0  0  0  0  0  0  0  0  0
    6.9971   -6.8910    0.0000 C   0  0  0  0  0  0  0  0  0  0  0  0
    7.7116   -6.4785    0.0000 C   0  0  0  0  0  0  0  0  0  0  0  0
    8.4261   -6.8910    0.0000 C   0  0  0  0  0  0  0  0  0  0  0  0
    9.1405   -6.4785    0.0000 C   0  0  0  0  0  0  0  0  0  0  0  0
    9.8550   -6.8910    0.0000 C   0  0  0  0  0  0  0  0  0  0  0  0
   10.5695   -6.4785    0.0000 C   0  0  0  0  0  0  0  0  0  0  0  0
    7.7116   -5.6535    0.0000 C   0  0  0  0  0  0  0  0  0  0  0  0
   11.2839   -6.8910    0.0000 C   0  0  0  0  0  0  0  0  0  0  0  0
   10.5695   -5.6535    0.0000 C   0  0  0  0  0  0  0  0  0  0  0  0
  1  2  1  0  0  0  0
  2  3  2  0  0  0  0
  3  4  1  0  0  0  0
  3  5  1  0  0  0  0
  2  6  1  0  0  0  0
  6  7  2  0  0  0  0
  4  8  1  0  0  0  0
  8  7  1  0  0  0  0
  7  9  1  0  0  0  0
  9 10  1  0  0  0  0
  9 11  1  0  0  0  0
  1 12  1  0  0  0  0
 12 13  2  0  0  0  0
 13 14  1  0  0  0  0
 14 15  1  0  0  0  0
 15 16  1  0  0  0  0
 16 17  2  0  0  0  0
 13 18  1  0  0  0  0
 17 19  1  0  0  0  0
 17 20  1  0  0  0  0
M  END
>  <cdx:fragmentId>
8819

$$$$
