302192.cdx
  Mrv1902 05222410282D          

  9  8  0  0  0  0            999 V2000
    6.7105   -6.4916    0.0000 C   0  0  0  0  0  0  0  0  0  0  0  0
    5.9961   -6.9041    0.0000 C   0  0  0  0  0  0  0  0  0  0  0  0
    5.9961   -7.7291    0.0000 C   0  0  0  0  0  0  0  0  0  0  0  0
    6.7105   -5.6666    0.0000 O   0  0  0  0  0  0  0  0  0  0  0  0
    7.4250   -6.9041    0.0000 O   0  0  0  0  0  0  0  0  0  0  0  0
    5.2816   -6.4916    0.0000 C   0  0  0  0  0  0  0  0  0  0  0  0
    8.1395   -6.4916    0.0000 C   0  0  0  0  0  0  0  0  0  0  0  0
    8.8539   -6.9041    0.0000 C   0  0  0  0  0  0  0  0  0  0  0  0
    9.5684   -6.4916    0.0000 C   0  0  0  0  0  0  0  0  0  0  0  0
  1  2  1  0  0  0  0
  2  3  1  0  0  0  0
  1  4  2  0  0  0  0
  1  5  1  0  0  0  0
  2  6  1  0  0  0  0
  7  8  1  0  0  0  0
  8  9  1  0  0  0  0
  5  7  1  0  0  0  0
M  END
>  <cdx:groupId>
2492

>  <cdx:fragmentId>
2469

$$$$
