30212.cdx
  Mrv1902 05222410252D          

 24 27  0  0  0  0            999 V2000
    6.4888  -10.4290    0.0000 C   0  0  0  0  0  0  0  0  0  0  0  0
    7.2065  -10.8359    0.0000 C   0  0  0  0  0  0  0  0  0  0  0  0
    7.9177  -10.4179    0.0000 C   0  0  0  0  0  0  0  0  0  0  0  0
    7.9113   -9.5929    0.0000 C   0  0  0  0  0  0  0  0  0  0  0  0
    7.1937   -9.1859    0.0000 C   0  0  0  0  0  0  0  0  0  0  0  0
    6.4824   -9.6040    0.0000 C   0  0  0  0  0  0  0  0  0  0  0  0
    8.6226   -9.1749    0.0000 C   0  0  0  0  0  0  0  0  0  0  0  0
    8.6162   -8.3499    0.0000 C   0  0  2  0  0  0  0  0  0  0  0  0
    7.8985   -7.9429    0.0000 C   0  0  0  0  0  0  0  0  0  0  0  0
    7.1873   -8.3610    0.0000 C   0  0  0  0  0  0  0  0  0  0  0  0
    9.3274   -7.9319    0.0000 N   0  0  0  0  0  0  0  0  0  0  0  0
    9.3210   -7.1069    0.0000 C   0  0  0  0  0  0  0  0  0  0  0  0
    8.6034   -6.6999    0.0000 C   0  0  0  0  0  0  0  0  0  0  0  0
    7.8921   -7.1180    0.0000 C   0  0  0  0  0  0  0  0  0  0  0  0
    7.1745   -6.7110    0.0000 C   0  0  0  0  0  0  0  0  0  0  0  0
    6.4632   -7.1291    0.0000 C   0  0  0  0  0  0  0  0  0  0  0  0
    6.4696   -7.9540    0.0000 C   0  0  0  0  0  0  0  0  0  0  0  0
   10.0323   -6.6888    0.0000 O   0  0  0  0  0  0  0  0  0  0  0  0
    5.7584   -8.3721    0.0000 O   0  0  0  0  0  0  0  0  0  0  0  0
    5.7456   -6.7221    0.0000 O   0  0  0  0  0  0  0  0  0  0  0  0
    7.1681   -5.8860    0.0000 O   0  0  0  0  0  0  0  0  0  0  0  0
    5.7584   -9.1971    0.0000 C   0  0  0  0  0  0  0  0  0  0  0  0
    5.0311   -7.1346    0.0000 C   0  0  0  0  0  0  0  0  0  0  0  0
    9.3338   -8.7568    0.0000 H   0  0  0  0  0  0  0  0  0  0  0  0
  1  2  2  0  0  0  0
  2  3  1  0  0  0  0
  3  4  2  0  0  0  0
  4  5  1  0  0  0  0
  5  6  2  0  0  0  0
  6  1  1  0  0  0  0
  4  7  1  0  0  0  0
  7  8  1  0  0  0  0
  8  9  1  0  0  0  0
  9 10  2  0  0  0  0
 10  5  1  0  0  0  0
  8 11  1  0  0  0  0
 11 12  1  0  0  0  0
 12 13  1  0  0  0  0
 13 14  1  0  0  0  0
 14  9  1  0  0  0  0
 14 15  2  0  0  0  0
 15 16  1  0  0  0  0
 16 17  2  0  0  0  0
 17 10  1  0  0  0  0
 12 18  2  0  0  0  0
 17 19  1  0  0  0  0
 16 20  1  0  0  0  0
 15 21  1  0  0  0  0
 19 22  1  0  0  0  0
 20 23  1  0  0  0  0
  8 24  1  1  0  0  0
M  END
>  <cdx:fragmentId>
5

$$$$
