302133.cdx
  Mrv1902 05222410252D          

 38 38  0  0  0  0            999 V2000
    3.2227  -13.3203    0.0000 C   0  0  0  0  0  0  0  0  0  0  0  0
    3.9371  -12.9078    0.0000 C   0  0  0  0  0  0  0  0  0  0  0  0
    4.6516  -13.3203    0.0000 C   0  0  0  0  0  0  0  0  0  0  0  0
    5.3661  -12.9078    0.0000 C   0  0  0  0  0  0  0  0  0  0  0  0
    6.0805  -13.3203    0.0000 C   0  0  0  0  0  0  0  0  0  0  0  0
    6.7950  -12.9078    0.0000 C   0  0  0  0  0  0  0  0  0  0  0  0
    7.5095  -13.3203    0.0000 C   0  0  0  0  0  0  0  0  0  0  0  0
    8.2240  -12.9078    0.0000 C   0  0  0  0  0  0  0  0  0  0  0  0
    8.9384  -13.3203    0.0000 C   0  0  0  0  0  0  0  0  0  0  0  0
    9.6529  -12.9078    0.0000 C   0  0  0  0  0  0  0  0  0  0  0  0
   10.3674  -13.3203    0.0000 C   0  0  0  0  0  0  0  0  0  0  0  0
   11.0818  -12.9078    0.0000 C   0  0  0  0  0  0  0  0  0  0  0  0
   11.7963  -13.3203    0.0000 C   0  0  0  0  0  0  0  0  0  0  0  0
   12.5108  -12.9078    0.0000 C   0  0  0  0  0  0  0  0  0  0  0  0
   13.2253  -13.3203    0.0000 C   0  0  0  0  0  0  0  0  0  0  0  0
   13.9397  -12.9078    0.0000 C   0  0  0  0  0  0  0  0  0  0  0  0
   14.6542  -13.3203    0.0000 C   0  0  0  0  0  0  0  0  0  0  0  0
   15.3687  -12.9078    0.0000 C   0  0  0  0  0  0  0  0  0  0  0  0
   16.0831  -13.3203    0.0000 C   0  0  0  0  0  0  0  0  0  0  0  0
   16.7976  -12.9078    0.0000 C   0  0  0  0  0  0  0  0  0  0  0  0
   17.5121  -13.3203    0.0000 C   0  0  0  0  0  0  0  0  0  0  0  0
   18.2265  -12.9078    0.0000 C   0  0  0  0  0  0  0  0  0  0  0  0
   18.9410  -13.3203    0.0000 O   0  0  0  0  0  0  0  0  0  0  0  0
   19.6555  -12.9078    0.0000 C   0  0  0  0  0  0  0  0  0  0  0  0
   20.3700  -13.3203    0.0000 C   0  0  0  0  0  0  0  0  0  0  0  0
   21.0844  -12.9078    0.0000 C   0  0  0  0  0  0  0  0  0  0  0  0
   21.7989  -13.3203    0.0000 C   0  0  0  0  0  0  0  0  0  0  0  0
    2.5082  -12.9078    0.0000 C   0  0  0  0  0  0  0  0  0  0  0  0
   21.7989  -14.1453    0.0000 C   0  0  0  0  0  0  0  0  0  0  0  0
   22.5134  -14.5578    0.0000 C   0  0  0  0  0  0  0  0  0  0  0  0
   23.2278  -14.1453    0.0000 C   0  0  0  0  0  0  0  0  0  0  0  0
   23.2278  -13.3203    0.0000 C   0  0  0  0  0  0  0  0  0  0  0  0
   22.5134  -12.9078    0.0000 C   0  0  0  0  0  0  0  0  0  0  0  0
   23.9423  -12.9078    0.0000 O   0  0  0  0  0  0  0  0  0  0  0  0
   23.9423  -12.0828    0.0000 C   0  0  0  0  0  0  0  0  0  0  0  0
   23.9423  -14.5578    0.0000 O   0  0  0  0  0  0  0  0  0  0  0  0
   19.6555  -12.0828    0.0000 O   0  0  0  0  0  0  0  0  0  0  0  0
   17.5121  -14.1453    0.0000 C   0  0  0  0  0  0  0  0  0  0  0  0
  1  2  1  0  0  0  0
  2  3  1  0  0  0  0
  3  4  1  0  0  0  0
  4  5  1  0  0  0  0
  5  6  1  0  0  0  0
  6  7  1  0  0  0  0
  7  8  1  0  0  0  0
  8  9  1  0  0  0  0
  9 10  1  0  0  0  0
 10 11  1  0  0  0  0
 11 12  1  0  0  0  0
 12 13  1  0  0  0  0
 13 14  1  0  0  0  0
 14 15  1  0  0  0  0
 15 16  1  0  0  0  0
 16 17  1  0  0  0  0
 17 18  1  0  0  0  0
 18 19  1  0  0  0  0
 19 20  1  0  0  0  0
 20 21  1  0  0  0  0
 21 22  1  0  0  0  0
 22 23  1  0  0  0  0
 23 24  1  0  0  0  0
 24 25  1  0  0  0  0
 25 26  2  0  0  0  0
 26 27  1  0  0  0  0
  1 28  1  0  0  0  0
 27 29  2  0  0  0  0
 29 30  1  0  0  0  0
 30 31  2  0  0  0  0
 31 32  1  0  0  0  0
 32 33  2  0  0  0  0
 33 27  1  0  0  0  0
 32 34  1  0  0  0  0
 34 35  1  0  0  0  0
 31 36  1  0  0  0  0
 24 37  2  0  0  0  0
 21 38  1  0  0  0  0
M  END
>  <cdx:fragmentId>
6323

$$$$
