302120.cdx
  Mrv1902 05222410242D          

 11 12  0  0  0  0            999 V2000
    6.9213   -5.3969    0.0000 C   0  0  0  0  0  0  0  0  0  0  0  0
    7.6358   -5.8094    0.0000 C   0  0  0  0  0  0  0  0  0  0  0  0
    7.6358   -6.6344    0.0000 C   0  0  0  0  0  0  0  0  0  0  0  0
    6.9213   -7.0469    0.0000 C   0  0  0  0  0  0  0  0  0  0  0  0
    6.2068   -5.8094    0.0000 C   0  0  0  0  0  0  0  0  0  0  0  0
    6.2068   -6.6344    0.0000 C   0  0  0  0  0  0  0  0  0  0  0  0
    5.4222   -6.8893    0.0000 O   0  0  0  0  0  0  0  0  0  0  0  0
    4.9373   -6.2219    0.0000 C   0  0  0  0  0  0  0  0  0  0  0  0
    5.4222   -5.5544    0.0000 O   0  0  0  0  0  0  0  0  0  0  0  0
    9.0647   -6.6344    0.0000 O   0  0  0  0  0  0  0  0  0  0  0  0
    8.3502   -7.0469    0.0000 C   0  0  0  0  0  0  0  0  0  0  0  0
 11  3  1  0  0  0  0
  4  6  2  0  0  0  0
  1  5  2  0  0  0  0
  2  1  1  0  0  0  0
  3  2  2  0  0  0  0
  4  3  1  0  0  0  0
  9  5  1  0  0  0  0
  6  5  1  0  0  0  0
  7  6  1  0  0  0  0
  8  7  1  0  0  0  0
  9  8  1  0  0  0  0
 11 10  1  0  0  0  0
M  END
>  <cdx:groupId>
4127

>  <cdx:fragmentId>
4100

$$$$
