302183.cdx
  Mrv1902 05222410262D          

 54 60  0  0  0  0            999 V2000
    4.9637  -10.4668    0.0000 C   0  0  2  0  0  0  0  0  0  0  0  0
    4.9637  -11.2918    0.0000 C   0  0  2  0  0  0  0  0  0  0  0  0
    5.6781  -11.7043    0.0000 C   0  0  0  0  0  0  0  0  0  0  0  0
    6.3926  -11.2918    0.0000 C   0  0  0  0  0  0  0  0  0  0  0  0
    7.1071  -11.7043    0.0000 C   0  0  0  0  0  0  0  0  0  0  0  0
    7.8215  -11.2918    0.0000 C   0  0  0  0  0  0  0  0  0  0  0  0
    7.8215  -10.4668    0.0000 C   0  0  0  0  0  0  0  0  0  0  0  0
    7.1071  -10.0543    0.0000 C   0  0  0  0  0  0  0  0  0  0  0  0
    6.3926  -10.4668    0.0000 C   0  0  0  0  0  0  0  0  0  0  0  0
    5.6781  -10.0543    0.0000 O   0  0  0  0  0  0  0  0  0  0  0  0
    4.2492  -11.7043    0.0000 O   0  0  0  0  0  0  0  0  0  0  0  0
    7.1071  -12.5293    0.0000 O   0  0  0  0  0  0  0  0  0  0  0  0
    8.5360  -10.0543    0.0000 O   0  0  0  0  0  0  0  0  0  0  0  0
    7.8215   -7.4968    0.0000 C   0  0  2  0  0  0  0  0  0  0  0  0
    7.8215   -8.3218    0.0000 C   0  0  1  0  0  0  0  0  0  0  0  0
    7.1071   -8.7343    0.0000 C   0  0  2  0  0  0  0  0  0  0  0  0
    6.3926   -8.3218    0.0000 C   0  0  0  0  0  0  0  0  0  0  0  0
    5.6781   -8.7343    0.0000 C   0  0  0  0  0  0  0  0  0  0  0  0
    4.9637   -8.3218    0.0000 C   0  0  0  0  0  0  0  0  0  0  0  0
    4.9637   -7.4968    0.0000 C   0  0  0  0  0  0  0  0  0  0  0  0
    5.6781   -7.0843    0.0000 C   0  0  0  0  0  0  0  0  0  0  0  0
    6.3926   -7.4968    0.0000 C   0  0  0  0  0  0  0  0  0  0  0  0
    7.1071   -7.0843    0.0000 O   0  0  0  0  0  0  0  0  0  0  0  0
    4.2492   -7.0843    0.0000 O   0  0  0  0  0  0  0  0  0  0  0  0
    5.6781   -9.5593    0.0000 O   0  0  0  0  0  0  0  0  0  0  0  0
    8.5360   -8.7343    0.0000 O   0  0  0  0  0  0  0  0  0  0  0  0
    8.5360   -7.0843    0.0000 C   0  0  0  0  0  0  0  0  0  0  0  0
    9.2505   -7.4968    0.0000 C   0  0  0  0  0  0  0  0  0  0  0  0
    9.9650   -7.0843    0.0000 C   0  0  0  0  0  0  0  0  0  0  0  0
    9.9650   -6.2593    0.0000 C   0  0  0  0  0  0  0  0  0  0  0  0
    9.2505   -5.8468    0.0000 C   0  0  0  0  0  0  0  0  0  0  0  0
    8.5360   -6.2593    0.0000 C   0  0  0  0  0  0  0  0  0  0  0  0
   10.6794   -5.8468    0.0000 O   0  0  0  0  0  0  0  0  0  0  0  0
   10.6794   -7.4968    0.0000 O   0  0  0  0  0  0  0  0  0  0  0  0
    4.2492  -10.0543    0.0000 C   0  0  0  0  0  0  0  0  0  0  0  0
    3.5347  -10.4668    0.0000 C   0  0  0  0  0  0  0  0  0  0  0  0
    2.8202  -10.0543    0.0000 C   0  0  0  0  0  0  0  0  0  0  0  0
    2.8202   -9.2293    0.0000 C   0  0  0  0  0  0  0  0  0  0  0  0
    3.5347   -8.8168    0.0000 C   0  0  0  0  0  0  0  0  0  0  0  0
    4.2492   -9.2293    0.0000 C   0  0  0  0  0  0  0  0  0  0  0  0
    2.1058   -8.8168    0.0000 O   0  0  0  0  0  0  0  0  0  0  0  0
    2.1058  -10.4668    0.0000 O   0  0  0  0  0  0  0  0  0  0  0  0
    7.8215   -9.1468    0.0000 H   0  0  0  0  0  0  0  0  0  0  0  0
    9.3610   -8.7393    0.0000 C   0  0  0  0  0  0  0  0  0  0  0  0
    9.7691   -9.4563    0.0000 C   0  0  0  0  0  0  0  0  0  0  0  0
    9.7778   -8.0273    0.0000 O   0  0  0  0  0  0  0  0  0  0  0  0
    9.3480  -10.1657    0.0000 C   0  0  0  0  0  0  0  0  0  0  0  0
    9.7691  -10.8851    0.0000 C   0  0  0  0  0  0  0  0  0  0  0  0
   10.5941  -10.8851    0.0000 C   0  0  0  0  0  0  0  0  0  0  0  0
   11.0152  -10.1657    0.0000 C   0  0  0  0  0  0  0  0  0  0  0  0
   10.5941   -9.4563    0.0000 C   0  0  0  0  0  0  0  0  0  0  0  0
   11.8402  -10.1631    0.0000 O   0  0  0  0  0  0  0  0  0  0  0  0
   11.0044  -11.6008    0.0000 O   0  0  0  0  0  0  0  0  0  0  0  0
    9.3588  -11.6008    0.0000 O   0  0  0  0  0  0  0  0  0  0  0  0
  1  2  1  0  0  0  0
  2  3  1  0  0  0  0
  3  4  1  0  0  0  0
  4  5  1  0  0  0  0
  5  6  2  0  0  0  0
  6  7  1  0  0  0  0
  7  8  2  0  0  0  0
  8  9  1  0  0  0  0
  4  9  2  0  0  0  0
  9 10  1  0  0  0  0
  1 10  1  0  0  0  0
  2 11  1  6  0  0  0
  5 12  1  0  0  0  0
  7 13  1  0  0  0  0
 14 15  1  0  0  0  0
 15 16  1  0  0  0  0
 16 17  1  0  0  0  0
 17 18  1  0  0  0  0
 18 19  2  0  0  0  0
 19 20  1  0  0  0  0
 20 21  2  0  0  0  0
 21 22  1  0  0  0  0
 17 22  2  0  0  0  0
 22 23  1  0  0  0  0
 14 23  1  0  0  0  0
 20 24  1  0  0  0  0
 18 25  1  0  0  0  0
 15 26  1  6  0  0  0
 27 28  1  0  0  0  0
 28 29  2  0  0  0  0
 29 30  1  0  0  0  0
 30 31  2  0  0  0  0
 31 32  1  0  0  0  0
 27 32  2  0  0  0  0
 30 33  1  0  0  0  0
 29 34  1  0  0  0  0
 14 27  1  6  0  0  0
  8 16  1  0  0  0  0
 35 36  1  0  0  0  0
 36 37  2  0  0  0  0
 37 38  1  0  0  0  0
 38 39  2  0  0  0  0
 39 40  1  0  0  0  0
 35 40  2  0  0  0  0
 38 41  1  0  0  0  0
 37 42  1  0  0  0  0
  1 35  1  1  0  0  0
 16 43  1  6  0  0  0
 26 44  1  0  0  0  0
 44 45  1  0  0  0  0
 44 46  2  0  0  0  0
 45 47  2  0  0  0  0
 47 48  1  0  0  0  0
 48 49  2  0  0  0  0
 49 50  1  0  0  0  0
 50 51  2  0  0  0  0
 51 45  1  0  0  0  0
 50 52  1  0  0  0  0
 49 53  1  0  0  0  0
 48 54  1  0  0  0  0
M  END
>  <cdx:fragmentId>
3821

$$$$
