302146.cdx
  Mrv1902 05222410272D          

 54 58  0  0  0  0            999 V2000
    6.9030   -8.0850    0.0000 C   0  0  2  0  0  0  0  0  0  0  0  0
    6.9030   -8.9100    0.0000 C   0  0  2  0  0  0  0  0  0  0  0  0
    7.6175   -9.3225    0.0000 C   0  0  1  0  0  0  0  0  0  0  0  0
    8.3320   -8.9100    0.0000 C   0  0  2  0  0  0  0  0  0  0  0  0
    8.3320   -8.0850    0.0000 C   0  0  1  0  0  0  0  0  0  0  0  0
    7.6175   -7.6725    0.0000 O   0  0  0  0  0  0  0  0  0  0  0  0
    9.0464   -7.6725    0.0000 O   0  0  0  0  0  0  0  0  0  0  0  0
    6.1886   -7.6725    0.0000 C   0  0  0  0  0  0  0  0  0  0  0  0
    7.6175  -10.1475    0.0000 O   0  0  0  0  0  0  0  0  0  0  0  0
    6.1886   -9.3225    0.0000 O   0  0  0  0  0  0  0  0  0  0  0  0
    9.0464   -9.3225    0.0000 O   0  0  0  0  0  0  0  0  0  0  0  0
    6.1886   -6.8475    0.0000 O   0  0  0  0  0  0  0  0  0  0  0  0
    9.0464   -6.8475    0.0000 C   0  0  0  0  0  0  0  0  0  0  0  0
    9.7609   -6.4350    0.0000 C   0  0  0  0  0  0  0  0  0  0  0  0
    9.7609   -5.6100    0.0000 C   0  0  0  0  0  0  0  0  0  0  0  0
   10.4754   -5.1975    0.0000 C   0  0  0  0  0  0  0  0  0  0  0  0
   10.4754   -4.3725    0.0000 C   0  0  0  0  0  0  0  0  0  0  0  0
    9.7609   -3.9600    0.0000 C   0  0  0  0  0  0  0  0  0  0  0  0
    9.0464   -4.3725    0.0000 C   0  0  0  0  0  0  0  0  0  0  0  0
    9.0464   -5.1975    0.0000 C   0  0  0  0  0  0  0  0  0  0  0  0
    9.7609   -3.1350    0.0000 O   0  0  0  0  0  0  0  0  0  0  0  0
   11.1899   -3.9600    0.0000 O   0  0  0  0  0  0  0  0  0  0  0  0
    8.0307  -10.8616    0.0000 C   0  0  2  0  0  0  0  0  0  0  0  0
    7.6189  -11.5764    0.0000 O   0  0  0  0  0  0  0  0  0  0  0  0
    8.0321  -12.2905    0.0000 C   0  0  2  0  0  0  0  0  0  0  0  0
    8.8571  -12.2897    0.0000 C   0  0  1  0  0  0  0  0  0  0  0  0
    9.2689  -11.5748    0.0000 C   0  0  2  0  0  0  0  0  0  0  0  0
    8.8557  -10.8607    0.0000 C   0  0  1  0  0  0  0  0  0  0  0  0
    9.2703  -13.0037    0.0000 O   0  0  0  0  0  0  0  0  0  0  0  0
   10.0939  -11.5740    0.0000 O   0  0  0  0  0  0  0  0  0  0  0  0
    9.2675  -10.1459    0.0000 O   0  0  0  0  0  0  0  0  0  0  0  0
    7.6203  -13.0054    0.0000 C   0  0  0  0  0  0  0  0  0  0  0  0
    5.4741   -8.9100    0.0000 C   0  0  0  0  0  0  0  0  0  0  0  0
    4.7596   -9.3225    0.0000 C   0  0  0  0  0  0  0  0  0  0  0  0
    5.4741   -8.0850    0.0000 O   0  0  0  0  0  0  0  0  0  0  0  0
    4.0451   -8.9100    0.0000 C   0  0  0  0  0  0  0  0  0  0  0  0
    3.3307   -9.3225    0.0000 C   0  0  0  0  0  0  0  0  0  0  0  0
    2.6162   -8.9100    0.0000 C   0  0  0  0  0  0  0  0  0  0  0  0
    1.9017   -9.3225    0.0000 C   0  0  0  0  0  0  0  0  0  0  0  0
    1.9017  -10.1475    0.0000 C   0  0  0  0  0  0  0  0  0  0  0  0
    2.6162  -10.5600    0.0000 C   0  0  0  0  0  0  0  0  0  0  0  0
    3.3307  -10.1475    0.0000 C   0  0  0  0  0  0  0  0  0  0  0  0
    1.1873   -8.9100    0.0000 O   0  0  0  0  0  0  0  0  0  0  0  0
    1.1873  -10.5600    0.0000 O   0  0  0  0  0  0  0  0  0  0  0  0
    5.4741   -6.4350    0.0000 C   0  0  2  0  0  0  0  0  0  0  0  0
    5.4741   -5.6100    0.0000 O   0  0  0  0  0  0  0  0  0  0  0  0
    4.7596   -5.1975    0.0000 C   0  0  2  0  0  0  0  0  0  0  0  0
    4.0451   -5.6100    0.0000 C   0  0  1  0  0  0  0  0  0  0  0  0
    4.0451   -6.4350    0.0000 C   0  0  2  0  0  0  0  0  0  0  0  0
    4.7596   -6.8475    0.0000 C   0  0  1  0  0  0  0  0  0  0  0  0
    4.7596   -4.3725    0.0000 C   0  0  0  0  0  0  0  0  0  0  0  0
    3.3307   -5.1975    0.0000 O   0  0  0  0  0  0  0  0  0  0  0  0
    4.7596   -7.6725    0.0000 O   0  0  0  0  0  0  0  0  0  0  0  0
    3.3307   -6.8475    0.0000 O   0  0  0  0  0  0  0  0  0  0  0  0
  1  2  1  0  0  0  0
  2  3  1  0  0  0  0
  3  4  1  0  0  0  0
  4  5  1  0  0  0  0
  5  6  1  0  0  0  0
  6  1  1  0  0  0  0
  5  7  1  1  0  0  0
  1  8  1  1  0  0  0
  3  9  1  1  0  0  0
  2 10  1  6  0  0  0
  4 11  1  6  0  0  0
  8 12  1  0  0  0  0
  7 13  1  0  0  0  0
 13 14  1  0  0  0  0
 14 15  1  0  0  0  0
 15 16  2  0  0  0  0
 16 17  1  0  0  0  0
 17 18  2  0  0  0  0
 18 19  1  0  0  0  0
 19 20  2  0  0  0  0
 20 15  1  0  0  0  0
 18 21  1  0  0  0  0
 17 22  1  0  0  0  0
 23  9  1  1  0  0  0
 23 24  1  0  0  0  0
 24 25  1  0  0  0  0
 25 26  1  0  0  0  0
 26 27  1  0  0  0  0
 27 28  1  0  0  0  0
 28 23  1  0  0  0  0
 26 29  1  1  0  0  0
 27 30  1  6  0  0  0
 28 31  1  6  0  0  0
 25 32  1  6  0  0  0
 10 33  1  0  0  0  0
 33 34  1  0  0  0  0
 33 35  2  0  0  0  0
 34 36  2  0  0  0  0
 36 37  1  0  0  0  0
 37 38  2  0  0  0  0
 38 39  1  0  0  0  0
 39 40  2  0  0  0  0
 40 41  1  0  0  0  0
 41 42  2  0  0  0  0
 42 37  1  0  0  0  0
 39 43  1  0  0  0  0
 40 44  1  0  0  0  0
 45 12  1  1  0  0  0
 45 46  1  0  0  0  0
 46 47  1  0  0  0  0
 47 48  1  0  0  0  0
 48 49  1  0  0  0  0
 49 50  1  0  0  0  0
 50 45  1  0  0  0  0
 47 51  1  6  0  0  0
 48 52  1  1  0  0  0
 50 53  1  6  0  0  0
 49 54  1  6  0  0  0
M  END
>  <cdx:fragmentId>
130

$$$$
