302195.cdx
  Mrv1902 05222410272D          

 12 11  0  0  0  0            999 V2000
    8.4967   -6.4916    0.0000 C   0  0  0  0  0  0  0  0  0  0  0  0
    7.7822   -6.9041    0.0000 N   0  0  0  0  0  0  0  0  0  0  0  0
    8.4967   -5.6666    0.0000 O   0  0  0  0  0  0  0  0  0  0  0  0
    9.2112   -6.9041    0.0000 S   0  0  0  0  0  0  0  0  0  0  0  0
    7.0678   -6.4916    0.0000 C   0  0  0  0  0  0  0  0  0  0  0  0
    6.3533   -6.9041    0.0000 C   0  0  0  0  0  0  0  0  0  0  0  0
    5.6388   -6.4916    0.0000 C   0  0  0  0  0  0  0  0  0  0  0  0
    4.9244   -6.9041    0.0000 N   0  0  0  0  0  0  0  0  0  0  0  0
    4.9244   -7.7291    0.0000 C   0  0  0  0  0  0  0  0  0  0  0  0
    4.2099   -6.4916    0.0000 C   0  0  0  0  0  0  0  0  0  0  0  0
    9.9256   -6.4916    0.0000 C   0  0  0  0  0  0  0  0  0  0  0  0
   10.6401   -6.9041    0.0000 C   0  0  0  0  0  0  0  0  0  0  0  0
  1  2  1  0  0  0  0
  1  3  2  0  0  0  0
  1  4  1  0  0  0  0
  5  6  1  0  0  0  0
  6  7  1  0  0  0  0
  8  9  1  0  0  0  0
  8 10  1  0  0  0  0
  7  8  1  0  0  0  0
  2  5  1  0  0  0  0
 11 12  1  0  0  0  0
  4 11  1  0  0  0  0
M  END
>  <cdx:groupId>
2622

>  <cdx:fragmentId>
2604

$$$$
