302117.cdx
  Mrv1902 05222410212D          

  7  6  0  0  0  0            999 V2000
   15.8260  -13.3175    0.0000 C   0  0  0  0  0  0  0  0  0  0  0  0
   15.8260  -14.1425    0.0000 C   0  0  0  0  0  0  0  0  0  0  0  0
   16.5405  -14.5550    0.0000 C   0  0  0  0  0  0  0  0  0  0  0  0
   17.2549  -14.1425    0.0000 C   0  0  0  0  0  0  0  0  0  0  0  0
   15.1115  -14.5550    0.0000 O   0  0  0  0  0  0  0  0  0  0  0  0
   14.3970  -14.1425    0.0000 C   0  0  0  0  0  0  0  0  0  0  0  0
   13.6826  -14.5550    0.0000 C   0  0  0  0  0  0  0  0  0  0  0  0
  1  2  1  0  0  0  0
  2  3  1  0  0  0  0
  3  4  1  0  0  0  0
  6  7  1  0  0  0  0
  5  6  1  0  0  0  0
  2  5  1  0  0  0  0
M  END
>  <cdx:groupId>
6023

>  <cdx:fragmentId>
6006

$$$$
