302176.cdx
  Mrv1902 05222410182D          

 22 25  0  0  0  0            999 V2000
    9.3329   -5.2392    0.0000 C   0  0  0  0  0  0  0  0  0  0  0  0
   10.1399   -5.0677    0.0000 C   0  0  0  0  0  0  0  0  0  0  0  0
    5.4355   -7.1037    0.0000 C   0  0  0  0  0  0  0  0  0  0  0  0
    4.7210   -7.5162    0.0000 C   0  0  0  0  0  0  0  0  0  0  0  0
    4.7210   -8.3412    0.0000 C   0  0  0  0  0  0  0  0  0  0  0  0
    5.4355   -8.7537    0.0000 C   0  0  0  0  0  0  0  0  0  0  0  0
    6.1499   -8.3412    0.0000 C   0  0  0  0  0  0  0  0  0  0  0  0
    6.8644   -8.7537    0.0000 C   0  0  0  0  0  0  0  0  0  0  0  0
    7.5789   -8.3412    0.0000 C   0  0  0  0  0  0  0  0  0  0  0  0
    7.5789   -7.5162    0.0000 C   0  0  0  0  0  0  0  0  0  0  0  0
    8.2934   -7.1037    0.0000 C   0  0  0  0  0  0  0  0  0  0  0  0
    9.0780   -7.3587    0.0000 C   0  0  0  0  0  0  0  0  0  0  0  0
    9.5629   -6.6912    0.0000 C   0  0  0  0  0  0  0  0  0  0  0  0
    9.0780   -6.0238    0.0000 C   0  0  0  0  0  0  0  0  0  0  0  0
    8.2934   -6.2787    0.0000 C   0  0  0  0  0  0  0  0  0  0  0  0
    7.5789   -5.8662    0.0000 C   0  0  0  0  0  0  0  0  0  0  0  0
    6.8644   -6.2787    0.0000 C   0  0  0  0  0  0  0  0  0  0  0  0
    6.8644   -7.1037    0.0000 C   0  0  0  0  0  0  0  0  0  0  0  0
    6.1499   -7.5162    0.0000 C   0  0  0  0  0  0  0  0  0  0  0  0
    8.3796   -5.4583    0.0000 C   0  0  0  0  0  0  0  0  0  0  0  0
    6.1499   -6.6912    0.0000 C   0  0  0  0  0  0  0  0  0  0  0  0
    8.7809   -4.6261    0.0000 O   0  0  0  0  0  0  0  0  0  0  0  0
  1  2  1  0  0  0  0
  3  4  1  0  0  0  0
  4  5  1  0  0  0  0
  5  6  1  0  0  0  0
  6  7  1  0  0  0  0
  7  8  1  0  0  0  0
  8  9  1  0  0  0  0
  9 10  1  0  0  0  0
 10 11  1  0  0  0  0
 11 12  1  0  0  0  0
 12 13  1  0  0  0  0
 13 14  2  0  0  0  0
 14 15  1  0  0  0  0
 11 15  1  0  0  0  0
 15 16  1  0  0  0  0
 16 17  1  0  0  0  0
 17 18  1  0  0  0  0
 10 18  1  0  0  0  0
 18 19  1  0  0  0  0
  7 19  1  0  0  0  0
  3 19  1  0  0  0  0
 15 20  1  0  0  0  0
 19 21  1  0  0  0  0
  1 14  1  0  0  0  0
  1 22  2  0  0  0  0
M  END
>  <cdx:groupId>
1462

>  <cdx:fragmentId>
1400

$$$$
