30215.cdx
  Mrv1902 05222410242D          

 16 16  0  0  0  0            999 V2000
    5.7181   -7.3964    0.0000 C   0  0  0  0  0  0  0  0  0  0  0  0
    5.7181   -8.2214    0.0000 C   0  0  0  0  0  0  0  0  0  0  0  0
    6.4325   -8.6339    0.0000 C   0  0  0  0  0  0  0  0  0  0  0  0
    7.1470   -8.2214    0.0000 C   0  0  0  0  0  0  0  0  0  0  0  0
    7.1470   -7.3964    0.0000 C   0  0  0  0  0  0  0  0  0  0  0  0
    6.4325   -6.9839    0.0000 C   0  0  0  0  0  0  0  0  0  0  0  0
    5.0036   -8.6339    0.0000 C   0  0  0  0  0  0  0  0  0  0  0  0
    5.0036   -6.9839    0.0000 C   0  0  0  0  0  0  0  0  0  0  0  0
    4.2891   -7.3964    0.0000 O   0  0  0  0  0  0  0  0  0  0  0  0
    6.0200   -6.2694    0.0000 C   0  0  0  0  0  0  0  0  0  0  0  0
    6.8450   -6.2694    0.0000 C   0  0  0  0  0  0  0  0  0  0  0  0
    7.8615   -8.6339    0.0000 C   0  0  0  0  0  0  0  0  0  0  0  0
    7.8615   -9.4589    0.0000 C   0  0  0  0  0  0  0  0  0  0  0  0
    8.5759   -9.8714    0.0000 C   0  0  0  0  0  0  0  0  0  0  0  0
    8.5759  -10.6964    0.0000 C   0  0  0  0  0  0  0  0  0  0  0  0
    9.2904   -9.4589    0.0000 C   0  0  0  0  0  0  0  0  0  0  0  0
  1  2  2  0  0  0  0
  2  3  1  0  0  0  0
  3  4  1  0  0  0  0
  4  5  1  0  0  0  0
  5  6  1  0  0  0  0
  6  1  1  0  0  0  0
  2  7  1  0  0  0  0
  1  8  1  0  0  0  0
  8  9  1  0  0  0  0
  6 10  1  0  0  0  0
  6 11  1  0  0  0  0
  4 12  1  0  0  0  0
 12 13  1  0  0  0  0
 13 14  2  0  0  0  0
 14 15  1  0  0  0  0
 14 16  1  0  0  0  0
M  END
>  <cdx:fragmentId>
5

$$$$
