30214.cdx
  Mrv1902 05222410242D          

 42 44  0  0  0  0            999 V2000
    2.8168   -9.6101    0.0000 C   0  0  2  0  0  0  0  0  0  0  0  0
    2.8168  -10.4351    0.0000 C   0  0  2  0  0  0  0  0  0  0  0  0
    3.5313  -10.8476    0.0000 C   0  0  1  0  0  0  0  0  0  0  0  0
    4.2457  -10.4351    0.0000 C   0  0  2  0  0  0  0  0  0  0  0  0
    4.2457   -9.6101    0.0000 C   0  0  1  0  0  0  0  0  0  0  0  0
    3.5313   -9.1976    0.0000 O   0  0  0  0  0  0  0  0  0  0  0  0
    4.9602   -9.1976    0.0000 O   0  0  0  0  0  0  0  0  0  0  0  0
    4.9602   -8.3726    0.0000 C   0  0  0  0  0  0  0  0  0  0  0  0
    4.2457   -7.9601    0.0000 O   0  0  0  0  0  0  0  0  0  0  0  0
    5.6747   -7.9601    0.0000 C   0  0  0  0  0  0  0  0  0  0  0  0
    5.6747   -7.1351    0.0000 C   0  0  0  0  0  0  0  0  0  0  0  0
    7.1036   -7.1351    0.0000 C   0  0  0  0  0  0  0  0  0  0  0  0
    6.3892   -6.7226    0.0000 C   0  0  0  0  0  0  0  0  0  0  0  0
    7.8181   -6.7226    0.0000 C   0  0  0  0  0  0  0  0  0  0  0  0
    7.8181   -5.8976    0.0000 C   0  0  0  0  0  0  0  0  0  0  0  0
    7.1036   -5.4851    0.0000 C   0  0  0  0  0  0  0  0  0  0  0  0
    6.3892   -5.8976    0.0000 C   0  0  0  0  0  0  0  0  0  0  0  0
    8.5326   -5.4851    0.0000 O   0  0  0  0  0  0  0  0  0  0  0  0
    7.1036   -4.6601    0.0000 O   0  0  0  0  0  0  0  0  0  0  0  0
    8.5326   -7.1351    0.0000 O   0  0  0  0  0  0  0  0  0  0  0  0
    8.5326   -7.9601    0.0000 C   0  0  0  0  0  0  0  0  0  0  0  0
    4.9602  -10.8476    0.0000 O   0  0  0  0  0  0  0  0  0  0  0  0
    5.6747  -10.4351    0.0000 C   0  0  0  0  0  0  0  0  0  0  0  0
    5.6747   -9.6101    0.0000 O   0  0  0  0  0  0  0  0  0  0  0  0
    6.3892  -10.8476    0.0000 C   0  0  0  0  0  0  0  0  0  0  0  0
    7.1036  -10.4351    0.0000 C   0  0  0  0  0  0  0  0  0  0  0  0
    7.8181  -11.6726    0.0000 C   0  0  0  0  0  0  0  0  0  0  0  0
    7.8181  -10.8476    0.0000 C   0  0  0  0  0  0  0  0  0  0  0  0
    8.5326  -12.0851    0.0000 C   0  0  0  0  0  0  0  0  0  0  0  0
    9.2470  -11.6726    0.0000 C   0  0  0  0  0  0  0  0  0  0  0  0
    9.2470  -10.8476    0.0000 C   0  0  0  0  0  0  0  0  0  0  0  0
    8.5326  -10.4351    0.0000 C   0  0  0  0  0  0  0  0  0  0  0  0
    8.5326  -12.9101    0.0000 O   0  0  0  0  0  0  0  0  0  0  0  0
    9.9615  -12.0851    0.0000 O   0  0  0  0  0  0  0  0  0  0  0  0
    9.9615   -9.6101    0.0000 C   0  0  0  0  0  0  0  0  0  0  0  0
    9.9615  -10.4351    0.0000 O   0  0  0  0  0  0  0  0  0  0  0  0
    2.1023   -9.1976    0.0000 C   0  0  0  0  0  0  0  0  0  0  0  0
    1.3879   -9.6101    0.0000 O   0  0  0  0  0  0  0  0  0  0  0  0
    6.3892   -4.2476    0.0000 C   0  0  0  0  0  0  0  0  0  0  0  0
    7.8181  -13.3226    0.0000 C   0  0  0  0  0  0  0  0  0  0  0  0
    3.5313  -11.6726    0.0000 O   0  0  0  0  0  0  0  0  0  0  0  0
    2.1023  -10.8476    0.0000 O   0  0  0  0  0  0  0  0  0  0  0  0
  1  2  1  0  0  0  0
  2  3  1  0  0  0  0
  3  4  1  0  0  0  0
  4  5  1  0  0  0  0
  5  6  1  0  0  0  0
  6  1  1  0  0  0  0
  5  7  1  1  0  0  0
  7  8  1  0  0  0  0
  8  9  2  0  0  0  0
  8 10  1  0  0  0  0
 10 11  2  0  0  0  0
 12 13  1  0  0  0  0
 13 11  1  0  0  0  0
 12 14  2  0  0  0  0
 14 15  1  0  0  0  0
 15 16  2  0  0  0  0
 16 17  1  0  0  0  0
 17 13  2  0  0  0  0
 15 18  1  0  0  0  0
 19 16  1  0  0  0  0
 14 20  1  0  0  0  0
 20 21  1  0  0  0  0
  4 22  1  6  0  0  0
 22 23  1  0  0  0  0
 23 24  2  0  0  0  0
 23 25  1  0  0  0  0
 25 26  2  0  0  0  0
 27 28  2  0  0  0  0
 28 26  1  0  0  0  0
 27 29  1  0  0  0  0
 29 30  2  0  0  0  0
 30 31  1  0  0  0  0
 31 32  2  0  0  0  0
 32 28  1  0  0  0  0
 29 33  1  0  0  0  0
 34 30  1  0  0  0  0
 35 36  1  0  0  0  0
 36 31  1  0  0  0  0
  1 37  1  1  0  0  0
 37 38  1  0  0  0  0
 19 39  1  0  0  0  0
 33 40  1  0  0  0  0
  3 41  1  1  0  0  0
  2 42  1  6  0  0  0
M  END
>  <cdx:fragmentId>
5

$$$$
