302119.cdx
  Mrv1902 05222410242D          

 13 14  0  0  0  0            999 V2000
   14.9525  -13.2413    0.0000 C   0  0  2  0  0  0  0  0  0  0  0  0
   15.6670  -13.6538    0.0000 C   0  0  1  0  0  0  0  0  0  0  0  0
   15.6670  -14.4788    0.0000 C   0  0  0  0  0  0  0  0  0  0  0  0
   14.9525  -14.8913    0.0000 C   0  0  1  0  0  0  0  0  0  0  0  0
   14.2380  -14.4788    0.0000 C   0  0  0  0  0  0  0  0  0  0  0  0
   14.2380  -13.6538    0.0000 C   0  0  0  0  0  0  0  0  0  0  0  0
   14.6169  -14.0667    0.0000 C   0  0  0  0  0  0  0  0  0  0  0  0
   16.0795  -12.9393    0.0000 O   0  0  0  0  0  0  0  0  0  0  0  0
   16.4920  -14.4788    0.0000 C   0  0  0  0  0  0  0  0  0  0  0  0
   16.0795  -15.1933    0.0000 C   0  0  0  0  0  0  0  0  0  0  0  0
   16.4920  -13.6538    0.0000 C   0  0  0  0  0  0  0  0  0  0  0  0
   14.9525  -12.4163    0.0000 H   0  0  0  0  0  0  0  0  0  0  0  0
   14.9525  -15.7163    0.0000 H   0  0  0  0  0  0  0  0  0  0  0  0
  1  2  1  0  0  0  0
  2  3  1  0  0  0  0
  3  4  1  0  0  0  0
  4  5  1  0  0  0  0
  5  6  1  0  0  0  0
  1  6  1  0  0  0  0
  1  7  1  6  0  0  0
  4  7  1  6  0  0  0
  2  8  1  6  0  0  0
  3  9  1  0  0  0  0
  3 10  1  0  0  0  0
  2 11  1  1  0  0  0
  1 12  1  0  0  0  0
  4 13  1  0  0  0  0
M  END
>  <cdx:groupId>
6065

>  <cdx:fragmentId>
6028

$$$$
