302180.cdx
  Mrv1902 05222410262D          

 25 27  0  0  0  0            999 V2000
    7.5612   -6.2967    0.0000 C   0  0  0  0  0  0  0  0  0  0  0  0
    7.5612   -5.4717    0.0000 C   0  0  0  0  0  0  0  0  0  0  0  0
    6.8467   -5.0592    0.0000 C   0  0  0  0  0  0  0  0  0  0  0  0
    6.1322   -5.4717    0.0000 C   0  0  0  0  0  0  0  0  0  0  0  0
    5.4178   -5.0592    0.0000 C   0  0  0  0  0  0  0  0  0  0  0  0
    4.7033   -5.4717    0.0000 C   0  0  0  0  0  0  0  0  0  0  0  0
    4.7033   -6.2967    0.0000 C   0  0  0  0  0  0  0  0  0  0  0  0
    5.4178   -6.7092    0.0000 C   0  0  0  0  0  0  0  0  0  0  0  0
    6.1322   -6.2967    0.0000 C   0  0  0  0  0  0  0  0  0  0  0  0
    6.8467   -6.7092    0.0000 O   0  0  0  0  0  0  0  0  0  0  0  0
    6.8467   -4.2342    0.0000 O   0  0  0  0  0  0  0  0  0  0  0  0
    7.9737   -7.0112    0.0000 C   0  0  0  0  0  0  0  0  0  0  0  0
    7.5612   -7.7257    0.0000 C   0  0  0  0  0  0  0  0  0  0  0  0
    7.9737   -8.4401    0.0000 C   0  0  0  0  0  0  0  0  0  0  0  0
    8.7987   -8.4401    0.0000 C   0  0  0  0  0  0  0  0  0  0  0  0
    7.5612   -9.1546    0.0000 C   0  0  0  0  0  0  0  0  0  0  0  0
    8.3862   -6.2967    0.0000 C   0  0  0  0  0  0  0  0  0  0  0  0
    8.7987   -5.5823    0.0000 C   0  0  0  0  0  0  0  0  0  0  0  0
    9.6237   -5.5823    0.0000 C   0  0  0  0  0  0  0  0  0  0  0  0
   10.0362   -6.2967    0.0000 C   0  0  0  0  0  0  0  0  0  0  0  0
    9.6237   -7.0112    0.0000 C   0  0  0  0  0  0  0  0  0  0  0  0
    8.7987   -7.0112    0.0000 C   0  0  0  0  0  0  0  0  0  0  0  0
   10.8612   -6.2967    0.0000 O   0  0  0  0  0  0  0  0  0  0  0  0
    3.9888   -6.7092    0.0000 O   0  0  0  0  0  0  0  0  0  0  0  0
    5.4178   -4.2342    0.0000 O   0  0  0  0  0  0  0  0  0  0  0  0
  1  2  1  0  0  0  0
  2  3  1  0  0  0  0
  3  4  1  0  0  0  0
  4  5  1  0  0  0  0
  5  6  2  0  0  0  0
  6  7  1  0  0  0  0
  7  8  2  0  0  0  0
  8  9  1  0  0  0  0
  4  9  2  0  0  0  0
  9 10  1  0  0  0  0
  1 10  1  0  0  0  0
  3 11  2  0  0  0  0
 12 13  1  0  0  0  0
 13 14  2  0  0  0  0
 14 15  1  0  0  0  0
 14 16  1  0  0  0  0
  1 12  1  0  0  0  0
 17 18  1  0  0  0  0
 18 19  2  0  0  0  0
 19 20  1  0  0  0  0
 20 21  2  0  0  0  0
 21 22  1  0  0  0  0
 17 22  2  0  0  0  0
 20 23  1  0  0  0  0
  1 17  1  0  0  0  0
  7 24  1  0  0  0  0
  5 25  1  0  0  0  0
M  END
>  <cdx:groupId>
1776

>  <cdx:fragmentId>
1702

$$$$
