302194.cdx
  Mrv1902 05222410262D          

 15 15  0  0  0  0            999 V2000
    7.5745   -7.4679    0.0000 C   0  0  0  0  0  0  0  0  0  0  0  0
    6.8600   -7.0554    0.0000 C   0  0  0  0  0  0  0  0  0  0  0  0
    6.1455   -7.4679    0.0000 C   0  0  0  0  0  0  0  0  0  0  0  0
    5.4311   -7.0554    0.0000 C   0  0  0  0  0  0  0  0  0  0  0  0
    5.4311   -6.2304    0.0000 C   0  0  0  0  0  0  0  0  0  0  0  0
    6.1455   -5.8179    0.0000 C   0  0  0  0  0  0  0  0  0  0  0  0
    6.8600   -6.2304    0.0000 C   0  0  0  0  0  0  0  0  0  0  0  0
    7.5745   -8.2929    0.0000 O   0  0  0  0  0  0  0  0  0  0  0  0
    8.2890   -7.0554    0.0000 O   0  0  0  0  0  0  0  0  0  0  0  0
    6.1455   -4.9929    0.0000 O   0  0  0  0  0  0  0  0  0  0  0  0
    4.7166   -5.8179    0.0000 O   0  0  0  0  0  0  0  0  0  0  0  0
    4.7166   -7.4679    0.0000 O   0  0  0  0  0  0  0  0  0  0  0  0
    9.0034   -7.4679    0.0000 C   0  0  0  0  0  0  0  0  0  0  0  0
    9.7179   -7.0554    0.0000 C   0  0  0  0  0  0  0  0  0  0  0  0
   10.4324   -7.4679    0.0000 C   0  0  0  0  0  0  0  0  0  0  0  0
  1  2  1  0  0  0  0
  2  3  1  0  0  0  0
  3  4  2  0  0  0  0
  4  5  1  0  0  0  0
  5  6  2  0  0  0  0
  6  7  1  0  0  0  0
  2  7  2  0  0  0  0
  1  8  2  0  0  0  0
  1  9  1  0  0  0  0
  6 10  1  0  0  0  0
  5 11  1  0  0  0  0
  4 12  1  0  0  0  0
 13 14  1  0  0  0  0
 14 15  1  0  0  0  0
  9 13  1  0  0  0  0
M  END
>  <cdx:groupId>
2584

>  <cdx:fragmentId>
2542

$$$$
