302103.cdx
  Mrv1902 05222410212D          

 35 38  0  0  0  0            999 V2000
    4.0671  -10.3320    0.0000 C   0  0  0  0  0  0  0  0  0  0  0  0
    4.0671  -11.1570    0.0000 C   0  0  1  0  0  0  0  0  0  0  0  0
    4.7816  -11.5695    0.0000 C   0  0  0  0  0  0  0  0  0  0  0  0
    5.4961  -11.1570    0.0000 C   0  0  1  0  0  0  0  0  0  0  0  0
    5.4961  -10.3320    0.0000 C   0  0  2  0  0  0  0  0  0  0  0  0
    4.7816   -9.9195    0.0000 C   0  0  0  0  0  0  0  0  0  0  0  0
    6.2105  -11.5695    0.0000 C   0  0  0  0  0  0  0  0  0  0  0  0
    6.9250  -11.1570    0.0000 C   0  0  0  0  0  0  0  0  0  0  0  0
    6.9250  -10.3320    0.0000 C   0  0  0  0  0  0  0  0  0  0  0  0
    6.2105   -9.9195    0.0000 C   0  0  0  0  0  0  0  0  0  0  0  0
    7.6395   -9.9195    0.0000 C   0  0  2  0  0  0  0  0  0  0  0  0
    7.6395   -9.0945    0.0000 C   0  0  1  0  0  0  0  0  0  0  0  0
    6.9250   -8.6820    0.0000 C   0  0  0  0  0  0  0  0  0  0  0  0
    6.2105   -9.0945    0.0000 C   0  0  2  0  0  0  0  0  0  0  0  0
    8.4241  -10.1744    0.0000 C   0  0  0  0  0  0  0  0  0  0  0  0
    8.9090   -9.5070    0.0000 C   0  0  0  0  0  0  0  0  0  0  0  0
    8.4241   -8.8395    0.0000 C   0  0  1  0  0  0  0  0  0  0  0  0
    8.6376   -8.0427    0.0000 C   0  0  2  0  0  0  0  0  0  0  0  0
    7.6395  -11.5695    0.0000 O   0  0  0  0  0  0  0  0  0  0  0  0
    3.3527  -11.5695    0.0000 O   0  0  0  0  0  0  0  0  0  0  0  0
    5.1941  -12.2840    0.0000 C   0  0  0  0  0  0  0  0  0  0  0  0
    5.4961   -9.5070    0.0000 C   0  0  0  0  0  0  0  0  0  0  0  0
    5.4961   -8.6820    0.0000 O   0  0  0  0  0  0  0  0  0  0  0  0
    7.6395  -10.7445    0.0000 C   0  0  0  0  0  0  0  0  0  0  0  0
    9.2210   -8.6260    0.0000 H   0  0  0  0  0  0  0  0  0  0  0  0
    4.3691  -12.2840    0.0000 C   0  0  0  0  0  0  0  0  0  0  0  0
    7.6395   -8.2695    0.0000 C   0  0  0  0  0  0  0  0  0  0  0  0
    7.9232   -7.6302    0.0000 C   0  0  0  0  0  0  0  0  0  0  0  0
    5.4961  -11.9820    0.0000 H   0  0  0  0  0  0  0  0  0  0  0  0
    9.3998   -7.7269    0.0000 C   0  0  0  0  0  0  0  0  0  0  0  0
    9.5075   -6.9090    0.0000 C   0  0  0  0  0  0  0  0  0  0  0  0
   10.2697   -6.5933    0.0000 C   0  0  0  0  0  0  0  0  0  0  0  0
   10.3774   -5.7753    0.0000 C   0  0  0  0  0  0  0  0  0  0  0  0
    9.7229   -5.2731    0.0000 C   0  0  0  0  0  0  0  0  0  0  0  0
   11.1396   -5.4596    0.0000 C   0  0  0  0  0  0  0  0  0  0  0  0
  1  2  1  0  0  0  0
  2  3  1  0  0  0  0
  3  4  1  0  0  0  0
  4  5  1  0  0  0  0
  5  6  1  0  0  0  0
  6  1  1  0  0  0  0
  4  7  1  0  0  0  0
  7  8  1  0  0  0  0
  8  9  1  0  0  0  0
  9 10  2  0  0  0  0
 10  5  1  0  0  0  0
  9 11  1  0  0  0  0
 11 12  1  0  0  0  0
 12 13  1  0  0  0  0
 13 14  1  0  0  0  0
 14 10  1  0  0  0  0
 11 15  1  0  0  0  0
 15 16  1  0  0  0  0
 16 17  1  0  0  0  0
 17 12  1  0  0  0  0
 17 18  1  0  0  0  0
  8 19  2  0  0  0  0
  2 20  1  1  0  0  0
  3 21  1  0  0  0  0
  5 22  1  1  0  0  0
 14 23  1  1  0  0  0
 11 24  1  1  0  0  0
 17 25  1  1  0  0  0
  3 26  1  0  0  0  0
 12 27  1  6  0  0  0
 18 28  1  6  0  0  0
  4 29  1  6  0  0  0
 18 30  1  0  0  0  0
 30 31  1  0  0  0  0
 31 32  1  0  0  0  0
 32 33  2  0  0  0  0
 33 34  1  0  0  0  0
 33 35  1  0  0  0  0
M  END
>  <cdx:fragmentId>
5463

$$$$
