302196.cdx
  Mrv1902 05222410262D          

 22 23  0  0  0  0            999 V2000
    5.2816   -5.1991    0.0000 C   0  0  0  0  0  0  0  0  0  0  0  0
    5.2816   -6.0241    0.0000 C   0  0  0  0  0  0  0  0  0  0  0  0
    5.9961   -6.4366    0.0000 C   0  0  0  0  0  0  0  0  0  0  0  0
    5.9961   -7.2616    0.0000 C   0  0  0  0  0  0  0  0  0  0  0  0
    5.2816   -7.6741    0.0000 C   0  0  0  0  0  0  0  0  0  0  0  0
    4.5671   -7.2616    0.0000 C   0  0  0  0  0  0  0  0  0  0  0  0
    4.5671   -6.4366    0.0000 C   0  0  0  0  0  0  0  0  0  0  0  0
    5.9961   -4.7866    0.0000 O   0  0  0  0  0  0  0  0  0  0  0  0
    4.5671   -4.7866    0.0000 O   0  0  0  0  0  0  0  0  0  0  0  0
    6.7105   -7.6741    0.0000 O   0  0  0  0  0  0  0  0  0  0  0  0
    8.1395   -7.6741    0.0000 O   0  0  0  0  0  0  0  0  0  0  0  0
    7.4250   -7.2616    0.0000 C   0  0  2  0  0  0  0  0  0  0  0  0
    7.4250   -6.4366    0.0000 C   0  0  1  0  0  0  0  0  0  0  0  0
    8.1395   -6.0241    0.0000 C   0  0  2  0  0  0  0  0  0  0  0  0
    8.8539   -6.4366    0.0000 C   0  0  1  0  0  0  0  0  0  0  0  0
    8.8539   -7.2616    0.0000 C   0  0  1  0  0  0  0  0  0  0  0  0
    9.5684   -7.6741    0.0000 C   0  0  0  0  0  0  0  0  0  0  0  0
   10.2829   -7.2616    0.0000 O   0  0  0  0  0  0  0  0  0  0  0  0
    9.5684   -6.0241    0.0000 O   0  0  0  0  0  0  0  0  0  0  0  0
    8.1395   -5.1991    0.0000 O   0  0  0  0  0  0  0  0  0  0  0  0
    6.7105   -6.0241    0.0000 O   0  0  0  0  0  0  0  0  0  0  0  0
    5.2816   -8.4991    0.0000 O   0  0  0  0  0  0  0  0  0  0  0  0
  1  2  1  0  0  0  0
  2  3  1  0  0  0  0
  3  4  2  0  0  0  0
  4  5  1  0  0  0  0
  5  6  2  0  0  0  0
  6  7  1  0  0  0  0
  2  7  2  0  0  0  0
  1  8  2  0  0  0  0
  1  9  1  0  0  0  0
 11 12  1  0  0  0  0
 12 13  1  0  0  0  0
 13 14  1  0  0  0  0
 14 15  1  0  0  0  0
 15 16  1  0  0  0  0
 11 16  1  0  0  0  0
 17 18  1  0  0  0  0
 16 17  1  1  0  0  0
 15 19  1  6  0  0  0
 14 20  1  1  0  0  0
 13 21  1  6  0  0  0
 12 10  1  1  0  0  0
  4 10  1  0  0  0  0
  5 22  1  0  0  0  0
M  END
>  <cdx:groupId>
2692

>  <cdx:fragmentId>
2648

$$$$
