302116.cdx
  Mrv1902 05222410202D          

 25 27  0  0  0  0            999 V2000
   11.0752   -7.5149    0.0000 C   0  0  0  0  0  0  0  0  0  0  0  0
   10.3607   -7.1024    0.0000 C   0  0  0  0  0  0  0  0  0  0  0  0
   10.3607   -6.2774    0.0000 C   0  0  0  0  0  0  0  0  0  0  0  0
   11.0752   -5.8649    0.0000 C   0  0  0  0  0  0  0  0  0  0  0  0
   11.7896   -7.1024    0.0000 C   0  0  0  0  0  0  0  0  0  0  0  0
   11.7896   -6.2774    0.0000 C   0  0  0  0  0  0  0  0  0  0  0  0
   12.5743   -6.0225    0.0000 O   0  0  0  0  0  0  0  0  0  0  0  0
   13.0592   -6.6899    0.0000 C   0  0  0  0  0  0  0  0  0  0  0  0
   12.5743   -7.3574    0.0000 O   0  0  0  0  0  0  0  0  0  0  0  0
    2.5015   -5.8649    0.0000 C   0  0  0  0  0  0  0  0  0  0  0  0
    1.7870   -6.2774    0.0000 C   0  0  0  0  0  0  0  0  0  0  0  0
    1.7870   -7.1024    0.0000 C   0  0  0  0  0  0  0  0  0  0  0  0
    2.5015   -7.5149    0.0000 C   0  0  0  0  0  0  0  0  0  0  0  0
    3.2160   -7.1024    0.0000 C   0  0  0  0  0  0  0  0  0  0  0  0
    3.2160   -6.2774    0.0000 N   0  0  0  0  0  0  0  0  0  0  0  0
    3.9305   -5.0399    0.0000 O   0  0  0  0  0  0  0  0  0  0  0  0
    9.6462   -5.8649    0.0000 C   0  0  0  0  0  0  0  0  0  0  0  0
    8.9318   -6.2774    0.0000 C   0  0  0  0  0  0  0  0  0  0  0  0
    8.2173   -5.8649    0.0000 C   0  0  0  0  0  0  0  0  0  0  0  0
    7.5028   -6.2774    0.0000 C   0  0  0  0  0  0  0  0  0  0  0  0
    6.7883   -5.8649    0.0000 C   0  0  0  0  0  0  0  0  0  0  0  0
    6.0739   -6.2774    0.0000 C   0  0  0  0  0  0  0  0  0  0  0  0
    5.3594   -5.8649    0.0000 C   0  0  0  0  0  0  0  0  0  0  0  0
    4.6449   -6.2774    0.0000 C   0  0  0  0  0  0  0  0  0  0  0  0
    3.9305   -5.8649    0.0000 C   0  0  0  0  0  0  0  0  0  0  0  0
 17  3  1  0  0  0  0
  4  6  2  0  0  0  0
  1  5  2  0  0  0  0
  2  1  1  0  0  0  0
  3  2  2  0  0  0  0
  4  3  1  0  0  0  0
  9  5  1  0  0  0  0
  6  5  1  0  0  0  0
  7  6  1  0  0  0  0
  8  7  1  0  0  0  0
  9  8  1  0  0  0  0
 25 15  1  0  0  0  0
 15 10  1  0  0  0  0
 11 10  1  0  0  0  0
 12 11  1  0  0  0  0
 13 12  1  0  0  0  0
 14 13  1  0  0  0  0
 15 14  1  0  0  0  0
 25 16  2  0  0  0  0
 18 17  2  0  0  0  0
 19 18  1  0  0  0  0
 20 19  1  0  0  0  0
 21 20  1  0  0  0  0
 22 21  1  0  0  0  0
 23 22  1  0  0  0  0
 24 23  2  0  0  0  0
 25 24  1  0  0  0  0
M  END
>  <cdx:groupId>
4050

>  <cdx:fragmentId>
3976

$$$$
