302130.cdx
  Mrv1902 05222410252D          

 35 37  0  0  0  0            999 V2000
   12.5360   -4.9713    0.0000 C   0  0  0  0  0  0  0  0  0  0  0  0
   12.5238   -5.7963    0.0000 C   0  0  0  0  0  0  0  0  0  0  0  0
   11.8033   -6.1981    0.0000 C   0  0  0  0  0  0  0  0  0  0  0  0
   11.0950   -5.7751    0.0000 C   0  0  0  0  0  0  0  0  0  0  0  0
   11.1072   -4.9502    0.0000 C   0  0  0  0  0  0  0  0  0  0  0  0
   11.8277   -4.5483    0.0000 C   0  0  0  0  0  0  0  0  0  0  0  0
   13.2565   -4.5695    0.0000 O   0  0  0  0  0  0  0  0  0  0  0  0
   10.3745   -6.1770    0.0000 C   0  0  0  0  0  0  0  0  0  0  0  0
    9.6662   -5.7540    0.0000 C   0  0  0  0  0  0  0  0  0  0  0  0
    8.9457   -6.1559    0.0000 C   0  0  0  0  0  0  0  0  0  0  0  0
    8.9335   -6.9808    0.0000 C   0  0  0  0  0  0  0  0  0  0  0  0
    8.2374   -5.7329    0.0000 O   0  0  0  0  0  0  0  0  0  0  0  0
    6.8086   -5.7118    0.0000 O   0  0  0  0  0  0  0  0  0  0  0  0
    7.5169   -6.1348    0.0000 C   0  0  1  0  0  0  0  0  0  0  0  0
    7.5047   -6.9597    0.0000 C   0  0  1  0  0  0  0  0  0  0  0  0
    6.7842   -7.3616    0.0000 C   0  0  2  0  0  0  0  0  0  0  0  0
    6.0759   -6.9386    0.0000 C   0  0  1  0  0  0  0  0  0  0  0  0
    6.0881   -6.1136    0.0000 C   0  0  1  0  0  0  0  0  0  0  0  0
    5.3799   -5.6906    0.0000 C   0  0  0  0  0  0  0  0  0  0  0  0
    4.6594   -6.0925    0.0000 O   0  0  0  0  0  0  0  0  0  0  0  0
    3.9633   -4.8446    0.0000 O   0  0  0  0  0  0  0  0  0  0  0  0
    3.9511   -5.6695    0.0000 C   0  0  2  0  0  0  0  0  0  0  0  0
    3.2306   -6.0714    0.0000 C   0  0  1  0  0  0  0  0  0  0  0  0
    2.5223   -5.6484    0.0000 C   0  0  2  0  0  0  0  0  0  0  0  0
    2.5345   -4.8235    0.0000 C   0  0  2  0  0  0  0  0  0  0  0  0
    3.2550   -4.4216    0.0000 C   0  0  0  0  0  0  0  0  0  0  0  0
    1.8262   -4.4004    0.0000 O   0  0  0  0  0  0  0  0  0  0  0  0
    1.8018   -6.0503    0.0000 O   0  0  0  0  0  0  0  0  0  0  0  0
    3.2184   -6.8963    0.0000 O   0  0  0  0  0  0  0  0  0  0  0  0
    5.3555   -7.3404    0.0000 O   0  0  0  0  0  0  0  0  0  0  0  0
    6.7720   -8.1865    0.0000 O   0  0  0  0  0  0  0  0  0  0  0  0
    8.2130   -7.3827    0.0000 O   0  0  0  0  0  0  0  0  0  0  0  0
   10.2823   -4.9380    0.0000 C   0  0  0  0  0  0  0  0  0  0  0  0
   10.7053   -4.2297    0.0000 C   0  0  0  0  0  0  0  0  0  0  0  0
   11.7911   -7.0231    0.0000 C   0  0  0  0  0  0  0  0  0  0  0  0
  1  2  1  0  0  0  0
  2  3  2  0  0  0  0
  3  4  1  0  0  0  0
  4  5  1  0  0  0  0
  5  6  1  0  0  0  0
  1  6  1  0  0  0  0
  1  7  2  0  0  0  0
  8  9  2  0  0  0  0
  9 10  1  0  0  0  0
 10 11  1  0  0  0  0
 13 14  1  0  0  0  0
 14 15  1  0  0  0  0
 15 16  1  0  0  0  0
 16 17  1  0  0  0  0
 17 18  1  0  0  0  0
 13 18  1  0  0  0  0
 21 22  1  0  0  0  0
 22 23  1  0  0  0  0
 23 24  1  0  0  0  0
 24 25  1  0  0  0  0
 25 26  1  0  0  0  0
 21 26  1  0  0  0  0
 25 27  1  1  0  0  0
 24 28  1  1  0  0  0
 23 29  1  6  0  0  0
 22 20  1  1  0  0  0
 19 20  1  0  0  0  0
 18 19  1  1  0  0  0
 17 30  1  6  0  0  0
 16 31  1  1  0  0  0
 15 32  1  6  0  0  0
 14 12  1  6  0  0  0
 10 12  1  0  0  0  0
  4  8  1  0  0  0  0
  5 33  1  0  0  0  0
  5 34  1  0  0  0  0
  3 35  1  0  0  0  0
M  END
>  <cdx:fragmentId>
138

$$$$
