302193.cdx
  Mrv1902 05222410282D          

  8  7  0  0  0  0            999 V2000
    8.0707   -7.7946    0.0000 C   0  0  0  0  0  0  0  0  0  0  0  0
    8.7852   -7.3821    0.0000 C   0  0  0  0  0  0  0  0  0  0  0  0
    9.4997   -7.7946    0.0000 C   0  0  0  0  0  0  0  0  0  0  0  0
    7.3563   -7.3821    0.0000 O   0  0  0  0  0  0  0  0  0  0  0  0
    6.6418   -7.7946    0.0000 C   0  0  0  0  0  0  0  0  0  0  0  0
    5.9273   -7.3821    0.0000 C   0  0  0  0  0  0  0  0  0  0  0  0
    5.2128   -7.7946    0.0000 C   0  0  0  0  0  0  0  0  0  0  0  0
    6.6418   -8.6196    0.0000 O   0  0  0  0  0  0  0  0  0  0  0  0
  1  2  1  0  0  0  0
  2  3  1  0  0  0  0
  1  4  1  0  0  0  0
  5  6  1  0  0  0  0
  6  7  1  0  0  0  0
  5  8  2  0  0  0  0
  4  5  1  0  0  0  0
M  END
>  <cdx:groupId>
899

>  <cdx:fragmentId>
864

$$$$
