302177.cdx
  Mrv1902 05222410192D          

 28 31  0  0  0  0            999 V2000
    5.7169   -6.6992    0.0000 C   0  0  0  0  0  0  0  0  0  0  0  0
    5.0024   -7.1117    0.0000 C   0  0  0  0  0  0  0  0  0  0  0  0
    5.0024   -7.9367    0.0000 C   0  0  0  0  0  0  0  0  0  0  0  0
    5.7169   -8.3492    0.0000 C   0  0  0  0  0  0  0  0  0  0  0  0
    6.4314   -7.9367    0.0000 C   0  0  0  0  0  0  0  0  0  0  0  0
    7.1458   -8.3492    0.0000 C   0  0  0  0  0  0  0  0  0  0  0  0
    7.8603   -7.9367    0.0000 C   0  0  0  0  0  0  0  0  0  0  0  0
    7.8603   -7.1117    0.0000 C   0  0  1  0  0  0  0  0  0  0  0  0
    8.5748   -6.6992    0.0000 C   0  0  2  0  0  0  0  0  0  0  0  0
    9.3594   -6.9541    0.0000 C   0  0  0  0  0  0  0  0  0  0  0  0
    9.8443   -6.2867    0.0000 C   0  0  2  0  0  0  0  0  0  0  0  0
    9.3594   -5.6192    0.0000 C   0  0  1  0  0  0  0  0  0  0  0  0
    8.5748   -5.8742    0.0000 C   0  0  1  0  0  0  0  0  0  0  0  0
    7.8603   -5.4617    0.0000 C   0  0  0  0  0  0  0  0  0  0  0  0
    7.1458   -5.8742    0.0000 C   0  0  0  0  0  0  0  0  0  0  0  0
    7.1458   -6.6992    0.0000 C   0  0  2  0  0  0  0  0  0  0  0  0
    6.4314   -7.1117    0.0000 C   0  0  1  0  0  0  0  0  0  0  0  0
    4.2879   -8.3492    0.0000 O   0  0  0  0  0  0  0  0  0  0  0  0
    7.1458   -9.1742    0.0000 C   0  0  0  0  0  0  0  0  0  0  0  0
   10.6693   -6.2867    0.0000 C   0  0  0  0  0  0  0  0  0  0  0  0
    8.6610   -5.0537    0.0000 C   0  0  0  0  0  0  0  0  0  0  0  0
    6.4314   -6.2867    0.0000 C   0  0  0  0  0  0  0  0  0  0  0  0
    9.6143   -4.8346    0.0000 C   0  0  0  0  0  0  0  0  0  0  0  0
    9.0623   -4.2215    0.0000 O   0  0  0  0  0  0  0  0  0  0  0  0
   10.4213   -4.6631    0.0000 C   0  0  0  0  0  0  0  0  0  0  0  0
    7.8603   -6.2867    0.0000 H   0  0  0  0  0  0  0  0  0  0  0  0
    7.1458   -7.5242    0.0000 H   0  0  0  0  0  0  0  0  0  0  0  0
    8.5748   -7.5242    0.0000 H   0  0  0  0  0  0  0  0  0  0  0  0
  1  2  1  0  0  0  0
  2  3  1  0  0  0  0
  3  4  1  0  0  0  0
  4  5  2  0  0  0  0
  5  6  1  0  0  0  0
  6  7  1  0  0  0  0
  7  8  1  0  0  0  0
  8  9  1  0  0  0  0
  9 10  1  0  0  0  0
 10 11  1  0  0  0  0
 11 12  1  0  0  0  0
 12 13  1  0  0  0  0
  9 13  1  0  0  0  0
 13 14  1  0  0  0  0
 14 15  1  0  0  0  0
 15 16  1  0  0  0  0
  8 16  1  0  0  0  0
 16 17  1  0  0  0  0
  5 17  1  0  0  0  0
  1 17  1  0  0  0  0
  3 18  2  0  0  0  0
  6 19  2  0  0  0  0
 11 20  1  6  0  0  0
 13 21  1  1  0  0  0
 17 22  1  1  0  0  0
 23 24  2  0  0  0  0
 23 25  1  0  0  0  0
 12 23  1  1  0  0  0
  8 26  1  1  0  0  0
 16 27  1  6  0  0  0
  9 28  1  6  0  0  0
M  END
>  <cdx:groupId>
1555

>  <cdx:fragmentId>
1471

$$$$
