302186.cdx
  Mrv1902 05222410282D          

  7  6  0  0  0  0            999 V2000
    7.0678   -6.7358    0.0000 C   0  0  0  0  0  0  0  0  0  0  0  0
    6.3533   -7.1483    0.0000 C   0  0  0  0  0  0  0  0  0  0  0  0
    5.6388   -6.7358    0.0000 C   0  0  0  0  0  0  0  0  0  0  0  0
    7.0678   -5.9108    0.0000 O   0  0  0  0  0  0  0  0  0  0  0  0
    7.7822   -7.1483    0.0000 N   0  0  0  0  0  0  0  0  0  0  0  0
    8.4967   -6.7358    0.0000 C   0  0  0  0  0  0  0  0  0  0  0  0
    9.2112   -7.1483    0.0000 C   0  0  0  0  0  0  0  0  0  0  0  0
  1  2  1  0  0  0  0
  2  3  1  0  0  0  0
  1  4  2  0  0  0  0
  1  5  1  0  0  0  0
  6  7  1  0  0  0  0
  5  6  1  0  0  0  0
M  END
>  <cdx:groupId>
2333

>  <cdx:fragmentId>
2316

$$$$
