302157.cdx
  Mrv1902 05222410262D          

 16 16  0  0  0  0            999 V2000
   11.4475  -12.0885    0.0000 C   0  0  0  0  0  0  0  0  0  0  0  0
   12.8764  -12.0885    0.0000 C   0  0  0  0  0  0  0  0  0  0  0  0
   12.1620  -11.6760    0.0000 C   0  0  0  0  0  0  0  0  0  0  0  0
   12.8764   -8.7885    0.0000 O   0  0  0  0  0  0  0  0  0  0  0  0
   12.1620   -8.3760    0.0000 C   0  0  0  0  0  0  0  0  0  0  0  0
   15.0198  -10.8510    0.0000 C   0  0  0  0  0  0  0  0  0  0  0  0
   12.1620   -9.2010    0.0000 C   0  0  0  0  0  0  0  0  0  0  0  0
   11.4475   -9.6135    0.0000 C   0  0  0  0  0  0  0  0  0  0  0  0
   11.4475  -10.4385    0.0000 C   0  0  0  0  0  0  0  0  0  0  0  0
   12.1620  -10.8510    0.0000 C   0  0  2  0  0  0  0  0  0  0  0  0
   13.5909   -9.2010    0.0000 C   0  0  0  0  0  0  0  0  0  0  0  0
   12.8764   -9.6135    0.0000 C   0  0  2  0  0  0  0  0  0  0  0  0
   12.8764  -10.4385    0.0000 C   0  0  0  0  0  0  0  0  0  0  0  0
   13.5909  -10.8510    0.0000 C   0  0  0  0  0  0  0  0  0  0  0  0
   14.3054  -10.4385    0.0000 C   0  0  0  0  0  0  0  0  0  0  0  0
   14.3054   -9.6135    0.0000 C   0  0  0  0  0  0  0  0  0  0  0  0
  3  1  1  0  0  0  0
  3  2  1  0  0  0  0
 10  3  1  6  0  0  0
 12  4  1  6  0  0  0
  7  5  2  0  0  0  0
 15  6  2  0  0  0  0
  7 12  1  0  0  0  0
  8  7  1  0  0  0  0
  9  8  1  0  0  0  0
 10  9  1  0  0  0  0
 13 10  1  0  0  0  0
 11 16  1  0  0  0  0
 12 11  1  0  0  0  0
 14 13  2  0  0  0  0
 15 14  1  0  0  0  0
 16 15  1  0  0  0  0
M  END
>  <cdx:fragmentId>
8868

$$$$
