302125.cdx
  Mrv1902 05222410252D          

 19 18  0  0  0  0            999 V2000
    1.6758  -11.8880    0.0000 C   0  0  0  0  0  0  0  0  0  0  0  0
    2.2591  -11.3047    0.0000 C   0  0  0  0  0  0  0  0  0  0  0  0
    2.8425  -11.8880    0.0000 C   0  0  1  0  0  0  0  0  0  0  0  0
    3.6675  -11.8880    0.0000 C   0  0  0  0  0  0  0  0  0  0  0  0
    4.4925  -11.8880    0.0000 C   0  0  0  0  0  0  0  0  0  0  0  0
    5.3175  -11.8880    0.0000 C   0  0  0  0  0  0  0  0  0  0  0  0
    6.1425  -11.8880    0.0000 C   0  0  0  0  0  0  0  0  0  0  0  0
    6.9675  -11.8880    0.0000 C   0  0  2  0  0  0  0  0  0  0  0  0
    7.5509  -11.3047    0.0000 C   0  0  0  0  0  0  0  0  0  0  0  0
    8.3759  -11.3047    0.0000 C   0  0  0  0  0  0  0  0  0  0  0  0
    8.9592  -11.8880    0.0000 C   0  0  0  0  0  0  0  0  0  0  0  0
    9.5426  -11.3047    0.0000 C   0  0  0  0  0  0  0  0  0  0  0  0
   10.1260  -11.8880    0.0000 C   0  0  0  0  0  0  0  0  0  0  0  0
   10.7093  -11.3047    0.0000 C   0  0  0  0  0  0  0  0  0  0  0  0
   11.2927  -11.8880    0.0000 C   0  0  0  0  0  0  0  0  0  0  0  0
   11.8760  -11.3047    0.0000 C   0  0  0  0  0  0  0  0  0  0  0  0
   12.4594  -11.8880    0.0000 C   0  0  0  0  0  0  0  0  0  0  0  0
    6.9675  -12.7130    0.0000 O   0  0  0  0  0  0  0  0  0  0  0  0
    2.8425  -12.7130    0.0000 O   0  0  0  0  0  0  0  0  0  0  0  0
  1  2  2  0  0  0  0
  2  3  1  0  0  0  0
  3  4  1  0  0  0  0
  4  5  2  0  0  0  0
  5  6  1  0  0  0  0
  6  7  2  0  0  0  0
  7  8  1  0  0  0  0
  8  9  1  0  0  0  0
  9 10  2  0  0  0  0
 10 11  1  0  0  0  0
 11 12  1  0  0  0  0
 12 13  1  0  0  0  0
 13 14  1  0  0  0  0
 14 15  1  0  0  0  0
 15 16  1  0  0  0  0
 16 17  1  0  0  0  0
  8 18  1  6  0  0  0
  3 19  1  1  0  0  0
M  END
>  <cdx:fragmentId>
6175

$$$$
