302132.cdx
  Mrv1902 05222410252D          

 25 26  0  0  0  0            999 V2000
    6.2183   -5.2044    0.0000 C   0  0  0  0  0  0  0  0  0  0  0  0
    6.2183   -6.0294    0.0000 C   0  0  0  0  0  0  0  0  0  0  0  0
    6.9327   -6.4419    0.0000 C   0  0  0  0  0  0  0  0  0  0  0  0
    7.6472   -6.0294    0.0000 C   0  0  0  0  0  0  0  0  0  0  0  0
    7.6472   -5.2044    0.0000 C   0  0  0  0  0  0  0  0  0  0  0  0
    6.9327   -4.7919    0.0000 C   0  0  0  0  0  0  0  0  0  0  0  0
    8.3617   -4.7919    0.0000 C   0  0  0  0  0  0  0  0  0  0  0  0
    9.0762   -5.2044    0.0000 C   0  0  0  0  0  0  0  0  0  0  0  0
    9.7906   -4.7919    0.0000 C   0  0  0  0  0  0  0  0  0  0  0  0
   10.5051   -5.2044    0.0000 O   0  0  0  0  0  0  0  0  0  0  0  0
    5.5038   -6.4419    0.0000 O   0  0  0  0  0  0  0  0  0  0  0  0
    9.7906   -3.9669    0.0000 O   0  0  0  0  0  0  0  0  0  0  0  0
    5.5038   -4.7919    0.0000 O   0  0  0  0  0  0  0  0  0  0  0  0
    5.5038   -3.9669    0.0000 C   0  0  0  0  0  0  0  0  0  0  0  0
    4.7893   -6.0294    0.0000 C   0  0  2  0  0  0  0  0  0  0  0  0
    4.7893   -5.2044    0.0000 O   0  0  0  0  0  0  0  0  0  0  0  0
    4.0749   -4.7919    0.0000 C   0  0  1  0  0  0  0  0  0  0  0  0
    3.3604   -5.2044    0.0000 C   0  0  2  0  0  0  0  0  0  0  0  0
    3.3604   -6.0294    0.0000 C   0  0  1  0  0  0  0  0  0  0  0  0
    4.0749   -6.4419    0.0000 C   0  0  1  0  0  0  0  0  0  0  0  0
    4.0749   -3.9669    0.0000 C   0  0  0  0  0  0  0  0  0  0  0  0
    2.6459   -6.4419    0.0000 O   0  0  0  0  0  0  0  0  0  0  0  0
    4.0749   -7.2669    0.0000 O   0  0  0  0  0  0  0  0  0  0  0  0
    2.6459   -4.7919    0.0000 O   0  0  0  0  0  0  0  0  0  0  0  0
    3.3604   -3.5544    0.0000 O   0  0  0  0  0  0  0  0  0  0  0  0
  1  2  2  0  0  0  0
  2  3  1  0  0  0  0
  3  4  2  0  0  0  0
  4  5  1  0  0  0  0
  5  6  2  0  0  0  0
  6  1  1  0  0  0  0
  5  7  1  0  0  0  0
  8  9  1  0  0  0  0
  9 10  1  0  0  0  0
  2 11  1  0  0  0  0
  9 12  2  0  0  0  0
  7  8  2  0  0  0  0
  1 13  1  0  0  0  0
 13 14  1  0  0  0  0
 15 11  1  1  0  0  0
 15 16  1  0  0  0  0
 16 17  1  0  0  0  0
 17 18  1  0  0  0  0
 18 19  1  0  0  0  0
 19 20  1  0  0  0  0
 20 15  1  0  0  0  0
 17 21  1  1  0  0  0
 19 22  1  1  0  0  0
 20 23  1  6  0  0  0
 18 24  1  6  0  0  0
 21 25  1  0  0  0  0
M  END
>  <cdx:fragmentId>
6

$$$$
