302170.cdx
  Mrv1902 05222410202D          

 37 40  0  0  0  0            999 V2000
    7.0839  -11.2870    0.0000 O   0  0  0  0  0  0  0  0  0  0  0  0
    7.9089  -11.2870    0.0000 C   0  0  0  0  0  0  0  0  0  0  0  0
    8.3214  -12.0014    0.0000 C   0  0  0  0  0  0  0  0  0  0  0  0
    9.1464  -12.0014    0.0000 C   0  0  0  0  0  0  0  0  0  0  0  0
    9.5589  -11.2870    0.0000 C   0  0  0  0  0  0  0  0  0  0  0  0
    9.1464  -10.5725    0.0000 C   0  0  0  0  0  0  0  0  0  0  0  0
    8.3214  -10.5725    0.0000 C   0  0  0  0  0  0  0  0  0  0  0  0
   10.3558  -11.0734    0.0000 C   0  0  0  0  0  0  0  0  0  0  0  0
   11.0703  -11.4859    0.0000 O   0  0  0  0  0  0  0  0  0  0  0  0
   10.3558  -10.2484    0.0000 O   0  0  0  0  0  0  0  0  0  0  0  0
   11.2838  -12.2828    0.0000 C   0  0  0  0  0  0  0  0  0  0  0  0
   11.2690  -12.7681    0.0000 C   0  0  0  0  0  0  0  0  0  0  0  0
   11.8787  -13.3238    0.0000 C   0  0  0  0  0  0  0  0  0  0  0  0
   12.5758  -12.8826    0.0000 C   0  0  0  0  0  0  0  0  0  0  0  0
   13.3951  -12.8413    0.0000 C   0  0  0  0  0  0  0  0  0  0  0  0
   12.7854  -12.2856    0.0000 O   0  0  0  0  0  0  0  0  0  0  0  0
   12.0882  -12.7267    0.0000 C   0  0  0  0  0  0  0  0  0  0  0  0
   13.9784  -12.2580    0.0000 O   0  0  0  0  0  0  0  0  0  0  0  0
   14.1920  -11.4611    0.0000 C   0  0  0  0  0  0  0  0  0  0  0  0
   14.9064  -11.0486    0.0000 C   0  0  0  0  0  0  0  0  0  0  0  0
   14.9064  -10.2236    0.0000 C   0  0  0  0  0  0  0  0  0  0  0  0
   14.1920   -9.8111    0.0000 C   0  0  0  0  0  0  0  0  0  0  0  0
   13.4775  -10.2236    0.0000 C   0  0  0  0  0  0  0  0  0  0  0  0
   13.4775  -11.0486    0.0000 C   0  0  0  0  0  0  0  0  0  0  0  0
   15.6209  -11.4611    0.0000 O   0  0  0  0  0  0  0  0  0  0  0  0
   16.3354  -11.0486    0.0000 C   0  0  0  0  0  0  0  0  0  0  0  0
   16.3354  -10.2236    0.0000 C   0  0  0  0  0  0  0  0  0  0  0  0
   15.6209   -9.8111    0.0000 C   0  0  0  0  0  0  0  0  0  0  0  0
   17.0499  -11.4611    0.0000 O   0  0  0  0  0  0  0  0  0  0  0  0
   12.7630   -9.8111    0.0000 O   0  0  0  0  0  0  0  0  0  0  0  0
   12.0510   -9.4000    0.0000 C   0  0  0  0  0  0  0  0  0  0  0  0
   12.7630  -11.4611    0.0000 O   0  0  0  0  0  0  0  0  0  0  0  0
    7.7381  -12.5848    0.0000 O   0  0  0  0  0  0  0  0  0  0  0  0
   10.6856  -13.3514    0.0000 O   0  0  0  0  0  0  0  0  0  0  0  0
   11.1642  -13.7363    0.0000 O   0  0  0  0  0  0  0  0  0  0  0  0
   13.2903  -13.2951    0.0000 O   0  0  0  0  0  0  0  0  0  0  0  0
    7.1567  -13.1661    0.0000 C   0  0  0  0  0  0  0  0  0  0  0  0
  1  2  1  0  0  0  0
  2  3  2  0  0  0  0
  3  4  1  0  0  0  0
  4  5  2  0  0  0  0
  5  6  1  0  0  0  0
  6  7  2  0  0  0  0
  7  2  1  0  0  0  0
  5  8  1  0  0  0  0
  8  9  1  0  0  0  0
  8 10  2  0  0  0  0
  9 11  1  0  0  0  0
 12 13  1  0  0  0  0
 13 14  1  0  0  0  0
 14 15  1  0  0  0  0
 15 16  1  0  0  0  0
 16 17  1  0  0  0  0
 17 12  1  0  0  0  0
 11 17  1  0  0  0  0
 15 18  1  0  0  0  0
 18 19  1  0  0  0  0
 19 20  2  0  0  0  0
 20 21  1  0  0  0  0
 21 22  2  0  0  0  0
 22 23  1  0  0  0  0
 23 24  2  0  0  0  0
 24 19  1  0  0  0  0
 20 25  1  0  0  0  0
 25 26  1  0  0  0  0
 26 27  1  0  0  0  0
 27 28  2  0  0  0  0
 28 21  1  0  0  0  0
 26 29  2  0  0  0  0
 23 30  1  0  0  0  0
 24 32  1  0  0  0  0
  3 33  1  0  0  0  0
 12 34  1  0  0  0  0
 13 35  1  0  0  0  0
 14 36  1  0  0  0  0
 30 31  1  0  0  0  0
 33 37  1  0  0  0  0
M  STY  2   1 SUP   2 SUP
M  SAL   1  2  30  31
M  SBL   1  1  33
M  SMT   1 OCH3
M  SAP   1  1  30  23  1
M  SAL   2  2  33  37
M  SBL   2  1  35
M  SMT   2 OCH3
M  SAP   2  1  33   3  1
M  END
>  <cdx:fragmentId>
9131

$$$$
