302108.cdx
  Mrv1902 05222410242D          

 33 35  0  0  0  0            999 V2000
   11.2037  -11.1371    0.0000 C   0  0  0  0  0  0  0  0  0  0  0  0
   10.3787  -12.5661    0.0000 C   0  0  0  0  0  0  0  0  0  0  0  0
   11.5057  -12.2641    0.0000 O   0  0  0  0  0  0  0  0  0  0  0  0
   10.7912  -11.8516    0.0000 C   0  0  0  0  0  0  0  0  0  0  0  0
    8.6465  -11.4415    0.0000 C   0  0  0  0  0  0  0  0  0  0  0  0
    9.3554  -11.8636    0.0000 C   0  0  0  0  0  0  0  0  0  0  0  0
   10.0754  -11.4415    0.0000 C   0  0  1  0  0  0  0  0  0  0  0  0
   10.0754  -10.6166    0.0000 C   0  0  0  0  0  0  0  0  0  0  0  0
    9.3554  -10.1945    0.0000 C   0  0  0  0  0  0  0  0  0  0  0  0
    7.9237   -9.3839    0.0000 O   0  0  0  0  0  0  0  0  0  0  0  0
    8.6465  -10.6166    0.0000 C   0  0  0  0  0  0  0  0  0  0  0  0
    7.9293  -10.2089    0.0000 C   0  0  0  0  0  0  0  0  0  0  0  0
    7.2176  -10.6262    0.0000 O   0  0  0  0  0  0  0  0  0  0  0  0
    6.5004  -10.2185    0.0000 C   0  0  2  0  0  0  0  0  0  0  0  0
    6.4920   -9.3936    0.0000 O   0  0  0  0  0  0  0  0  0  0  0  0
    5.7734   -8.9883    0.0000 C   0  0  1  0  0  0  0  0  0  0  0  0
    5.0632   -9.3936    0.0000 C   0  0  2  0  0  0  0  0  0  0  0  0
    5.0632  -10.2185    0.0000 C   0  0  1  0  0  0  0  0  0  0  0  0
    5.7734  -10.6238    0.0000 C   0  0  1  0  0  0  0  0  0  0  0  0
    5.7713   -8.1634    0.0000 C   0  0  0  0  0  0  0  0  0  0  0  0
    4.3497  -10.6329    0.0000 O   0  0  0  0  0  0  0  0  0  0  0  0
    5.7693  -11.4488    0.0000 O   0  0  0  0  0  0  0  0  0  0  0  0
    4.3497   -8.9793    0.0000 O   0  0  0  0  0  0  0  0  0  0  0  0
    5.0558   -7.7526    0.0000 O   0  0  0  0  0  0  0  0  0  0  0  0
    5.0538   -6.9277    0.0000 C   0  0  2  0  0  0  0  0  0  0  0  0
    5.7687   -6.5160    0.0000 O   0  0  0  0  0  0  0  0  0  0  0  0
    5.7687   -5.6910    0.0000 C   0  0  0  0  0  0  0  0  0  0  0  0
    5.0538   -5.2777    0.0000 C   0  0  1  0  0  0  0  0  0  0  0  0
    4.3388   -5.6910    0.0000 C   0  0  1  0  0  0  0  0  0  0  0  0
    4.3388   -6.5160    0.0000 C   0  0  1  0  0  0  0  0  0  0  0  0
    3.6246   -6.9290    0.0000 O   0  0  0  0  0  0  0  0  0  0  0  0
    3.6242   -5.2788    0.0000 O   0  0  0  0  0  0  0  0  0  0  0  0
    5.0538   -4.4527    0.0000 O   0  0  0  0  0  0  0  0  0  0  0  0
  4  1  1  0  0  0  0
  4  2  1  0  0  0  0
  4  3  1  0  0  0  0
  7  4  1  1  0  0  0
  5 11  1  0  0  0  0
  6  5  1  0  0  0  0
  7  6  1  0  0  0  0
  8  7  1  0  0  0  0
  9  8  1  0  0  0  0
 11  9  2  0  0  0  0
 12 10  2  0  0  0  0
 12 11  1  0  0  0  0
 13 12  1  0  0  0  0
 14 13  1  1  0  0  0
 14 15  1  0  0  0  0
 15 16  1  0  0  0  0
 16 17  1  0  0  0  0
 17 18  1  0  0  0  0
 18 19  1  0  0  0  0
 19 14  1  0  0  0  0
 16 20  1  1  0  0  0
 18 21  1  1  0  0  0
 19 22  1  6  0  0  0
 17 23  1  6  0  0  0
 20 24  1  0  0  0  0
 25 24  1  1  0  0  0
 25 26  1  0  0  0  0
 26 27  1  0  0  0  0
 27 28  1  0  0  0  0
 28 29  1  0  0  0  0
 29 30  1  0  0  0  0
 30 25  1  0  0  0  0
 30 31  1  6  0  0  0
 29 32  1  1  0  0  0
 28 33  1  1  0  0  0
M  END
>  <cdx:fragmentId>
5

$$$$
