302197.cdx
  Mrv1902 05222410262D          

 49 52  0  0  0  0            999 V2000
    4.9320   -8.3173    0.0000 C   0  0  1  0  0  0  0  0  0  0  0  0
    5.1795   -9.1043    0.0000 C   0  0  1  0  0  0  0  0  0  0  0  0
    6.0044   -9.1121    0.0000 C   0  0  2  0  0  0  0  0  0  0  0  0
    6.2668   -8.3299    0.0000 C   0  0  2  0  0  0  0  0  0  0  0  0
    5.6040   -7.8387    0.0000 O   0  0  0  0  0  0  0  0  0  0  0  0
    4.1498   -8.0549    0.0000 C   0  0  0  0  0  0  0  0  0  0  0  0
    4.6883   -9.7671    0.0000 O   0  0  0  0  0  0  0  0  0  0  0  0
    6.4830   -9.7840    0.0000 O   0  0  0  0  0  0  0  0  0  0  0  0
    7.0637   -8.5434    0.0000 O   0  0  0  0  0  0  0  0  0  0  0  0
    3.5315   -8.6011    0.0000 O   0  0  0  0  0  0  0  0  0  0  0  0
    6.9813   -7.9174    0.0000 C   0  0  0  0  0  0  0  0  0  0  0  0
    6.9813   -7.0924    0.0000 O   0  0  0  0  0  0  0  0  0  0  0  0
    7.7781   -8.1308    0.0000 C   0  0  1  0  0  0  0  0  0  0  0  0
    8.4926   -8.5433    0.0000 C   0  0  2  0  0  0  0  0  0  0  0  0
    9.2070   -8.1307    0.0000 C   0  0  1  0  0  0  0  0  0  0  0  0
    9.2070   -7.3057    0.0000 C   0  0  2  0  0  0  0  0  0  0  0  0
    8.4925   -6.8933    0.0000 C   0  0  1  0  0  0  0  0  0  0  0  0
    7.7780   -7.3058    0.0000 O   0  0  0  0  0  0  0  0  0  0  0  0
    8.4924   -6.0683    0.0000 C   0  0  0  0  0  0  0  0  0  0  0  0
    9.2068   -5.6557    0.0000 O   0  0  0  0  0  0  0  0  0  0  0  0
    9.9214   -6.8932    0.0000 O   0  0  0  0  0  0  0  0  0  0  0  0
    9.9216   -8.5432    0.0000 O   0  0  0  0  0  0  0  0  0  0  0  0
    8.4927   -9.3683    0.0000 O   0  0  0  0  0  0  0  0  0  0  0  0
    6.1404  -10.5345    0.0000 C   0  0  0  0  0  0  0  0  0  0  0  0
    6.6190  -11.2065    0.0000 C   0  0  0  0  0  0  0  0  0  0  0  0
    5.3191  -10.6130    0.0000 O   0  0  0  0  0  0  0  0  0  0  0  0
    6.2763  -11.9570    0.0000 C   0  0  0  0  0  0  0  0  0  0  0  0
    6.7549  -12.6290    0.0000 C   0  0  0  0  0  0  0  0  0  0  0  0
    6.4122  -13.3794    0.0000 C   0  0  0  0  0  0  0  0  0  0  0  0
    6.8908  -14.0514    0.0000 C   0  0  0  0  0  0  0  0  0  0  0  0
    7.7121  -13.9730    0.0000 C   0  0  0  0  0  0  0  0  0  0  0  0
    8.0547  -13.2225    0.0000 C   0  0  0  0  0  0  0  0  0  0  0  0
    7.5761  -12.5505    0.0000 C   0  0  0  0  0  0  0  0  0  0  0  0
    8.1907  -14.6450    0.0000 O   0  0  0  0  0  0  0  0  0  0  0  0
    8.8760  -13.1440    0.0000 O   0  0  0  0  0  0  0  0  0  0  0  0
    9.3546  -13.8160    0.0000 C   0  0  0  0  0  0  0  0  0  0  0  0
    9.2068   -4.8307    0.0000 C   0  0  0  0  0  0  0  0  0  0  0  0
    9.9212   -4.4182    0.0000 O   0  0  0  0  0  0  0  0  0  0  0  0
    8.4923   -4.4183    0.0000 C   0  0  0  0  0  0  0  0  0  0  0  0
    8.4922   -3.5933    0.0000 C   0  0  0  0  0  0  0  0  0  0  0  0
    7.7777   -3.1808    0.0000 C   0  0  0  0  0  0  0  0  0  0  0  0
    7.7776   -2.3558    0.0000 C   0  0  0  0  0  0  0  0  0  0  0  0
    7.0630   -1.9434    0.0000 C   0  0  0  0  0  0  0  0  0  0  0  0
    6.3486   -2.3558    0.0000 C   0  0  0  0  0  0  0  0  0  0  0  0
    6.3486   -3.1808    0.0000 C   0  0  0  0  0  0  0  0  0  0  0  0
    7.0630   -3.5932    0.0000 C   0  0  0  0  0  0  0  0  0  0  0  0
    5.6342   -1.9433    0.0000 O   0  0  0  0  0  0  0  0  0  0  0  0
    5.6342   -3.5934    0.0000 O   0  0  0  0  0  0  0  0  0  0  0  0
    4.9197   -3.1809    0.0000 C   0  0  0  0  0  0  0  0  0  0  0  0
  1  2  1  0  0  0  0
  2  3  1  0  0  0  0
  3  4  1  0  0  0  0
  4  5  1  0  0  0  0
  5  1  1  0  0  0  0
  1  6  1  6  0  0  0
  2  7  1  1  0  0  0
  3  8  1  6  0  0  0
  4  9  1  6  0  0  0
  6 10  1  0  0  0  0
  4 11  1  1  0  0  0
 11 12  1  0  0  0  0
 13  9  1  6  0  0  0
 13 14  1  0  0  0  0
 14 15  1  0  0  0  0
 15 16  1  0  0  0  0
 16 17  1  0  0  0  0
 17 18  1  0  0  0  0
 18 13  1  0  0  0  0
 17 19  1  1  0  0  0
 19 20  1  0  0  0  0
 16 21  1  6  0  0  0
 15 22  1  1  0  0  0
 14 23  1  6  0  0  0
  8 24  1  0  0  0  0
 24 25  1  0  0  0  0
 24 26  2  0  0  0  0
 25 27  2  0  0  0  0
 27 28  1  0  0  0  0
 28 29  2  0  0  0  0
 29 30  1  0  0  0  0
 30 31  2  0  0  0  0
 31 32  1  0  0  0  0
 32 33  2  0  0  0  0
 33 28  1  0  0  0  0
 31 34  1  0  0  0  0
 32 35  1  0  0  0  0
 35 36  1  0  0  0  0
 20 37  1  0  0  0  0
 37 38  2  0  0  0  0
 37 39  1  0  0  0  0
 39 40  2  0  0  0  0
 40 41  1  0  0  0  0
 41 42  2  0  0  0  0
 42 43  1  0  0  0  0
 43 44  2  0  0  0  0
 44 45  1  0  0  0  0
 45 46  2  0  0  0  0
 46 41  1  0  0  0  0
 44 47  1  0  0  0  0
 45 48  1  0  0  0  0
 48 49  1  0  0  0  0
M  END
>  <cdx:fragmentId>
2725

$$$$
