302106.cdx
  Mrv1902 05222410232D          

 28 31  0  0  0  0            999 V2000
    8.9899   -3.2091    0.0000 C   0  0  0  0  0  0  0  0  0  0  0  0
    9.5419   -3.8221    0.0000 C   0  0  0  0  0  0  0  0  0  0  0  0
    9.2869   -4.6068    0.0000 C   0  0  0  0  0  0  0  0  0  0  0  0
    8.4800   -4.7783    0.0000 C   0  0  0  0  0  0  0  0  0  0  0  0
    7.9279   -4.1652    0.0000 C   0  0  0  0  0  0  0  0  0  0  0  0
    8.1829   -3.3806    0.0000 C   0  0  0  0  0  0  0  0  0  0  0  0
    9.2448   -2.4244    0.0000 O   0  0  0  0  0  0  0  0  0  0  0  0
    6.1709   -6.2304    0.0000 O   0  0  0  0  0  0  0  0  0  0  0  0
    6.6558   -5.5629    0.0000 C   0  0  0  0  0  0  0  0  0  0  0  0
    7.4404   -5.8179    0.0000 C   0  0  1  0  0  0  0  0  0  0  0  0
    7.4404   -6.6429    0.0000 C   0  0  1  0  0  0  0  0  0  0  0  0
    6.6558   -6.8978    0.0000 C   0  0  1  0  0  0  0  0  0  0  0  0
    8.7100   -6.2304    0.0000 O   0  0  0  0  0  0  0  0  0  0  0  0
    8.2250   -5.5629    0.0000 C   0  0  2  0  0  0  0  0  0  0  0  0
    8.2250   -6.8978    0.0000 C   0  0  0  0  0  0  0  0  0  0  0  0
    6.4009   -7.6824    0.0000 C   0  0  0  0  0  0  0  0  0  0  0  0
    6.9529   -8.2955    0.0000 C   0  0  0  0  0  0  0  0  0  0  0  0
    6.6980   -9.0801    0.0000 C   0  0  0  0  0  0  0  0  0  0  0  0
    5.8910   -9.2517    0.0000 C   0  0  0  0  0  0  0  0  0  0  0  0
    5.3389   -8.6386    0.0000 C   0  0  0  0  0  0  0  0  0  0  0  0
    5.5939   -7.8539    0.0000 C   0  0  0  0  0  0  0  0  0  0  0  0
    4.5320   -8.8101    0.0000 O   0  0  0  0  0  0  0  0  0  0  0  0
    3.9486   -8.2267    0.0000 C   0  0  0  0  0  0  0  0  0  0  0  0
    5.6360  -10.0363    0.0000 O   0  0  0  0  0  0  0  0  0  0  0  0
    7.4404   -7.4679    0.0000 H   0  0  0  0  0  0  0  0  0  0  0  0
    7.4404   -4.9929    0.0000 H   0  0  0  0  0  0  0  0  0  0  0  0
    7.6309   -2.7675    0.0000 O   0  0  0  0  0  0  0  0  0  0  0  0
    7.8858   -1.9829    0.0000 C   0  0  0  0  0  0  0  0  0  0  0  0
  1  2  2  0  0  0  0
  2  3  1  0  0  0  0
  3  4  2  0  0  0  0
  4  5  1  0  0  0  0
  5  6  1  0  0  0  0
  1  6  1  0  0  0  0
  1  7  1  0  0  0  0
  8  9  1  0  0  0  0
  9 10  1  0  0  0  0
 10 11  1  0  0  0  0
 11 12  1  0  0  0  0
  8 12  1  0  0  0  0
 13 14  1  0  0  0  0
 13 15  1  0  0  0  0
 14 10  1  0  0  0  0
 15 11  1  0  0  0  0
 16 17  2  0  0  0  0
 17 18  1  0  0  0  0
 18 19  1  0  0  0  0
 19 20  2  0  0  0  0
 20 21  1  0  0  0  0
 16 21  1  0  0  0  0
 22 23  1  0  0  0  0
 20 22  1  0  0  0  0
 19 24  1  0  0  0  0
 12 16  1  1  0  0  0
 14  4  1  1  0  0  0
 11 25  1  1  0  0  0
 10 26  1  1  0  0  0
  6 27  1  0  0  0  0
 27 28  1  0  0  0  0
M  END
>  <cdx:groupId>
3626

>  <cdx:fragmentId>
3576

$$$$
