302109.cdx
  Mrv1902 05222410242D          

 35 39  0  0  0  0            999 V2000
    1.5629  -10.6448    0.0000 C   0  0  0  0  0  0  0  0  0  0  0  0
    1.5629  -11.4698    0.0000 C   0  0  0  0  0  0  0  0  0  0  0  0
    2.2773  -11.8823    0.0000 C   0  0  0  0  0  0  0  0  0  0  0  0
    2.9918  -11.4698    0.0000 C   0  0  0  0  0  0  0  0  0  0  0  0
    2.9918  -10.6448    0.0000 C   0  0  0  0  0  0  0  0  0  0  0  0
    2.2773  -10.2323    0.0000 C   0  0  0  0  0  0  0  0  0  0  0  0
    3.7063  -11.8823    0.0000 C   0  0  0  0  0  0  0  0  0  0  0  0
    4.4208  -11.4698    0.0000 C   0  0  1  0  0  0  0  0  0  0  0  0
    4.4208  -10.6448    0.0000 C   0  0  2  0  0  0  0  0  0  0  0  0
    3.7063  -10.2323    0.0000 O   0  0  0  0  0  0  0  0  0  0  0  0
    5.1352  -10.2323    0.0000 C   0  0  0  0  0  0  0  0  0  0  0  0
    5.8497  -10.6448    0.0000 C   0  0  0  0  0  0  0  0  0  0  0  0
    6.5642  -10.2323    0.0000 C   0  0  0  0  0  0  0  0  0  0  0  0
    6.5642   -9.4073    0.0000 C   0  0  0  0  0  0  0  0  0  0  0  0
    5.8497   -8.9948    0.0000 C   0  0  0  0  0  0  0  0  0  0  0  0
    5.1352   -9.4073    0.0000 C   0  0  0  0  0  0  0  0  0  0  0  0
    7.2786  -10.6448    0.0000 O   0  0  0  0  0  0  0  0  0  0  0  0
    7.9931  -10.2323    0.0000 C   0  0  1  0  0  0  0  0  0  0  0  0
    7.9931   -9.4073    0.0000 C   0  0  2  0  0  0  0  0  0  0  0  0
    7.2786   -8.9948    0.0000 O   0  0  0  0  0  0  0  0  0  0  0  0
    8.7076  -10.6448    0.0000 C   0  0  0  0  0  0  0  0  0  0  0  0
    9.4196  -11.0559    0.0000 O   0  0  0  0  0  0  0  0  0  0  0  0
    8.7076   -8.9948    0.0000 C   0  0  0  0  0  0  0  0  0  0  0  0
    9.4221   -9.4073    0.0000 C   0  0  0  0  0  0  0  0  0  0  0  0
   10.1365   -8.9948    0.0000 C   0  0  0  0  0  0  0  0  0  0  0  0
   10.1365   -8.1698    0.0000 C   0  0  0  0  0  0  0  0  0  0  0  0
    9.4221   -7.7573    0.0000 C   0  0  0  0  0  0  0  0  0  0  0  0
    8.7076   -8.1698    0.0000 C   0  0  0  0  0  0  0  0  0  0  0  0
    9.4221   -6.9323    0.0000 O   0  0  0  0  0  0  0  0  0  0  0  0
   10.8510   -9.4073    0.0000 O   0  0  0  0  0  0  0  0  0  0  0  0
    2.2773  -12.7073    0.0000 O   0  0  0  0  0  0  0  0  0  0  0  0
    0.8484  -10.2323    0.0000 O   0  0  0  0  0  0  0  0  0  0  0  0
    5.1352  -11.8823    0.0000 O   0  0  0  0  0  0  0  0  0  0  0  0
    3.7063  -12.7073    0.0000 O   0  0  0  0  0  0  0  0  0  0  0  0
   11.5630   -9.8184    0.0000 C   0  0  0  0  0  0  0  0  0  0  0  0
  1  2  2  0  0  0  0
  2  3  1  0  0  0  0
  3  4  2  0  0  0  0
  4  5  1  0  0  0  0
  5  6  2  0  0  0  0
  6  1  1  0  0  0  0
  4  7  1  0  0  0  0
  7  8  1  0  0  0  0
  8  9  1  0  0  0  0
  9 10  1  0  0  0  0
 10  5  1  0  0  0  0
  9 11  1  6  0  0  0
 11 12  2  0  0  0  0
 12 13  1  0  0  0  0
 13 14  2  0  0  0  0
 14 15  1  0  0  0  0
 15 16  2  0  0  0  0
 16 11  1  0  0  0  0
 13 17  1  0  0  0  0
 17 18  1  0  0  0  0
 18 19  1  0  0  0  0
 19 20  1  0  0  0  0
 20 14  1  0  0  0  0
 18 21  1  1  0  0  0
 19 23  1  6  0  0  0
 23 24  2  0  0  0  0
 24 25  1  0  0  0  0
 25 26  2  0  0  0  0
 26 27  1  0  0  0  0
 27 28  2  0  0  0  0
 28 23  1  0  0  0  0
 27 29  1  0  0  0  0
 25 30  1  0  0  0  0
  3 31  1  0  0  0  0
  1 32  1  0  0  0  0
  8 33  1  1  0  0  0
  7 34  2  0  0  0  0
 21 22  1  0  0  0  0
 30 35  1  0  0  0  0
M  STY  2   1 SUP   2 SUP
M  SAL   1  2  21  22
M  SBL   1  1  24
M  SMT   1 CH2OH
M  SAP   1  1  21  18  1
M  SAL   2  2  30  35
M  SBL   2  1  33
M  SMT   2 OCH3
M  SAP   2  1  30  25  1
M  END
>  <cdx:fragmentId>
5745

$$$$
