302115.cdx
  Mrv1902 05222410212D          

 31 33  0  0  0  0            999 V2000
    6.3567   -5.3969    0.0000 C   0  0  0  0  0  0  0  0  0  0  0  0
    7.0712   -5.8094    0.0000 C   0  0  0  0  0  0  0  0  0  0  0  0
    7.0712   -6.6344    0.0000 C   0  0  0  0  0  0  0  0  0  0  0  0
    6.3567   -7.0469    0.0000 C   0  0  0  0  0  0  0  0  0  0  0  0
    5.6423   -6.6344    0.0000 C   0  0  0  0  0  0  0  0  0  0  0  0
    5.6423   -5.8094    0.0000 C   0  0  0  0  0  0  0  0  0  0  0  0
    6.3567   -4.5719    0.0000 O   0  0  0  0  0  0  0  0  0  0  0  0
    5.6423   -9.1094    0.0000 C   0  0  0  0  0  0  0  0  0  0  0  0
    4.9278   -5.3969    0.0000 C   0  0  1  0  0  0  0  0  0  0  0  0
    4.9278   -4.5719    0.0000 C   0  0  0  0  0  0  0  0  0  0  0  0
    4.2133   -4.1594    0.0000 C   0  0  0  0  0  0  0  0  0  0  0  0
    3.4988   -4.5719    0.0000 C   0  0  0  0  0  0  0  0  0  0  0  0
    3.4988   -5.3969    0.0000 C   0  0  0  0  0  0  0  0  0  0  0  0
    4.2133   -5.8094    0.0000 C   0  0  1  0  0  0  0  0  0  0  0  0
    3.4988   -7.0469    0.0000 C   0  0  0  0  0  0  0  0  0  0  0  0
    4.2133   -6.6344    0.0000 C   0  0  0  0  0  0  0  0  0  0  0  0
    4.9278   -7.0469    0.0000 C   0  0  0  0  0  0  0  0  0  0  0  0
    4.2133   -3.3344    0.0000 C   0  0  0  0  0  0  0  0  0  0  0  0
    7.7857   -5.3969    0.0000 C   0  0  0  0  0  0  0  0  0  0  0  0
    7.7857   -4.5719    0.0000 C   0  0  0  0  0  0  0  0  0  0  0  0
    8.5001   -4.1594    0.0000 C   0  0  0  0  0  0  0  0  0  0  0  0
    9.2146   -4.5719    0.0000 C   0  0  0  0  0  0  0  0  0  0  0  0
    9.2146   -5.3969    0.0000 C   0  0  0  0  0  0  0  0  0  0  0  0
    8.5001   -5.8094    0.0000 C   0  0  0  0  0  0  0  0  0  0  0  0
    9.9291   -5.8094    0.0000 C   0  0  0  0  0  0  0  0  0  0  0  0
   10.6436   -5.3969    0.0000 C   0  0  0  0  0  0  0  0  0  0  0  0
   11.3580   -5.8094    0.0000 C   0  0  0  0  0  0  0  0  0  0  0  0
    7.0712   -4.1594    0.0000 O   0  0  0  0  0  0  0  0  0  0  0  0
    5.6423   -8.2844    0.0000 C   0  0  0  0  0  0  0  0  0  0  0  0
    6.3567   -7.8719    0.0000 C   0  0  0  0  0  0  0  0  0  0  0  0
    5.6423   -4.9844    0.0000 H   0  0  0  0  0  0  0  0  0  0  0  0
 29  8  2  0  0  0  0
 30 29  1  0  0  0  0
  1  2  1  0  0  0  0
  2  3  2  0  0  0  0
  3  4  1  0  0  0  0
  4  5  2  0  0  0  0
  5  6  1  0  0  0  0
  1  6  2  0  0  0  0
  1  7  1  0  0  0  0
  4 30  1  0  0  0  0
  9 10  1  0  0  0  0
 10 11  2  0  0  0  0
 11 12  1  0  0  0  0
 12 13  1  0  0  0  0
 13 14  1  0  0  0  0
  9 14  1  0  0  0  0
 15 16  1  0  0  0  0
 16 17  1  0  0  0  0
 14 16  1  6  0  0  0
 11 18  1  0  0  0  0
  9  6  1  0  0  0  0
 19 20  1  0  0  0  0
 20 21  2  0  0  0  0
 21 22  1  0  0  0  0
 22 23  2  0  0  0  0
 23 24  1  0  0  0  0
 19 24  2  0  0  0  0
 25 26  1  0  0  0  0
 26 27  2  0  0  0  0
 23 25  1  0  0  0  0
 20 28  1  0  0  0  0
  2 19  1  0  0  0  0
  9 31  1  1  0  0  0
M  END
>  <cdx:fragmentId>
3878

$$$$
