302107.cdx
  Mrv1902 05222410222D          

 31 33  0  0  0  0            999 V2000
    9.7159   -8.7480    0.0000 C   0  0  2  0  0  0  0  0  0  0  0  0
    9.0043   -8.3307    0.0000 O   0  0  0  0  0  0  0  0  0  0  0  0
    8.2870   -8.7383    0.0000 C   0  0  1  0  0  0  0  0  0  0  0  0
    8.2815   -9.5633    0.0000 C   0  0  2  0  0  0  0  0  0  0  0  0
    8.9931   -9.9806    0.0000 C   0  0  1  0  0  0  0  0  0  0  0  0
    9.7104   -9.5730    0.0000 C   0  0  1  0  0  0  0  0  0  0  0  0
    7.5754   -8.3210    0.0000 C   0  0  0  0  0  0  0  0  0  0  0  0
    8.9876  -10.8056    0.0000 O   0  0  0  0  0  0  0  0  0  0  0  0
    7.5642   -9.9710    0.0000 O   0  0  0  0  0  0  0  0  0  0  0  0
   10.4220   -9.9903    0.0000 O   0  0  0  0  0  0  0  0  0  0  0  0
    6.8581   -8.7287    0.0000 O   0  0  0  0  0  0  0  0  0  0  0  0
   11.1643   -7.1126    0.0000 C   0  0  0  0  0  0  0  0  0  0  0  0
   11.1754   -6.2877    0.0000 C   0  0  0  0  0  0  0  0  0  0  0  0
   10.4666   -5.8656    0.0000 C   0  0  0  0  0  0  0  0  0  0  0  0
    9.7466   -6.2684    0.0000 O   0  0  0  0  0  0  0  0  0  0  0  0
    9.7355   -7.0933    0.0000 C   0  0  0  0  0  0  0  0  0  0  0  0
   10.4332   -8.3403    0.0000 O   0  0  0  0  0  0  0  0  0  0  0  0
   10.4443   -7.5154    0.0000 C   0  0  0  0  0  0  0  0  0  0  0  0
   11.8731   -7.5347    0.0000 O   0  0  0  0  0  0  0  0  0  0  0  0
    6.1464   -8.3114    0.0000 C   0  0  0  0  0  0  0  0  0  0  0  0
    5.4292   -8.7191    0.0000 C   0  0  0  0  0  0  0  0  0  0  0  0
    6.1520   -7.4864    0.0000 O   0  0  0  0  0  0  0  0  0  0  0  0
    4.7204   -8.2970    0.0000 C   0  0  0  0  0  0  0  0  0  0  0  0
    4.0004   -8.7191    0.0000 C   0  0  0  0  0  0  0  0  0  0  0  0
    4.0004   -9.5440    0.0000 C   0  0  1  0  0  0  0  0  0  0  0  0
    4.7204   -9.9661    0.0000 C   0  0  0  0  0  0  0  0  0  0  0  0
    5.4292   -9.5440    0.0000 C   0  0  0  0  0  0  0  0  0  0  0  0
    3.2846   -9.9541    0.0000 C   0  0  0  0  0  0  0  0  0  0  0  0
    2.5701  -10.3666    0.0000 O   0  0  0  0  0  0  0  0  0  0  0  0
    3.6971  -10.6686    0.0000 C   0  0  0  0  0  0  0  0  0  0  0  0
    2.8721   -9.2396    0.0000 C   0  0  0  0  0  0  0  0  0  0  0  0
 12 18  1  0  0  0  0
 13 12  1  0  0  0  0
 14 13  2  0  0  0  0
  1 17  1  1  0  0  0
  1  2  1  0  0  0  0
  2  3  1  0  0  0  0
  3  4  1  0  0  0  0
  4  5  1  0  0  0  0
  5  6  1  0  0  0  0
  6  1  1  0  0  0  0
  3  7  1  1  0  0  0
  5  8  1  1  0  0  0
  4  9  1  6  0  0  0
  6 10  1  6  0  0  0
  7 11  1  0  0  0  0
 15 14  1  0  0  0  0
 16 15  1  0  0  0  0
 18 16  2  0  0  0  0
 18 17  1  0  0  0  0
 12 19  2  0  0  0  0
 11 20  1  0  0  0  0
 20 21  1  0  0  0  0
 20 22  2  0  0  0  0
 21 23  1  0  0  0  0
 23 24  1  0  0  0  0
 24 25  1  0  0  0  0
 25 26  1  0  0  0  0
 26 27  1  0  0  0  0
 27 21  2  0  0  0  0
 25 28  1  1  0  0  0
 28 29  1  0  0  0  0
 28 30  1  0  0  0  0
 28 31  1  0  0  0  0
M  END
>  <cdx:fragmentId>
5

$$$$
