302182.cdx
  Mrv1902 05222410262D          

 17 17  0  0  0  0            999 V2000
    8.7652   -5.8059    0.0000 C   0  0  0  0  0  0  0  0  0  0  0  0
    9.1777   -6.5204    0.0000 C   0  0  0  0  0  0  0  0  0  0  0  0
    8.8763   -7.2883    0.0000 C   0  0  0  0  0  0  0  0  0  0  0  0
    8.0879   -7.5315    0.0000 C   0  0  0  0  0  0  0  0  0  0  0  0
    7.4063   -7.0668    0.0000 C   0  0  0  0  0  0  0  0  0  0  0  0
    7.3446   -6.2441    0.0000 C   0  0  0  0  0  0  0  0  0  0  0  0
    7.9494   -5.6829    0.0000 C   0  0  0  0  0  0  0  0  0  0  0  0
    9.1777   -5.0914    0.0000 O   0  0  0  0  0  0  0  0  0  0  0  0
    6.4537   -5.1269    0.0000 C   0  0  0  0  0  0  0  0  0  0  0  0
    6.5766   -5.9427    0.0000 C   0  0  0  0  0  0  0  0  0  0  0  0
    5.9316   -6.4571    0.0000 C   0  0  0  0  0  0  0  0  0  0  0  0
    6.6918   -7.4793    0.0000 C   0  0  0  0  0  0  0  0  0  0  0  0
    5.9773   -7.0668    0.0000 C   0  0  0  0  0  0  0  0  0  0  0  0
    5.2628   -7.4793    0.0000 C   0  0  0  0  0  0  0  0  0  0  0  0
    5.2628   -8.3043    0.0000 C   0  0  0  0  0  0  0  0  0  0  0  0
    4.5484   -7.0668    0.0000 C   0  0  0  0  0  0  0  0  0  0  0  0
   10.0027   -6.5204    0.0000 O   0  0  0  0  0  0  0  0  0  0  0  0
  1  2  1  0  0  0  0
  2  3  2  0  0  0  0
  3  4  1  0  0  0  0
  4  5  2  0  0  0  0
  5  6  1  0  0  0  0
  6  7  2  0  0  0  0
  1  7  1  0  0  0  0
  1  8  2  0  0  0  0
  9 10  2  0  0  0  0
 10 11  1  0  0  0  0
  6 10  1  0  0  0  0
 12 13  1  0  0  0  0
 13 14  2  0  0  0  0
 14 15  1  0  0  0  0
 14 16  1  0  0  0  0
  5 12  1  0  0  0  0
  2 17  1  0  0  0  0
M  END
>  <cdx:groupId>
1905

>  <cdx:fragmentId>
1857

$$$$
