302118.cdx
  Mrv1902 05222410252D          

 11 12  0  0  0  0            999 V2000
    9.0365   -6.8893    0.0000 O   0  0  0  0  0  0  0  0  0  0  0  0
    9.5215   -6.2219    0.0000 C   0  0  0  0  0  0  0  0  0  0  0  0
    9.0365   -5.5545    0.0000 O   0  0  0  0  0  0  0  0  0  0  0  0
    8.2519   -5.8094    0.0000 C   0  0  0  0  0  0  0  0  0  0  0  0
    8.2519   -6.6344    0.0000 C   0  0  0  0  0  0  0  0  0  0  0  0
    7.5375   -5.3969    0.0000 C   0  0  0  0  0  0  0  0  0  0  0  0
    6.8230   -5.8094    0.0000 C   0  0  0  0  0  0  0  0  0  0  0  0
    6.8230   -6.6344    0.0000 C   0  0  0  0  0  0  0  0  0  0  0  0
    7.5375   -7.0469    0.0000 C   0  0  0  0  0  0  0  0  0  0  0  0
    6.1085   -5.3969    0.0000 C   0  0  0  0  0  0  0  0  0  0  0  0
    5.3940   -5.8094    0.0000 O   0  0  0  0  0  0  0  0  0  0  0  0
  1  2  1  0  0  0  0
  2  3  1  0  0  0  0
  3  4  1  0  0  0  0
  4  5  1  0  0  0  0
  1  5  1  0  0  0  0
  6  7  1  0  0  0  0
  7  8  2  0  0  0  0
  8  9  1  0  0  0  0
  9  5  2  0  0  0  0
  6  4  2  0  0  0  0
 10 11  2  0  0  0  0
  7 10  1  0  0  0  0
M  END
>  <cdx:groupId>
4090

>  <cdx:fragmentId>
4059

$$$$
