302129.cdx
  Mrv1902 05222410212D          

 28 32  0  0  0  0            999 V2000
    6.1203   -7.0140    0.0000 H   0  0  0  0  0  0  0  0  0  0  0  0
    8.1313   -8.4568    0.0000 H   0  0  0  0  0  0  0  0  0  0  0  0
    9.8741   -8.7933    0.0000 C   0  0  0  0  0  0  0  0  0  0  0  0
    9.0880   -8.5431    0.0000 C   0  0  0  0  0  0  0  0  0  0  0  0
    8.9116   -7.7372    0.0000 C   0  0  0  0  0  0  0  0  0  0  0  0
    9.5214   -7.1815    0.0000 C   0  0  0  0  0  0  0  0  0  0  0  0
   10.4839   -8.2376    0.0000 C   0  0  0  0  0  0  0  0  0  0  0  0
   10.3075   -7.4317    0.0000 C   0  0  0  0  0  0  0  0  0  0  0  0
   11.0195   -7.0149    0.0000 O   0  0  0  0  0  0  0  0  0  0  0  0
   11.6359   -7.5633    0.0000 C   0  0  0  0  0  0  0  0  0  0  0  0
   11.3049   -8.3189    0.0000 O   0  0  0  0  0  0  0  0  0  0  0  0
    7.2108   -8.7620    0.0000 C   0  0  0  0  0  0  0  0  0  0  0  0
    6.1261   -7.9839    0.0000 C   0  0  1  0  0  0  0  0  0  0  0  0
    6.3858   -8.7669    0.0000 O   0  0  0  0  0  0  0  0  0  0  0  0
    8.1255   -7.4869    0.0000 C   0  0  1  0  0  0  0  0  0  0  0  0
    7.4610   -7.9759    0.0000 C   0  0  1  0  0  0  0  0  0  0  0  0
    6.7906   -7.4949    0.0000 C   0  0  1  0  0  0  0  0  0  0  0  0
    7.0409   -6.7088    0.0000 C   0  0  0  0  0  0  0  0  0  0  0  0
    7.8659   -6.7039    0.0000 O   0  0  0  0  0  0  0  0  0  0  0  0
    2.9816   -6.9829    0.0000 O   0  0  0  0  0  0  0  0  0  0  0  0
    4.3775   -6.6775    0.0000 C   0  0  0  0  0  0  0  0  0  0  0  0
    5.1636   -6.9277    0.0000 C   0  0  0  0  0  0  0  0  0  0  0  0
    5.3400   -7.7336    0.0000 C   0  0  0  0  0  0  0  0  0  0  0  0
    4.7302   -8.2893    0.0000 C   0  0  0  0  0  0  0  0  0  0  0  0
    3.9441   -8.0391    0.0000 C   0  0  0  0  0  0  0  0  0  0  0  0
    3.7677   -7.2332    0.0000 C   0  0  0  0  0  0  0  0  0  0  0  0
    4.2011   -5.8715    0.0000 O   0  0  0  0  0  0  0  0  0  0  0  0
    3.4150   -5.6213    0.0000 C   0  0  0  0  0  0  0  0  0  0  0  0
 17  1  1  1  0  0  0
 16  2  1  1  0  0  0
 13 23  1  6  0  0  0
 15  5  1  1  0  0  0
  6  8  2  0  0  0  0
  3  7  2  0  0  0  0
  4  3  1  0  0  0  0
  5  4  2  0  0  0  0
  6  5  1  0  0  0  0
 11  7  1  0  0  0  0
  8  7  1  0  0  0  0
  9  8  1  0  0  0  0
 10  9  1  0  0  0  0
 11 10  1  0  0  0  0
 12 16  1  0  0  0  0
 13 17  1  0  0  0  0
 14 12  1  0  0  0  0
 14 13  1  0  0  0  0
 19 15  1  0  0  0  0
 16 15  1  0  0  0  0
 17 16  1  0  0  0  0
 18 17  1  0  0  0  0
 19 18  1  0  0  0  0
 26 20  1  0  0  0  0
 26 21  2  0  0  0  0
 22 21  1  0  0  0  0
 23 22  2  0  0  0  0
 24 23  1  0  0  0  0
 25 24  2  0  0  0  0
 26 25  1  0  0  0  0
 21 27  1  0  0  0  0
 27 28  1  0  0  0  0
M  END
>  <cdx:fragmentId>
39

$$$$
