30211.cdx
  Mrv1902 05222410242D          

 10 10  0  0  0  0            999 V2000
    5.5525   -8.6889    0.0000 C   0  0  0  0  0  0  0  0  0  0  0  0
    5.5525   -9.5139    0.0000 C   0  0  0  0  0  0  0  0  0  0  0  0
    6.3775   -9.5139    0.0000 C   0  0  0  0  0  0  0  0  0  0  0  0
    6.3775   -8.6889    0.0000 C   0  0  0  0  0  0  0  0  0  0  0  0
    6.9609   -8.1055    0.0000 C   0  0  0  0  0  0  0  0  0  0  0  0
    6.9609  -10.0973    0.0000 C   0  0  0  0  0  0  0  0  0  0  0  0
    7.7578   -8.3191    0.0000 C   0  0  0  0  0  0  0  0  0  0  0  0
    6.7474   -7.3086    0.0000 C   0  0  0  0  0  0  0  0  0  0  0  0
    6.7474  -10.8942    0.0000 C   0  0  0  0  0  0  0  0  0  0  0  0
    7.7578   -9.8837    0.0000 C   0  0  0  0  0  0  0  0  0  0  0  0
  1  2  1  0  0  0  0
  2  3  1  0  0  0  0
  3  4  1  0  0  0  0
  4  1  1  0  0  0  0
  4  5  1  0  0  0  0
  3  6  1  0  0  0  0
  5  7  2  0  0  0  0
  5  8  1  0  0  0  0
  6  9  1  0  0  0  0
  6 10  2  0  0  0  0
M  END
>  <cdx:fragmentId>
5

$$$$
