302179.cdx
  Mrv1902 05222410282D          

 15 16  0  0  0  0            999 V2000
    7.7488   -7.4482    0.0000 C   0  0  0  0  0  0  0  0  0  0  0  0
    6.9238   -7.4482    0.0000 C   0  0  0  0  0  0  0  0  0  0  0  0
    6.6688   -6.6636    0.0000 C   0  0  2  0  0  0  0  0  0  0  0  0
    7.3363   -6.1787    0.0000 C   0  0  0  0  0  0  0  0  0  0  0  0
    8.0037   -6.6636    0.0000 C   0  0  2  0  0  0  0  0  0  0  0  0
    8.1753   -5.8566    0.0000 C   0  0  1  0  0  0  0  0  0  0  0  0
    8.9599   -5.6017    0.0000 C   0  0  0  0  0  0  0  0  0  0  0  0
    9.5730   -6.1537    0.0000 C   0  0  0  0  0  0  0  0  0  0  0  0
    9.4014   -6.9607    0.0000 C   0  0  0  0  0  0  0  0  0  0  0  0
    8.6168   -7.2156    0.0000 C   0  0  0  0  0  0  0  0  0  0  0  0
    5.7127   -5.6017    0.0000 C   0  0  0  0  0  0  0  0  0  0  0  0
    5.8842   -6.4087    0.0000 C   0  0  0  0  0  0  0  0  0  0  0  0
    5.2711   -6.9607    0.0000 C   0  0  0  0  0  0  0  0  0  0  0  0
    8.4453   -8.0226    0.0000 C   0  0  0  0  0  0  0  0  0  0  0  0
    7.5622   -5.3046    0.0000 C   0  0  0  0  0  0  0  0  0  0  0  0
  1  2  1  0  0  0  0
  2  3  1  0  0  0  0
  3  4  1  0  0  0  0
  5  4  1  1  0  0  0
  5  6  1  0  0  0  0
  6  7  1  0  0  0  0
  7  8  1  0  0  0  0
  8  9  1  0  0  0  0
  9 10  2  0  0  0  0
  5  1  1  6  0  0  0
 10  5  1  0  0  0  0
 11 12  2  0  0  0  0
 12 13  1  0  0  0  0
  3 12  1  1  0  0  0
 10 14  1  0  0  0  0
  6 15  1  6  0  0  0
M  END
>  <cdx:groupId>
1696

>  <cdx:fragmentId>
1653

$$$$
