302187.cdx
  Mrv1902 05222410282D          

  5  4  0  0  0  0            999 V2000
    6.7105   -6.3811    0.0000 C   0  0  0  0  0  0  0  0  0  0  0  0
    7.4250   -6.7936    0.0000 C   0  0  0  0  0  0  0  0  0  0  0  0
    8.1395   -6.3811    0.0000 C   0  0  0  0  0  0  0  0  0  0  0  0
    5.9961   -6.7936    0.0000 O   0  0  0  0  0  0  0  0  0  0  0  0
    8.8539   -6.7936    0.0000 O   0  0  0  0  0  0  0  0  0  0  0  0
  1  2  1  0  0  0  0
  2  3  1  0  0  0  0
  1  4  1  0  0  0  0
  3  5  1  0  0  0  0
M  END
>  <cdx:groupId>
2349

>  <cdx:fragmentId>
2338

$$$$
