302168.cdx
  Mrv1902 05222410262D          

 48 52  0  0  0  0            999 V2000
    4.2832  -10.7860    0.0000 C   0  0  0  0  0  0  0  0  0  0  0  0
    4.6957  -11.5005    0.0000 C   0  0  0  0  0  0  0  0  0  0  0  0
    5.4938  -11.2914    0.0000 C   0  0  0  0  0  0  0  0  0  0  0  0
    6.2871  -11.5005    0.0000 C   0  0  0  0  0  0  0  0  0  0  0  0
    5.8746  -10.7860    0.0000 O   0  0  0  0  0  0  0  0  0  0  0  0
    5.0765  -10.9950    0.0000 C   0  0  0  0  0  0  0  0  0  0  0  0
    7.0839  -11.2870    0.0000 O   0  0  0  0  0  0  0  0  0  0  0  0
    7.9089  -11.2870    0.0000 C   0  0  0  0  0  0  0  0  0  0  0  0
    8.3214  -12.0014    0.0000 C   0  0  0  0  0  0  0  0  0  0  0  0
    9.1464  -12.0014    0.0000 C   0  0  0  0  0  0  0  0  0  0  0  0
    9.5589  -11.2870    0.0000 C   0  0  0  0  0  0  0  0  0  0  0  0
    9.1464  -10.5725    0.0000 C   0  0  0  0  0  0  0  0  0  0  0  0
    8.3214  -10.5725    0.0000 C   0  0  0  0  0  0  0  0  0  0  0  0
   10.3558  -11.0734    0.0000 C   0  0  0  0  0  0  0  0  0  0  0  0
   11.0703  -11.4859    0.0000 O   0  0  0  0  0  0  0  0  0  0  0  0
   10.3558  -10.2484    0.0000 O   0  0  0  0  0  0  0  0  0  0  0  0
   11.2838  -12.2828    0.0000 C   0  0  0  0  0  0  0  0  0  0  0  0
   11.2690  -12.7681    0.0000 C   0  0  0  0  0  0  0  0  0  0  0  0
   11.8787  -13.3238    0.0000 C   0  0  0  0  0  0  0  0  0  0  0  0
   12.5758  -12.8826    0.0000 C   0  0  0  0  0  0  0  0  0  0  0  0
   13.3951  -12.8413    0.0000 C   0  0  0  0  0  0  0  0  0  0  0  0
   12.7854  -12.2856    0.0000 O   0  0  0  0  0  0  0  0  0  0  0  0
   12.0882  -12.7267    0.0000 C   0  0  0  0  0  0  0  0  0  0  0  0
   13.9784  -12.2580    0.0000 O   0  0  0  0  0  0  0  0  0  0  0  0
   14.1920  -11.4611    0.0000 C   0  0  0  0  0  0  0  0  0  0  0  0
   14.9064  -11.0486    0.0000 C   0  0  0  0  0  0  0  0  0  0  0  0
   14.9064  -10.2236    0.0000 C   0  0  0  0  0  0  0  0  0  0  0  0
   14.1920   -9.8111    0.0000 C   0  0  0  0  0  0  0  0  0  0  0  0
   13.4775  -10.2236    0.0000 C   0  0  0  0  0  0  0  0  0  0  0  0
   13.4775  -11.0486    0.0000 C   0  0  0  0  0  0  0  0  0  0  0  0
   15.6209  -11.4611    0.0000 O   0  0  0  0  0  0  0  0  0  0  0  0
   16.3354  -11.0486    0.0000 C   0  0  0  0  0  0  0  0  0  0  0  0
   16.3354  -10.2236    0.0000 C   0  0  0  0  0  0  0  0  0  0  0  0
   15.6209   -9.8111    0.0000 C   0  0  0  0  0  0  0  0  0  0  0  0
   17.0499  -11.4611    0.0000 O   0  0  0  0  0  0  0  0  0  0  0  0
   12.7630   -9.8111    0.0000 O   0  0  0  0  0  0  0  0  0  0  0  0
   12.0510   -9.4000    0.0000 C   0  0  0  0  0  0  0  0  0  0  0  0
   12.7630  -11.4611    0.0000 O   0  0  0  0  0  0  0  0  0  0  0  0
    3.5688  -11.1985    0.0000 O   0  0  0  0  0  0  0  0  0  0  0  0
    3.8707  -11.5005    0.0000 O   0  0  0  0  0  0  0  0  0  0  0  0
    5.9063  -12.0059    0.0000 O   0  0  0  0  0  0  0  0  0  0  0  0
    4.4931  -10.4117    0.0000 C   0  0  0  0  0  0  0  0  0  0  0  0
    4.7066   -9.6148    0.0000 O   0  0  0  0  0  0  0  0  0  0  0  0
    7.7381  -12.5848    0.0000 O   0  0  0  0  0  0  0  0  0  0  0  0
   10.6856  -13.3514    0.0000 O   0  0  0  0  0  0  0  0  0  0  0  0
   11.1642  -13.7363    0.0000 O   0  0  0  0  0  0  0  0  0  0  0  0
   13.2903  -13.2951    0.0000 O   0  0  0  0  0  0  0  0  0  0  0  0
    7.1567  -13.1661    0.0000 C   0  0  0  0  0  0  0  0  0  0  0  0
  1  2  1  0  0  0  0
  2  3  1  0  0  0  0
  3  4  1  0  0  0  0
  4  5  1  0  0  0  0
  5  6  1  0  0  0  0
  6  1  1  0  0  0  0
  4  7  1  0  0  0  0
  7  8  1  0  0  0  0
  8  9  2  0  0  0  0
  9 10  1  0  0  0  0
 10 11  2  0  0  0  0
 11 12  1  0  0  0  0
 12 13  2  0  0  0  0
 13  8  1  0  0  0  0
 11 14  1  0  0  0  0
 14 15  1  0  0  0  0
 14 16  2  0  0  0  0
 15 17  1  0  0  0  0
 18 19  1  0  0  0  0
 19 20  1  0  0  0  0
 20 21  1  0  0  0  0
 21 22  1  0  0  0  0
 22 23  1  0  0  0  0
 23 18  1  0  0  0  0
 17 23  1  0  0  0  0
 21 24  1  0  0  0  0
 24 25  1  0  0  0  0
 25 26  2  0  0  0  0
 26 27  1  0  0  0  0
 27 28  2  0  0  0  0
 28 29  1  0  0  0  0
 29 30  2  0  0  0  0
 30 25  1  0  0  0  0
 26 31  1  0  0  0  0
 31 32  1  0  0  0  0
 32 33  1  0  0  0  0
 33 34  2  0  0  0  0
 34 27  1  0  0  0  0
 32 35  2  0  0  0  0
 29 36  1  0  0  0  0
 30 38  1  0  0  0  0
  1 39  1  0  0  0  0
  2 40  1  0  0  0  0
  3 41  1  0  0  0  0
  6 42  1  0  0  0  0
 42 43  1  0  0  0  0
  9 44  1  0  0  0  0
 18 45  1  0  0  0  0
 19 46  1  0  0  0  0
 20 47  1  0  0  0  0
 36 37  1  0  0  0  0
 44 48  1  0  0  0  0
M  STY  2   1 SUP   2 SUP
M  SAL   1  2  36  37
M  SBL   1  1  40
M  SMT   1 OCH3
M  SAP   1  1  36  29  1
M  SAL   2  2  44  48
M  SBL   2  1  47
M  SMT   2 OCH3
M  SAP   2  1  44   9  1
M  END
>  <cdx:fragmentId>
9131

$$$$
