302111.cdx
  Mrv1902 05222410222D          

 24 25  0  0  0  0            999 V2000
   11.4287   -7.4980    0.0000 C   0  0  0  0  0  0  0  0  0  0  0  0
   10.7142   -7.0855    0.0000 C   0  0  0  0  0  0  0  0  0  0  0  0
   10.7142   -6.2605    0.0000 C   0  0  0  0  0  0  0  0  0  0  0  0
   11.4287   -5.8480    0.0000 C   0  0  0  0  0  0  0  0  0  0  0  0
   12.1432   -7.0855    0.0000 C   0  0  0  0  0  0  0  0  0  0  0  0
   12.1432   -6.2605    0.0000 C   0  0  0  0  0  0  0  0  0  0  0  0
   12.9278   -6.0055    0.0000 O   0  0  0  0  0  0  0  0  0  0  0  0
   13.4127   -6.6730    0.0000 C   0  0  0  0  0  0  0  0  0  0  0  0
   12.9278   -7.3404    0.0000 O   0  0  0  0  0  0  0  0  0  0  0  0
    2.1406   -7.0855    0.0000 C   0  0  0  0  0  0  0  0  0  0  0  0
    1.4261   -5.8480    0.0000 C   0  0  0  0  0  0  0  0  0  0  0  0
    2.1406   -6.2605    0.0000 C   0  0  0  0  0  0  0  0  0  0  0  0
    2.8550   -5.8480    0.0000 C   0  0  0  0  0  0  0  0  0  0  0  0
    3.5695   -6.2605    0.0000 N   0  0  0  0  0  0  0  0  0  0  0  0
    4.2840   -5.0230    0.0000 O   0  0  0  0  0  0  0  0  0  0  0  0
    9.9998   -5.8480    0.0000 C   0  0  0  0  0  0  0  0  0  0  0  0
    9.2853   -6.2605    0.0000 C   0  0  0  0  0  0  0  0  0  0  0  0
    8.5708   -5.8480    0.0000 C   0  0  0  0  0  0  0  0  0  0  0  0
    7.8563   -6.2605    0.0000 C   0  0  0  0  0  0  0  0  0  0  0  0
    7.1419   -5.8480    0.0000 C   0  0  0  0  0  0  0  0  0  0  0  0
    6.4274   -6.2605    0.0000 C   0  0  0  0  0  0  0  0  0  0  0  0
    5.7129   -5.8480    0.0000 C   0  0  0  0  0  0  0  0  0  0  0  0
    4.9985   -6.2605    0.0000 C   0  0  0  0  0  0  0  0  0  0  0  0
    4.2840   -5.8480    0.0000 C   0  0  0  0  0  0  0  0  0  0  0  0
 16  3  1  0  0  0  0
  4  6  2  0  0  0  0
  1  5  2  0  0  0  0
  2  1  1  0  0  0  0
  3  2  2  0  0  0  0
  4  3  1  0  0  0  0
  9  5  1  0  0  0  0
  6  5  1  0  0  0  0
  7  6  1  0  0  0  0
  8  7  1  0  0  0  0
  9  8  1  0  0  0  0
 14 13  1  0  0  0  0
 12 10  1  0  0  0  0
 12 11  1  0  0  0  0
 13 12  1  0  0  0  0
 24 14  1  0  0  0  0
 24 15  2  0  0  0  0
 17 16  1  0  0  0  0
 18 17  1  0  0  0  0
 19 18  1  0  0  0  0
 20 19  1  0  0  0  0
 21 20  2  0  0  0  0
 22 21  1  0  0  0  0
 23 22  2  0  0  0  0
 24 23  1  0  0  0  0
M  END
>  <cdx:groupId>
3836

>  <cdx:fragmentId>
3766

$$$$
