30216.cdx
  Mrv1902 05222410242D          

  7  7  0  0  0  0            999 V2000
    6.1397   -8.8401    0.0000 C   0  0  0  0  0  0  0  0  0  0  0  0
    6.1397   -9.6651    0.0000 C   0  0  0  0  0  0  0  0  0  0  0  0
    6.7847  -10.1795    0.0000 C   0  0  0  0  0  0  0  0  0  0  0  0
    7.5890   -9.9959    0.0000 C   0  0  0  0  0  0  0  0  0  0  0  0
    7.9470   -9.2526    0.0000 C   0  0  0  0  0  0  0  0  0  0  0  0
    7.5890   -8.5094    0.0000 C   0  0  0  0  0  0  0  0  0  0  0  0
    6.7847   -8.3258    0.0000 C   0  0  0  0  0  0  0  0  0  0  0  0
  1  2  2  0  0  0  0
  2  3  1  0  0  0  0
  3  4  2  0  0  0  0
  4  5  1  0  0  0  0
  5  6  1  0  0  0  0
  6  7  2  0  0  0  0
  7  1  1  0  0  0  0
M  END
>  <cdx:fragmentId>
23

$$$$
