302174.cdx
  Mrv1902 05222410182D          

 32 34  0  0  0  0            999 V2000
    4.9244   -7.5229    0.0000 C   0  0  0  0  0  0  0  0  0  0  0  0
    4.9244   -8.3479    0.0000 C   0  0  0  0  0  0  0  0  0  0  0  0
    4.2099   -8.7604    0.0000 C   0  0  0  0  0  0  0  0  0  0  0  0
    4.2099   -9.5854    0.0000 C   0  0  0  0  0  0  0  0  0  0  0  0
    4.2099   -7.1104    0.0000 O   0  0  0  0  0  0  0  0  0  0  0  0
    5.6388   -7.1104    0.0000 O   0  0  0  0  0  0  0  0  0  0  0  0
    5.6388   -8.7604    0.0000 C   0  0  0  0  0  0  0  0  0  0  0  0
    7.7822   -5.8729    0.0000 C   0  0  0  0  0  0  0  0  0  0  0  0
    7.7822   -5.0479    0.0000 C   0  0  0  0  0  0  0  0  0  0  0  0
    7.0678   -4.6354    0.0000 C   0  0  0  0  0  0  0  0  0  0  0  0
    6.3533   -5.0479    0.0000 C   0  0  0  0  0  0  0  0  0  0  0  0
    5.6388   -4.6354    0.0000 C   0  0  0  0  0  0  0  0  0  0  0  0
    4.9244   -5.0479    0.0000 C   0  0  0  0  0  0  0  0  0  0  0  0
    4.9244   -5.8729    0.0000 C   0  0  0  0  0  0  0  0  0  0  0  0
    5.6388   -6.2854    0.0000 C   0  0  0  0  0  0  0  0  0  0  0  0
    6.3533   -5.8729    0.0000 C   0  0  0  0  0  0  0  0  0  0  0  0
    7.0678   -6.2854    0.0000 O   0  0  0  0  0  0  0  0  0  0  0  0
    7.0678   -3.8104    0.0000 O   0  0  0  0  0  0  0  0  0  0  0  0
    8.4967   -6.2854    0.0000 C   0  0  0  0  0  0  0  0  0  0  0  0
    9.2112   -5.8729    0.0000 C   0  0  0  0  0  0  0  0  0  0  0  0
    9.9256   -6.2854    0.0000 C   0  0  0  0  0  0  0  0  0  0  0  0
    9.9256   -7.1104    0.0000 C   0  0  0  0  0  0  0  0  0  0  0  0
    9.2112   -7.5229    0.0000 C   0  0  0  0  0  0  0  0  0  0  0  0
    8.4967   -7.1104    0.0000 C   0  0  0  0  0  0  0  0  0  0  0  0
   10.6401   -7.5229    0.0000 O   0  0  0  0  0  0  0  0  0  0  0  0
   11.3546   -7.1104    0.0000 C   0  0  0  0  0  0  0  0  0  0  0  0
    4.2099   -4.6354    0.0000 O   0  0  0  0  0  0  0  0  0  0  0  0
    3.4954   -5.0479    0.0000 C   0  0  0  0  0  0  0  0  0  0  0  0
    8.4967   -4.6354    0.0000 O   0  0  0  0  0  0  0  0  0  0  0  0
    9.2112   -5.0479    0.0000 C   0  0  0  0  0  0  0  0  0  0  0  0
    4.2099   -6.2854    0.0000 O   0  0  0  0  0  0  0  0  0  0  0  0
    5.6388   -3.8104    0.0000 O   0  0  0  0  0  0  0  0  0  0  0  0
  1  2  1  0  0  0  0
  2  3  2  0  0  0  0
  3  4  1  0  0  0  0
  1  5  2  0  0  0  0
  1  6  1  0  0  0  0
  2  7  1  0  0  0  0
  8  9  2  0  0  0  0
  9 10  1  0  0  0  0
 10 11  1  0  0  0  0
 11 12  1  0  0  0  0
 12 13  2  0  0  0  0
 13 14  1  0  0  0  0
 14 15  2  0  0  0  0
 15 16  1  0  0  0  0
 11 16  2  0  0  0  0
 16 17  1  0  0  0  0
  8 17  1  0  0  0  0
 10 18  2  0  0  0  0
 19 20  1  0  0  0  0
 20 21  2  0  0  0  0
 21 22  1  0  0  0  0
 22 23  2  0  0  0  0
 23 24  1  0  0  0  0
 19 24  2  0  0  0  0
 25 26  1  0  0  0  0
 22 25  1  0  0  0  0
  8 19  1  0  0  0  0
 27 28  1  0  0  0  0
 13 27  1  0  0  0  0
 29 30  1  0  0  0  0
  9 29  1  0  0  0  0
 14 31  1  0  0  0  0
 12 32  1  0  0  0  0
  6 15  1  0  0  0  0
M  END
>  <cdx:groupId>
1260

>  <cdx:fragmentId>
1179

$$$$
