302151.cdx
  Mrv1902 05222410282D          

 23 24  0  0  0  0            999 V2000
   13.3253  -14.2747    0.0000 C   0  0  0  0  0  0  0  0  0  0  0  0
   13.3253  -15.0997    0.0000 C   0  0  0  0  0  0  0  0  0  0  0  0
   14.0398  -15.5122    0.0000 C   0  0  2  0  0  0  0  0  0  0  0  0
   14.7543  -15.0997    0.0000 C   0  0  2  0  0  0  0  0  0  0  0  0
   14.7543  -14.2747    0.0000 C   0  0  1  0  0  0  0  0  0  0  0  0
   14.0398  -13.8622    0.0000 C   0  0  0  0  0  0  0  0  0  0  0  0
   12.6109  -13.8622    0.0000 C   0  0  0  0  0  0  0  0  0  0  0  0
   12.6109  -13.0372    0.0000 O   0  0  0  0  0  0  0  0  0  0  0  0
   11.8964  -14.2747    0.0000 O   0  0  0  0  0  0  0  0  0  0  0  0
   15.4688  -13.8622    0.0000 O   0  0  0  0  0  0  0  0  0  0  0  0
   16.1832  -14.2747    0.0000 C   0  0  0  0  0  0  0  0  0  0  0  0
   16.8977  -13.8622    0.0000 C   0  0  0  0  0  0  0  0  0  0  0  0
   17.6122  -14.2747    0.0000 C   0  0  0  0  0  0  0  0  0  0  0  0
   18.3266  -13.8622    0.0000 C   0  0  0  0  0  0  0  0  0  0  0  0
   18.3266  -13.0372    0.0000 C   0  0  0  0  0  0  0  0  0  0  0  0
   17.6122  -12.6247    0.0000 C   0  0  0  0  0  0  0  0  0  0  0  0
   16.8977  -13.0372    0.0000 C   0  0  0  0  0  0  0  0  0  0  0  0
   16.1832  -15.0997    0.0000 O   0  0  0  0  0  0  0  0  0  0  0  0
   17.6122  -11.7997    0.0000 O   0  0  0  0  0  0  0  0  0  0  0  0
   19.0411  -12.6247    0.0000 O   0  0  0  0  0  0  0  0  0  0  0  0
   19.0411  -14.2747    0.0000 O   0  0  0  0  0  0  0  0  0  0  0  0
   15.4688  -15.5122    0.0000 O   0  0  0  0  0  0  0  0  0  0  0  0
   14.0398  -16.3372    0.0000 O   0  0  0  0  0  0  0  0  0  0  0  0
  1  2  2  0  0  0  0
  2  3  1  0  0  0  0
  3  4  1  0  0  0  0
  4  5  1  0  0  0  0
  5  6  1  0  0  0  0
  1  6  1  0  0  0  0
  7  8  2  0  0  0  0
  7  9  1  0  0  0  0
  1  7  1  0  0  0  0
 11 12  1  0  0  0  0
 12 13  1  0  0  0  0
 13 14  2  0  0  0  0
 14 15  1  0  0  0  0
 15 16  2  0  0  0  0
 16 17  1  0  0  0  0
 12 17  2  0  0  0  0
 11 18  2  0  0  0  0
 16 19  1  0  0  0  0
 15 20  1  0  0  0  0
 14 21  1  0  0  0  0
 10 11  1  0  0  0  0
  5 10  1  1  0  0  0
  4 22  1  6  0  0  0
  3 23  1  6  0  0  0
M  END
>  <cdx:groupId>
8347

>  <cdx:fragmentId>
8300

$$$$
