302143.cdx
  Mrv1902 05222410262D          

 20 22  0  0  0  0            999 V2000
    6.2018  -12.8333    0.0000 C   0  0  0  0  0  0  0  0  0  0  0  0
    6.2018  -13.6583    0.0000 C   0  0  0  0  0  0  0  0  0  0  0  0
    6.9163  -14.0708    0.0000 C   0  0  0  0  0  0  0  0  0  0  0  0
    7.6308  -13.6583    0.0000 C   0  0  0  0  0  0  0  0  0  0  0  0
    7.6308  -12.8333    0.0000 C   0  0  0  0  0  0  0  0  0  0  0  0
    6.9163  -12.4208    0.0000 O   0  0  0  0  0  0  0  0  0  0  0  0
    8.3452  -14.0708    0.0000 C   0  0  0  0  0  0  0  0  0  0  0  0
    9.0597  -13.6583    0.0000 C   0  0  0  0  0  0  0  0  0  0  0  0
    9.0597  -12.8333    0.0000 C   0  0  0  0  0  0  0  0  0  0  0  0
    8.3452  -12.4208    0.0000 C   0  0  0  0  0  0  0  0  0  0  0  0
    9.8443  -13.9133    0.0000 C   0  0  0  0  0  0  0  0  0  0  0  0
   10.3293  -13.2458    0.0000 C   0  0  0  0  0  0  0  0  0  0  0  0
    9.8443  -12.5784    0.0000 O   0  0  0  0  0  0  0  0  0  0  0  0
    8.3452  -11.5958    0.0000 O   0  0  0  0  0  0  0  0  0  0  0  0
    7.6308  -11.1833    0.0000 C   0  0  0  0  0  0  0  0  0  0  0  0
    7.6308  -10.3583    0.0000 C   0  0  0  0  0  0  0  0  0  0  0  0
    6.8339  -11.3969    0.0000 C   0  0  0  0  0  0  0  0  0  0  0  0
    5.4874  -12.4208    0.0000 O   0  0  0  0  0  0  0  0  0  0  0  0
    8.3452  -14.8958    0.0000 O   0  0  0  0  0  0  0  0  0  0  0  0
    8.9286  -15.4792    0.0000 C   0  0  0  0  0  0  0  0  0  0  0  0
  1  2  1  0  0  0  0
  2  3  2  0  0  0  0
  3  4  1  0  0  0  0
  4  5  2  0  0  0  0
  5  6  1  0  0  0  0
  6  1  1  0  0  0  0
  4  7  1  0  0  0  0
  7  8  2  0  0  0  0
  8  9  1  0  0  0  0
  9 10  2  0  0  0  0
 10  5  1  0  0  0  0
  8 11  1  0  0  0  0
 11 12  2  0  0  0  0
 12 13  1  0  0  0  0
 13  9  1  0  0  0  0
 10 14  1  0  0  0  0
 14 15  1  0  0  0  0
 15 16  1  0  0  0  0
 15 17  1  0  0  0  0
  1 18  2  0  0  0  0
  7 19  1  0  0  0  0
 19 20  1  0  0  0  0
M  END
>  <cdx:fragmentId>
7460

$$$$
