302199.cdx
  Mrv1902 05222410192D          

 48 54  0  0  0  0            999 V2000
    8.4227   -5.9627    0.0000 C   0  0  1  0  0  0  0  0  0  0  0  0
    7.8352   -6.5419    0.0000 O   0  0  0  0  0  0  0  0  0  0  0  0
    7.0102   -6.5360    0.0000 C   0  0  0  0  0  0  0  0  0  0  0  0
    6.4310   -5.9485    0.0000 C   0  0  1  0  0  0  0  0  0  0  0  0
    5.8435   -6.5277    0.0000 C   0  0  0  0  0  0  0  0  0  0  0  0
    6.2509   -7.2451    0.0000 C   0  0  0  0  0  0  0  0  0  0  0  0
    5.8333   -7.9566    0.0000 C   0  0  0  0  0  0  0  0  0  0  0  0
    5.0083   -7.9507    0.0000 C   0  0  0  0  0  0  0  0  0  0  0  0
    4.6009   -7.2333    0.0000 C   0  0  0  0  0  0  0  0  0  0  0  0
    5.0185   -6.5218    0.0000 C   0  0  0  0  0  0  0  0  0  0  0  0
    4.4393   -5.9343    0.0000 C   0  0  0  0  0  0  0  0  0  0  0  0
    3.7219   -6.3417    0.0000 C   0  0  0  0  0  0  0  0  0  0  0  0
    3.0104   -5.9241    0.0000 C   0  0  0  0  0  0  0  0  0  0  0  0
    3.0163   -5.0991    0.0000 C   0  0  0  0  0  0  0  0  0  0  0  0
    3.7337   -4.6917    0.0000 C   0  0  0  0  0  0  0  0  0  0  0  0
    4.4452   -5.1093    0.0000 C   0  0  0  0  0  0  0  0  0  0  0  0
    5.0327   -4.5301    0.0000 O   0  0  0  0  0  0  0  0  0  0  0  0
    5.8577   -4.5360    0.0000 C   0  0  0  0  0  0  0  0  0  0  0  0
    6.4369   -5.1235    0.0000 C   0  0  2  0  0  0  0  0  0  0  0  0
    7.0244   -4.5443    0.0000 O   0  0  0  0  0  0  0  0  0  0  0  0
    7.8494   -4.5502    0.0000 C   0  0  0  0  0  0  0  0  0  0  0  0
    8.4286   -5.1377    0.0000 C   0  0  2  0  0  0  0  0  0  0  0  0
    9.0161   -4.5586    0.0000 C   0  0  0  0  0  0  0  0  0  0  0  0
    9.8411   -4.5644    0.0000 O   0  0  0  0  0  0  0  0  0  0  0  0
   10.4202   -5.1519    0.0000 C   0  0  0  0  0  0  0  0  0  0  0  0
   11.1376   -4.7446    0.0000 C   0  0  0  0  0  0  0  0  0  0  0  0
   11.8491   -5.1621    0.0000 C   0  0  0  0  0  0  0  0  0  0  0  0
   11.8433   -5.9871    0.0000 C   0  0  0  0  0  0  0  0  0  0  0  0
   11.1259   -6.3945    0.0000 C   0  0  0  0  0  0  0  0  0  0  0  0
   10.4144   -5.9769    0.0000 C   0  0  0  0  0  0  0  0  0  0  0  0
    9.8268   -6.5561    0.0000 C   0  0  0  0  0  0  0  0  0  0  0  0
   10.2342   -7.2735    0.0000 C   0  0  0  0  0  0  0  0  0  0  0  0
    9.8166   -7.9850    0.0000 C   0  0  0  0  0  0  0  0  0  0  0  0
    8.9917   -7.9791    0.0000 C   0  0  0  0  0  0  0  0  0  0  0  0
    8.5843   -7.2617    0.0000 C   0  0  0  0  0  0  0  0  0  0  0  0
    9.0019   -6.5502    0.0000 C   0  0  0  0  0  0  0  0  0  0  0  0
    6.6890   -7.2959    0.0000 O   0  0  0  0  0  0  0  0  0  0  0  0
    6.2407   -8.6740    0.0000 O   0  0  0  0  0  0  0  0  0  0  0  0
    4.5907   -8.6622    0.0000 O   0  0  0  0  0  0  0  0  0  0  0  0
    2.3048   -4.6815    0.0000 O   0  0  0  0  0  0  0  0  0  0  0  0
    8.1705   -3.7903    0.0000 O   0  0  0  0  0  0  0  0  0  0  0  0
   12.5665   -4.7548    0.0000 O   0  0  0  0  0  0  0  0  0  0  0  0
   10.2240   -8.7024    0.0000 O   0  0  0  0  0  0  0  0  0  0  0  0
    8.5741   -8.6906    0.0000 O   0  0  0  0  0  0  0  0  0  0  0  0
    8.4168   -6.7877    0.0000 H   0  0  0  0  0  0  0  0  0  0  0  0
    6.4251   -6.7735    0.0000 H   0  0  0  0  0  0  0  0  0  0  0  0
    6.4428   -4.2985    0.0000 H   0  0  0  0  0  0  0  0  0  0  0  0
    8.4344   -4.3128    0.0000 H   0  0  0  0  0  0  0  0  0  0  0  0
  1  2  1  0  0  0  0
  2  3  1  0  0  0  0
  3  4  1  0  0  0  0
  4  5  1  0  0  0  0
  5  6  2  0  0  0  0
  6  7  1  0  0  0  0
  7  8  2  0  0  0  0
  8  9  1  0  0  0  0
  9 10  2  0  0  0  0
 10 11  1  0  0  0  0
 11 12  1  0  0  0  0
 12 13  2  0  0  0  0
 13 14  1  0  0  0  0
 14 15  2  0  0  0  0
 15 16  1  0  0  0  0
 16 17  1  0  0  0  0
 17 18  1  0  0  0  0
 18 19  1  0  0  0  0
 19 20  1  0  0  0  0
 20 21  1  0  0  0  0
 21 22  1  0  0  0  0
 22 23  1  0  0  0  0
 23 24  1  0  0  0  0
 24 25  1  0  0  0  0
 25 26  1  0  0  0  0
 26 27  2  0  0  0  0
 27 28  1  0  0  0  0
 28 29  2  0  0  0  0
 29 30  1  0  0  0  0
 30 31  1  0  0  0  0
 31 32  2  0  0  0  0
 32 33  1  0  0  0  0
 33 34  2  0  0  0  0
 34 35  1  0  0  0  0
 35 36  2  0  0  0  0
  1 36  1  0  0  0  0
  1 22  1  0  0  0  0
 25 30  2  0  0  0  0
  4 19  1  0  0  0  0
 11 16  2  0  0  0  0
  5 10  1  0  0  0  0
 31 36  1  0  0  0  0
  3 37  1  0  0  0  0
  7 38  1  0  0  0  0
  8 39  1  0  0  0  0
 14 40  1  0  0  0  0
 21 41  1  0  0  0  0
 27 42  1  0  0  0  0
 33 43  1  0  0  0  0
 34 44  1  0  0  0  0
  1 45  1  6  0  0  0
  4 46  1  6  0  0  0
 19 47  1  1  0  0  0
 22 48  1  1  0  0  0
M  END
>  <cdx:fragmentId>
71

$$$$
