30218.cdx
  Mrv1902 05222410222D          

  8  8  0  0  0  0            999 V2000
    7.2438   -9.4726    0.0000 C   0  0  0  0  0  0  0  0  0  0  0  0
    7.2438  -10.2976    0.0000 C   0  0  0  0  0  0  0  0  0  0  0  0
    7.9582  -10.7101    0.0000 C   0  0  0  0  0  0  0  0  0  0  0  0
    8.6727  -10.2976    0.0000 C   0  0  0  0  0  0  0  0  0  0  0  0
    8.6727   -9.4726    0.0000 C   0  0  0  0  0  0  0  0  0  0  0  0
    7.9582   -9.0601    0.0000 C   0  0  0  0  0  0  0  0  0  0  0  0
    6.5293   -9.0601    0.0000 C   0  0  0  0  0  0  0  0  0  0  0  0
    7.9582   -8.2351    0.0000 C   0  0  0  0  0  0  0  0  0  0  0  0
  1  2  1  0  0  0  0
  2  3  1  0  0  0  0
  3  4  1  0  0  0  0
  4  5  1  0  0  0  0
  5  6  1  0  0  0  0
  6  1  1  0  0  0  0
  1  7  1  0  0  0  0
  6  8  1  0  0  0  0
M  END
>  <cdx:fragmentId>
5

$$$$
