302163.cdx
  Mrv1902 05222410192D          

 15 15  0  0  0  0            999 V2000
    9.0085   -8.5223    0.0000 C   0  0  0  0  0  0  0  0  0  0  0  0
    9.0085   -9.3473    0.0000 C   0  0  0  0  0  0  0  0  0  0  0  0
    9.7229   -9.7598    0.0000 C   0  0  1  0  0  0  0  0  0  0  0  0
   10.4374   -9.3473    0.0000 C   0  0  0  0  0  0  0  0  0  0  0  0
   10.4374   -8.5223    0.0000 C   0  0  0  0  0  0  0  0  0  0  0  0
    9.7229   -8.1098    0.0000 C   0  0  0  0  0  0  0  0  0  0  0  0
   11.1519   -9.7598    0.0000 C   0  0  0  0  0  0  0  0  0  0  0  0
   11.8663   -9.3473    0.0000 C   0  0  0  0  0  0  0  0  0  0  0  0
   11.8663   -8.5223    0.0000 C   0  0  0  0  0  0  0  0  0  0  0  0
   11.1519   -8.1098    0.0000 C   0  0  0  0  0  0  0  0  0  0  0  0
    9.7229   -7.2854    0.0000 C   0  0  0  0  0  0  0  0  0  0  0  0
    9.7229  -10.5841    0.0000 C   0  0  0  0  0  0  0  0  0  0  0  0
   12.5803   -9.7594    0.0000 C   0  0  0  0  0  0  0  0  0  0  0  0
   10.4368  -10.9963    0.0000 C   0  0  0  0  0  0  0  0  0  0  0  0
    9.0090  -10.9963    0.0000 C   0  0  0  0  0  0  0  0  0  0  0  0
  1  2  2  0  0  0  0
  2  3  1  0  0  0  0
  3  4  1  0  0  0  0
  5  6  1  0  0  0  0
  6  1  1  0  0  0  0
  4  7  1  0  0  0  0
  7  8  1  0  0  0  0
  8  9  2  0  0  0  0
  9 10  1  0  0  0  0
 10  5  1  0  0  0  0
  6 11  2  0  0  0  0
  3 12  1  1  0  0  0
  8 13  1  0  0  0  0
 12 14  1  0  0  0  0
 12 15  1  0  0  0  0
M  END
>  <cdx:fragmentId>
8966

$$$$
