302144.cdx
  Mrv1902 05222410282D          

 91100  0  0  0  0            999 V2000
   10.8058  -11.4125    0.0000 C   0  0  1  0  0  0  0  0  0  0  0  0
   10.8058  -10.5875    0.0000 C   0  0  0  0  0  0  0  0  0  0  0  0
   11.5203  -10.1750    0.0000 C   0  0  0  0  0  0  0  0  0  0  0  0
   11.5203  -11.8250    0.0000 C   0  0  0  0  0  0  0  0  0  0  0  0
   12.2347  -11.4125    0.0000 C   0  0  2  0  0  0  0  0  0  0  0  0
   12.9492  -11.8250    0.0000 C   0  0  0  0  0  0  0  0  0  0  0  0
   13.6637  -11.4125    0.0000 C   0  0  0  0  0  0  0  0  0  0  0  0
   13.6637  -10.5875    0.0000 C   0  0  1  0  0  0  0  0  0  0  0  0
   14.3782  -10.1750    0.0000 C   0  0  2  0  0  0  0  0  0  0  0  0
   15.1628  -10.4299    0.0000 C   0  0  0  0  0  0  0  0  0  0  0  0
   15.6477   -9.7625    0.0000 C   0  0  2  0  0  0  0  0  0  0  0  0
   16.1326  -10.4299    0.0000 H   0  0  0  0  0  0  0  0  0  0  0  0
   16.4323   -9.5076    0.0000 O   0  0  0  0  0  0  0  0  0  0  0  0
   15.1628   -9.0951    0.0000 C   0  0  2  0  0  0  0  0  0  0  0  0
   14.8011   -8.3536    0.0000 H   0  0  0  0  0  0  0  0  0  0  0  0
   15.6477   -8.4276    0.0000 C   0  0  1  0  0  0  0  0  0  0  0  0
   16.4323   -8.6826    0.0000 C   0  0  1  0  0  0  0  0  0  0  0  0
   17.2528   -8.5963    0.0000 C   0  0  0  0  0  0  0  0  0  0  0  0
   17.7377   -9.2638    0.0000 C   0  0  0  0  0  0  0  0  0  0  0  0
   18.5582   -9.1775    0.0000 C   0  0  2  0  0  0  0  0  0  0  0  0
   19.0431   -9.8450    0.0000 C   0  0  0  0  0  0  0  0  0  0  0  0
   15.3928   -7.6430    0.0000 C   0  0  0  0  0  0  0  0  0  0  0  0
   14.3782   -9.3500    0.0000 C   0  0  2  0  0  0  0  0  0  0  0  0
   14.3782   -8.5250    0.0000 C   0  0  0  0  0  0  0  0  0  0  0  0
   13.6637   -8.9375    0.0000 C   0  0  0  0  0  0  0  0  0  0  0  0
   12.9492   -9.3500    0.0000 C   0  0  0  0  0  0  0  0  0  0  0  0
   12.9492  -10.1750    0.0000 C   0  0  2  0  0  0  0  0  0  0  0  0
   12.2347  -10.5875    0.0000 C   0  0  1  0  0  0  0  0  0  0  0  0
   12.2347   -9.7625    0.0000 C   0  0  0  0  0  0  0  0  0  0  0  0
   12.9492  -11.0000    0.0000 H   0  0  0  0  0  0  0  0  0  0  0  0
   13.6637   -9.7625    0.0000 H   0  0  0  0  0  0  0  0  0  0  0  0
   14.3782  -11.0000    0.0000 H   0  0  0  0  0  0  0  0  0  0  0  0
   10.0913  -11.8250    0.0000 O   0  0  0  0  0  0  0  0  0  0  0  0
   19.8636   -9.7587    0.0000 O   0  0  0  0  0  0  0  0  0  0  0  0
   20.3485  -10.4262    0.0000 C   0  0  2  0  0  0  0  0  0  0  0  0
   20.0130  -11.1798    0.0000 O   0  0  0  0  0  0  0  0  0  0  0  0
   20.4979  -11.8473    0.0000 C   0  0  1  0  0  0  0  0  0  0  0  0
   21.3184  -11.7610    0.0000 C   0  0  2  0  0  0  0  0  0  0  0  0
   21.6539  -11.0074    0.0000 C   0  0  1  0  0  0  0  0  0  0  0  0
   21.1690  -10.3399    0.0000 C   0  0  1  0  0  0  0  0  0  0  0  0
   20.1623  -12.6010    0.0000 C   0  0  0  0  0  0  0  0  0  0  0  0
   22.4744  -10.9211    0.0000 O   0  0  0  0  0  0  0  0  0  0  0  0
   21.5046   -9.5863    0.0000 O   0  0  0  0  0  0  0  0  0  0  0  0
   21.8033  -12.4285    0.0000 O   0  0  0  0  0  0  0  0  0  0  0  0
   20.6473  -13.2684    0.0000 O   0  0  0  0  0  0  0  0  0  0  0  0
   16.6458   -7.8857    0.0000 O   0  0  0  0  0  0  0  0  0  0  0  0
   18.8938   -8.4238    0.0000 C   0  0  0  0  0  0  0  0  0  0  0  0
   13.6637   -8.1125    0.0000 O   0  0  0  0  0  0  0  0  0  0  0  0
    9.3769  -11.4125    0.0000 C   0  0  2  0  0  0  0  0  0  0  0  0
    9.3769  -10.5875    0.0000 O   0  0  0  0  0  0  0  0  0  0  0  0
    8.6624  -10.1750    0.0000 C   0  0  1  0  0  0  0  0  0  0  0  0
    7.9479  -10.5875    0.0000 C   0  0  1  0  0  0  0  0  0  0  0  0
    7.9479  -11.4125    0.0000 C   0  0  1  0  0  0  0  0  0  0  0  0
    8.6624  -11.8250    0.0000 C   0  0  1  0  0  0  0  0  0  0  0  0
    8.6624   -9.3500    0.0000 C   0  0  0  0  0  0  0  0  0  0  0  0
    7.2334  -11.8250    0.0000 O   0  0  0  0  0  0  0  0  0  0  0  0
    7.2334  -10.1750    0.0000 O   0  0  0  0  0  0  0  0  0  0  0  0
    8.6624  -12.6500    0.0000 O   0  0  0  0  0  0  0  0  0  0  0  0
    7.9479   -8.9375    0.0000 O   0  0  0  0  0  0  0  0  0  0  0  0
    6.7969   -9.4749    0.0000 C   0  0  2  0  0  0  0  0  0  0  0  0
    7.1850   -8.7469    0.0000 O   0  0  0  0  0  0  0  0  0  0  0  0
    6.7484   -8.0468    0.0000 C   0  0  1  0  0  0  0  0  0  0  0  0
    5.9239   -8.0748    0.0000 C   0  0  2  0  0  0  0  0  0  0  0  0
    5.5359   -8.8029    0.0000 C   0  0  1  0  0  0  0  0  0  0  0  0
    5.9724   -9.5029    0.0000 C   0  0  1  0  0  0  0  0  0  0  0  0
    7.1365   -7.3188    0.0000 C   0  0  0  0  0  0  0  0  0  0  0  0
    4.7114   -8.8309    0.0000 O   0  0  0  0  0  0  0  0  0  0  0  0
    5.5844  -10.2310    0.0000 O   0  0  0  0  0  0  0  0  0  0  0  0
    5.4874   -7.3747    0.0000 O   0  0  0  0  0  0  0  0  0  0  0  0
    6.7000   -6.6187    0.0000 O   0  0  0  0  0  0  0  0  0  0  0  0
    4.1563  -10.2801    0.0000 O   0  0  0  0  0  0  0  0  0  0  0  0
    4.2749   -8.1308    0.0000 C   0  0  2  0  0  0  0  0  0  0  0  0
    4.6647   -7.4037    0.0000 O   0  0  0  0  0  0  0  0  0  0  0  0
    4.2247   -6.7059    0.0000 C   0  0  0  0  0  0  0  0  0  0  0  0
    3.3948   -6.7352    0.0000 C   0  0  2  0  0  0  0  0  0  0  0  0
    3.0107   -7.4714    0.0000 C   0  0  1  0  0  0  0  0  0  0  0  0
    3.4508   -8.1692    0.0000 C   0  0  1  0  0  0  0  0  0  0  0  0
    3.0692   -8.9007    0.0000 O   0  0  0  0  0  0  0  0  0  0  0  0
    2.1864   -7.5052    0.0000 O   0  0  0  0  0  0  0  0  0  0  0  0
    2.9547   -6.0373    0.0000 O   0  0  0  0  0  0  0  0  0  0  0  0
    4.8845  -10.6678    0.0000 C   0  0  2  0  0  0  0  0  0  0  0  0
    3.4540  -10.6711    0.0000 C   0  0  1  0  0  0  0  0  0  0  0  0
    3.4559  -11.4934    0.0000 C   0  0  2  0  0  0  0  0  0  0  0  0
    4.1674  -11.9056    0.0000 C   0  0  1  0  0  0  0  0  0  0  0  0
    4.8817  -11.4928    0.0000 C   0  0  1  0  0  0  0  0  0  0  0  0
    2.7423  -10.2539    0.0000 C   0  0  0  0  0  0  0  0  0  0  0  0
    4.1669  -12.7306    0.0000 O   0  0  0  0  0  0  0  0  0  0  0  0
    5.5955  -11.9064    0.0000 O   0  0  0  0  0  0  0  0  0  0  0  0
    2.7416  -11.9061    0.0000 O   0  0  0  0  0  0  0  0  0  0  0  0
    2.0251  -10.6617    0.0000 O   0  0  0  0  0  0  0  0  0  0  0  0
   12.2347  -12.2375    0.0000 H   0  0  0  0  0  0  0  0  0  0  0  0
  1  2  1  0  0  0  0
  2  3  1  0  0  0  0
  1  4  1  0  0  0  0
  4  5  1  0  0  0  0
  5  6  1  0  0  0  0
  6  7  1  0  0  0  0
  7  8  1  0  0  0  0
  8  9  1  0  0  0  0
  9 10  1  0  0  0  0
 10 11  1  0  0  0  0
 11 12  1  6  0  0  0
 11 13  1  0  0  0  0
 11 14  1  0  0  0  0
 14 15  1  6  0  0  0
 14 16  1  0  0  0  0
 16 17  1  0  0  0  0
 13 17  1  0  0  0  0
 17 18  1  0  0  0  0
 18 19  1  0  0  0  0
 19 20  1  0  0  0  0
 20 21  1  0  0  0  0
 16 22  1  6  0  0  0
 14 23  1  0  0  0  0
  9 23  1  0  0  0  0
 23 24  1  1  0  0  0
 23 25  1  0  0  0  0
 25 26  1  0  0  0  0
 26 27  1  0  0  0  0
  8 27  1  0  0  0  0
 27 28  1  0  0  0  0
  3 28  1  0  0  0  0
  5 28  1  0  0  0  0
 28 29  1  1  0  0  0
 27 30  1  6  0  0  0
  8 31  1  1  0  0  0
  9 32  1  6  0  0  0
  1 33  1  1  0  0  0
 21 34  1  0  0  0  0
 35 34  1  1  0  0  0
 35 36  1  0  0  0  0
 36 37  1  0  0  0  0
 37 38  1  0  0  0  0
 38 39  1  0  0  0  0
 39 40  1  0  0  0  0
 40 35  1  0  0  0  0
 37 41  1  1  0  0  0
 39 42  1  1  0  0  0
 40 43  1  6  0  0  0
 38 44  1  6  0  0  0
 41 45  1  0  0  0  0
 17 46  1  6  0  0  0
 20 47  1  1  0  0  0
 25 48  2  0  0  0  0
 49 33  1  1  0  0  0
 49 50  1  0  0  0  0
 50 51  1  0  0  0  0
 51 52  1  0  0  0  0
 52 53  1  0  0  0  0
 53 54  1  0  0  0  0
 54 49  1  0  0  0  0
 51 55  1  1  0  0  0
 53 56  1  1  0  0  0
 52 57  1  1  0  0  0
 54 58  1  6  0  0  0
 55 59  1  0  0  0  0
 60 57  1  1  0  0  0
 60 61  1  0  0  0  0
 61 62  1  0  0  0  0
 62 63  1  0  0  0  0
 63 64  1  0  0  0  0
 64 65  1  0  0  0  0
 65 60  1  0  0  0  0
 62 66  1  1  0  0  0
 64 67  1  1  0  0  0
 65 68  1  6  0  0  0
 63 69  1  6  0  0  0
 66 70  1  0  0  0  0
 72 67  1  1  0  0  0
 72 73  1  0  0  0  0
 73 74  1  0  0  0  0
 74 75  1  0  0  0  0
 75 76  1  0  0  0  0
 76 77  1  0  0  0  0
 77 72  1  0  0  0  0
 77 78  1  6  0  0  0
 76 79  1  1  0  0  0
 75 80  1  6  0  0  0
 81 68  1  1  0  0  0
 81 71  1  0  0  0  0
 71 82  1  0  0  0  0
 82 83  1  0  0  0  0
 83 84  1  0  0  0  0
 84 85  1  0  0  0  0
 85 81  1  0  0  0  0
 82 86  1  1  0  0  0
 84 87  1  1  0  0  0
 85 88  1  6  0  0  0
 83 89  1  6  0  0  0
 86 90  1  0  0  0  0
  5 91  1  6  0  0  0
M  END
>  <cdx:fragmentId>
5

$$$$
