30219.cdx
  Mrv1902 05222410222D          

 10 10  0  0  0  0            999 V2000
    6.4056   -4.9764    0.0000 C   0  0  0  0  0  0  0  0  0  0  0  0
    6.4056   -5.8014    0.0000 C   0  0  0  0  0  0  0  0  0  0  0  0
    7.1200   -6.2139    0.0000 C   0  0  0  0  0  0  0  0  0  0  0  0
    7.8345   -5.8014    0.0000 C   0  0  0  0  0  0  0  0  0  0  0  0
    7.8345   -4.9764    0.0000 C   0  0  0  0  0  0  0  0  0  0  0  0
    7.1200   -4.5639    0.0000 C   0  0  0  0  0  0  0  0  0  0  0  0
    7.1200   -7.0389    0.0000 C   0  0  0  0  0  0  0  0  0  0  0  0
    7.1200   -3.7389    0.0000 C   0  0  0  0  0  0  0  0  0  0  0  0
    6.4056   -3.3264    0.0000 C   0  0  0  0  0  0  0  0  0  0  0  0
    7.8345   -3.3264    0.0000 C   0  0  0  0  0  0  0  0  0  0  0  0
  1  2  1  0  0  0  0
  2  3  2  0  0  0  0
  3  4  1  0  0  0  0
  4  5  1  0  0  0  0
  5  6  1  0  0  0  0
  6  1  2  0  0  0  0
  3  7  1  0  0  0  0
  6  8  1  0  0  0  0
  8  9  2  0  0  0  0
  8 10  1  0  0  0  0
M  END
>  <cdx:fragmentId>
5

$$$$
