302189.cdx
  Mrv1902 05222410192D          

  9  8  0  0  0  0            999 V2000
    8.1395   -6.4366    0.0000 C   0  0  0  0  0  0  0  0  0  0  0  0
    7.4250   -6.0241    0.0000 C   0  0  0  0  0  0  0  0  0  0  0  0
    6.7105   -6.4366    0.0000 C   0  0  0  0  0  0  0  0  0  0  0  0
    8.1395   -7.2616    0.0000 O   0  0  0  0  0  0  0  0  0  0  0  0
    8.8539   -6.0241    0.0000 O   0  0  0  0  0  0  0  0  0  0  0  0
    6.7105   -7.2616    0.0000 O   0  0  0  0  0  0  0  0  0  0  0  0
    5.9961   -6.0241    0.0000 O   0  0  0  0  0  0  0  0  0  0  0  0
    9.5684   -6.4366    0.0000 C   0  0  0  0  0  0  0  0  0  0  0  0
    5.2816   -6.4366    0.0000 C   0  0  0  0  0  0  0  0  0  0  0  0
  1  2  1  0  0  0  0
  2  3  1  0  0  0  0
  1  4  2  0  0  0  0
  1  5  1  0  0  0  0
  3  6  2  0  0  0  0
  3  7  1  0  0  0  0
  5  8  1  0  0  0  0
  7  9  1  0  0  0  0
M  END
>  <cdx:fragmentId>
2372

$$$$
