302113.cdx
  Mrv1902 05222410222D          

 23 27  0  0  0  0            999 V2000
    5.1093   -7.2684    0.0000 C   0  0  0  0  0  0  0  0  0  0  0  0
    5.6991   -7.8453    0.0000 C   0  0  0  0  0  0  0  0  0  0  0  0
    6.4936   -7.6230    0.0000 C   0  0  0  0  0  0  0  0  0  0  0  0
    6.6983   -6.8238    0.0000 C   0  0  0  0  0  0  0  0  0  0  0  0
    6.1086   -6.2469    0.0000 C   0  0  0  0  0  0  0  0  0  0  0  0
    5.3141   -6.4692    0.0000 C   0  0  0  0  0  0  0  0  0  0  0  0
    7.1904   -8.0647    0.0000 N   0  0  0  0  0  0  0  0  0  0  0  0
    7.8258   -7.5385    0.0000 C   0  0  0  0  0  0  0  0  0  0  0  0
    7.5217   -6.7716    0.0000 C   0  0  0  0  0  0  0  0  0  0  0  0
    8.6420   -7.6586    0.0000 C   0  0  0  0  0  0  0  0  0  0  0  0
    9.1541   -7.0117    0.0000 N   0  0  0  0  0  0  0  0  0  0  0  0
    8.8500   -6.2448    0.0000 C   0  0  0  0  0  0  0  0  0  0  0  0
    8.0338   -6.1248    0.0000 C   0  0  0  0  0  0  0  0  0  0  0  0
    7.2057   -8.8896    0.0000 C   0  0  0  0  0  0  0  0  0  0  0  0
    7.8601   -9.3919    0.0000 C   0  0  0  0  0  0  0  0  0  0  0  0
    8.6609   -9.1935    0.0000 C   0  0  0  0  0  0  0  0  0  0  0  0
    9.0050   -8.4437    0.0000 N   0  0  0  0  0  0  0  0  0  0  0  0
    9.8300   -8.4346    0.0000 C   0  0  0  0  0  0  0  0  0  0  0  0
    7.6555  -10.1908    0.0000 C   0  0  0  0  0  0  0  0  0  0  0  0
    8.2516  -10.7912    0.0000 C   0  0  0  0  0  0  0  0  0  0  0  0
    9.0524  -10.5927    0.0000 C   0  0  0  0  0  0  0  0  0  0  0  0
    9.2570   -9.7939    0.0000 C   0  0  0  0  0  0  0  0  0  0  0  0
    6.4958   -9.3099    0.0000 O   0  0  0  0  0  0  0  0  0  0  0  0
  1  2  2  0  0  0  0
  2  3  1  0  0  0  0
  3  4  2  0  0  0  0
  4  5  1  0  0  0  0
  5  6  2  0  0  0  0
  6  1  1  0  0  0  0
  3  7  1  0  0  0  0
  7  8  1  0  0  0  0
  8  9  2  0  0  0  0
  9  4  1  0  0  0  0
  8 10  1  0  0  0  0
 10 11  2  0  0  0  0
 11 12  1  0  0  0  0
 12 13  2  0  0  0  0
 13  9  1  0  0  0  0
  7 14  1  0  0  0  0
 14 15  1  0  0  0  0
 15 16  2  0  0  0  0
 16 17  1  0  0  0  0
 17 10  1  0  0  0  0
 17 18  1  0  0  0  0
 15 19  1  0  0  0  0
 19 20  2  0  0  0  0
 20 21  1  0  0  0  0
 21 22  2  0  0  0  0
 22 16  1  0  0  0  0
 14 23  2  0  0  0  0
M  END
>  <cdx:fragmentId>
5910

$$$$
