302190.cdx
  Mrv1902 05222410272D          

  7  6  0  0  0  0            999 V2000
    8.1395   -6.4366    0.0000 C   0  0  0  0  0  0  0  0  0  0  0  0
    8.1395   -5.6116    0.0000 C   0  0  0  0  0  0  0  0  0  0  0  0
    5.9961   -6.8491    0.0000 C   0  0  0  0  0  0  0  0  0  0  0  0
    8.8539   -6.8491    0.0000 O   0  0  0  0  0  0  0  0  0  0  0  0
    6.7105   -6.4366    0.0000 O   0  0  0  0  0  0  0  0  0  0  0  0
    7.4250   -7.6741    0.0000 O   0  0  0  0  0  0  0  0  0  0  0  0
    7.4250   -6.8491    0.0000 C   0  0  0  0  0  0  0  0  0  0  0  0
  5  3  1  0  0  0  0
  7  5  1  0  0  0  0
  7  6  2  0  0  0  0
  7  1  1  0  0  0  0
  1  2  1  0  0  0  0
  1  4  1  0  0  0  0
M  END
>  <cdx:fragmentId>
2400

$$$$
