302122.cdx
  Mrv1902 05222410232D          

 38 41  0  0  0  0            999 V2000
    5.0473   -3.9413    0.0000 C   0  0  0  0  0  0  0  0  0  0  0  0
    4.3328   -3.5288    0.0000 C   0  0  0  0  0  0  0  0  0  0  0  0
    4.3328   -2.7038    0.0000 C   0  0  0  0  0  0  0  0  0  0  0  0
    3.6184   -2.2913    0.0000 C   0  0  0  0  0  0  0  0  0  0  0  0
    5.7618   -3.5288    0.0000 O   0  0  0  0  0  0  0  0  0  0  0  0
    5.0473   -4.7663    0.0000 C   0  0  0  0  0  0  0  0  0  0  0  0
    5.7618   -5.1788    0.0000 C   0  0  0  0  0  0  0  0  0  0  0  0
    5.7618   -6.0038    0.0000 C   0  0  0  0  0  0  0  0  0  0  0  0
    5.0473   -6.4163    0.0000 C   0  0  0  0  0  0  0  0  0  0  0  0
    4.3328   -6.0038    0.0000 C   0  0  0  0  0  0  0  0  0  0  0  0
    4.3328   -5.1788    0.0000 C   0  0  0  0  0  0  0  0  0  0  0  0
    3.6184   -6.4163    0.0000 C   0  0  0  0  0  0  0  0  0  0  0  0
    3.6184   -4.7663    0.0000 O   0  0  0  0  0  0  0  0  0  0  0  0
    2.9039   -5.1788    0.0000 C   0  0  0  0  0  0  0  0  0  0  0  0
    5.0473   -7.2413    0.0000 O   0  0  0  0  0  0  0  0  0  0  0  0
    6.4763   -4.7663    0.0000 O   0  0  0  0  0  0  0  0  0  0  0  0
    6.6906   -6.5401    0.0000 C   0  0  0  0  0  0  0  0  0  0  0  0
    8.8340   -8.0251    0.0000 C   0  0  2  0  0  0  0  0  0  0  0  0
    8.8340   -8.8501    0.0000 C   0  0  1  0  0  0  0  0  0  0  0  0
    8.1195   -9.2626    0.0000 C   0  0  0  0  0  0  0  0  0  0  0  0
    7.4051   -8.8501    0.0000 C   0  0  0  0  0  0  0  0  0  0  0  0
    6.6906   -9.2626    0.0000 C   0  0  0  0  0  0  0  0  0  0  0  0
    5.9761   -8.8501    0.0000 C   0  0  0  0  0  0  0  0  0  0  0  0
    5.9761   -8.0251    0.0000 C   0  0  0  0  0  0  0  0  0  0  0  0
    6.6906   -7.6126    0.0000 C   0  0  0  0  0  0  0  0  0  0  0  0
    7.4051   -8.0251    0.0000 C   0  0  0  0  0  0  0  0  0  0  0  0
    8.1195   -7.6126    0.0000 O   0  0  0  0  0  0  0  0  0  0  0  0
    5.2617   -7.6126    0.0000 O   0  0  0  0  0  0  0  0  0  0  0  0
    6.6906  -10.0876    0.0000 O   0  0  0  0  0  0  0  0  0  0  0  0
    9.5485   -9.2626    0.0000 O   0  0  0  0  0  0  0  0  0  0  0  0
    9.5485   -7.6126    0.0000 C   0  0  0  0  0  0  0  0  0  0  0  0
   10.2630   -8.0251    0.0000 C   0  0  0  0  0  0  0  0  0  0  0  0
   10.9774   -7.6126    0.0000 C   0  0  0  0  0  0  0  0  0  0  0  0
   10.9774   -6.7876    0.0000 C   0  0  0  0  0  0  0  0  0  0  0  0
   10.2630   -6.3751    0.0000 C   0  0  0  0  0  0  0  0  0  0  0  0
    9.5485   -6.7876    0.0000 C   0  0  0  0  0  0  0  0  0  0  0  0
   11.6919   -6.3751    0.0000 O   0  0  0  0  0  0  0  0  0  0  0  0
   11.6919   -8.0251    0.0000 O   0  0  0  0  0  0  0  0  0  0  0  0
  1  2  1  0  0  0  0
  2  3  1  0  0  0  0
  3  4  1  0  0  0  0
  1  5  2  0  0  0  0
  6  7  1  0  0  0  0
  7  8  2  0  0  0  0
  8  9  1  0  0  0  0
  9 10  2  0  0  0  0
 10 11  1  0  0  0  0
  6 11  2  0  0  0  0
 10 12  1  0  0  0  0
 13 14  1  0  0  0  0
 11 13  1  0  0  0  0
  9 15  1  0  0  0  0
  7 16  1  0  0  0  0
 18 19  1  0  0  0  0
 19 20  1  0  0  0  0
 20 21  1  0  0  0  0
 21 22  1  0  0  0  0
 22 23  2  0  0  0  0
 23 24  1  0  0  0  0
 24 25  2  0  0  0  0
 25 26  1  0  0  0  0
 21 26  2  0  0  0  0
 26 27  1  0  0  0  0
 18 27  1  0  0  0  0
 24 28  1  0  0  0  0
 22 29  1  0  0  0  0
 19 30  1  6  0  0  0
 31 32  1  0  0  0  0
 32 33  2  0  0  0  0
 33 34  1  0  0  0  0
 34 35  2  0  0  0  0
 35 36  1  0  0  0  0
 31 36  2  0  0  0  0
 34 37  1  0  0  0  0
 33 38  1  0  0  0  0
 18 31  1  6  0  0  0
 17 25  1  0  0  0  0
  8 17  1  0  0  0  0
  1  6  1  0  0  0  0
M  END
>  <cdx:fragmentId>
3119

$$$$
