302181.cdx
  Mrv1902 05222410272D          

 22 23  0  0  0  0            999 V2000
    7.4250   -7.4594    0.0000 N   0  0  0  0  0  0  0  0  0  0  0  0
    8.1395   -7.0469    0.0000 C   0  0  0  0  0  0  0  0  0  0  0  0
    8.1395   -6.2219    0.0000 C   0  0  0  0  0  0  0  0  0  0  0  0
    7.4250   -5.8094    0.0000 C   0  0  0  0  0  0  0  0  0  0  0  0
    6.7105   -6.2219    0.0000 C   0  0  0  0  0  0  0  0  0  0  0  0
    5.9961   -5.8094    0.0000 C   0  0  0  0  0  0  0  0  0  0  0  0
    5.2816   -6.2219    0.0000 C   0  0  0  0  0  0  0  0  0  0  0  0
    5.2816   -7.0469    0.0000 C   0  0  0  0  0  0  0  0  0  0  0  0
    5.9961   -7.4594    0.0000 C   0  0  0  0  0  0  0  0  0  0  0  0
    6.7105   -7.0469    0.0000 C   0  0  0  0  0  0  0  0  0  0  0  0
    8.8539   -7.4594    0.0000 O   0  0  0  0  0  0  0  0  0  0  0  0
    8.8539   -5.8094    0.0000 C   0  0  0  0  0  0  0  0  0  0  0  0
    9.5684   -6.2219    0.0000 C   0  0  0  0  0  0  0  0  0  0  0  0
   10.2829   -5.8094    0.0000 C   0  0  0  0  0  0  0  0  0  0  0  0
   10.2829   -4.9844    0.0000 C   0  0  0  0  0  0  0  0  0  0  0  0
   10.9974   -6.2219    0.0000 C   0  0  0  0  0  0  0  0  0  0  0  0
    5.9961   -8.2844    0.0000 O   0  0  0  0  0  0  0  0  0  0  0  0
    5.2816   -8.6969    0.0000 C   0  0  0  0  0  0  0  0  0  0  0  0
    4.5671   -7.4594    0.0000 O   0  0  0  0  0  0  0  0  0  0  0  0
    3.8526   -7.0469    0.0000 C   0  0  0  0  0  0  0  0  0  0  0  0
    7.4250   -4.9844    0.0000 O   0  0  0  0  0  0  0  0  0  0  0  0
    8.1395   -4.5719    0.0000 C   0  0  0  0  0  0  0  0  0  0  0  0
  1  2  1  0  0  0  0
  2  3  1  0  0  0  0
  3  4  2  0  0  0  0
  4  5  1  0  0  0  0
  5  6  1  0  0  0  0
  6  7  2  0  0  0  0
  7  8  1  0  0  0  0
  8  9  2  0  0  0  0
  9 10  1  0  0  0  0
  1 10  1  0  0  0  0
  5 10  2  0  0  0  0
  2 11  2  0  0  0  0
 12 13  1  0  0  0  0
 13 14  2  0  0  0  0
 14 15  1  0  0  0  0
 14 16  1  0  0  0  0
  3 12  1  0  0  0  0
 17 18  1  0  0  0  0
  9 17  1  0  0  0  0
 19 20  1  0  0  0  0
  8 19  1  0  0  0  0
 21 22  1  0  0  0  0
  4 21  1  0  0  0  0
M  END
>  <cdx:fragmentId>
1785

$$$$
