302114.cdx
  Mrv1902 05222410212D          

 10 10  0  0  0  0            999 V2000
    8.3507   -6.5873    0.0000 C   0  0  0  0  0  0  0  0  0  0  0  0
    7.6362   -6.9998    0.0000 C   0  0  0  0  0  0  0  0  0  0  0  0
    8.3507   -5.7623    0.0000 O   0  0  0  0  0  0  0  0  0  0  0  0
    9.0651   -6.9998    0.0000 O   0  0  0  0  0  0  0  0  0  0  0  0
    6.9217   -6.5873    0.0000 N   0  0  0  0  0  0  0  0  0  0  0  0
    6.2072   -6.9998    0.0000 C   0  0  0  0  0  0  0  0  0  0  0  0
    5.4928   -6.5873    0.0000 C   0  0  0  0  0  0  0  0  0  0  0  0
    5.4928   -5.7623    0.0000 C   0  0  0  0  0  0  0  0  0  0  0  0
    6.2072   -5.3498    0.0000 C   0  0  0  0  0  0  0  0  0  0  0  0
    6.9217   -5.7623    0.0000 C   0  0  0  0  0  0  0  0  0  0  0  0
  1  2  1  0  0  0  0
  1  3  2  0  0  0  0
  1  4  1  0  0  0  0
  5  6  1  0  0  0  0
  6  7  1  0  0  0  0
  7  8  1  0  0  0  0
  8  9  1  0  0  0  0
  9 10  1  0  0  0  0
  5 10  1  0  0  0  0
  2  5  1  0  0  0  0
M  END
>  <cdx:groupId>
3872

>  <cdx:fragmentId>
3853

$$$$
