302161.cdx
  Mrv1902 05222410182D          

 38 42  0  0  0  0            999 V2000
    4.0617   -6.2457    0.0000 O   0  0  0  0  0  0  0  0  0  0  0  0
    4.0550   -7.8957    0.0000 O   0  0  0  0  0  0  0  0  0  0  0  0
    5.0714   -8.6160    0.0000 C   0  0  0  0  0  0  0  0  0  0  0  0
    7.6324   -5.8478    0.0000 C   0  0  0  0  0  0  0  0  0  0  0  0
    9.3780   -3.0779    0.0000 C   0  0  0  0  0  0  0  0  0  0  0  0
   10.2030   -3.0813    0.0000 C   0  0  0  0  0  0  0  0  0  0  0  0
    6.2068   -5.8420    0.0000 C   0  0  0  0  0  0  0  0  0  0  0  0
   11.2098   -5.4499    0.0000 O   0  0  0  0  0  0  0  0  0  0  0  0
   10.4902   -6.6845    0.0000 O   0  0  0  0  0  0  0  0  0  0  0  0
   10.4936   -5.8595    0.0000 C   0  0  0  0  0  0  0  0  0  0  0  0
    6.2035   -6.6670    0.0000 C   0  0  1  0  0  0  0  0  0  0  0  0
    6.9196   -6.2574    0.0000 C   0  0  1  0  0  0  0  0  0  0  0  0
    6.9230   -5.4324    0.0000 C   0  0  0  0  0  0  0  0  0  0  0  0
    7.6391   -5.0228    0.0000 C   0  0  0  0  0  0  0  0  0  0  0  0
    8.3519   -5.4382    0.0000 C   0  0  0  0  0  0  0  0  0  0  0  0
    9.0681   -5.0287    0.0000 C   0  0  2  0  0  0  0  0  0  0  0  0
    9.0714   -4.2037    0.0000 C   0  0  0  0  0  0  0  0  0  0  0  0
    9.7876   -3.7941    0.0000 C   0  0  0  0  0  0  0  0  0  0  0  0
   10.5004   -4.2095    0.0000 C   0  0  0  0  0  0  0  0  0  0  0  0
   10.4970   -5.0345    0.0000 C   0  0  0  0  0  0  0  0  0  0  0  0
    9.7808   -5.4441    0.0000 C   0  0  2  0  0  0  0  0  0  0  0  0
    9.7775   -6.2691    0.0000 C   0  0  0  0  0  0  0  0  0  0  0  0
    9.0613   -6.6787    0.0000 C   0  0  0  0  0  0  0  0  0  0  0  0
    8.3485   -6.2632    0.0000 C   0  0  0  0  0  0  0  0  0  0  0  0
    7.6324   -6.6728    0.0000 C   0  0  1  0  0  0  0  0  0  0  0  0
    7.6290   -7.4978    0.0000 C   0  0  0  0  0  0  0  0  0  0  0  0
    6.9129   -7.9074    0.0000 C   0  0  0  0  0  0  0  0  0  0  0  0
    6.2001   -7.4920    0.0000 C   0  0  1  0  0  0  0  0  0  0  0  0
    5.4839   -7.9015    0.0000 C   0  0  2  0  0  0  0  0  0  0  0  0
    4.7711   -7.4861    0.0000 C   0  0  2  0  0  0  0  0  0  0  0  0
    4.7745   -6.6611    0.0000 C   0  0  2  0  0  0  0  0  0  0  0  0
    5.4907   -6.2515    0.0000 C   0  0  0  0  0  0  0  0  0  0  0  0
    5.8964   -8.6160    0.0000 C   0  0  0  0  0  0  0  0  0  0  0  0
    5.4839   -9.3305    0.0000 O   0  0  0  0  0  0  0  0  0  0  0  0
    6.7214   -8.6160    0.0000 O   0  0  0  0  0  0  0  0  0  0  0  0
    6.1967   -8.3169    0.0000 H   0  0  0  0  0  0  0  0  0  0  0  0
    6.9162   -7.0824    0.0000 H   0  0  0  0  0  0  0  0  0  0  0  0
    8.3536   -4.6162    0.0000 H   0  0  0  0  0  0  0  0  0  0  0  0
 31  1  1  1  0  0  0
 30  2  1  1  0  0  0
 29  3  1  1  0  0  0
 25  4  1  1  0  0  0
 18  5  1  0  0  0  0
 18  6  1  0  0  0  0
 11  7  1  1  0  0  0
 21 10  1  6  0  0  0
 10  8  1  0  0  0  0
 10  9  2  0  0  0  0
 32 11  1  0  0  0  0
 28 11  1  0  0  0  0
 12 11  1  0  0  0  0
 25 12  1  0  0  0  0
 13 12  1  0  0  0  0
 14 13  1  0  0  0  0
 15 14  1  0  0  0  0
 24 15  2  0  0  0  0
 16 15  1  0  0  0  0
 21 16  1  0  0  0  0
 17 16  1  0  0  0  0
 18 17  1  0  0  0  0
 19 18  1  0  0  0  0
 20 19  1  0  0  0  0
 21 20  1  0  0  0  0
 22 21  1  0  0  0  0
 23 22  1  0  0  0  0
 24 23  1  0  0  0  0
 25 24  1  0  0  0  0
 26 25  1  0  0  0  0
 27 26  1  0  0  0  0
 28 27  1  0  0  0  0
 29 28  1  0  0  0  0
 30 29  1  0  0  0  0
 31 30  1  0  0  0  0
 32 31  1  0  0  0  0
 29 33  1  0  0  0  0
 33 34  2  0  0  0  0
 33 35  1  0  0  0  0
 28 36  1  6  0  0  0
 12 37  1  6  0  0  0
 16 38  1  1  0  0  0
M  END
>  <cdx:fragmentId>
119

$$$$
