302164.cdx
  Mrv1902 05222410202D          

 40 45  0  0  0  0            999 V2000
   11.7118   -9.1371    0.0000 O   0  0  0  0  0  0  0  0  0  0  0  0
   11.7118   -7.4871    0.0000 O   0  0  0  0  0  0  0  0  0  0  0  0
   10.2829   -6.6621    0.0000 O   0  0  0  0  0  0  0  0  0  0  0  0
   10.7815   -2.4986    0.0000 O   0  0  0  0  0  0  0  0  0  0  0  0
    9.1315   -3.9275    0.0000 C   0  0  0  0  0  0  0  0  0  0  0  0
    9.5440   -3.2130    0.0000 C   0  0  0  0  0  0  0  0  0  0  0  0
   10.3690   -3.2130    0.0000 C   0  0  0  0  0  0  0  0  0  0  0  0
   10.7815   -3.9275    0.0000 C   0  0  0  0  0  0  0  0  0  0  0  0
   10.3690   -4.6420    0.0000 C   0  0  0  0  0  0  0  0  0  0  0  0
    9.5440   -4.6420    0.0000 C   0  0  0  0  0  0  0  0  0  0  0  0
    6.7105   -7.8996    0.0000 O   0  0  0  0  0  0  0  0  0  0  0  0
    5.2816   -8.7246    0.0000 O   0  0  0  0  0  0  0  0  0  0  0  0
    3.8526   -7.8996    0.0000 O   0  0  0  0  0  0  0  0  0  0  0  0
    3.1382   -6.6621    0.0000 O   0  0  0  0  0  0  0  0  0  0  0  0
    3.8526   -6.2496    0.0000 C   0  0  0  0  0  0  0  0  0  0  0  0
    4.5671   -6.6621    0.0000 C   0  0  2  0  0  0  0  0  0  0  0  0
    4.5671   -7.4871    0.0000 C   0  0  2  0  0  0  0  0  0  0  0  0
    5.2816   -7.8996    0.0000 C   0  0  1  0  0  0  0  0  0  0  0  0
    5.9961   -7.4871    0.0000 C   0  0  2  0  0  0  0  0  0  0  0  0
    5.9961   -6.6621    0.0000 C   0  0  1  0  0  0  0  0  0  0  0  0
    5.2816   -6.2496    0.0000 O   0  0  0  0  0  0  0  0  0  0  0  0
    6.7105   -6.2496    0.0000 O   0  0  0  0  0  0  0  0  0  0  0  0
    8.8539   -9.9621    0.0000 O   0  0  0  0  0  0  0  0  0  0  0  0
    8.8539   -6.6621    0.0000 C   0  0  0  0  0  0  0  0  0  0  0  0
    7.4250   -7.4871    0.0000 C   0  0  0  0  0  0  0  0  0  0  0  0
    7.4250   -6.6621    0.0000 C   0  0  0  0  0  0  0  0  0  0  0  0
    8.1395   -6.2496    0.0000 C   0  0  0  0  0  0  0  0  0  0  0  0
    8.3110   -5.4427    0.0000 C   0  0  0  0  0  0  0  0  0  0  0  0
    9.1315   -5.3564    0.0000 C   0  0  1  0  0  0  0  0  0  0  0  0
    9.4670   -6.1101    0.0000 O   0  0  0  0  0  0  0  0  0  0  0  0
    8.8539   -9.1371    0.0000 C   0  0  0  0  0  0  0  0  0  0  0  0
    9.5684   -8.7246    0.0000 C   0  0  0  0  0  0  0  0  0  0  0  0
   10.2829   -9.1371    0.0000 C   0  0  0  0  0  0  0  0  0  0  0  0
   10.9974   -8.7246    0.0000 C   0  0  0  0  0  0  0  0  0  0  0  0
   10.9974   -7.8996    0.0000 C   0  0  0  0  0  0  0  0  0  0  0  0
   10.2829   -7.4871    0.0000 C   0  0  0  0  0  0  0  0  0  0  0  0
    9.5684   -7.8996    0.0000 C   0  0  0  0  0  0  0  0  0  0  0  0
    8.8539   -7.4871    0.0000 C   0  0  0  0  0  0  0  0  0  0  0  0
    8.1395   -7.8996    0.0000 C   0  0  0  0  0  0  0  0  0  0  0  0
    8.1395   -8.7246    0.0000 O   0  0  0  0  0  0  0  0  0  0  0  0
 34  1  1  0  0  0  0
 35  2  1  0  0  0  0
 36  3  1  0  0  0  0
 29 10  1  6  0  0  0
  7  4  1  0  0  0  0
 10  5  2  0  0  0  0
  6  5  1  0  0  0  0
  7  6  2  0  0  0  0
  8  7  1  0  0  0  0
  9  8  2  0  0  0  0
 10  9  1  0  0  0  0
 26 22  1  0  0  0  0
 20 22  1  1  0  0  0
 19 11  1  6  0  0  0
 18 12  1  1  0  0  0
 17 13  1  6  0  0  0
 16 15  1  1  0  0  0
 15 14  1  0  0  0  0
 21 16  1  0  0  0  0
 17 16  1  0  0  0  0
 18 17  1  0  0  0  0
 19 18  1  0  0  0  0
 20 19  1  0  0  0  0
 21 20  1  0  0  0  0
 31 23  2  0  0  0  0
 24 38  1  0  0  0  0
 25 39  1  0  0  0  0
 30 24  1  0  0  0  0
 27 24  2  0  0  0  0
 26 25  2  0  0  0  0
 27 26  1  0  0  0  0
 28 27  1  0  0  0  0
 29 28  1  0  0  0  0
 30 29  1  0  0  0  0
 40 31  1  0  0  0  0
 32 31  1  0  0  0  0
 37 32  2  0  0  0  0
 33 32  1  0  0  0  0
 34 33  2  0  0  0  0
 35 34  1  0  0  0  0
 36 35  2  0  0  0  0
 37 36  1  0  0  0  0
 38 37  1  0  0  0  0
 39 38  2  0  0  0  0
 40 39  1  0  0  0  0
M  END
>  <cdx:groupId>
492

>  <cdx:fragmentId>
370

$$$$
