302128.cdx
  Mrv1902 05222410212D          

 22 24  0  0  0  0            999 V2000
   10.2139  -12.1630    0.0000 C   0  0  0  0  0  0  0  0  0  0  0  0
   10.2139  -12.9880    0.0000 C   0  0  0  0  0  0  0  0  0  0  0  0
   10.9284  -13.4005    0.0000 C   0  0  0  0  0  0  0  0  0  0  0  0
   11.6429  -12.9880    0.0000 C   0  0  0  0  0  0  0  0  0  0  0  0
   11.6429  -12.1630    0.0000 C   0  0  0  0  0  0  0  0  0  0  0  0
   10.9284  -11.7505    0.0000 C   0  0  0  0  0  0  0  0  0  0  0  0
   12.3573  -13.4005    0.0000 C   0  0  0  0  0  0  0  0  0  0  0  0
   13.0718  -12.9880    0.0000 C   0  0  0  0  0  0  0  0  0  0  0  0
   13.0718  -12.1630    0.0000 C   0  0  0  0  0  0  0  0  0  0  0  0
   12.3573  -11.7505    0.0000 O   0  0  0  0  0  0  0  0  0  0  0  0
   13.7863  -11.7505    0.0000 C   0  0  0  0  0  0  0  0  0  0  0  0
   14.5007  -12.1630    0.0000 C   0  0  0  0  0  0  0  0  0  0  0  0
   15.2152  -11.7505    0.0000 C   0  0  0  0  0  0  0  0  0  0  0  0
   15.2152  -10.9255    0.0000 C   0  0  0  0  0  0  0  0  0  0  0  0
   14.5007  -10.5130    0.0000 C   0  0  0  0  0  0  0  0  0  0  0  0
   13.7863  -10.9255    0.0000 C   0  0  0  0  0  0  0  0  0  0  0  0
   15.9297  -10.5130    0.0000 O   0  0  0  0  0  0  0  0  0  0  0  0
   10.9284  -14.2255    0.0000 O   0  0  0  0  0  0  0  0  0  0  0  0
    9.4994  -11.7505    0.0000 O   0  0  0  0  0  0  0  0  0  0  0  0
    9.4994  -13.4005    0.0000 C   0  0  0  0  0  0  0  0  0  0  0  0
   10.9284  -10.9255    0.0000 C   0  0  0  0  0  0  0  0  0  0  0  0
   12.3573  -14.2255    0.0000 O   0  0  0  0  0  0  0  0  0  0  0  0
  1  2  2  0  0  0  0
  2  3  1  0  0  0  0
  3  4  2  0  0  0  0
  4  5  1  0  0  0  0
  5  6  2  0  0  0  0
  6  1  1  0  0  0  0
  4  7  1  0  0  0  0
  7  8  1  0  0  0  0
  8  9  1  0  0  0  0
  9 10  1  0  0  0  0
 10  5  1  0  0  0  0
  9 11  1  0  0  0  0
 11 12  2  0  0  0  0
 12 13  1  0  0  0  0
 13 14  2  0  0  0  0
 14 15  1  0  0  0  0
 15 16  2  0  0  0  0
 16 11  1  0  0  0  0
 14 17  1  0  0  0  0
  3 18  1  0  0  0  0
  1 19  1  0  0  0  0
  2 20  1  0  0  0  0
  6 21  1  0  0  0  0
  7 22  2  0  0  0  0
M  END
>  <cdx:fragmentId>
6220

$$$$
