302135.cdx
  Mrv1902 05222410242D          

 35 39  0  0  0  0            999 V2000
    6.8051  -10.6162    0.0000 C   0  0  0  0  0  0  0  0  0  0  0  0
    6.8051  -11.4412    0.0000 C   0  0  0  0  0  0  0  0  0  0  0  0
    7.5195  -11.8537    0.0000 C   0  0  0  0  0  0  0  0  0  0  0  0
    8.2340  -11.4412    0.0000 C   0  0  0  0  0  0  0  0  0  0  0  0
    8.2340  -10.6162    0.0000 C   0  0  0  0  0  0  0  0  0  0  0  0
    7.5195  -10.2037    0.0000 C   0  0  0  0  0  0  0  0  0  0  0  0
    8.9485  -11.8537    0.0000 C   0  0  0  0  0  0  0  0  0  0  0  0
    9.6629  -11.4412    0.0000 C   0  0  1  0  0  0  0  0  0  0  0  0
    9.6629  -10.6162    0.0000 C   0  0  2  0  0  0  0  0  0  0  0  0
    8.9485  -10.2037    0.0000 O   0  0  0  0  0  0  0  0  0  0  0  0
   10.3774  -10.2037    0.0000 C   0  0  0  0  0  0  0  0  0  0  0  0
   11.0919  -10.6162    0.0000 C   0  0  0  0  0  0  0  0  0  0  0  0
   11.8064  -10.2037    0.0000 C   0  0  0  0  0  0  0  0  0  0  0  0
   11.8064   -9.3787    0.0000 C   0  0  0  0  0  0  0  0  0  0  0  0
   11.0919   -8.9661    0.0000 C   0  0  0  0  0  0  0  0  0  0  0  0
   10.3774   -9.3787    0.0000 C   0  0  0  0  0  0  0  0  0  0  0  0
   12.5208  -10.6162    0.0000 O   0  0  0  0  0  0  0  0  0  0  0  0
   13.2353  -10.2037    0.0000 C   0  0  2  0  0  0  0  0  0  0  0  0
   13.2353   -9.3787    0.0000 C   0  0  2  0  0  0  0  0  0  0  0  0
   12.5208   -8.9662    0.0000 O   0  0  0  0  0  0  0  0  0  0  0  0
   13.9498  -10.6162    0.0000 C   0  0  0  0  0  0  0  0  0  0  0  0
   14.6618  -11.0272    0.0000 O   0  0  0  0  0  0  0  0  0  0  0  0
   13.9498   -8.9661    0.0000 C   0  0  0  0  0  0  0  0  0  0  0  0
   14.6642   -9.3786    0.0000 C   0  0  0  0  0  0  0  0  0  0  0  0
   15.3787   -8.9661    0.0000 C   0  0  0  0  0  0  0  0  0  0  0  0
   15.3787   -8.1411    0.0000 C   0  0  0  0  0  0  0  0  0  0  0  0
   14.6642   -7.7287    0.0000 C   0  0  0  0  0  0  0  0  0  0  0  0
   13.9498   -8.1411    0.0000 C   0  0  0  0  0  0  0  0  0  0  0  0
   14.6642   -6.9037    0.0000 O   0  0  0  0  0  0  0  0  0  0  0  0
   16.0932   -9.3787    0.0000 O   0  0  0  0  0  0  0  0  0  0  0  0
    7.5195  -12.6787    0.0000 O   0  0  0  0  0  0  0  0  0  0  0  0
    6.0906  -10.2037    0.0000 O   0  0  0  0  0  0  0  0  0  0  0  0
   10.3774  -11.8537    0.0000 O   0  0  0  0  0  0  0  0  0  0  0  0
    8.9485  -12.6787    0.0000 O   0  0  0  0  0  0  0  0  0  0  0  0
   16.8052   -9.7897    0.0000 C   0  0  0  0  0  0  0  0  0  0  0  0
  1  2  2  0  0  0  0
  2  3  1  0  0  0  0
  3  4  2  0  0  0  0
  4  5  1  0  0  0  0
  5  6  2  0  0  0  0
  6  1  1  0  0  0  0
  4  7  1  0  0  0  0
  7  8  1  0  0  0  0
  8  9  1  0  0  0  0
  9 10  1  0  0  0  0
 10  5  1  0  0  0  0
  9 11  1  6  0  0  0
 11 12  2  0  0  0  0
 12 13  1  0  0  0  0
 13 14  2  0  0  0  0
 14 15  1  0  0  0  0
 15 16  2  0  0  0  0
 16 11  1  0  0  0  0
 13 17  1  0  0  0  0
 17 18  1  0  0  0  0
 18 19  1  0  0  0  0
 19 20  1  0  0  0  0
 20 14  1  0  0  0  0
 19 23  1  6  0  0  0
 23 24  2  0  0  0  0
 24 25  1  0  0  0  0
 25 26  2  0  0  0  0
 26 27  1  0  0  0  0
 27 28  2  0  0  0  0
 28 23  1  0  0  0  0
 27 29  1  0  0  0  0
 25 30  1  0  0  0  0
  3 31  1  0  0  0  0
  1 32  1  0  0  0  0
  8 33  1  1  0  0  0
  7 34  2  0  0  0  0
 18 21  1  6  0  0  0
 21 22  1  0  0  0  0
 30 35  1  0  0  0  0
M  STY  2   1 SUP   2 SUP
M  SAL   1  2  21  22
M  SBL   1  1  37
M  SMT   1 CH2OH
M  SAP   1  1  21  18  1
M  SAL   2  2  30  35
M  SBL   2  1  32
M  SMT   2 OCH3
M  SAP   2  1  30  25  1
M  END
>  <cdx:fragmentId>
5745

$$$$
