302191.cdx
  Mrv1902 05222410272D          

 15 15  0  0  0  0            999 V2000
    6.3533   -5.6606    0.0000 C   0  0  0  0  0  0  0  0  0  0  0  0
    5.6388   -6.0731    0.0000 C   0  0  0  0  0  0  0  0  0  0  0  0
    4.9244   -5.6606    0.0000 C   0  0  0  0  0  0  0  0  0  0  0  0
    6.3533   -4.8356    0.0000 O   0  0  0  0  0  0  0  0  0  0  0  0
    7.0678   -6.0731    0.0000 C   0  0  0  0  0  0  0  0  0  0  0  0
    7.0678   -6.8981    0.0000 C   0  0  0  0  0  0  0  0  0  0  0  0
    7.7822   -7.3106    0.0000 C   0  0  0  0  0  0  0  0  0  0  0  0
    8.4967   -6.8981    0.0000 C   0  0  0  0  0  0  0  0  0  0  0  0
    8.4967   -6.0731    0.0000 C   0  0  0  0  0  0  0  0  0  0  0  0
    7.7822   -5.6606    0.0000 C   0  0  0  0  0  0  0  0  0  0  0  0
    9.2112   -5.6606    0.0000 O   0  0  0  0  0  0  0  0  0  0  0  0
    9.9256   -6.0731    0.0000 C   0  0  0  0  0  0  0  0  0  0  0  0
    7.7822   -8.1356    0.0000 O   0  0  0  0  0  0  0  0  0  0  0  0
    8.4967   -8.5481    0.0000 C   0  0  0  0  0  0  0  0  0  0  0  0
    9.2112   -7.3106    0.0000 O   0  0  0  0  0  0  0  0  0  0  0  0
  1  2  1  0  0  0  0
  2  3  1  0  0  0  0
  1  4  2  0  0  0  0
  5  6  1  0  0  0  0
  6  7  2  0  0  0  0
  7  8  1  0  0  0  0
  8  9  2  0  0  0  0
  9 10  1  0  0  0  0
  5 10  2  0  0  0  0
 11 12  1  0  0  0  0
  9 11  1  0  0  0  0
 13 14  1  0  0  0  0
  7 13  1  0  0  0  0
  8 15  1  0  0  0  0
  1  5  1  0  0  0  0
M  END
>  <cdx:groupId>
2463

>  <cdx:fragmentId>
2429

$$$$
