302152.cdx
  Mrv1902 05222410272D          

 38 41  0  0  0  0            999 V2000
   10.0850   -6.6636    0.0000 C   0  0  0  0  0  0  0  0  0  0  0  0
    9.8300   -7.4483    0.0000 C   0  0  0  0  0  0  0  0  0  0  0  0
    9.0231   -7.6198    0.0000 C   0  0  0  0  0  0  0  0  0  0  0  0
    8.7681   -8.4044    0.0000 C   0  0  0  0  0  0  0  0  0  0  0  0
    7.9612   -8.5759    0.0000 C   0  0  1  0  0  0  0  0  0  0  0  0
    7.4091   -7.9629    0.0000 C   0  0  0  0  0  0  0  0  0  0  0  0
   11.1469   -5.7075    0.0000 O   0  0  0  0  0  0  0  0  0  0  0  0
    9.5330   -6.0506    0.0000 C   0  0  0  0  0  0  0  0  0  0  0  0
    4.0637  -10.4405    0.0000 C   0  0  0  0  0  0  0  0  0  0  0  0
    3.3492  -10.8530    0.0000 C   0  0  0  0  0  0  0  0  0  0  0  0
    3.3492  -11.6780    0.0000 C   0  0  0  0  0  0  0  0  0  0  0  0
    4.0637  -12.0905    0.0000 C   0  0  0  0  0  0  0  0  0  0  0  0
    4.7782  -11.6780    0.0000 C   0  0  2  0  0  0  0  0  0  0  0  0
    5.4927  -12.0905    0.0000 C   0  0  0  0  0  0  0  0  0  0  0  0
    6.2071  -11.6780    0.0000 C   0  0  1  0  0  0  0  0  0  0  0  0
    6.2071  -10.8530    0.0000 C   0  0  0  0  0  0  0  0  0  0  0  0
    6.9216  -10.4405    0.0000 C   0  0  2  0  0  0  0  0  0  0  0  0
    7.7062  -10.6954    0.0000 C   0  0  0  0  0  0  0  0  0  0  0  0
    8.1911  -10.0280    0.0000 C   0  0  0  0  0  0  0  0  0  0  0  0
    7.7062   -9.3606    0.0000 C   0  0  1  0  0  0  0  0  0  0  0  0
    6.9216   -9.6155    0.0000 C   0  0  1  0  0  0  0  0  0  0  0  0
    6.2071   -9.2030    0.0000 C   0  0  0  0  0  0  0  0  0  0  0  0
    5.4927   -9.6155    0.0000 C   0  0  0  0  0  0  0  0  0  0  0  0
    5.4927  -10.4405    0.0000 C   0  0  0  0  0  0  0  0  0  0  0  0
    4.7782  -10.8530    0.0000 C   0  0  1  0  0  0  0  0  0  0  0  0
    7.9612  -11.4801    0.0000 O   0  0  0  0  0  0  0  0  0  0  0  0
    4.7782   -9.2030    0.0000 O   0  0  0  0  0  0  0  0  0  0  0  0
    2.6348  -12.0905    0.0000 O   0  0  0  0  0  0  0  0  0  0  0  0
    6.9216  -11.2655    0.0000 C   0  0  0  0  0  0  0  0  0  0  0  0
    6.9216   -8.7905    0.0000 C   0  0  0  0  0  0  0  0  0  0  0  0
    4.7782  -10.0280    0.0000 C   0  0  0  0  0  0  0  0  0  0  0  0
    4.4762  -12.8050    0.0000 C   0  0  0  0  0  0  0  0  0  0  0  0
    3.6512  -12.8050    0.0000 C   0  0  0  0  0  0  0  0  0  0  0  0
    6.9216  -12.0905    0.0000 O   0  0  0  0  0  0  0  0  0  0  0  0
    4.7782  -12.5030    0.0000 H   0  0  0  0  0  0  0  0  0  0  0  0
   11.4440   -7.1052    0.0000 O   0  0  0  0  0  0  0  0  0  0  0  0
   10.8920   -6.4921    0.0000 C   0  0  0  0  0  0  0  0  0  0  0  0
    8.4908   -9.1056    0.0000 H   0  0  0  0  0  0  0  0  0  0  0  0
 37  7  1  0  0  0  0
 37 36  2  0  0  0  0
 37  1  1  0  0  0  0
  1  2  2  0  0  0  0
  2  3  1  0  0  0  0
  3  4  1  0  0  0  0
  4  5  1  0  0  0  0
  5  6  1  6  0  0  0
  1  8  1  0  0  0  0
  9 10  1  0  0  0  0
 10 11  1  0  0  0  0
 11 12  1  0  0  0  0
 12 13  1  0  0  0  0
 13 14  1  0  0  0  0
 14 15  1  0  0  0  0
 15 16  1  0  0  0  0
 16 17  1  0  0  0  0
 17 18  1  0  0  0  0
 18 19  1  0  0  0  0
 20 19  1  0  0  0  0
 20 21  1  0  0  0  0
 17 21  1  0  0  0  0
 21 22  1  0  0  0  0
 22 23  1  0  0  0  0
 23 24  1  0  0  0  0
 16 24  2  0  0  0  0
 24 25  1  0  0  0  0
 13 25  1  0  0  0  0
  9 25  1  0  0  0  0
 18 26  2  0  0  0  0
 23 27  2  0  0  0  0
 11 28  2  0  0  0  0
 17 29  1  6  0  0  0
 21 30  1  1  0  0  0
 25 31  1  1  0  0  0
 12 32  1  0  0  0  0
 12 33  1  0  0  0  0
 15 34  1  1  0  0  0
  5 20  1  0  0  0  0
 13 35  1  6  0  0  0
 20 38  1  6  0  0  0
M  END
>  <cdx:groupId>
8466

>  <cdx:fragmentId>
8375

$$$$
