302162.cdx
  Mrv1902 05222410182D          

 40 45  0  0  0  0            999 V2000
   11.6843  -11.6946    0.0000 O   0  0  0  0  0  0  0  0  0  0  0  0
   11.6843  -10.0446    0.0000 O   0  0  0  0  0  0  0  0  0  0  0  0
   10.2554   -9.2196    0.0000 O   0  0  0  0  0  0  0  0  0  0  0  0
   10.7540   -5.0561    0.0000 O   0  0  0  0  0  0  0  0  0  0  0  0
    9.1040   -6.4850    0.0000 C   0  0  0  0  0  0  0  0  0  0  0  0
    9.5165   -5.7705    0.0000 C   0  0  0  0  0  0  0  0  0  0  0  0
   10.3415   -5.7705    0.0000 C   0  0  0  0  0  0  0  0  0  0  0  0
   10.7540   -6.4850    0.0000 C   0  0  0  0  0  0  0  0  0  0  0  0
   10.3415   -7.1995    0.0000 C   0  0  0  0  0  0  0  0  0  0  0  0
    9.5165   -7.1995    0.0000 C   0  0  0  0  0  0  0  0  0  0  0  0
    6.6830  -10.4571    0.0000 O   0  0  0  0  0  0  0  0  0  0  0  0
    5.2541  -11.2821    0.0000 O   0  0  0  0  0  0  0  0  0  0  0  0
    3.8251  -10.4571    0.0000 O   0  0  0  0  0  0  0  0  0  0  0  0
    3.1107   -9.2196    0.0000 O   0  0  0  0  0  0  0  0  0  0  0  0
    3.8251   -8.8071    0.0000 C   0  0  0  0  0  0  0  0  0  0  0  0
    4.5396   -9.2196    0.0000 C   0  0  2  0  0  0  0  0  0  0  0  0
    4.5396  -10.0446    0.0000 C   0  0  2  0  0  0  0  0  0  0  0  0
    5.2541  -10.4571    0.0000 C   0  0  1  0  0  0  0  0  0  0  0  0
    5.9686  -10.0446    0.0000 C   0  0  2  0  0  0  0  0  0  0  0  0
    5.9686   -9.2196    0.0000 C   0  0  1  0  0  0  0  0  0  0  0  0
    5.2541   -8.8071    0.0000 O   0  0  0  0  0  0  0  0  0  0  0  0
    6.6830   -8.8071    0.0000 O   0  0  0  0  0  0  0  0  0  0  0  0
    8.8264  -12.5196    0.0000 O   0  0  0  0  0  0  0  0  0  0  0  0
    8.8264   -9.2196    0.0000 C   0  0  0  0  0  0  0  0  0  0  0  0
    7.3975  -10.0446    0.0000 C   0  0  0  0  0  0  0  0  0  0  0  0
    7.3975   -9.2196    0.0000 C   0  0  0  0  0  0  0  0  0  0  0  0
    8.1120   -8.8071    0.0000 C   0  0  0  0  0  0  0  0  0  0  0  0
    8.2835   -8.0002    0.0000 C   0  0  0  0  0  0  0  0  0  0  0  0
    9.1040   -7.9139    0.0000 C   0  0  2  0  0  0  0  0  0  0  0  0
    9.4395   -8.6676    0.0000 O   0  0  0  0  0  0  0  0  0  0  0  0
    8.8264  -11.6946    0.0000 C   0  0  0  0  0  0  0  0  0  0  0  0
    9.5409  -11.2821    0.0000 C   0  0  0  0  0  0  0  0  0  0  0  0
   10.2554  -11.6946    0.0000 C   0  0  0  0  0  0  0  0  0  0  0  0
   10.9699  -11.2821    0.0000 C   0  0  0  0  0  0  0  0  0  0  0  0
   10.9699  -10.4571    0.0000 C   0  0  0  0  0  0  0  0  0  0  0  0
   10.2554  -10.0446    0.0000 C   0  0  0  0  0  0  0  0  0  0  0  0
    9.5409  -10.4571    0.0000 C   0  0  0  0  0  0  0  0  0  0  0  0
    8.8264  -10.0446    0.0000 C   0  0  0  0  0  0  0  0  0  0  0  0
    8.1120  -10.4571    0.0000 C   0  0  0  0  0  0  0  0  0  0  0  0
    8.1120  -11.2821    0.0000 O   0  0  0  0  0  0  0  0  0  0  0  0
 34  1  1  0  0  0  0
 35  2  1  0  0  0  0
 36  3  1  0  0  0  0
 29 10  1  1  0  0  0
  7  4  1  0  0  0  0
 10  5  2  0  0  0  0
  6  5  1  0  0  0  0
  7  6  2  0  0  0  0
  8  7  1  0  0  0  0
  9  8  2  0  0  0  0
 10  9  1  0  0  0  0
 26 22  1  0  0  0  0
 20 22  1  1  0  0  0
 19 11  1  6  0  0  0
 18 12  1  1  0  0  0
 17 13  1  6  0  0  0
 16 15  1  1  0  0  0
 15 14  1  0  0  0  0
 21 16  1  0  0  0  0
 17 16  1  0  0  0  0
 18 17  1  0  0  0  0
 19 18  1  0  0  0  0
 20 19  1  0  0  0  0
 21 20  1  0  0  0  0
 31 23  2  0  0  0  0
 24 38  1  0  0  0  0
 25 39  1  0  0  0  0
 30 24  1  0  0  0  0
 27 24  2  0  0  0  0
 26 25  2  0  0  0  0
 27 26  1  0  0  0  0
 28 27  1  0  0  0  0
 29 28  1  0  0  0  0
 30 29  1  0  0  0  0
 40 31  1  0  0  0  0
 32 31  1  0  0  0  0
 37 32  2  0  0  0  0
 33 32  1  0  0  0  0
 34 33  2  0  0  0  0
 35 34  1  0  0  0  0
 36 35  2  0  0  0  0
 37 36  1  0  0  0  0
 38 37  1  0  0  0  0
 39 38  2  0  0  0  0
 40 39  1  0  0  0  0
M  END
>  <cdx:groupId>
358

>  <cdx:fragmentId>
236

$$$$
