302104.cdx
  Mrv1902 05222410222D          

 13 13  0  0  0  0            999 V2000
    6.5712  -10.2191    0.0000 C   0  0  0  0  0  0  0  0  0  0  0  0
    6.5712  -11.0441    0.0000 C   0  0  0  0  0  0  0  0  0  0  0  0
    7.2857  -11.4566    0.0000 C   0  0  2  0  0  0  0  0  0  0  0  0
    8.0002  -11.0441    0.0000 C   0  0  0  0  0  0  0  0  0  0  0  0
    8.0002  -10.2191    0.0000 C   0  0  0  0  0  0  0  0  0  0  0  0
    7.2857   -9.8066    0.0000 C   0  0  0  0  0  0  0  0  0  0  0  0
    7.2857   -8.9816    0.0000 C   0  0  0  0  0  0  0  0  0  0  0  0
    6.5712   -8.5691    0.0000 O   0  0  0  0  0  0  0  0  0  0  0  0
    8.0002   -8.5691    0.0000 O   0  0  0  0  0  0  0  0  0  0  0  0
    8.0002  -11.8691    0.0000 O   0  0  0  0  0  0  0  0  0  0  0  0
    7.2857  -12.2816    0.0000 C   0  0  0  0  0  0  0  0  0  0  0  0
    6.5712  -12.6941    0.0000 C   0  0  0  0  0  0  0  0  0  0  0  0
    8.0002  -12.6941    0.0000 C   0  0  0  0  0  0  0  0  0  0  0  0
  1  2  1  0  0  0  0
  2  3  1  0  0  0  0
  3  4  1  0  0  0  0
  4  5  1  0  0  0  0
  5  6  2  0  0  0  0
  6  1  1  0  0  0  0
  6  7  1  0  0  0  0
  7  8  1  0  0  0  0
  7  9  2  0  0  0  0
  3 10  1  6  0  0  0
  3 11  1  1  0  0  0
 11 12  1  0  0  0  0
 11 13  1  0  0  0  0
M  END
>  <cdx:fragmentId>
5574

$$$$
