302160.cdx
  Mrv1902 05222410182D          

 35 37  0  0  0  0            999 V2000
    8.9298   -7.7916    0.0000 O   0  0  0  0  0  0  0  0  0  0  0  0
    9.6442   -8.2041    0.0000 C   0  0  1  0  0  0  0  0  0  0  0  0
   10.3587   -7.7916    0.0000 C   0  0  2  0  0  0  0  0  0  0  0  0
   10.3587   -6.9666    0.0000 C   0  0  1  0  0  0  0  0  0  0  0  0
    9.6442   -6.5541    0.0000 C   0  0  2  0  0  0  0  0  0  0  0  0
    8.9298   -6.9666    0.0000 C   0  0  2  0  0  0  0  0  0  0  0  0
   11.0732   -8.2041    0.0000 O   0  0  0  0  0  0  0  0  0  0  0  0
   11.0732   -6.5541    0.0000 O   0  0  0  0  0  0  0  0  0  0  0  0
    8.2153   -6.5541    0.0000 O   0  0  0  0  0  0  0  0  0  0  0  0
    7.5008   -6.9666    0.0000 C   0  0  0  0  0  0  0  0  0  0  0  0
    7.5008   -7.7916    0.0000 C   0  0  0  0  0  0  0  0  0  0  0  0
    6.7864   -8.2041    0.0000 C   0  0  0  0  0  0  0  0  0  0  0  0
    6.0719   -7.7916    0.0000 C   0  0  0  0  0  0  0  0  0  0  0  0
    6.0719   -6.9666    0.0000 C   0  0  0  0  0  0  0  0  0  0  0  0
    6.7864   -6.5541    0.0000 C   0  0  0  0  0  0  0  0  0  0  0  0
    6.7864   -5.7291    0.0000 O   0  0  0  0  0  0  0  0  0  0  0  0
    7.5008   -5.3166    0.0000 C   0  0  0  0  0  0  0  0  0  0  0  0
    8.2153   -8.2041    0.0000 O   0  0  0  0  0  0  0  0  0  0  0  0
    8.2153   -9.0291    0.0000 C   0  0  0  0  0  0  0  0  0  0  0  0
    5.3574   -8.2041    0.0000 C   0  0  0  0  0  0  0  0  0  0  0  0
    4.6429   -7.7916    0.0000 C   0  0  0  0  0  0  0  0  0  0  0  0
    3.9285   -8.2041    0.0000 C   0  0  0  0  0  0  0  0  0  0  0  0
    3.2140   -7.7916    0.0000 O   0  0  0  0  0  0  0  0  0  0  0  0
    9.6442   -9.0291    0.0000 C   0  0  0  0  0  0  0  0  0  0  0  0
   10.3587   -9.4416    0.0000 O   0  0  0  0  0  0  0  0  0  0  0  0
    9.6442   -5.7291    0.0000 O   0  0  0  0  0  0  0  0  0  0  0  0
   11.1124   -5.6521    0.0000 O   0  0  0  0  0  0  0  0  0  0  0  0
   10.3587   -5.3166    0.0000 C   0  0  2  0  0  0  0  0  0  0  0  0
   10.4449   -4.4961    0.0000 C   0  0  1  0  0  0  0  0  0  0  0  0
   11.2519   -4.3246    0.0000 C   0  0  2  0  0  0  0  0  0  0  0  0
   11.6644   -5.0390    0.0000 C   0  0  0  0  0  0  0  0  0  0  0  0
   11.9194   -3.8396    0.0000 C   0  0  0  0  0  0  0  0  0  0  0  0
   11.8331   -3.0191    0.0000 O   0  0  0  0  0  0  0  0  0  0  0  0
   11.1657   -3.5041    0.0000 O   0  0  0  0  0  0  0  0  0  0  0  0
    9.8318   -3.9440    0.0000 O   0  0  0  0  0  0  0  0  0  0  0  0
  1  2  1  0  0  0  0
  2  3  1  0  0  0  0
  3  4  1  0  0  0  0
  4  5  1  0  0  0  0
  5  6  1  0  0  0  0
  1  6  1  0  0  0  0
  3  7  1  6  0  0  0
  4  8  1  1  0  0  0
 10 11  1  0  0  0  0
 11 12  2  0  0  0  0
 12 13  1  0  0  0  0
 13 14  2  0  0  0  0
 14 15  1  0  0  0  0
 10 15  2  0  0  0  0
  9 10  1  0  0  0  0
 16 17  1  0  0  0  0
 15 16  1  0  0  0  0
 18 19  1  0  0  0  0
 11 18  1  0  0  0  0
 20 21  2  0  0  0  0
 21 22  1  0  0  0  0
 22 23  1  0  0  0  0
 13 20  1  0  0  0  0
  6  9  1  1  0  0  0
 24 25  1  0  0  0  0
  2 24  1  1  0  0  0
 27 28  1  0  0  0  0
 28 29  1  0  0  0  0
 29 30  1  0  0  0  0
 30 31  1  0  0  0  0
 27 31  1  0  0  0  0
 32 33  1  0  0  0  0
 30 32  1  1  0  0  0
 30 34  1  6  0  0  0
 29 35  1  6  0  0  0
 28 26  1  1  0  0  0
  5 26  1  6  0  0  0
M  END
>  <cdx:groupId>
109

>  <cdx:fragmentId>
23

$$$$
