302134.cdx
  Mrv1902 05222410242D          

 23 27  0  0  0  0            999 V2000
    5.6019   -9.3271    0.0000 C   0  0  0  0  0  0  0  0  0  0  0  0
    5.6019  -10.1521    0.0000 C   0  0  0  0  0  0  0  0  0  0  0  0
    6.3164  -10.5646    0.0000 C   0  0  0  0  0  0  0  0  0  0  0  0
    7.0309  -10.1521    0.0000 C   0  0  0  0  0  0  0  0  0  0  0  0
    7.0309   -9.3271    0.0000 C   0  0  0  0  0  0  0  0  0  0  0  0
    6.3164   -8.9146    0.0000 C   0  0  0  0  0  0  0  0  0  0  0  0
    7.7454  -10.5646    0.0000 C   0  0  2  0  0  0  0  0  0  0  0  0
    8.4598  -10.1521    0.0000 N   0  0  0  0  0  0  0  0  0  0  0  0
    8.4598   -9.3271    0.0000 C   0  0  0  0  0  0  0  0  0  0  0  0
    7.7454   -8.9146    0.0000 C   0  0  0  0  0  0  0  0  0  0  0  0
    6.3164  -11.3896    0.0000 C   0  0  0  0  0  0  0  0  0  0  0  0
    7.0309  -11.8021    0.0000 C   0  0  0  0  0  0  0  0  0  0  0  0
    7.7454  -11.3896    0.0000 C   0  0  0  0  0  0  0  0  0  0  0  0
    5.6019  -11.8021    0.0000 C   0  0  0  0  0  0  0  0  0  0  0  0
    5.6019  -12.6271    0.0000 C   0  0  0  0  0  0  0  0  0  0  0  0
    6.3164  -13.0396    0.0000 C   0  0  0  0  0  0  0  0  0  0  0  0
    7.0309  -12.6271    0.0000 C   0  0  0  0  0  0  0  0  0  0  0  0
    7.7454  -13.0396    0.0000 O   0  0  0  0  0  0  0  0  0  0  0  0
    4.8173   -9.0721    0.0000 O   0  0  0  0  0  0  0  0  0  0  0  0
    4.3324   -9.7396    0.0000 C   0  0  0  0  0  0  0  0  0  0  0  0
    4.8173  -10.4070    0.0000 O   0  0  0  0  0  0  0  0  0  0  0  0
    9.1743  -10.5646    0.0000 C   0  0  0  0  0  0  0  0  0  0  0  0
    8.4598  -10.9771    0.0000 H   0  0  0  0  0  0  0  0  0  0  0  0
  1  2  2  0  0  0  0
  2  3  1  0  0  0  0
  3  4  2  0  0  0  0
  4  5  1  0  0  0  0
  5  6  2  0  0  0  0
  6  1  1  0  0  0  0
  4  7  1  0  0  0  0
  7  8  1  0  0  0  0
  8  9  1  0  0  0  0
  9 10  1  0  0  0  0
 10  5  1  0  0  0  0
  3 11  1  0  0  0  0
 11 12  2  0  0  0  0
 12 13  1  0  0  0  0
 13  7  1  0  0  0  0
 11 14  1  0  0  0  0
 14 15  2  0  0  0  0
 15 16  1  0  0  0  0
 16 17  2  0  0  0  0
 17 12  1  0  0  0  0
 17 18  1  0  0  0  0
  1 19  1  0  0  0  0
 19 20  1  0  0  0  0
 20 21  1  0  0  0  0
 21  2  1  0  0  0  0
  8 22  1  0  0  0  0
  7 23  1  1  0  0  0
M  END
>  <cdx:fragmentId>
6442

$$$$
