302207.cdx
  Mrv1902 05222410202D          

 25 28  0  0  0  0            999 V2000
    7.0678   -9.1487    0.0000 C   0  0  0  0  0  0  0  0  0  0  0  0
    7.7822   -8.7362    0.0000 N   0  3  0  0  0  0  0  0  0  0  0  0
    7.7822   -7.9112    0.0000 C   0  0  0  0  0  0  0  0  0  0  0  0
    7.0678   -7.4987    0.0000 C   0  0  0  0  0  0  0  0  0  0  0  0
    6.3533   -7.9112    0.0000 C   0  0  0  0  0  0  0  0  0  0  0  0
    5.6388   -7.4987    0.0000 C   0  0  0  0  0  0  0  0  0  0  0  0
    4.9244   -7.9112    0.0000 C   0  0  0  0  0  0  0  0  0  0  0  0
    4.9244   -8.7362    0.0000 C   0  0  0  0  0  0  0  0  0  0  0  0
    5.6388   -9.1487    0.0000 C   0  0  0  0  0  0  0  0  0  0  0  0
    6.3533   -8.7362    0.0000 C   0  0  0  0  0  0  0  0  0  0  0  0
    8.4967   -9.1487    0.0000 C   0  0  0  0  0  0  0  0  0  0  0  0
    9.2112   -8.7362    0.0000 C   0  0  0  0  0  0  0  0  0  0  0  0
    9.2112   -7.9112    0.0000 C   0  0  0  0  0  0  0  0  0  0  0  0
    9.9256   -7.4987    0.0000 C   0  0  0  0  0  0  0  0  0  0  0  0
    9.9256   -6.6737    0.0000 C   0  0  0  0  0  0  0  0  0  0  0  0
    9.2112   -6.2612    0.0000 C   0  0  0  0  0  0  0  0  0  0  0  0
    8.4967   -6.6737    0.0000 C   0  0  0  0  0  0  0  0  0  0  0  0
    8.4967   -7.4987    0.0000 C   0  0  0  0  0  0  0  0  0  0  0  0
    9.2112   -5.4362    0.0000 O   0  0  0  0  0  0  0  0  0  0  0  0
    4.2099   -7.4987    0.0000 O   0  0  0  0  0  0  0  0  0  0  0  0
    3.4954   -7.9112    0.0000 C   0  0  0  0  0  0  0  0  0  0  0  0
    4.2099   -9.1487    0.0000 O   0  0  0  0  0  0  0  0  0  0  0  0
    3.4954   -8.7362    0.0000 C   0  0  0  0  0  0  0  0  0  0  0  0
   10.6401   -6.2612    0.0000 O   0  0  0  0  0  0  0  0  0  0  0  0
   11.3546   -6.6737    0.0000 C   0  0  0  0  0  0  0  0  0  0  0  0
  1  2  1  0  0  0  0
  2  3  2  0  0  0  0
  3  4  1  0  0  0  0
  4  5  2  0  0  0  0
  5  6  1  0  0  0  0
  6  7  2  0  0  0  0
  7  8  1  0  0  0  0
  8  9  2  0  0  0  0
  9 10  1  0  0  0  0
  1 10  2  0  0  0  0
  5 10  1  0  0  0  0
 11 12  1  0  0  0  0
 12 13  1  0  0  0  0
 13 14  1  0  0  0  0
 14 15  2  0  0  0  0
 15 16  1  0  0  0  0
 16 17  2  0  0  0  0
 17 18  1  0  0  0  0
 13 18  2  0  0  0  0
 11  2  1  0  0  0  0
 18  3  1  0  0  0  0
 16 19  1  0  0  0  0
 20 21  1  0  0  0  0
  7 20  1  0  0  0  0
 22 23  1  0  0  0  0
  8 22  1  0  0  0  0
 24 25  1  0  0  0  0
 15 24  1  0  0  0  0
M  CHG  1   2   1
M  END
>  <cdx:groupId>
82

>  <cdx:fragmentId>
7

$$$$
