302275.cdx
  Mrv1902 05222410212D          

 25 27  0  0  0  0            999 V2000
    7.4250   -6.2653    0.0000 O   0  0  0  0  0  0  0  0  0  0  0  0
    8.0924   -6.7502    0.0000 C   0  0  0  0  0  0  0  0  0  0  0  0
    7.8375   -7.5349    0.0000 C   0  0  0  0  0  0  0  0  0  0  0  0
    7.0125   -7.5349    0.0000 C   0  0  0  0  0  0  0  0  0  0  0  0
    6.7576   -6.7502    0.0000 C   0  0  0  0  0  0  0  0  0  0  0  0
    8.3895   -8.1479    0.0000 C   0  0  0  0  0  0  0  0  0  0  0  0
    9.1965   -7.9764    0.0000 C   0  0  1  0  0  0  0  0  0  0  0  0
    9.4514   -7.1918    0.0000 C   0  0  0  0  0  0  0  0  0  0  0  0
    8.8994   -6.5787    0.0000 C   0  0  0  0  0  0  0  0  0  0  0  0
    5.9506   -6.5787    0.0000 C   0  0  0  0  0  0  0  0  0  0  0  0
    5.3986   -7.1918    0.0000 C   0  0  0  0  0  0  0  0  0  0  0  0
    5.6535   -7.9764    0.0000 C   0  0  0  0  0  0  0  0  0  0  0  0
    6.4605   -8.1479    0.0000 C   0  0  0  0  0  0  0  0  0  0  0  0
    8.1346   -8.9326    0.0000 O   0  0  0  0  0  0  0  0  0  0  0  0
    7.5019   -8.2885    0.0000 C   0  0  0  0  0  0  0  0  0  0  0  0
    5.1015   -8.5895    0.0000 C   0  0  0  0  0  0  0  0  0  0  0  0
    6.7154   -8.9326    0.0000 O   0  0  0  0  0  0  0  0  0  0  0  0
    4.5916   -7.0203    0.0000 O   0  0  0  0  0  0  0  0  0  0  0  0
   10.2584   -7.0203    0.0000 O   0  0  0  0  0  0  0  0  0  0  0  0
    5.6957   -5.7941    0.0000 C   0  0  0  0  0  0  0  0  0  0  0  0
    6.2790   -5.2107    0.0000 O   0  0  0  0  0  0  0  0  0  0  0  0
    4.8988   -5.5806    0.0000 C   0  0  0  0  0  0  0  0  0  0  0  0
    9.7485   -8.5895    0.0000 C   0  0  0  0  0  0  0  0  0  0  0  0
    9.4936   -9.3741    0.0000 O   0  0  0  0  0  0  0  0  0  0  0  0
   10.5555   -8.4180    0.0000 C   0  0  0  0  0  0  0  0  0  0  0  0
  1  2  1  0  0  0  0
  2  3  1  0  0  0  0
  3  4  1  0  0  0  0
  4  5  1  0  0  0  0
  1  5  1  0  0  0  0
  6  7  1  0  0  0  0
  7  8  1  0  0  0  0
  8  9  2  0  0  0  0
  9  2  1  0  0  0  0
  6  3  1  0  0  0  0
 10 11  1  0  0  0  0
 11 12  2  0  0  0  0
 12 13  1  0  0  0  0
 13  4  2  0  0  0  0
 10  5  2  0  0  0  0
  6 14  2  0  0  0  0
  3 15  1  0  0  0  0
 12 16  1  0  0  0  0
 13 17  1  0  0  0  0
 11 18  1  0  0  0  0
  8 19  1  0  0  0  0
 20 21  2  0  0  0  0
 20 22  1  0  0  0  0
 10 20  1  0  0  0  0
 23 24  2  0  0  0  0
 23 25  1  0  0  0  0
  7 23  1  1  0  0  0
M  END
>  <cdx:groupId>
79

>  <cdx:fragmentId>
5

$$$$
