30224.cdx
  Mrv1902 05222410222D          

 12 13  0  0  0  0            999 V2000
    4.9206   -9.3351    0.0000 C   0  0  0  0  0  0  0  0  0  0  0  0
    4.9206  -10.1601    0.0000 C   0  0  0  0  0  0  0  0  0  0  0  0
    5.6350  -10.5726    0.0000 C   0  0  0  0  0  0  0  0  0  0  0  0
    6.3495  -10.1601    0.0000 C   0  0  0  0  0  0  0  0  0  0  0  0
    6.3495   -9.3351    0.0000 C   0  0  0  0  0  0  0  0  0  0  0  0
    5.6350   -8.9226    0.0000 C   0  0  0  0  0  0  0  0  0  0  0  0
    7.0640  -10.5726    0.0000 C   0  0  0  0  0  0  0  0  0  0  0  0
    7.7784  -10.1601    0.0000 C   0  0  0  0  0  0  0  0  0  0  0  0
    7.7784   -9.3351    0.0000 C   0  0  0  0  0  0  0  0  0  0  0  0
    7.0640   -8.9226    0.0000 C   0  0  0  0  0  0  0  0  0  0  0  0
    5.6350  -11.3976    0.0000 C   0  0  0  0  0  0  0  0  0  0  0  0
    5.6350   -8.0976    0.0000 C   0  0  0  0  0  0  0  0  0  0  0  0
  1  2  1  0  0  0  0
  2  3  2  0  0  0  0
  3  4  1  0  0  0  0
  4  5  1  0  0  0  0
  5  6  1  0  0  0  0
  6  1  2  0  0  0  0
  4  7  2  0  0  0  0
  7  8  1  0  0  0  0
  8  9  2  0  0  0  0
  9 10  1  0  0  0  0
 10  5  2  0  0  0  0
  3 11  1  0  0  0  0
  6 12  1  0  0  0  0
M  END
>  <cdx:fragmentId>
5

$$$$
