302288.cdx
  Mrv1902 05222410212D          

 37 40  0  0  0  0            999 V2000
    4.4973   -8.1423    0.0000 C   0  0  0  0  0  0  0  0  0  0  0  0
    3.7829   -8.5548    0.0000 C   0  0  1  0  0  0  0  0  0  0  0  0
    3.7829   -9.3798    0.0000 C   0  0  1  0  0  0  0  0  0  0  0  0
    4.4973   -9.7923    0.0000 C   0  0  0  0  0  0  0  0  0  0  0  0
    5.2118   -9.3798    0.0000 C   0  0  1  0  0  0  0  0  0  0  0  0
    5.9263   -9.7923    0.0000 C   0  0  0  0  0  0  0  0  0  0  0  0
    6.6408   -9.3798    0.0000 C   0  0  0  0  0  0  0  0  0  0  0  0
    6.6408   -8.5548    0.0000 C   0  0  0  0  0  0  0  0  0  0  0  0
    7.3552   -8.1423    0.0000 C   0  0  2  0  0  0  0  0  0  0  0  0
    8.1399   -8.3973    0.0000 C   0  0  0  0  0  0  0  0  0  0  0  0
    8.6248   -7.7298    0.0000 C   0  0  0  0  0  0  0  0  0  0  0  0
    8.1399   -7.0624    0.0000 C   0  0  1  0  0  0  0  0  0  0  0  0
    7.3552   -7.3173    0.0000 C   0  0  1  0  0  0  0  0  0  0  0  0
    6.6408   -6.9048    0.0000 C   0  0  0  0  0  0  0  0  0  0  0  0
    5.9263   -7.3173    0.0000 C   0  0  2  0  0  0  0  0  0  0  0  0
    5.9263   -8.1423    0.0000 C   0  0  2  0  0  0  0  0  0  0  0  0
    5.2118   -8.5548    0.0000 C   0  0  1  0  0  0  0  0  0  0  0  0
    5.9263  -10.6173    0.0000 O   0  0  0  0  0  0  0  0  0  0  0  0
    8.2233   -5.4708    0.0000 C   0  0  0  0  0  0  0  0  0  0  0  0
    8.3948   -6.2778    0.0000 C   0  0  2  0  0  0  0  0  0  0  0  0
    9.2018   -6.1062    0.0000 C   0  0  1  0  0  0  0  0  0  0  0  0
    9.4567   -5.3216    0.0000 C   0  0  0  0  0  0  0  0  0  0  0  0
   10.2637   -5.1501    0.0000 C   0  0  1  0  0  0  0  0  0  0  0  0
   10.5186   -4.3655    0.0000 C   0  0  0  0  0  0  0  0  0  0  0  0
    9.9666   -3.7524    0.0000 C   0  0  0  0  0  0  0  0  0  0  0  0
   11.3256   -4.1939    0.0000 C   0  0  0  0  0  0  0  0  0  0  0  0
   10.8157   -5.7632    0.0000 O   0  0  0  0  0  0  0  0  0  0  0  0
    9.7538   -6.7193    0.0000 O   0  0  0  0  0  0  0  0  0  0  0  0
    7.6102   -6.0228    0.0000 O   0  0  0  0  0  0  0  0  0  0  0  0
    7.4415   -6.4968    0.0000 C   0  0  0  0  0  0  0  0  0  0  0  0
    5.2118   -7.7298    0.0000 C   0  0  0  0  0  0  0  0  0  0  0  0
    7.3552   -8.9673    0.0000 O   0  0  0  0  0  0  0  0  0  0  0  0
    5.2118   -6.9048    0.0000 O   0  0  0  0  0  0  0  0  0  0  0  0
    3.0684   -9.7923    0.0000 O   0  0  0  0  0  0  0  0  0  0  0  0
    3.0684   -8.1423    0.0000 O   0  0  0  0  0  0  0  0  0  0  0  0
    5.2118  -10.2048    0.0000 H   0  0  0  0  0  0  0  0  0  0  0  0
    5.9263   -8.9673    0.0000 H   0  0  0  0  0  0  0  0  0  0  0  0
  1  2  1  0  0  0  0
  2  3  1  0  0  0  0
  3  4  1  0  0  0  0
  4  5  1  0  0  0  0
  5  6  1  0  0  0  0
  6  7  1  0  0  0  0
  7  8  2  0  0  0  0
  8  9  1  0  0  0  0
  9 10  1  0  0  0  0
 10 11  1  0  0  0  0
 12 11  1  1  0  0  0
 12 13  1  0  0  0  0
  9 13  1  0  0  0  0
 13 14  1  0  0  0  0
 14 15  1  0  0  0  0
 15 16  1  0  0  0  0
  8 16  1  0  0  0  0
 16 17  1  0  0  0  0
  5 17  1  0  0  0  0
  1 17  1  0  0  0  0
  6 18  2  0  0  0  0
 20 19  1  6  0  0  0
 20 21  1  0  0  0  0
 21 22  1  0  0  0  0
 22 23  1  0  0  0  0
 23 24  1  0  0  0  0
 24 25  1  0  0  0  0
 24 26  1  0  0  0  0
 23 27  1  1  0  0  0
 21 28  1  1  0  0  0
 20 29  1  1  0  0  0
 12 20  1  0  0  0  0
 13 30  1  1  0  0  0
 17 31  1  1  0  0  0
  9 32  1  6  0  0  0
 15 33  1  6  0  0  0
  3 34  1  1  0  0  0
  2 35  1  1  0  0  0
  5 36  1  1  0  0  0
 16 37  1  6  0  0  0
M  END
>  <cdx:groupId>
116

>  <cdx:fragmentId>
5

$$$$
