302250.cdx
  Mrv1902 05222410252D          

 54 59  0  0  0  0            999 V2000
    8.1395   -8.9424    0.0000 C   0  0  0  0  0  0  0  0  0  0  0  0
    8.1395   -8.1174    0.0000 C   0  0  0  0  0  0  0  0  0  0  0  0
    7.4250   -7.7049    0.0000 C   0  0  0  0  0  0  0  0  0  0  0  0
    6.7105   -8.1174    0.0000 C   0  0  0  0  0  0  0  0  0  0  0  0
    5.9961   -7.7049    0.0000 C   0  0  0  0  0  0  0  0  0  0  0  0
    5.2816   -8.1174    0.0000 C   0  0  0  0  0  0  0  0  0  0  0  0
    5.2816   -8.9424    0.0000 C   0  0  0  0  0  0  0  0  0  0  0  0
    5.9961   -9.3549    0.0000 C   0  0  0  0  0  0  0  0  0  0  0  0
    6.7105   -8.9424    0.0000 C   0  0  0  0  0  0  0  0  0  0  0  0
    7.4250   -9.3549    0.0000 O   0  0  0  0  0  0  0  0  0  0  0  0
    7.4250   -6.8799    0.0000 O   0  0  0  0  0  0  0  0  0  0  0  0
    4.5671   -9.3549    0.0000 O   0  0  0  0  0  0  0  0  0  0  0  0
    3.1382   -9.3549    0.0000 O   0  0  0  0  0  0  0  0  0  0  0  0
    3.8526   -8.9424    0.0000 C   0  0  1  0  0  0  0  0  0  0  0  0
    3.8526   -8.1174    0.0000 C   0  0  1  0  0  0  0  0  0  0  0  0
    3.1382   -7.7049    0.0000 C   0  0  1  0  0  0  0  0  0  0  0  0
    2.4237   -8.1174    0.0000 C   0  0  2  0  0  0  0  0  0  0  0  0
    2.4237   -8.9424    0.0000 C   0  0  2  0  0  0  0  0  0  0  0  0
    1.7092   -9.3549    0.0000 C   0  0  0  0  0  0  0  0  0  0  0  0
    1.7092   -7.7049    0.0000 O   0  0  0  0  0  0  0  0  0  0  0  0
    3.1382   -6.8799    0.0000 O   0  0  0  0  0  0  0  0  0  0  0  0
    4.5671   -7.7049    0.0000 O   0  0  0  0  0  0  0  0  0  0  0  0
    5.9961   -6.8799    0.0000 O   0  0  0  0  0  0  0  0  0  0  0  0
    8.8539   -9.3549    0.0000 C   0  0  0  0  0  0  0  0  0  0  0  0
    9.5684   -8.9424    0.0000 C   0  0  0  0  0  0  0  0  0  0  0  0
   10.2829   -9.3549    0.0000 C   0  0  0  0  0  0  0  0  0  0  0  0
   10.2829  -10.1799    0.0000 C   0  0  0  0  0  0  0  0  0  0  0  0
    9.5684  -10.5924    0.0000 C   0  0  0  0  0  0  0  0  0  0  0  0
    8.8539  -10.1799    0.0000 C   0  0  0  0  0  0  0  0  0  0  0  0
   10.9974  -10.5924    0.0000 O   0  0  0  0  0  0  0  0  0  0  0  0
   10.9974   -8.9424    0.0000 O   0  0  0  0  0  0  0  0  0  0  0  0
    8.8539   -7.7049    0.0000 O   0  0  0  0  0  0  0  0  0  0  0  0
    8.1395   -6.4674    0.0000 O   0  0  0  0  0  0  0  0  0  0  0  0
    8.8539   -6.8799    0.0000 C   0  0  2  0  0  0  0  0  0  0  0  0
    9.5684   -6.4674    0.0000 C   0  0  1  0  0  0  0  0  0  0  0  0
    9.5684   -5.6424    0.0000 C   0  0  2  0  0  0  0  0  0  0  0  0
    8.8539   -5.2299    0.0000 C   0  0  1  0  0  0  0  0  0  0  0  0
    8.1395   -5.6424    0.0000 C   0  0  1  0  0  0  0  0  0  0  0  0
   10.2829   -6.8799    0.0000 O   0  0  0  0  0  0  0  0  0  0  0  0
   10.9974   -5.6424    0.0000 O   0  0  0  0  0  0  0  0  0  0  0  0
   10.9974   -6.4674    0.0000 C   0  0  2  0  0  0  0  0  0  0  0  0
   11.7118   -6.8799    0.0000 C   0  0  1  0  0  0  0  0  0  0  0  0
   12.4263   -6.4674    0.0000 C   0  0  2  0  0  0  0  0  0  0  0  0
   12.4263   -5.6424    0.0000 C   0  0  1  0  0  0  0  0  0  0  0  0
   11.7118   -5.2299    0.0000 C   0  0  1  0  0  0  0  0  0  0  0  0
   11.7118   -4.4049    0.0000 C   0  0  0  0  0  0  0  0  0  0  0  0
   12.4263   -3.9924    0.0000 O   0  0  0  0  0  0  0  0  0  0  0  0
   13.1408   -5.2299    0.0000 O   0  0  0  0  0  0  0  0  0  0  0  0
   13.1408   -6.8799    0.0000 O   0  0  0  0  0  0  0  0  0  0  0  0
   11.7118   -7.7049    0.0000 O   0  0  0  0  0  0  0  0  0  0  0  0
    7.4250   -5.2299    0.0000 C   0  0  0  0  0  0  0  0  0  0  0  0
    6.7105   -5.6424    0.0000 O   0  0  0  0  0  0  0  0  0  0  0  0
    8.8539   -4.4049    0.0000 O   0  0  0  0  0  0  0  0  0  0  0  0
   10.2829   -5.2299    0.0000 O   0  0  0  0  0  0  0  0  0  0  0  0
  1  2  2  0  0  0  0
  2  3  1  0  0  0  0
  3  4  1  0  0  0  0
  4  5  1  0  0  0  0
  5  6  2  0  0  0  0
  6  7  1  0  0  0  0
  7  8  2  0  0  0  0
  8  9  1  0  0  0  0
  4  9  2  0  0  0  0
  9 10  1  0  0  0  0
  1 10  1  0  0  0  0
  3 11  2  0  0  0  0
 13 14  1  0  0  0  0
 14 15  1  0  0  0  0
 15 16  1  0  0  0  0
 16 17  1  0  0  0  0
 17 18  1  0  0  0  0
 13 18  1  0  0  0  0
 18 19  1  1  0  0  0
 17 20  1  6  0  0  0
 16 21  1  1  0  0  0
 15 22  1  1  0  0  0
 14 12  1  1  0  0  0
  7 12  1  0  0  0  0
  5 23  1  0  0  0  0
 24 25  1  0  0  0  0
 25 26  2  0  0  0  0
 26 27  1  0  0  0  0
 27 28  2  0  0  0  0
 28 29  1  0  0  0  0
 24 29  2  0  0  0  0
 27 30  1  0  0  0  0
 26 31  1  0  0  0  0
  1 24  1  0  0  0  0
 33 34  1  0  0  0  0
 34 35  1  0  0  0  0
 35 36  1  0  0  0  0
 36 37  1  0  0  0  0
 37 38  1  0  0  0  0
 33 38  1  0  0  0  0
 40 41  1  0  0  0  0
 41 42  1  0  0  0  0
 42 43  1  0  0  0  0
 43 44  1  0  0  0  0
 44 45  1  0  0  0  0
 40 45  1  0  0  0  0
 46 47  1  0  0  0  0
 45 46  1  6  0  0  0
 44 48  1  1  0  0  0
 43 49  1  6  0  0  0
 42 50  1  1  0  0  0
 41 39  1  6  0  0  0
 35 39  1  1  0  0  0
 51 52  1  0  0  0  0
 38 51  1  6  0  0  0
 37 53  1  1  0  0  0
 36 54  1  6  0  0  0
 34 32  1  6  0  0  0
  2 32  1  0  0  0  0
M  END
>  <cdx:groupId>
169

>  <cdx:fragmentId>
5

$$$$
