302289.cdx
  Mrv1902 05222410212D          

 43 47  0  0  0  0            999 V2000
    9.5684   -8.1174    0.0000 C   0  0  0  0  0  0  0  0  0  0  0  0
   10.2829   -7.7049    0.0000 C   0  0  0  0  0  0  0  0  0  0  0  0
   10.2829   -6.8799    0.0000 C   0  0  0  0  0  0  0  0  0  0  0  0
    9.5684   -6.4674    0.0000 C   0  0  0  0  0  0  0  0  0  0  0  0
    8.8539   -6.8799    0.0000 C   0  0  0  0  0  0  0  0  0  0  0  0
    8.1395   -6.4674    0.0000 C   0  0  0  0  0  0  0  0  0  0  0  0
    7.4250   -6.8799    0.0000 C   0  0  0  0  0  0  0  0  0  0  0  0
    6.7105   -6.4674    0.0000 C   0  0  0  0  0  0  0  0  0  0  0  0
    5.9961   -6.8799    0.0000 C   0  0  0  0  0  0  0  0  0  0  0  0
    5.9961   -7.7049    0.0000 C   0  0  0  0  0  0  0  0  0  0  0  0
    6.7105   -8.1174    0.0000 C   0  0  0  0  0  0  0  0  0  0  0  0
    7.4250   -7.7049    0.0000 C   0  0  0  0  0  0  0  0  0  0  0  0
    8.1395   -8.1174    0.0000 C   0  0  1  0  0  0  0  0  0  0  0  0
    8.8539   -7.7049    0.0000 C   0  0  0  0  0  0  0  0  0  0  0  0
   10.9974   -8.1174    0.0000 C   0  0  0  0  0  0  0  0  0  0  0  0
   10.9974   -8.9424    0.0000 O   0  0  0  0  0  0  0  0  0  0  0  0
   11.7118   -7.7049    0.0000 O   0  0  0  0  0  0  0  0  0  0  0  0
    7.4250   -9.3549    0.0000 O   0  0  0  0  0  0  0  0  0  0  0  0
    8.1395   -8.9424    0.0000 C   0  0  0  0  0  0  0  0  0  0  0  0
    8.8539   -9.3549    0.0000 C   0  0  1  0  0  0  0  0  0  0  0  0
    8.8539  -10.1799    0.0000 C   0  0  2  0  0  0  0  0  0  0  0  0
    8.1395  -10.5924    0.0000 C   0  0  1  0  0  0  0  0  0  0  0  0
    7.4250  -10.1799    0.0000 C   0  0  1  0  0  0  0  0  0  0  0  0
    6.7105  -10.5924    0.0000 C   0  0  0  0  0  0  0  0  0  0  0  0
    6.7105  -11.4174    0.0000 O   0  0  0  0  0  0  0  0  0  0  0  0
    8.1395  -11.4174    0.0000 O   0  0  0  0  0  0  0  0  0  0  0  0
    9.5684  -10.5924    0.0000 O   0  0  0  0  0  0  0  0  0  0  0  0
    9.5684   -8.9424    0.0000 O   0  0  0  0  0  0  0  0  0  0  0  0
    8.1395   -5.6424    0.0000 O   0  0  0  0  0  0  0  0  0  0  0  0
    8.8539   -8.5299    0.0000 O   0  0  0  0  0  0  0  0  0  0  0  0
    9.5684   -5.6424    0.0000 O   0  0  0  0  0  0  0  0  0  0  0  0
    5.2751   -6.4561    0.0000 O   0  0  0  0  0  0  0  0  0  0  0  0
    3.8527   -5.6199    0.0000 O   0  0  0  0  0  0  0  0  0  0  0  0
    3.8658   -3.9699    0.0000 O   0  0  0  0  0  0  0  0  0  0  0  0
    4.5900   -2.7381    0.0000 O   0  0  0  0  0  0  0  0  0  0  0  0
    5.3012   -3.1562    0.0000 C   0  0  0  0  0  0  0  0  0  0  0  0
    5.2947   -3.9812    0.0000 C   0  0  2  0  0  0  0  0  0  0  0  0
    4.5770   -4.3880    0.0000 C   0  0  2  0  0  0  0  0  0  0  0  0
    4.5704   -5.2130    0.0000 C   0  0  1  0  0  0  0  0  0  0  0  0
    5.2816   -5.6311    0.0000 C   0  0  2  0  0  0  0  0  0  0  0  0
    5.9993   -5.2243    0.0000 C   0  0  1  0  0  0  0  0  0  0  0  0
    6.0059   -4.3993    0.0000 O   0  0  0  0  0  0  0  0  0  0  0  0
    6.7105   -5.6424    0.0000 O   0  0  0  0  0  0  0  0  0  0  0  0
 41 43  1  1  0  0  0
 40 32  1  6  0  0  0
 39 33  1  1  0  0  0
 38 34  1  6  0  0  0
 37 36  1  1  0  0  0
 36 35  1  0  0  0  0
 42 37  1  0  0  0  0
 38 37  1  0  0  0  0
 39 38  1  0  0  0  0
 40 39  1  0  0  0  0
 41 40  1  0  0  0  0
 42 41  1  0  0  0  0
  1  2  1  0  0  0  0
  2  3  2  0  0  0  0
  3  4  1  0  0  0  0
  4  5  2  0  0  0  0
  5  6  1  0  0  0  0
  6  7  1  0  0  0  0
  7  8  1  0  0  0  0
  8  9  2  0  0  0  0
  9 10  1  0  0  0  0
 10 11  2  0  0  0  0
 11 12  1  0  0  0  0
  7 12  2  0  0  0  0
 12 13  1  0  0  0  0
 13 14  1  0  0  0  0
  5 14  1  0  0  0  0
  1 14  2  0  0  0  0
 15 16  2  0  0  0  0
 15 17  1  0  0  0  0
  2 15  1  0  0  0  0
  8 43  1  0  0  0  0
 18 19  1  0  0  0  0
 19 20  1  0  0  0  0
 20 21  1  0  0  0  0
 21 22  1  0  0  0  0
 22 23  1  0  0  0  0
 18 23  1  0  0  0  0
 24 25  1  0  0  0  0
 23 24  1  1  0  0  0
 22 26  1  6  0  0  0
 21 27  1  1  0  0  0
 20 28  1  6  0  0  0
 13 19  1  0  0  0  0
  6 29  2  0  0  0  0
 13 30  1  6  0  0  0
  4 31  1  0  0  0  0
M  END
>  <cdx:fragmentId>
5

$$$$
