302258.cdx
  Mrv1902 05222410232D          

 26 29  0  0  0  0            999 V2000
    7.2470   -9.6408    0.0000 N   0  0  0  0  0  0  0  0  0  0  0  0
    7.9614   -9.2283    0.0000 C   0  0  0  0  0  0  0  0  0  0  0  0
    7.9614   -8.4033    0.0000 C   0  0  0  0  0  0  0  0  0  0  0  0
    7.2470   -7.9908    0.0000 C   0  0  0  0  0  0  0  0  0  0  0  0
    6.5325   -8.4033    0.0000 C   0  0  0  0  0  0  0  0  0  0  0  0
    5.8180   -7.9908    0.0000 C   0  0  0  0  0  0  0  0  0  0  0  0
    5.1035   -8.4033    0.0000 C   0  0  0  0  0  0  0  0  0  0  0  0
    5.1035   -9.2283    0.0000 C   0  0  0  0  0  0  0  0  0  0  0  0
    5.8180   -9.6408    0.0000 C   0  0  0  0  0  0  0  0  0  0  0  0
    6.5325   -9.2283    0.0000 C   0  0  0  0  0  0  0  0  0  0  0  0
    4.3891   -7.9908    0.0000 O   0  0  0  0  0  0  0  0  0  0  0  0
    3.6746   -8.4033    0.0000 C   0  0  0  0  0  0  0  0  0  0  0  0
    9.9550   -6.0912    0.0000 C   0  0  2  0  0  0  0  0  0  0  0  0
    9.7212   -6.6825    0.0000 C   0  0  0  0  0  0  0  0  0  0  0  0
    7.7000   -5.4175    0.0000 C   0  0  0  0  0  0  0  0  0  0  0  0
    8.2363   -4.8950    0.0000 C   0  0  0  0  0  0  0  0  0  0  0  0
    9.1438   -5.7888    0.0000 C   0  0  2  0  0  0  0  0  0  0  0  0
    8.5800   -7.0950    0.0000 C   0  0  0  0  0  0  0  0  0  0  0  0
    7.9614   -6.7533    0.0000 C   0  0  2  0  0  0  0  0  0  0  0  0
    8.3187   -6.0500    0.0000 N   0  0  0  0  0  0  0  0  0  0  0  0
    6.5325   -6.7533    0.0000 O   0  0  0  0  0  0  0  0  0  0  0  0
    7.2470   -7.1658    0.0000 C   0  0  2  0  0  0  0  0  0  0  0  0
    7.9614   -7.5783    0.0000 H   0  0  0  0  0  0  0  0  0  0  0  0
    9.5871   -5.0930    0.0000 H   0  0  0  0  0  0  0  0  0  0  0  0
   10.7087   -5.7558    0.0000 C   0  0  0  0  0  0  0  0  0  0  0  0
   11.2921   -6.3392    0.0000 C   0  0  0  0  0  0  0  0  0  0  0  0
 22 19  1  0  0  0  0
 17 13  1  0  0  0  0
 20 15  1  0  0  0  0
 14 13  1  0  0  0  0
 16 15  1  0  0  0  0
 17 16  1  0  0  0  0
 19 18  1  0  0  0  0
 20 19  1  0  0  0  0
 22 21  1  1  0  0  0
  1  2  2  0  0  0  0
  2  3  1  0  0  0  0
  3  4  2  0  0  0  0
  4  5  1  0  0  0  0
  5  6  1  0  0  0  0
  6  7  2  0  0  0  0
  7  8  1  0  0  0  0
  8  9  2  0  0  0  0
  9 10  1  0  0  0  0
  1 10  1  0  0  0  0
  5 10  2  0  0  0  0
 11 12  1  0  0  0  0
  7 11  1  0  0  0  0
 22  4  1  0  0  0  0
 19 23  1  6  0  0  0
 17 24  1  6  0  0  0
 13 25  1  6  0  0  0
 25 26  2  0  0  0  0
 17 18  1  0  0  0  0
 14 20  1  0  0  0  0
M  END
>  <cdx:groupId>
80

>  <cdx:fragmentId>
9

$$$$
