302296.cdx
  Mrv1902 05222410232D          

 16 18  0  0  0  0            999 V2000
    7.5031   -6.3102    0.0000 N   0  0  0  0  0  0  0  0  0  0  0  0
    8.2175   -6.7227    0.0000 C   0  0  0  0  0  0  0  0  0  0  0  0
    8.2175   -7.5477    0.0000 C   0  0  0  0  0  0  0  0  0  0  0  0
    7.5031   -7.9602    0.0000 C   0  0  0  0  0  0  0  0  0  0  0  0
    6.7886   -7.5477    0.0000 C   0  0  0  0  0  0  0  0  0  0  0  0
    6.0741   -7.9602    0.0000 C   0  0  0  0  0  0  0  0  0  0  0  0
    5.3597   -7.5477    0.0000 C   0  0  0  0  0  0  0  0  0  0  0  0
    5.3597   -6.7227    0.0000 C   0  0  0  0  0  0  0  0  0  0  0  0
    6.0741   -6.3102    0.0000 C   0  0  0  0  0  0  0  0  0  0  0  0
    6.7886   -6.7227    0.0000 C   0  0  0  0  0  0  0  0  0  0  0  0
    9.0022   -6.4678    0.0000 O   0  0  0  0  0  0  0  0  0  0  0  0
    9.0022   -7.8027    0.0000 C   0  0  0  0  0  0  0  0  0  0  0  0
    9.4871   -7.1352    0.0000 C   0  0  0  0  0  0  0  0  0  0  0  0
    6.0741   -5.4852    0.0000 O   0  0  0  0  0  0  0  0  0  0  0  0
    7.5031   -8.7852    0.0000 O   0  0  0  0  0  0  0  0  0  0  0  0
    8.2175   -9.1977    0.0000 C   0  0  0  0  0  0  0  0  0  0  0  0
  1  2  2  0  0  0  0
  2  3  1  0  0  0  0
  3  4  2  0  0  0  0
  4  5  1  0  0  0  0
  5  6  2  0  0  0  0
  6  7  1  0  0  0  0
  7  8  2  0  0  0  0
  8  9  1  0  0  0  0
  9 10  2  0  0  0  0
  1 10  1  0  0  0  0
  5 10  1  0  0  0  0
 12 13  2  0  0  0  0
 11 13  1  0  0  0  0
 11  2  1  0  0  0  0
 12  3  1  0  0  0  0
  9 14  1  0  0  0  0
 15 16  1  0  0  0  0
  4 15  1  0  0  0  0
M  END
>  <cdx:groupId>
52

>  <cdx:fragmentId>
5

$$$$
