302263.cdx
  Mrv1902 05222410212D          

 71 77  0  0  0  0            999 V2000
   15.5511   -8.2232    0.0000 O   0  0  0  0  0  0  0  0  0  0  0  0
   16.1179   -8.8072    0.0000 C   0  0  2  0  0  0  0  0  0  0  0  0
   12.2204  -10.6718    0.0000 C   0  0  0  0  0  0  0  0  0  0  0  0
   11.5060  -11.0843    0.0000 C   0  0  0  0  0  0  0  0  0  0  0  0
   11.5060  -11.9093    0.0000 C   0  0  1  0  0  0  0  0  0  0  0  0
   12.2204  -12.3218    0.0000 C   0  0  0  0  0  0  0  0  0  0  0  0
   12.9349  -11.9093    0.0000 C   0  0  2  0  0  0  0  0  0  0  0  0
   13.6494  -12.3218    0.0000 C   0  0  0  0  0  0  0  0  0  0  0  0
   14.3638  -11.9093    0.0000 C   0  0  0  0  0  0  0  0  0  0  0  0
   14.3638  -11.0843    0.0000 C   0  0  1  0  0  0  0  0  0  0  0  0
   15.0783  -10.6718    0.0000 C   0  0  2  0  0  0  0  0  0  0  0  0
   15.8629  -10.9267    0.0000 C   0  0  0  0  0  0  0  0  0  0  0  0
   16.3479  -10.2593    0.0000 C   0  0  0  0  0  0  0  0  0  0  0  0
   15.8629   -9.5919    0.0000 C   0  0  1  0  0  0  0  0  0  0  0  0
   15.0783   -9.8468    0.0000 C   0  0  1  0  0  0  0  0  0  0  0  0
   14.3638   -9.4343    0.0000 C   0  0  1  0  0  0  0  0  0  0  0  0
   13.6494   -9.8468    0.0000 C   0  0  0  0  0  0  0  0  0  0  0  0
   13.6494  -10.6718    0.0000 C   0  0  2  0  0  0  0  0  0  0  0  0
   12.9349  -11.0843    0.0000 C   0  0  1  0  0  0  0  0  0  0  0  0
   15.0783  -11.4968    0.0000 C   0  0  0  0  0  0  0  0  0  0  0  0
   12.9349  -10.2593    0.0000 C   0  0  0  0  0  0  0  0  0  0  0  0
   14.3638  -10.2593    0.0000 C   0  0  0  0  0  0  0  0  0  0  0  0
   12.6329  -13.0363    0.0000 C   0  0  0  0  0  0  0  0  0  0  0  0
   11.8079  -13.0363    0.0000 C   0  0  0  0  0  0  0  0  0  0  0  0
   14.3638   -8.6093    0.0000 O   0  0  0  0  0  0  0  0  0  0  0  0
   10.7915  -12.3218    0.0000 O   0  0  0  0  0  0  0  0  0  0  0  0
   10.0786  -11.0834    0.0000 O   0  0  0  0  0  0  0  0  0  0  0  0
   10.0775  -11.9084    0.0000 C   0  0  2  0  0  0  0  0  0  0  0  0
    9.3626  -12.3200    0.0000 C   0  0  1  0  0  0  0  0  0  0  0  0
    8.6486  -11.9066    0.0000 C   0  0  2  0  0  0  0  0  0  0  0  0
    8.6496  -11.0816    0.0000 C   0  0  1  0  0  0  0  0  0  0  0  0
    9.3646  -10.6700    0.0000 C   0  0  1  0  0  0  0  0  0  0  0  0
    9.3615  -13.1450    0.0000 O   0  0  0  0  0  0  0  0  0  0  0  0
    7.9326  -13.1432    0.0000 O   0  0  0  0  0  0  0  0  0  0  0  0
    8.6465  -13.5566    0.0000 C   0  0  2  0  0  0  0  0  0  0  0  0
    8.6455  -14.3816    0.0000 C   0  0  1  0  0  0  0  0  0  0  0  0
    7.9305  -14.7932    0.0000 C   0  0  2  0  0  0  0  0  0  0  0  0
    7.2166  -14.3798    0.0000 C   0  0  1  0  0  0  0  0  0  0  0  0
    7.2176  -13.5548    0.0000 C   0  0  1  0  0  0  0  0  0  0  0  0
    6.5036  -13.1414    0.0000 C   0  0  0  0  0  0  0  0  0  0  0  0
    6.5016  -14.7914    0.0000 O   0  0  0  0  0  0  0  0  0  0  0  0
    7.9295  -15.6182    0.0000 O   0  0  0  0  0  0  0  0  0  0  0  0
    9.3594  -14.7950    0.0000 O   0  0  0  0  0  0  0  0  0  0  0  0
    9.3657   -9.8450    0.0000 C   0  0  0  0  0  0  0  0  0  0  0  0
    8.6517   -9.4316    0.0000 O   0  0  0  0  0  0  0  0  0  0  0  0
    7.9357  -10.6682    0.0000 O   0  0  0  0  0  0  0  0  0  0  0  0
    7.9336  -12.3182    0.0000 O   0  0  0  0  0  0  0  0  0  0  0  0
   12.9349  -12.7343    0.0000 H   0  0  0  0  0  0  0  0  0  0  0  0
   13.6494  -11.4968    0.0000 H   0  0  0  0  0  0  0  0  0  0  0  0
   15.1646   -9.0263    0.0000 H   0  0  0  0  0  0  0  0  0  0  0  0
   16.6778   -9.4628    0.0000 H   0  0  0  0  0  0  0  0  0  0  0  0
    5.7886  -13.5530    0.0000 O   0  0  0  0  0  0  0  0  0  0  0  0
   16.9249   -8.6357    0.0000 C   0  0  0  0  0  0  0  0  0  0  0  0
   17.4769   -9.2488    0.0000 C   0  0  0  0  0  0  0  0  0  0  0  0
   18.2839   -9.0773    0.0000 C   0  0  0  0  0  0  0  0  0  0  0  0
   18.8359   -9.6904    0.0000 C   0  0  0  0  0  0  0  0  0  0  0  0
   19.6429   -9.5189    0.0000 C   0  0  0  0  0  0  0  0  0  0  0  0
   18.5810  -10.4750    0.0000 C   0  0  0  0  0  0  0  0  0  0  0  0
   16.3728   -8.0226    0.0000 C   0  0  0  0  0  0  0  0  0  0  0  0
   15.5572   -7.3982    0.0000 C   0  0  2  0  0  0  0  0  0  0  0  0
   16.2747   -6.9911    0.0000 O   0  0  0  0  0  0  0  0  0  0  0  0
   16.2808   -6.1661    0.0000 C   0  0  1  0  0  0  0  0  0  0  0  0
   15.5694   -5.7483    0.0000 C   0  0  2  0  0  0  0  0  0  0  0  0
   14.8519   -6.1555    0.0000 C   0  0  1  0  0  0  0  0  0  0  0  0
   14.8458   -6.9805    0.0000 C   0  0  1  0  0  0  0  0  0  0  0  0
   16.9983   -5.7589    0.0000 C   0  0  0  0  0  0  0  0  0  0  0  0
   14.1405   -5.7377    0.0000 O   0  0  0  0  0  0  0  0  0  0  0  0
   15.5756   -4.9233    0.0000 O   0  0  0  0  0  0  0  0  0  0  0  0
   14.1283   -7.3876    0.0000 O   0  0  0  0  0  0  0  0  0  0  0  0
   17.0045   -4.9339    0.0000 O   0  0  0  0  0  0  0  0  0  0  0  0
   19.1330  -11.0881    0.0000 O   0  0  0  0  0  0  0  0  0  0  0  0
  3  4  1  0  0  0  0
  4  5  1  0  0  0  0
  5  6  1  0  0  0  0
  6  7  1  0  0  0  0
  7  8  1  0  0  0  0
  8  9  1  0  0  0  0
  9 10  1  0  0  0  0
 10 11  1  0  0  0  0
 11 12  1  0  0  0  0
 12 13  1  0  0  0  0
 14 13  1  0  0  0  0
 14 15  1  0  0  0  0
 11 15  1  0  0  0  0
 15 16  1  0  0  0  0
 16 17  1  0  0  0  0
 17 18  1  0  0  0  0
 10 18  1  0  0  0  0
 18 19  1  0  0  0  0
  7 19  1  0  0  0  0
  3 19  1  0  0  0  0
 11 20  1  6  0  0  0
 19 21  1  1  0  0  0
 10 22  1  1  0  0  0
  6 23  1  0  0  0  0
  6 24  1  0  0  0  0
 16 25  1  1  0  0  0
 27 28  1  0  0  0  0
 28 29  1  0  0  0  0
 29 30  1  0  0  0  0
 30 31  1  0  0  0  0
 31 32  1  0  0  0  0
 27 32  1  0  0  0  0
 34 35  1  0  0  0  0
 35 36  1  0  0  0  0
 36 37  1  0  0  0  0
 37 38  1  0  0  0  0
 38 39  1  0  0  0  0
 34 39  1  0  0  0  0
 39 40  1  1  0  0  0
 38 41  1  6  0  0  0
 37 42  1  1  0  0  0
 36 43  1  6  0  0  0
 35 33  1  1  0  0  0
 29 33  1  6  0  0  0
 44 45  1  0  0  0  0
 32 44  1  1  0  0  0
 31 46  1  6  0  0  0
 30 47  1  1  0  0  0
 28 26  1  1  0  0  0
  5 26  1  1  0  0  0
  2 14  1  0  0  0  0
  7 48  1  6  0  0  0
 18 49  1  6  0  0  0
 15 50  1  1  0  0  0
 14 51  1  6  0  0  0
 40 52  1  0  0  0  0
  2 53  1  0  0  0  0
 53 54  1  0  0  0  0
 54 55  1  0  0  0  0
 55 56  2  0  0  0  0
 56 57  1  0  0  0  0
 56 58  1  0  0  0  0
  2 59  1  6  0  0  0
  2  1  1  1  0  0  0
 60  1  1  1  0  0  0
 60 61  1  0  0  0  0
 61 62  1  0  0  0  0
 62 63  1  0  0  0  0
 63 64  1  0  0  0  0
 64 65  1  0  0  0  0
 65 60  1  0  0  0  0
 62 66  1  1  0  0  0
 64 67  1  1  0  0  0
 63 68  1  6  0  0  0
 65 69  1  6  0  0  0
 66 70  1  0  0  0  0
 58 71  1  0  0  0  0
M  END
>  <cdx:fragmentId>
31943

$$$$
