3022.cdx
  Mrv1902 05222410232D          

 44 50  0  0  0  0            999 V2000
    5.3797  -12.2912    0.0000 C   0  0  1  0  0  0  0  0  0  0  0  0
    5.3861  -11.4663    0.0000 C   0  0  0  0  0  0  0  0  0  0  0  0
    6.1037  -11.0593    0.0000 C   0  0  0  0  0  0  0  0  0  0  0  0
    6.0909  -12.7093    0.0000 C   0  0  2  0  0  0  0  0  0  0  0  0
    6.8086  -12.3023    0.0000 C   0  0  1  0  0  0  0  0  0  0  0  0
    6.8022  -13.1273    0.0000 H   0  0  0  0  0  0  0  0  0  0  0  0
    7.5198  -12.7204    0.0000 C   0  0  0  0  0  0  0  0  0  0  0  0
    8.2375  -12.3134    0.0000 C   0  0  0  0  0  0  0  0  0  0  0  0
    8.2439  -11.4884    0.0000 C   0  0  1  0  0  0  0  0  0  0  0  0
    8.8613  -10.9412    0.0000 C   0  0  2  0  0  0  0  0  0  0  0  0
    9.6810  -11.0338    0.0000 C   0  0  2  0  0  0  0  0  0  0  0  0
   10.1711  -10.3701    0.0000 C   0  0  1  0  0  0  0  0  0  0  0  0
    9.8414   -9.6139    0.0000 C   0  0  2  0  0  0  0  0  0  0  0  0
   10.6612   -9.7065    0.0000 H   0  0  0  0  0  0  0  0  0  0  0  0
   10.3315   -8.9502    0.0000 C   0  0  1  0  0  0  0  0  0  0  0  0
   10.9952   -9.4403    0.0000 C   0  0  0  0  0  0  0  0  0  0  0  0
   10.0018   -8.1940    0.0000 C   0  0  2  0  0  0  0  0  0  0  0  0
   10.8216   -8.2866    0.0000 H   0  0  0  0  0  0  0  0  0  0  0  0
   10.4919   -7.5303    0.0000 C   0  0  0  0  0  0  0  0  0  0  0  0
   10.1622   -6.7740    0.0000 C   0  0  0  0  0  0  0  0  0  0  0  0
    9.3424   -6.6814    0.0000 C   0  0  2  0  0  0  0  0  0  0  0  0
    9.0127   -5.9252    0.0000 C   0  0  0  0  0  0  0  0  0  0  0  0
    8.8523   -7.3451    0.0000 C   0  0  0  0  0  0  0  0  0  0  0  0
    9.1820   -8.1014    0.0000 N   0  0  0  0  0  0  0  0  0  0  0  0
    8.6919   -8.7650    0.0000 C   0  0  0  0  0  0  0  0  0  0  0  0
    9.0216   -9.5213    0.0000 C   0  0  1  0  0  0  0  0  0  0  0  0
    8.2830   -9.1539    0.0000 H   0  0  0  0  0  0  0  0  0  0  0  0
    8.5316  -10.1849    0.0000 C   0  0  2  0  0  0  0  0  0  0  0  0
    7.9482   -9.6016    0.0000 H   0  0  0  0  0  0  0  0  0  0  0  0
    7.7104  -10.2648    0.0000 C   0  0  0  0  0  0  0  0  0  0  0  0
    7.5326  -11.0704    0.0000 C   0  0  2  0  0  0  0  0  0  0  0  0
    6.8150  -11.4773    0.0000 C   0  0  1  0  0  0  0  0  0  0  0  0
    7.5262  -11.8954    0.0000 C   0  0  0  0  0  0  0  0  0  0  0  0
    6.3055  -11.4450    0.0000 O   0  0  0  0  0  0  0  0  0  0  0  0
    6.0845  -13.5342    0.0000 O   0  0  0  0  0  0  0  0  0  0  0  0
    9.0748  -11.7381    0.0000 O   0  0  0  0  0  0  0  0  0  0  0  0
   10.0107  -11.7900    0.0000 O   0  0  0  0  0  0  0  0  0  0  0  0
   10.9909  -10.4627    0.0000 O   0  0  0  0  0  0  0  0  0  0  0  0
   11.0878   -8.6205    0.0000 O   0  0  0  0  0  0  0  0  0  0  0  0
    3.9508  -12.2801    0.0000 C   0  0  0  0  0  0  0  0  0  0  0  0
    3.2331  -12.6871    0.0000 C   0  0  0  0  0  0  0  0  0  0  0  0
    3.9572  -11.4552    0.0000 O   0  0  0  0  0  0  0  0  0  0  0  0
    4.6620  -12.6982    0.0000 O   0  0  0  0  0  0  0  0  0  0  0  0
    8.8273  -12.0718    0.0000 H   0  0  0  0  0  0  0  0  0  0  0  0
  1  2  1  0  0  0  0
  2  3  1  0  0  0  0
  1  4  1  0  0  0  0
  4  5  1  0  0  0  0
  5  6  1  1  0  0  0
  5  7  1  0  0  0  0
  7  8  1  0  0  0  0
  8  9  1  0  0  0  0
  9 10  1  0  0  0  0
 10 11  1  0  0  0  0
 11 12  1  0  0  0  0
 12 13  1  0  0  0  0
 13 14  1  6  0  0  0
 13 15  1  0  0  0  0
 15 16  1  6  0  0  0
 15 17  1  0  0  0  0
 17 18  1  6  0  0  0
 17 19  1  0  0  0  0
 19 20  1  0  0  0  0
 20 21  1  0  0  0  0
 21 22  1  1  0  0  0
 21 23  1  0  0  0  0
 23 24  1  0  0  0  0
 17 24  1  0  0  0  0
 24 25  1  0  0  0  0
 25 26  1  0  0  0  0
 26 27  1  1  0  0  0
 13 26  1  0  0  0  0
 26 28  1  0  0  0  0
 28 29  1  6  0  0  0
 10 28  1  0  0  0  0
 28 30  1  0  0  0  0
 31 30  1  1  0  0  0
  9 31  1  0  0  0  0
 31 32  1  0  0  0  0
  3 32  1  0  0  0  0
  5 32  1  0  0  0  0
 32 33  1  1  0  0  0
  4 34  1  0  0  0  0
 31 34  1  0  0  0  0
  4 35  1  6  0  0  0
 10 36  1  6  0  0  0
 11 37  1  6  0  0  0
 12 38  1  1  0  0  0
 15 39  1  1  0  0  0
 40 41  1  0  0  0  0
 40 42  2  0  0  0  0
 40 43  1  0  0  0  0
  1 43  1  1  0  0  0
  9 44  1  1  0  0  0
M  END
>  <cdx:fragmentId>
193

$$$$
