302274.cdx
  Mrv1902 05222410202D          

 27 30  0  0  0  0            999 V2000
    8.1274   -6.5475    0.0000 C   0  0  2  0  0  0  0  0  0  0  0  0
    7.3204   -6.7191    0.0000 C   0  0  0  0  0  0  0  0  0  0  0  0
    6.6530   -6.2341    0.0000 N   0  0  0  0  0  0  0  0  0  0  0  0
    5.9856   -6.7191    0.0000 C   0  0  0  0  0  0  0  0  0  0  0  0
    5.1786   -6.5475    0.0000 C   0  0  0  0  0  0  0  0  0  0  0  0
    4.6266   -7.1606    0.0000 C   0  0  0  0  0  0  0  0  0  0  0  0
    4.8815   -7.9452    0.0000 C   0  0  0  0  0  0  0  0  0  0  0  0
    5.6885   -8.1168    0.0000 C   0  0  0  0  0  0  0  0  0  0  0  0
    6.2405   -7.5037    0.0000 C   0  0  0  0  0  0  0  0  0  0  0  0
    7.0655   -7.5037    0.0000 C   0  0  0  0  0  0  0  0  0  0  0  0
    7.6175   -8.1168    0.0000 C   0  0  0  0  0  0  0  0  0  0  0  0
    8.4245   -7.9452    0.0000 C   0  0  1  0  0  0  0  0  0  0  0  0
    9.2080   -7.7634    0.0000 C   0  0  2  0  0  0  0  0  0  0  0  0
    9.4518   -6.9968    0.0000 C   0  0  1  0  0  0  0  0  0  0  0  0
    8.9173   -6.3957    0.0000 C   0  0  0  0  0  0  0  0  0  0  0  0
    8.6794   -7.1606    0.0000 N   0  0  0  0  0  0  0  0  0  0  0  0
    4.3295   -8.5583    0.0000 O   0  0  0  0  0  0  0  0  0  0  0  0
    9.5039   -7.1318    0.0000 C   0  0  0  0  0  0  0  0  0  0  0  0
    9.7677   -8.3695    0.0000 C   0  0  0  0  0  0  0  0  0  0  0  0
    9.5225   -9.1573    0.0000 O   0  0  0  0  0  0  0  0  0  0  0  0
   10.5138   -6.0407    0.0000 C   0  0  0  0  0  0  0  0  0  0  0  0
   10.2588   -6.8253    0.0000 C   0  0  0  0  0  0  0  0  0  0  0  0
   10.8109   -7.4384    0.0000 C   0  0  0  0  0  0  0  0  0  0  0  0
   10.5559   -8.2230    0.0000 C   0  0  0  0  0  0  0  0  0  0  0  0
    9.9617   -5.4276    0.0000 O   0  0  0  0  0  0  0  0  0  0  0  0
    7.9638   -5.7389    0.0000 H   0  0  0  0  0  0  0  0  0  0  0  0
    8.6035   -8.7506    0.0000 H   0  0  0  0  0  0  0  0  0  0  0  0
  1  2  1  0  0  0  0
  2  3  1  0  0  0  0
  3  4  1  0  0  0  0
  4  5  1  0  0  0  0
  5  6  2  0  0  0  0
  6  7  1  0  0  0  0
  7  8  2  0  0  0  0
  8  9  1  0  0  0  0
  9 10  1  0  0  0  0
 10 11  1  0  0  0  0
 11 12  1  0  0  0  0
 12 13  1  0  0  0  0
 13 14  1  0  0  0  0
 14 15  1  0  0  0  0
  1 15  1  0  0  0  0
  1 16  1  1  0  0  0
 12 16  1  1  0  0  0
  2 10  2  0  0  0  0
  4  9  2  0  0  0  0
  7 17  1  0  0  0  0
 16 18  1  0  0  0  0
 19 20  1  0  0  0  0
 13 19  1  6  0  0  0
 21 22  1  0  0  0  0
 22 23  2  0  0  0  0
 23 24  1  0  0  0  0
 21 25  1  0  0  0  0
 14 22  1  1  0  0  0
  1 26  1  0  0  0  0
 12 27  1  0  0  0  0
M  END
>  <cdx:groupId>
176

>  <cdx:fragmentId>
95

$$$$
