302213.cdx
  Mrv1902 05222410202D          

 31 35  0  0  0  0            999 V2000
    7.7538   -6.2393    0.0000 C   0  0  1  0  0  0  0  0  0  0  0  0
    7.0507   -5.8077    0.0000 C   0  0  0  0  0  0  0  0  0  0  0  0
    6.2595   -6.0414    0.0000 N   0  0  0  0  0  0  0  0  0  0  0  0
    5.7927   -5.3611    0.0000 C   0  0  0  0  0  0  0  0  0  0  0  0
    4.9748   -5.2528    0.0000 C   0  0  0  0  0  0  0  0  0  0  0  0
    4.6597   -4.4904    0.0000 C   0  0  0  0  0  0  0  0  0  0  0  0
    5.1624   -3.8363    0.0000 C   0  0  0  0  0  0  0  0  0  0  0  0
    5.9803   -3.9446    0.0000 C   0  0  0  0  0  0  0  0  0  0  0  0
    6.2954   -4.7070    0.0000 C   0  0  0  0  0  0  0  0  0  0  0  0
    7.0729   -4.9830    0.0000 C   0  0  0  0  0  0  0  0  0  0  0  0
    7.7982   -4.5899    0.0000 C   0  0  0  0  0  0  0  0  0  0  0  0
    8.5013   -5.0215    0.0000 C   0  0  0  0  0  0  0  0  0  0  0  0
    8.4791   -5.8462    0.0000 N   0  0  0  0  0  0  0  0  0  0  0  0
    9.1822   -6.2778    0.0000 C   0  0  0  0  0  0  0  0  0  0  0  0
    9.1600   -7.1025    0.0000 C   0  0  1  0  0  0  0  0  0  0  0  0
    9.8631   -7.5341    0.0000 C   0  0  1  0  0  0  0  0  0  0  0  0
    9.8408   -8.3588    0.0000 O   0  0  0  0  0  0  0  0  0  0  0  0
    9.1155   -8.7519    0.0000 C   0  0  0  0  0  0  0  0  0  0  0  0
    8.4124   -8.3203    0.0000 C   0  0  0  0  0  0  0  0  0  0  0  0
    8.4346   -7.4956    0.0000 C   0  0  1  0  0  0  0  0  0  0  0  0
    7.7315   -7.0640    0.0000 C   0  0  0  0  0  0  0  0  0  0  0  0
    7.6871   -8.7134    0.0000 C   0  0  0  0  0  0  0  0  0  0  0  0
    6.9840   -8.2818    0.0000 O   0  0  0  0  0  0  0  0  0  0  0  0
    7.6649   -9.5381    0.0000 O   0  0  0  0  0  0  0  0  0  0  0  0
   10.5884   -7.1410    0.0000 C   0  0  0  0  0  0  0  0  0  0  0  0
    3.8418   -4.3821    0.0000 O   0  0  0  0  0  0  0  0  0  0  0  0
    3.5267   -3.6196    0.0000 C   0  0  0  0  0  0  0  0  0  0  0  0
    7.0284   -6.6324    0.0000 H   0  0  0  0  0  0  0  0  0  0  0  0
    9.8853   -6.7094    0.0000 H   0  0  0  0  0  0  0  0  0  0  0  0
    7.7093   -7.8887    0.0000 H   0  0  0  0  0  0  0  0  0  0  0  0
    6.9395   -9.9312    0.0000 C   0  0  0  0  0  0  0  0  0  0  0  0
  1  2  1  0  0  0  0
  2  3  1  0  0  0  0
  3  4  1  0  0  0  0
  4  5  1  0  0  0  0
  5  6  2  0  0  0  0
  6  7  1  0  0  0  0
  7  8  2  0  0  0  0
  8  9  1  0  0  0  0
  9 10  1  0  0  0  0
 10 11  1  0  0  0  0
 11 12  1  0  0  0  0
 12 13  1  0  0  0  0
 13 14  1  0  0  0  0
 14 15  1  0  0  0  0
 15 16  1  0  0  0  0
 16 17  1  0  0  0  0
 17 18  1  0  0  0  0
 18 19  2  0  0  0  0
 19 20  1  0  0  0  0
 20 21  1  0  0  0  0
  1 21  1  0  0  0  0
  1 13  1  0  0  0  0
 15 20  1  0  0  0  0
  2 10  2  0  0  0  0
  4  9  2  0  0  0  0
 22 23  2  0  0  0  0
 22 24  1  0  0  0  0
 19 22  1  0  0  0  0
 16 25  1  6  0  0  0
 26 27  1  0  0  0  0
  6 26  1  0  0  0  0
  1 28  1  6  0  0  0
 15 29  1  6  0  0  0
 20 30  1  6  0  0  0
 24 31  1  0  0  0  0
M  END
>  <cdx:groupId>
99

>  <cdx:fragmentId>
5

$$$$
