302246.cdx
  Mrv1902 05222410252D          

 42 46  0  0  0  0            999 V2000
    8.1395   -8.9424    0.0000 C   0  0  0  0  0  0  0  0  0  0  0  0
    8.1395   -8.1174    0.0000 C   0  0  0  0  0  0  0  0  0  0  0  0
    7.4250   -7.7049    0.0000 C   0  0  0  0  0  0  0  0  0  0  0  0
    6.7105   -8.1174    0.0000 C   0  0  0  0  0  0  0  0  0  0  0  0
    5.9961   -7.7049    0.0000 C   0  0  0  0  0  0  0  0  0  0  0  0
    5.2816   -8.1174    0.0000 C   0  0  0  0  0  0  0  0  0  0  0  0
    5.2816   -8.9424    0.0000 C   0  0  0  0  0  0  0  0  0  0  0  0
    5.9961   -9.3549    0.0000 C   0  0  0  0  0  0  0  0  0  0  0  0
    6.7105   -8.9424    0.0000 C   0  0  0  0  0  0  0  0  0  0  0  0
    7.4250   -9.3549    0.0000 O   0  0  0  0  0  0  0  0  0  0  0  0
    7.4250   -6.8799    0.0000 O   0  0  0  0  0  0  0  0  0  0  0  0
    8.8539   -7.7049    0.0000 O   0  0  0  0  0  0  0  0  0  0  0  0
    8.1395   -6.4674    0.0000 O   0  0  0  0  0  0  0  0  0  0  0  0
    8.8539   -6.8799    0.0000 C   0  0  0  0  0  0  0  0  0  0  0  0
    9.5684   -6.4674    0.0000 C   0  0  0  0  0  0  0  0  0  0  0  0
    9.5684   -5.6424    0.0000 C   0  0  0  0  0  0  0  0  0  0  0  0
    8.8539   -5.2299    0.0000 C   0  0  0  0  0  0  0  0  0  0  0  0
    8.1395   -5.6424    0.0000 C   0  0  0  0  0  0  0  0  0  0  0  0
    7.4250   -5.2299    0.0000 C   0  0  0  0  0  0  0  0  0  0  0  0
    6.7105   -5.6424    0.0000 O   0  0  0  0  0  0  0  0  0  0  0  0
    5.9961   -4.4049    0.0000 O   0  0  0  0  0  0  0  0  0  0  0  0
    5.9961   -5.2299    0.0000 C   0  0  0  0  0  0  0  0  0  0  0  0
    5.2816   -5.6424    0.0000 C   0  0  0  0  0  0  0  0  0  0  0  0
    4.5671   -5.2299    0.0000 C   0  0  0  0  0  0  0  0  0  0  0  0
    4.5671   -4.4049    0.0000 C   0  0  0  0  0  0  0  0  0  0  0  0
    5.2816   -3.9924    0.0000 C   0  0  0  0  0  0  0  0  0  0  0  0
    3.8526   -3.9924    0.0000 O   0  0  0  0  0  0  0  0  0  0  0  0
    3.8526   -5.6424    0.0000 O   0  0  0  0  0  0  0  0  0  0  0  0
    5.2816   -6.4674    0.0000 O   0  0  0  0  0  0  0  0  0  0  0  0
    8.8539   -4.4049    0.0000 O   0  0  0  0  0  0  0  0  0  0  0  0
   10.2829   -5.2299    0.0000 O   0  0  0  0  0  0  0  0  0  0  0  0
   10.2829   -6.8799    0.0000 O   0  0  0  0  0  0  0  0  0  0  0  0
    4.5671   -9.3549    0.0000 O   0  0  0  0  0  0  0  0  0  0  0  0
    5.9961   -6.8799    0.0000 O   0  0  0  0  0  0  0  0  0  0  0  0
    8.8539   -9.3549    0.0000 C   0  0  0  0  0  0  0  0  0  0  0  0
    9.5684   -8.9424    0.0000 C   0  0  0  0  0  0  0  0  0  0  0  0
   10.2829   -9.3549    0.0000 C   0  0  0  0  0  0  0  0  0  0  0  0
   10.2829  -10.1799    0.0000 C   0  0  0  0  0  0  0  0  0  0  0  0
    9.5684  -10.5924    0.0000 C   0  0  0  0  0  0  0  0  0  0  0  0
    8.8539  -10.1799    0.0000 C   0  0  0  0  0  0  0  0  0  0  0  0
   10.9974  -10.5924    0.0000 O   0  0  0  0  0  0  0  0  0  0  0  0
   10.9974   -8.9424    0.0000 O   0  0  0  0  0  0  0  0  0  0  0  0
  1  2  2  0  0  0  0
  2  3  1  0  0  0  0
  3  4  1  0  0  0  0
  4  5  1  0  0  0  0
  5  6  2  0  0  0  0
  6  7  1  0  0  0  0
  7  8  2  0  0  0  0
  8  9  1  0  0  0  0
  4  9  2  0  0  0  0
  9 10  1  0  0  0  0
  1 10  1  0  0  0  0
  3 11  2  0  0  0  0
 13 14  1  0  0  0  0
 14 15  1  0  0  0  0
 15 16  1  0  0  0  0
 16 17  1  0  0  0  0
 17 18  1  0  0  0  0
 13 18  1  0  0  0  0
 21 22  1  0  0  0  0
 22 23  1  0  0  0  0
 23 24  1  0  0  0  0
 24 25  1  0  0  0  0
 25 26  1  0  0  0  0
 21 26  1  0  0  0  0
 25 27  1  0  0  0  0
 24 28  1  0  0  0  0
 23 29  1  0  0  0  0
 20 22  1  0  0  0  0
 19 20  1  0  0  0  0
 18 19  1  0  0  0  0
 17 30  1  0  0  0  0
 16 31  1  0  0  0  0
 15 32  1  0  0  0  0
 12 14  1  0  0  0  0
  2 12  1  0  0  0  0
  7 33  1  0  0  0  0
  5 34  1  0  0  0  0
 35 36  1  0  0  0  0
 36 37  2  0  0  0  0
 37 38  1  0  0  0  0
 38 39  2  0  0  0  0
 39 40  1  0  0  0  0
 35 40  2  0  0  0  0
 38 41  1  0  0  0  0
 37 42  1  0  0  0  0
  1 35  1  0  0  0  0
M  END
>  <cdx:groupId>
132

>  <cdx:fragmentId>
45

$$$$
