302235.cdx
  Mrv1902 05222410262D          

 23 27  0  0  0  0            999 V2000
    7.4247   -7.2848    0.0000 C   0  0  0  0  0  0  0  0  0  0  0  0
    7.4247   -6.4598    0.0000 C   0  0  0  0  0  0  0  0  0  0  0  0
    6.8116   -5.9078    0.0000 O   0  0  0  0  0  0  0  0  0  0  0  0
    7.1472   -5.1541    0.0000 C   0  0  0  0  0  0  0  0  0  0  0  0
    7.9677   -5.2403    0.0000 O   0  0  0  0  0  0  0  0  0  0  0  0
    8.1392   -6.0473    0.0000 C   0  0  0  0  0  0  0  0  0  0  0  0
    8.8537   -6.4598    0.0000 C   0  0  0  0  0  0  0  0  0  0  0  0
    8.8537   -7.2848    0.0000 C   0  0  0  0  0  0  0  0  0  0  0  0
    9.5687   -7.6964    0.0000 C   0  0  0  0  0  0  0  0  0  0  0  0
    9.5684   -8.5214    0.0000 C   0  0  0  0  0  0  0  0  0  0  0  0
    8.8541   -8.9341    0.0000 N   0  0  0  0  0  0  0  0  0  0  0  0
    8.1392   -8.5223    0.0000 C   0  0  2  0  0  0  0  0  0  0  0  0
    7.4247   -8.9348    0.0000 C   0  0  0  0  0  0  0  0  0  0  0  0
    6.7103   -8.5223    0.0000 C   0  0  0  0  0  0  0  0  0  0  0  0
    5.9958   -8.9348    0.0000 C   0  0  0  0  0  0  0  0  0  0  0  0
    5.2813   -8.5223    0.0000 C   0  0  0  0  0  0  0  0  0  0  0  0
    5.2813   -7.6973    0.0000 C   0  0  0  0  0  0  0  0  0  0  0  0
    5.9958   -7.2848    0.0000 C   0  0  0  0  0  0  0  0  0  0  0  0
    6.7103   -7.6973    0.0000 C   0  0  0  0  0  0  0  0  0  0  0  0
    8.1392   -7.6973    0.0000 C   0  0  0  0  0  0  0  0  0  0  0  0
    5.9958   -6.4598    0.0000 O   0  0  0  0  0  0  0  0  0  0  0  0
    5.2813   -6.0473    0.0000 C   0  0  0  0  0  0  0  0  0  0  0  0
    8.1392   -9.3473    0.0000 H   0  0  0  0  0  0  0  0  0  0  0  0
  1  2  1  0  0  0  0
  2  3  1  0  0  0  0
  3  4  1  0  0  0  0
  4  5  1  0  0  0  0
  5  6  1  0  0  0  0
  6  7  1  0  0  0  0
  7  8  2  0  0  0  0
  8  9  1  0  0  0  0
  9 10  1  0  0  0  0
 10 11  1  0  0  0  0
 11 12  1  0  0  0  0
 12 13  1  0  0  0  0
 13 14  1  0  0  0  0
 14 15  1  0  0  0  0
 15 16  2  0  0  0  0
 16 17  1  0  0  0  0
 17 18  2  0  0  0  0
 18 19  1  0  0  0  0
  1 19  1  0  0  0  0
  1 20  2  0  0  0  0
 20 12  1  0  0  0  0
 14 19  2  0  0  0  0
  2  6  2  0  0  0  0
  8 20  1  0  0  0  0
 21 22  1  0  0  0  0
 18 21  1  0  0  0  0
 12 23  1  1  0  0  0
M  END
>  <cdx:fragmentId>
5

$$$$
