302218.cdx
  Mrv1902 05222410272D          

 38 42  0  0  0  0            999 V2000
    6.0187   -8.3289    0.0000 H   0  0  0  0  0  0  0  0  0  0  0  0
    7.8938   -7.9950    0.0000 H   0  0  0  0  0  0  0  0  0  0  0  0
    7.2756   -8.5413    0.0000 H   0  0  0  0  0  0  0  0  0  0  0  0
    5.2850   -9.5596    0.0000 H   0  0  0  0  0  0  0  0  0  0  0  0
    9.5563   -6.8653    0.0000 O   0  0  0  0  0  0  0  0  0  0  0  0
    9.7326   -4.0129    0.0000 C   0  0  0  0  0  0  0  0  0  0  0  0
   12.1147   -5.5918    0.0000 C   0  0  0  0  0  0  0  0  0  0  0  0
   10.9237   -4.8023    0.0000 C   0  0  0  0  0  0  0  0  0  0  0  0
   11.2913   -5.5409    0.0000 C   0  0  1  0  0  0  0  0  0  0  0  0
   10.8355   -6.2285    0.0000 C   0  0  0  0  0  0  0  0  0  0  0  0
   10.0121   -6.1776    0.0000 C   0  0  2  0  0  0  0  0  0  0  0  0
    9.6444   -5.4391    0.0000 C   0  0  2  0  0  0  0  0  0  0  0  0
   10.1002   -4.7514    0.0000 N   0  0  0  0  0  0  0  0  0  0  0  0
    8.4925   -4.6314    0.0000 C   0  0  0  0  0  0  0  0  0  0  0  0
    8.8210   -5.3882    0.0000 C   0  0  2  0  0  0  0  0  0  0  0  0
    7.1817   -5.2004    0.0000 C   0  0  0  0  0  0  0  0  0  0  0  0
    5.3004   -7.0847    0.0000 C   0  0  0  0  0  0  0  0  0  0  0  0
    5.9956   -9.9788    0.0000 O   0  0  0  0  0  0  0  0  0  0  0  0
    3.1455   -9.1271    0.0000 O   0  0  0  0  0  0  0  0  0  0  0  0
    4.5899   -7.4905    0.0000 C   0  0  0  0  0  0  0  0  0  0  0  0
    3.8716   -7.8963    0.0000 C   0  0  0  0  0  0  0  0  0  0  0  0
    3.8638   -8.7213    0.0000 C   0  0  1  0  0  0  0  0  0  0  0  0
    4.5744   -9.1404    0.0000 C   0  0  0  0  0  0  0  0  0  0  0  0
    7.0191   -6.6200    0.0000 C   0  0  0  0  0  0  0  0  0  0  0  0
    7.5102   -5.9571    0.0000 C   0  0  0  0  0  0  0  0  0  0  0  0
    8.3299   -6.0511    0.0000 C   0  0  2  0  0  0  0  0  0  0  0  0
    8.6583   -6.8079    0.0000 C   0  0  0  0  0  0  0  0  0  0  0  0
    8.1672   -7.4707    0.0000 C   0  0  0  0  0  0  0  0  0  0  0  0
    7.3475   -7.3768    0.0000 C   0  0  1  0  0  0  0  0  0  0  0  0
    6.7293   -7.9231    0.0000 C   0  0  2  0  0  0  0  0  0  0  0  0
    6.7216   -8.7480    0.0000 C   0  0  0  0  0  0  0  0  0  0  0  0
    6.0033   -9.1538    0.0000 C   0  0  2  0  0  0  0  0  0  0  0  0
    5.2927   -8.7346    0.0000 C   0  0  2  0  0  0  0  0  0  0  0  0
    5.3004   -7.9097    0.0000 C   0  0  2  0  0  0  0  0  0  0  0  0
    6.0187   -7.5039    0.0000 C   0  0  1  0  0  0  0  0  0  0  0  0
    6.1978   -6.6986    0.0000 C   0  0  0  0  0  0  0  0  0  0  0  0
    9.1495   -6.1450    0.0000 H   0  0  0  0  0  0  0  0  0  0  0  0
   10.4679   -5.4900    0.0000 H   0  0  0  0  0  0  0  0  0  0  0  0
 35  1  1  6  0  0  0
 29  2  1  6  0  0  0
 30  3  1  1  0  0  0
 33  4  1  6  0  0  0
 26 15  1  0  0  0  0
 15 12  1  0  0  0  0
 11  5  1  1  0  0  0
 13  6  1  0  0  0  0
  9  7  1  6  0  0  0
 13  8  1  0  0  0  0
  9  8  1  0  0  0  0
 10  9  1  0  0  0  0
 11 10  1  0  0  0  0
 12 11  1  0  0  0  0
 12 13  1  0  0  0  0
 15 14  1  1  0  0  0
 25 16  1  0  0  0  0
 34 17  1  1  0  0  0
 32 18  1  1  0  0  0
 22 19  1  1  0  0  0
 23 33  1  0  0  0  0
 20 34  1  0  0  0  0
 21 20  1  0  0  0  0
 22 21  1  0  0  0  0
 23 22  1  0  0  0  0
 36 24  1  0  0  0  0
 29 24  1  0  0  0  0
 25 24  2  0  0  0  0
 26 25  1  0  0  0  0
 26 27  1  0  0  0  0
 28 27  1  0  0  0  0
 29 28  1  0  0  0  0
 30 29  1  0  0  0  0
 35 30  1  0  0  0  0
 31 30  1  0  0  0  0
 32 31  1  0  0  0  0
 33 32  1  0  0  0  0
 34 33  1  0  0  0  0
 35 34  1  0  0  0  0
 36 35  1  0  0  0  0
 26 37  1  6  0  0  0
 12 38  1  6  0  0  0
M  END
>  <cdx:groupId>
114

>  <cdx:fragmentId>
5

$$$$
