30228.cdx
  Mrv1902 05222410242D          

 23 25  0  0  0  0            999 V2000
    5.5256   -6.1726    0.0000 C   0  0  0  0  0  0  0  0  0  0  0  0
    5.5256   -6.9976    0.0000 C   0  0  0  0  0  0  0  0  0  0  0  0
    6.2400   -7.4101    0.0000 C   0  0  0  0  0  0  0  0  0  0  0  0
    6.9545   -6.9976    0.0000 C   0  0  0  0  0  0  0  0  0  0  0  0
    6.9545   -6.1726    0.0000 C   0  0  0  0  0  0  0  0  0  0  0  0
    6.2400   -5.7601    0.0000 C   0  0  0  0  0  0  0  0  0  0  0  0
    7.6690   -7.4101    0.0000 O   0  0  0  0  0  0  0  0  0  0  0  0
    8.3834   -6.9976    0.0000 C   0  0  0  0  0  0  0  0  0  0  0  0
    8.3834   -6.1726    0.0000 C   0  0  0  0  0  0  0  0  0  0  0  0
    7.6690   -5.7601    0.0000 C   0  0  0  0  0  0  0  0  0  0  0  0
    9.0979   -7.4101    0.0000 C   0  0  0  0  0  0  0  0  0  0  0  0
    9.8124   -6.9976    0.0000 C   0  0  0  0  0  0  0  0  0  0  0  0
    9.8124   -6.1726    0.0000 C   0  0  0  0  0  0  0  0  0  0  0  0
    9.0979   -5.7601    0.0000 C   0  0  0  0  0  0  0  0  0  0  0  0
    4.8111   -7.4101    0.0000 O   0  0  0  0  0  0  0  0  0  0  0  0
    6.2400   -8.2351    0.0000 O   0  0  0  0  0  0  0  0  0  0  0  0
    5.5256   -8.6476    0.0000 C   0  0  0  0  0  0  0  0  0  0  0  0
    4.8111   -5.7601    0.0000 O   0  0  0  0  0  0  0  0  0  0  0  0
    4.8111   -4.9351    0.0000 C   0  0  0  0  0  0  0  0  0  0  0  0
    7.6690   -4.9351    0.0000 O   0  0  0  0  0  0  0  0  0  0  0  0
    9.0979   -4.9351    0.0000 O   0  0  0  0  0  0  0  0  0  0  0  0
   10.5269   -7.4101    0.0000 O   0  0  0  0  0  0  0  0  0  0  0  0
   11.2413   -6.9976    0.0000 C   0  0  0  0  0  0  0  0  0  0  0  0
  1  2  2  0  0  0  0
  2  3  1  0  0  0  0
  3  4  2  0  0  0  0
  4  5  1  0  0  0  0
  5  6  2  0  0  0  0
  6  1  1  0  0  0  0
  4  7  1  0  0  0  0
  7  8  1  0  0  0  0
  8  9  2  0  0  0  0
  9 10  1  0  0  0  0
 10  5  1  0  0  0  0
  8 11  1  0  0  0  0
 11 12  2  0  0  0  0
 12 13  1  0  0  0  0
 13 14  2  0  0  0  0
 14  9  1  0  0  0  0
  2 15  1  0  0  0  0
  3 16  1  0  0  0  0
 16 17  1  0  0  0  0
  1 18  1  0  0  0  0
 18 19  1  0  0  0  0
 10 20  2  0  0  0  0
 14 21  1  0  0  0  0
 12 22  1  0  0  0  0
 22 23  1  0  0  0  0
M  END
>  <cdx:fragmentId>
5

$$$$
