302256.cdx
  Mrv1902 05222410242D          

 25 27  0  0  0  0            999 V2000
    8.5557   -6.1372    0.0000 C   0  0  0  0  0  0  0  0  0  0  0  0
    8.8135   -6.5838    0.0000 C   0  0  0  0  0  0  0  0  0  0  0  0
    8.5557   -7.0303    0.0000 C   0  0  0  0  0  0  0  0  0  0  0  0
    8.0401   -7.0303    0.0000 C   0  0  0  0  0  0  0  0  0  0  0  0
    7.7823   -6.5838    0.0000 C   0  0  0  0  0  0  0  0  0  0  0  0
    8.0401   -6.1372    0.0000 C   0  0  0  0  0  0  0  0  0  0  0  0
    8.8135   -5.6907    0.0000 O   0  0  0  0  0  0  0  0  0  0  0  0
    7.0771   -7.9570    0.0000 C   0  0  0  0  0  0  0  0  0  0  0  0
    7.2667   -7.4769    0.0000 O   0  0  0  0  0  0  0  0  0  0  0  0
    7.7823   -7.4769    0.0000 C   0  0  1  0  0  0  0  0  0  0  0  0
    7.9702   -7.9570    0.0000 C   0  0  1  0  0  0  0  0  0  0  0  0
    8.4168   -8.2148    0.0000 N   0  3  0  0  0  0  0  0  0  0  0  0
    8.4168   -8.7305    0.0000 C   0  0  0  0  0  0  0  0  0  0  0  0
    7.9702   -8.9883    0.0000 C   0  0  0  0  0  0  0  0  0  0  0  0
    7.5237   -8.7305    0.0000 C   0  0  0  0  0  0  0  0  0  0  0  0
    7.0771   -8.9883    0.0000 C   0  0  0  0  0  0  0  0  0  0  0  0
    6.6306   -8.7305    0.0000 C   0  0  0  0  0  0  0  0  0  0  0  0
    6.6306   -8.2148    0.0000 C   0  0  0  0  0  0  0  0  0  0  0  0
    7.5237   -8.2148    0.0000 C   0  0  0  0  0  0  0  0  0  0  0  0
    8.9324   -8.2148    0.0000 C   0  0  0  0  0  0  0  0  0  0  0  0
    8.6746   -7.7683    0.0000 C   0  0  0  0  0  0  0  0  0  0  0  0
    6.1840   -7.9570    0.0000 O   0  0  0  0  0  0  0  0  0  0  0  0
    5.7375   -8.2148    0.0000 C   0  0  0  0  0  0  0  0  0  0  0  0
    8.3612   -7.6209    0.0000 H   0  0  0  0  0  0  0  0  0  0  0  0
    8.7807   -7.3905    0.0000 I   0  5  0  0  0  0  0  0  0  0  0  0
  1  2  1  0  0  0  0
  2  3  2  0  0  0  0
  3  4  1  0  0  0  0
  4  5  2  0  0  0  0
  5  6  1  0  0  0  0
  1  6  2  0  0  0  0
  1  7  1  0  0  0  0
  8  9  1  0  0  0  0
  9 10  1  0  0  0  0
 10 11  1  0  0  0  0
 11 12  1  0  0  0  0
 12 13  1  0  0  0  0
 13 14  1  0  0  0  0
 14 15  1  0  0  0  0
 15 16  1  0  0  0  0
 16 17  2  0  0  0  0
 17 18  1  0  0  0  0
  8 18  2  0  0  0  0
  8 19  1  0  0  0  0
 19 15  2  0  0  0  0
 11 19  1  0  0  0  0
 12 20  1  0  0  0  0
 12 21  1  0  0  0  0
 22 23  1  0  0  0  0
 18 22  1  0  0  0  0
 10  4  1  6  0  0  0
 11 24  1  6  0  0  0
M  CHG  2  12   1  25  -1
M  END
>  <cdx:groupId>
79

>  <cdx:fragmentId>
49

$$$$
