302298.cdx
  Mrv1902 05222410222D          

 49 54  0  0  0  0            999 V2000
    7.4803   -6.0166    0.0000 C   0  0  1  0  0  0  0  0  0  0  0  0
    8.1947   -5.6041    0.0000 C   0  0  1  0  0  0  0  0  0  0  0  0
    8.9092   -6.0166    0.0000 C   0  0  0  0  0  0  0  0  0  0  0  0
    8.9092   -6.8416    0.0000 C   0  0  0  0  0  0  0  0  0  0  0  0
    8.1947   -7.2541    0.0000 C   0  0  2  0  0  0  0  0  0  0  0  0
    8.1947   -8.0791    0.0000 C   0  0  0  0  0  0  0  0  0  0  0  0
    7.4803   -8.4916    0.0000 C   0  0  0  0  0  0  0  0  0  0  0  0
    6.7658   -8.0791    0.0000 C   0  0  1  0  0  0  0  0  0  0  0  0
    6.0513   -8.4916    0.0000 C   0  0  2  0  0  0  0  0  0  0  0  0
    6.0513   -9.3166    0.0000 C   0  0  0  0  0  0  0  0  0  0  0  0
    5.3369   -9.7291    0.0000 C   0  0  0  0  0  0  0  0  0  0  0  0
    4.6224   -9.3166    0.0000 C   0  0  1  0  0  0  0  0  0  0  0  0
    3.9079   -9.7291    0.0000 C   0  0  0  0  0  0  0  0  0  0  0  0
    3.1934   -9.3166    0.0000 C   0  0  2  0  0  0  0  0  0  0  0  0
    3.1934   -8.4916    0.0000 C   0  0  1  0  0  0  0  0  0  0  0  0
    3.9079   -8.0791    0.0000 C   0  0  0  0  0  0  0  0  0  0  0  0
    4.6224   -8.4916    0.0000 C   0  0  2  0  0  0  0  0  0  0  0  0
    5.3369   -8.0791    0.0000 C   0  0  1  0  0  0  0  0  0  0  0  0
    5.3369   -7.2541    0.0000 C   0  0  0  0  0  0  0  0  0  0  0  0
    6.0513   -6.8416    0.0000 C   0  0  0  0  0  0  0  0  0  0  0  0
    6.7658   -7.2541    0.0000 C   0  0  0  0  0  0  0  0  0  0  0  0
    7.4803   -6.8416    0.0000 C   0  0  2  0  0  0  0  0  0  0  0  0
    8.9092   -7.6666    0.0000 C   0  0  0  0  0  0  0  0  0  0  0  0
    8.9092   -8.4916    0.0000 O   0  0  0  0  0  0  0  0  0  0  0  0
    4.6224   -7.6666    0.0000 C   0  0  0  0  0  0  0  0  0  0  0  0
    4.3204  -10.4435    0.0000 C   0  0  0  0  0  0  0  0  0  0  0  0
    3.4954  -10.4435    0.0000 C   0  0  0  0  0  0  0  0  0  0  0  0
    6.7658   -8.9041    0.0000 C   0  0  0  0  0  0  0  0  0  0  0  0
    8.1947   -4.7791    0.0000 C   0  0  0  0  0  0  0  0  0  0  0  0
    7.0678   -5.3021    0.0000 C   0  0  0  0  0  0  0  0  0  0  0  0
    2.4790   -8.0791    0.0000 O   0  0  0  0  0  0  0  0  0  0  0  0
    2.4790   -9.7291    0.0000 O   0  0  0  0  0  0  0  0  0  0  0  0
    6.6553   -6.0166    0.0000 O   0  0  0  0  0  0  0  0  0  0  0  0
    4.6224  -10.1416    0.0000 H   0  0  0  0  0  0  0  0  0  0  0  0
    7.4803   -7.6666    0.0000 H   0  0  0  0  0  0  0  0  0  0  0  0
   11.0424   -6.4117    0.0000 O   0  0  0  0  0  0  0  0  0  0  0  0
   12.4813   -7.2191    0.0000 O   0  0  0  0  0  0  0  0  0  0  0  0
   12.5015   -8.8690    0.0000 O   0  0  0  0  0  0  0  0  0  0  0  0
   11.8022  -10.1151    0.0000 O   0  0  0  0  0  0  0  0  0  0  0  0
   11.0828   -9.7114    0.0000 C   0  0  0  0  0  0  0  0  0  0  0  0
   11.0727   -8.8865    0.0000 C   0  0  2  0  0  0  0  0  0  0  0  0
   11.7821   -8.4653    0.0000 C   0  0  2  0  0  0  0  0  0  0  0  0
   11.7720   -7.6403    0.0000 C   0  0  1  0  0  0  0  0  0  0  0  0
   11.0525   -7.2366    0.0000 C   0  0  2  0  0  0  0  0  0  0  0  0
   10.3431   -7.6578    0.0000 C   0  0  1  0  0  0  0  0  0  0  0  0
   10.3532   -8.4827    0.0000 O   0  0  0  0  0  0  0  0  0  0  0  0
    9.6237   -7.2541    0.0000 O   0  0  0  0  0  0  0  0  0  0  0  0
    6.0513   -7.6666    0.0000 C   0  0  0  0  0  0  0  0  0  0  0  0
    5.3369   -8.9041    0.0000 H   0  0  0  0  0  0  0  0  0  0  0  0
 45 47  1  1  0  0  0
 44 36  1  6  0  0  0
 43 37  1  1  0  0  0
 42 38  1  6  0  0  0
 41 40  1  1  0  0  0
 40 39  1  0  0  0  0
 46 41  1  0  0  0  0
 42 41  1  0  0  0  0
 43 42  1  0  0  0  0
 44 43  1  0  0  0  0
 45 44  1  0  0  0  0
 46 45  1  0  0  0  0
  1  2  1  0  0  0  0
  2  3  1  0  0  0  0
  3  4  1  0  0  0  0
  4  5  1  0  0  0  0
  5  6  1  0  0  0  0
  6  7  1  0  0  0  0
  7  8  1  0  0  0  0
  8  9  1  0  0  0  0
  9 10  1  0  0  0  0
 10 11  1  0  0  0  0
 11 12  1  0  0  0  0
 12 13  1  0  0  0  0
 13 14  1  0  0  0  0
 14 15  1  0  0  0  0
 15 16  1  0  0  0  0
 16 17  1  0  0  0  0
 12 17  1  0  0  0  0
 17 18  1  0  0  0  0
  9 18  1  0  0  0  0
 18 19  1  0  0  0  0
 19 20  1  0  0  0  0
 20 21  2  0  0  0  0
  8 21  1  0  0  0  0
 21 22  1  0  0  0  0
  5 22  1  0  0  0  0
  1 22  1  0  0  0  0
 23 24  2  0  0  0  0
 23 47  1  0  0  0  0
  5 23  1  1  0  0  0
 17 25  1  1  0  0  0
 13 26  1  0  0  0  0
 13 27  1  0  0  0  0
  8 28  1  6  0  0  0
  2 29  1  6  0  0  0
  1 30  1  1  0  0  0
 15 31  1  6  0  0  0
 14 32  1  1  0  0  0
  1 33  1  6  0  0  0
 12 34  1  6  0  0  0
 22 35  1  1  0  0  0
  9 48  1  1  0  0  0
 18 49  1  6  0  0  0
M  END
>  <cdx:groupId>
151

>  <cdx:fragmentId>
5

$$$$
