302279.cdx
  Mrv1902 05222410262D          

 12 13  0  0  0  0            999 V2000
    8.6917   -6.6226    0.0000 O   0  0  0  0  0  0  0  0  0  0  0  0
    9.1766   -7.2900    0.0000 C   0  0  0  0  0  0  0  0  0  0  0  0
    8.6917   -7.9575    0.0000 C   0  0  0  0  0  0  0  0  0  0  0  0
    7.9071   -7.7025    0.0000 C   0  0  2  0  0  0  0  0  0  0  0  0
    7.1926   -8.1150    0.0000 C   0  0  0  0  0  0  0  0  0  0  0  0
    6.4781   -7.7025    0.0000 C   0  0  0  0  0  0  0  0  0  0  0  0
    6.4781   -6.8775    0.0000 C   0  0  0  0  0  0  0  0  0  0  0  0
    7.1926   -6.4650    0.0000 C   0  0  0  0  0  0  0  0  0  0  0  0
    7.9071   -6.8775    0.0000 C   0  0  2  0  0  0  0  0  0  0  0  0
    5.7636   -6.4650    0.0000 O   0  0  0  0  0  0  0  0  0  0  0  0
    7.9933   -8.5230    0.0000 O   0  0  0  0  0  0  0  0  0  0  0  0
    7.9933   -6.0570    0.0000 H   0  0  0  0  0  0  0  0  0  0  0  0
  1  2  1  0  0  0  0
  2  3  1  0  0  0  0
  3  4  1  0  0  0  0
  4  5  1  0  0  0  0
  5  6  2  0  0  0  0
  6  7  1  0  0  0  0
  7  8  1  0  0  0  0
  8  9  1  0  0  0  0
  4  9  1  0  0  0  0
  1  9  1  0  0  0  0
  7 10  2  0  0  0  0
  4 11  1  1  0  0  0
  9 12  1  1  0  0  0
M  END
>  <cdx:fragmentId>
5

$$$$
