302241.cdx
  Mrv1902 05222410232D          

 49 54  0  0  0  0            999 V2000
    7.0678   -5.2778    0.0000 C   0  0  1  0  0  0  0  0  0  0  0  0
    7.7822   -4.8653    0.0000 C   0  0  1  0  0  0  0  0  0  0  0  0
    8.4967   -5.2778    0.0000 C   0  0  0  0  0  0  0  0  0  0  0  0
    8.4967   -6.1028    0.0000 C   0  0  0  0  0  0  0  0  0  0  0  0
    7.7822   -6.5153    0.0000 C   0  0  2  0  0  0  0  0  0  0  0  0
    7.7822   -7.3403    0.0000 C   0  0  0  0  0  0  0  0  0  0  0  0
    7.0678   -7.7528    0.0000 C   0  0  0  0  0  0  0  0  0  0  0  0
    6.3533   -7.3403    0.0000 C   0  0  1  0  0  0  0  0  0  0  0  0
    5.6388   -7.7528    0.0000 C   0  0  2  0  0  0  0  0  0  0  0  0
    5.6388   -8.5778    0.0000 C   0  0  0  0  0  0  0  0  0  0  0  0
    4.9244   -8.9903    0.0000 C   0  0  0  0  0  0  0  0  0  0  0  0
    4.2099   -8.5778    0.0000 C   0  0  1  0  0  0  0  0  0  0  0  0
    3.4954   -8.9903    0.0000 C   0  0  2  0  0  0  0  0  0  0  0  0
    2.7809   -8.5778    0.0000 C   0  0  2  0  0  0  0  0  0  0  0  0
    2.7809   -7.7528    0.0000 C   0  0  1  0  0  0  0  0  0  0  0  0
    3.4954   -7.3403    0.0000 C   0  0  0  0  0  0  0  0  0  0  0  0
    4.2099   -7.7528    0.0000 C   0  0  2  0  0  0  0  0  0  0  0  0
    4.9244   -7.3403    0.0000 C   0  0  1  0  0  0  0  0  0  0  0  0
    4.9244   -6.5153    0.0000 C   0  0  0  0  0  0  0  0  0  0  0  0
    5.6388   -6.1028    0.0000 C   0  0  0  0  0  0  0  0  0  0  0  0
    6.3533   -6.5153    0.0000 C   0  0  0  0  0  0  0  0  0  0  0  0
    7.0678   -6.1028    0.0000 C   0  0  2  0  0  0  0  0  0  0  0  0
    8.4967   -6.9278    0.0000 C   0  0  0  0  0  0  0  0  0  0  0  0
    8.4967   -7.7528    0.0000 O   0  0  0  0  0  0  0  0  0  0  0  0
    4.2099   -6.9278    0.0000 C   0  0  0  0  0  0  0  0  0  0  0  0
    3.0829   -9.7047    0.0000 C   0  0  0  0  0  0  0  0  0  0  0  0
    7.7822   -4.0403    0.0000 C   0  0  0  0  0  0  0  0  0  0  0  0
    6.3533   -4.8653    0.0000 C   0  0  0  0  0  0  0  0  0  0  0  0
    3.9079   -9.7047    0.0000 C   0  0  0  0  0  0  0  0  0  0  0  0
    3.4954  -10.4192    0.0000 O   0  0  0  0  0  0  0  0  0  0  0  0
    2.0665   -7.3403    0.0000 O   0  0  0  0  0  0  0  0  0  0  0  0
    2.0665   -8.9903    0.0000 O   0  0  0  0  0  0  0  0  0  0  0  0
    4.2099   -9.4028    0.0000 H   0  0  0  0  0  0  0  0  0  0  0  0
    7.0678   -6.9278    0.0000 H   0  0  0  0  0  0  0  0  0  0  0  0
   10.6388   -5.6880    0.0000 O   0  0  0  0  0  0  0  0  0  0  0  0
   12.0691   -6.5107    0.0000 O   0  0  0  0  0  0  0  0  0  0  0  0
   12.0717   -8.1607    0.0000 O   0  0  0  0  0  0  0  0  0  0  0  0
   11.3592   -9.3993    0.0000 O   0  0  0  0  0  0  0  0  0  0  0  0
   10.6441   -8.9880    0.0000 C   0  0  0  0  0  0  0  0  0  0  0  0
   10.6428   -8.1630    0.0000 C   0  0  2  0  0  0  0  0  0  0  0  0
   11.3566   -7.7493    0.0000 C   0  0  2  0  0  0  0  0  0  0  0  0
   11.3553   -6.9243    0.0000 C   0  0  1  0  0  0  0  0  0  0  0  0
   10.6401   -6.5130    0.0000 C   0  0  2  0  0  0  0  0  0  0  0  0
    9.9263   -6.9266    0.0000 C   0  0  1  0  0  0  0  0  0  0  0  0
    9.9276   -7.7516    0.0000 O   0  0  0  0  0  0  0  0  0  0  0  0
    9.2112   -6.5153    0.0000 O   0  0  0  0  0  0  0  0  0  0  0  0
    5.6388   -6.9278    0.0000 C   0  0  0  0  0  0  0  0  0  0  0  0
    4.9244   -8.1653    0.0000 H   0  0  0  0  0  0  0  0  0  0  0  0
    6.3533   -8.1653    0.0000 C   0  0  0  0  0  0  0  0  0  0  0  0
 44 46  1  1  0  0  0
 43 35  1  6  0  0  0
 42 36  1  1  0  0  0
 41 37  1  6  0  0  0
 40 39  1  1  0  0  0
 39 38  1  0  0  0  0
 45 40  1  0  0  0  0
 41 40  1  0  0  0  0
 42 41  1  0  0  0  0
 43 42  1  0  0  0  0
 44 43  1  0  0  0  0
 45 44  1  0  0  0  0
  1  2  1  0  0  0  0
  2  3  1  0  0  0  0
  3  4  1  0  0  0  0
  4  5  1  0  0  0  0
  5  6  1  0  0  0  0
  6  7  1  0  0  0  0
  7  8  1  0  0  0  0
  8  9  1  0  0  0  0
  9 10  1  0  0  0  0
 10 11  1  0  0  0  0
 11 12  1  0  0  0  0
 12 13  1  0  0  0  0
 13 14  1  0  0  0  0
 14 15  1  0  0  0  0
 15 16  1  0  0  0  0
 16 17  1  0  0  0  0
 12 17  1  0  0  0  0
 17 18  1  0  0  0  0
  9 18  1  0  0  0  0
 18 19  1  0  0  0  0
 19 20  1  0  0  0  0
 20 21  2  0  0  0  0
  8 21  1  0  0  0  0
 21 22  1  0  0  0  0
  5 22  1  0  0  0  0
  1 22  1  0  0  0  0
 23 24  2  0  0  0  0
 23 46  1  0  0  0  0
  5 23  1  1  0  0  0
 17 25  1  1  0  0  0
 13 26  1  1  0  0  0
  2 27  1  6  0  0  0
  1 28  1  1  0  0  0
 29 30  1  0  0  0  0
 13 29  1  6  0  0  0
 15 31  1  6  0  0  0
 14 32  1  1  0  0  0
 12 33  1  6  0  0  0
 22 34  1  1  0  0  0
  9 47  1  1  0  0  0
 18 48  1  6  0  0  0
  8 49  1  6  0  0  0
M  END
>  <cdx:fragmentId>
5

$$$$
