302223.cdx
  Mrv1902 05222410262D          

 19 21  0  0  0  0            999 V2000
    8.3507   -6.4674    0.0000 C   0  0  0  0  0  0  0  0  0  0  0  0
    9.0651   -6.8799    0.0000 C   0  0  0  0  0  0  0  0  0  0  0  0
    9.0651   -7.7049    0.0000 C   0  0  0  0  0  0  0  0  0  0  0  0
    8.3507   -8.1174    0.0000 C   0  0  0  0  0  0  0  0  0  0  0  0
    7.6362   -7.7049    0.0000 C   0  0  0  0  0  0  0  0  0  0  0  0
    6.9217   -8.1174    0.0000 C   0  0  0  0  0  0  0  0  0  0  0  0
    6.2072   -7.7049    0.0000 C   0  0  0  0  0  0  0  0  0  0  0  0
    5.4928   -8.1174    0.0000 C   0  0  0  0  0  0  0  0  0  0  0  0
    4.7783   -7.7049    0.0000 C   0  0  0  0  0  0  0  0  0  0  0  0
    4.7783   -6.8799    0.0000 C   0  0  0  0  0  0  0  0  0  0  0  0
    5.4928   -6.4674    0.0000 C   0  0  0  0  0  0  0  0  0  0  0  0
    6.2072   -6.8799    0.0000 C   0  0  0  0  0  0  0  0  0  0  0  0
    6.9217   -6.4674    0.0000 C   0  0  0  0  0  0  0  0  0  0  0  0
    7.6362   -6.8799    0.0000 C   0  0  0  0  0  0  0  0  0  0  0  0
    6.9217   -5.6424    0.0000 O   0  0  0  0  0  0  0  0  0  0  0  0
    6.9217   -8.9424    0.0000 O   0  0  0  0  0  0  0  0  0  0  0  0
    8.3507   -8.9424    0.0000 O   0  0  0  0  0  0  0  0  0  0  0  0
    9.7796   -6.4674    0.0000 O   0  0  0  0  0  0  0  0  0  0  0  0
    8.3507   -5.6424    0.0000 O   0  0  0  0  0  0  0  0  0  0  0  0
  1  2  1  0  0  0  0
  2  3  2  0  0  0  0
  3  4  1  0  0  0  0
  4  5  2  0  0  0  0
  5  6  1  0  0  0  0
  6  7  1  0  0  0  0
  7  8  1  0  0  0  0
  8  9  2  0  0  0  0
  9 10  1  0  0  0  0
 10 11  2  0  0  0  0
 11 12  1  0  0  0  0
  7 12  2  0  0  0  0
 12 13  1  0  0  0  0
 13 14  1  0  0  0  0
  5 14  1  0  0  0  0
  1 14  2  0  0  0  0
 13 15  2  0  0  0  0
  6 16  2  0  0  0  0
  4 17  1  0  0  0  0
  2 18  1  0  0  0  0
  1 19  1  0  0  0  0
M  END
>  <cdx:groupId>
61

>  <cdx:fragmentId>
5

$$$$
