302280.cdx
  Mrv1902 05222410242D          

 28 30  0  0  0  0            999 V2000
    4.9368   -7.3150    0.0000 C   0  0  2  0  0  0  0  0  0  0  0  0
    4.9368   -8.1400    0.0000 C   0  0  2  0  0  0  0  0  0  0  0  0
    5.6512   -8.5525    0.0000 C   0  0  1  0  0  0  0  0  0  0  0  0
    6.3657   -8.1400    0.0000 C   0  0  2  0  0  0  0  0  0  0  0  0
    6.3657   -7.3150    0.0000 C   0  0  1  0  0  0  0  0  0  0  0  0
    5.6512   -6.9025    0.0000 O   0  0  0  0  0  0  0  0  0  0  0  0
    7.0802   -6.9025    0.0000 O   0  0  0  0  0  0  0  0  0  0  0  0
    7.0802   -6.0775    0.0000 C   0  0  1  0  0  0  0  0  0  0  0  0
    7.7947   -5.6650    0.0000 C   0  0  1  0  0  0  0  0  0  0  0  0
    7.7947   -4.8400    0.0000 C   0  0  1  0  0  0  0  0  0  0  0  0
    7.0802   -4.4275    0.0000 C   0  0  0  0  0  0  0  0  0  0  0  0
    6.3657   -4.8400    0.0000 C   0  0  0  0  0  0  0  0  0  0  0  0
    6.3657   -5.6650    0.0000 O   0  0  0  0  0  0  0  0  0  0  0  0
    8.5793   -5.9199    0.0000 C   0  0  2  0  0  0  0  0  0  0  0  0
    9.0642   -5.2525    0.0000 C   0  0  0  0  0  0  0  0  0  0  0  0
    8.5793   -4.5851    0.0000 C   0  0  0  0  0  0  0  0  0  0  0  0
    9.2938   -6.3324    0.0000 O   0  0  0  0  0  0  0  0  0  0  0  0
   10.0082   -5.9199    0.0000 C   0  0  0  0  0  0  0  0  0  0  0  0
   10.0082   -5.0949    0.0000 O   0  0  0  0  0  0  0  0  0  0  0  0
   10.7227   -6.3324    0.0000 C   0  0  0  0  0  0  0  0  0  0  0  0
    4.2223   -6.9025    0.0000 C   0  0  0  0  0  0  0  0  0  0  0  0
    5.6512   -9.3775    0.0000 O   0  0  0  0  0  0  0  0  0  0  0  0
    7.8809   -4.0195    0.0000 O   0  0  0  0  0  0  0  0  0  0  0  0
    7.8809   -6.4855    0.0000 H   0  0  0  0  0  0  0  0  0  0  0  0
    4.2223   -8.5525    0.0000 O   0  0  0  0  0  0  0  0  0  0  0  0
    7.0802   -8.5525    0.0000 O   0  0  0  0  0  0  0  0  0  0  0  0
    3.5078   -7.3150    0.0000 O   0  0  0  0  0  0  0  0  0  0  0  0
    8.3658   -6.7168    0.0000 C   0  0  0  0  0  0  0  0  0  0  0  0
  1  2  1  0  0  0  0
  2  3  1  0  0  0  0
  3  4  1  0  0  0  0
  4  5  1  0  0  0  0
  5  6  1  0  0  0  0
  6  1  1  0  0  0  0
  5  7  1  1  0  0  0
  8  7  1  6  0  0  0
  8  9  1  0  0  0  0
  9 10  1  0  0  0  0
 10 11  1  0  0  0  0
 11 12  2  0  0  0  0
 12 13  1  0  0  0  0
 13  8  1  0  0  0  0
  9 14  1  0  0  0  0
 14 15  1  0  0  0  0
 15 16  1  0  0  0  0
 16 10  1  0  0  0  0
 14 17  1  6  0  0  0
 17 18  1  0  0  0  0
 18 19  2  0  0  0  0
 18 20  1  0  0  0  0
  1 21  1  1  0  0  0
  3 22  1  1  0  0  0
 10 23  1  6  0  0  0
  9 24  1  6  0  0  0
  2 25  1  6  0  0  0
  4 26  1  6  0  0  0
 21 27  1  0  0  0  0
 14 28  1  0  0  0  0
M  END
>  <cdx:fragmentId>
5

$$$$
