302282.cdx
  Mrv1902 05222410232D          

 33 37  0  0  0  0            999 V2000
    6.5756   -7.5934    0.0000 C   0  0  2  0  0  0  0  0  0  0  0  0
    7.2901   -7.1809    0.0000 C   0  0  0  0  0  0  0  0  0  0  0  0
    7.4616   -6.3739    0.0000 N   0  0  0  0  0  0  0  0  0  0  0  0
    8.2821   -6.2876    0.0000 C   0  0  0  0  0  0  0  0  0  0  0  0
    8.7670   -5.6202    0.0000 C   0  0  0  0  0  0  0  0  0  0  0  0
    9.5875   -5.7064    0.0000 C   0  0  0  0  0  0  0  0  0  0  0  0
    9.9230   -6.4601    0.0000 C   0  0  0  0  0  0  0  0  0  0  0  0
    9.4381   -7.1276    0.0000 C   0  0  0  0  0  0  0  0  0  0  0  0
    8.6176   -7.0413    0.0000 C   0  0  0  0  0  0  0  0  0  0  0  0
    8.0045   -7.5934    0.0000 C   0  0  0  0  0  0  0  0  0  0  0  0
    8.0045   -8.4184    0.0000 C   0  0  0  0  0  0  0  0  0  0  0  0
    7.2901   -8.8309    0.0000 C   0  0  0  0  0  0  0  0  0  0  0  0
    6.5756   -8.4184    0.0000 N   0  0  0  0  0  0  0  0  0  0  0  0
    5.8611   -8.8309    0.0000 C   0  0  0  0  0  0  0  0  0  0  0  0
    5.1466   -8.4184    0.0000 C   0  0  1  0  0  0  0  0  0  0  0  0
    4.4322   -8.8309    0.0000 C   0  0  1  0  0  0  0  0  0  0  0  0
    3.7177   -8.4184    0.0000 O   0  0  0  0  0  0  0  0  0  0  0  0
    3.7177   -7.5934    0.0000 C   0  0  0  0  0  0  0  0  0  0  0  0
    4.4322   -7.1809    0.0000 C   0  0  0  0  0  0  0  0  0  0  0  0
    5.1466   -7.5934    0.0000 C   0  0  1  0  0  0  0  0  0  0  0  0
    5.8611   -7.1809    0.0000 C   0  0  0  0  0  0  0  0  0  0  0  0
    4.4322   -6.3559    0.0000 C   0  0  0  0  0  0  0  0  0  0  0  0
    5.1466   -5.9434    0.0000 O   0  0  0  0  0  0  0  0  0  0  0  0
    3.7177   -5.9434    0.0000 O   0  0  0  0  0  0  0  0  0  0  0  0
    4.4322   -9.6559    0.0000 C   0  0  0  0  0  0  0  0  0  0  0  0
   10.7435   -6.5464    0.0000 O   0  0  0  0  0  0  0  0  0  0  0  0
   11.2284   -5.8789    0.0000 C   0  0  0  0  0  0  0  0  0  0  0  0
   10.0724   -5.0390    0.0000 O   0  0  0  0  0  0  0  0  0  0  0  0
   10.8929   -5.1252    0.0000 C   0  0  0  0  0  0  0  0  0  0  0  0
    6.5756   -6.7684    0.0000 H   0  0  0  0  0  0  0  0  0  0  0  0
    5.1466   -9.2434    0.0000 H   0  0  0  0  0  0  0  0  0  0  0  0
    5.1466   -6.7684    0.0000 H   0  0  0  0  0  0  0  0  0  0  0  0
    3.7177   -5.1184    0.0000 C   0  0  0  0  0  0  0  0  0  0  0  0
  1  2  1  0  0  0  0
  2  3  1  0  0  0  0
  3  4  1  0  0  0  0
  4  5  2  0  0  0  0
  5  6  1  0  0  0  0
  6  7  2  0  0  0  0
  7  8  1  0  0  0  0
  8  9  2  0  0  0  0
  9 10  1  0  0  0  0
 10 11  1  0  0  0  0
 11 12  1  0  0  0  0
 12 13  1  0  0  0  0
 13 14  1  0  0  0  0
 14 15  1  0  0  0  0
 15 16  1  0  0  0  0
 16 17  1  0  0  0  0
 17 18  1  0  0  0  0
 18 19  2  0  0  0  0
 19 20  1  0  0  0  0
 20 21  1  0  0  0  0
  1 21  1  0  0  0  0
  1 13  1  0  0  0  0
 15 20  1  0  0  0  0
  2 10  2  0  0  0  0
  4  9  1  0  0  0  0
 22 23  2  0  0  0  0
 22 24  1  0  0  0  0
 19 22  1  0  0  0  0
 16 25  1  6  0  0  0
 26 27  1  0  0  0  0
  7 26  1  0  0  0  0
 28 29  1  0  0  0  0
  6 28  1  0  0  0  0
  1 30  1  1  0  0  0
 15 31  1  6  0  0  0
 20 32  1  6  0  0  0
 24 33  1  0  0  0  0
M  END
>  <cdx:groupId>
105

>  <cdx:fragmentId>
5

$$$$
