302281.cdx
  Mrv1902 05222410242D          

 32 36  0  0  0  0            999 V2000
    9.6707   -8.5411    0.0000 C   0  0  1  0  0  0  0  0  0  0  0  0
    5.7545   -8.1323    0.0000 N   0  0  0  0  0  0  0  0  0  0  0  0
    6.2394   -7.4649    0.0000 C   0  0  0  0  0  0  0  0  0  0  0  0
    7.0599   -7.3787    0.0000 C   0  0  1  0  0  0  0  0  0  0  0  0
    7.3955   -6.6250    0.0000 N   0  0  0  0  0  0  0  0  0  0  0  0
    6.9105   -5.9575    0.0000 C   0  0  0  0  0  0  0  0  0  0  0  0
    6.0901   -6.0438    0.0000 C   0  0  0  0  0  0  0  0  0  0  0  0
    5.7545   -6.7975    0.0000 C   0  0  0  0  0  0  0  0  0  0  0  0
    4.9699   -7.0524    0.0000 C   0  0  0  0  0  0  0  0  0  0  0  0
    4.2554   -6.6399    0.0000 C   0  0  0  0  0  0  0  0  0  0  0  0
    3.5409   -7.0524    0.0000 C   0  0  0  0  0  0  0  0  0  0  0  0
    3.5409   -7.8774    0.0000 C   0  0  0  0  0  0  0  0  0  0  0  0
    4.2554   -8.2899    0.0000 C   0  0  0  0  0  0  0  0  0  0  0  0
    4.9699   -7.8774    0.0000 C   0  0  0  0  0  0  0  0  0  0  0  0
    8.2160   -6.5388    0.0000 C   0  0  0  0  0  0  0  0  0  0  0  0
    8.7009   -7.2062    0.0000 C   0  0  2  0  0  0  0  0  0  0  0  0
    9.5214   -7.1200    0.0000 C   0  0  1  0  0  0  0  0  0  0  0  0
   10.0063   -7.7874    0.0000 C   0  0  1  0  0  0  0  0  0  0  0  0
    8.8502   -8.6273    0.0000 C   0  0  0  0  0  0  0  0  0  0  0  0
    8.3653   -7.9599    0.0000 C   0  0  2  0  0  0  0  0  0  0  0  0
    7.5448   -8.0461    0.0000 C   0  0  0  0  0  0  0  0  0  0  0  0
    9.8569   -6.3663    0.0000 C   0  0  0  0  0  0  0  0  0  0  0  0
    9.3720   -5.6988    0.0000 O   0  0  0  0  0  0  0  0  0  0  0  0
   10.6774   -6.2800    0.0000 O   0  0  0  0  0  0  0  0  0  0  0  0
    9.0364   -6.4525    0.0000 H   0  0  0  0  0  0  0  0  0  0  0  0
    8.0298   -8.7135    0.0000 H   0  0  0  0  0  0  0  0  0  0  0  0
    6.7244   -8.1323    0.0000 H   0  0  0  0  0  0  0  0  0  0  0  0
   10.8268   -7.7012    0.0000 O   0  0  0  0  0  0  0  0  0  0  0  0
   11.3117   -8.3686    0.0000 C   0  0  0  0  0  0  0  0  0  0  0  0
   10.1556   -9.2085    0.0000 O   0  0  0  0  0  0  0  0  0  0  0  0
    2.8265   -8.2899    0.0000 O   0  0  0  0  0  0  0  0  0  0  0  0
    2.8265   -9.1149    0.0000 C   0  0  0  0  0  0  0  0  0  0  0  0
  2  3  1  0  0  0  0
  3  4  1  0  0  0  0
  4  5  1  0  0  0  0
  5  6  1  0  0  0  0
  6  7  1  0  0  0  0
  7  8  1  0  0  0  0
  3  8  2  0  0  0  0
  8  9  1  0  0  0  0
  9 10  1  0  0  0  0
 10 11  2  0  0  0  0
 11 12  1  0  0  0  0
 12 13  2  0  0  0  0
 13 14  1  0  0  0  0
  9 14  2  0  0  0  0
  2 14  1  0  0  0  0
  5 15  1  0  0  0  0
 15 16  1  0  0  0  0
 16 17  1  0  0  0  0
 17 18  1  0  0  0  0
  1 18  1  0  0  0  0
  1 19  1  0  0  0  0
 19 20  1  0  0  0  0
 16 20  1  0  0  0  0
 20 21  1  0  0  0  0
  4 21  1  0  0  0  0
 22 23  2  0  0  0  0
 22 24  1  0  0  0  0
 17 22  1  6  0  0  0
 16 25  1  1  0  0  0
 20 26  1  1  0  0  0
  4 27  1  6  0  0  0
 28 29  1  0  0  0  0
 18 28  1  1  0  0  0
  1 30  1  6  0  0  0
 12 31  1  0  0  0  0
 31 32  1  0  0  0  0
M  END
>  <cdx:groupId>
215

>  <cdx:fragmentId>
120

$$$$
