302236.cdx
  Mrv1902 05222410262D          

  6  6  0  0  0  0            999 V2000
    8.1392   -7.6972    0.0000 C   0  0  0  0  0  0  0  0  0  0  0  0
    7.4247   -8.1097    0.0000 C   0  0  0  0  0  0  0  0  0  0  0  0
    8.1392   -6.8722    0.0000 N   0  0  0  0  0  0  0  0  0  0  0  0
    6.7102   -7.6972    0.0000 N   0  0  0  0  0  0  0  0  0  0  0  0
    6.7102   -6.8722    0.0000 C   0  0  0  0  0  0  0  0  0  0  0  0
    7.4247   -6.4597    0.0000 C   0  0  0  0  0  0  0  0  0  0  0  0
  1  2  1  0  0  0  0
  1  3  2  0  0  0  0
  2  4  2  0  0  0  0
  4  5  1  0  0  0  0
  5  6  2  0  0  0  0
  3  6  1  0  0  0  0
M  END
>  <cdx:groupId>
20

>  <cdx:fragmentId>
5

$$$$
