302255.cdx
  Mrv1902 05222410232D          

 34 37  0  0  0  0            999 V2000
    9.9256   -7.4987    0.0000 O   0  0  0  0  0  0  0  0  0  0  0  0
   10.6401   -7.0862    0.0000 C   0  0  1  0  0  0  0  0  0  0  0  0
   11.3546   -7.4987    0.0000 C   0  0  2  0  0  0  0  0  0  0  0  0
   11.3546   -8.3237    0.0000 C   0  0  1  0  0  0  0  0  0  0  0  0
   10.6401   -8.7362    0.0000 C   0  0  2  0  0  0  0  0  0  0  0  0
    9.9256   -8.3237    0.0000 C   0  0  2  0  0  0  0  0  0  0  0  0
   10.6401   -6.2612    0.0000 C   0  0  0  0  0  0  0  0  0  0  0  0
    9.9256   -5.8487    0.0000 O   0  0  0  0  0  0  0  0  0  0  0  0
   11.3546   -5.8487    0.0000 O   0  0  0  0  0  0  0  0  0  0  0  0
    9.2112   -8.7362    0.0000 O   0  0  0  0  0  0  0  0  0  0  0  0
    8.4967   -8.3237    0.0000 C   0  0  0  0  0  0  0  0  0  0  0  0
    8.4967   -7.4987    0.0000 C   0  0  0  0  0  0  0  0  0  0  0  0
    7.7822   -7.0862    0.0000 C   0  0  0  0  0  0  0  0  0  0  0  0
    7.0678   -7.4987    0.0000 C   0  0  0  0  0  0  0  0  0  0  0  0
    7.0678   -8.3237    0.0000 C   0  0  0  0  0  0  0  0  0  0  0  0
    7.7822   -8.7362    0.0000 C   0  0  0  0  0  0  0  0  0  0  0  0
    6.3533   -7.0862    0.0000 C   0  0  0  0  0  0  0  0  0  0  0  0
    6.3533   -6.2612    0.0000 C   0  0  0  0  0  0  0  0  0  0  0  0
    5.6388   -5.8487    0.0000 C   0  0  0  0  0  0  0  0  0  0  0  0
    4.9244   -6.2612    0.0000 C   0  0  0  0  0  0  0  0  0  0  0  0
    4.2099   -5.8487    0.0000 C   0  0  0  0  0  0  0  0  0  0  0  0
    3.4954   -6.2612    0.0000 C   0  0  0  0  0  0  0  0  0  0  0  0
    3.4954   -7.0862    0.0000 C   0  0  0  0  0  0  0  0  0  0  0  0
    4.2099   -7.4987    0.0000 C   0  0  0  0  0  0  0  0  0  0  0  0
    4.9244   -7.0862    0.0000 C   0  0  0  0  0  0  0  0  0  0  0  0
    5.6388   -7.4987    0.0000 O   0  0  0  0  0  0  0  0  0  0  0  0
    5.6388   -5.0237    0.0000 O   0  0  0  0  0  0  0  0  0  0  0  0
    2.7809   -7.4987    0.0000 O   0  0  0  0  0  0  0  0  0  0  0  0
    4.2099   -5.0237    0.0000 O   0  0  0  0  0  0  0  0  0  0  0  0
    7.0678   -5.8487    0.0000 O   0  0  0  0  0  0  0  0  0  0  0  0
    9.2112   -7.0862    0.0000 O   0  0  0  0  0  0  0  0  0  0  0  0
   10.6401   -9.5612    0.0000 O   0  0  0  0  0  0  0  0  0  0  0  0
   12.0691   -8.7362    0.0000 O   0  0  0  0  0  0  0  0  0  0  0  0
   12.0691   -7.0862    0.0000 O   0  0  0  0  0  0  0  0  0  0  0  0
  1  2  1  0  0  0  0
  2  3  1  0  0  0  0
  3  4  1  0  0  0  0
  4  5  1  0  0  0  0
  5  6  1  0  0  0  0
  1  6  1  0  0  0  0
  7  8  2  0  0  0  0
  7  9  1  0  0  0  0
  2  7  1  6  0  0  0
 11 12  1  0  0  0  0
 12 13  2  0  0  0  0
 13 14  1  0  0  0  0
 14 15  2  0  0  0  0
 15 16  1  0  0  0  0
 11 16  2  0  0  0  0
 10 11  1  0  0  0  0
 17 18  2  0  0  0  0
 18 19  1  0  0  0  0
 19 20  1  0  0  0  0
 20 21  1  0  0  0  0
 21 22  2  0  0  0  0
 22 23  1  0  0  0  0
 23 24  2  0  0  0  0
 24 25  1  0  0  0  0
 20 25  2  0  0  0  0
 25 26  1  0  0  0  0
 17 26  1  0  0  0  0
 19 27  2  0  0  0  0
 23 28  1  0  0  0  0
 21 29  1  0  0  0  0
 18 30  1  0  0  0  0
 14 17  1  0  0  0  0
 12 31  1  0  0  0  0
  6 10  1  6  0  0  0
  5 32  1  1  0  0  0
  4 33  1  6  0  0  0
  3 34  1  1  0  0  0
M  END
>  <cdx:groupId>
107

>  <cdx:fragmentId>
37

$$$$
