30222.cdx
  Mrv1902 05222410202D          

 11 11  0  0  0  0            999 V2000
    8.4131   -8.2351    0.0000 C   0  0  0  0  0  0  0  0  0  0  0  0
    8.4131   -9.0601    0.0000 C   0  0  0  0  0  0  0  0  0  0  0  0
    9.1275   -9.4726    0.0000 C   0  0  0  0  0  0  0  0  0  0  0  0
    9.8420   -9.0601    0.0000 C   0  0  0  0  0  0  0  0  0  0  0  0
    9.8420   -8.2351    0.0000 C   0  0  0  0  0  0  0  0  0  0  0  0
    9.1275   -7.8226    0.0000 C   0  0  0  0  0  0  0  0  0  0  0  0
    7.6986   -7.8226    0.0000 C   0  0  0  0  0  0  0  0  0  0  0  0
    9.1275  -10.2976    0.0000 O   0  0  0  0  0  0  0  0  0  0  0  0
    9.8420  -10.7101    0.0000 C   0  0  0  0  0  0  0  0  0  0  0  0
    9.1275   -6.9976    0.0000 O   0  0  0  0  0  0  0  0  0  0  0  0
    9.8420   -6.5851    0.0000 C   0  0  0  0  0  0  0  0  0  0  0  0
  1  2  2  0  0  0  0
  2  3  1  0  0  0  0
  3  4  2  0  0  0  0
  4  5  1  0  0  0  0
  5  6  2  0  0  0  0
  6  1  1  0  0  0  0
  1  7  1  0  0  0  0
  3  8  1  0  0  0  0
  8  9  1  0  0  0  0
  6 10  1  0  0  0  0
 10 11  1  0  0  0  0
M  END
>  <cdx:fragmentId>
5

$$$$
