302205.cdx
  Mrv1902 05222410192D          

 21 24  0  0  0  0            999 V2000
    7.6491   -8.2689    0.0000 C   0  0  0  0  0  0  0  0  0  0  0  0
    7.6491   -7.4439    0.0000 C   0  0  0  0  0  0  0  0  0  0  0  0
    6.9347   -7.0314    0.0000 C   0  0  0  0  0  0  0  0  0  0  0  0
    6.2202   -7.4439    0.0000 C   0  0  0  0  0  0  0  0  0  0  0  0
    5.5057   -7.0314    0.0000 C   0  0  0  0  0  0  0  0  0  0  0  0
    4.7912   -7.4439    0.0000 C   0  0  0  0  0  0  0  0  0  0  0  0
    4.7912   -8.2689    0.0000 C   0  0  0  0  0  0  0  0  0  0  0  0
    5.5057   -8.6814    0.0000 C   0  0  0  0  0  0  0  0  0  0  0  0
    6.2202   -8.2689    0.0000 C   0  0  0  0  0  0  0  0  0  0  0  0
    6.9347   -8.6814    0.0000 O   0  0  0  0  0  0  0  0  0  0  0  0
    6.9347   -6.2064    0.0000 O   0  0  0  0  0  0  0  0  0  0  0  0
    4.0768   -8.6814    0.0000 O   0  0  0  0  0  0  0  0  0  0  0  0
   10.5772   -5.9515    0.0000 O   0  0  0  0  0  0  0  0  0  0  0  0
   11.0621   -6.6189    0.0000 C   0  0  0  0  0  0  0  0  0  0  0  0
   10.5772   -7.2864    0.0000 O   0  0  0  0  0  0  0  0  0  0  0  0
    9.7925   -7.0314    0.0000 C   0  0  0  0  0  0  0  0  0  0  0  0
    9.7925   -6.2064    0.0000 C   0  0  0  0  0  0  0  0  0  0  0  0
    9.0781   -7.4439    0.0000 C   0  0  0  0  0  0  0  0  0  0  0  0
    8.3636   -7.0314    0.0000 C   0  0  0  0  0  0  0  0  0  0  0  0
    8.3636   -6.2064    0.0000 C   0  0  0  0  0  0  0  0  0  0  0  0
    9.0781   -5.7939    0.0000 C   0  0  0  0  0  0  0  0  0  0  0  0
  1  2  2  0  0  0  0
  2  3  1  0  0  0  0
  3  4  1  0  0  0  0
  4  5  1  0  0  0  0
  5  6  2  0  0  0  0
  6  7  1  0  0  0  0
  7  8  2  0  0  0  0
  8  9  1  0  0  0  0
  4  9  2  0  0  0  0
  9 10  1  0  0  0  0
  1 10  1  0  0  0  0
  3 11  2  0  0  0  0
  7 12  1  0  0  0  0
 13 14  1  0  0  0  0
 14 15  1  0  0  0  0
 15 16  1  0  0  0  0
 16 17  1  0  0  0  0
 13 17  1  0  0  0  0
 18 19  1  0  0  0  0
 19 20  2  0  0  0  0
 20 21  1  0  0  0  0
 21 17  2  0  0  0  0
 18 16  2  0  0  0  0
  2 19  1  0  0  0  0
M  END
>  <cdx:groupId>
68

>  <cdx:fragmentId>
5

$$$$
