302221.cdx
  Mrv1902 05222410262D          

 34 37  0  0  0  0            999 V2000
    7.3866   -6.0141    0.0000 C   0  0  0  0  0  0  0  0  0  0  0  0
    8.0540   -5.5291    0.0000 C   0  0  2  0  0  0  0  0  0  0  0  0
    8.8077   -5.8647    0.0000 C   0  0  0  0  0  0  0  0  0  0  0  0
    7.4728   -6.8345    0.0000 O   0  0  0  0  0  0  0  0  0  0  0  0
    6.6329   -5.6785    0.0000 N   0  0  0  0  0  0  0  0  0  0  0  0
    9.4751   -5.3798    0.0000 C   0  0  0  0  0  0  0  0  0  0  0  0
    9.3889   -4.5593    0.0000 C   0  0  0  0  0  0  0  0  0  0  0  0
   10.0563   -4.0744    0.0000 C   0  0  0  0  0  0  0  0  0  0  0  0
   10.8100   -4.4099    0.0000 C   0  0  0  0  0  0  0  0  0  0  0  0
   10.8962   -5.2304    0.0000 C   0  0  0  0  0  0  0  0  0  0  0  0
   10.2288   -5.7153    0.0000 C   0  0  0  0  0  0  0  0  0  0  0  0
   11.4774   -3.9250    0.0000 O   0  0  0  0  0  0  0  0  0  0  0  0
   12.2311   -4.2606    0.0000 C   0  0  0  0  0  0  0  0  0  0  0  0
    4.6959   -6.5759    0.0000 O   0  0  0  0  0  0  0  0  0  0  0  0
    5.1808   -5.9085    0.0000 C   0  0  1  0  0  0  0  0  0  0  0  0
    5.9654   -6.1634    0.0000 C   0  0  2  0  0  0  0  0  0  0  0  0
    5.9654   -6.9884    0.0000 C   0  0  2  0  0  0  0  0  0  0  0  0
    5.1808   -7.2434    0.0000 C   0  0  2  0  0  0  0  0  0  0  0  0
    4.9259   -5.1239    0.0000 C   0  0  0  0  0  0  0  0  0  0  0  0
    4.1189   -4.9523    0.0000 O   0  0  0  0  0  0  0  0  0  0  0  0
    6.6329   -7.4734    0.0000 O   0  0  0  0  0  0  0  0  0  0  0  0
    4.9259   -9.3629    0.0000 N   0  0  0  0  0  0  0  0  0  0  0  0
    5.4108   -8.6954    0.0000 C   0  0  0  0  0  0  0  0  0  0  0  0
    4.9259   -8.0280    0.0000 N   0  0  0  0  0  0  0  0  0  0  0  0
    4.1413   -8.2829    0.0000 C   0  0  0  0  0  0  0  0  0  0  0  0
    3.4268   -7.8704    0.0000 N   0  0  0  0  0  0  0  0  0  0  0  0
    2.7123   -8.2829    0.0000 C   0  0  0  0  0  0  0  0  0  0  0  0
    2.7123   -9.1079    0.0000 N   0  0  0  0  0  0  0  0  0  0  0  0
    3.4268   -9.5204    0.0000 C   0  0  0  0  0  0  0  0  0  0  0  0
    4.1413   -9.1079    0.0000 C   0  0  0  0  0  0  0  0  0  0  0  0
    3.4268  -10.3454    0.0000 N   0  0  0  0  0  0  0  0  0  0  0  0
    4.1413  -10.7579    0.0000 C   0  0  0  0  0  0  0  0  0  0  0  0
    2.7123  -10.7579    0.0000 C   0  0  0  0  0  0  0  0  0  0  0  0
    7.9678   -4.7087    0.0000 N   0  0  0  0  0  0  0  0  0  0  0  0
  1  2  1  0  0  0  0
  2  3  1  0  0  0  0
  1  4  2  0  0  0  0
  1  5  1  0  0  0  0
  6  7  1  0  0  0  0
  7  8  2  0  0  0  0
  8  9  1  0  0  0  0
  9 10  2  0  0  0  0
 10 11  1  0  0  0  0
  6 11  2  0  0  0  0
 12 13  1  0  0  0  0
  9 12  1  0  0  0  0
  3  6  1  0  0  0  0
 14 15  1  0  0  0  0
 15 16  1  0  0  0  0
 16 17  1  0  0  0  0
 17 18  1  0  0  0  0
 14 18  1  0  0  0  0
 19 20  1  0  0  0  0
 15 19  1  6  0  0  0
 17 21  1  1  0  0  0
 22 23  2  0  0  0  0
 23 24  1  0  0  0  0
 24 25  1  0  0  0  0
 25 26  2  0  0  0  0
 26 27  1  0  0  0  0
 27 28  2  0  0  0  0
 28 29  1  0  0  0  0
 29 30  2  0  0  0  0
 22 30  1  0  0  0  0
 25 30  1  0  0  0  0
 31 32  1  0  0  0  0
 31 33  1  0  0  0  0
 29 31  1  0  0  0  0
 18 24  1  6  0  0  0
 16  5  1  1  0  0  0
  2 34  1  1  0  0  0
M  END
>  <cdx:groupId>
107

>  <cdx:fragmentId>
47

$$$$
