302219.cdx
  Mrv1902 05222410272D          

 38 42  0  0  0  0            999 V2000
    6.0276   -8.3793    0.0000 H   0  0  0  0  0  0  0  0  0  0  0  0
    7.9192   -7.9772    0.0000 H   0  0  0  0  0  0  0  0  0  0  0  0
    7.3212   -8.5455    0.0000 H   0  0  0  0  0  0  0  0  0  0  0  0
    5.3688   -9.6352    0.0000 H   0  0  0  0  0  0  0  0  0  0  0  0
    3.2151   -9.2805    0.0000 O   0  0  0  0  0  0  0  0  0  0  0  0
    9.5397   -6.7880    0.0000 O   0  0  0  0  0  0  0  0  0  0  0  0
    9.6125   -3.9310    0.0000 C   0  0  0  0  0  0  0  0  0  0  0  0
   12.0503   -5.4226    0.0000 C   0  0  0  0  0  0  0  0  0  0  0  0
   10.8314   -4.6768    0.0000 C   0  0  0  0  0  0  0  0  0  0  0  0
   11.2256   -5.4015    0.0000 C   0  0  1  0  0  0  0  0  0  0  0  0
   10.7950   -6.1053    0.0000 C   0  0  0  0  0  0  0  0  0  0  0  0
    9.9703   -6.0842    0.0000 C   0  0  2  0  0  0  0  0  0  0  0  0
    9.5761   -5.3595    0.0000 C   0  0  2  0  0  0  0  0  0  0  0  0
   10.0067   -4.6558    0.0000 N   0  0  0  0  0  0  0  0  0  0  0  0
    8.3957   -4.5941    0.0000 C   0  0  0  0  0  0  0  0  0  0  0  0
    8.7514   -5.3385    0.0000 C   0  0  2  0  0  0  0  0  0  0  0  0
    7.1064   -5.2101    0.0000 C   0  0  0  0  0  0  0  0  0  0  0  0
    5.3245   -7.1608    0.0000 C   0  0  0  0  0  0  0  0  0  0  0  0
    6.0941  -10.0284    0.0000 O   0  0  0  0  0  0  0  0  0  0  0  0
    4.5992   -7.5927    0.0000 C   0  0  0  0  0  0  0  0  0  0  0  0
    3.8960   -8.0242    0.0000 C   0  0  0  0  0  0  0  0  0  0  0  0
    3.9182   -8.8489    0.0000 C   0  0  1  0  0  0  0  0  0  0  0  0
    4.6435   -9.2421    0.0000 C   0  0  0  0  0  0  0  0  0  0  0  0
    6.9952   -6.6348    0.0000 C   0  0  0  0  0  0  0  0  0  0  0  0
    7.4621   -5.9545    0.0000 C   0  0  0  0  0  0  0  0  0  0  0  0
    8.2846   -6.0187    0.0000 C   0  0  2  0  0  0  0  0  0  0  0  0
    8.6402   -6.7631    0.0000 C   0  0  0  0  0  0  0  0  0  0  0  0
    8.1734   -7.4433    0.0000 C   0  0  0  0  0  0  0  0  0  0  0  0
    7.3509   -7.3791    0.0000 C   0  0  1  0  0  0  0  0  0  0  0  0
    6.7529   -7.9474    0.0000 C   0  0  2  0  0  0  0  0  0  0  0  0
    6.7751   -8.7721    0.0000 C   0  0  0  0  0  0  0  0  0  0  0  0
    6.0719   -9.2037    0.0000 C   0  0  0  0  0  0  0  0  0  0  0  0
    5.3466   -8.8105    0.0000 C   0  0  2  0  0  0  0  0  0  0  0  0
    5.3245   -7.9858    0.0000 C   0  0  2  0  0  0  0  0  0  0  0  0
    6.0276   -7.5543    0.0000 C   0  0  1  0  0  0  0  0  0  0  0  0
    6.1774   -6.7430    0.0000 C   0  0  0  0  0  0  0  0  0  0  0  0
    9.1071   -6.0828    0.0000 H   0  0  0  0  0  0  0  0  0  0  0  0
   10.4008   -5.3805    0.0000 H   0  0  0  0  0  0  0  0  0  0  0  0
 35  1  1  6  0  0  0
 29  2  1  6  0  0  0
 30  3  1  1  0  0  0
 33  4  1  6  0  0  0
 22  5  1  1  0  0  0
 26 16  1  0  0  0  0
 16 13  1  0  0  0  0
 12  6  1  1  0  0  0
 14  7  1  0  0  0  0
 10  8  1  6  0  0  0
 14  9  1  0  0  0  0
 10  9  1  0  0  0  0
 11 10  1  0  0  0  0
 12 11  1  0  0  0  0
 13 12  1  0  0  0  0
 13 14  1  0  0  0  0
 16 15  1  1  0  0  0
 25 17  1  0  0  0  0
 34 18  1  1  0  0  0
 32 19  2  0  0  0  0
 23 33  1  0  0  0  0
 20 34  1  0  0  0  0
 21 20  1  0  0  0  0
 22 21  1  0  0  0  0
 23 22  1  0  0  0  0
 36 24  1  0  0  0  0
 29 24  1  0  0  0  0
 25 24  2  0  0  0  0
 26 25  1  0  0  0  0
 26 27  1  0  0  0  0
 28 27  1  0  0  0  0
 29 28  1  0  0  0  0
 30 29  1  0  0  0  0
 35 30  1  0  0  0  0
 31 30  1  0  0  0  0
 32 31  1  0  0  0  0
 33 32  1  0  0  0  0
 34 33  1  0  0  0  0
 35 34  1  0  0  0  0
 36 35  1  0  0  0  0
 26 37  1  6  0  0  0
 13 38  1  6  0  0  0
M  END
>  <cdx:groupId>
114

>  <cdx:fragmentId>
5

$$$$
