302201.cdx
  Mrv1902 05222410192D          

 43 49  0  0  0  0            999 V2000
    5.9104  -10.1559    0.0000 H   0  0  0  0  0  0  0  0  0  0  0  0
    7.9125   -9.0641    0.0000 H   0  0  0  0  0  0  0  0  0  0  0  0
    9.7031   -6.6616    0.0000 H   0  0  0  0  0  0  0  0  0  0  0  0
    9.8361   -5.2389    0.0000 H   0  0  0  0  0  0  0  0  0  0  0  0
    7.2633   -6.2944    0.0000 H   0  0  0  0  0  0  0  0  0  0  0  0
    6.9908   -6.6064    0.0000 H   0  0  0  0  0  0  0  0  0  0  0  0
    7.9823   -2.9127    0.0000 C   0  0  0  0  0  0  0  0  0  0  0  0
   10.1087   -5.5677    0.0000 C   0  0  0  0  0  0  0  0  0  0  0  0
    6.6107   -8.9103    0.0000 C   0  0  0  0  0  0  0  0  0  0  0  0
    5.2007  -10.5766    0.0000 O   0  0  0  0  0  0  0  0  0  0  0  0
    3.7624   -9.7680    0.0000 O   0  0  0  0  0  0  0  0  0  0  0  0
    6.6296  -10.5602    0.0000 O   0  0  0  0  0  0  0  0  0  0  0  0
    8.0490   -9.7189    0.0000 O   0  0  0  0  0  0  0  0  0  0  0  0
    8.1527   -8.7242    0.0000 O   0  0  0  0  0  0  0  0  0  0  0  0
    9.0927   -8.7573    0.0000 O   0  0  0  0  0  0  0  0  0  0  0  0
   10.0472   -7.4114    0.0000 O   0  0  0  0  0  0  0  0  0  0  0  0
   10.0318   -6.3891    0.0000 O   0  0  0  0  0  0  0  0  0  0  0  0
    6.7635   -7.2765    0.0000 C   0  0  0  0  0  0  0  0  0  0  0  0
    6.6013   -8.0854    0.0000 C   0  0  2  0  0  0  0  0  0  0  0  0
    5.3820   -8.4828    0.0000 O   0  0  0  0  0  0  0  0  0  0  0  0
    5.1913   -9.7516    0.0000 C   0  0  1  0  0  0  0  0  0  0  0  0
    4.4721   -9.3473    0.0000 C   0  0  2  0  0  0  0  0  0  0  0  0
    4.4627   -8.5224    0.0000 C   0  0  0  0  0  0  0  0  0  0  0  0
    5.1724   -8.1017    0.0000 C   0  0  0  0  0  0  0  0  0  0  0  0
    5.8915   -8.5060    0.0000 C   0  0  2  0  0  0  0  0  0  0  0  0
    5.9010   -9.3310    0.0000 C   0  0  2  0  0  0  0  0  0  0  0  0
    6.6201   -9.7353    0.0000 C   0  0  2  0  0  0  0  0  0  0  0  0
    7.3298   -9.3146    0.0000 C   0  0  2  0  0  0  0  0  0  0  0  0
    7.3204   -8.4897    0.0000 C   0  0  1  0  0  0  0  0  0  0  0  0
    7.9271   -7.9307    0.0000 C   0  0  1  0  0  0  0  0  0  0  0  0
    8.7485   -8.0075    0.0000 C   0  0  2  0  0  0  0  0  0  0  0  0
    9.2258   -7.3346    0.0000 C   0  0  1  0  0  0  0  0  0  0  0  0
    8.8816   -6.5848    0.0000 C   0  0  2  0  0  0  0  0  0  0  0  0
    9.3589   -5.9118    0.0000 C   0  0  2  0  0  0  0  0  0  0  0  0
    9.0147   -5.1621    0.0000 C   0  0  2  0  0  0  0  0  0  0  0  0
    9.4920   -4.4891    0.0000 C   0  0  0  0  0  0  0  0  0  0  0  0
    9.1478   -3.7393    0.0000 C   0  0  0  0  0  0  0  0  0  0  0  0
    8.3264   -3.6625    0.0000 C   0  0  1  0  0  0  0  0  0  0  0  0
    7.8492   -4.3354    0.0000 C   0  0  0  0  0  0  0  0  0  0  0  0
    8.1933   -5.0852    0.0000 N   0  0  0  0  0  0  0  0  0  0  0  0
    7.7161   -5.7582    0.0000 C   0  0  0  0  0  0  0  0  0  0  0  0
    8.0602   -6.5079    0.0000 C   0  0  1  0  0  0  0  0  0  0  0  0
    7.5830   -7.1809    0.0000 C   0  0  2  0  0  0  0  0  0  0  0  0
 26  1  1  1  0  0  0
 29  2  1  1  0  0  0
 33  3  1  6  0  0  0
 35  4  1  6  0  0  0
 42  5  1  1  0  0  0
 43  6  1  6  0  0  0
 38  7  1  1  0  0  0
 34  8  1  6  0  0  0
 25  9  1  1  0  0  0
 21 10  1  6  0  0  0
 22 11  1  1  0  0  0
 27 12  1  6  0  0  0
 28 13  1  6  0  0  0
 30 14  1  6  0  0  0
 31 15  1  6  0  0  0
 32 16  1  1  0  0  0
 34 17  1  1  0  0  0
 40 35  1  0  0  0  0
 42 33  1  0  0  0  0
 26 21  1  0  0  0  0
 29 19  1  0  0  0  0
 25 19  1  0  0  0  0
 43 30  1  0  0  0  0
 43 18  1  0  0  0  0
 19 18  1  1  0  0  0
 19 20  1  0  0  0  0
 21 20  1  0  0  0  0
 22 21  1  0  0  0  0
 23 22  1  0  0  0  0
 24 23  1  0  0  0  0
 25 24  1  0  0  0  0
 26 25  1  0  0  0  0
 27 26  1  0  0  0  0
 28 27  1  0  0  0  0
 29 28  1  0  0  0  0
 30 29  1  0  0  0  0
 31 30  1  0  0  0  0
 32 31  1  0  0  0  0
 33 32  1  0  0  0  0
 34 33  1  0  0  0  0
 35 34  1  0  0  0  0
 36 35  1  0  0  0  0
 37 36  1  0  0  0  0
 38 37  1  0  0  0  0
 39 38  1  0  0  0  0
 40 39  1  0  0  0  0
 41 40  1  0  0  0  0
 42 41  1  0  0  0  0
 43 42  1  0  0  0  0
M  END
>  <cdx:fragmentId>
5

$$$$
