30229.cdx
  Mrv1902 05222410242D          

 21 23  0  0  0  0            999 V2000
    5.1681   -6.2276    0.0000 C   0  0  0  0  0  0  0  0  0  0  0  0
    5.1681   -7.0526    0.0000 C   0  0  0  0  0  0  0  0  0  0  0  0
    5.8825   -7.4651    0.0000 C   0  0  0  0  0  0  0  0  0  0  0  0
    6.5970   -7.0526    0.0000 C   0  0  0  0  0  0  0  0  0  0  0  0
    6.5970   -6.2276    0.0000 C   0  0  0  0  0  0  0  0  0  0  0  0
    5.8825   -5.8151    0.0000 C   0  0  0  0  0  0  0  0  0  0  0  0
    7.3115   -7.4651    0.0000 O   0  0  0  0  0  0  0  0  0  0  0  0
    8.0259   -7.0526    0.0000 C   0  0  0  0  0  0  0  0  0  0  0  0
    8.0259   -6.2276    0.0000 C   0  0  0  0  0  0  0  0  0  0  0  0
    7.3115   -5.8151    0.0000 C   0  0  0  0  0  0  0  0  0  0  0  0
    8.7404   -7.4651    0.0000 C   0  0  0  0  0  0  0  0  0  0  0  0
    9.4549   -7.0526    0.0000 C   0  0  0  0  0  0  0  0  0  0  0  0
    9.4549   -6.2276    0.0000 C   0  0  0  0  0  0  0  0  0  0  0  0
    8.7404   -5.8151    0.0000 C   0  0  0  0  0  0  0  0  0  0  0  0
    4.4536   -7.4651    0.0000 O   0  0  0  0  0  0  0  0  0  0  0  0
    4.4536   -5.8151    0.0000 O   0  0  0  0  0  0  0  0  0  0  0  0
    4.4536   -4.9901    0.0000 C   0  0  0  0  0  0  0  0  0  0  0  0
    7.3115   -4.9901    0.0000 O   0  0  0  0  0  0  0  0  0  0  0  0
    8.7404   -4.9901    0.0000 O   0  0  0  0  0  0  0  0  0  0  0  0
   10.1694   -7.4651    0.0000 O   0  0  0  0  0  0  0  0  0  0  0  0
   10.8838   -7.0526    0.0000 C   0  0  0  0  0  0  0  0  0  0  0  0
  1  2  2  0  0  0  0
  2  3  1  0  0  0  0
  3  4  2  0  0  0  0
  4  5  1  0  0  0  0
  5  6  2  0  0  0  0
  6  1  1  0  0  0  0
  4  7  1  0  0  0  0
  7  8  1  0  0  0  0
  8  9  2  0  0  0  0
  9 10  1  0  0  0  0
 10  5  1  0  0  0  0
  8 11  1  0  0  0  0
 11 12  2  0  0  0  0
 12 13  1  0  0  0  0
 13 14  2  0  0  0  0
 14  9  1  0  0  0  0
  2 15  1  0  0  0  0
  1 16  1  0  0  0  0
 16 17  1  0  0  0  0
 10 18  2  0  0  0  0
 14 19  1  0  0  0  0
 12 20  1  0  0  0  0
 20 21  1  0  0  0  0
M  END
>  <cdx:fragmentId>
5

$$$$
