302260.cdx
  Mrv1902 05222410202D          

 38 42  0  0  0  0            999 V2000
    7.6844   -6.4368    0.0000 C   0  0  0  0  0  0  0  0  0  0  0  0
    6.9862   -7.6705    0.0000 H   0  0  0  0  0  0  0  0  0  0  0  0
    9.1258   -4.7940    0.0000 C   0  0  1  0  0  0  0  0  0  0  0  0
    9.8424   -4.3852    0.0000 C   0  0  1  0  0  0  0  0  0  0  0  0
   10.5548   -4.8013    0.0000 C   0  0  0  0  0  0  0  0  0  0  0  0
   10.5506   -5.6263    0.0000 C   0  0  0  0  0  0  0  0  0  0  0  0
    9.8340   -6.0351    0.0000 C   0  0  2  0  0  0  0  0  0  0  0  0
    9.8299   -6.8601    0.0000 C   0  0  0  0  0  0  0  0  0  0  0  0
    9.1133   -7.2690    0.0000 C   0  0  0  0  0  0  0  0  0  0  0  0
    8.4009   -6.8529    0.0000 C   0  0  1  0  0  0  0  0  0  0  0  0
    7.6844   -7.2618    0.0000 C   0  0  1  0  0  0  0  0  0  0  0  0
    7.6802   -8.0868    0.0000 C   0  0  0  0  0  0  0  0  0  0  0  0
    6.9637   -8.4956    0.0000 C   0  0  0  0  0  0  0  0  0  0  0  0
    6.2513   -8.0795    0.0000 C   0  0  1  0  0  0  0  0  0  0  0  0
    5.5347   -8.4884    0.0000 C   0  0  0  0  0  0  0  0  0  0  0  0
    4.8224   -8.0723    0.0000 C   0  0  2  0  0  0  0  0  0  0  0  0
    4.8265   -7.2473    0.0000 C   0  0  0  0  0  0  0  0  0  0  0  0
    5.5431   -6.8384    0.0000 C   0  0  0  0  0  0  0  0  0  0  0  0
    6.2555   -7.2545    0.0000 C   0  0  2  0  0  0  0  0  0  0  0  0
    6.9720   -6.8457    0.0000 C   0  0  1  0  0  0  0  0  0  0  0  0
    6.9762   -6.0207    0.0000 C   0  0  0  0  0  0  0  0  0  0  0  0
    7.6927   -5.6118    0.0000 C   0  0  0  0  0  0  0  0  0  0  0  0
    8.4051   -6.0279    0.0000 C   0  0  0  0  0  0  0  0  0  0  0  0
    9.1217   -5.6190    0.0000 C   0  0  2  0  0  0  0  0  0  0  0  0
   10.5464   -6.4512    0.0000 C   0  0  0  0  0  0  0  0  0  0  0  0
   10.5422   -7.2762    0.0000 O   0  0  0  0  0  0  0  0  0  0  0  0
   11.2630   -6.0424    0.0000 O   0  0  0  0  0  0  0  0  0  0  0  0
    6.2596   -6.4296    0.0000 C   0  0  0  0  0  0  0  0  0  0  0  0
    5.9436   -9.2050    0.0000 C   0  0  0  0  0  0  0  0  0  0  0  0
    5.1186   -9.2008    0.0000 C   0  0  0  0  0  0  0  0  0  0  0  0
    9.8466   -3.5602    0.0000 C   0  0  0  0  0  0  0  0  0  0  0  0
    8.4135   -4.3779    0.0000 C   0  0  0  0  0  0  0  0  0  0  0  0
    4.1058   -8.4812    0.0000 O   0  0  0  0  0  0  0  0  0  0  0  0
    6.2471   -8.9045    0.0000 H   0  0  0  0  0  0  0  0  0  0  0  0
    8.4072   -5.2065    0.0000 H   0  0  0  0  0  0  0  0  0  0  0  0
    8.4009   -7.6779    0.0000 C   0  0  0  0  0  0  0  0  0  0  0  0
    9.1154   -8.0904    0.0000 O   0  0  0  0  0  0  0  0  0  0  0  0
    7.8176   -8.2613    0.0000 O   0  0  0  0  0  0  0  0  0  0  0  0
 11  1  1  1  0  0  0
 20  2  1  6  0  0  0
  3  4  1  0  0  0  0
  4  5  1  0  0  0  0
  5  6  1  0  0  0  0
  6  7  1  0  0  0  0
  7  8  1  0  0  0  0
  8  9  1  0  0  0  0
  9 10  1  0  0  0  0
 10 11  1  0  0  0  0
 11 12  1  0  0  0  0
 12 13  1  0  0  0  0
 13 14  1  0  0  0  0
 14 15  1  0  0  0  0
 15 16  1  0  0  0  0
 16 17  1  0  0  0  0
 17 18  1  0  0  0  0
 18 19  1  0  0  0  0
 14 19  1  0  0  0  0
 19 20  1  0  0  0  0
 11 20  1  0  0  0  0
 20 21  1  0  0  0  0
 21 22  1  0  0  0  0
 22 23  2  0  0  0  0
 10 23  1  0  0  0  0
 23 24  1  0  0  0  0
  7 24  1  0  0  0  0
  3 24  1  0  0  0  0
 25 26  2  0  0  0  0
 25 27  1  0  0  0  0
  7 25  1  1  0  0  0
 19 28  1  1  0  0  0
 15 29  1  0  0  0  0
 15 30  1  0  0  0  0
  4 31  1  6  0  0  0
  3 32  1  1  0  0  0
 16 33  1  1  0  0  0
 14 34  1  6  0  0  0
 24 35  1  1  0  0  0
 10 36  1  6  0  0  0
 36 37  1  0  0  0  0
 36 38  2  0  0  0  0
M  END
>  <cdx:fragmentId>
66

$$$$
