302204.cdx
  Mrv1902 05222410202D          

 27 29  0  0  0  0            999 V2000
    5.1402   -6.3102    0.0000 C   0  0  0  0  0  0  0  0  0  0  0  0
    4.4258   -6.7227    0.0000 C   0  0  0  0  0  0  0  0  0  0  0  0
    3.7113   -6.3102    0.0000 C   0  0  0  0  0  0  0  0  0  0  0  0
    5.1402   -5.4852    0.0000 O   0  0  0  0  0  0  0  0  0  0  0  0
    8.0683   -7.8027    0.0000 O   0  0  0  0  0  0  0  0  0  0  0  0
    8.5532   -7.1352    0.0000 C   0  0  2  0  0  0  0  0  0  0  0  0
    8.0683   -6.4678    0.0000 C   0  0  1  0  0  0  0  0  0  0  0  0
    7.2836   -6.7227    0.0000 C   0  0  0  0  0  0  0  0  0  0  0  0
    6.5692   -6.3102    0.0000 C   0  0  0  0  0  0  0  0  0  0  0  0
    5.8547   -6.7227    0.0000 C   0  0  0  0  0  0  0  0  0  0  0  0
    5.8547   -7.5477    0.0000 C   0  0  0  0  0  0  0  0  0  0  0  0
    6.5692   -7.9602    0.0000 C   0  0  0  0  0  0  0  0  0  0  0  0
    7.2836   -7.5477    0.0000 C   0  0  0  0  0  0  0  0  0  0  0  0
    6.5692   -8.7852    0.0000 O   0  0  0  0  0  0  0  0  0  0  0  0
    5.8547   -9.1977    0.0000 C   0  0  0  0  0  0  0  0  0  0  0  0
    8.3232   -5.6832    0.0000 C   0  0  0  0  0  0  0  0  0  0  0  0
    7.6976   -5.0576    0.0000 O   0  0  0  0  0  0  0  0  0  0  0  0
    2.9968   -6.7227    0.0000 O   0  0  0  0  0  0  0  0  0  0  0  0
   11.8532   -7.1352    0.0000 O   0  0  0  0  0  0  0  0  0  0  0  0
   11.8532   -8.5642    0.0000 C   0  0  0  0  0  0  0  0  0  0  0  0
   11.0282   -8.5642    0.0000 O   0  0  0  0  0  0  0  0  0  0  0  0
    9.7907   -6.4208    0.0000 C   0  0  0  0  0  0  0  0  0  0  0  0
   10.6157   -6.4208    0.0000 C   0  0  0  0  0  0  0  0  0  0  0  0
   11.0282   -7.1352    0.0000 C   0  0  0  0  0  0  0  0  0  0  0  0
   10.6157   -7.8497    0.0000 C   0  0  0  0  0  0  0  0  0  0  0  0
    9.7907   -7.8497    0.0000 C   0  0  0  0  0  0  0  0  0  0  0  0
    9.3782   -7.1352    0.0000 C   0  0  0  0  0  0  0  0  0  0  0  0
 24 19  1  0  0  0  0
 25 21  1  0  0  0  0
 21 20  1  0  0  0  0
 27 22  2  0  0  0  0
 23 22  1  0  0  0  0
 24 23  2  0  0  0  0
 25 24  1  0  0  0  0
 26 25  2  0  0  0  0
 27 26  1  0  0  0  0
  1  2  1  0  0  0  0
  2  3  1  0  0  0  0
  1  4  2  0  0  0  0
  5  6  1  0  0  0  0
  6  7  1  0  0  0  0
  7  8  1  0  0  0  0
  8  9  1  0  0  0  0
  9 10  2  0  0  0  0
 10 11  1  0  0  0  0
 11 12  2  0  0  0  0
 12 13  1  0  0  0  0
  8 13  2  0  0  0  0
  5 13  1  0  0  0  0
 14 15  1  0  0  0  0
 12 14  1  0  0  0  0
 16 17  1  0  0  0  0
  7 16  1  1  0  0  0
  6 27  1  6  0  0  0
  1 10  1  0  0  0  0
  3 18  1  0  0  0  0
M  END
>  <cdx:groupId>
85

>  <cdx:fragmentId>
13

$$$$
