302270.cdx
  Mrv1902 05222410232D          

 21 22  0  0  0  0            999 V2000
    6.9689   -6.3782    0.0000 C   0  0  0  0  0  0  0  0  0  0  0  0
    7.3851   -7.0905    0.0000 C   0  0  0  0  0  0  0  0  0  0  0  0
    6.9763   -7.8071    0.0000 C   0  0  0  0  0  0  0  0  0  0  0  0
    6.1513   -7.8114    0.0000 C   0  0  0  0  0  0  0  0  0  0  0  0
    5.7351   -7.0991    0.0000 C   0  0  0  0  0  0  0  0  0  0  0  0
    6.1439   -6.3825    0.0000 C   0  0  0  0  0  0  0  0  0  0  0  0
    7.3776   -5.6616    0.0000 O   0  0  0  0  0  0  0  0  0  0  0  0
    5.7425   -8.5280    0.0000 C   0  0  0  0  0  0  0  0  0  0  0  0
    4.9175   -8.5323    0.0000 C   0  0  0  0  0  0  0  0  0  0  0  0
    4.5087   -9.2489    0.0000 C   0  0  0  0  0  0  0  0  0  0  0  0
    8.2026   -5.6573    0.0000 O   0  0  0  0  0  0  0  0  0  0  0  0
   11.9336   -9.2103    0.0000 O   0  0  0  0  0  0  0  0  0  0  0  0
   11.1087   -9.2146    0.0000 C   0  0  0  0  0  0  0  0  0  0  0  0
   10.6924   -8.5023    0.0000 C   0  0  0  0  0  0  0  0  0  0  0  0
    9.8675   -8.5066    0.0000 C   0  0  0  0  0  0  0  0  0  0  0  0
    8.6263   -7.7986    0.0000 C   0  0  0  0  0  0  0  0  0  0  0  0
    9.4513   -7.7943    0.0000 C   0  0  0  0  0  0  0  0  0  0  0  0
    9.8600   -7.0777    0.0000 C   0  0  0  0  0  0  0  0  0  0  0  0
    9.4438   -6.3653    0.0000 C   0  0  0  0  0  0  0  0  0  0  0  0
    8.6188   -6.3696    0.0000 C   0  0  0  0  0  0  0  0  0  0  0  0
    8.2101   -7.0862    0.0000 C   0  0  0  0  0  0  0  0  0  0  0  0
 20 11  1  0  0  0  0
 17 15  1  0  0  0  0
 13 12  1  0  0  0  0
 14 13  1  0  0  0  0
 15 14  2  0  0  0  0
 21 16  2  0  0  0  0
 17 16  1  0  0  0  0
 18 17  2  0  0  0  0
 19 18  1  0  0  0  0
 20 19  2  0  0  0  0
 21 20  1  0  0  0  0
  1  2  1  0  0  0  0
  2  3  2  0  0  0  0
  3  4  1  0  0  0  0
  4  5  2  0  0  0  0
  5  6  1  0  0  0  0
  1  6  2  0  0  0  0
  1  7  1  0  0  0  0
  8  9  1  0  0  0  0
  9 10  2  0  0  0  0
  4  8  1  0  0  0  0
  2 21  1  0  0  0  0
M  END
>  <cdx:fragmentId>
25

$$$$
