302285.cdx
  Mrv1902 05222410252D          

 12 13  0  0  0  0            999 V2000
    7.0195   -7.4910    0.0000 C   0  0  2  0  0  0  0  0  0  0  0  0
    7.0195   -8.3282    0.0000 N   0  0  0  0  0  0  0  0  0  0  0  0
    7.8386   -7.2315    0.0000 C   0  0  0  0  0  0  0  0  0  0  0  0
    6.2024   -7.2315    0.0000 C   0  0  1  0  0  0  0  0  0  0  0  0
    7.8386   -8.5898    0.0000 C   0  0  0  0  0  0  0  0  0  0  0  0
    6.2024   -8.5898    0.0000 C   0  0  0  0  0  0  0  0  0  0  0  0
    8.3054   -7.9116    0.0000 C   0  0  0  0  0  0  0  0  0  0  0  0
    8.1243   -6.4587    0.0000 C   0  0  0  0  0  0  0  0  0  0  0  0
    5.7356   -7.9116    0.0000 C   0  0  0  0  0  0  0  0  0  0  0  0
    5.9187   -6.4507    0.0000 O   0  0  0  0  0  0  0  0  0  0  0  0
    8.9313   -6.3198    0.0000 O   0  0  0  0  0  0  0  0  0  0  0  0
    7.0195   -6.6680    0.0000 H   0  0  0  0  0  0  0  0  0  0  0  0
  1  2  1  0  0  0  0
  1  3  1  0  0  0  0
  1  4  1  0  0  0  0
  2  5  1  0  0  0  0
  2  6  1  0  0  0  0
  3  7  2  0  0  0  0
  3  8  1  0  0  0  0
  4  9  1  0  0  0  0
  4 10  1  1  0  0  0
  8 11  1  0  0  0  0
  5  7  1  0  0  0  0
  6  9  1  0  0  0  0
  1 12  1  6  0  0  0
M  END
>  <cdx:fragmentId>
3

$$$$
