12302240.cdx
  Mrv1902 05222410242D          

 18 19  0  0  0  0            999 V2000
    8.3241  -15.8710    0.0000 C   0  0  2  0  0  0  0  0  0  0  0  0
    9.0386  -15.4585    0.0000 C   0  0  0  0  0  0  0  0  0  0  0  0
    9.0386  -14.6335    0.0000 C   0  0  0  0  0  0  0  0  0  0  0  0
    8.3241  -14.2210    0.0000 C   0  0  2  0  0  0  0  0  0  0  0  0
    7.6097  -14.6335    0.0000 C   0  0  2  0  0  0  0  0  0  0  0  0
    6.8952  -14.2210    0.0000 C   0  0  0  0  0  0  0  0  0  0  0  0
    6.1807  -14.6335    0.0000 C   0  0  0  0  0  0  0  0  0  0  0  0
    6.1807  -15.4585    0.0000 C   0  0  0  0  0  0  0  0  0  0  0  0
    6.8952  -15.8710    0.0000 C   0  0  0  0  0  0  0  0  0  0  0  0
    7.6097  -15.4585    0.0000 C   0  0  1  0  0  0  0  0  0  0  0  0
    8.7366  -16.5854    0.0000 O   0  0  0  0  0  0  0  0  0  0  0  0
    7.6097  -13.8085    0.0000 O   0  0  0  0  0  0  0  0  0  0  0  0
    7.6097  -12.9835    0.0000 C   0  0  0  0  0  0  0  0  0  0  0  0
    8.3241  -13.3960    0.0000 C   0  0  0  0  0  0  0  0  0  0  0  0
    9.0386  -12.9835    0.0000 C   0  0  0  0  0  0  0  0  0  0  0  0
    5.4663  -14.2210    0.0000 C   0  0  0  0  0  0  0  0  0  0  0  0
    7.9116  -16.5854    0.0000 C   0  0  0  0  0  0  0  0  0  0  0  0
    7.6097  -16.2835    0.0000 H   0  0  0  0  0  0  0  0  0  0  0  0
  1  2  1  0  0  0  0
  2  3  1  0  0  0  0
  3  4  1  0  0  0  0
  4  5  1  0  0  0  0
  5  6  1  0  0  0  0
  6  7  1  0  0  0  0
  7  8  1  0  0  0  0
  8  9  1  0  0  0  0
  9 10  1  0  0  0  0
  1 10  1  0  0  0  0
  5 10  1  0  0  0  0
  1 11  1  1  0  0  0
  5 12  1  6  0  0  0
 13 14  1  0  0  0  0
 14 15  1  0  0  0  0
  4 14  1  6  0  0  0
  7 16  2  0  0  0  0
  1 17  1  6  0  0  0
 10 18  1  1  0  0  0
M  END
>  <cdx:groupId>
87805

>  <cdx:fragmentId>
87753

$$$$
