302249.cdx
  Mrv1902 05222410212D          

 33 36  0  0  0  0            999 V2000
    7.7822   -8.7362    0.0000 C   0  0  0  0  0  0  0  0  0  0  0  0
    7.7822   -7.9112    0.0000 C   0  0  0  0  0  0  0  0  0  0  0  0
    7.0678   -7.4987    0.0000 C   0  0  0  0  0  0  0  0  0  0  0  0
    6.3533   -7.9112    0.0000 C   0  0  0  0  0  0  0  0  0  0  0  0
    5.6388   -7.4987    0.0000 C   0  0  0  0  0  0  0  0  0  0  0  0
    4.9244   -7.9112    0.0000 C   0  0  0  0  0  0  0  0  0  0  0  0
    4.9244   -8.7362    0.0000 C   0  0  0  0  0  0  0  0  0  0  0  0
    5.6388   -9.1487    0.0000 C   0  0  0  0  0  0  0  0  0  0  0  0
    6.3533   -8.7362    0.0000 C   0  0  0  0  0  0  0  0  0  0  0  0
    7.0678   -9.1487    0.0000 O   0  0  0  0  0  0  0  0  0  0  0  0
    7.0678   -6.6737    0.0000 O   0  0  0  0  0  0  0  0  0  0  0  0
    8.4967   -7.4987    0.0000 O   0  0  0  0  0  0  0  0  0  0  0  0
    7.7822   -6.2612    0.0000 O   0  0  0  0  0  0  0  0  0  0  0  0
    8.4967   -6.6737    0.0000 C   0  0  0  0  0  0  0  0  0  0  0  0
    9.2112   -6.2612    0.0000 C   0  0  1  0  0  0  0  0  0  0  0  0
    9.2112   -5.4362    0.0000 C   0  0  1  0  0  0  0  0  0  0  0  0
    8.4967   -5.0237    0.0000 C   0  0  2  0  0  0  0  0  0  0  0  0
    7.7822   -5.4362    0.0000 C   0  0  1  0  0  0  0  0  0  0  0  0
    7.0678   -5.0237    0.0000 C   0  0  0  0  0  0  0  0  0  0  0  0
    6.3533   -5.4362    0.0000 O   0  0  0  0  0  0  0  0  0  0  0  0
    8.4967   -4.1987    0.0000 O   0  0  0  0  0  0  0  0  0  0  0  0
    9.9256   -5.0237    0.0000 O   0  0  0  0  0  0  0  0  0  0  0  0
    9.9256   -6.6737    0.0000 O   0  0  0  0  0  0  0  0  0  0  0  0
    4.2099   -9.1487    0.0000 O   0  0  0  0  0  0  0  0  0  0  0  0
    5.6388   -6.6737    0.0000 O   0  0  0  0  0  0  0  0  0  0  0  0
    8.4967   -9.1487    0.0000 C   0  0  0  0  0  0  0  0  0  0  0  0
    9.2112   -8.7362    0.0000 C   0  0  0  0  0  0  0  0  0  0  0  0
    9.9256   -9.1487    0.0000 C   0  0  0  0  0  0  0  0  0  0  0  0
    9.9256   -9.9737    0.0000 C   0  0  0  0  0  0  0  0  0  0  0  0
    9.2112  -10.3862    0.0000 C   0  0  0  0  0  0  0  0  0  0  0  0
    8.4967   -9.9737    0.0000 C   0  0  0  0  0  0  0  0  0  0  0  0
   10.6401  -10.3862    0.0000 O   0  0  0  0  0  0  0  0  0  0  0  0
   10.6401   -8.7362    0.0000 O   0  0  0  0  0  0  0  0  0  0  0  0
  1  2  2  0  0  0  0
  2  3  1  0  0  0  0
  3  4  1  0  0  0  0
  4  5  1  0  0  0  0
  5  6  2  0  0  0  0
  6  7  1  0  0  0  0
  7  8  2  0  0  0  0
  8  9  1  0  0  0  0
  4  9  2  0  0  0  0
  9 10  1  0  0  0  0
  1 10  1  0  0  0  0
  3 11  2  0  0  0  0
 13 14  1  0  0  0  0
 14 15  1  0  0  0  0
 15 16  1  0  0  0  0
 16 17  1  0  0  0  0
 17 18  1  0  0  0  0
 13 18  1  0  0  0  0
 19 20  1  0  0  0  0
 18 19  1  6  0  0  0
 17 21  1  6  0  0  0
 16 22  1  1  0  0  0
 15 23  1  1  0  0  0
 12 14  1  0  0  0  0
  2 12  1  0  0  0  0
  7 24  1  0  0  0  0
  5 25  1  0  0  0  0
 26 27  1  0  0  0  0
 27 28  2  0  0  0  0
 28 29  1  0  0  0  0
 29 30  2  0  0  0  0
 30 31  1  0  0  0  0
 26 31  2  0  0  0  0
 29 32  1  0  0  0  0
 28 33  1  0  0  0  0
  1 26  1  0  0  0  0
M  END
>  <cdx:groupId>
104

>  <cdx:fragmentId>
29

$$$$
