302283.cdx
  Mrv1902 05222410242D          

 39 42  0  0  0  0            999 V2000
    8.3921   -6.4570    0.0000 O   0  0  0  0  0  0  0  0  0  0  0  0
    9.8254   -8.0869    0.0000 C   0  0  2  0  0  0  0  0  0  0  0  0
   10.5343   -7.6650    0.0000 C   0  0  2  0  0  0  0  0  0  0  0  0
   10.5235   -6.8401    0.0000 C   0  0  1  0  0  0  0  0  0  0  0  0
    9.8036   -6.4370    0.0000 C   0  0  2  0  0  0  0  0  0  0  0  0
    9.0947   -6.8589    0.0000 C   0  0  1  0  0  0  0  0  0  0  0  0
    9.1055   -7.6838    0.0000 O   0  0  0  0  0  0  0  0  0  0  0  0
   10.5561   -9.3149    0.0000 O   0  0  0  0  0  0  0  0  0  0  0  0
   11.2325   -6.4182    0.0000 O   0  0  0  0  0  0  0  0  0  0  0  0
    9.7928   -5.6121    0.0000 O   0  0  0  0  0  0  0  0  0  0  0  0
   11.2542   -8.0681    0.0000 O   0  0  0  0  0  0  0  0  0  0  0  0
   10.5561  -10.1399    0.0000 C   0  0  0  0  0  0  0  0  0  0  0  0
    9.8416  -10.5523    0.0000 C   0  0  0  0  0  0  0  0  0  0  0  0
   11.2705  -10.5524    0.0000 O   0  0  0  0  0  0  0  0  0  0  0  0
    9.1252  -10.1431    0.0000 C   0  0  0  0  0  0  0  0  0  0  0  0
    8.4127  -10.5589    0.0000 C   0  0  0  0  0  0  0  0  0  0  0  0
    8.3995  -11.3739    0.0000 C   0  0  0  0  0  0  0  0  0  0  0  0
    9.1101  -11.7929    0.0000 C   0  0  0  0  0  0  0  0  0  0  0  0
    9.8170  -11.3869    0.0000 C   0  0  0  0  0  0  0  0  0  0  0  0
    7.7006  -10.1423    0.0000 O   0  0  0  0  0  0  0  0  0  0  0  0
    7.6799  -11.7774    0.0000 O   0  0  0  0  0  0  0  0  0  0  0  0
    9.1054  -12.6179    0.0000 O   0  0  0  0  0  0  0  0  0  0  0  0
    9.8362   -8.9118    0.0000 C   0  0  0  0  0  0  0  0  0  0  0  0
    7.6771   -6.8685    0.0000 C   0  0  0  0  0  0  0  0  0  0  0  0
    6.9637   -6.4541    0.0000 C   0  0  0  0  0  0  0  0  0  0  0  0
    6.2481   -6.8685    0.0000 C   0  0  0  0  0  0  0  0  0  0  0  0
    6.2481   -7.6935    0.0000 C   0  0  0  0  0  0  0  0  0  0  0  0
    6.9637   -8.1080    0.0000 C   0  0  0  0  0  0  0  0  0  0  0  0
    7.6771   -7.6935    0.0000 C   0  0  0  0  0  0  0  0  0  0  0  0
    5.5334   -8.1055    0.0000 C   0  0  0  0  0  0  0  0  0  0  0  0
    4.8192   -7.6925    0.0000 C   0  0  0  0  0  0  0  0  0  0  0  0
    4.1044   -8.1046    0.0000 C   0  0  0  0  0  0  0  0  0  0  0  0
    3.3905   -7.6911    0.0000 C   0  0  0  0  0  0  0  0  0  0  0  0
    2.6755   -8.1046    0.0000 C   0  0  0  0  0  0  0  0  0  0  0  0
    2.6755   -8.9296    0.0000 C   0  0  0  0  0  0  0  0  0  0  0  0
    3.3905   -9.3430    0.0000 C   0  0  0  0  0  0  0  0  0  0  0  0
    4.1044   -8.9296    0.0000 C   0  0  0  0  0  0  0  0  0  0  0  0
    3.3908  -10.1680    0.0000 O   0  0  0  0  0  0  0  0  0  0  0  0
    1.9609   -7.6923    0.0000 O   0  0  0  0  0  0  0  0  0  0  0  0
  2  3  1  0  0  0  0
  3  4  1  0  0  0  0
  4  5  1  0  0  0  0
  5  6  1  0  0  0  0
  6  7  1  0  0  0  0
  7  2  1  0  0  0  0
  2 23  1  1  0  0  0
  4  9  1  1  0  0  0
  5 10  1  6  0  0  0
  3 11  1  6  0  0  0
  8 12  1  0  0  0  0
  6  1  1  1  0  0  0
 12 13  1  0  0  0  0
 12 14  2  0  0  0  0
 13 15  2  0  0  0  0
 15 16  1  0  0  0  0
 16 17  2  0  0  0  0
 17 18  1  0  0  0  0
 18 19  2  0  0  0  0
 19 13  1  0  0  0  0
 16 20  1  0  0  0  0
 17 21  1  0  0  0  0
 18 22  1  0  0  0  0
 23  8  1  0  0  0  0
  1 24  1  0  0  0  0
 24 25  2  0  0  0  0
 25 26  1  0  0  0  0
 26 27  2  0  0  0  0
 27 28  1  0  0  0  0
 28 29  2  0  0  0  0
 29 24  1  0  0  0  0
 27 30  1  0  0  0  0
 30 31  2  0  0  0  0
 31 32  1  0  0  0  0
 32 33  2  0  0  0  0
 33 34  1  0  0  0  0
 34 35  2  0  0  0  0
 35 36  1  0  0  0  0
 36 37  2  0  0  0  0
 37 32  1  0  0  0  0
 36 38  1  0  0  0  0
 34 39  1  0  0  0  0
M  END
>  <cdx:fragmentId>
5

$$$$
