302295.cdx
  Mrv1902 05222410242D          

 21 22  0  0  0  0            999 V2000
    8.9775   -7.3270    0.0000 O   0  0  0  0  0  0  0  0  0  0  0  0
    8.1929   -7.0721    0.0000 C   0  0  1  0  0  0  0  0  0  0  0  0
    8.1929   -6.2471    0.0000 C   0  0  2  0  0  0  0  0  0  0  0  0
    8.9775   -5.9921    0.0000 C   0  0  0  0  0  0  0  0  0  0  0  0
    9.4625   -6.6596    0.0000 C   0  0  0  0  0  0  0  0  0  0  0  0
    7.4083   -5.9921    0.0000 C   0  0  0  0  0  0  0  0  0  0  0  0
    6.9234   -6.6596    0.0000 C   0  0  0  0  0  0  0  0  0  0  0  0
    6.0992   -6.6226    0.0000 C   0  0  0  0  0  0  0  0  0  0  0  0
    5.5564   -7.2438    0.0000 C   0  0  1  0  0  0  0  0  0  0  0  0
    5.7037   -8.0556    0.0000 C   0  0  0  0  0  0  0  0  0  0  0  0
    6.4302   -8.4465    0.0000 C   0  0  1  0  0  0  0  0  0  0  0  0
    7.1888   -8.1223    0.0000 C   0  0  0  0  0  0  0  0  0  0  0  0
    7.4083   -7.3270    0.0000 C   0  0  0  0  0  0  0  0  0  0  0  0
   10.2875   -6.6596    0.0000 O   0  0  0  0  0  0  0  0  0  0  0  0
    5.7750   -5.8640    0.0000 C   0  0  0  0  0  0  0  0  0  0  0  0
    9.2325   -5.2075    0.0000 C   0  0  0  0  0  0  0  0  0  0  0  0
    7.8101   -8.6651    0.0000 C   0  0  0  0  0  0  0  0  0  0  0  0
    6.4302   -9.2715    0.0000 O   0  0  0  0  0  0  0  0  0  0  0  0
    4.7611   -7.0244    0.0000 O   0  0  0  0  0  0  0  0  0  0  0  0
    8.1929   -5.4221    0.0000 H   0  0  0  0  0  0  0  0  0  0  0  0
    8.1929   -7.8971    0.0000 H   0  0  0  0  0  0  0  0  0  0  0  0
  1  2  1  0  0  0  0
  2  3  1  0  0  0  0
  3  4  1  0  0  0  0
  4  5  1  0  0  0  0
  1  5  1  0  0  0  0
  6  7  1  0  0  0  0
  7  8  1  0  0  0  0
  8  9  1  0  0  0  0
  9 10  1  0  0  0  0
 10 11  1  0  0  0  0
 11 12  1  0  0  0  0
 12 13  2  0  0  0  0
 13  2  1  0  0  0  0
  6  3  1  0  0  0  0
  5 14  2  0  0  0  0
  8 15  2  0  0  0  0
  4 16  2  0  0  0  0
 12 17  1  0  0  0  0
 11 18  1  1  0  0  0
  9 19  1  1  0  0  0
  3 20  1  6  0  0  0
  2 21  1  1  0  0  0
M  END
>  <cdx:groupId>
66

>  <cdx:fragmentId>
15

$$$$
