302271.cdx
  Mrv1902 05222410222D          

 18 19  0  0  0  0            999 V2000
    7.2035   -5.6045    0.0000 C   0  0  0  0  0  0  0  0  0  0  0  0
    6.7913   -4.8898    0.0000 C   0  0  0  0  0  0  0  0  0  0  0  0
    5.9663   -4.8894    0.0000 C   0  0  0  0  0  0  0  0  0  0  0  0
    5.5535   -5.6037    0.0000 C   0  0  0  0  0  0  0  0  0  0  0  0
    5.9656   -6.3183    0.0000 C   0  0  0  0  0  0  0  0  0  0  0  0
    6.7906   -6.3188    0.0000 C   0  0  0  0  0  0  0  0  0  0  0  0
    5.5528   -7.0326    0.0000 C   0  0  0  0  0  0  0  0  0  0  0  0
    4.7278   -7.0322    0.0000 C   0  0  0  0  0  0  0  0  0  0  0  0
    4.3149   -7.7465    0.0000 C   0  0  0  0  0  0  0  0  0  0  0  0
    7.2042   -4.1755    0.0000 O   0  0  0  0  0  0  0  0  0  0  0  0
    9.6778   -7.0347    0.0000 O   0  0  0  0  0  0  0  0  0  0  0  0
    8.0292   -4.1760    0.0000 O   0  0  0  0  0  0  0  0  0  0  0  0
    9.2663   -4.8910    0.0000 C   0  0  0  0  0  0  0  0  0  0  0  0
    9.6785   -5.6057    0.0000 C   0  0  0  0  0  0  0  0  0  0  0  0
    9.2656   -6.3200    0.0000 C   0  0  0  0  0  0  0  0  0  0  0  0
    8.4406   -6.3196    0.0000 C   0  0  0  0  0  0  0  0  0  0  0  0
    8.0285   -5.6049    0.0000 C   0  0  0  0  0  0  0  0  0  0  0  0
    8.4413   -4.8906    0.0000 C   0  0  0  0  0  0  0  0  0  0  0  0
 15 11  1  0  0  0  0
 18 12  1  0  0  0  0
 18 13  2  0  0  0  0
 14 13  1  0  0  0  0
 15 14  2  0  0  0  0
 16 15  1  0  0  0  0
 17 16  2  0  0  0  0
 18 17  1  0  0  0  0
  1  2  1  0  0  0  0
  2  3  2  0  0  0  0
  3  4  1  0  0  0  0
  4  5  2  0  0  0  0
  5  6  1  0  0  0  0
  1  6  2  0  0  0  0
  7  8  1  0  0  0  0
  8  9  2  0  0  0  0
  5  7  1  0  0  0  0
  2 10  1  0  0  0  0
 17  1  1  0  0  0  0
M  END
>  <cdx:fragmentId>
82

$$$$
