302234.cdx
  Mrv1902 05222410272D          

 18 20  0  0  0  0            999 V2000
    6.8079   -6.2612    0.0000 C   0  0  0  0  0  0  0  0  0  0  0  0
    7.5223   -6.6737    0.0000 C   0  0  0  0  0  0  0  0  0  0  0  0
    8.2368   -6.2612    0.0000 C   0  0  0  0  0  0  0  0  0  0  0  0
    8.9513   -6.6737    0.0000 C   0  0  0  0  0  0  0  0  0  0  0  0
    8.9513   -7.4987    0.0000 C   0  0  0  0  0  0  0  0  0  0  0  0
    8.2368   -7.9112    0.0000 C   0  0  0  0  0  0  0  0  0  0  0  0
    7.5223   -7.4987    0.0000 C   0  0  0  0  0  0  0  0  0  0  0  0
    6.8079   -7.9112    0.0000 C   0  0  0  0  0  0  0  0  0  0  0  0
    6.0934   -7.4987    0.0000 C   0  0  0  0  0  0  0  0  0  0  0  0
    5.3789   -7.9112    0.0000 C   0  0  0  0  0  0  0  0  0  0  0  0
    4.6644   -7.4987    0.0000 C   0  0  0  0  0  0  0  0  0  0  0  0
    4.6644   -6.6737    0.0000 C   0  0  0  0  0  0  0  0  0  0  0  0
    5.3789   -6.2612    0.0000 C   0  0  0  0  0  0  0  0  0  0  0  0
    6.0934   -6.6737    0.0000 C   0  0  0  0  0  0  0  0  0  0  0  0
    6.8079   -5.4362    0.0000 O   0  0  0  0  0  0  0  0  0  0  0  0
    6.8079   -8.7362    0.0000 O   0  0  0  0  0  0  0  0  0  0  0  0
    8.2368   -5.4362    0.0000 O   0  0  0  0  0  0  0  0  0  0  0  0
    9.6657   -7.9112    0.0000 O   0  0  0  0  0  0  0  0  0  0  0  0
  1  2  1  0  0  0  0
  2  3  1  0  0  0  0
  3  4  2  0  0  0  0
  4  5  1  0  0  0  0
  5  6  2  0  0  0  0
  6  7  1  0  0  0  0
  2  7  2  0  0  0  0
  7  8  1  0  0  0  0
  8  9  1  0  0  0  0
  9 10  1  0  0  0  0
 10 11  2  0  0  0  0
 11 12  1  0  0  0  0
 12 13  2  0  0  0  0
 13 14  1  0  0  0  0
  9 14  2  0  0  0  0
  1 14  1  0  0  0  0
  1 15  2  0  0  0  0
  8 16  2  0  0  0  0
  3 17  1  0  0  0  0
  5 18  1  0  0  0  0
M  END
>  <cdx:groupId>
60

>  <cdx:fragmentId>
7

$$$$
