302265.cdx
  Mrv1902 05222410222D          

 66 73  0  0  0  0            999 V2000
   11.2999   -5.2955    0.0000 C   0  0  0  0  0  0  0  0  0  0  0  0
   12.0143   -4.8830    0.0000 C   0  0  0  0  0  0  0  0  0  0  0  0
   12.7288   -5.2955    0.0000 C   0  0  0  0  0  0  0  0  0  0  0  0
   12.7288   -6.1205    0.0000 C   0  0  0  0  0  0  0  0  0  0  0  0
   12.0143   -6.5330    0.0000 C   0  0  2  0  0  0  0  0  0  0  0  0
   12.0143   -7.3580    0.0000 C   0  0  0  0  0  0  0  0  0  0  0  0
   11.2999   -7.7705    0.0000 C   0  0  0  0  0  0  0  0  0  0  0  0
   10.5854   -7.3580    0.0000 C   0  0  1  0  0  0  0  0  0  0  0  0
    9.8709   -7.7705    0.0000 C   0  0  2  0  0  0  0  0  0  0  0  0
    9.8709   -8.5955    0.0000 C   0  0  0  0  0  0  0  0  0  0  0  0
    9.1564   -9.0080    0.0000 C   0  0  0  0  0  0  0  0  0  0  0  0
    8.4420   -8.5955    0.0000 C   0  0  1  0  0  0  0  0  0  0  0  0
    7.7275   -9.0080    0.0000 C   0  0  0  0  0  0  0  0  0  0  0  0
    7.0130   -8.5955    0.0000 C   0  0  2  0  0  0  0  0  0  0  0  0
    7.0130   -7.7705    0.0000 C   0  0  0  0  0  0  0  0  0  0  0  0
    7.7275   -7.3580    0.0000 C   0  0  0  0  0  0  0  0  0  0  0  0
    8.4420   -7.7705    0.0000 C   0  0  2  0  0  0  0  0  0  0  0  0
    9.1564   -7.3580    0.0000 C   0  0  1  0  0  0  0  0  0  0  0  0
    9.1564   -6.5330    0.0000 C   0  0  0  0  0  0  0  0  0  0  0  0
    9.8709   -6.1205    0.0000 C   0  0  0  0  0  0  0  0  0  0  0  0
   10.5854   -6.5330    0.0000 C   0  0  0  0  0  0  0  0  0  0  0  0
   11.2999   -6.1205    0.0000 C   0  0  2  0  0  0  0  0  0  0  0  0
   12.7288   -6.9455    0.0000 C   0  0  0  0  0  0  0  0  0  0  0  0
   12.7288   -7.7705    0.0000 O   0  0  0  0  0  0  0  0  0  0  0  0
   13.4433   -6.5330    0.0000 O   0  0  0  0  0  0  0  0  0  0  0  0
    8.4420   -6.9455    0.0000 C   0  0  0  0  0  0  0  0  0  0  0  0
    8.1400   -9.7225    0.0000 C   0  0  0  0  0  0  0  0  0  0  0  0
    7.3150   -9.7225    0.0000 C   0  0  0  0  0  0  0  0  0  0  0  0
   10.5854   -8.1830    0.0000 C   0  0  0  0  0  0  0  0  0  0  0  0
   11.6018   -4.1685    0.0000 C   0  0  0  0  0  0  0  0  0  0  0  0
   12.4268   -4.1685    0.0000 C   0  0  0  0  0  0  0  0  0  0  0  0
    4.8436   -9.7863    0.0000 O   0  0  0  0  0  0  0  0  0  0  0  0
    3.3941   -9.8477    0.0000 O   0  0  0  0  0  0  0  0  0  0  0  0
    4.1149  -10.2490    0.0000 C   0  0  2  0  0  0  0  0  0  0  0  0
    4.1279  -11.0739    0.0000 C   0  0  1  0  0  0  0  0  0  0  0  0
    3.4199  -11.4975    0.0000 C   0  0  2  0  0  0  0  0  0  0  0  0
    2.6991  -11.0962    0.0000 C   0  0  1  0  0  0  0  0  0  0  0  0
    2.6862  -10.2713    0.0000 C   0  0  1  0  0  0  0  0  0  0  0  0
    4.8487  -11.4752    0.0000 O   0  0  0  0  0  0  0  0  0  0  0  0
    4.1537  -12.7237    0.0000 O   0  0  0  0  0  0  0  0  0  0  0  0
    4.8616  -12.3000    0.0000 C   0  0  2  0  0  0  0  0  0  0  0  0
    5.5824  -12.7013    0.0000 C   0  0  1  0  0  0  0  0  0  0  0  0
    5.5953  -13.5262    0.0000 C   0  0  1  0  0  0  0  0  0  0  0  0
    4.8874  -13.9498    0.0000 C   0  0  2  0  0  0  0  0  0  0  0  0
    4.1666  -13.5486    0.0000 C   0  0  2  0  0  0  0  0  0  0  0  0
    3.4586  -13.9722    0.0000 C   0  0  0  0  0  0  0  0  0  0  0  0
    4.9003  -14.7747    0.0000 O   0  0  0  0  0  0  0  0  0  0  0  0
    6.3162  -13.9275    0.0000 O   0  0  0  0  0  0  0  0  0  0  0  0
    6.2904  -12.2777    0.0000 O   0  0  0  0  0  0  0  0  0  0  0  0
    1.9653   -9.8701    0.0000 C   0  0  0  0  0  0  0  0  0  0  0  0
    1.9912  -11.5199    0.0000 O   0  0  0  0  0  0  0  0  0  0  0  0
    3.4328  -12.3224    0.0000 O   0  0  0  0  0  0  0  0  0  0  0  0
    8.4420   -9.4205    0.0000 H   0  0  0  0  0  0  0  0  0  0  0  0
   11.2999   -6.9455    0.0000 H   0  0  0  0  0  0  0  0  0  0  0  0
    1.2565  -10.2921    0.0000 O   0  0  0  0  0  0  0  0  0  0  0  0
    3.4422   -8.9154    0.0000 O   0  0  0  0  0  0  0  0  0  0  0  0
    3.4956   -7.2663    0.0000 O   0  0  0  0  0  0  0  0  0  0  0  0
    4.9238   -7.3126    0.0000 C   0  0  0  0  0  0  0  0  0  0  0  0
    4.1964   -7.7017    0.0000 C   0  0  1  0  0  0  0  0  0  0  0  0
    4.1696   -8.5263    0.0000 C   0  0  1  0  0  0  0  0  0  0  0  0
    4.8704   -8.9617    0.0000 C   0  0  2  0  0  0  0  0  0  0  0  0
    5.5978   -8.5726    0.0000 C   0  0  1  0  0  0  0  0  0  0  0  0
    9.8709   -6.9455    0.0000 C   0  0  0  0  0  0  0  0  0  0  0  0
    5.6246   -7.7480    0.0000 O   0  0  0  0  0  0  0  0  0  0  0  0
    6.2986   -9.0080    0.0000 O   0  0  0  0  0  0  0  0  0  0  0  0
    9.1564   -8.1830    0.0000 H   0  0  0  0  0  0  0  0  0  0  0  0
 62 65  1  1  0  0  0
 61 32  1  6  0  0  0
 33 34  1  0  0  0  0
 34 35  1  0  0  0  0
 35 36  1  0  0  0  0
 60 56  1  1  0  0  0
 59 57  1  1  0  0  0
 64 58  1  0  0  0  0
 59 58  1  0  0  0  0
  1  2  1  0  0  0  0
  2  3  1  0  0  0  0
  3  4  1  0  0  0  0
  4  5  1  0  0  0  0
  5  6  1  0  0  0  0
  6  7  1  0  0  0  0
  7  8  1  0  0  0  0
  8  9  1  0  0  0  0
  9 10  1  0  0  0  0
 10 11  1  0  0  0  0
 11 12  1  0  0  0  0
 12 13  1  0  0  0  0
 13 14  1  0  0  0  0
 14 15  1  0  0  0  0
 15 16  1  0  0  0  0
 16 17  1  0  0  0  0
 12 17  1  0  0  0  0
 17 18  1  0  0  0  0
  9 18  1  0  0  0  0
 18 19  1  0  0  0  0
 19 20  1  0  0  0  0
 20 21  2  0  0  0  0
  8 21  1  0  0  0  0
 21 22  1  0  0  0  0
  5 22  1  0  0  0  0
  1 22  1  0  0  0  0
 23 24  2  0  0  0  0
 23 25  1  0  0  0  0
  5 23  1  1  0  0  0
 17 26  1  1  0  0  0
 13 27  1  0  0  0  0
 13 28  1  0  0  0  0
  8 29  1  6  0  0  0
  2 30  1  0  0  0  0
  2 31  1  0  0  0  0
 60 59  1  0  0  0  0
 61 60  1  0  0  0  0
 62 61  1  0  0  0  0
 64 62  1  0  0  0  0
 36 37  1  0  0  0  0
 37 38  1  0  0  0  0
 33 38  1  0  0  0  0
 40 41  1  0  0  0  0
 41 42  1  0  0  0  0
 42 43  1  0  0  0  0
 43 44  1  0  0  0  0
 44 45  1  0  0  0  0
 40 45  1  0  0  0  0
 45 46  1  6  0  0  0
 44 47  1  1  0  0  0
 43 48  1  6  0  0  0
 42 49  1  6  0  0  0
 41 39  1  1  0  0  0
 35 39  1  6  0  0  0
 38 50  1  1  0  0  0
 37 51  1  6  0  0  0
 36 52  1  1  0  0  0
 34 32  1  1  0  0  0
 50 55  1  0  0  0  0
 14 65  1  1  0  0  0
 12 53  1  6  0  0  0
 22 54  1  1  0  0  0
  9 63  1  1  0  0  0
 18 66  1  6  0  0  0
M  END
>  <cdx:fragmentId>
5

$$$$
