302273.cdx
  Mrv1902 05222410222D          

 44 49  0  0  0  0            999 V2000
    8.2906   -7.0282    0.0000 C   0  0  1  0  0  0  0  0  0  0  0  0
    4.3744   -6.6194    0.0000 N   0  0  0  0  0  0  0  0  0  0  0  0
    4.8593   -5.9520    0.0000 C   0  0  0  0  0  0  0  0  0  0  0  0
    5.6798   -5.8658    0.0000 C   0  0  1  0  0  0  0  0  0  0  0  0
    6.0154   -5.1121    0.0000 N   0  0  0  0  0  0  0  0  0  0  0  0
    5.5305   -4.4447    0.0000 C   0  0  0  0  0  0  0  0  0  0  0  0
    4.7100   -4.5309    0.0000 C   0  0  0  0  0  0  0  0  0  0  0  0
    4.3744   -5.2846    0.0000 C   0  0  0  0  0  0  0  0  0  0  0  0
    3.5898   -5.5395    0.0000 C   0  0  0  0  0  0  0  0  0  0  0  0
    2.8753   -5.1270    0.0000 C   0  0  0  0  0  0  0  0  0  0  0  0
    2.1609   -5.5395    0.0000 C   0  0  0  0  0  0  0  0  0  0  0  0
    2.1609   -6.3645    0.0000 C   0  0  0  0  0  0  0  0  0  0  0  0
    2.8753   -6.7770    0.0000 C   0  0  0  0  0  0  0  0  0  0  0  0
    3.5898   -6.3645    0.0000 C   0  0  0  0  0  0  0  0  0  0  0  0
    6.8359   -5.0259    0.0000 C   0  0  0  0  0  0  0  0  0  0  0  0
    7.3208   -5.6933    0.0000 C   0  0  2  0  0  0  0  0  0  0  0  0
    8.1413   -5.6071    0.0000 C   0  0  1  0  0  0  0  0  0  0  0  0
    8.6262   -6.2745    0.0000 C   0  0  1  0  0  0  0  0  0  0  0  0
    7.4702   -7.1144    0.0000 C   0  0  0  0  0  0  0  0  0  0  0  0
    6.9852   -6.4470    0.0000 C   0  0  2  0  0  0  0  0  0  0  0  0
    6.1647   -6.5332    0.0000 C   0  0  0  0  0  0  0  0  0  0  0  0
    8.4768   -4.8534    0.0000 C   0  0  0  0  0  0  0  0  0  0  0  0
    7.9919   -4.1860    0.0000 O   0  0  0  0  0  0  0  0  0  0  0  0
    9.2973   -4.7672    0.0000 O   0  0  0  0  0  0  0  0  0  0  0  0
    7.6563   -4.9396    0.0000 H   0  0  0  0  0  0  0  0  0  0  0  0
    6.6497   -7.2007    0.0000 H   0  0  0  0  0  0  0  0  0  0  0  0
    5.3443   -6.6194    0.0000 H   0  0  0  0  0  0  0  0  0  0  0  0
    8.7756   -7.6956    0.0000 O   0  0  0  0  0  0  0  0  0  0  0  0
    9.5960   -7.6094    0.0000 C   0  0  0  0  0  0  0  0  0  0  0  0
   10.0810   -8.2768    0.0000 C   0  0  0  0  0  0  0  0  0  0  0  0
    9.7454   -9.0305    0.0000 C   0  0  0  0  0  0  0  0  0  0  0  0
   10.2303   -9.6979    0.0000 C   0  0  0  0  0  0  0  0  0  0  0  0
   11.0508   -9.6117    0.0000 C   0  0  0  0  0  0  0  0  0  0  0  0
   11.3864   -8.8580    0.0000 C   0  0  0  0  0  0  0  0  0  0  0  0
   10.9014   -8.1906    0.0000 C   0  0  0  0  0  0  0  0  0  0  0  0
    9.9316   -6.8557    0.0000 O   0  0  0  0  0  0  0  0  0  0  0  0
   12.2068   -8.7718    0.0000 O   0  0  0  0  0  0  0  0  0  0  0  0
   12.6918   -9.4392    0.0000 C   0  0  0  0  0  0  0  0  0  0  0  0
   11.5357  -10.2791    0.0000 O   0  0  0  0  0  0  0  0  0  0  0  0
   12.3562  -10.1929    0.0000 C   0  0  0  0  0  0  0  0  0  0  0  0
    9.8948  -10.4516    0.0000 O   0  0  0  0  0  0  0  0  0  0  0  0
    9.0743  -10.5378    0.0000 C   0  0  0  0  0  0  0  0  0  0  0  0
    9.4467   -6.1883    0.0000 O   0  0  0  0  0  0  0  0  0  0  0  0
    9.6329   -4.0135    0.0000 C   0  0  0  0  0  0  0  0  0  0  0  0
  2  3  1  0  0  0  0
  3  4  1  0  0  0  0
  4  5  1  0  0  0  0
  5  6  1  0  0  0  0
  6  7  1  0  0  0  0
  7  8  1  0  0  0  0
  3  8  2  0  0  0  0
  8  9  1  0  0  0  0
  9 10  1  0  0  0  0
 10 11  2  0  0  0  0
 11 12  1  0  0  0  0
 12 13  2  0  0  0  0
 13 14  1  0  0  0  0
  9 14  2  0  0  0  0
  2 14  1  0  0  0  0
  5 15  1  0  0  0  0
 15 16  1  0  0  0  0
 16 17  1  0  0  0  0
 17 18  1  0  0  0  0
  1 18  1  0  0  0  0
  1 19  1  0  0  0  0
 19 20  1  0  0  0  0
 16 20  1  0  0  0  0
 20 21  1  0  0  0  0
  4 21  1  0  0  0  0
 22 23  2  0  0  0  0
 22 24  1  0  0  0  0
 17 22  1  6  0  0  0
 16 25  1  1  0  0  0
 20 26  1  1  0  0  0
  4 27  1  6  0  0  0
 29 30  1  0  0  0  0
 30 31  1  0  0  0  0
 31 32  2  0  0  0  0
 32 33  1  0  0  0  0
 33 34  2  0  0  0  0
 34 35  1  0  0  0  0
 30 35  2  0  0  0  0
 29 36  2  0  0  0  0
 37 38  1  0  0  0  0
 34 37  1  0  0  0  0
 39 40  1  0  0  0  0
 33 39  1  0  0  0  0
 41 42  1  0  0  0  0
 32 41  1  0  0  0  0
 28 29  1  0  0  0  0
  1 28  1  6  0  0  0
 18 43  1  1  0  0  0
 24 44  1  0  0  0  0
M  END
>  <cdx:groupId>
139

>  <cdx:fragmentId>
7

$$$$
