302267.cdx
  Mrv1902 05222410222D          

 18 19  0  0  0  0            999 V2000
    4.9206   -7.2446    0.0000 O   0  0  0  0  0  0  0  0  0  0  0  0
    4.2062   -6.0071    0.0000 C   0  0  0  0  0  0  0  0  0  0  0  0
    4.9206   -5.5946    0.0000 O   0  0  0  0  0  0  0  0  0  0  0  0
    7.0641   -6.0071    0.0000 C   0  0  0  0  0  0  0  0  0  0  0  0
    6.3496   -5.5946    0.0000 C   0  0  0  0  0  0  0  0  0  0  0  0
    5.6351   -6.0071    0.0000 C   0  0  0  0  0  0  0  0  0  0  0  0
    5.6351   -6.8321    0.0000 C   0  0  0  0  0  0  0  0  0  0  0  0
    6.3496   -7.2446    0.0000 C   0  0  0  0  0  0  0  0  0  0  0  0
    7.0641   -6.8321    0.0000 C   0  0  0  0  0  0  0  0  0  0  0  0
   10.3896   -8.1033    0.0000 O   0  0  0  0  0  0  0  0  0  0  0  0
    9.9047   -7.4359    0.0000 C   0  0  0  0  0  0  0  0  0  0  0  0
    9.0073   -8.9903    0.0000 O   0  0  0  0  0  0  0  0  0  0  0  0
    7.2517   -8.6171    0.0000 O   0  0  0  0  0  0  0  0  0  0  0  0
    9.0842   -7.5221    0.0000 C   0  0  1  0  0  0  0  0  0  0  0  0
    8.6717   -8.2366    0.0000 C   0  0  1  0  0  0  0  0  0  0  0  0
    7.8648   -8.0651    0.0000 C   0  0  2  0  0  0  0  0  0  0  0  0
    7.7785   -7.2446    0.0000 C   0  0  1  0  0  0  0  0  0  0  0  0
    8.5322   -6.9090    0.0000 N   0  0  0  0  0  0  0  0  0  0  0  0
 17  9  1  6  0  0  0
  7  1  1  0  0  0  0
  6  3  1  0  0  0  0
  3  2  1  0  0  0  0
  9  4  2  0  0  0  0
  5  4  1  0  0  0  0
  6  5  2  0  0  0  0
  7  6  1  0  0  0  0
  8  7  2  0  0  0  0
  9  8  1  0  0  0  0
 14 11  1  1  0  0  0
 11 10  1  0  0  0  0
 15 12  1  6  0  0  0
 16 13  1  1  0  0  0
 18 14  1  0  0  0  0
 15 14  1  0  0  0  0
 16 15  1  0  0  0  0
 17 16  1  0  0  0  0
 18 17  1  0  0  0  0
M  END
>  <cdx:fragmentId>
27

$$$$
