30225.cdx
  Mrv1902 05222410222D          

 27 29  0  0  0  0            999 V2000
    5.8259   -7.7642    0.0000 C   0  0  1  0  0  0  0  0  0  0  0  0
    5.1577   -7.2803    0.0000 C   0  0  1  0  0  0  0  0  0  0  0  0
    6.4926   -7.2782    0.0000 C   0  0  2  0  0  0  0  0  0  0  0  0
    6.2271   -6.4910    0.0000 C   0  0  2  0  0  0  0  0  0  0  0  0
    5.4056   -6.4935    0.0000 C   0  0  0  0  0  0  0  0  0  0  0  0
    7.3233   -7.2689    0.0000 C   0  0  0  0  0  0  0  0  0  0  0  0
    7.5729   -6.4766    0.0000 C   0  0  0  0  0  0  0  0  0  0  0  0
    6.8965   -5.9962    0.0000 C   0  0  0  0  0  0  0  0  0  0  0  0
    6.8887   -5.1712    0.0000 O   0  0  0  0  0  0  0  0  0  0  0  0
    7.8148   -7.9315    0.0000 O   0  0  0  0  0  0  0  0  0  0  0  0
    6.4093   -8.3475    0.0000 O   0  0  0  0  0  0  0  0  0  0  0  0
    6.8736   -8.0099    0.0000 O   0  0  0  0  0  0  0  0  0  0  0  0
    9.3007   -5.1427    0.0000 C   0  0  0  0  0  0  0  0  0  0  0  0
    8.9735   -6.7599    0.0000 O   0  0  0  0  0  0  0  0  0  0  0  0
    8.5186   -5.4053    0.0000 C   0  0  0  0  0  0  0  0  0  0  0  0
    8.3550   -6.2140    0.0000 C   0  0  0  0  0  0  0  0  0  0  0  0
    6.0135   -5.6941    0.0000 H   0  0  0  0  0  0  0  0  0  0  0  0
    4.5743   -6.6969    0.0000 H   0  0  0  0  0  0  0  0  0  0  0  0
    4.4046   -7.6170    0.0000 C   0  0  0  0  0  0  0  0  0  0  0  0
    4.3196   -8.4377    0.0000 O   0  0  0  0  0  0  0  0  0  0  0  0
    4.9878   -8.9215    0.0000 C   0  0  0  0  0  0  0  0  0  0  0  0
    5.7410   -8.5848    0.0000 C   0  0  0  0  0  0  0  0  0  0  0  0
    3.8212   -7.0337    0.0000 C   0  0  0  0  0  0  0  0  0  0  0  0
    3.6077   -7.8306    0.0000 C   0  0  0  0  0  0  0  0  0  0  0  0
    4.9029   -9.7421    0.0000 O   0  0  0  0  0  0  0  0  0  0  0  0
    9.4643   -4.3341    0.0000 C   0  0  0  0  0  0  0  0  0  0  0  0
    7.9001   -4.8594    0.0000 C   0  0  0  0  0  0  0  0  0  0  0  0
  1  2  1  0  0  0  0
  1  3  1  0  0  0  0
  3  4  1  0  0  0  0
  4  5  1  0  0  0  0
  5  2  1  0  0  0  0
  3  6  1  0  0  0  0
  6  7  2  0  0  0  0
  7  8  1  0  0  0  0
  8  4  1  0  0  0  0
  8  9  2  0  0  0  0
  6 10  1  0  0  0  0
  1 11  1  1  0  0  0
  3 12  1  1  0  0  0
  7 16  1  0  0  0  0
 15 13  1  0  0  0  0
 16 14  2  0  0  0  0
 16 15  1  0  0  0  0
  4 17  1  1  0  0  0
  2 18  1  1  0  0  0
  2 19  1  0  0  0  0
 19 20  1  0  0  0  0
 20 21  1  0  0  0  0
 21 22  1  0  0  0  0
 22  1  1  0  0  0  0
 19 23  1  0  0  0  0
 19 24  1  0  0  0  0
 21 25  1  0  0  0  0
 13 26  1  0  0  0  0
 15 27  1  0  0  0  0
M  END
>  <cdx:fragmentId>
5

$$$$
