302243.cdx
  Mrv1902 05222410242D          

 36 39  0  0  0  0            999 V2000
    8.1094   -5.4777    0.0000 C   0  0  0  0  0  0  0  0  0  0  0  0
    8.1160   -4.6527    0.0000 C   0  0  0  0  0  0  0  0  0  0  0  0
    8.8337   -4.2460    0.0000 C   0  0  0  0  0  0  0  0  0  0  0  0
    9.5449   -4.6642    0.0000 C   0  0  0  0  0  0  0  0  0  0  0  0
    9.5383   -5.4891    0.0000 C   0  0  0  0  0  0  0  0  0  0  0  0
    8.8206   -5.8959    0.0000 C   0  0  0  0  0  0  0  0  0  0  0  0
   10.2626   -4.2574    0.0000 O   0  0  0  0  0  0  0  0  0  0  0  0
    8.8403   -3.4210    0.0000 O   0  0  0  0  0  0  0  0  0  0  0  0
    5.2319   -7.9298    0.0000 O   0  0  0  0  0  0  0  0  0  0  0  0
    3.8227   -5.4435    0.0000 O   0  0  0  0  0  0  0  0  0  0  0  0
    6.6608   -7.9412    0.0000 O   0  0  0  0  0  0  0  0  0  0  0  0
    6.6805   -5.4663    0.0000 O   0  0  0  0  0  0  0  0  0  0  0  0
    5.9628   -5.8731    0.0000 C   0  0  0  0  0  0  0  0  0  0  0  0
    5.2516   -5.4549    0.0000 C   0  0  0  0  0  0  0  0  0  0  0  0
    4.5339   -5.8617    0.0000 C   0  0  0  0  0  0  0  0  0  0  0  0
    4.5273   -6.6867    0.0000 C   0  0  0  0  0  0  0  0  0  0  0  0
    5.2385   -7.1049    0.0000 C   0  0  0  0  0  0  0  0  0  0  0  0
    5.9562   -6.6981    0.0000 C   0  0  0  0  0  0  0  0  0  0  0  0
    6.6674   -7.1163    0.0000 C   0  0  0  0  0  0  0  0  0  0  0  0
    7.3851   -6.7095    0.0000 C   0  0  0  0  0  0  0  0  0  0  0  0
    7.3917   -5.8845    0.0000 C   0  0  0  0  0  0  0  0  0  0  0  0
    8.0962   -7.1277    0.0000 O   0  0  0  0  0  0  0  0  0  0  0  0
    9.5054   -9.6140    0.0000 O   0  0  0  0  0  0  0  0  0  0  0  0
    8.0699  -10.4276    0.0000 O   0  0  0  0  0  0  0  0  0  0  0  0
    6.6476  -10.4162    0.0000 O   0  0  0  0  0  0  0  0  0  0  0  0
    6.6476   -9.5912    0.0000 C   0  0  0  0  0  0  0  0  0  0  0  0
    7.3653   -9.1844    0.0000 C   0  0  2  0  0  0  0  0  0  0  0  0
    8.0765   -9.6026    0.0000 C   0  0  1  0  0  0  0  0  0  0  0  0
    8.7942   -9.1958    0.0000 C   0  0  1  0  0  0  0  0  0  0  0  0
    8.8008   -8.3708    0.0000 C   0  0  2  0  0  0  0  0  0  0  0  0
    8.0897   -7.9526    0.0000 C   0  0  1  0  0  0  0  0  0  0  0  0
    7.3719   -8.3594    0.0000 O   0  0  0  0  0  0  0  0  0  0  0  0
    9.5186   -7.9640    0.0000 O   0  0  0  0  0  0  0  0  0  0  0  0
   10.2231   -9.2072    0.0000 O   0  0  0  0  0  0  0  0  0  0  0  0
   10.9475   -7.9754    0.0000 C   0  0  0  0  0  0  0  0  0  0  0  0
   10.2297   -8.3822    0.0000 C   0  0  0  0  0  0  0  0  0  0  0  0
 30 33  1  6  0  0  0
 31 22  1  1  0  0  0
 22 20  1  0  0  0  0
 21  1  1  0  0  0  0
 17  9  1  0  0  0  0
 15 10  1  0  0  0  0
 19 11  2  0  0  0  0
 21 12  1  0  0  0  0
 13 12  1  0  0  0  0
 18 13  2  0  0  0  0
 14 13  1  0  0  0  0
 15 14  2  0  0  0  0
 16 15  1  0  0  0  0
 17 16  2  0  0  0  0
 18 17  1  0  0  0  0
 19 18  1  0  0  0  0
 20 19  1  0  0  0  0
 21 20  2  0  0  0  0
 29 23  1  1  0  0  0
 28 24  1  1  0  0  0
 27 26  1  1  0  0  0
 26 25  1  0  0  0  0
 32 27  1  0  0  0  0
 28 27  1  0  0  0  0
 29 28  1  0  0  0  0
 30 29  1  0  0  0  0
 31 30  1  0  0  0  0
 32 31  1  0  0  0  0
 36 33  1  0  0  0  0
 36 34  2  0  0  0  0
 36 35  1  0  0  0  0
  1  2  1  0  0  0  0
  2  3  2  0  0  0  0
  3  4  1  0  0  0  0
  4  5  2  0  0  0  0
  5  6  1  0  0  0  0
  1  6  2  0  0  0  0
  4  7  1  0  0  0  0
  3  8  1  0  0  0  0
M  END
>  <cdx:fragmentId>
35

$$$$
