302200.cdx
  Mrv1902 05222410182D          

 24 26  0  0  0  0            999 V2000
   10.2829   -6.6462    0.0000 O   0  0  0  0  0  0  0  0  0  0  0  0
   10.9974   -7.8837    0.0000 C   0  0  0  0  0  0  0  0  0  0  0  0
   10.2829   -8.2962    0.0000 O   0  0  0  0  0  0  0  0  0  0  0  0
    8.1395   -7.8837    0.0000 C   0  0  0  0  0  0  0  0  0  0  0  0
    8.8539   -8.2962    0.0000 C   0  0  0  0  0  0  0  0  0  0  0  0
    9.5684   -7.8837    0.0000 C   0  0  0  0  0  0  0  0  0  0  0  0
    9.5684   -7.0587    0.0000 C   0  0  0  0  0  0  0  0  0  0  0  0
    8.8539   -6.6462    0.0000 C   0  0  0  0  0  0  0  0  0  0  0  0
    8.1395   -7.0587    0.0000 C   0  0  0  0  0  0  0  0  0  0  0  0
    7.4250   -6.6462    0.0000 C   0  0  0  0  0  0  0  0  0  0  0  0
    3.8526   -5.4087    0.0000 C   0  0  0  0  0  0  0  0  0  0  0  0
    4.5671   -5.8212    0.0000 O   0  0  0  0  0  0  0  0  0  0  0  0
    8.8539   -5.8212    0.0000 C   0  0  0  0  0  0  0  0  0  0  0  0
    4.5671   -4.1712    0.0000 O   0  0  0  0  0  0  0  0  0  0  0  0
    6.7105   -5.4087    0.0000 C   0  0  0  0  0  0  0  0  0  0  0  0
    5.9961   -5.8212    0.0000 C   0  0  0  0  0  0  0  0  0  0  0  0
    5.2816   -5.4087    0.0000 C   0  0  0  0  0  0  0  0  0  0  0  0
    5.2816   -4.5837    0.0000 C   0  0  0  0  0  0  0  0  0  0  0  0
    5.9961   -4.1712    0.0000 C   0  0  0  0  0  0  0  0  0  0  0  0
    6.7105   -4.5837    0.0000 C   0  0  0  0  0  0  0  0  0  0  0  0
    7.4250   -4.1712    0.0000 C   0  0  0  0  0  0  0  0  0  0  0  0
    8.1395   -4.5837    0.0000 C   0  0  0  0  0  0  0  0  0  0  0  0
    8.1395   -5.4087    0.0000 N   0  0  0  0  0  0  0  0  0  0  0  0
    7.4250   -5.8212    0.0000 C   0  0  0  0  0  0  0  0  0  0  0  0
 24 10  1  0  0  0  0
 10  9  1  0  0  0  0
  7  1  1  0  0  0  0
  6  3  1  0  0  0  0
  3  2  1  0  0  0  0
  9  4  2  0  0  0  0
  5  4  1  0  0  0  0
  6  5  2  0  0  0  0
  7  6  1  0  0  0  0
  8  7  2  0  0  0  0
  9  8  1  0  0  0  0
 17 12  1  0  0  0  0
 12 11  1  0  0  0  0
 23 13  1  0  0  0  0
 18 14  1  0  0  0  0
 20 15  2  0  0  0  0
 24 15  1  0  0  0  0
 16 15  1  0  0  0  0
 17 16  2  0  0  0  0
 18 17  1  0  0  0  0
 19 18  2  0  0  0  0
 20 19  1  0  0  0  0
 21 20  1  0  0  0  0
 22 21  1  0  0  0  0
 23 22  1  0  0  0  0
 24 23  1  0  0  0  0
M  END
>  <cdx:fragmentId>
238

$$$$
