302290.cdx
  Mrv1902 05222410242D          

 13 12  0  0  0  0            999 V2000
    9.9256   -7.0573    0.0000 C   0  0  0  0  0  0  0  0  0  0  0  0
    9.2112   -7.4698    0.0000 C   0  0  2  0  0  0  0  0  0  0  0  0
    8.4967   -7.0573    0.0000 C   0  0  0  0  0  0  0  0  0  0  0  0
    7.7822   -7.4698    0.0000 C   0  0  0  0  0  0  0  0  0  0  0  0
    9.9256   -6.2323    0.0000 O   0  0  0  0  0  0  0  0  0  0  0  0
   10.6401   -7.4698    0.0000 O   0  0  0  0  0  0  0  0  0  0  0  0
    7.0678   -7.0573    0.0000 O   0  0  0  0  0  0  0  0  0  0  0  0
    6.3533   -7.4698    0.0000 C   0  0  0  0  0  0  0  0  0  0  0  0
    5.6388   -7.0573    0.0000 C   0  0  1  0  0  0  0  0  0  0  0  0
    4.9244   -7.4698    0.0000 C   0  0  0  0  0  0  0  0  0  0  0  0
    4.2099   -7.0573    0.0000 O   0  0  0  0  0  0  0  0  0  0  0  0
    5.6388   -6.2323    0.0000 N   0  0  0  0  0  0  0  0  0  0  0  0
    9.2112   -8.2948    0.0000 N   0  0  0  0  0  0  0  0  0  0  0  0
  1  2  1  0  0  0  0
  2  3  1  0  0  0  0
  3  4  2  0  0  0  0
  1  5  2  0  0  0  0
  1  6  1  0  0  0  0
  8  9  1  0  0  0  0
  9 10  1  0  0  0  0
  7  8  1  0  0  0  0
 10 11  1  0  0  0  0
  9 12  1  1  0  0  0
  4  7  1  0  0  0  0
  2 13  1  1  0  0  0
M  END
>  <cdx:groupId>
40

>  <cdx:fragmentId>
19

$$$$
