302264.cdx
  Mrv1902 05222410232D          

  7  6  0  0  0  0            999 V2000
    6.9396   -6.4419    0.0000 N   0  0  0  0  0  0  0  0  0  0  0  0
    7.6541   -6.8544    0.0000 C   0  0  1  0  0  0  0  0  0  0  0  0
    8.3686   -6.4419    0.0000 C   0  0  0  0  0  0  0  0  0  0  0  0
    9.0830   -6.8544    0.0000 O   0  0  0  0  0  0  0  0  0  0  0  0
    8.3686   -5.6169    0.0000 O   0  0  0  0  0  0  0  0  0  0  0  0
    7.6541   -7.6794    0.0000 C   0  0  0  0  0  0  0  0  0  0  0  0
    6.9396   -8.0919    0.0000 C   0  0  0  0  0  0  0  0  0  0  0  0
  2  1  1  1  0  0  0
  2  3  1  0  0  0  0
  3  4  1  0  0  0  0
  3  5  2  0  0  0  0
  2  6  1  0  0  0  0
  6  7  1  0  0  0  0
M  END
>  <cdx:fragmentId>
3

$$$$
