302239.cdx
  Mrv1902 05222410192D          

 17 20  0  0  0  0            999 V2000
    8.1429   -5.8410    0.0000 C   0  0  0  0  0  0  0  0  0  0  0  0
    8.8574   -6.2535    0.0000 C   0  0  0  0  0  0  0  0  0  0  0  0
    8.8574   -7.0785    0.0000 C   0  0  0  0  0  0  0  0  0  0  0  0
    8.1429   -7.4910    0.0000 C   0  0  0  0  0  0  0  0  0  0  0  0
    8.1429   -8.3160    0.0000 C   0  0  0  0  0  0  0  0  0  0  0  0
    7.4284   -8.7285    0.0000 C   0  0  0  0  0  0  0  0  0  0  0  0
    6.7140   -8.3160    0.0000 C   0  0  0  0  0  0  0  0  0  0  0  0
    5.9995   -8.7285    0.0000 C   0  0  0  0  0  0  0  0  0  0  0  0
    5.2850   -8.3160    0.0000 C   0  0  0  0  0  0  0  0  0  0  0  0
    5.2850   -7.4910    0.0000 C   0  0  0  0  0  0  0  0  0  0  0  0
    5.9995   -7.0785    0.0000 C   0  0  0  0  0  0  0  0  0  0  0  0
    5.9988   -6.2547    0.0000 C   0  0  0  0  0  0  0  0  0  0  0  0
    6.7133   -5.8422    0.0000 C   0  0  0  0  0  0  0  0  0  0  0  0
    7.4284   -6.2535    0.0000 C   0  0  0  0  0  0  0  0  0  0  0  0
    7.4284   -7.0785    0.0000 C   0  0  0  0  0  0  0  0  0  0  0  0
    6.7140   -7.4910    0.0000 C   0  0  0  0  0  0  0  0  0  0  0  0
    9.5719   -5.8410    0.0000 C   0  0  0  0  0  0  0  0  0  0  0  0
  1  2  1  0  0  0  0
  2  3  2  0  0  0  0
  3  4  1  0  0  0  0
  4  5  2  0  0  0  0
  5  6  1  0  0  0  0
  6  7  2  0  0  0  0
  7  8  1  0  0  0  0
  8  9  2  0  0  0  0
  9 10  1  0  0  0  0
 10 11  2  0  0  0  0
 11 12  1  0  0  0  0
 12 13  2  0  0  0  0
 13 14  1  0  0  0  0
  1 14  2  0  0  0  0
 14 15  1  0  0  0  0
  4 15  1  0  0  0  0
 15 16  2  0  0  0  0
  7 16  1  0  0  0  0
 11 16  1  0  0  0  0
  2 17  1  0  0  0  0
M  END
>  <cdx:groupId>
56

>  <cdx:fragmentId>
5

$$$$
