302252.cdx
  Mrv1902 05222410252D          

 42 46  0  0  0  0            999 V2000
    9.9468   -5.4713    0.0000 C   0  0  0  0  0  0  0  0  0  0  0  0
    9.9569   -4.6463    0.0000 C   0  0  0  0  0  0  0  0  0  0  0  0
   10.6765   -4.2427    0.0000 C   0  0  0  0  0  0  0  0  0  0  0  0
   11.3858   -4.6640    0.0000 C   0  0  0  0  0  0  0  0  0  0  0  0
   11.3756   -5.4889    0.0000 C   0  0  0  0  0  0  0  0  0  0  0  0
   10.6561   -5.8925    0.0000 C   0  0  0  0  0  0  0  0  0  0  0  0
   12.1053   -4.2603    0.0000 O   0  0  0  0  0  0  0  0  0  0  0  0
   10.6867   -3.4177    0.0000 O   0  0  0  0  0  0  0  0  0  0  0  0
    7.0585   -7.9107    0.0000 O   0  0  0  0  0  0  0  0  0  0  0  0
   11.3450   -7.9637    0.0000 O   0  0  0  0  0  0  0  0  0  0  0  0
   11.3246   -9.6136    0.0000 O   0  0  0  0  0  0  0  0  0  0  0  0
    9.8856  -10.4209    0.0000 O   0  0  0  0  0  0  0  0  0  0  0  0
    8.4669   -9.5783    0.0000 C   0  0  0  0  0  0  0  0  0  0  0  0
    9.1865   -9.1746    0.0000 C   0  0  1  0  0  0  0  0  0  0  0  0
    9.8958   -9.5959    0.0000 C   0  0  1  0  0  0  0  0  0  0  0  0
   10.6153   -9.1923    0.0000 C   0  0  2  0  0  0  0  0  0  0  0  0
   10.6255   -8.3674    0.0000 C   0  0  2  0  0  0  0  0  0  0  0  0
    9.9162   -7.9461    0.0000 C   0  0  1  0  0  0  0  0  0  0  0  0
    9.1967   -8.3497    0.0000 O   0  0  0  0  0  0  0  0  0  0  0  0
    9.9264   -7.1211    0.0000 O   0  0  0  0  0  0  0  0  0  0  0  0
    5.6399   -7.0682    0.0000 O   0  0  0  0  0  0  0  0  0  0  0  0
    4.2008   -7.8754    0.0000 O   0  0  0  0  0  0  0  0  0  0  0  0
    2.7822   -7.0328    0.0000 O   0  0  0  0  0  0  0  0  0  0  0  0
    2.8026   -5.3830    0.0000 C   0  0  0  0  0  0  0  0  0  0  0  0
    3.5119   -5.8043    0.0000 C   0  0  1  0  0  0  0  0  0  0  0  0
    3.5017   -6.6292    0.0000 C   0  0  1  0  0  0  0  0  0  0  0  0
    4.2110   -7.0505    0.0000 C   0  0  2  0  0  0  0  0  0  0  0  0
    4.9305   -6.6469    0.0000 C   0  0  2  0  0  0  0  0  0  0  0  0
    4.9407   -5.8219    0.0000 C   0  0  1  0  0  0  0  0  0  0  0  0
    4.2314   -5.4006    0.0000 O   0  0  0  0  0  0  0  0  0  0  0  0
    5.6603   -5.4183    0.0000 O   0  0  0  0  0  0  0  0  0  0  0  0
    8.4873   -7.9284    0.0000 O   0  0  0  0  0  0  0  0  0  0  0  0
    8.5179   -5.4536    0.0000 O   0  0  0  0  0  0  0  0  0  0  0  0
    7.7984   -5.8572    0.0000 C   0  0  0  0  0  0  0  0  0  0  0  0
    7.0891   -5.4359    0.0000 C   0  0  0  0  0  0  0  0  0  0  0  0
    6.3696   -5.8396    0.0000 C   0  0  0  0  0  0  0  0  0  0  0  0
    6.3594   -6.6645    0.0000 C   0  0  0  0  0  0  0  0  0  0  0  0
    7.0687   -7.0858    0.0000 C   0  0  0  0  0  0  0  0  0  0  0  0
    7.7882   -6.6822    0.0000 C   0  0  0  0  0  0  0  0  0  0  0  0
    8.4975   -7.1035    0.0000 C   0  0  0  0  0  0  0  0  0  0  0  0
    9.2170   -6.6998    0.0000 C   0  0  0  0  0  0  0  0  0  0  0  0
    9.2272   -5.8749    0.0000 C   0  0  0  0  0  0  0  0  0  0  0  0
 42  1  1  0  0  0  0
 38  9  1  0  0  0  0
 41 20  1  0  0  0  0
 18 20  1  1  0  0  0
 17 10  1  6  0  0  0
 16 11  1  6  0  0  0
 15 12  1  1  0  0  0
 14 13  1  6  0  0  0
 19 14  1  0  0  0  0
 15 14  1  0  0  0  0
 16 15  1  0  0  0  0
 17 16  1  0  0  0  0
 18 17  1  0  0  0  0
 19 18  1  0  0  0  0
 36 31  1  0  0  0  0
 29 31  1  1  0  0  0
 28 21  1  6  0  0  0
 27 22  1  6  0  0  0
 26 23  1  1  0  0  0
 25 24  1  6  0  0  0
 30 25  1  0  0  0  0
 26 25  1  0  0  0  0
 27 26  1  0  0  0  0
 28 27  1  0  0  0  0
 29 28  1  0  0  0  0
 30 29  1  0  0  0  0
 40 32  2  0  0  0  0
 42 33  1  0  0  0  0
 34 33  1  0  0  0  0
 39 34  2  0  0  0  0
 35 34  1  0  0  0  0
 36 35  2  0  0  0  0
 37 36  1  0  0  0  0
 38 37  2  0  0  0  0
 39 38  1  0  0  0  0
 40 39  1  0  0  0  0
 41 40  1  0  0  0  0
 42 41  2  0  0  0  0
  1  2  1  0  0  0  0
  2  3  2  0  0  0  0
  3  4  1  0  0  0  0
  4  5  2  0  0  0  0
  5  6  1  0  0  0  0
  1  6  2  0  0  0  0
  4  7  1  0  0  0  0
  3  8  1  0  0  0  0
M  END
>  <cdx:fragmentId>
5

$$$$
