302215.cdx
  Mrv1902 05222410192D          

 42 46  0  0  0  0            999 V2000
    6.4509   -7.8400    0.0000 O   0  0  0  0  0  0  0  0  0  0  0  0
    5.7339   -8.2481    0.0000 C   0  0  2  0  0  0  0  0  0  0  0  0
    5.0220   -7.8311    0.0000 C   0  0  1  0  0  0  0  0  0  0  0  0
    5.0271   -7.0061    0.0000 C   0  0  2  0  0  0  0  0  0  0  0  0
    5.7441   -6.5981    0.0000 C   0  0  1  0  0  0  0  0  0  0  0  0
    6.4560   -7.0150    0.0000 C   0  0  1  0  0  0  0  0  0  0  0  0
    7.1730   -6.6070    0.0000 C   0  0  0  0  0  0  0  0  0  0  0  0
    7.8849   -7.0239    0.0000 O   0  0  0  0  0  0  0  0  0  0  0  0
    5.7493   -5.7731    0.0000 O   0  0  0  0  0  0  0  0  0  0  0  0
    4.3152   -6.5892    0.0000 O   0  0  0  0  0  0  0  0  0  0  0  0
    4.3049   -8.2392    0.0000 O   0  0  0  0  0  0  0  0  0  0  0  0
   10.7274   -9.5167    0.0000 C   0  0  0  0  0  0  0  0  0  0  0  0
   10.7222  -10.3416    0.0000 O   0  0  0  0  0  0  0  0  0  0  0  0
    6.4457   -8.6650    0.0000 H   0  0  0  0  0  0  0  0  0  0  0  0
   10.0201   -6.6211    0.0000 C   0  0  0  0  0  0  0  0  0  0  0  0
   10.0252   -5.7962    0.0000 C   0  0  2  0  0  0  0  0  0  0  0  0
    9.3133   -5.3792    0.0000 C   0  0  1  0  0  0  0  0  0  0  0  0
    8.5963   -5.7873    0.0000 C   0  0  2  0  0  0  0  0  0  0  0  0
    8.5911   -6.6122    0.0000 C   0  0  1  0  0  0  0  0  0  0  0  0
    9.3030   -7.0292    0.0000 O   0  0  0  0  0  0  0  0  0  0  0  0
   10.7120  -11.9916    0.0000 O   0  0  0  0  0  0  0  0  0  0  0  0
    9.2933  -10.3327    0.0000 C   0  0  0  0  0  0  0  0  0  0  0  0
   10.0052  -10.7497    0.0000 C   0  0  0  0  0  0  0  0  0  0  0  0
   10.0001  -11.5747    0.0000 C   0  0  0  0  0  0  0  0  0  0  0  0
    9.2830  -11.9827    0.0000 C   0  0  0  0  0  0  0  0  0  0  0  0
    8.5712  -11.5658    0.0000 C   0  0  0  0  0  0  0  0  0  0  0  0
    8.5763  -10.7408    0.0000 C   0  0  0  0  0  0  0  0  0  0  0  0
    9.3184   -4.5542    0.0000 O   0  0  0  0  0  0  0  0  0  0  0  0
   10.7422   -5.3881    0.0000 O   0  0  0  0  0  0  0  0  0  0  0  0
    7.8844   -5.3703    0.0000 O   0  0  0  0  0  0  0  0  0  0  0  0
    4.2998   -9.0641    0.0000 O   0  0  0  0  0  0  0  0  0  0  0  0
    7.1422  -11.5569    0.0000 O   0  0  0  0  0  0  0  0  0  0  0  0
    7.1576   -9.0819    0.0000 O   0  0  0  0  0  0  0  0  0  0  0  0
    6.4406   -9.4900    0.0000 C   0  0  0  0  0  0  0  0  0  0  0  0
    5.7287   -9.0730    0.0000 C   0  0  0  0  0  0  0  0  0  0  0  0
    5.0117   -9.4811    0.0000 C   0  0  0  0  0  0  0  0  0  0  0  0
    5.0066  -10.3061    0.0000 C   0  0  0  0  0  0  0  0  0  0  0  0
    5.7185  -10.7230    0.0000 C   0  0  0  0  0  0  0  0  0  0  0  0
    6.4355  -10.3150    0.0000 C   0  0  0  0  0  0  0  0  0  0  0  0
    7.1474  -10.7319    0.0000 C   0  0  0  0  0  0  0  0  0  0  0  0
    7.8644  -10.3238    0.0000 C   0  0  0  0  0  0  0  0  0  0  0  0
    7.8695   -9.4989    0.0000 C   0  0  0  0  0  0  0  0  0  0  0  0
  1  2  1  0  0  0  0
  2  3  1  0  0  0  0
  3  4  1  0  0  0  0
  4  5  1  0  0  0  0
  5  6  1  0  0  0  0
  1  6  1  0  0  0  0
  7  8  1  0  0  0  0
  6  7  1  1  0  0  0
  5  9  1  6  0  0  0
  4 10  1  1  0  0  0
 13 12  1  0  0  0  0
 23 13  1  0  0  0  0
 41 27  1  0  0  0  0
 24 21  1  0  0  0  0
 27 22  2  0  0  0  0
 23 22  1  0  0  0  0
 24 23  2  0  0  0  0
 25 24  1  0  0  0  0
 26 25  2  0  0  0  0
 27 26  1  0  0  0  0
  2 35  1  0  0  0  0
  3 11  1  6  0  0  0
  2 14  1  6  0  0  0
 15 16  1  0  0  0  0
 16 17  1  0  0  0  0
 36 31  1  0  0  0  0
 40 32  2  0  0  0  0
 42 33  1  0  0  0  0
 34 33  1  0  0  0  0
 39 34  2  0  0  0  0
 35 34  1  0  0  0  0
 36 35  2  0  0  0  0
 37 36  1  0  0  0  0
 38 37  2  0  0  0  0
 39 38  1  0  0  0  0
 40 39  1  0  0  0  0
 41 40  1  0  0  0  0
 42 41  2  0  0  0  0
 17 18  1  0  0  0  0
 18 19  1  0  0  0  0
 19 20  1  0  0  0  0
 20 15  1  0  0  0  0
 17 28  1  1  0  0  0
 16 29  1  6  0  0  0
 18 30  1  6  0  0  0
 19  8  1  1  0  0  0
M  END
>  <cdx:fragmentId>
5

$$$$
