302242.cdx
  Mrv1902 05222410242D          

 30 35  0  0  0  0            999 V2000
    8.1070   -7.4005    0.0000 C   0  0  1  0  0  0  0  0  0  0  0  0
    8.8916   -7.6555    0.0000 C   0  0  0  0  0  0  0  0  0  0  0  0
    9.2272   -8.4092    0.0000 C   0  0  0  0  0  0  0  0  0  0  0  0
   10.0476   -8.4954    0.0000 C   0  0  0  0  0  0  0  0  0  0  0  0
   10.5326   -7.8280    0.0000 C   0  0  0  0  0  0  0  0  0  0  0  0
   10.1970   -7.0743    0.0000 C   0  0  0  0  0  0  0  0  0  0  0  0
    9.3765   -6.9880    0.0000 C   0  0  0  0  0  0  0  0  0  0  0  0
    8.8916   -6.3206    0.0000 N   0  0  0  0  0  0  0  0  0  0  0  0
    8.1070   -6.5755    0.0000 C   0  0  2  0  0  0  0  0  0  0  0  0
    7.3925   -6.1630    0.0000 C   0  0  2  0  0  0  0  0  0  0  0  0
    7.0266   -6.9708    0.0000 C   0  0  0  0  0  0  0  0  0  0  0  0
    5.2491   -7.4005    0.0000 C   0  0  1  0  0  0  0  0  0  0  0  0
    5.2491   -6.5755    0.0000 C   0  0  0  0  0  0  0  0  0  0  0  0
    5.9636   -6.1630    0.0000 C   0  0  0  0  0  0  0  0  0  0  0  0
    6.6780   -6.5755    0.0000 N   0  0  0  0  0  0  0  0  0  0  0  0
    6.6780   -7.4005    0.0000 C   0  0  1  0  0  0  0  0  0  0  0  0
    5.9636   -7.8130    0.0000 C   0  0  1  0  0  0  0  0  0  0  0  0
    7.1623   -8.2687    0.0000 C   0  0  1  0  0  0  0  0  0  0  0  0
    7.3925   -7.8130    0.0000 C   0  0  0  0  0  0  0  0  0  0  0  0
    5.5511   -8.5275    0.0000 C   0  0  0  0  0  0  0  0  0  0  0  0
    5.9636   -9.2420    0.0000 O   0  0  0  0  0  0  0  0  0  0  0  0
    4.7261   -8.5275    0.0000 O   0  0  0  0  0  0  0  0  0  0  0  0
    7.3180   -9.0789    0.0000 O   0  0  0  0  0  0  0  0  0  0  0  0
    4.5346   -6.1630    0.0000 C   0  0  0  0  0  0  0  0  0  0  0  0
    4.5346   -5.3380    0.0000 C   0  0  0  0  0  0  0  0  0  0  0  0
    8.1932   -5.7551    0.0000 H   0  0  0  0  0  0  0  0  0  0  0  0
    7.3925   -5.3380    0.0000 H   0  0  0  0  0  0  0  0  0  0  0  0
    4.5346   -7.8130    0.0000 H   0  0  0  0  0  0  0  0  0  0  0  0
    7.4905   -7.2573    0.0000 H   0  0  0  0  0  0  0  0  0  0  0  0
    4.3136   -9.2420    0.0000 C   0  0  0  0  0  0  0  0  0  0  0  0
  1  2  1  0  0  0  0
  2  3  2  0  0  0  0
  3  4  1  0  0  0  0
  4  5  2  0  0  0  0
  5  6  1  0  0  0  0
  6  7  2  0  0  0  0
  7  8  1  0  0  0  0
  8  9  1  0  0  0  0
  9 10  1  0  0  0  0
 10 11  1  1  0  0  0
 12 11  1  1  0  0  0
 12 13  1  0  0  0  0
 13 14  1  0  0  0  0
 14 15  1  0  0  0  0
 15 16  1  0  0  0  0
 16 17  1  0  0  0  0
 17 18  1  0  0  0  0
  1 18  1  0  0  0  0
  1 19  1  1  0  0  0
 19 16  1  0  0  0  0
 12 17  1  0  0  0  0
 10 15  1  0  0  0  0
  1  9  1  0  0  0  0
  2  7  1  0  0  0  0
 20 21  2  0  0  0  0
 20 22  1  0  0  0  0
 17 20  1  6  0  0  0
 18 23  1  6  0  0  0
 24 25  1  0  0  0  0
 13 24  2  0  0  0  0
  9 26  1  6  0  0  0
 10 27  1  0  0  0  0
 12 28  1  0  0  0  0
 16 29  1  1  0  0  0
 22 30  1  0  0  0  0
M  END
>  <cdx:groupId>
97

>  <cdx:fragmentId>
5

$$$$
