302206.cdx
  Mrv1902 05222410202D          

 34 40  0  0  0  0            999 V2000
    6.8722   -5.7420    0.0000 N   0  0  0  0  0  0  0  0  0  0  0  0
    7.5867   -5.3295    0.0000 C   0  0  2  0  0  0  0  0  0  0  0  0
    7.4152   -4.5225    0.0000 C   0  0  2  0  0  0  0  0  0  0  0  0
    6.5947   -4.4363    0.0000 C   0  0  0  0  0  0  0  0  0  0  0  0
    6.2592   -5.1900    0.0000 C   0  0  0  0  0  0  0  0  0  0  0  0
    6.1098   -3.7689    0.0000 C   0  0  0  0  0  0  0  0  0  0  0  0
    5.2893   -3.8551    0.0000 C   0  0  0  0  0  0  0  0  0  0  0  0
    4.9538   -4.6088    0.0000 C   0  0  0  0  0  0  0  0  0  0  0  0
    5.4387   -5.2762    0.0000 C   0  0  0  0  0  0  0  0  0  0  0  0
    8.3713   -5.5844    0.0000 C   0  0  1  0  0  0  0  0  0  0  0  0
    8.9844   -5.0324    0.0000 C   0  0  1  0  0  0  0  0  0  0  0  0
    8.8129   -4.2254    0.0000 C   0  0  0  0  0  0  0  0  0  0  0  0
    8.0283   -3.9705    0.0000 C   0  0  2  0  0  0  0  0  0  0  0  0
    7.1452   -6.6885    0.0000 C   0  0  0  0  0  0  0  0  0  0  0  0
    7.9298   -6.9434    0.0000 C   0  0  0  0  0  0  0  0  0  0  0  0
    8.5429   -6.3914    0.0000 C   0  0  2  0  0  0  0  0  0  0  0  0
    7.6927   -3.2168    0.0000 N   0  0  0  0  0  0  0  0  0  0  0  0
    6.8722   -3.3031    0.0000 C   0  0  0  0  0  0  0  0  0  0  0  0
    6.7007   -4.1100    0.0000 C   0  0  0  0  0  0  0  0  0  0  0  0
    9.8094   -5.0324    0.0000 C   0  0  0  0  0  0  0  0  0  0  0  0
    9.2573   -6.8039    0.0000 O   0  0  0  0  0  0  0  0  0  0  0  0
    9.9718   -6.3914    0.0000 C   0  0  0  0  0  0  0  0  0  0  0  0
   10.2219   -5.7469    0.0000 C   0  0  0  0  0  0  0  0  0  0  0  0
    8.5177   -3.2168    0.0000 C   0  0  0  0  0  0  0  0  0  0  0  0
    4.1333   -4.6950    0.0000 O   0  0  0  0  0  0  0  0  0  0  0  0
    4.8044   -3.1877    0.0000 O   0  0  0  0  0  0  0  0  0  0  0  0
    5.1399   -2.4340    0.0000 C   0  0  0  0  0  0  0  0  0  0  0  0
    3.6483   -4.0276    0.0000 C   0  0  0  0  0  0  0  0  0  0  0  0
    8.7428   -3.5580    0.0000 O   0  0  0  0  0  0  0  0  0  0  0  0
    6.4307   -7.1010    0.0000 O   0  0  0  0  0  0  0  0  0  0  0  0
    8.5429   -7.2164    0.0000 H   0  0  0  0  0  0  0  0  0  0  0  0
    9.5678   -4.4490    0.0000 H   0  0  0  0  0  0  0  0  0  0  0  0
    9.1682   -5.7980    0.0000 H   0  0  0  0  0  0  0  0  0  0  0  0
    7.5867   -6.1545    0.0000 H   0  0  0  0  0  0  0  0  0  0  0  0
  1  2  1  0  0  0  0
  2  3  1  0  0  0  0
  3  4  1  6  0  0  0
  4  5  2  0  0  0  0
  5  1  1  0  0  0  0
  4  6  1  0  0  0  0
  6  7  2  0  0  0  0
  7  8  1  0  0  0  0
  8  9  2  0  0  0  0
  9  5  1  0  0  0  0
  2 10  1  0  0  0  0
 10 11  1  0  0  0  0
 11 12  1  0  0  0  0
 12 13  1  0  0  0  0
 13  3  1  0  0  0  0
  1 14  1  0  0  0  0
 14 15  1  0  0  0  0
 15 16  1  0  0  0  0
 16 10  1  0  0  0  0
 13 17  1  0  0  0  0
 17 18  1  0  0  0  0
 18 19  1  0  0  0  0
 19  3  1  0  0  0  0
 11 20  1  0  0  0  0
 16 21  1  0  0  0  0
 21 22  1  0  0  0  0
 20 23  2  0  0  0  0
 23 22  1  0  0  0  0
 17 24  1  0  0  0  0
 20 24  1  0  0  0  0
  8 25  1  0  0  0  0
  7 26  1  0  0  0  0
 26 27  1  0  0  0  0
 25 28  1  0  0  0  0
 13 29  1  6  0  0  0
 14 30  2  0  0  0  0
 16 31  1  6  0  0  0
 11 32  1  6  0  0  0
 10 33  1  6  0  0  0
  2 34  1  1  0  0  0
M  END
>  <cdx:fragmentId>
5

$$$$
