302220.cdx
  Mrv1902 05222410272D          

 20 21  0  0  0  0            999 V2000
    8.2776   -7.3637    0.0000 N   0  0  0  0  0  0  0  0  0  0  0  0
    8.1914   -8.1841    0.0000 C   0  0  0  0  0  0  0  0  0  0  0  0
    8.9450   -8.5197    0.0000 N   0  0  0  0  0  0  0  0  0  0  0  0
    9.4971   -7.9066    0.0000 C   0  0  0  0  0  0  0  0  0  0  0  0
   10.3221   -7.9066    0.0000 N   0  0  0  0  0  0  0  0  0  0  0  0
   10.7346   -7.1921    0.0000 C   0  0  0  0  0  0  0  0  0  0  0  0
   10.3221   -6.4777    0.0000 N   0  0  0  0  0  0  0  0  0  0  0  0
    9.4971   -6.4777    0.0000 C   0  0  0  0  0  0  0  0  0  0  0  0
    9.0846   -7.1921    0.0000 C   0  0  0  0  0  0  0  0  0  0  0  0
   11.5596   -7.1921    0.0000 O   0  0  0  0  0  0  0  0  0  0  0  0
    9.0846   -5.7632    0.0000 O   0  0  0  0  0  0  0  0  0  0  0  0
   10.7346   -8.6211    0.0000 C   0  0  0  0  0  0  0  0  0  0  0  0
   10.7346   -5.7632    0.0000 C   0  0  0  0  0  0  0  0  0  0  0  0
    7.4769   -8.5966    0.0000 N   0  0  0  0  0  0  0  0  0  0  0  0
    6.7624   -8.1841    0.0000 C   0  0  0  0  0  0  0  0  0  0  0  0
    6.0479   -8.5966    0.0000 C   0  0  0  0  0  0  0  0  0  0  0  0
    5.3335   -8.1841    0.0000 C   0  0  0  0  0  0  0  0  0  0  0  0
    4.6190   -8.5966    0.0000 O   0  0  0  0  0  0  0  0  0  0  0  0
    3.9045   -8.1841    0.0000 C   0  0  0  0  0  0  0  0  0  0  0  0
    3.1901   -8.5966    0.0000 C   0  0  0  0  0  0  0  0  0  0  0  0
  1  2  1  0  0  0  0
  2  3  2  0  0  0  0
  3  4  1  0  0  0  0
  4  5  1  0  0  0  0
  5  6  1  0  0  0  0
  6  7  1  0  0  0  0
  7  8  1  0  0  0  0
  8  9  1  0  0  0  0
  1  9  1  0  0  0  0
  4  9  2  0  0  0  0
  6 10  2  0  0  0  0
  8 11  2  0  0  0  0
  5 12  1  0  0  0  0
  7 13  1  0  0  0  0
 15 16  1  0  0  0  0
 16 17  1  0  0  0  0
 19 20  1  0  0  0  0
 18 19  1  0  0  0  0
 17 18  1  0  0  0  0
 14 15  1  0  0  0  0
  2 14  1  0  0  0  0
M  END
>  <cdx:groupId>
63

>  <cdx:fragmentId>
5

$$$$
