302238.cdx
  Mrv1902 05222410202D          

 16 19  0  0  0  0            999 V2000
    8.4967   -5.8410    0.0000 C   0  0  0  0  0  0  0  0  0  0  0  0
    9.2112   -6.2535    0.0000 C   0  0  0  0  0  0  0  0  0  0  0  0
    9.2112   -7.0785    0.0000 C   0  0  0  0  0  0  0  0  0  0  0  0
    8.4967   -7.4910    0.0000 C   0  0  0  0  0  0  0  0  0  0  0  0
    8.4967   -8.3160    0.0000 C   0  0  0  0  0  0  0  0  0  0  0  0
    7.7822   -8.7285    0.0000 C   0  0  0  0  0  0  0  0  0  0  0  0
    7.0678   -8.3160    0.0000 C   0  0  0  0  0  0  0  0  0  0  0  0
    6.3533   -8.7285    0.0000 C   0  0  0  0  0  0  0  0  0  0  0  0
    5.6388   -8.3160    0.0000 C   0  0  0  0  0  0  0  0  0  0  0  0
    5.6388   -7.4910    0.0000 C   0  0  0  0  0  0  0  0  0  0  0  0
    6.3533   -7.0785    0.0000 C   0  0  0  0  0  0  0  0  0  0  0  0
    6.3526   -6.2547    0.0000 C   0  0  0  0  0  0  0  0  0  0  0  0
    7.0671   -5.8422    0.0000 C   0  0  0  0  0  0  0  0  0  0  0  0
    7.7822   -6.2535    0.0000 C   0  0  0  0  0  0  0  0  0  0  0  0
    7.7822   -7.0785    0.0000 C   0  0  0  0  0  0  0  0  0  0  0  0
    7.0678   -7.4910    0.0000 C   0  0  0  0  0  0  0  0  0  0  0  0
  1  2  1  0  0  0  0
  2  3  2  0  0  0  0
  3  4  1  0  0  0  0
  4  5  2  0  0  0  0
  5  6  1  0  0  0  0
  6  7  2  0  0  0  0
  7  8  1  0  0  0  0
  8  9  2  0  0  0  0
  9 10  1  0  0  0  0
 10 11  2  0  0  0  0
 11 12  1  0  0  0  0
 12 13  2  0  0  0  0
 13 14  1  0  0  0  0
  1 14  2  0  0  0  0
 14 15  1  0  0  0  0
  4 15  1  0  0  0  0
 15 16  2  0  0  0  0
  7 16  1  0  0  0  0
 11 16  1  0  0  0  0
M  END
>  <cdx:groupId>
53

>  <cdx:fragmentId>
5

$$$$
