302272.cdx
  Mrv1902 05222410222D          

 23 23  0  0  0  0            999 V2000
   11.5623   -6.4674    0.0000 C   0  0  0  0  0  0  0  0  0  0  0  0
   10.8479   -6.8799    0.0000 C   0  0  0  0  0  0  0  0  0  0  0  0
   10.8479   -7.7049    0.0000 C   0  0  0  0  0  0  0  0  0  0  0  0
   11.5623   -8.1174    0.0000 C   0  0  0  0  0  0  0  0  0  0  0  0
   12.2768   -7.7049    0.0000 C   0  0  0  0  0  0  0  0  0  0  0  0
   12.2768   -6.8799    0.0000 C   0  0  0  0  0  0  0  0  0  0  0  0
   11.5623   -5.6424    0.0000 O   0  0  0  0  0  0  0  0  0  0  0  0
   11.5623   -8.9424    0.0000 O   0  0  0  0  0  0  0  0  0  0  0  0
   10.1334   -8.1174    0.0000 C   0  0  0  0  0  0  0  0  0  0  0  0
    9.4189   -7.7049    0.0000 C   0  0  0  0  0  0  0  0  0  0  0  0
    8.7045   -8.1174    0.0000 C   0  0  0  0  0  0  0  0  0  0  0  0
    7.9900   -7.7049    0.0000 C   0  0  0  0  0  0  0  0  0  0  0  0
    7.2755   -8.1174    0.0000 C   0  0  0  0  0  0  0  0  0  0  0  0
    6.5610   -7.7049    0.0000 C   0  0  0  0  0  0  0  0  0  0  0  0
    5.8466   -8.1174    0.0000 C   0  0  0  0  0  0  0  0  0  0  0  0
    5.1321   -7.7049    0.0000 C   0  0  0  0  0  0  0  0  0  0  0  0
    4.4176   -8.1174    0.0000 C   0  0  0  0  0  0  0  0  0  0  0  0
    3.7032   -7.7049    0.0000 C   0  0  0  0  0  0  0  0  0  0  0  0
    2.9887   -8.1174    0.0000 C   0  0  0  0  0  0  0  0  0  0  0  0
    2.2742   -7.7049    0.0000 C   0  0  0  0  0  0  0  0  0  0  0  0
    1.5597   -8.1174    0.0000 C   0  0  0  0  0  0  0  0  0  0  0  0
   12.9913   -8.1174    0.0000 O   0  0  0  0  0  0  0  0  0  0  0  0
   10.1334   -6.4674    0.0000 O   0  0  0  0  0  0  0  0  0  0  0  0
  1  2  1  0  0  0  0
  2  3  2  0  0  0  0
  3  4  1  0  0  0  0
  4  5  1  0  0  0  0
  5  6  2  0  0  0  0
  1  6  1  0  0  0  0
  1  7  2  0  0  0  0
  4  8  2  0  0  0  0
  9 10  1  0  0  0  0
 10 11  1  0  0  0  0
 11 12  1  0  0  0  0
 12 13  1  0  0  0  0
 13 14  1  0  0  0  0
 14 15  1  0  0  0  0
 15 16  1  0  0  0  0
 16 17  1  0  0  0  0
 17 18  1  0  0  0  0
 18 19  1  0  0  0  0
 19 20  1  0  0  0  0
 20 21  1  0  0  0  0
  3  9  1  0  0  0  0
  5 22  1  0  0  0  0
  2 23  1  0  0  0  0
M  END
>  <cdx:groupId>
71

>  <cdx:fragmentId>
21

$$$$
