30220.cdx
  Mrv1902 05222410222D          

 42 44  0  0  0  0            999 V2000
    4.9618  -14.3264    0.0000 C   0  0  0  0  0  0  0  0  0  0  0  0
    4.9618  -15.1514    0.0000 C   0  0  0  0  0  0  0  0  0  0  0  0
    5.6763  -15.5639    0.0000 C   0  0  0  0  0  0  0  0  0  0  0  0
    6.3907  -15.1514    0.0000 C   0  0  0  0  0  0  0  0  0  0  0  0
    6.3907  -14.3264    0.0000 C   0  0  0  0  0  0  0  0  0  0  0  0
    5.6763  -13.9139    0.0000 C   0  0  0  0  0  0  0  0  0  0  0  0
    6.3907  -12.6764    0.0000 C   0  0  0  0  0  0  0  0  0  0  0  0
    5.6763  -13.0889    0.0000 C   0  0  0  0  0  0  0  0  0  0  0  0
    4.2473  -15.5639    0.0000 O   0  0  0  0  0  0  0  0  0  0  0  0
    5.6763  -16.3889    0.0000 O   0  0  0  0  0  0  0  0  0  0  0  0
    3.5329  -15.1514    0.0000 C   0  0  0  0  0  0  0  0  0  0  0  0
    7.1052  -15.5639    0.0000 O   0  0  0  0  0  0  0  0  0  0  0  0
    7.8197  -15.1514    0.0000 C   0  0  0  0  0  0  0  0  0  0  0  0
    6.3907  -11.8514    0.0000 C   0  0  0  0  0  0  0  0  0  0  0  0
    5.6763  -11.4389    0.0000 O   0  0  0  0  0  0  0  0  0  0  0  0
    7.1052  -11.4389    0.0000 O   0  0  0  0  0  0  0  0  0  0  0  0
    7.1052  -10.6139    0.0000 C   0  0  1  0  0  0  0  0  0  0  0  0
    6.3907  -10.2014    0.0000 C   0  0  2  0  0  0  0  0  0  0  0  0
    5.6763  -10.6139    0.0000 O   0  0  0  0  0  0  0  0  0  0  0  0
    7.8197  -10.2014    0.0000 C   0  0  2  0  0  0  0  0  0  0  0  0
    7.8197   -9.3764    0.0000 C   0  0  1  0  0  0  0  0  0  0  0  0
    7.1052   -8.9639    0.0000 O   0  0  0  0  0  0  0  0  0  0  0  0
    6.3907   -9.3764    0.0000 C   0  0  2  0  0  0  0  0  0  0  0  0
    5.6763   -8.9639    0.0000 C   0  0  0  0  0  0  0  0  0  0  0  0
    8.5342   -8.9639    0.0000 O   0  0  0  0  0  0  0  0  0  0  0  0
    8.5342   -8.1389    0.0000 C   0  0  0  0  0  0  0  0  0  0  0  0
    7.8197   -7.7264    0.0000 O   0  0  0  0  0  0  0  0  0  0  0  0
    9.2486   -7.7264    0.0000 C   0  0  0  0  0  0  0  0  0  0  0  0
    9.2486   -6.9014    0.0000 C   0  0  0  0  0  0  0  0  0  0  0  0
   10.6776   -6.9014    0.0000 C   0  0  0  0  0  0  0  0  0  0  0  0
    9.9631   -6.4889    0.0000 C   0  0  0  0  0  0  0  0  0  0  0  0
   11.3920   -6.4889    0.0000 C   0  0  0  0  0  0  0  0  0  0  0  0
   11.3920   -5.6639    0.0000 C   0  0  0  0  0  0  0  0  0  0  0  0
   10.6776   -5.2514    0.0000 C   0  0  0  0  0  0  0  0  0  0  0  0
    9.9631   -5.6639    0.0000 C   0  0  0  0  0  0  0  0  0  0  0  0
   12.1065   -5.2514    0.0000 O   0  0  0  0  0  0  0  0  0  0  0  0
   10.6776   -4.4264    0.0000 O   0  0  0  0  0  0  0  0  0  0  0  0
    9.9631   -4.0139    0.0000 C   0  0  0  0  0  0  0  0  0  0  0  0
   12.1065   -6.9014    0.0000 O   0  0  0  0  0  0  0  0  0  0  0  0
   12.1065   -7.7264    0.0000 C   0  0  0  0  0  0  0  0  0  0  0  0
    4.9618   -9.3764    0.0000 O   0  0  0  0  0  0  0  0  0  0  0  0
    8.5342  -10.6139    0.0000 O   0  0  0  0  0  0  0  0  0  0  0  0
  1  2  2  0  0  0  0
  2  3  1  0  0  0  0
  3  4  2  0  0  0  0
  4  5  1  0  0  0  0
  5  6  2  0  0  0  0
  6  1  1  0  0  0  0
  7  8  2  0  0  0  0
  8  6  1  0  0  0  0
  2  9  1  0  0  0  0
 10  3  1  0  0  0  0
 11  9  1  0  0  0  0
  4 12  1  0  0  0  0
 12 13  1  0  0  0  0
  7 14  1  0  0  0  0
 14 15  2  0  0  0  0
 14 16  1  0  0  0  0
 17 16  1  1  0  0  0
 17 18  1  0  0  0  0
 18 19  1  6  0  0  0
 17 20  1  0  0  0  0
 20 21  1  0  0  0  0
 21 22  1  0  0  0  0
 22 23  1  0  0  0  0
 23 18  1  0  0  0  0
 23 24  1  1  0  0  0
 21 25  1  1  0  0  0
 25 26  1  0  0  0  0
 26 27  2  0  0  0  0
 26 28  1  0  0  0  0
 28 29  2  0  0  0  0
 30 31  1  0  0  0  0
 31 29  1  0  0  0  0
 30 32  2  0  0  0  0
 32 33  1  0  0  0  0
 33 34  2  0  0  0  0
 34 35  1  0  0  0  0
 35 31  2  0  0  0  0
 36 33  1  0  0  0  0
 37 34  1  0  0  0  0
 37 38  1  0  0  0  0
 32 39  1  0  0  0  0
 39 40  1  0  0  0  0
 24 41  1  0  0  0  0
 20 42  1  6  0  0  0
M  END
>  <cdx:fragmentId>
5

$$$$
