302276.cdx
  Mrv1902 05222410222D          

 31 32  0  0  0  0            999 V2000
    8.9100   -8.0212    0.0000 C   0  0  0  0  0  0  0  0  0  0  0  0
    6.7666   -9.2587    0.0000 C   0  0  0  0  0  0  0  0  0  0  0  0
    6.7666   -8.4337    0.0000 O   0  0  0  0  0  0  0  0  0  0  0  0
    6.0521   -8.0212    0.0000 C   0  0  0  0  0  0  0  0  0  0  0  0
    5.3376   -8.4337    0.0000 O   0  0  0  0  0  0  0  0  0  0  0  0
    8.9100   -7.1962    0.0000 C   0  0  0  0  0  0  0  0  0  0  0  0
    9.6245   -6.7837    0.0000 C   0  0  0  0  0  0  0  0  0  0  0  0
    9.6245   -8.4337    0.0000 O   0  0  0  0  0  0  0  0  0  0  0  0
    8.1955   -8.4337    0.0000 O   0  0  0  0  0  0  0  0  0  0  0  0
    9.6245   -5.9587    0.0000 C   0  0  0  0  0  0  0  0  0  0  0  0
    8.9100   -5.5462    0.0000 C   0  0  0  0  0  0  0  0  0  0  0  0
    8.9100   -4.7212    0.0000 C   0  0  0  0  0  0  0  0  0  0  0  0
    9.6245   -4.3087    0.0000 C   0  0  0  0  0  0  0  0  0  0  0  0
   10.3389   -4.7212    0.0000 C   0  0  0  0  0  0  0  0  0  0  0  0
   10.3389   -5.5462    0.0000 C   0  0  0  0  0  0  0  0  0  0  0  0
    9.6245   -3.4837    0.0000 O   0  0  0  0  0  0  0  0  0  0  0  0
    8.1955   -9.2587    0.0000 C   0  0  0  0  0  0  0  0  0  0  0  0
    6.0521   -7.1962    0.0000 C   0  0  0  0  0  0  0  0  0  0  0  0
    7.4811  -12.1462    0.0000 O   0  0  0  0  0  0  0  0  0  0  0  0
    6.0521  -12.9712    0.0000 O   0  0  0  0  0  0  0  0  0  0  0  0
    4.6232  -12.1462    0.0000 O   0  0  0  0  0  0  0  0  0  0  0  0
    3.9087  -10.9087    0.0000 O   0  0  0  0  0  0  0  0  0  0  0  0
    4.6232  -10.4962    0.0000 C   0  0  0  0  0  0  0  0  0  0  0  0
    5.3376  -10.9087    0.0000 C   0  0  2  0  0  0  0  0  0  0  0  0
    5.3376  -11.7337    0.0000 C   0  0  2  0  0  0  0  0  0  0  0  0
    6.0521  -12.1462    0.0000 C   0  0  1  0  0  0  0  0  0  0  0  0
    6.7666  -11.7337    0.0000 C   0  0  2  0  0  0  0  0  0  0  0  0
    6.7666  -10.9087    0.0000 C   0  0  1  0  0  0  0  0  0  0  0  0
    6.0521  -10.4962    0.0000 O   0  0  0  0  0  0  0  0  0  0  0  0
    7.4811  -10.4962    0.0000 O   0  0  0  0  0  0  0  0  0  0  0  0
    7.4811   -9.6712    0.0000 C   0  0  1  0  0  0  0  0  0  0  0  0
 31 30  1  1  0  0  0
 28 30  1  1  0  0  0
 27 19  1  6  0  0  0
 26 20  1  1  0  0  0
 25 21  1  6  0  0  0
 24 23  1  1  0  0  0
 23 22  1  0  0  0  0
 29 24  1  0  0  0  0
 25 24  1  0  0  0  0
 26 25  1  0  0  0  0
 27 26  1  0  0  0  0
 28 27  1  0  0  0  0
 29 28  1  0  0  0  0
 31  2  1  0  0  0  0
 17 31  1  0  0  0  0
  4  5  2  0  0  0  0
  4 18  1  0  0  0  0
  3  4  1  0  0  0  0
  2  3  1  0  0  0  0
  1  6  1  0  0  0  0
  6  7  2  0  0  0  0
  1  8  2  0  0  0  0
  1  9  1  0  0  0  0
 10 11  1  0  0  0  0
 11 12  2  0  0  0  0
 12 13  1  0  0  0  0
 13 14  2  0  0  0  0
 14 15  1  0  0  0  0
 10 15  2  0  0  0  0
 13 16  1  0  0  0  0
  7 10  1  0  0  0  0
  9 17  1  0  0  0  0
M  END
>  <cdx:fragmentId>
37

$$$$
