30231.cdx
  Mrv1902 05222410222D          

 12 13  0  0  0  0            999 V2000
    5.0306   -7.7814    0.0000 C   0  0  0  0  0  0  0  0  0  0  0  0
    5.0306   -8.6064    0.0000 C   0  0  0  0  0  0  0  0  0  0  0  0
    5.7450   -9.0189    0.0000 C   0  0  0  0  0  0  0  0  0  0  0  0
    6.4595   -8.6064    0.0000 C   0  0  0  0  0  0  0  0  0  0  0  0
    6.4595   -7.7814    0.0000 C   0  0  0  0  0  0  0  0  0  0  0  0
    5.7450   -7.3689    0.0000 C   0  0  0  0  0  0  0  0  0  0  0  0
    7.1740   -9.0189    0.0000 C   0  0  0  0  0  0  0  0  0  0  0  0
    7.8884   -8.6064    0.0000 C   0  0  0  0  0  0  0  0  0  0  0  0
    7.8884   -7.7814    0.0000 C   0  0  0  0  0  0  0  0  0  0  0  0
    7.1740   -7.3689    0.0000 C   0  0  0  0  0  0  0  0  0  0  0  0
    4.3161   -7.3689    0.0000 C   0  0  0  0  0  0  0  0  0  0  0  0
    7.1740   -9.8439    0.0000 C   0  0  0  0  0  0  0  0  0  0  0  0
  1  2  1  0  0  0  0
  2  3  2  0  0  0  0
  3  4  1  0  0  0  0
  4  5  1  0  0  0  0
  5  6  1  0  0  0  0
  6  1  2  0  0  0  0
  4  7  2  0  0  0  0
  7  8  1  0  0  0  0
  8  9  2  0  0  0  0
  9 10  1  0  0  0  0
 10  5  2  0  0  0  0
  1 11  1  0  0  0  0
  7 12  1  0  0  0  0
M  END
>  <cdx:fragmentId>
5

$$$$
