302370.cdx
  Mrv1902 05222410192D          

 65 73  0  0  0  0            999 V2000
    4.3594   -7.8118    0.0000 O   0  0  0  0  0  0  0  0  0  0  0  0
    5.0738   -8.2243    0.0000 C   0  0  0  0  0  0  0  0  0  0  0  0
    5.7883   -7.8118    0.0000 C   0  0  0  0  0  0  0  0  0  0  0  0
    5.7883   -6.9868    0.0000 C   0  0  0  0  0  0  0  0  0  0  0  0
    5.0738   -6.5743    0.0000 C   0  0  0  0  0  0  0  0  0  0  0  0
    4.3594   -6.9868    0.0000 C   0  0  0  0  0  0  0  0  0  0  0  0
    6.5028   -8.2243    0.0000 O   0  0  0  0  0  0  0  0  0  0  0  0
    6.5028   -6.5743    0.0000 O   0  0  0  0  0  0  0  0  0  0  0  0
    5.0738   -5.7493    0.0000 O   0  0  0  0  0  0  0  0  0  0  0  0
    3.6449   -6.5743    0.0000 C   0  0  0  0  0  0  0  0  0  0  0  0
    5.0738   -9.0493    0.0000 O   0  0  0  0  0  0  0  0  0  0  0  0
    3.6449  -10.6993    0.0000 O   0  0  0  0  0  0  0  0  0  0  0  0
    4.3594  -10.2868    0.0000 C   0  0  0  0  0  0  0  0  0  0  0  0
    4.3594   -9.4618    0.0000 C   0  0  0  0  0  0  0  0  0  0  0  0
    3.6449   -9.0493    0.0000 C   0  0  0  0  0  0  0  0  0  0  0  0
    2.9304   -9.4618    0.0000 C   0  0  0  0  0  0  0  0  0  0  0  0
    2.9304  -10.2868    0.0000 C   0  0  0  0  0  0  0  0  0  0  0  0
    5.0738  -10.6993    0.0000 O   0  0  0  0  0  0  0  0  0  0  0  0
    9.3607   -9.0493    0.0000 C   0  0  0  0  0  0  0  0  0  0  0  0
    8.6462   -9.4618    0.0000 C   0  0  0  0  0  0  0  0  0  0  0  0
    8.6462  -10.2868    0.0000 C   0  0  0  0  0  0  0  0  0  0  0  0
    7.9317  -10.6993    0.0000 C   0  0  0  0  0  0  0  0  0  0  0  0
    7.2172  -10.2868    0.0000 C   0  0  0  0  0  0  0  0  0  0  0  0
    6.5028  -10.6993    0.0000 C   0  0  0  0  0  0  0  0  0  0  0  0
    5.7883  -10.2868    0.0000 C   0  0  0  0  0  0  0  0  0  0  0  0
    5.7883   -9.4618    0.0000 C   0  0  0  0  0  0  0  0  0  0  0  0
    6.5028   -9.0493    0.0000 C   0  0  0  0  0  0  0  0  0  0  0  0
    7.2172   -9.4618    0.0000 C   0  0  0  0  0  0  0  0  0  0  0  0
    7.9317   -9.0493    0.0000 C   0  0  0  0  0  0  0  0  0  0  0  0
    7.9317   -8.2243    0.0000 C   0  0  0  0  0  0  0  0  0  0  0  0
    8.6462   -7.8118    0.0000 C   0  0  0  0  0  0  0  0  0  0  0  0
    9.3607   -8.2243    0.0000 C   0  0  0  0  0  0  0  0  0  0  0  0
   10.0751   -7.8118    0.0000 C   0  0  0  0  0  0  0  0  0  0  0  0
   10.0751   -6.9868    0.0000 C   0  0  0  0  0  0  0  0  0  0  0  0
   10.7896   -6.5743    0.0000 C   0  0  0  0  0  0  0  0  0  0  0  0
   11.5041   -6.9868    0.0000 C   0  0  0  0  0  0  0  0  0  0  0  0
   11.5041   -7.8118    0.0000 O   0  0  0  0  0  0  0  0  0  0  0  0
   10.7896   -8.2243    0.0000 C   0  0  0  0  0  0  0  0  0  0  0  0
   10.7896   -9.0493    0.0000 O   0  0  0  0  0  0  0  0  0  0  0  0
   10.0751   -9.4618    0.0000 C   0  0  0  0  0  0  0  0  0  0  0  0
   10.2433   -8.9272    0.0000 C   0  0  0  0  0  0  0  0  0  0  0  0
    9.3607   -6.5743    0.0000 O   0  0  0  0  0  0  0  0  0  0  0  0
   10.0751   -5.3368    0.0000 O   0  0  0  0  0  0  0  0  0  0  0  0
    9.3607   -5.7493    0.0000 C   0  0  0  0  0  0  0  0  0  0  0  0
    8.6462   -5.3368    0.0000 C   0  0  0  0  0  0  0  0  0  0  0  0
    8.6462   -4.5118    0.0000 C   0  0  0  0  0  0  0  0  0  0  0  0
    9.3607   -4.0993    0.0000 C   0  0  0  0  0  0  0  0  0  0  0  0
   10.0751   -4.5118    0.0000 C   0  0  0  0  0  0  0  0  0  0  0  0
   10.7896   -4.0993    0.0000 C   0  0  0  0  0  0  0  0  0  0  0  0
    9.3607   -3.2743    0.0000 O   0  0  0  0  0  0  0  0  0  0  0  0
    7.9317   -4.0993    0.0000 O   0  0  0  0  0  0  0  0  0  0  0  0
    7.9317   -5.7493    0.0000 O   0  0  0  0  0  0  0  0  0  0  0  0
   12.2185   -6.5743    0.0000 C   0  0  0  0  0  0  0  0  0  0  0  0
   12.9330   -6.9868    0.0000 C   0  0  0  0  0  0  0  0  0  0  0  0
   12.9330   -7.8118    0.0000 C   0  0  0  0  0  0  0  0  0  0  0  0
   13.6475   -6.5743    0.0000 C   0  0  0  0  0  0  0  0  0  0  0  0
   10.0751   -6.1618    0.0000 C   0  0  0  0  0  0  0  0  0  0  0  0
    7.2172   -8.6368    0.0000 C   0  0  0  0  0  0  0  0  0  0  0  0
    6.9153  -11.4137    0.0000 C   0  0  0  0  0  0  0  0  0  0  0  0
    6.0903  -11.4137    0.0000 C   0  0  0  0  0  0  0  0  0  0  0  0
    9.3607   -9.8743    0.0000 C   0  0  0  0  0  0  0  0  0  0  0  0
    2.2160  -10.6993    0.0000 C   0  0  0  0  0  0  0  0  0  0  0  0
    1.5015  -10.2868    0.0000 O   0  0  0  0  0  0  0  0  0  0  0  0
    2.2160   -9.0493    0.0000 O   0  0  0  0  0  0  0  0  0  0  0  0
    3.6449   -8.2243    0.0000 O   0  0  0  0  0  0  0  0  0  0  0  0
  1  2  1  0  0  0  0
  2  3  1  0  0  0  0
  3  4  1  0  0  0  0
  4  5  1  0  0  0  0
  5  6  1  0  0  0  0
  1  6  1  0  0  0  0
  3  7  1  0  0  0  0
  4  8  1  0  0  0  0
  5  9  1  0  0  0  0
  6 10  1  0  0  0  0
 12 13  1  0  0  0  0
 13 14  1  0  0  0  0
 14 15  1  0  0  0  0
 15 16  1  0  0  0  0
 16 17  1  0  0  0  0
 12 17  1  0  0  0  0
 19 20  1  0  0  0  0
 20 21  1  0  0  0  0
 21 22  1  0  0  0  0
 22 23  1  0  0  0  0
 23 24  1  0  0  0  0
 24 25  1  0  0  0  0
 25 26  1  0  0  0  0
 26 27  1  0  0  0  0
 27 28  1  0  0  0  0
 28 29  1  0  0  0  0
 29 30  1  0  0  0  0
 30 31  1  0  0  0  0
 31 32  1  0  0  0  0
 32 33  1  0  0  0  0
 33 34  1  0  0  0  0
 34 35  1  0  0  0  0
 35 36  1  0  0  0  0
 36 37  1  0  0  0  0
 37 38  1  0  0  0  0
 38 39  1  0  0  0  0
 39 40  1  0  0  0  0
 19 40  1  0  0  0  0
 19 41  1  0  0  0  0
 41 38  1  0  0  0  0
 33 38  1  0  0  0  0
 19 32  1  0  0  0  0
 20 29  1  0  0  0  0
 23 28  1  0  0  0  0
 43 44  1  0  0  0  0
 44 45  1  0  0  0  0
 45 46  1  0  0  0  0
 46 47  1  0  0  0  0
 47 48  1  0  0  0  0
 43 48  1  0  0  0  0
 48 49  1  0  0  0  0
 47 50  1  0  0  0  0
 46 51  1  0  0  0  0
 45 52  1  0  0  0  0
 42 44  1  0  0  0  0
 34 42  1  0  0  0  0
 53 54  2  0  0  0  0
 54 55  1  0  0  0  0
 54 56  1  0  0  0  0
 36 53  1  0  0  0  0
 34 57  1  0  0  0  0
 28 58  1  0  0  0  0
 24 59  1  0  0  0  0
 24 60  1  0  0  0  0
 20 61  1  0  0  0  0
 18 25  1  0  0  0  0
 13 18  1  0  0  0  0
 62 63  1  0  0  0  0
 17 62  1  0  0  0  0
 16 64  1  0  0  0  0
 15 65  1  0  0  0  0
 11 14  1  0  0  0  0
  2 11  1  0  0  0  0
M  END
>  <cdx:groupId>
205

>  <cdx:fragmentId>
41

$$$$
