3023.cdx
  Mrv1902 05222410222D          

 10 11  0  0  0  0            999 V2000
    5.6064   -5.5275    0.0000 C   0  0  0  0  0  0  0  0  0  0  0  0
    5.6064   -6.3525    0.0000 C   0  0  0  0  0  0  0  0  0  0  0  0
    6.3209   -6.7650    0.0000 C   0  0  0  0  0  0  0  0  0  0  0  0
    7.0353   -6.3525    0.0000 C   0  0  0  0  0  0  0  0  0  0  0  0
    7.0353   -5.5275    0.0000 C   0  0  0  0  0  0  0  0  0  0  0  0
    6.3209   -5.1150    0.0000 C   0  0  0  0  0  0  0  0  0  0  0  0
    7.8200   -6.6074    0.0000 N   0  0  0  0  0  0  0  0  0  0  0  0
    8.3049   -5.9400    0.0000 C   0  0  0  0  0  0  0  0  0  0  0  0
    7.8200   -5.2726    0.0000 N   0  0  0  0  0  0  0  0  0  0  0  0
    9.1299   -5.9400    0.0000 N   0  0  0  0  0  0  0  0  0  0  0  0
  1  2  2  0  0  0  0
  2  3  1  0  0  0  0
  3  4  2  0  0  0  0
  4  5  1  0  0  0  0
  5  6  2  0  0  0  0
  6  1  1  0  0  0  0
  4  7  1  0  0  0  0
  7  8  2  0  0  0  0
  8  9  1  0  0  0  0
  9  5  1  0  0  0  0
  8 10  1  0  0  0  0
M  END
>  <cdx:fragmentId>
5

$$$$
