302338.cdx
  Mrv1902 05222410232D          

 52 58  0  0  0  0            999 V2000
    7.6596   -9.0928    0.0000 O   0  0  0  0  0  0  0  0  0  0  0  0
    6.2307  -11.5678    0.0000 O   0  0  0  0  0  0  0  0  0  0  0  0
    6.9451   -7.8553    0.0000 O   0  0  0  0  0  0  0  0  0  0  0  0
    5.5162   -9.5053    0.0000 C   0  0  0  0  0  0  0  0  0  0  0  0
    5.5162  -10.3303    0.0000 C   0  0  0  0  0  0  0  0  0  0  0  0
    6.2307  -10.7428    0.0000 C   0  0  0  0  0  0  0  0  0  0  0  0
    6.9451  -10.3303    0.0000 C   0  0  0  0  0  0  0  0  0  0  0  0
    6.9451   -9.5053    0.0000 C   0  0  0  0  0  0  0  0  0  0  0  0
    6.2307   -9.0928    0.0000 C   0  0  0  0  0  0  0  0  0  0  0  0
    6.2307   -8.2678    0.0000 C   0  0  0  0  0  0  0  0  0  0  0  0
    2.9441   -8.8453    0.0000 O   0  0  0  0  0  0  0  0  0  0  0  0
    4.3730  -11.3203    0.0000 O   0  0  0  0  0  0  0  0  0  0  0  0
    5.0875   -9.2578    0.0000 C   0  0  0  0  0  0  0  0  0  0  0  0
    5.0875  -10.0828    0.0000 C   0  0  0  0  0  0  0  0  0  0  0  0
    4.3730  -10.4953    0.0000 C   0  0  0  0  0  0  0  0  0  0  0  0
    3.6586  -10.0828    0.0000 C   0  0  0  0  0  0  0  0  0  0  0  0
    3.6586   -9.2578    0.0000 C   0  0  0  0  0  0  0  0  0  0  0  0
    4.3730   -8.8453    0.0000 C   0  0  0  0  0  0  0  0  0  0  0  0
    2.9441   -6.3703    0.0000 C   0  0  0  0  0  0  0  0  0  0  0  0
    5.0875   -7.6078    0.0000 C   0  0  2  0  0  0  0  0  0  0  0  0
    4.3730   -8.0203    0.0000 C   0  0  2  0  0  0  0  0  0  0  0  0
    3.6586   -7.6078    0.0000 C   0  0  0  0  0  0  0  0  0  0  0  0
    3.6586   -6.7828    0.0000 C   0  0  0  0  0  0  0  0  0  0  0  0
    4.3730   -6.3703    0.0000 C   0  0  0  0  0  0  0  0  0  0  0  0
    5.0875   -6.7828    0.0000 C   0  0  2  0  0  0  0  0  0  0  0  0
    6.5164   -7.6078    0.0000 O   0  0  0  0  0  0  0  0  0  0  0  0
    5.0875   -5.1328    0.0000 O   0  0  0  0  0  0  0  0  0  0  0  0
   11.9059   -5.0316    0.0000 O   0  0  0  0  0  0  0  0  0  0  0  0
    8.7461   -7.1908    0.0000 O   0  0  0  0  0  0  0  0  0  0  0  0
    7.4974   -2.9345    0.0000 C   0  0  0  0  0  0  0  0  0  0  0  0
    8.9186   -3.0839    0.0000 C   0  0  0  0  0  0  0  0  0  0  0  0
    8.1649   -3.4194    0.0000 C   0  0  0  0  0  0  0  0  0  0  0  0
    8.0786   -4.2399    0.0000 C   0  0  0  0  0  0  0  0  0  0  0  0
    8.7461   -4.7248    0.0000 C   0  0  0  0  0  0  0  0  0  0  0  0
    7.9454   -7.6078    0.0000 O   0  0  0  0  0  0  0  0  0  0  0  0
    9.9294   -5.9578    0.0000 C   0  0  0  0  0  0  0  0  0  0  0  0
   10.7499   -5.8716    0.0000 C   0  0  0  0  0  0  0  0  0  0  0  0
   11.0854   -5.1179    0.0000 C   0  0  0  0  0  0  0  0  0  0  0  0
   10.6005   -4.4504    0.0000 C   0  0  0  0  0  0  0  0  0  0  0  0
    9.7800   -4.5367    0.0000 C   0  0  0  0  0  0  0  0  0  0  0  0
    9.4445   -5.2904    0.0000 C   0  0  0  0  0  0  0  0  0  0  0  0
    9.4445   -6.6252    0.0000 O   0  0  0  0  0  0  0  0  0  0  0  0
    7.9454   -5.1328    0.0000 O   0  0  0  0  0  0  0  0  0  0  0  0
    7.2309   -5.5453    0.0000 C   0  0  0  0  0  0  0  0  0  0  0  0
    6.5164   -5.1328    0.0000 C   0  0  0  0  0  0  0  0  0  0  0  0
    5.8020   -5.5453    0.0000 C   0  0  0  0  0  0  0  0  0  0  0  0
    5.8020   -6.3703    0.0000 C   0  0  0  0  0  0  0  0  0  0  0  0
    6.5164   -6.7828    0.0000 C   0  0  0  0  0  0  0  0  0  0  0  0
    7.2309   -6.3703    0.0000 C   0  0  0  0  0  0  0  0  0  0  0  0
    7.9454   -6.7828    0.0000 C   0  0  0  0  0  0  0  0  0  0  0  0
    8.6599   -6.3703    0.0000 C   0  0  2  0  0  0  0  0  0  0  0  0
    8.6599   -5.5453    0.0000 C   0  0  1  0  0  0  0  0  0  0  0  0
 25 47  1  6  0  0  0
 20 10  1  6  0  0  0
  8  1  1  0  0  0  0
  6  2  1  0  0  0  0
 10  3  2  0  0  0  0
  9  4  2  0  0  0  0
  5  4  1  0  0  0  0
  6  5  2  0  0  0  0
  7  6  1  0  0  0  0
  8  7  2  0  0  0  0
  9  8  1  0  0  0  0
 10  9  1  0  0  0  0
 21 18  1  1  0  0  0
 17 11  1  0  0  0  0
 15 12  1  0  0  0  0
 18 13  2  0  0  0  0
 14 13  1  0  0  0  0
 15 14  2  0  0  0  0
 16 15  1  0  0  0  0
 17 16  2  0  0  0  0
 18 17  1  0  0  0  0
 23 19  1  0  0  0  0
 25 20  1  0  0  0  0
 21 20  1  0  0  0  0
 22 21  1  0  0  0  0
 23 22  1  0  0  0  0
 24 23  2  0  0  0  0
 25 24  1  0  0  0  0
 48 26  1  0  0  0  0
 46 27  1  0  0  0  0
 38 28  1  0  0  0  0
 51 29  1  6  0  0  0
 52 34  1  6  0  0  0
 32 30  1  0  0  0  0
 32 31  1  0  0  0  0
 33 32  2  0  0  0  0
 34 33  1  0  0  0  0
 50 35  2  0  0  0  0
 42 51  1  0  0  0  0
 41 52  1  0  0  0  0
 42 36  1  0  0  0  0
 41 36  2  0  0  0  0
 37 36  1  0  0  0  0
 38 37  2  0  0  0  0
 39 38  1  0  0  0  0
 40 39  2  0  0  0  0
 41 40  1  0  0  0  0
 52 43  1  0  0  0  0
 44 43  1  0  0  0  0
 49 44  2  0  0  0  0
 45 44  1  0  0  0  0
 46 45  2  0  0  0  0
 47 46  1  0  0  0  0
 48 47  2  0  0  0  0
 49 48  1  0  0  0  0
 50 49  1  0  0  0  0
 51 50  1  0  0  0  0
 52 51  1  0  0  0  0
M  END
>  <cdx:fragmentId>
5

$$$$
