302321.cdx
  Mrv1902 05222410232D          

 26 29  0  0  0  0            999 V2000
    6.2202   -6.9872    0.0000 C   0  0  0  0  0  0  0  0  0  0  0  0
    5.5057   -7.3997    0.0000 C   0  0  1  0  0  0  0  0  0  0  0  0
    5.5057   -8.2247    0.0000 C   0  0  1  0  0  0  0  0  0  0  0  0
    6.2202   -8.6372    0.0000 C   0  0  0  0  0  0  0  0  0  0  0  0
    6.9347   -8.2247    0.0000 C   0  0  1  0  0  0  0  0  0  0  0  0
    7.6491   -8.6372    0.0000 C   0  0  0  0  0  0  0  0  0  0  0  0
    8.3636   -8.2247    0.0000 C   0  0  0  0  0  0  0  0  0  0  0  0
    8.3636   -7.3997    0.0000 C   0  0  0  0  0  0  0  0  0  0  0  0
    9.0781   -6.9872    0.0000 C   0  0  2  0  0  0  0  0  0  0  0  0
    9.8627   -7.2421    0.0000 C   0  0  0  0  0  0  0  0  0  0  0  0
   10.3476   -6.5747    0.0000 C   0  0  0  0  0  0  0  0  0  0  0  0
    9.8627   -5.9073    0.0000 C   0  0  0  0  0  0  0  0  0  0  0  0
    9.0781   -6.1622    0.0000 C   0  0  1  0  0  0  0  0  0  0  0  0
    8.3636   -5.7497    0.0000 C   0  0  0  0  0  0  0  0  0  0  0  0
    7.6491   -6.1622    0.0000 C   0  0  0  0  0  0  0  0  0  0  0  0
    7.6491   -6.9872    0.0000 C   0  0  2  0  0  0  0  0  0  0  0  0
    6.9347   -7.3997    0.0000 C   0  0  1  0  0  0  0  0  0  0  0  0
    7.6491   -9.4622    0.0000 O   0  0  0  0  0  0  0  0  0  0  0  0
   10.1176   -5.1226    0.0000 O   0  0  0  0  0  0  0  0  0  0  0  0
    9.0781   -5.3372    0.0000 C   0  0  0  0  0  0  0  0  0  0  0  0
    6.9347   -6.5747    0.0000 C   0  0  0  0  0  0  0  0  0  0  0  0
    9.0781   -7.8122    0.0000 O   0  0  0  0  0  0  0  0  0  0  0  0
    4.7912   -8.6372    0.0000 O   0  0  0  0  0  0  0  0  0  0  0  0
    4.7912   -6.9872    0.0000 O   0  0  0  0  0  0  0  0  0  0  0  0
    6.9347   -9.0497    0.0000 H   0  0  0  0  0  0  0  0  0  0  0  0
    7.6491   -7.8122    0.0000 H   0  0  0  0  0  0  0  0  0  0  0  0
  1  2  1  0  0  0  0
  2  3  1  0  0  0  0
  3  4  1  0  0  0  0
  4  5  1  0  0  0  0
  5  6  1  0  0  0  0
  6  7  1  0  0  0  0
  7  8  2  0  0  0  0
  8  9  1  0  0  0  0
  9 10  1  0  0  0  0
 10 11  1  0  0  0  0
 11 12  1  0  0  0  0
 12 13  1  0  0  0  0
  9 13  1  0  0  0  0
 13 14  1  0  0  0  0
 14 15  1  0  0  0  0
 15 16  1  0  0  0  0
  8 16  1  0  0  0  0
 16 17  1  0  0  0  0
  5 17  1  0  0  0  0
  1 17  1  0  0  0  0
  6 18  2  0  0  0  0
 12 19  2  0  0  0  0
 13 20  1  1  0  0  0
 17 21  1  1  0  0  0
  9 22  1  6  0  0  0
  3 23  1  1  0  0  0
  2 24  1  1  0  0  0
  5 25  1  1  0  0  0
 16 26  1  6  0  0  0
M  END
>  <cdx:fragmentId>
5

$$$$
