302371.cdx
  Mrv1902 05222410192D          

 56 62  0  0  0  0            999 V2000
   11.0010   -7.2289    0.0000 C   0  0  0  0  0  0  0  0  0  0  0  0
   11.0010   -6.4039    0.0000 C   0  0  0  0  0  0  0  0  0  0  0  0
   10.2865   -5.9914    0.0000 C   0  0  0  0  0  0  0  0  0  0  0  0
    9.5720   -6.4039    0.0000 C   0  0  0  0  0  0  0  0  0  0  0  0
    9.5720   -7.2289    0.0000 C   0  0  0  0  0  0  0  0  0  0  0  0
    8.8576   -7.6414    0.0000 C   0  0  0  0  0  0  0  0  0  0  0  0
    8.1431   -7.2289    0.0000 C   0  0  0  0  0  0  0  0  0  0  0  0
    7.4286   -7.6414    0.0000 C   0  0  0  0  0  0  0  0  0  0  0  0
    7.4286   -8.4664    0.0000 C   0  0  0  0  0  0  0  0  0  0  0  0
    8.1431   -8.8789    0.0000 C   0  0  0  0  0  0  0  0  0  0  0  0
    8.8576   -8.4664    0.0000 C   0  0  0  0  0  0  0  0  0  0  0  0
    9.5720   -8.8789    0.0000 C   0  0  0  0  0  0  0  0  0  0  0  0
   10.2865   -8.4664    0.0000 C   0  0  0  0  0  0  0  0  0  0  0  0
   10.2865   -7.6414    0.0000 C   0  0  0  0  0  0  0  0  0  0  0  0
   12.3350   -7.2755    0.0000 O   0  0  0  0  0  0  0  0  0  0  0  0
   12.0529   -8.0507    0.0000 C   0  0  0  0  0  0  0  0  0  0  0  0
   11.2284   -8.0220    0.0000 C   0  0  0  0  0  0  0  0  0  0  0  0
   11.6849   -6.7676    0.0000 C   0  0  0  0  0  0  0  0  0  0  0  0
   12.5142   -8.7347    0.0000 O   0  0  0  0  0  0  0  0  0  0  0  0
   10.8224   -7.9508    0.0000 C   0  0  0  0  0  0  0  0  0  0  0  0
    8.5556   -9.5934    0.0000 C   0  0  0  0  0  0  0  0  0  0  0  0
    7.7306   -9.5934    0.0000 C   0  0  0  0  0  0  0  0  0  0  0  0
    8.8576   -6.8164    0.0000 C   0  0  0  0  0  0  0  0  0  0  0  0
   12.1280   -5.2769    0.0000 O   0  0  0  0  0  0  0  0  0  0  0  0
   11.7155   -5.9914    0.0000 C   0  0  0  0  0  0  0  0  0  0  0  0
   12.5405   -5.9914    0.0000 C   0  0  0  0  0  0  0  0  0  0  0  0
   12.9530   -6.7059    0.0000 C   0  0  0  0  0  0  0  0  0  0  0  0
   13.3655   -5.9914    0.0000 C   0  0  0  0  0  0  0  0  0  0  0  0
   13.7780   -6.7059    0.0000 C   0  0  0  0  0  0  0  0  0  0  0  0
   14.6030   -6.7059    0.0000 C   0  0  0  0  0  0  0  0  0  0  0  0
   15.0155   -7.4204    0.0000 C   0  0  0  0  0  0  0  0  0  0  0  0
   15.8405   -7.4204    0.0000 C   0  0  0  0  0  0  0  0  0  0  0  0
   14.6030   -8.1348    0.0000 C   0  0  0  0  0  0  0  0  0  0  0  0
   13.3655   -7.4204    0.0000 O   0  0  0  0  0  0  0  0  0  0  0  0
    6.7142   -8.8789    0.0000 O   0  0  0  0  0  0  0  0  0  0  0  0
    5.9997   -7.6414    0.0000 O   0  0  0  0  0  0  0  0  0  0  0  0
    5.9997   -8.4664    0.0000 C   0  0  0  0  0  0  0  0  0  0  0  0
    5.2852   -8.8789    0.0000 C   0  0  0  0  0  0  0  0  0  0  0  0
    4.5707   -8.4664    0.0000 C   0  0  0  0  0  0  0  0  0  0  0  0
    4.5707   -7.6414    0.0000 C   0  0  0  0  0  0  0  0  0  0  0  0
    5.2852   -7.2289    0.0000 C   0  0  0  0  0  0  0  0  0  0  0  0
    3.8563   -8.8789    0.0000 O   0  0  0  0  0  0  0  0  0  0  0  0
    3.1418   -7.6414    0.0000 O   0  0  0  0  0  0  0  0  0  0  0  0
    3.1418   -8.4664    0.0000 C   0  0  0  0  0  0  0  0  0  0  0  0
    2.4273   -8.8789    0.0000 C   0  0  0  0  0  0  0  0  0  0  0  0
    1.7129   -8.4664    0.0000 C   0  0  0  0  0  0  0  0  0  0  0  0
    1.7129   -7.6414    0.0000 C   0  0  0  0  0  0  0  0  0  0  0  0
    2.4273   -7.2289    0.0000 C   0  0  0  0  0  0  0  0  0  0  0  0
    2.4273   -6.4039    0.0000 C   0  0  0  0  0  0  0  0  0  0  0  0
    0.9984   -7.2289    0.0000 O   0  0  0  0  0  0  0  0  0  0  0  0
    0.9984   -8.8789    0.0000 O   0  0  0  0  0  0  0  0  0  0  0  0
    2.4273   -9.7039    0.0000 O   0  0  0  0  0  0  0  0  0  0  0  0
    5.2852   -6.4039    0.0000 C   0  0  0  0  0  0  0  0  0  0  0  0
    4.5707   -5.9914    0.0000 O   0  0  0  0  0  0  0  0  0  0  0  0
    3.8563   -7.2289    0.0000 O   0  0  0  0  0  0  0  0  0  0  0  0
    5.2852   -9.7039    0.0000 O   0  0  0  0  0  0  0  0  0  0  0  0
  1  2  1  0  0  0  0
  2  3  1  0  0  0  0
  3  4  1  0  0  0  0
  4  5  1  0  0  0  0
  5  6  1  0  0  0  0
  6  7  1  0  0  0  0
  7  8  1  0  0  0  0
  8  9  1  0  0  0  0
  9 10  1  0  0  0  0
 10 11  1  0  0  0  0
  6 11  1  0  0  0  0
 11 12  1  0  0  0  0
 12 13  1  0  0  0  0
 13 14  1  0  0  0  0
  1 14  1  0  0  0  0
  5 14  1  0  0  0  0
 15 16  1  0  0  0  0
 16 17  1  0  0  0  0
 15 18  1  0  0  0  0
 17  1  1  0  0  0  0
 18  1  1  0  0  0  0
 16 19  2  0  0  0  0
 14 20  1  0  0  0  0
 10 21  1  0  0  0  0
 10 22  1  0  0  0  0
  6 23  1  0  0  0  0
 24 25  1  0  0  0  0
 25 26  1  0  0  0  0
 24 26  1  0  0  0  0
 26 27  1  0  0  0  0
 28 29  1  0  0  0  0
 29 30  1  0  0  0  0
 30 31  2  0  0  0  0
 31 32  1  0  0  0  0
 31 33  1  0  0  0  0
 29 34  1  0  0  0  0
 26 28  1  0  0  0  0
  2 25  1  0  0  0  0
 36 37  1  0  0  0  0
 37 38  1  0  0  0  0
 38 39  1  0  0  0  0
 39 40  1  0  0  0  0
 40 41  1  0  0  0  0
 36 41  1  0  0  0  0
 43 44  1  0  0  0  0
 44 45  1  0  0  0  0
 45 46  1  0  0  0  0
 46 47  1  0  0  0  0
 47 48  1  0  0  0  0
 43 48  1  0  0  0  0
 48 49  1  0  0  0  0
 47 50  1  0  0  0  0
 46 51  1  0  0  0  0
 45 52  1  0  0  0  0
 42 44  1  0  0  0  0
 39 42  1  0  0  0  0
 53 54  1  0  0  0  0
 41 53  1  0  0  0  0
 40 55  1  0  0  0  0
 38 56  1  0  0  0  0
 35 37  1  0  0  0  0
  9 35  1  0  0  0  0
M  END
>  <cdx:groupId>
176

>  <cdx:fragmentId>
5

$$$$
