302314.cdx
  Mrv1902 05222410202D          

 68 76  0  0  0  0            999 V2000
   12.6543   -7.8566    0.0000 C   0  0  0  0  0  0  0  0  0  0  0  0
   12.6543   -8.6816    0.0000 C   0  0  1  0  0  0  0  0  0  0  0  0
   11.9398   -9.0941    0.0000 C   0  0  0  0  0  0  0  0  0  0  0  0
   11.2253   -8.6816    0.0000 C   0  0  1  0  0  0  0  0  0  0  0  0
   10.5109   -9.0941    0.0000 C   0  0  2  0  0  0  0  0  0  0  0  0
   10.5109   -9.9191    0.0000 C   0  0  0  0  0  0  0  0  0  0  0  0
    9.7964  -10.3316    0.0000 C   0  0  0  0  0  0  0  0  0  0  0  0
    9.0819   -9.9191    0.0000 C   0  0  1  0  0  0  0  0  0  0  0  0
    8.3674  -10.3316    0.0000 C   0  0  1  0  0  0  0  0  0  0  0  0
    7.6530   -9.9191    0.0000 C   0  0  2  0  0  0  0  0  0  0  0  0
    7.6530   -9.0941    0.0000 C   0  0  0  0  0  0  0  0  0  0  0  0
    8.3674   -8.6816    0.0000 C   0  0  0  0  0  0  0  0  0  0  0  0
    9.0819   -9.0941    0.0000 C   0  0  2  0  0  0  0  0  0  0  0  0
    9.7964   -8.6816    0.0000 C   0  0  1  0  0  0  0  0  0  0  0  0
    9.7964   -7.8566    0.0000 C   0  0  0  0  0  0  0  0  0  0  0  0
   10.5109   -7.4441    0.0000 C   0  0  0  0  0  0  0  0  0  0  0  0
   11.2253   -7.8566    0.0000 C   0  0  0  0  0  0  0  0  0  0  0  0
   11.9398   -7.4441    0.0000 C   0  0  2  0  0  0  0  0  0  0  0  0
   11.9398   -6.6191    0.0000 C   0  0  0  0  0  0  0  0  0  0  0  0
   12.6543   -6.2066    0.0000 C   0  0  2  0  0  0  0  0  0  0  0  0
   13.3687   -6.6191    0.0000 C   0  0  0  0  0  0  0  0  0  0  0  0
   13.3687   -7.4441    0.0000 C   0  0  0  0  0  0  0  0  0  0  0  0
   14.0832   -6.2066    0.0000 O   0  0  0  0  0  0  0  0  0  0  0  0
   12.2418   -5.4921    0.0000 C   0  0  0  0  0  0  0  0  0  0  0  0
   13.0668   -5.4921    0.0000 C   0  0  0  0  0  0  0  0  0  0  0  0
    9.0819   -8.2691    0.0000 C   0  0  0  0  0  0  0  0  0  0  0  0
    8.7799  -11.0460    0.0000 C   0  0  0  0  0  0  0  0  0  0  0  0
    7.9549  -11.0460    0.0000 C   0  0  0  0  0  0  0  0  0  0  0  0
   10.5109   -8.2691    0.0000 C   0  0  0  0  0  0  0  0  0  0  0  0
   11.2253   -9.5066    0.0000 C   0  0  0  0  0  0  0  0  0  0  0  0
   13.3687   -9.0941    0.0000 O   0  0  0  0  0  0  0  0  0  0  0  0
    5.5096  -11.1566    0.0000 O   0  0  0  0  0  0  0  0  0  0  0  0
    4.0919  -11.1841    0.0000 O   0  0  0  0  0  0  0  0  0  0  0  0
    4.8064  -11.5966    0.0000 C   0  0  2  0  0  0  0  0  0  0  0  0
    4.8064  -12.4216    0.0000 C   0  0  1  0  0  0  0  0  0  0  0  0
    4.0919  -12.8341    0.0000 C   0  0  2  0  0  0  0  0  0  0  0  0
    3.3775  -12.4216    0.0000 C   0  0  1  0  0  0  0  0  0  0  0  0
    3.3775  -11.5966    0.0000 C   0  0  1  0  0  0  0  0  0  0  0  0
    5.5209  -12.8341    0.0000 O   0  0  0  0  0  0  0  0  0  0  0  0
    4.8064  -14.0716    0.0000 O   0  0  0  0  0  0  0  0  0  0  0  0
    5.5209  -13.6591    0.0000 C   0  0  2  0  0  0  0  0  0  0  0  0
    6.2354  -14.0716    0.0000 C   0  0  1  0  0  0  0  0  0  0  0  0
    6.2354  -14.8966    0.0000 C   0  0  1  0  0  0  0  0  0  0  0  0
    5.5209  -15.3091    0.0000 C   0  0  2  0  0  0  0  0  0  0  0  0
    4.8064  -14.8966    0.0000 C   0  0  2  0  0  0  0  0  0  0  0  0
    4.0919  -15.3091    0.0000 C   0  0  0  0  0  0  0  0  0  0  0  0
    5.5209  -16.1341    0.0000 O   0  0  0  0  0  0  0  0  0  0  0  0
    6.9498  -15.3091    0.0000 O   0  0  0  0  0  0  0  0  0  0  0  0
    6.9498  -13.6591    0.0000 O   0  0  0  0  0  0  0  0  0  0  0  0
    2.6630  -11.1841    0.0000 C   0  0  0  0  0  0  0  0  0  0  0  0
    2.6630  -10.3591    0.0000 O   0  0  0  0  0  0  0  0  0  0  0  0
    2.6630  -12.8341    0.0000 O   0  0  0  0  0  0  0  0  0  0  0  0
    4.0919  -13.6591    0.0000 O   0  0  0  0  0  0  0  0  0  0  0  0
    4.0806  -10.3316    0.0000 O   0  0  0  0  0  0  0  0  0  0  0  0
    4.0806   -8.6816    0.0000 O   0  0  0  0  0  0  0  0  0  0  0  0
    5.5096   -7.8566    0.0000 C   0  0  0  0  0  0  0  0  0  0  0  0
    5.5096   -8.6816    0.0000 C   0  0  2  0  0  0  0  0  0  0  0  0
    4.7951   -9.0941    0.0000 C   0  0  1  0  0  0  0  0  0  0  0  0
    4.7951   -9.9191    0.0000 C   0  0  1  0  0  0  0  0  0  0  0  0
    5.5096  -10.3316    0.0000 C   0  0  2  0  0  0  0  0  0  0  0  0
    6.2240   -9.9191    0.0000 C   0  0  1  0  0  0  0  0  0  0  0  0
    6.2240   -9.0941    0.0000 O   0  0  0  0  0  0  0  0  0  0  0  0
    6.9385  -10.3316    0.0000 O   0  0  0  0  0  0  0  0  0  0  0  0
   11.2253   -7.0316    0.0000 O   0  0  0  0  0  0  0  0  0  0  0  0
   12.6543   -7.0316    0.0000 C   0  0  0  0  0  0  0  0  0  0  0  0
   11.9398   -8.2691    0.0000 H   0  0  0  0  0  0  0  0  0  0  0  0
    9.0819  -10.7441    0.0000 H   0  0  0  0  0  0  0  0  0  0  0  0
    9.7964   -9.5066    0.0000 H   0  0  0  0  0  0  0  0  0  0  0  0
 61 63  1  1  0  0  0
 60 32  1  6  0  0  0
 33 34  1  0  0  0  0
 59 54  1  1  0  0  0
 58 55  1  1  0  0  0
 57 56  1  1  0  0  0
 62 57  1  0  0  0  0
 58 57  1  0  0  0  0
 59 58  1  0  0  0  0
 60 59  1  0  0  0  0
  1  2  1  0  0  0  0
  2  3  1  0  0  0  0
  3  4  1  0  0  0  0
  4  5  1  0  0  0  0
  5  6  1  0  0  0  0
  6  7  1  0  0  0  0
  7  8  1  0  0  0  0
  8  9  1  0  0  0  0
  9 10  1  0  0  0  0
 10 11  1  0  0  0  0
 11 12  1  0  0  0  0
 12 13  1  0  0  0  0
 13 14  1  0  0  0  0
 14 15  1  0  0  0  0
 15 16  2  0  0  0  0
 16 17  1  0  0  0  0
 17 18  1  0  0  0  0
 18 19  1  0  0  0  0
 19 20  1  0  0  0  0
 20 21  1  0  0  0  0
 21 22  1  0  0  0  0
  1 22  1  0  0  0  0
  1 18  1  0  0  0  0
  4 17  1  0  0  0  0
  5 14  1  0  0  0  0
  8 13  1  0  0  0  0
 21 23  2  0  0  0  0
 20 24  1  1  0  0  0
 20 25  1  6  0  0  0
 13 26  1  1  0  0  0
  9 27  1  6  0  0  0
  9 28  1  1  0  0  0
  5 29  1  1  0  0  0
  4 30  1  6  0  0  0
  2 31  1  6  0  0  0
 61 60  1  0  0  0  0
 62 61  1  0  0  0  0
 34 35  1  0  0  0  0
 35 36  1  0  0  0  0
 36 37  1  0  0  0  0
 37 38  1  0  0  0  0
 33 38  1  0  0  0  0
 40 41  1  0  0  0  0
 41 42  1  0  0  0  0
 42 43  1  0  0  0  0
 43 44  1  0  0  0  0
 44 45  1  0  0  0  0
 40 45  1  0  0  0  0
 45 46  1  6  0  0  0
 44 47  1  1  0  0  0
 43 48  1  6  0  0  0
 42 49  1  6  0  0  0
 41 39  1  1  0  0  0
 35 39  1  6  0  0  0
 50 51  1  0  0  0  0
 38 50  1  1  0  0  0
 37 52  1  6  0  0  0
 36 53  1  1  0  0  0
 10 63  1  1  0  0  0
 17 64  1  0  0  0  0
  1 65  1  0  0  0  0
 65 64  1  0  0  0  0
 18 66  1  1  0  0  0
  8 67  1  6  0  0  0
 14 68  1  6  0  0  0
 34 32  1  1  0  0  0
M  END
>  <cdx:fragmentId>
5

$$$$
