30239.cdx
  Mrv1902 05222410242D          

 14 15  0  0  0  0            999 V2000
    6.6233  -12.6920    0.0000 C   0  0  0  0  0  0  0  0  0  0  0  0
    6.8689  -13.4796    0.0000 C   0  0  0  0  0  0  0  0  0  0  0  0
    7.6938  -13.4895    0.0000 C   0  0  0  0  0  0  0  0  0  0  0  0
    7.9581  -12.7079    0.0000 O   0  0  0  0  0  0  0  0  0  0  0  0
    7.2965  -12.2151    0.0000 C   0  0  0  0  0  0  0  0  0  0  0  0
    7.3063  -11.3902    0.0000 C   0  0  0  0  0  0  0  0  0  0  0  0
    6.5968  -10.9692    0.0000 O   0  0  0  0  0  0  0  0  0  0  0  0
    8.0257  -10.9862    0.0000 C   0  0  0  0  0  0  0  0  0  0  0  0
    8.0257  -10.1612    0.0000 N   0  0  0  0  0  0  0  0  0  0  0  0
    8.6931   -9.6763    0.0000 C   0  0  0  0  0  0  0  0  0  0  0  0
    8.4382   -8.8917    0.0000 C   0  0  0  0  0  0  0  0  0  0  0  0
    7.6132   -8.8917    0.0000 C   0  0  0  0  0  0  0  0  0  0  0  0
    7.3582   -9.6763    0.0000 C   0  0  0  0  0  0  0  0  0  0  0  0
    9.4777   -9.9312    0.0000 O   0  0  0  0  0  0  0  0  0  0  0  0
  1  2  1  0  0  0  0
  2  3  2  0  0  0  0
  3  4  1  0  0  0  0
  4  5  1  0  0  0  0
  5  1  2  0  0  0  0
  5  6  1  0  0  0  0
  6  7  2  0  0  0  0
  6  8  1  0  0  0  0
  8  9  1  0  0  0  0
  9 10  1  0  0  0  0
 10 11  1  0  0  0  0
 11 12  1  0  0  0  0
 12 13  1  0  0  0  0
 13  9  1  0  0  0  0
 10 14  2  0  0  0  0
M  END
>  <cdx:fragmentId>
5

$$$$
