302336.cdx
  Mrv1902 05222410242D          

 36 38  0  0  0  0            999 V2000
    8.0315   -8.1134    0.0000 C   0  0  0  0  0  0  0  0  0  0  0  0
    8.0250   -7.2884    0.0000 C   0  0  0  0  0  0  0  0  0  0  0  0
    8.7362   -6.8703    0.0000 C   0  0  0  0  0  0  0  0  0  0  0  0
    9.4539   -7.2771    0.0000 C   0  0  0  0  0  0  0  0  0  0  0  0
    9.4604   -8.1021    0.0000 C   0  0  0  0  0  0  0  0  0  0  0  0
    8.7492   -8.5202    0.0000 C   0  0  0  0  0  0  0  0  0  0  0  0
   10.1651   -6.8590    0.0000 O   0  0  0  0  0  0  0  0  0  0  0  0
    8.7297   -6.0453    0.0000 C   0  0  0  0  0  0  0  0  0  0  0  0
    9.4408   -5.6272    0.0000 C   0  0  0  0  0  0  0  0  0  0  0  0
    9.4343   -4.8022    0.0000 C   0  0  0  0  0  0  0  0  0  0  0  0
   10.1455   -4.3841    0.0000 C   0  0  0  0  0  0  0  0  0  0  0  0
   10.1390   -3.5591    0.0000 C   0  0  0  0  0  0  0  0  0  0  0  0
   10.8502   -3.1410    0.0000 C   0  0  0  0  0  0  0  0  0  0  0  0
   10.8437   -2.3160    0.0000 C   0  0  0  0  0  0  0  0  0  0  0  0
   10.1260   -1.9091    0.0000 C   0  0  0  0  0  0  0  0  0  0  0  0
   11.5549   -1.8979    0.0000 C   0  0  0  0  0  0  0  0  0  0  0  0
    8.7166   -4.3953    0.0000 C   0  0  0  0  0  0  0  0  0  0  0  0
    8.0445   -9.7633    0.0000 O   0  0  0  0  0  0  0  0  0  0  0  0
    5.1932  -10.6109    0.0000 O   0  0  0  0  0  0  0  0  0  0  0  0
    3.7448   -8.1472    0.0000 O   0  0  0  0  0  0  0  0  0  0  0  0
    3.7253   -5.6723    0.0000 C   0  0  0  0  0  0  0  0  0  0  0  0
    5.1542   -5.6610    0.0000 C   0  0  0  0  0  0  0  0  0  0  0  0
    4.4430   -6.0791    0.0000 C   0  0  0  0  0  0  0  0  0  0  0  0
    4.4495   -6.9041    0.0000 C   0  0  0  0  0  0  0  0  0  0  0  0
    5.1672   -7.3110    0.0000 C   0  0  0  0  0  0  0  0  0  0  0  0
    6.6221  -10.5996    0.0000 O   0  0  0  0  0  0  0  0  0  0  0  0
    6.6026   -8.1247    0.0000 O   0  0  0  0  0  0  0  0  0  0  0  0
    5.8914   -8.5428    0.0000 C   0  0  0  0  0  0  0  0  0  0  0  0
    5.1737   -8.1359    0.0000 C   0  0  0  0  0  0  0  0  0  0  0  0
    4.4625   -8.5541    0.0000 C   0  0  0  0  0  0  0  0  0  0  0  0
    4.4690   -9.3790    0.0000 C   0  0  0  0  0  0  0  0  0  0  0  0
    5.1867   -9.7859    0.0000 C   0  0  0  0  0  0  0  0  0  0  0  0
    5.8979   -9.3678    0.0000 C   0  0  0  0  0  0  0  0  0  0  0  0
    6.6156   -9.7746    0.0000 C   0  0  0  0  0  0  0  0  0  0  0  0
    7.3268   -9.3565    0.0000 C   0  0  0  0  0  0  0  0  0  0  0  0
    7.3203   -8.5315    0.0000 C   0  0  0  0  0  0  0  0  0  0  0  0
 36  1  1  0  0  0  0
 35 18  1  0  0  0  0
 32 19  1  0  0  0  0
 30 20  1  0  0  0  0
 29 25  1  0  0  0  0
 23 21  1  0  0  0  0
 23 22  1  0  0  0  0
 24 23  2  0  0  0  0
 25 24  1  0  0  0  0
 34 26  2  0  0  0  0
 36 27  1  0  0  0  0
 28 27  1  0  0  0  0
 33 28  2  0  0  0  0
 29 28  1  0  0  0  0
 30 29  2  0  0  0  0
 31 30  1  0  0  0  0
 32 31  2  0  0  0  0
 33 32  1  0  0  0  0
 34 33  1  0  0  0  0
 35 34  1  0  0  0  0
 36 35  2  0  0  0  0
  1  2  1  0  0  0  0
  2  3  2  0  0  0  0
  3  4  1  0  0  0  0
  4  5  2  0  0  0  0
  5  6  1  0  0  0  0
  1  6  2  0  0  0  0
  4  7  1  0  0  0  0
  8  9  1  0  0  0  0
  9 10  2  0  0  0  0
 10 11  1  0  0  0  0
 11 12  1  0  0  0  0
 12 13  1  0  0  0  0
 13 14  2  0  0  0  0
 14 15  1  0  0  0  0
 14 16  1  0  0  0  0
 10 17  1  0  0  0  0
  3  8  1  0  0  0  0
M  END
>  <cdx:fragmentId>
5

$$$$
