302385.cdx
  Mrv1902 05222410282D          

 57 63  0  0  0  0            999 V2000
    8.7079   -8.6368    0.0000 O   0  0  0  0  0  0  0  0  0  0  0  0
    9.4224   -9.0493    0.0000 C   0  0  1  0  0  0  0  0  0  0  0  0
   10.1368   -8.6368    0.0000 C   0  0  2  0  0  0  0  0  0  0  0  0
   10.1368   -7.8118    0.0000 C   0  0  1  0  0  0  0  0  0  0  0  0
    9.4224   -7.3993    0.0000 C   0  0  2  0  0  0  0  0  0  0  0  0
    8.7079   -7.8118    0.0000 C   0  0  2  0  0  0  0  0  0  0  0  0
    9.4224   -9.8743    0.0000 C   0  0  0  0  0  0  0  0  0  0  0  0
    8.7079  -10.2868    0.0000 O   0  0  0  0  0  0  0  0  0  0  0  0
   10.1368  -10.2868    0.0000 O   0  0  0  0  0  0  0  0  0  0  0  0
    9.4224   -6.5743    0.0000 O   0  0  0  0  0  0  0  0  0  0  0  0
   10.8513   -6.5743    0.0000 O   0  0  0  0  0  0  0  0  0  0  0  0
   10.1368   -6.1618    0.0000 C   0  0  2  0  0  0  0  0  0  0  0  0
   10.1368   -5.3368    0.0000 C   0  0  1  0  0  0  0  0  0  0  0  0
   10.8513   -4.9243    0.0000 C   0  0  2  0  0  0  0  0  0  0  0  0
   11.5658   -5.3368    0.0000 C   0  0  1  0  0  0  0  0  0  0  0  0
   11.5658   -6.1618    0.0000 C   0  0  1  0  0  0  0  0  0  0  0  0
   12.2802   -6.5743    0.0000 C   0  0  0  0  0  0  0  0  0  0  0  0
   12.9947   -6.1618    0.0000 O   0  0  0  0  0  0  0  0  0  0  0  0
   12.2802   -4.9243    0.0000 O   0  0  0  0  0  0  0  0  0  0  0  0
   10.8513   -4.0993    0.0000 O   0  0  0  0  0  0  0  0  0  0  0  0
    9.4224   -4.9243    0.0000 O   0  0  0  0  0  0  0  0  0  0  0  0
   10.8513   -7.3993    0.0000 O   0  0  0  0  0  0  0  0  0  0  0  0
   10.8513   -9.0493    0.0000 O   0  0  0  0  0  0  0  0  0  0  0  0
    7.9934   -7.3993    0.0000 O   0  0  0  0  0  0  0  0  0  0  0  0
    7.2790   -7.8118    0.0000 C   0  0  0  0  0  0  0  0  0  0  0  0
    7.2790   -8.6368    0.0000 O   0  0  0  0  0  0  0  0  0  0  0  0
    5.8500   -6.1618    0.0000 C   0  0  0  0  0  0  0  0  0  0  0  0
    6.5645   -5.7493    0.0000 C   0  0  0  0  0  0  0  0  0  0  0  0
    7.2790   -6.1618    0.0000 C   0  0  0  0  0  0  0  0  0  0  0  0
    7.2790   -6.9868    0.0000 C   0  0  0  0  0  0  0  0  0  0  0  0
    6.5645   -7.3993    0.0000 C   0  0  1  0  0  0  0  0  0  0  0  0
    6.5645   -8.2243    0.0000 C   0  0  0  0  0  0  0  0  0  0  0  0
    5.8500   -8.6368    0.0000 C   0  0  0  0  0  0  0  0  0  0  0  0
    5.1355   -8.2243    0.0000 C   0  0  2  0  0  0  0  0  0  0  0  0
    4.4211   -8.6368    0.0000 C   0  0  1  0  0  0  0  0  0  0  0  0
    4.4211   -9.4618    0.0000 C   0  0  0  0  0  0  0  0  0  0  0  0
    3.7066   -9.8743    0.0000 C   0  0  0  0  0  0  0  0  0  0  0  0
    2.9921   -9.4618    0.0000 C   0  0  1  0  0  0  0  0  0  0  0  0
    2.2777   -9.8743    0.0000 C   0  0  0  0  0  0  0  0  0  0  0  0
    1.5632   -9.4618    0.0000 C   0  0  0  0  0  0  0  0  0  0  0  0
    1.5632   -8.6368    0.0000 C   0  0  0  0  0  0  0  0  0  0  0  0
    2.2777   -8.2243    0.0000 C   0  0  0  0  0  0  0  0  0  0  0  0
    2.9921   -8.6368    0.0000 C   0  0  2  0  0  0  0  0  0  0  0  0
    3.7066   -8.2243    0.0000 C   0  0  0  0  0  0  0  0  0  0  0  0
    3.7066   -7.3993    0.0000 C   0  0  0  0  0  0  0  0  0  0  0  0
    4.4211   -6.9868    0.0000 C   0  0  0  0  0  0  0  0  0  0  0  0
    5.1355   -7.3993    0.0000 C   0  0  0  0  0  0  0  0  0  0  0  0
    5.8500   -6.9868    0.0000 C   0  0  2  0  0  0  0  0  0  0  0  0
    2.9921   -7.8118    0.0000 C   0  0  0  0  0  0  0  0  0  0  0  0
    2.6902  -10.5887    0.0000 C   0  0  0  0  0  0  0  0  0  0  0  0
    1.8652  -10.5887    0.0000 C   0  0  0  0  0  0  0  0  0  0  0  0
    5.1355   -9.0493    0.0000 C   0  0  0  0  0  0  0  0  0  0  0  0
    6.1520   -5.0348    0.0000 C   0  0  0  0  0  0  0  0  0  0  0  0
    6.9770   -5.0348    0.0000 C   0  0  0  0  0  0  0  0  0  0  0  0
    2.9921  -10.2868    0.0000 H   0  0  0  0  0  0  0  0  0  0  0  0
    5.8500   -7.8118    0.0000 H   0  0  0  0  0  0  0  0  0  0  0  0
    4.4211   -7.8118    0.0000 C   0  0  0  0  0  0  0  0  0  0  0  0
  1  2  1  0  0  0  0
  2  3  1  0  0  0  0
  3  4  1  0  0  0  0
  4  5  1  0  0  0  0
  5  6  1  0  0  0  0
  1  6  1  0  0  0  0
  7  8  2  0  0  0  0
  7  9  1  0  0  0  0
  2  7  1  1  0  0  0
 11 12  1  0  0  0  0
 12 13  1  0  0  0  0
 13 14  1  0  0  0  0
 14 15  1  0  0  0  0
 15 16  1  0  0  0  0
 11 16  1  0  0  0  0
 17 18  1  0  0  0  0
 16 17  1  1  0  0  0
 15 19  1  6  0  0  0
 14 20  1  1  0  0  0
 13 21  1  6  0  0  0
 12 10  1  1  0  0  0
  5 10  1  6  0  0  0
  4 22  1  1  0  0  0
  3 23  1  6  0  0  0
 25 26  2  0  0  0  0
 27 28  1  0  0  0  0
 28 29  1  0  0  0  0
 29 30  1  0  0  0  0
 30 31  1  0  0  0  0
 31 32  1  0  0  0  0
 32 33  1  0  0  0  0
 33 34  1  0  0  0  0
 34 35  1  0  0  0  0
 35 36  1  0  0  0  0
 36 37  1  0  0  0  0
 37 38  1  0  0  0  0
 38 39  1  0  0  0  0
 39 40  1  0  0  0  0
 40 41  1  0  0  0  0
 41 42  1  0  0  0  0
 42 43  1  0  0  0  0
 38 43  1  0  0  0  0
 43 44  1  0  0  0  0
 35 44  1  0  0  0  0
 44 45  1  0  0  0  0
 45 46  1  0  0  0  0
 46 47  2  0  0  0  0
 34 47  1  0  0  0  0
 47 48  1  0  0  0  0
 31 48  1  0  0  0  0
 27 48  1  0  0  0  0
 31 25  1  1  0  0  0
 43 49  1  1  0  0  0
 39 50  1  0  0  0  0
 39 51  1  0  0  0  0
 34 52  1  1  0  0  0
 28 53  1  0  0  0  0
 28 54  1  0  0  0  0
 24 25  1  0  0  0  0
  6 24  1  1  0  0  0
 38 55  1  6  0  0  0
 48 56  1  1  0  0  0
 35 57  1  6  0  0  0
M  END
>  <cdx:groupId>
179

>  <cdx:fragmentId>
57

$$$$
