302302.cdx
  Mrv1902 05222410212D          

 32 33  0  0  0  0            999 V2000
    6.5071   -8.9757    0.0000 O   0  0  0  0  0  0  0  0  0  0  0  0
    5.7927   -9.3882    0.0000 C   0  0  1  0  0  0  0  0  0  0  0  0
    5.7927  -10.2132    0.0000 C   0  0  2  0  0  0  0  0  0  0  0  0
    6.5071  -10.6257    0.0000 C   0  0  1  0  0  0  0  0  0  0  0  0
    7.2216  -10.2132    0.0000 C   0  0  2  0  0  0  0  0  0  0  0  0
    7.2216   -9.3882    0.0000 C   0  0  2  0  0  0  0  0  0  0  0  0
    5.0782  -10.6257    0.0000 O   0  0  0  0  0  0  0  0  0  0  0  0
    6.5071  -11.4507    0.0000 O   0  0  0  0  0  0  0  0  0  0  0  0
    7.9361  -10.6257    0.0000 O   0  0  0  0  0  0  0  0  0  0  0  0
    7.9361   -8.9757    0.0000 O   0  0  0  0  0  0  0  0  0  0  0  0
    8.6505   -9.3882    0.0000 C   0  0  0  0  0  0  0  0  0  0  0  0
    9.3650   -8.9757    0.0000 C   0  0  0  0  0  0  0  0  0  0  0  0
   10.0795   -9.3882    0.0000 C   0  0  0  0  0  0  0  0  0  0  0  0
   10.7940   -8.9757    0.0000 C   0  0  2  0  0  0  0  0  0  0  0  0
   11.5084   -9.3882    0.0000 C   0  0  0  0  0  0  0  0  0  0  0  0
   12.2229   -8.9757    0.0000 C   0  0  0  0  0  0  0  0  0  0  0  0
   12.9374   -9.3882    0.0000 C   0  0  0  0  0  0  0  0  0  0  0  0
   13.6518   -8.9757    0.0000 C   0  0  0  0  0  0  0  0  0  0  0  0
   12.9374  -10.2132    0.0000 C   0  0  0  0  0  0  0  0  0  0  0  0
   10.0795  -10.2132    0.0000 C   0  0  0  0  0  0  0  0  0  0  0  0
   10.7940   -8.1507    0.0000 O   0  0  0  0  0  0  0  0  0  0  0  0
    5.0782   -8.9757    0.0000 C   0  0  0  0  0  0  0  0  0  0  0  0
    4.3637   -9.3882    0.0000 O   0  0  0  0  0  0  0  0  0  0  0  0
    2.8956   -9.3113    0.0000 O   0  0  0  0  0  0  0  0  0  0  0  0
    3.6492   -8.9757    0.0000 C   0  0  2  0  0  0  0  0  0  0  0  0
    3.5630   -8.1552    0.0000 C   0  0  1  0  0  0  0  0  0  0  0  0
    2.7560   -7.9837    0.0000 C   0  0  2  0  0  0  0  0  0  0  0  0
    2.3435   -8.6982    0.0000 C   0  0  2  0  0  0  0  0  0  0  0  0
    1.5231   -8.7844    0.0000 C   0  0  0  0  0  0  0  0  0  0  0  0
    1.0381   -8.1170    0.0000 O   0  0  0  0  0  0  0  0  0  0  0  0
    2.4205   -7.2300    0.0000 O   0  0  0  0  0  0  0  0  0  0  0  0
    4.1761   -7.6032    0.0000 O   0  0  0  0  0  0  0  0  0  0  0  0
  1  2  1  0  0  0  0
  2  3  1  0  0  0  0
  3  4  1  0  0  0  0
  4  5  1  0  0  0  0
  5  6  1  0  0  0  0
  1  6  1  0  0  0  0
  3  7  1  6  0  0  0
  4  8  1  1  0  0  0
  5  9  1  6  0  0  0
 11 12  1  0  0  0  0
 12 13  2  0  0  0  0
 13 14  1  0  0  0  0
 14 15  1  0  0  0  0
 15 16  1  0  0  0  0
 16 17  2  0  0  0  0
 17 18  1  0  0  0  0
 10 11  1  0  0  0  0
 17 19  1  0  0  0  0
 13 20  1  0  0  0  0
 14 21  1  1  0  0  0
  6 10  1  1  0  0  0
 24 25  1  0  0  0  0
 25 26  1  0  0  0  0
 26 27  1  0  0  0  0
 27 28  1  0  0  0  0
 24 28  1  0  0  0  0
 29 30  1  0  0  0  0
 28 29  1  1  0  0  0
 27 31  1  6  0  0  0
 26 32  1  1  0  0  0
 25 23  1  6  0  0  0
 22 23  1  0  0  0  0
  2 22  1  1  0  0  0
M  END
>  <cdx:fragmentId>
25

$$$$
