302376.cdx
  Mrv1902 05222410182D          

 14 15  0  0  0  0            999 V2000
    9.3560   -6.6111    0.0000 O   0  0  0  0  0  0  0  0  0  0  0  0
    9.8409   -7.2786    0.0000 C   0  0  0  0  0  0  0  0  0  0  0  0
    9.3560   -7.9460    0.0000 O   0  0  0  0  0  0  0  0  0  0  0  0
    8.5713   -7.6911    0.0000 C   0  0  0  0  0  0  0  0  0  0  0  0
    8.5713   -6.8661    0.0000 C   0  0  0  0  0  0  0  0  0  0  0  0
    7.8569   -8.1036    0.0000 C   0  0  0  0  0  0  0  0  0  0  0  0
    7.1424   -7.6911    0.0000 C   0  0  0  0  0  0  0  0  0  0  0  0
    7.1424   -6.8661    0.0000 C   0  0  0  0  0  0  0  0  0  0  0  0
    7.8569   -6.4536    0.0000 C   0  0  0  0  0  0  0  0  0  0  0  0
    6.4279   -6.4536    0.0000 C   0  0  0  0  0  0  0  0  0  0  0  0
    5.7135   -6.8661    0.0000 C   0  0  0  0  0  0  0  0  0  0  0  0
    4.9990   -6.4536    0.0000 C   0  0  0  0  0  0  0  0  0  0  0  0
    6.4279   -8.1036    0.0000 O   0  0  0  0  0  0  0  0  0  0  0  0
    5.7135   -7.6911    0.0000 C   0  0  0  0  0  0  0  0  0  0  0  0
  1  2  1  0  0  0  0
  2  3  1  0  0  0  0
  3  4  1  0  0  0  0
  4  5  1  0  0  0  0
  1  5  1  0  0  0  0
  6  7  1  0  0  0  0
  7  8  2  0  0  0  0
  8  9  1  0  0  0  0
  9  5  2  0  0  0  0
  6  4  2  0  0  0  0
 10 11  1  0  0  0  0
 11 12  2  0  0  0  0
  8 10  1  0  0  0  0
 13 14  1  0  0  0  0
  7 13  1  0  0  0  0
M  END
>  <cdx:fragmentId>
5

$$$$
