302325.cdx
  Mrv1902 05222410252D          

 81 89  0  0  0  0            999 V2000
    2.0680  -10.5342    0.0000 C   0  0  0  0  0  0  0  0  0  0  0  0
    2.8888  -10.6181    0.0000 C   0  0  0  0  0  0  0  0  0  0  0  0
    3.3718   -9.9493    0.0000 C   0  0  0  0  0  0  0  0  0  0  0  0
    4.1925  -10.0331    0.0000 C   0  0  0  0  0  0  0  0  0  0  0  0
    4.5302  -10.7858    0.0000 C   0  0  0  0  0  0  0  0  0  0  0  0
    4.0472  -11.4547    0.0000 C   0  0  0  0  0  0  0  0  0  0  0  0
    3.2265  -11.3708    0.0000 C   0  0  0  0  0  0  0  0  0  0  0  0
    1.7303   -9.7815    0.0000 O   0  0  0  0  0  0  0  0  0  0  0  0
    1.5850  -11.2030    0.0000 O   0  0  0  0  0  0  0  0  0  0  0  0
    3.0341   -9.1965    0.0000 O   0  0  0  0  0  0  0  0  0  0  0  0
    7.4620   -7.1683    0.0000 C   0  0  1  0  0  0  0  0  0  0  0  0
    8.0437   -6.5833    0.0000 C   0  0  2  0  0  0  0  0  0  0  0  0
    7.9982   -5.7595    0.0000 O   0  0  0  0  0  0  0  0  0  0  0  0
    8.7675   -5.4617    0.0000 C   0  0  0  0  0  0  0  0  0  0  0  0
    9.0610   -4.6906    0.0000 C   0  0  0  0  0  0  0  0  0  0  0  0
    8.5399   -4.0510    0.0000 C   0  0  0  0  0  0  0  0  0  0  0  0
    8.8334   -3.2799    0.0000 C   0  0  0  0  0  0  0  0  0  0  0  0
    9.6479   -3.1485    0.0000 C   0  0  0  0  0  0  0  0  0  0  0  0
   10.1689   -3.7882    0.0000 C   0  0  0  0  0  0  0  0  0  0  0  0
    9.8754   -4.5592    0.0000 C   0  0  0  0  0  0  0  0  0  0  0  0
   10.3965   -5.1989    0.0000 C   0  0  0  0  0  0  0  0  0  0  0  0
   11.2109   -5.0675    0.0000 C   0  0  0  0  0  0  0  0  0  0  0  0
   11.7319   -5.7071    0.0000 C   0  0  0  0  0  0  0  0  0  0  0  0
   11.4385   -6.4782    0.0000 C   0  0  0  0  0  0  0  0  0  0  0  0
   10.6240   -6.6096    0.0000 C   0  0  0  0  0  0  0  0  0  0  0  0
   10.1030   -5.9699    0.0000 C   0  0  0  0  0  0  0  0  0  0  0  0
    9.2885   -6.1013    0.0000 O   0  0  0  0  0  0  0  0  0  0  0  0
    8.8412   -6.7945    0.0000 C   0  0  1  0  0  0  0  0  0  0  0  0
    9.0570   -7.5908    0.0000 C   0  0  1  0  0  0  0  0  0  0  0  0
    8.4753   -8.1758    0.0000 O   0  0  0  0  0  0  0  0  0  0  0  0
    7.6778   -7.9646    0.0000 C   0  0  2  0  0  0  0  0  0  0  0  0
    6.9872   -8.4159    0.0000 C   0  0  0  0  0  0  0  0  0  0  0  0
    6.3446   -7.8985    0.0000 O   0  0  0  0  0  0  0  0  0  0  0  0
    5.5919   -8.2362    0.0000 C   0  0  0  0  0  0  0  0  0  0  0  0
    4.8208   -7.9428    0.0000 C   0  0  0  0  0  0  0  0  0  0  0  0
    4.3378   -8.6116    0.0000 C   0  0  0  0  0  0  0  0  0  0  0  0
    3.5171   -8.5277    0.0000 C   0  0  0  0  0  0  0  0  0  0  0  0
    3.1794   -7.7750    0.0000 C   0  0  0  0  0  0  0  0  0  0  0  0
    3.6624   -7.1062    0.0000 C   0  0  0  0  0  0  0  0  0  0  0  0
    4.4831   -7.1901    0.0000 C   0  0  0  0  0  0  0  0  0  0  0  0
    4.7765   -6.4190    0.0000 C   0  0  0  0  0  0  0  0  0  0  0  0
    4.1077   -5.9360    0.0000 C   0  0  0  0  0  0  0  0  0  0  0  0
    4.1916   -5.1153    0.0000 C   0  0  0  0  0  0  0  0  0  0  0  0
    4.9443   -4.7776    0.0000 C   0  0  0  0  0  0  0  0  0  0  0  0
    5.6131   -5.2606    0.0000 C   0  0  0  0  0  0  0  0  0  0  0  0
    5.5293   -6.0813    0.0000 C   0  0  0  0  0  0  0  0  0  0  0  0
    6.3003   -6.3748    0.0000 C   0  0  0  0  0  0  0  0  0  0  0  0
    6.6380   -7.1275    0.0000 O   0  0  0  0  0  0  0  0  0  0  0  0
    9.8545   -7.8020    0.0000 O   0  0  0  0  0  0  0  0  0  0  0  0
   10.0726   -8.5977    0.0000 C   0  0  0  0  0  0  0  0  0  0  0  0
   10.8707   -8.8066    0.0000 C   0  0  0  0  0  0  0  0  0  0  0  0
   11.4507   -8.2199    0.0000 C   0  0  0  0  0  0  0  0  0  0  0  0
   12.2488   -8.4289    0.0000 C   0  0  0  0  0  0  0  0  0  0  0  0
   12.4669   -9.2246    0.0000 C   0  0  0  0  0  0  0  0  0  0  0  0
   11.8869   -9.8112    0.0000 C   0  0  0  0  0  0  0  0  0  0  0  0
   11.0888   -9.6023    0.0000 C   0  0  0  0  0  0  0  0  0  0  0  0
    9.4926   -9.1844    0.0000 O   0  0  0  0  0  0  0  0  0  0  0  0
   12.1049  -10.6069    0.0000 O   0  0  0  0  0  0  0  0  0  0  0  0
   13.2650   -9.4335    0.0000 O   0  0  0  0  0  0  0  0  0  0  0  0
   12.8288   -7.8422    0.0000 O   0  0  0  0  0  0  0  0  0  0  0  0
    6.8665   -5.7747    0.0000 O   0  0  0  0  0  0  0  0  0  0  0  0
    5.5919   -9.0612    0.0000 O   0  0  0  0  0  0  0  0  0  0  0  0
    8.5563   -6.2592    0.0000 O   0  0  0  0  0  0  0  0  0  0  0  0
    5.0282   -3.9568    0.0000 O   0  0  0  0  0  0  0  0  0  0  0  0
    3.5228   -4.6323    0.0000 O   0  0  0  0  0  0  0  0  0  0  0  0
    3.2849   -5.9959    0.0000 O   0  0  0  0  0  0  0  0  0  0  0  0
    3.0876   -6.5144    0.0000 O   0  0  0  0  0  0  0  0  0  0  0  0
    2.3586   -7.6911    0.0000 O   0  0  0  0  0  0  0  0  0  0  0  0
   11.9595   -7.1178    0.0000 O   0  0  0  0  0  0  0  0  0  0  0  0
   12.5464   -5.5758    0.0000 O   0  0  0  0  0  0  0  0  0  0  0  0
   11.5044   -4.2964    0.0000 O   0  0  0  0  0  0  0  0  0  0  0  0
   10.9834   -3.6568    0.0000 O   0  0  0  0  0  0  0  0  0  0  0  0
    9.9413   -2.3775    0.0000 O   0  0  0  0  0  0  0  0  0  0  0  0
    8.3124   -2.6402    0.0000 O   0  0  0  0  0  0  0  0  0  0  0  0
    4.3849  -12.2074    0.0000 O   0  0  0  0  0  0  0  0  0  0  0  0
    5.3509  -10.8697    0.0000 O   0  0  0  0  0  0  0  0  0  0  0  0
    4.6755   -9.3643    0.0000 O   0  0  0  0  0  0  0  0  0  0  0  0
    7.4620   -6.3433    0.0000 H   0  0  0  0  0  0  0  0  0  0  0  0
    8.0437   -7.4083    0.0000 H   0  0  0  0  0  0  0  0  0  0  0  0
    9.6564   -6.9212    0.0000 H   0  0  0  0  0  0  0  0  0  0  0  0
    7.8092   -8.7790    0.0000 H   0  0  0  0  0  0  0  0  0  0  0  0
  1  2  1  0  0  0  0
  2  3  1  0  0  0  0
  3  4  2  0  0  0  0
  4  5  1  0  0  0  0
  5  6  2  0  0  0  0
  6  7  1  0  0  0  0
  2  7  2  0  0  0  0
  1  8  2  0  0  0  0
  1  9  1  0  0  0  0
 11 12  1  0  0  0  0
 12 13  1  0  0  0  0
 13 14  1  0  0  0  0
 14 15  1  0  0  0  0
 15 16  2  0  0  0  0
 16 17  1  0  0  0  0
 17 18  2  0  0  0  0
 18 19  1  0  0  0  0
 19 20  2  0  0  0  0
 20 21  1  0  0  0  0
 21 22  1  0  0  0  0
 22 23  2  0  0  0  0
 23 24  1  0  0  0  0
 24 25  2  0  0  0  0
 25 26  1  0  0  0  0
 26 27  1  0  0  0  0
 27 28  1  0  0  0  0
 28 29  1  0  0  0  0
 29 30  1  0  0  0  0
 30 31  1  0  0  0  0
 31 32  1  0  0  0  0
 32 33  1  0  0  0  0
 33 34  1  0  0  0  0
 34 35  1  0  0  0  0
 35 36  2  0  0  0  0
 36 37  1  0  0  0  0
 37 38  2  0  0  0  0
 38 39  1  0  0  0  0
 39 40  2  0  0  0  0
 40 41  1  0  0  0  0
 41 42  2  0  0  0  0
 42 43  1  0  0  0  0
 43 44  2  0  0  0  0
 44 45  1  0  0  0  0
 45 46  2  0  0  0  0
 46 47  1  0  0  0  0
 47 48  1  0  0  0  0
 11 48  1  0  0  0  0
 11 31  1  0  0  0  0
 41 46  1  0  0  0  0
 35 40  1  0  0  0  0
 12 28  1  0  0  0  0
 21 26  2  0  0  0  0
 15 20  1  0  0  0  0
 50 51  1  0  0  0  0
 51 52  1  0  0  0  0
 52 53  2  0  0  0  0
 53 54  1  0  0  0  0
 54 55  2  0  0  0  0
 55 56  1  0  0  0  0
 51 56  2  0  0  0  0
 50 57  2  0  0  0  0
 55 58  1  0  0  0  0
 54 59  1  0  0  0  0
 53 60  1  0  0  0  0
 49 50  1  0  0  0  0
 29 49  1  6  0  0  0
 47 61  2  0  0  0  0
 34 62  2  0  0  0  0
 14 63  2  0  0  0  0
 44 64  1  0  0  0  0
 43 65  1  0  0  0  0
 42 66  1  0  0  0  0
 39 67  1  0  0  0  0
 38 68  1  0  0  0  0
 24 69  1  0  0  0  0
 23 70  1  0  0  0  0
 22 71  1  0  0  0  0
 19 72  1  0  0  0  0
 18 73  1  0  0  0  0
 17 74  1  0  0  0  0
 10 37  1  0  0  0  0
  3 10  1  0  0  0  0
  6 75  1  0  0  0  0
  5 76  1  0  0  0  0
  4 77  1  0  0  0  0
 11 78  1  6  0  0  0
 12 79  1  1  0  0  0
 28 80  1  6  0  0  0
 31 81  1  1  0  0  0
M  END
>  <cdx:groupId>
253

>  <cdx:fragmentId>
25

$$$$
