302379.cdx
  Mrv1902 05222410272D          

 27 28  0  0  0  0            999 V2000
    4.9244   -8.8857    0.0000 C   0  0  0  0  0  0  0  0  0  0  0  0
    4.2099   -8.4732    0.0000 C   0  0  0  0  0  0  0  0  0  0  0  0
    4.2099   -7.6482    0.0000 C   0  0  0  0  0  0  0  0  0  0  0  0
    4.9244   -7.2357    0.0000 C   0  0  0  0  0  0  0  0  0  0  0  0
    5.6388   -7.6482    0.0000 C   0  0  0  0  0  0  0  0  0  0  0  0
    5.6388   -8.4732    0.0000 C   0  0  0  0  0  0  0  0  0  0  0  0
    4.9244   -9.7107    0.0000 O   0  0  0  0  0  0  0  0  0  0  0  0
    3.4954   -8.8857    0.0000 O   0  0  0  0  0  0  0  0  0  0  0  0
    3.4954   -7.2357    0.0000 O   0  0  0  0  0  0  0  0  0  0  0  0
    2.7809   -7.6482    0.0000 C   0  0  0  0  0  0  0  0  0  0  0  0
    6.3533   -7.2357    0.0000 C   0  0  0  0  0  0  0  0  0  0  0  0
    7.0678   -7.6482    0.0000 C   0  0  2  0  0  0  0  0  0  0  0  0
    7.7822   -7.2357    0.0000 C   0  0  1  0  0  0  0  0  0  0  0  0
    8.4967   -7.6482    0.0000 C   0  0  0  0  0  0  0  0  0  0  0  0
    7.7822   -6.4107    0.0000 C   0  0  0  0  0  0  0  0  0  0  0  0
    7.0678   -8.4732    0.0000 C   0  0  0  0  0  0  0  0  0  0  0  0
    9.2112   -7.2357    0.0000 C   0  0  0  0  0  0  0  0  0  0  0  0
    9.2112   -6.4107    0.0000 C   0  0  0  0  0  0  0  0  0  0  0  0
    9.9256   -5.9982    0.0000 C   0  0  0  0  0  0  0  0  0  0  0  0
   10.6401   -6.4107    0.0000 C   0  0  0  0  0  0  0  0  0  0  0  0
   10.6401   -7.2357    0.0000 C   0  0  0  0  0  0  0  0  0  0  0  0
    9.9256   -7.6482    0.0000 C   0  0  0  0  0  0  0  0  0  0  0  0
   11.3546   -7.6482    0.0000 O   0  0  0  0  0  0  0  0  0  0  0  0
   12.0691   -7.2357    0.0000 C   0  0  0  0  0  0  0  0  0  0  0  0
    9.9256   -5.1732    0.0000 O   0  0  0  0  0  0  0  0  0  0  0  0
   10.6401   -4.7607    0.0000 C   0  0  0  0  0  0  0  0  0  0  0  0
   11.3546   -5.9982    0.0000 O   0  0  0  0  0  0  0  0  0  0  0  0
  1  2  1  0  0  0  0
  2  3  2  0  0  0  0
  3  4  1  0  0  0  0
  4  5  2  0  0  0  0
  5  6  1  0  0  0  0
  1  6  2  0  0  0  0
  1  7  1  0  0  0  0
  2  8  1  0  0  0  0
  9 10  1  0  0  0  0
  3  9  1  0  0  0  0
 11 12  1  0  0  0  0
 12 13  1  0  0  0  0
 13 14  1  0  0  0  0
 13 15  1  6  0  0  0
 12 16  1  6  0  0  0
 17 18  1  0  0  0  0
 18 19  2  0  0  0  0
 19 20  1  0  0  0  0
 20 21  2  0  0  0  0
 21 22  1  0  0  0  0
 17 22  2  0  0  0  0
 23 24  1  0  0  0  0
 21 23  1  0  0  0  0
 25 26  1  0  0  0  0
 19 25  1  0  0  0  0
 20 27  1  0  0  0  0
 14 17  1  0  0  0  0
  5 11  1  0  0  0  0
M  END
>  <cdx:groupId>
84

>  <cdx:fragmentId>
37

$$$$
