302315.cdx
  Mrv1902 05222410212D          

 65 72  0  0  0  0            999 V2000
    3.8526  -10.4779    0.0000 O   0  0  0  0  0  0  0  0  0  0  0  0
    4.5671  -10.0654    0.0000 C   0  0  2  0  0  0  0  0  0  0  0  0
    5.2816  -10.4779    0.0000 C   0  0  1  0  0  0  0  0  0  0  0  0
    5.2816  -11.3029    0.0000 C   0  0  2  0  0  0  0  0  0  0  0  0
    4.5671  -11.7154    0.0000 C   0  0  1  0  0  0  0  0  0  0  0  0
    3.8526  -11.3029    0.0000 C   0  0  0  0  0  0  0  0  0  0  0  0
    5.9961  -10.0654    0.0000 O   0  0  0  0  0  0  0  0  0  0  0  0
    5.9961  -11.7154    0.0000 O   0  0  0  0  0  0  0  0  0  0  0  0
    4.5671  -12.5404    0.0000 O   0  0  0  0  0  0  0  0  0  0  0  0
    4.5671   -9.2404    0.0000 O   0  0  0  0  0  0  0  0  0  0  0  0
    3.1382   -7.5904    0.0000 O   0  0  0  0  0  0  0  0  0  0  0  0
    3.8526   -8.0029    0.0000 C   0  0  2  0  0  0  0  0  0  0  0  0
    3.8526   -8.8279    0.0000 C   0  0  1  0  0  0  0  0  0  0  0  0
    3.1382   -9.2404    0.0000 C   0  0  2  0  0  0  0  0  0  0  0  0
    2.4237   -8.8279    0.0000 C   0  0  1  0  0  0  0  0  0  0  0  0
    2.4237   -8.0029    0.0000 C   0  0  1  0  0  0  0  0  0  0  0  0
    1.7092   -7.5904    0.0000 C   0  0  0  0  0  0  0  0  0  0  0  0
    1.7092   -6.7654    0.0000 O   0  0  0  0  0  0  0  0  0  0  0  0
    1.7092   -9.2404    0.0000 O   0  0  0  0  0  0  0  0  0  0  0  0
    3.1382  -10.0654    0.0000 O   0  0  0  0  0  0  0  0  0  0  0  0
    4.5671   -7.5904    0.0000 O   0  0  0  0  0  0  0  0  0  0  0  0
    5.2816   -5.5279    0.0000 O   0  0  0  0  0  0  0  0  0  0  0  0
    5.2816   -6.3529    0.0000 C   0  0  2  0  0  0  0  0  0  0  0  0
    4.5671   -6.7654    0.0000 C   0  0  1  0  0  0  0  0  0  0  0  0
    3.8526   -6.3529    0.0000 C   0  0  2  0  0  0  0  0  0  0  0  0
    3.8526   -5.5279    0.0000 C   0  0  2  0  0  0  0  0  0  0  0  0
    4.5671   -5.1154    0.0000 C   0  0  1  0  0  0  0  0  0  0  0  0
    4.5671   -4.2904    0.0000 C   0  0  0  0  0  0  0  0  0  0  0  0
    3.1382   -5.1154    0.0000 O   0  0  0  0  0  0  0  0  0  0  0  0
    3.1382   -6.7654    0.0000 O   0  0  0  0  0  0  0  0  0  0  0  0
    5.9961   -6.7654    0.0000 O   0  0  0  0  0  0  0  0  0  0  0  0
    7.4250   -5.1154    0.0000 C   0  0  0  0  0  0  0  0  0  0  0  0
    6.7105   -5.5279    0.0000 C   0  0  0  0  0  0  0  0  0  0  0  0
    6.7105   -6.3529    0.0000 C   0  0  1  0  0  0  0  0  0  0  0  0
    7.4250   -6.7654    0.0000 C   0  0  2  0  0  0  0  0  0  0  0  0
    8.1395   -6.3529    0.0000 C   0  0  2  0  0  0  0  0  0  0  0  0
    8.8539   -6.7654    0.0000 C   0  0  0  0  0  0  0  0  0  0  0  0
    9.5684   -6.3529    0.0000 C   0  0  0  0  0  0  0  0  0  0  0  0
    9.5684   -5.5279    0.0000 C   0  0  1  0  0  0  0  0  0  0  0  0
   10.2829   -5.1154    0.0000 C   0  0  2  0  0  0  0  0  0  0  0  0
   10.9974   -5.5279    0.0000 C   0  0  0  0  0  0  0  0  0  0  0  0
   11.7118   -5.1154    0.0000 C   0  0  2  0  0  0  0  0  0  0  0  0
   11.7118   -4.2904    0.0000 C   0  0  1  0  0  0  0  0  0  0  0  0
   12.4263   -3.8779    0.0000 C   0  0  0  0  0  0  0  0  0  0  0  0
   12.4263   -3.0529    0.0000 C   0  0  0  0  0  0  0  0  0  0  0  0
   11.7118   -2.6404    0.0000 C   0  0  1  0  0  0  0  0  0  0  0  0
   10.9974   -3.0529    0.0000 C   0  0  0  0  0  0  0  0  0  0  0  0
   10.9974   -3.8779    0.0000 C   0  0  0  0  0  0  0  0  0  0  0  0
   10.2829   -4.2904    0.0000 C   0  0  0  0  0  0  0  0  0  0  0  0
    9.5684   -3.8779    0.0000 C   0  0  0  0  0  0  0  0  0  0  0  0
    8.8539   -4.2904    0.0000 C   0  0  0  0  0  0  0  0  0  0  0  0
    8.8539   -5.1154    0.0000 C   0  0  2  0  0  0  0  0  0  0  0  0
    8.1395   -5.5279    0.0000 C   0  0  1  0  0  0  0  0  0  0  0  0
    8.1395   -4.7029    0.0000 C   0  0  0  0  0  0  0  0  0  0  0  0
   11.2993   -1.9260    0.0000 C   0  0  0  0  0  0  0  0  0  0  0  0
   12.1243   -1.9260    0.0000 C   0  0  0  0  0  0  0  0  0  0  0  0
   10.2829   -5.9404    0.0000 C   0  0  0  0  0  0  0  0  0  0  0  0
    9.5684   -4.7029    0.0000 C   0  0  0  0  0  0  0  0  0  0  0  0
    7.8375   -7.4799    0.0000 C   0  0  0  0  0  0  0  0  0  0  0  0
    7.0125   -7.4799    0.0000 C   0  0  0  0  0  0  0  0  0  0  0  0
   12.4263   -4.7029    0.0000 C   0  0  0  0  0  0  0  0  0  0  0  0
   13.1408   -4.2904    0.0000 O   0  0  0  0  0  0  0  0  0  0  0  0
   12.4263   -5.5279    0.0000 O   0  0  0  0  0  0  0  0  0  0  0  0
    8.1395   -7.1779    0.0000 H   0  0  0  0  0  0  0  0  0  0  0  0
    8.8539   -5.9404    0.0000 H   0  0  0  0  0  0  0  0  0  0  0  0
  1  2  1  0  0  0  0
  2  3  1  0  0  0  0
  3  4  1  0  0  0  0
  4  5  1  0  0  0  0
  5  6  1  0  0  0  0
  1  6  1  0  0  0  0
  3  7  1  6  0  0  0
  4  8  1  1  0  0  0
  5  9  1  6  0  0  0
 11 12  1  0  0  0  0
 12 13  1  0  0  0  0
 13 14  1  0  0  0  0
 14 15  1  0  0  0  0
 15 16  1  0  0  0  0
 11 16  1  0  0  0  0
 17 18  1  0  0  0  0
 16 17  1  1  0  0  0
 15 19  1  6  0  0  0
 14 20  1  1  0  0  0
 22 23  1  0  0  0  0
 23 24  1  0  0  0  0
 24 25  1  0  0  0  0
 25 26  1  0  0  0  0
 26 27  1  0  0  0  0
 22 27  1  0  0  0  0
 27 28  1  1  0  0  0
 26 29  1  1  0  0  0
 25 30  1  1  0  0  0
 32 33  1  0  0  0  0
 33 34  1  0  0  0  0
 34 35  1  0  0  0  0
 35 36  1  0  0  0  0
 36 37  1  0  0  0  0
 37 38  1  0  0  0  0
 38 39  1  0  0  0  0
 39 40  1  0  0  0  0
 40 41  1  0  0  0  0
 41 42  1  0  0  0  0
 42 43  1  0  0  0  0
 43 44  1  0  0  0  0
 44 45  1  0  0  0  0
 45 46  1  0  0  0  0
 46 47  1  0  0  0  0
 47 48  1  0  0  0  0
 43 48  1  0  0  0  0
 48 49  2  0  0  0  0
 40 49  1  0  0  0  0
 49 50  1  0  0  0  0
 50 51  2  0  0  0  0
 51 52  1  0  0  0  0
 39 52  1  0  0  0  0
 52 53  1  0  0  0  0
 36 53  1  0  0  0  0
 32 53  1  0  0  0  0
 53 54  1  1  0  0  0
 46 55  1  1  0  0  0
 46 56  1  6  0  0  0
 40 57  1  6  0  0  0
 39 58  1  1  0  0  0
 35 59  1  6  0  0  0
 35 60  1  1  0  0  0
 61 62  1  0  0  0  0
 43 61  1  1  0  0  0
 42 63  1  6  0  0  0
 34 31  1  1  0  0  0
 23 31  1  1  0  0  0
 24 21  1  6  0  0  0
 12 21  1  1  0  0  0
 13 10  1  6  0  0  0
  2 10  1  1  0  0  0
 36 64  1  6  0  0  0
 52 65  1  6  0  0  0
M  END
>  <cdx:fragmentId>
67

$$$$
