302329.cdx
  Mrv1902 05222410212D          

 75 80  0  0  0  0            999 V2000
    6.4962   -4.6524    0.0000 C   0  0  0  0  0  0  0  0  0  0  0  0
    5.7817   -5.0649    0.0000 C   0  0  0  0  0  0  0  0  0  0  0  0
    5.7817   -5.8899    0.0000 C   0  0  0  0  0  0  0  0  0  0  0  0
    6.4962   -6.3024    0.0000 C   0  0  0  0  0  0  0  0  0  0  0  0
    7.2107   -5.8899    0.0000 C   0  0  0  0  0  0  0  0  0  0  0  0
    7.2107   -5.0649    0.0000 C   0  0  0  0  0  0  0  0  0  0  0  0
    6.4962   -3.8274    0.0000 O   0  0  0  0  0  0  0  0  0  0  0  0
    5.0672   -6.3024    0.0000 O   0  0  0  0  0  0  0  0  0  0  0  0
    4.3528   -5.0649    0.0000 O   0  0  0  0  0  0  0  0  0  0  0  0
    5.0672   -4.6524    0.0000 C   0  0  0  0  0  0  0  0  0  0  0  0
    5.0672   -3.8274    0.0000 C   0  0  0  0  0  0  0  0  0  0  0  0
    4.3528   -3.4149    0.0000 C   0  0  0  0  0  0  0  0  0  0  0  0
    3.6383   -3.8274    0.0000 C   0  0  0  0  0  0  0  0  0  0  0  0
    3.6383   -4.6524    0.0000 C   0  0  0  0  0  0  0  0  0  0  0  0
    2.9238   -5.0649    0.0000 C   0  0  0  0  0  0  0  0  0  0  0  0
    2.2094   -4.6524    0.0000 O   0  0  0  0  0  0  0  0  0  0  0  0
    2.9238   -3.4149    0.0000 O   0  0  0  0  0  0  0  0  0  0  0  0
    4.3528   -2.5899    0.0000 O   0  0  0  0  0  0  0  0  0  0  0  0
    5.7817   -3.4149    0.0000 O   0  0  0  0  0  0  0  0  0  0  0  0
    7.9251   -4.6524    0.0000 C   0  0  0  0  0  0  0  0  0  0  0  0
    8.6396   -5.0649    0.0000 C   0  0  0  0  0  0  0  0  0  0  0  0
    9.3541   -4.6524    0.0000 C   0  0  0  0  0  0  0  0  0  0  0  0
    9.3541   -3.8274    0.0000 C   0  0  0  0  0  0  0  0  0  0  0  0
    8.6396   -3.4149    0.0000 C   0  0  0  0  0  0  0  0  0  0  0  0
    8.6396   -2.5899    0.0000 C   0  0  0  0  0  0  0  0  0  0  0  0
    9.3541   -2.1774    0.0000 C   0  0  0  0  0  0  0  0  0  0  0  0
   10.0685   -2.5899    0.0000 C   0  0  0  0  0  0  0  0  0  0  0  0
   10.0685   -3.4149    0.0000 C   0  0  0  0  0  0  0  0  0  0  0  0
    9.3541   -1.3524    0.0000 O   0  0  0  0  0  0  0  0  0  0  0  0
    7.9251   -3.8274    0.0000 O   0  0  0  0  0  0  0  0  0  0  0  0
    7.9251   -6.3024    0.0000 O   0  0  0  0  0  0  0  0  0  0  0  0
    5.7817   -4.2399    0.0000 O   0  0  0  0  0  0  0  0  0  0  0  0
    6.4962   -7.6224    0.0000 C   0  0  0  0  0  0  0  0  0  0  0  0
    5.7817   -8.0349    0.0000 C   0  0  0  0  0  0  0  0  0  0  0  0
    5.0672   -7.6224    0.0000 C   0  0  0  0  0  0  0  0  0  0  0  0
    4.3528   -8.0349    0.0000 C   0  0  0  0  0  0  0  0  0  0  0  0
    3.6383   -7.6224    0.0000 C   0  0  0  0  0  0  0  0  0  0  0  0
    2.9238   -8.0349    0.0000 C   0  0  0  0  0  0  0  0  0  0  0  0
    2.2094   -7.6224    0.0000 O   0  0  0  0  0  0  0  0  0  0  0  0
    3.6383   -6.7974    0.0000 O   0  0  0  0  0  0  0  0  0  0  0  0
    4.3528   -8.8599    0.0000 O   0  0  0  0  0  0  0  0  0  0  0  0
    5.0672   -6.7974    0.0000 O   0  0  0  0  0  0  0  0  0  0  0  0
    5.7817   -8.8599    0.0000 O   0  0  0  0  0  0  0  0  0  0  0  0
    7.6393   -8.2824    0.0000 C   0  0  0  0  0  0  0  0  0  0  0  0
    7.6393   -9.1074    0.0000 C   0  0  0  0  0  0  0  0  0  0  0  0
    8.3538   -9.5199    0.0000 C   0  0  0  0  0  0  0  0  0  0  0  0
    9.0683   -9.1074    0.0000 C   0  0  0  0  0  0  0  0  0  0  0  0
    9.0683   -8.2824    0.0000 C   0  0  0  0  0  0  0  0  0  0  0  0
    8.3538   -7.8699    0.0000 C   0  0  0  0  0  0  0  0  0  0  0  0
   10.4972   -8.2824    0.0000 O   0  0  0  0  0  0  0  0  0  0  0  0
    9.7828   -7.8699    0.0000 C   0  0  0  0  0  0  0  0  0  0  0  0
    9.7828   -7.0449    0.0000 C   0  0  0  0  0  0  0  0  0  0  0  0
   10.4972   -6.6324    0.0000 C   0  0  0  0  0  0  0  0  0  0  0  0
   11.2117   -7.0449    0.0000 C   0  0  0  0  0  0  0  0  0  0  0  0
   11.2117   -7.8699    0.0000 C   0  0  0  0  0  0  0  0  0  0  0  0
   11.9262   -8.2824    0.0000 C   0  0  0  0  0  0  0  0  0  0  0  0
   12.6406   -7.8699    0.0000 O   0  0  0  0  0  0  0  0  0  0  0  0
   11.9262   -6.6324    0.0000 O   0  0  0  0  0  0  0  0  0  0  0  0
   10.4972   -5.8074    0.0000 O   0  0  0  0  0  0  0  0  0  0  0  0
    9.0683   -6.6324    0.0000 O   0  0  0  0  0  0  0  0  0  0  0  0
    8.3538   -7.0449    0.0000 O   0  0  0  0  0  0  0  0  0  0  0  0
    9.7828   -9.5199    0.0000 O   0  0  0  0  0  0  0  0  0  0  0  0
    8.3538  -10.3449    0.0000 C   0  0  0  0  0  0  0  0  0  0  0  0
    7.6393  -10.7574    0.0000 C   0  0  0  0  0  0  0  0  0  0  0  0
    7.6393  -11.5824    0.0000 C   0  0  0  0  0  0  0  0  0  0  0  0
    6.9249  -11.9949    0.0000 C   0  0  0  0  0  0  0  0  0  0  0  0
    6.9249  -12.8199    0.0000 C   0  0  0  0  0  0  0  0  0  0  0  0
    6.2104  -13.2324    0.0000 C   0  0  0  0  0  0  0  0  0  0  0  0
    5.4959  -12.8199    0.0000 C   0  0  0  0  0  0  0  0  0  0  0  0
    5.4959  -11.9949    0.0000 C   0  0  0  0  0  0  0  0  0  0  0  0
    6.2104  -11.5824    0.0000 C   0  0  0  0  0  0  0  0  0  0  0  0
    4.7815  -13.2324    0.0000 O   0  0  0  0  0  0  0  0  0  0  0  0
    9.0683  -10.7574    0.0000 O   0  0  0  0  0  0  0  0  0  0  0  0
    9.0683   -7.4574    0.0000 O   0  0  0  0  0  0  0  0  0  0  0  0
    6.9249   -9.5199    0.0000 O   0  0  0  0  0  0  0  0  0  0  0  0
  1  2  1  0  0  0  0
  2  3  1  0  0  0  0
  3  4  1  0  0  0  0
  4  5  2  0  0  0  0
  5  6  1  0  0  0  0
  1  6  1  0  0  0  0
  1  7  2  0  0  0  0
  3  8  2  0  0  0  0
  9 10  1  0  0  0  0
 10 11  1  0  0  0  0
 11 12  1  0  0  0  0
 12 13  1  0  0  0  0
 13 14  1  0  0  0  0
  9 14  1  0  0  0  0
 15 16  1  0  0  0  0
 14 15  1  0  0  0  0
 13 17  1  0  0  0  0
 12 18  1  0  0  0  0
 11 19  1  0  0  0  0
  2 10  1  0  0  0  0
 20 21  1  0  0  0  0
 21 22  2  0  0  0  0
 23 24  1  0  0  0  0
 24 25  2  0  0  0  0
 25 26  1  0  0  0  0
 26 27  2  0  0  0  0
 27 28  1  0  0  0  0
 23 28  2  0  0  0  0
 26 29  1  0  0  0  0
 22 23  1  0  0  0  0
 20 30  1  0  0  0  0
  6 20  2  0  0  0  0
  5 31  1  0  0  0  0
  2 32  1  0  0  0  0
 33 34  1  0  0  0  0
 34 35  1  0  0  0  0
 35 36  1  0  0  0  0
 36 37  1  0  0  0  0
 37 38  1  0  0  0  0
 38 39  1  0  0  0  0
 37 40  1  0  0  0  0
 36 41  1  0  0  0  0
 35 42  1  0  0  0  0
 34 43  1  0  0  0  0
 44 45  2  0  0  0  0
 45 46  1  0  0  0  0
 46 47  1  0  0  0  0
 47 48  1  0  0  0  0
 48 49  1  0  0  0  0
 44 49  1  0  0  0  0
 50 51  1  0  0  0  0
 51 52  1  0  0  0  0
 52 53  1  0  0  0  0
 53 54  1  0  0  0  0
 54 55  1  0  0  0  0
 50 55  1  0  0  0  0
 56 57  1  0  0  0  0
 55 56  1  0  0  0  0
 54 58  1  0  0  0  0
 53 59  1  0  0  0  0
 52 60  1  0  0  0  0
 48 51  1  0  0  0  0
 49 61  2  0  0  0  0
 47 62  2  0  0  0  0
 63 64  1  0  0  0  0
 64 65  2  0  0  0  0
 66 67  1  0  0  0  0
 67 68  2  0  0  0  0
 68 69  1  0  0  0  0
 69 70  2  0  0  0  0
 70 71  1  0  0  0  0
 66 71  2  0  0  0  0
 69 72  1  0  0  0  0
 65 66  1  0  0  0  0
 63 73  1  0  0  0  0
 46 63  2  0  0  0  0
 48 74  1  0  0  0  0
 45 75  1  0  0  0  0
 33 44  1  0  0  0  0
  4 33  1  0  0  0  0
M  END
>  <cdx:groupId>
232

>  <cdx:fragmentId>
103

$$$$
