302311.cdx
  Mrv1902 05222410232D          

 66 74  0  0  0  0            999 V2000
    4.2891  -14.4832    0.0000 O   0  0  0  0  0  0  0  0  0  0  0  0
    4.9988  -14.0625    0.0000 C   0  0  2  0  0  0  0  0  0  0  0  0
    5.7180  -14.4668    0.0000 C   0  0  1  0  0  0  0  0  0  0  0  0
    5.7274  -15.2918    0.0000 C   0  0  2  0  0  0  0  0  0  0  0  0
    5.0177  -15.7124    0.0000 C   0  0  1  0  0  0  0  0  0  0  0  0
    4.2986  -15.3082    0.0000 C   0  0  0  0  0  0  0  0  0  0  0  0
    6.4277  -14.0462    0.0000 O   0  0  0  0  0  0  0  0  0  0  0  0
    6.4466  -15.6960    0.0000 O   0  0  0  0  0  0  0  0  0  0  0  0
    5.0272  -16.5374    0.0000 O   0  0  0  0  0  0  0  0  0  0  0  0
    4.9894  -13.2376    0.0000 O   0  0  0  0  0  0  0  0  0  0  0  0
    3.5416  -11.6041    0.0000 O   0  0  0  0  0  0  0  0  0  0  0  0
    4.2607  -12.0084    0.0000 C   0  0  2  0  0  0  0  0  0  0  0  0
    4.2702  -12.8333    0.0000 C   0  0  1  0  0  0  0  0  0  0  0  0
    3.5605  -13.2540    0.0000 C   0  0  2  0  0  0  0  0  0  0  0  0
    2.8414  -12.8497    0.0000 C   0  0  1  0  0  0  0  0  0  0  0  0
    2.8319  -12.0248    0.0000 C   0  0  1  0  0  0  0  0  0  0  0  0
    2.1127  -11.6205    0.0000 C   0  0  0  0  0  0  0  0  0  0  0  0
    2.1033  -10.7955    0.0000 O   0  0  0  0  0  0  0  0  0  0  0  0
   12.1285   -8.2828    0.0000 C   0  0  0  0  0  0  0  0  0  0  0  0
   12.1285   -9.1078    0.0000 C   0  0  1  0  0  0  0  0  0  0  0  0
   11.4140   -9.5203    0.0000 C   0  0  0  0  0  0  0  0  0  0  0  0
   10.6995   -9.1078    0.0000 C   0  0  1  0  0  0  0  0  0  0  0  0
    9.9850   -9.5203    0.0000 C   0  0  2  0  0  0  0  0  0  0  0  0
    9.9850  -10.3453    0.0000 C   0  0  0  0  0  0  0  0  0  0  0  0
    9.2706  -10.7578    0.0000 C   0  0  0  0  0  0  0  0  0  0  0  0
    8.5561  -10.3453    0.0000 C   0  0  1  0  0  0  0  0  0  0  0  0
    7.8416  -10.7578    0.0000 C   0  0  1  0  0  0  0  0  0  0  0  0
    7.1272  -10.3453    0.0000 C   0  0  2  0  0  0  0  0  0  0  0  0
    7.1272   -9.5203    0.0000 C   0  0  0  0  0  0  0  0  0  0  0  0
    7.8416   -9.1078    0.0000 C   0  0  0  0  0  0  0  0  0  0  0  0
    8.5561   -9.5203    0.0000 C   0  0  2  0  0  0  0  0  0  0  0  0
    9.2706   -9.1078    0.0000 C   0  0  1  0  0  0  0  0  0  0  0  0
    9.2706   -8.2828    0.0000 C   0  0  0  0  0  0  0  0  0  0  0  0
    9.9850   -7.8703    0.0000 C   0  0  0  0  0  0  0  0  0  0  0  0
   10.6995   -8.2828    0.0000 C   0  0  0  0  0  0  0  0  0  0  0  0
   11.4140   -7.8703    0.0000 C   0  0  2  0  0  0  0  0  0  0  0  0
   11.4140   -7.0453    0.0000 C   0  0  2  0  0  0  0  0  0  0  0  0
   12.1285   -6.6328    0.0000 C   0  0  1  0  0  0  0  0  0  0  0  0
   12.8429   -7.0453    0.0000 C   0  0  0  0  0  0  0  0  0  0  0  0
   12.8429   -7.8703    0.0000 C   0  0  0  0  0  0  0  0  0  0  0  0
   12.1285   -5.8078    0.0000 C   0  0  0  0  0  0  0  0  0  0  0  0
   10.6995   -6.6328    0.0000 C   0  0  0  0  0  0  0  0  0  0  0  0
    8.5561   -8.6953    0.0000 C   0  0  0  0  0  0  0  0  0  0  0  0
    8.2541  -11.4723    0.0000 C   0  0  0  0  0  0  0  0  0  0  0  0
    7.4291  -11.4723    0.0000 C   0  0  0  0  0  0  0  0  0  0  0  0
    9.9850   -8.6953    0.0000 C   0  0  0  0  0  0  0  0  0  0  0  0
   10.6995   -9.9328    0.0000 C   0  0  0  0  0  0  0  0  0  0  0  0
   12.8429   -9.5203    0.0000 O   0  0  0  0  0  0  0  0  0  0  0  0
    2.1317  -13.2704    0.0000 O   0  0  0  0  0  0  0  0  0  0  0  0
    3.5700  -14.0789    0.0000 O   0  0  0  0  0  0  0  0  0  0  0  0
    4.9838  -11.5828    0.0000 O   0  0  0  0  0  0  0  0  0  0  0  0
    3.5548  -10.7578    0.0000 O   0  0  0  0  0  0  0  0  0  0  0  0
    3.5548   -9.1078    0.0000 O   0  0  0  0  0  0  0  0  0  0  0  0
    6.4127  -10.7578    0.0000 O   0  0  0  0  0  0  0  0  0  0  0  0
    4.9838   -8.2828    0.0000 C   0  0  0  0  0  0  0  0  0  0  0  0
    4.9838   -9.1078    0.0000 C   0  0  2  0  0  0  0  0  0  0  0  0
    4.2693   -9.5203    0.0000 C   0  0  1  0  0  0  0  0  0  0  0  0
    4.2693  -10.3453    0.0000 C   0  0  1  0  0  0  0  0  0  0  0  0
    4.9838  -10.7578    0.0000 C   0  0  2  0  0  0  0  0  0  0  0  0
    5.6982  -10.3453    0.0000 C   0  0  1  0  0  0  0  0  0  0  0  0
    5.6982   -9.5203    0.0000 O   0  0  0  0  0  0  0  0  0  0  0  0
   10.6995   -7.4578    0.0000 O   0  0  0  0  0  0  0  0  0  0  0  0
   12.1285   -7.4578    0.0000 C   0  0  0  0  0  0  0  0  0  0  0  0
    8.5561  -11.1703    0.0000 H   0  0  0  0  0  0  0  0  0  0  0  0
    9.2706   -9.9328    0.0000 H   0  0  0  0  0  0  0  0  0  0  0  0
   11.4140   -8.6953    0.0000 H   0  0  0  0  0  0  0  0  0  0  0  0
 59 51  1  6  0  0  0
 58 52  1  1  0  0  0
 57 53  1  1  0  0  0
 60 54  1  1  0  0  0
 56 55  1  1  0  0  0
 61 56  1  0  0  0  0
 57 56  1  0  0  0  0
 58 57  1  0  0  0  0
 59 58  1  0  0  0  0
 60 59  1  0  0  0  0
 61 60  1  0  0  0  0
  1  2  1  0  0  0  0
  2  3  1  0  0  0  0
  3  4  1  0  0  0  0
  4  5  1  0  0  0  0
  5  6  1  0  0  0  0
  1  6  1  0  0  0  0
  3  7  1  6  0  0  0
  4  8  1  1  0  0  0
  5  9  1  6  0  0  0
 11 12  1  0  0  0  0
 12 13  1  0  0  0  0
 13 14  1  0  0  0  0
 14 15  1  0  0  0  0
 15 16  1  0  0  0  0
 11 16  1  0  0  0  0
 19 20  1  0  0  0  0
 20 21  1  0  0  0  0
 21 22  1  0  0  0  0
 22 23  1  0  0  0  0
 23 24  1  0  0  0  0
 24 25  1  0  0  0  0
 25 26  1  0  0  0  0
 26 27  1  0  0  0  0
 27 28  1  0  0  0  0
 28 29  1  0  0  0  0
 29 30  1  0  0  0  0
 30 31  1  0  0  0  0
 31 32  1  0  0  0  0
 32 33  1  0  0  0  0
 33 34  2  0  0  0  0
 34 35  1  0  0  0  0
 35 36  1  0  0  0  0
 36 37  1  0  0  0  0
 37 38  1  0  0  0  0
 38 39  1  0  0  0  0
 39 40  1  0  0  0  0
 19 40  1  0  0  0  0
 19 36  1  0  0  0  0
 22 35  1  0  0  0  0
 23 32  1  0  0  0  0
 26 31  1  0  0  0  0
 38 41  1  6  0  0  0
 37 42  1  1  0  0  0
 31 43  1  1  0  0  0
 27 44  1  6  0  0  0
 27 45  1  1  0  0  0
 23 46  1  1  0  0  0
 22 47  1  6  0  0  0
 20 48  1  6  0  0  0
 28 54  1  1  0  0  0
 17 18  1  0  0  0  0
 16 17  1  1  0  0  0
 15 49  1  6  0  0  0
 14 50  1  1  0  0  0
 13 10  1  6  0  0  0
  2 10  1  1  0  0  0
 35 62  1  0  0  0  0
 19 63  1  0  0  0  0
 62 63  1  0  0  0  0
 26 64  1  6  0  0  0
 32 65  1  6  0  0  0
 36 66  1  1  0  0  0
 12 51  1  1  0  0  0
M  END
>  <cdx:fragmentId>
63

$$$$
