302323.cdx
  Mrv1902 05222410242D          

 82 89  0  0  0  0            999 V2000
   12.6393  -10.4682    0.0000 C   0  0  0  0  0  0  0  0  0  0  0  0
   11.8186  -10.5521    0.0000 C   0  0  0  0  0  0  0  0  0  0  0  0
   11.3356   -9.8833    0.0000 C   0  0  0  0  0  0  0  0  0  0  0  0
   10.5149   -9.9672    0.0000 C   0  0  0  0  0  0  0  0  0  0  0  0
   10.1771  -10.7199    0.0000 C   0  0  0  0  0  0  0  0  0  0  0  0
   10.6602  -11.3887    0.0000 C   0  0  0  0  0  0  0  0  0  0  0  0
   11.4809  -11.3048    0.0000 C   0  0  0  0  0  0  0  0  0  0  0  0
   12.9770   -9.7155    0.0000 O   0  0  0  0  0  0  0  0  0  0  0  0
   13.1223  -11.1370    0.0000 O   0  0  0  0  0  0  0  0  0  0  0  0
   11.6733   -9.1306    0.0000 O   0  0  0  0  0  0  0  0  0  0  0  0
   10.2243   -7.1241    0.0000 C   0  0  0  0  0  0  0  0  0  0  0  0
    9.9308   -6.3531    0.0000 C   0  0  0  0  0  0  0  0  0  0  0  0
   10.5996   -5.8700    0.0000 C   0  0  0  0  0  0  0  0  0  0  0  0
   10.5158   -5.0493    0.0000 C   0  0  0  0  0  0  0  0  0  0  0  0
    9.7630   -4.7116    0.0000 C   0  0  0  0  0  0  0  0  0  0  0  0
    9.0942   -5.1946    0.0000 C   0  0  0  0  0  0  0  0  0  0  0  0
    9.1781   -6.0153    0.0000 C   0  0  0  0  0  0  0  0  0  0  0  0
    8.4071   -6.3088    0.0000 C   0  0  0  0  0  0  0  0  0  0  0  0
    8.0693   -7.0615    0.0000 O   0  0  0  0  0  0  0  0  0  0  0  0
    7.2454   -7.1023    0.0000 C   0  0  1  0  0  0  0  0  0  0  0  0
    6.6637   -6.5173    0.0000 C   0  0  1  0  0  0  0  0  0  0  0  0
    5.8662   -6.7285    0.0000 C   0  0  2  0  0  0  0  0  0  0  0  0
    5.6504   -7.5248    0.0000 C   0  0  1  0  0  0  0  0  0  0  0  0
    6.2321   -8.1098    0.0000 O   0  0  0  0  0  0  0  0  0  0  0  0
    7.0296   -7.8986    0.0000 C   0  0  2  0  0  0  0  0  0  0  0  0
    7.7202   -8.3499    0.0000 C   0  0  0  0  0  0  0  0  0  0  0  0
    8.3628   -7.8325    0.0000 O   0  0  0  0  0  0  0  0  0  0  0  0
    9.1155   -8.1703    0.0000 C   0  0  0  0  0  0  0  0  0  0  0  0
    9.8866   -7.8768    0.0000 C   0  0  0  0  0  0  0  0  0  0  0  0
   10.3696   -8.5456    0.0000 C   0  0  0  0  0  0  0  0  0  0  0  0
   11.1903   -8.4618    0.0000 C   0  0  0  0  0  0  0  0  0  0  0  0
   11.5280   -7.7090    0.0000 C   0  0  0  0  0  0  0  0  0  0  0  0
   11.0450   -7.0402    0.0000 C   0  0  0  0  0  0  0  0  0  0  0  0
    4.8529   -7.7361    0.0000 O   0  0  0  0  0  0  0  0  0  0  0  0
    4.6348   -8.5317    0.0000 C   0  0  0  0  0  0  0  0  0  0  0  0
    3.8367   -8.7407    0.0000 C   0  0  0  0  0  0  0  0  0  0  0  0
    3.6186   -9.5363    0.0000 C   0  0  0  0  0  0  0  0  0  0  0  0
    2.8205   -9.7453    0.0000 C   0  0  0  0  0  0  0  0  0  0  0  0
    2.2405   -9.1586    0.0000 C   0  0  0  0  0  0  0  0  0  0  0  0
    2.4586   -8.3629    0.0000 C   0  0  0  0  0  0  0  0  0  0  0  0
    3.2567   -8.1540    0.0000 C   0  0  0  0  0  0  0  0  0  0  0  0
    5.2181   -9.1151    0.0000 O   0  0  0  0  0  0  0  0  0  0  0  0
    1.8786   -7.7762    0.0000 O   0  0  0  0  0  0  0  0  0  0  0  0
    1.4424   -9.3676    0.0000 O   0  0  0  0  0  0  0  0  0  0  0  0
    2.6024  -10.5409    0.0000 O   0  0  0  0  0  0  0  0  0  0  0  0
    5.2845   -6.1435    0.0000 O   0  0  0  0  0  0  0  0  0  0  0  0
    4.4870   -6.3547    0.0000 C   0  0  0  0  0  0  0  0  0  0  0  0
    3.9036   -5.7714    0.0000 C   0  0  0  0  0  0  0  0  0  0  0  0
    3.1067   -5.9849    0.0000 C   0  0  0  0  0  0  0  0  0  0  0  0
    2.5234   -5.4015    0.0000 C   0  0  0  0  0  0  0  0  0  0  0  0
    2.7369   -4.6047    0.0000 C   0  0  0  0  0  0  0  0  0  0  0  0
    3.5338   -4.3911    0.0000 C   0  0  0  0  0  0  0  0  0  0  0  0
    4.1171   -4.9745    0.0000 C   0  0  0  0  0  0  0  0  0  0  0  0
    4.2735   -7.1516    0.0000 O   0  0  0  0  0  0  0  0  0  0  0  0
    3.7473   -3.5942    0.0000 O   0  0  0  0  0  0  0  0  0  0  0  0
    2.1535   -4.0213    0.0000 O   0  0  0  0  0  0  0  0  0  0  0  0
    1.7265   -5.6151    0.0000 O   0  0  0  0  0  0  0  0  0  0  0  0
    6.8795   -5.7210    0.0000 O   0  0  0  0  0  0  0  0  0  0  0  0
    6.2978   -5.1360    0.0000 C   0  0  0  0  0  0  0  0  0  0  0  0
    6.5113   -4.3391    0.0000 C   0  0  0  0  0  0  0  0  0  0  0  0
    5.9279   -3.7557    0.0000 C   0  0  0  0  0  0  0  0  0  0  0  0
    6.1415   -2.9588    0.0000 C   0  0  0  0  0  0  0  0  0  0  0  0
    6.9384   -2.7453    0.0000 C   0  0  0  0  0  0  0  0  0  0  0  0
    7.5217   -3.3287    0.0000 C   0  0  0  0  0  0  0  0  0  0  0  0
    7.3082   -4.1256    0.0000 C   0  0  0  0  0  0  0  0  0  0  0  0
    5.5009   -5.3495    0.0000 O   0  0  0  0  0  0  0  0  0  0  0  0
    8.3186   -3.1152    0.0000 O   0  0  0  0  0  0  0  0  0  0  0  0
    7.1519   -1.9484    0.0000 O   0  0  0  0  0  0  0  0  0  0  0  0
    5.5581   -2.3755    0.0000 O   0  0  0  0  0  0  0  0  0  0  0  0
    9.1155   -8.9953    0.0000 O   0  0  0  0  0  0  0  0  0  0  0  0
    7.8409   -5.7087    0.0000 O   0  0  0  0  0  0  0  0  0  0  0  0
   11.6198   -6.4484    0.0000 O   0  0  0  0  0  0  0  0  0  0  0  0
   12.3487   -7.6252    0.0000 O   0  0  0  0  0  0  0  0  0  0  0  0
    9.6792   -3.8909    0.0000 O   0  0  0  0  0  0  0  0  0  0  0  0
   11.1846   -4.5663    0.0000 O   0  0  0  0  0  0  0  0  0  0  0  0
   11.4225   -5.9300    0.0000 O   0  0  0  0  0  0  0  0  0  0  0  0
   10.3224  -12.1414    0.0000 O   0  0  0  0  0  0  0  0  0  0  0  0
    9.3564  -10.8038    0.0000 O   0  0  0  0  0  0  0  0  0  0  0  0
   10.0319   -9.2984    0.0000 O   0  0  0  0  0  0  0  0  0  0  0  0
   13.9431  -11.0532    0.0000 C   0  0  0  0  0  0  0  0  0  0  0  0
    7.5432   -6.3330    0.0000 H   0  0  0  0  0  0  0  0  0  0  0  0
    6.8982   -8.7131    0.0000 H   0  0  0  0  0  0  0  0  0  0  0  0
  1  2  1  0  0  0  0
  2  3  1  0  0  0  0
  3  4  2  0  0  0  0
  4  5  1  0  0  0  0
  5  6  2  0  0  0  0
  6  7  1  0  0  0  0
  2  7  2  0  0  0  0
  1  8  2  0  0  0  0
  1  9  1  0  0  0  0
 11 12  1  0  0  0  0
 12 13  2  0  0  0  0
 13 14  1  0  0  0  0
 14 15  2  0  0  0  0
 15 16  1  0  0  0  0
 16 17  2  0  0  0  0
 17 18  1  0  0  0  0
 18 19  1  0  0  0  0
 19 20  1  0  0  0  0
 20 21  1  0  0  0  0
 21 22  1  0  0  0  0
 22 23  1  0  0  0  0
 23 24  1  0  0  0  0
 24 25  1  0  0  0  0
 25 26  1  0  0  0  0
 26 27  1  0  0  0  0
 27 28  1  0  0  0  0
 28 29  1  0  0  0  0
 29 30  2  0  0  0  0
 30 31  1  0  0  0  0
 31 32  2  0  0  0  0
 32 33  1  0  0  0  0
 11 33  2  0  0  0  0
 11 29  1  0  0  0  0
 20 25  1  0  0  0  0
 12 17  1  0  0  0  0
 35 36  1  0  0  0  0
 36 37  1  0  0  0  0
 37 38  2  0  0  0  0
 38 39  1  0  0  0  0
 39 40  2  0  0  0  0
 40 41  1  0  0  0  0
 36 41  2  0  0  0  0
 35 42  2  0  0  0  0
 40 43  1  0  0  0  0
 39 44  1  0  0  0  0
 38 45  1  0  0  0  0
 34 35  1  0  0  0  0
 23 34  1  1  0  0  0
 47 48  1  0  0  0  0
 48 49  1  0  0  0  0
 49 50  2  0  0  0  0
 50 51  1  0  0  0  0
 51 52  2  0  0  0  0
 52 53  1  0  0  0  0
 48 53  2  0  0  0  0
 47 54  2  0  0  0  0
 52 55  1  0  0  0  0
 51 56  1  0  0  0  0
 50 57  1  0  0  0  0
 46 47  1  0  0  0  0
 22 46  1  6  0  0  0
 59 60  1  0  0  0  0
 60 61  1  0  0  0  0
 61 62  2  0  0  0  0
 62 63  1  0  0  0  0
 63 64  2  0  0  0  0
 64 65  1  0  0  0  0
 60 65  2  0  0  0  0
 59 66  2  0  0  0  0
 64 67  1  0  0  0  0
 63 68  1  0  0  0  0
 62 69  1  0  0  0  0
 58 59  1  0  0  0  0
 21 58  1  1  0  0  0
 28 70  2  0  0  0  0
 18 71  2  0  0  0  0
 33 72  1  0  0  0  0
 32 73  1  0  0  0  0
 15 74  1  0  0  0  0
 14 75  1  0  0  0  0
 13 76  1  0  0  0  0
 10 31  1  0  0  0  0
  3 10  1  0  0  0  0
  6 77  1  0  0  0  0
  5 78  1  0  0  0  0
  4 79  1  0  0  0  0
  9 80  1  0  0  0  0
 20 81  1  1  0  0  0
 25 82  1  6  0  0  0
M  END
>  <cdx:groupId>
259

>  <cdx:fragmentId>
29

$$$$
