302328.cdx
  Mrv1902 05222410202D          

 11 12  0  0  0  0            999 V2000
    7.3625   -6.4677    0.0000 C   0  0  0  0  0  0  0  0  0  0  0  0
    6.6480   -6.0552    0.0000 C   0  0  0  0  0  0  0  0  0  0  0  0
    5.9335   -6.4677    0.0000 C   0  0  0  0  0  0  0  0  0  0  0  0
    5.9335   -7.2927    0.0000 C   0  0  0  0  0  0  0  0  0  0  0  0
    6.6480   -7.7052    0.0000 C   0  0  0  0  0  0  0  0  0  0  0  0
    7.3625   -7.2927    0.0000 N   0  0  0  0  0  0  0  0  0  0  0  0
    8.6320   -6.8802    0.0000 N   0  0  0  0  0  0  0  0  0  0  0  0
    8.1471   -6.2127    0.0000 N   0  0  0  0  0  0  0  0  0  0  0  0
    8.1471   -7.5476    0.0000 C   0  0  0  0  0  0  0  0  0  0  0  0
    8.4020   -8.3322    0.0000 S   0  0  0  0  0  0  0  0  0  0  0  0
    6.6480   -8.5302    0.0000 C   0  0  0  0  0  0  0  0  0  0  0  0
  1  2  1  0  0  0  0
  2  3  2  0  0  0  0
  3  4  1  0  0  0  0
  4  5  2  0  0  0  0
  5  6  1  0  0  0  0
  1  6  1  0  0  0  0
  7  8  1  0  0  0  0
  7  9  1  0  0  0  0
  9  6  1  0  0  0  0
  8  1  2  0  0  0  0
  9 10  2  0  0  0  0
  5 11  1  0  0  0  0
M  END
>  <cdx:groupId>
36

>  <cdx:fragmentId>
5

$$$$
