302382.cdx
  Mrv1902 05222410272D          

 23 23  0  0  0  0            999 V2000
   10.0768  -10.4511    0.0000 C   0  0  0  0  0  0  0  0  0  0  0  0
    9.3623  -10.8636    0.0000 C   0  0  0  0  0  0  0  0  0  0  0  0
    8.6479  -10.4511    0.0000 C   0  0  0  0  0  0  0  0  0  0  0  0
    8.6479   -9.6261    0.0000 C   0  0  0  0  0  0  0  0  0  0  0  0
    7.9334   -9.2136    0.0000 C   0  0  0  0  0  0  0  0  0  0  0  0
    7.9334   -8.3886    0.0000 C   0  0  0  0  0  0  0  0  0  0  0  0
    7.2189   -7.9761    0.0000 C   0  0  0  0  0  0  0  0  0  0  0  0
    7.2189   -7.1511    0.0000 C   0  0  0  0  0  0  0  0  0  0  0  0
    6.5044   -6.7386    0.0000 C   0  0  0  0  0  0  0  0  0  0  0  0
    6.5044   -5.9136    0.0000 C   0  0  0  0  0  0  0  0  0  0  0  0
    5.7900   -5.5011    0.0000 C   0  0  0  0  0  0  0  0  0  0  0  0
    5.7900   -4.6761    0.0000 C   0  0  0  0  0  0  0  0  0  0  0  0
   10.0768   -9.6261    0.0000 O   0  0  0  0  0  0  0  0  0  0  0  0
   10.7913  -10.8636    0.0000 O   0  0  0  0  0  0  0  0  0  0  0  0
    4.3218   -4.5992    0.0000 O   0  0  0  0  0  0  0  0  0  0  0  0
    5.0755   -4.2636    0.0000 C   0  0  0  0  0  0  0  0  0  0  0  0
    4.9893   -3.4431    0.0000 C   0  0  0  0  0  0  0  0  0  0  0  0
    4.1823   -3.2716    0.0000 C   0  0  0  0  0  0  0  0  0  0  0  0
    3.7698   -3.9861    0.0000 C   0  0  0  0  0  0  0  0  0  0  0  0
    5.6024   -2.8911    0.0000 C   0  0  0  0  0  0  0  0  0  0  0  0
    7.2189   -5.5011    0.0000 C   0  0  0  0  0  0  0  0  0  0  0  0
    8.6479   -7.9761    0.0000 C   0  0  0  0  0  0  0  0  0  0  0  0
    9.3623  -11.6886    0.0000 C   0  0  0  0  0  0  0  0  0  0  0  0
  1  2  1  0  0  0  0
  2  3  2  0  0  0  0
  3  4  1  0  0  0  0
  4  5  1  0  0  0  0
  5  6  1  0  0  0  0
  6  7  2  0  0  0  0
  7  8  1  0  0  0  0
  8  9  1  0  0  0  0
  9 10  1  0  0  0  0
 10 11  2  0  0  0  0
 11 12  1  0  0  0  0
  1 13  2  0  0  0  0
  1 14  1  0  0  0  0
 15 16  1  0  0  0  0
 16 17  2  0  0  0  0
 17 18  1  0  0  0  0
 18 19  2  0  0  0  0
 15 19  1  0  0  0  0
 17 20  1  0  0  0  0
 12 16  1  0  0  0  0
 10 21  1  0  0  0  0
  6 22  1  0  0  0  0
  2 23  1  0  0  0  0
M  END
>  <cdx:groupId>
71

>  <cdx:fragmentId>
5

$$$$
