302374.cdx
  Mrv1902 05222410192D          

 61 67  0  0  0  0            999 V2000
    8.0541   -9.9371    0.0000 C   0  0  1  0  0  0  0  0  0  0  0  0
    7.3397  -10.3496    0.0000 C   0  0  1  0  0  0  0  0  0  0  0  0
    6.6252   -9.9371    0.0000 C   0  0  1  0  0  0  0  0  0  0  0  0
    6.6252   -9.1121    0.0000 C   0  0  0  0  0  0  0  0  0  0  0  0
    7.3397   -8.6996    0.0000 C   0  0  0  0  0  0  0  0  0  0  0  0
    8.0541   -9.1121    0.0000 O   0  0  0  0  0  0  0  0  0  0  0  0
    6.0121  -10.4892    0.0000 C   0  0  2  0  0  0  0  0  0  0  0  0
    6.3477  -11.2428    0.0000 C   0  0  0  0  0  0  0  0  0  0  0  0
    7.1681  -11.1566    0.0000 C   0  0  0  0  0  0  0  0  0  0  0  0
    5.9107   -8.6996    0.0000 C   0  0  0  0  0  0  0  0  0  0  0  0
    5.1963   -9.1121    0.0000 O   0  0  0  0  0  0  0  0  0  0  0  0
    5.9107   -7.8746    0.0000 O   0  0  0  0  0  0  0  0  0  0  0  0
    8.7686  -10.3496    0.0000 O   0  0  0  0  0  0  0  0  0  0  0  0
   10.1975  -10.3496    0.0000 O   0  0  0  0  0  0  0  0  0  0  0  0
    9.4831   -9.9371    0.0000 C   0  0  2  0  0  0  0  0  0  0  0  0
    9.4831   -9.1121    0.0000 C   0  0  1  0  0  0  0  0  0  0  0  0
   10.1975   -8.6996    0.0000 C   0  0  2  0  0  0  0  0  0  0  0  0
   10.9120   -9.1121    0.0000 C   0  0  1  0  0  0  0  0  0  0  0  0
   10.9120   -9.9371    0.0000 C   0  0  1  0  0  0  0  0  0  0  0  0
   11.6265  -10.3496    0.0000 C   0  0  0  0  0  0  0  0  0  0  0  0
   12.3410   -9.9371    0.0000 O   0  0  0  0  0  0  0  0  0  0  0  0
   11.6265   -8.6996    0.0000 O   0  0  0  0  0  0  0  0  0  0  0  0
   10.1975   -7.8746    0.0000 O   0  0  0  0  0  0  0  0  0  0  0  0
    8.7686   -8.6996    0.0000 O   0  0  0  0  0  0  0  0  0  0  0  0
    7.7202  -11.7697    0.0000 C   0  0  0  0  0  0  0  0  0  0  0  0
    7.5066  -12.5666    0.0000 O   0  0  0  0  0  0  0  0  0  0  0  0
    8.0900  -13.1499    0.0000 C   0  0  0  0  0  0  0  0  0  0  0  0
    8.8869  -12.9364    0.0000 O   0  0  0  0  0  0  0  0  0  0  0  0
    6.1251   -3.5434    0.0000 C   0  0  0  0  0  0  0  0  0  0  0  0
    6.5423   -2.8322    0.0000 C   0  0  0  0  0  0  0  0  0  0  0  0
    7.3628   -2.9184    0.0000 O   0  0  0  0  0  0  0  0  0  0  0  0
    7.6242   -3.7009    0.0000 C   0  0  1  0  0  0  0  0  0  0  0  0
    8.1091   -4.3684    0.0000 C   0  0  0  0  0  0  0  0  0  0  0  0
    7.6242   -5.0358    0.0000 C   0  0  0  0  0  0  0  0  0  0  0  0
    6.8395   -4.7809    0.0000 C   0  0  1  0  0  0  0  0  0  0  0  0
    6.1251   -5.1934    0.0000 C   0  0  1  0  0  0  0  0  0  0  0  0
    5.4106   -4.7809    0.0000 O   0  0  0  0  0  0  0  0  0  0  0  0
    5.4106   -3.9559    0.0000 C   0  0  0  0  0  0  0  0  0  0  0  0
    6.8395   -3.9559    0.0000 C   0  0  1  0  0  0  0  0  0  0  0  0
    6.1298   -2.1177    0.0000 O   0  0  0  0  0  0  0  0  0  0  0  0
    7.8791   -5.8204    0.0000 C   0  0  0  0  0  0  0  0  0  0  0  0
    8.6861   -5.9920    0.0000 O   0  0  0  0  0  0  0  0  0  0  0  0
    7.8765  -13.9468    0.0000 S   0  0  0  0  0  0  0  0  0  0  0  0
    8.4598  -14.5302    0.0000 C   0  0  0  0  0  0  0  0  0  0  0  0
    5.2051  -10.3176    0.0000 O   0  0  0  0  0  0  0  0  0  0  0  0
    5.8715   -9.6016    0.0000 H   0  0  0  0  0  0  0  0  0  0  0  0
    8.3386   -3.2884    0.0000 H   0  0  0  0  0  0  0  0  0  0  0  0
    6.9258   -5.6014    0.0000 H   0  0  0  0  0  0  0  0  0  0  0  0
    6.8395   -3.3371    0.0000 H   0  0  0  0  0  0  0  0  0  0  0  0
    8.0071  -10.8346    0.0000 H   0  0  0  0  0  0  0  0  0  0  0  0
    4.4818   -8.6996    0.0000 O   0  0  0  0  0  0  0  0  0  0  0  0
    3.0528   -7.8746    0.0000 O   0  0  0  0  0  0  0  0  0  0  0  0
    2.3384   -6.6371    0.0000 O   0  0  0  0  0  0  0  0  0  0  0  0
    3.0528   -6.2246    0.0000 C   0  0  0  0  0  0  0  0  0  0  0  0
    6.1251   -6.1009    0.0000 O   0  0  0  0  0  0  0  0  0  0  0  0
    3.7673   -6.6371    0.0000 C   0  0  2  0  0  0  0  0  0  0  0  0
    3.7673   -7.4621    0.0000 C   0  0  2  0  0  0  0  0  0  0  0  0
    4.4818   -7.8746    0.0000 C   0  0  1  0  0  0  0  0  0  0  0  0
    5.1963   -7.4621    0.0000 C   0  0  2  0  0  0  0  0  0  0  0  0
    5.1963   -6.6371    0.0000 C   0  0  1  0  0  0  0  0  0  0  0  0
    4.4818   -6.2246    0.0000 O   0  0  0  0  0  0  0  0  0  0  0  0
 59 12  1  6  0  0  0
 58 51  1  1  0  0  0
 57 52  1  6  0  0  0
 56 54  1  1  0  0  0
 54 53  1  0  0  0  0
 60 55  1  1  0  0  0
 61 56  1  0  0  0  0
 57 56  1  0  0  0  0
 58 57  1  0  0  0  0
 59 58  1  0  0  0  0
 60 59  1  0  0  0  0
 61 60  1  0  0  0  0
  1  2  1  0  0  0  0
  2  3  1  0  0  0  0
  3  4  1  0  0  0  0
  4  5  2  0  0  0  0
  5  6  1  0  0  0  0
  1  6  1  0  0  0  0
  7  8  1  0  0  0  0
  8  9  2  0  0  0  0
  9  2  1  0  0  0  0
  7  3  1  0  0  0  0
 10 11  2  0  0  0  0
 10 12  1  0  0  0  0
  4 10  1  0  0  0  0
 14 15  1  0  0  0  0
 15 16  1  0  0  0  0
 16 17  1  0  0  0  0
 17 18  1  0  0  0  0
 18 19  1  0  0  0  0
 14 19  1  0  0  0  0
 20 21  1  0  0  0  0
 19 20  1  1  0  0  0
 18 22  1  6  0  0  0
 17 23  1  1  0  0  0
 16 24  1  6  0  0  0
 15 13  1  1  0  0  0
  1 13  1  1  0  0  0
 27 28  2  0  0  0  0
 43 44  1  0  0  0  0
 27 43  1  0  0  0  0
 29 30  1  0  0  0  0
 30 31  1  0  0  0  0
 31 32  1  0  0  0  0
 32 33  1  0  0  0  0
 33 34  2  0  0  0  0
 34 35  1  0  0  0  0
 35 36  1  0  0  0  0
 36 37  1  0  0  0  0
 37 38  1  0  0  0  0
 29 38  2  0  0  0  0
 29 39  1  0  0  0  0
 39 35  1  0  0  0  0
 32 39  1  0  0  0  0
 30 40  2  0  0  0  0
 41 42  1  0  0  0  0
 34 41  1  0  0  0  0
 36 55  1  6  0  0  0
 26 27  1  0  0  0  0
 25 26  1  0  0  0  0
  9 25  1  0  0  0  0
  7 45  1  6  0  0  0
  3 46  1  1  0  0  0
  2 50  1  1  0  0  0
 32 47  1  6  0  0  0
 35 48  1  6  0  0  0
 39 49  1  6  0  0  0
M  END
>  <cdx:fragmentId>
5

$$$$
