302337.cdx
  Mrv1902 05222410242D          

 37 40  0  0  0  0            999 V2000
    9.5553   -7.3887    0.0000 C   0  0  0  0  0  0  0  0  0  0  0  0
    9.2307   -8.1471    0.0000 C   0  0  0  0  0  0  0  0  0  0  0  0
    9.7253   -8.8074    0.0000 C   0  0  0  0  0  0  0  0  0  0  0  0
    9.4007   -9.5659    0.0000 C   0  0  0  0  0  0  0  0  0  0  0  0
    9.8953  -10.2262    0.0000 C   0  0  0  0  0  0  0  0  0  0  0  0
    9.5707  -10.9847    0.0000 C   0  0  0  0  0  0  0  0  0  0  0  0
   10.0653  -11.6450    0.0000 C   0  0  0  0  0  0  0  0  0  0  0  0
   10.8844  -11.5469    0.0000 C   0  0  0  0  0  0  0  0  0  0  0  0
    9.7407  -12.4035    0.0000 C   0  0  0  0  0  0  0  0  0  0  0  0
   10.5444   -8.7093    0.0000 C   0  0  0  0  0  0  0  0  0  0  0  0
    4.8530   -8.5259    0.0000 O   0  0  0  0  0  0  0  0  0  0  0  0
    3.3882   -6.0719    0.0000 O   0  0  0  0  0  0  0  0  0  0  0  0
   10.2044   -5.8717    0.0000 O   0  0  0  0  0  0  0  0  0  0  0  0
    5.7660   -3.8388    0.0000 C   0  0  0  0  0  0  0  0  0  0  0  0
    7.1891   -3.9675    0.0000 C   0  0  0  0  0  0  0  0  0  0  0  0
    6.4404   -4.3140    0.0000 C   0  0  0  0  0  0  0  0  0  0  0  0
    6.3661   -5.1356    0.0000 C   0  0  0  0  0  0  0  0  0  0  0  0
    7.0405   -5.6108    0.0000 C   0  0  0  0  0  0  0  0  0  0  0  0
    6.2818   -8.5051    0.0000 O   0  0  0  0  0  0  0  0  0  0  0  0
    8.2416   -6.8265    0.0000 C   0  0  0  0  0  0  0  0  0  0  0  0
    9.0607   -6.7283    0.0000 C   0  0  0  0  0  0  0  0  0  0  0  0
    9.3853   -5.9699    0.0000 C   0  0  0  0  0  0  0  0  0  0  0  0
    8.8907   -5.3095    0.0000 C   0  0  0  0  0  0  0  0  0  0  0  0
    8.0716   -5.4077    0.0000 C   0  0  0  0  0  0  0  0  0  0  0  0
    7.7470   -6.1661    0.0000 C   0  0  0  0  0  0  0  0  0  0  0  0
    7.7664   -7.5009    0.0000 O   0  0  0  0  0  0  0  0  0  0  0  0
    6.2458   -6.0304    0.0000 O   0  0  0  0  0  0  0  0  0  0  0  0
    5.5374   -6.4532    0.0000 C   0  0  0  0  0  0  0  0  0  0  0  0
    4.8170   -6.0511    0.0000 C   0  0  0  0  0  0  0  0  0  0  0  0
    4.1086   -6.4740    0.0000 C   0  0  0  0  0  0  0  0  0  0  0  0
    4.1206   -7.2989    0.0000 C   0  0  0  0  0  0  0  0  0  0  0  0
    4.8410   -7.7010    0.0000 C   0  0  0  0  0  0  0  0  0  0  0  0
    5.5494   -7.2781    0.0000 C   0  0  0  0  0  0  0  0  0  0  0  0
    6.2698   -7.6802    0.0000 C   0  0  0  0  0  0  0  0  0  0  0  0
    6.9782   -7.2574    0.0000 C   0  0  2  0  0  0  0  0  0  0  0  0
    6.9662   -6.4325    0.0000 C   0  0  2  0  0  0  0  0  0  0  0  0
    7.0763   -8.0765    0.0000 O   0  0  0  0  0  0  0  0  0  0  0  0
 21  1  1  0  0  0  0
 32 11  1  0  0  0  0
 30 12  1  0  0  0  0
 22 13  1  0  0  0  0
 36 18  1  1  0  0  0
 16 14  1  0  0  0  0
 16 15  1  0  0  0  0
 17 16  2  0  0  0  0
 18 17  1  0  0  0  0
 34 19  2  0  0  0  0
 26 35  1  0  0  0  0
 25 36  1  0  0  0  0
 26 20  1  0  0  0  0
 25 20  2  0  0  0  0
 21 20  1  0  0  0  0
 22 21  2  0  0  0  0
 23 22  1  0  0  0  0
 24 23  2  0  0  0  0
 25 24  1  0  0  0  0
 36 27  1  0  0  0  0
 28 27  1  0  0  0  0
 33 28  2  0  0  0  0
 29 28  1  0  0  0  0
 30 29  2  0  0  0  0
 31 30  1  0  0  0  0
 32 31  2  0  0  0  0
 33 32  1  0  0  0  0
 34 33  1  0  0  0  0
 35 34  1  0  0  0  0
 36 35  1  0  0  0  0
  1  2  1  0  0  0  0
  2  3  2  0  0  0  0
  3  4  1  0  0  0  0
  4  5  1  0  0  0  0
  5  6  1  0  0  0  0
  6  7  2  0  0  0  0
  7  8  1  0  0  0  0
  7  9  1  0  0  0  0
  3 10  1  0  0  0  0
 35 37  1  1  0  0  0
M  END
>  <cdx:fragmentId>
5

$$$$
