30232.cdx
  Mrv1902 05222410232D          

 17 18  0  0  0  0            999 V2000
    7.7149   -8.0103    0.0000 C   0  0  0  0  0  0  0  0  0  0  0  0
    8.5117   -7.7962    0.0000 C   0  0  0  0  0  0  0  0  0  0  0  0
    9.3084   -8.0103    0.0000 C   0  0  0  0  0  0  0  0  0  0  0  0
    9.7221   -7.2966    0.0000 C   0  0  0  0  0  0  0  0  0  0  0  0
    8.1286   -7.2966    0.0000 C   0  0  0  0  0  0  0  0  0  0  0  0
    8.9253   -7.0825    0.0000 C   0  0  0  0  0  0  0  0  0  0  0  0
    8.5131   -6.3688    0.0000 C   0  0  0  0  0  0  0  0  0  0  0  0
    8.0992   -8.5107    0.0000 C   0  0  0  0  0  0  0  0  0  0  0  0
    7.9298   -5.7855    0.0000 C   0  0  0  0  0  0  0  0  0  0  0  0
    8.7266   -5.5719    0.0000 C   0  0  0  0  0  0  0  0  0  0  0  0
    7.3024   -8.7248    0.0000 O   0  0  0  0  0  0  0  0  0  0  0  0
    6.4774   -8.7248    0.0000 C   0  0  0  0  0  0  0  0  0  0  0  0
    6.0649   -9.4393    0.0000 C   0  0  0  0  0  0  0  0  0  0  0  0
    5.2399   -9.4393    0.0000 C   0  0  0  0  0  0  0  0  0  0  0  0
    4.8274  -10.1538    0.0000 C   0  0  0  0  0  0  0  0  0  0  0  0
    4.8274   -8.7248    0.0000 C   0  0  0  0  0  0  0  0  0  0  0  0
    6.0649   -8.0103    0.0000 O   0  0  0  0  0  0  0  0  0  0  0  0
  1  2  1  0  0  0  0
  2  3  1  0  0  0  0
  3  4  1  0  0  0  0
  1  5  1  0  0  0  0
  5  6  1  0  0  0  0
  4  6  1  0  0  0  0
  6  7  1  0  0  0  0
  2  7  1  0  0  0  0
  2  8  1  0  0  0  0
  7  9  1  0  0  0  0
  7 10  1  0  0  0  0
  1 11  1  0  0  0  0
 11 12  1  0  0  0  0
 12 13  1  0  0  0  0
 13 14  2  0  0  0  0
 14 15  1  0  0  0  0
 14 16  1  0  0  0  0
 12 17  2  0  0  0  0
M  END
>  <cdx:groupId>
799

>  <cdx:fragmentId>
800

$$$$
