302326.cdx
  Mrv1902 05222410252D          

 40 47  0  0  0  0            999 V2000
    9.2035  -10.8220    0.0000 C   0  0  0  0  0  0  0  0  0  0  0  0
    8.3216   -8.0066    0.0000 C   0  0  0  0  0  0  0  0  0  0  0  0
    8.5901   -7.3612    0.0000 C   0  0  0  0  0  0  0  0  0  0  0  0
    8.2498   -6.6323    0.0000 C   0  0  0  0  0  0  0  0  0  0  0  0
    8.7108   -5.9732    0.0000 C   0  0  0  0  0  0  0  0  0  0  0  0
    8.3705   -5.2444    0.0000 C   0  0  0  0  0  0  0  0  0  0  0  0
    7.5691   -5.1747    0.0000 C   0  0  0  0  0  0  0  0  0  0  0  0
    7.1081   -5.8338    0.0000 C   0  0  0  0  0  0  0  0  0  0  0  0
    7.4484   -6.5627    0.0000 C   0  0  0  0  0  0  0  0  0  0  0  0
    6.9874   -7.2218    0.0000 C   0  0  0  0  0  0  0  0  0  0  0  0
    7.3278   -7.9507    0.0000 C   0  0  0  0  0  0  0  0  0  0  0  0
    6.8750   -8.4425    0.0000 C   0  0  0  0  0  0  0  0  0  0  0  0
    7.1500   -9.2950    0.0000 C   0  0  0  0  0  0  0  0  0  0  0  0
    7.8650   -8.6625    0.0000 C   0  0  0  0  0  0  0  0  0  0  0  0
    9.0750   -8.7175    0.0000 C   0  0  0  0  0  0  0  0  0  0  0  0
    8.4753   -9.5845    0.0000 C   0  0  0  0  0  0  0  0  0  0  0  0
    7.7608   -9.9970    0.0000 C   0  0  0  0  0  0  0  0  0  0  0  0
    7.0463   -9.5845    0.0000 C   0  0  0  0  0  0  0  0  0  0  0  0
    6.3318   -9.9970    0.0000 C   0  0  0  0  0  0  0  0  0  0  0  0
    5.6174   -9.5845    0.0000 C   0  0  0  0  0  0  0  0  0  0  0  0
    4.9029   -9.9970    0.0000 C   0  0  0  0  0  0  0  0  0  0  0  0
    4.9029  -10.8220    0.0000 C   0  0  0  0  0  0  0  0  0  0  0  0
    5.6174  -11.2345    0.0000 C   0  0  0  0  0  0  0  0  0  0  0  0
    6.3318  -10.8220    0.0000 C   0  0  0  0  0  0  0  0  0  0  0  0
    7.0463  -11.2345    0.0000 C   0  0  0  0  0  0  0  0  0  0  0  0
    7.7608  -10.8220    0.0000 C   0  0  0  0  0  0  0  0  0  0  0  0
    8.4753  -11.2345    0.0000 C   0  0  0  0  0  0  0  0  0  0  0  0
    9.1897   -9.9970    0.0000 C   0  0  0  0  0  0  0  0  0  0  0  0
    9.4151   -7.3612    0.0000 O   0  0  0  0  0  0  0  0  0  0  0  0
    6.0781   -8.3940    0.0000 O   0  0  0  0  0  0  0  0  0  0  0  0
    6.5160   -8.9525    0.0000 O   0  0  0  0  0  0  0  0  0  0  0  0
    8.4753  -12.0595    0.0000 O   0  0  0  0  0  0  0  0  0  0  0  0
    4.1884   -9.5845    0.0000 C   0  0  0  0  0  0  0  0  0  0  0  0
    8.7830   -4.5299    0.0000 C   0  0  0  0  0  0  0  0  0  0  0  0
    9.9042   -9.5845    0.0000 O   0  0  0  0  0  0  0  0  0  0  0  0
    7.0463  -12.0595    0.0000 O   0  0  0  0  0  0  0  0  0  0  0  0
    5.6174  -12.0595    0.0000 O   0  0  0  0  0  0  0  0  0  0  0  0
    7.8650   -7.8375    0.0000 O   0  0  0  0  0  0  0  0  0  0  0  0
    6.1624   -7.2218    0.0000 O   0  0  0  0  0  0  0  0  0  0  0  0
    6.2831   -5.8338    0.0000 O   0  0  0  0  0  0  0  0  0  0  0  0
  1  2  1  0  0  0  0
  2  3  1  0  0  0  0
  3  4  1  0  0  0  0
  4  5  1  0  0  0  0
  5  6  2  0  0  0  0
  6  7  1  0  0  0  0
  7  8  2  0  0  0  0
  8  9  1  0  0  0  0
  9 10  1  0  0  0  0
 10 11  2  0  0  0  0
 11 12  1  0  0  0  0
 12 13  1  0  0  0  0
 13 14  1  0  0  0  0
 14 15  1  0  0  0  0
 15 16  1  0  0  0  0
 16 17  1  0  0  0  0
 17 18  1  0  0  0  0
 18 19  1  0  0  0  0
 19 20  1  0  0  0  0
 20 21  2  0  0  0  0
 21 22  1  0  0  0  0
 22 23  2  0  0  0  0
 23 24  1  0  0  0  0
 24 25  1  0  0  0  0
 25 26  2  0  0  0  0
 26 27  1  0  0  0  0
  1 27  1  0  0  0  0
  1 28  1  0  0  0  0
 28 16  1  0  0  0  0
 17 26  1  0  0  0  0
 19 24  2  0  0  0  0
 13 17  1  0  0  0  0
  2 15  1  0  0  0  0
  2 11  1  0  0  0  0
  4  9  2  0  0  0  0
  3 29  2  0  0  0  0
 12 30  2  0  0  0  0
 18 31  2  0  0  0  0
 27 32  2  0  0  0  0
 21 33  1  0  0  0  0
  6 34  1  0  0  0  0
 28 35  1  0  0  0  0
 25 36  1  0  0  0  0
 23 37  1  0  0  0  0
 14 38  1  0  0  0  0
 10 39  1  0  0  0  0
  8 40  1  0  0  0  0
M  END
>  <cdx:fragmentId>
5

$$$$
