302384.cdx
  Mrv1902 05222410282D          

 26 30  0  0  0  0            999 V2000
    4.7583   -5.8677    0.0000 O   0  0  0  0  0  0  0  0  0  0  0  0
    5.3104   -5.2546    0.0000 C   0  0  0  0  0  0  0  0  0  0  0  0
    6.0641   -5.5901    0.0000 C   0  0  0  0  0  0  0  0  0  0  0  0
    5.9778   -6.4106    0.0000 C   0  0  2  0  0  0  0  0  0  0  0  0
    5.1708   -6.5821    0.0000 C   0  0  0  0  0  0  0  0  0  0  0  0
    5.1389   -4.4476    0.0000 O   0  0  0  0  0  0  0  0  0  0  0  0
    6.7785   -5.1776    0.0000 C   0  0  0  0  0  0  0  0  0  0  0  0
    9.7066   -6.6701    0.0000 O   0  0  0  0  0  0  0  0  0  0  0  0
   10.1915   -6.0026    0.0000 C   0  0  0  0  0  0  0  0  0  0  0  0
    9.7066   -5.3352    0.0000 O   0  0  0  0  0  0  0  0  0  0  0  0
    8.9219   -5.5901    0.0000 C   0  0  0  0  0  0  0  0  0  0  0  0
    8.9219   -6.4151    0.0000 C   0  0  0  0  0  0  0  0  0  0  0  0
    8.2075   -5.1776    0.0000 C   0  0  0  0  0  0  0  0  0  0  0  0
    7.4930   -5.5901    0.0000 C   0  0  0  0  0  0  0  0  0  0  0  0
    7.4930   -6.4151    0.0000 C   0  0  0  0  0  0  0  0  0  0  0  0
    8.2075   -6.8276    0.0000 C   0  0  0  0  0  0  0  0  0  0  0  0
    6.5909   -6.9627    0.0000 C   0  0  0  0  0  0  0  0  0  0  0  0
    5.4632   -8.8315    0.0000 C   0  0  0  0  0  0  0  0  0  0  0  0
    5.6348   -8.0246    0.0000 C   0  0  0  0  0  0  0  0  0  0  0  0
    6.4194   -7.7696    0.0000 C   0  0  0  0  0  0  0  0  0  0  0  0
    7.0325   -8.3217    0.0000 C   0  0  0  0  0  0  0  0  0  0  0  0
    6.0763   -9.3836    0.0000 C   0  0  0  0  0  0  0  0  0  0  0  0
    6.8610   -9.1286    0.0000 C   0  0  0  0  0  0  0  0  0  0  0  0
    7.3459   -9.7961    0.0000 O   0  0  0  0  0  0  0  0  0  0  0  0
    6.8610  -10.4635    0.0000 C   0  0  0  0  0  0  0  0  0  0  0  0
    6.0763  -10.2086    0.0000 O   0  0  0  0  0  0  0  0  0  0  0  0
 21 23  2  0  0  0  0
 18 22  2  0  0  0  0
 19 18  1  0  0  0  0
 20 19  2  0  0  0  0
 21 20  1  0  0  0  0
 26 22  1  0  0  0  0
 23 22  1  0  0  0  0
 24 23  1  0  0  0  0
 25 24  1  0  0  0  0
  1  2  1  0  0  0  0
  2  3  1  0  0  0  0
  3  4  1  0  0  0  0
  4  5  1  0  0  0  0
  1  5  1  0  0  0  0
  2  6  2  0  0  0  0
  8  9  1  0  0  0  0
  9 10  1  0  0  0  0
 10 11  1  0  0  0  0
 11 12  1  0  0  0  0
  8 12  1  0  0  0  0
 13 14  1  0  0  0  0
 14 15  2  0  0  0  0
 15 16  1  0  0  0  0
 16 12  2  0  0  0  0
 13 11  2  0  0  0  0
  7 14  1  0  0  0  0
  3  7  2  0  0  0  0
 26 25  1  0  0  0  0
 17 20  1  0  0  0  0
  4 17  1  1  0  0  0
M  END
>  <cdx:fragmentId>
19

$$$$
