302304.cdx
  Mrv1902 05222410232D          

 37 39  0  0  0  0            999 V2000
    8.4307   -6.6159    0.0000 C   0  0  0  0  0  0  0  0  0  0  0  0
    7.7162   -6.2034    0.0000 C   0  0  1  0  0  0  0  0  0  0  0  0
    7.7162   -5.3784    0.0000 C   0  0  0  0  0  0  0  0  0  0  0  0
    8.4307   -7.4409    0.0000 O   0  0  0  0  0  0  0  0  0  0  0  0
    9.1452   -6.2034    0.0000 O   0  0  0  0  0  0  0  0  0  0  0  0
    7.0018   -6.6159    0.0000 O   0  0  0  0  0  0  0  0  0  0  0  0
    6.2873   -6.2034    0.0000 C   0  0  0  0  0  0  0  0  0  0  0  0
    5.5728   -6.6159    0.0000 C   0  0  0  0  0  0  0  0  0  0  0  0
    4.8584   -6.2034    0.0000 C   0  0  0  0  0  0  0  0  0  0  0  0
    6.2873   -5.3784    0.0000 O   0  0  0  0  0  0  0  0  0  0  0  0
    4.1439   -6.6159    0.0000 C   0  0  0  0  0  0  0  0  0  0  0  0
    3.4294   -6.2034    0.0000 C   0  0  0  0  0  0  0  0  0  0  0  0
    2.7149   -6.6159    0.0000 C   0  0  0  0  0  0  0  0  0  0  0  0
    2.7149   -7.4409    0.0000 C   0  0  0  0  0  0  0  0  0  0  0  0
    3.4294   -7.8534    0.0000 C   0  0  0  0  0  0  0  0  0  0  0  0
    4.1439   -7.4409    0.0000 C   0  0  0  0  0  0  0  0  0  0  0  0
    2.0005   -7.8534    0.0000 O   0  0  0  0  0  0  0  0  0  0  0  0
    2.0005   -6.2034    0.0000 O   0  0  0  0  0  0  0  0  0  0  0  0
    8.4307   -4.9659    0.0000 C   0  0  0  0  0  0  0  0  0  0  0  0
    9.1452   -5.3784    0.0000 C   0  0  0  0  0  0  0  0  0  0  0  0
    9.8596   -4.9659    0.0000 C   0  0  0  0  0  0  0  0  0  0  0  0
    9.8596   -4.1409    0.0000 C   0  0  0  0  0  0  0  0  0  0  0  0
    9.1452   -3.7284    0.0000 C   0  0  0  0  0  0  0  0  0  0  0  0
    8.4307   -4.1409    0.0000 C   0  0  0  0  0  0  0  0  0  0  0  0
   10.5741   -3.7284    0.0000 O   0  0  0  0  0  0  0  0  0  0  0  0
   10.5741   -5.3784    0.0000 O   0  0  0  0  0  0  0  0  0  0  0  0
   10.5741   -6.2034    0.0000 O   0  0  0  0  0  0  0  0  0  0  0  0
    9.8596   -6.6159    0.0000 C   0  0  2  0  0  0  0  0  0  0  0  0
    9.8596   -7.4409    0.0000 C   0  0  1  0  0  0  0  0  0  0  0  0
   10.5741   -7.8534    0.0000 C   0  0  2  0  0  0  0  0  0  0  0  0
   11.2886   -7.4409    0.0000 C   0  0  1  0  0  0  0  0  0  0  0  0
   11.2886   -6.6159    0.0000 C   0  0  1  0  0  0  0  0  0  0  0  0
   12.0031   -6.2034    0.0000 C   0  0  0  0  0  0  0  0  0  0  0  0
   12.7175   -6.6159    0.0000 O   0  0  0  0  0  0  0  0  0  0  0  0
   12.0031   -7.8534    0.0000 O   0  0  0  0  0  0  0  0  0  0  0  0
   10.5741   -8.6784    0.0000 O   0  0  0  0  0  0  0  0  0  0  0  0
    9.1452   -7.8534    0.0000 O   0  0  0  0  0  0  0  0  0  0  0  0
  1  2  1  0  0  0  0
  2  3  1  6  0  0  0
  1  4  2  0  0  0  0
  1  5  1  0  0  0  0
  7  8  1  0  0  0  0
  8  9  2  0  0  0  0
  7 10  2  0  0  0  0
 11 12  1  0  0  0  0
 12 13  2  0  0  0  0
 13 14  1  0  0  0  0
 14 15  2  0  0  0  0
 15 16  1  0  0  0  0
 11 16  2  0  0  0  0
 14 17  1  0  0  0  0
 13 18  1  0  0  0  0
  9 11  1  0  0  0  0
  6  7  1  0  0  0  0
  2  6  1  0  0  0  0
 19 20  1  0  0  0  0
 20 21  2  0  0  0  0
 21 22  1  0  0  0  0
 22 23  2  0  0  0  0
 23 24  1  0  0  0  0
 19 24  2  0  0  0  0
 22 25  1  0  0  0  0
 21 26  1  0  0  0  0
  3 19  1  0  0  0  0
 27 28  1  0  0  0  0
 28 29  1  0  0  0  0
 29 30  1  0  0  0  0
 30 31  1  0  0  0  0
 31 32  1  0  0  0  0
 27 32  1  0  0  0  0
 33 34  1  0  0  0  0
 32 33  1  6  0  0  0
 31 35  1  1  0  0  0
 30 36  1  6  0  0  0
 29 37  1  1  0  0  0
 28  5  1  6  0  0  0
M  END
>  <cdx:groupId>
115

>  <cdx:fragmentId>
25

$$$$
