302389.cdx
  Mrv1902 05222410182D          

 25 26  0  0  0  0            999 V2000
    3.1760   -7.4890    0.0000 C   0  0  0  0  0  0  0  0  0  0  0  0
    3.1760   -8.3140    0.0000 C   0  0  0  0  0  0  0  0  0  0  0  0
    3.8905   -8.7265    0.0000 C   0  0  0  0  0  0  0  0  0  0  0  0
    4.6049   -8.3140    0.0000 C   0  0  0  0  0  0  0  0  0  0  0  0
    5.3194   -8.7265    0.0000 C   0  0  0  0  0  0  0  0  0  0  0  0
    6.0339   -8.3140    0.0000 C   0  0  0  0  0  0  0  0  0  0  0  0
    6.0339   -7.4890    0.0000 C   0  0  0  0  0  0  0  0  0  0  0  0
    5.3194   -7.0765    0.0000 C   0  0  0  0  0  0  0  0  0  0  0  0
    4.6049   -7.4890    0.0000 C   0  0  0  0  0  0  0  0  0  0  0  0
    3.8905   -7.0765    0.0000 O   0  0  0  0  0  0  0  0  0  0  0  0
    2.4615   -7.0765    0.0000 O   0  0  0  0  0  0  0  0  0  0  0  0
    5.3194   -6.2515    0.0000 O   0  0  0  0  0  0  0  0  0  0  0  0
    4.6049   -5.8390    0.0000 C   0  0  0  0  0  0  0  0  0  0  0  0
    6.7483   -7.0765    0.0000 O   0  0  0  0  0  0  0  0  0  0  0  0
    7.4628   -7.4890    0.0000 C   0  0  0  0  0  0  0  0  0  0  0  0
    8.1773   -7.0765    0.0000 C   0  0  0  0  0  0  0  0  0  0  0  0
    8.8918   -7.4890    0.0000 C   0  0  0  0  0  0  0  0  0  0  0  0
    9.6062   -7.0765    0.0000 C   0  0  0  0  0  0  0  0  0  0  0  0
   10.3207   -7.4890    0.0000 C   0  0  0  0  0  0  0  0  0  0  0  0
   11.0352   -7.0765    0.0000 C   0  0  0  0  0  0  0  0  0  0  0  0
   11.7496   -7.4890    0.0000 C   0  0  0  0  0  0  0  0  0  0  0  0
   12.4641   -7.0765    0.0000 C   0  0  0  0  0  0  0  0  0  0  0  0
   11.7496   -8.3140    0.0000 C   0  0  0  0  0  0  0  0  0  0  0  0
    8.8918   -8.3140    0.0000 C   0  0  0  0  0  0  0  0  0  0  0  0
   11.0352   -6.2515    0.0000 O   0  0  0  0  0  0  0  0  0  0  0  0
  1  2  1  0  0  0  0
  2  3  2  0  0  0  0
  3  4  1  0  0  0  0
  4  5  1  0  0  0  0
  5  6  2  0  0  0  0
  6  7  1  0  0  0  0
  7  8  2  0  0  0  0
  8  9  1  0  0  0  0
  4  9  2  0  0  0  0
  9 10  1  0  0  0  0
  1 10  1  0  0  0  0
  1 11  2  0  0  0  0
 12 13  1  0  0  0  0
  8 12  1  0  0  0  0
 15 16  1  0  0  0  0
 16 17  2  0  0  0  0
 17 18  1  0  0  0  0
 18 19  1  0  0  0  0
 19 20  1  0  0  0  0
 20 21  1  0  0  0  0
 21 22  2  0  0  0  0
 14 15  1  0  0  0  0
 21 23  1  0  0  0  0
 17 24  1  0  0  0  0
 20 25  1  0  0  0  0
  7 14  1  0  0  0  0
M  END
>  <cdx:fragmentId>
5

$$$$
