302319.cdx
  Mrv1902 05222410252D          

 35 37  0  0  0  0            999 V2000
    5.2824   -7.3009    0.0000 O   0  0  0  0  0  0  0  0  0  0  0  0
    5.9978   -7.7118    0.0000 C   0  0  2  0  0  0  0  0  0  0  0  0
    5.9995   -8.5368    0.0000 C   0  0  1  0  0  0  0  0  0  0  0  0
    5.2860   -8.9509    0.0000 C   0  0  2  0  0  0  0  0  0  0  0  0
    4.5706   -8.5399    0.0000 C   0  0  1  0  0  0  0  0  0  0  0  0
    4.5688   -7.7149    0.0000 C   0  0  1  0  0  0  0  0  0  0  0  0
    6.7149   -8.9478    0.0000 O   0  0  0  0  0  0  0  0  0  0  0  0
    5.2878   -9.7759    0.0000 O   0  0  0  0  0  0  0  0  0  0  0  0
    3.8570   -8.9539    0.0000 O   0  0  0  0  0  0  0  0  0  0  0  0
    3.8535   -7.3040    0.0000 C   0  0  0  0  0  0  0  0  0  0  0  0
    3.1399   -7.7180    0.0000 O   0  0  0  0  0  0  0  0  0  0  0  0
    6.7113   -7.2978    0.0000 O   0  0  0  0  0  0  0  0  0  0  0  0
    5.2806   -6.4759    0.0000 C   0  0  0  0  0  0  0  0  0  0  0  0
    5.9942   -6.0618    0.0000 C   0  0  0  0  0  0  0  0  0  0  0  0
    6.7096   -6.4728    0.0000 C   0  0  1  0  0  0  0  0  0  0  0  0
    7.4231   -6.0587    0.0000 C   0  0  0  0  0  0  0  0  0  0  0  0
    8.1385   -6.4697    0.0000 C   0  0  0  0  0  0  0  0  0  0  0  0
    8.8521   -6.0556    0.0000 C   0  0  0  0  0  0  0  0  0  0  0  0
    9.5674   -6.4666    0.0000 C   0  0  0  0  0  0  0  0  0  0  0  0
   10.2810   -6.0526    0.0000 C   0  0  0  0  0  0  0  0  0  0  0  0
   10.9964   -6.4635    0.0000 C   0  0  0  0  0  0  0  0  0  0  0  0
   11.7100   -6.0495    0.0000 C   0  0  0  0  0  0  0  0  0  0  0  0
   11.7082   -5.2245    0.0000 C   0  0  0  0  0  0  0  0  0  0  0  0
   10.9928   -4.8135    0.0000 C   0  0  0  0  0  0  0  0  0  0  0  0
   10.2792   -5.2276    0.0000 C   0  0  0  0  0  0  0  0  0  0  0  0
   12.4217   -4.8104    0.0000 O   0  0  0  0  0  0  0  0  0  0  0  0
   12.4253   -6.4604    0.0000 O   0  0  0  0  0  0  0  0  0  0  0  0
    4.5653   -6.0649    0.0000 C   0  0  0  0  0  0  0  0  0  0  0  0
    3.8517   -6.4790    0.0000 C   0  0  0  0  0  0  0  0  0  0  0  0
    3.1363   -6.0680    0.0000 C   0  0  0  0  0  0  0  0  0  0  0  0
    3.1345   -5.2430    0.0000 C   0  0  0  0  0  0  0  0  0  0  0  0
    3.8481   -4.8290    0.0000 C   0  0  0  0  0  0  0  0  0  0  0  0
    4.5635   -5.2399    0.0000 C   0  0  0  0  0  0  0  0  0  0  0  0
    2.4192   -4.8320    0.0000 O   0  0  0  0  0  0  0  0  0  0  0  0
    2.4227   -6.4820    0.0000 O   0  0  0  0  0  0  0  0  0  0  0  0
  1  2  1  0  0  0  0
  2  3  1  0  0  0  0
  3  4  1  0  0  0  0
  4  5  1  0  0  0  0
  5  6  1  0  0  0  0
  1  6  1  0  0  0  0
  3  7  1  6  0  0  0
  4  8  1  1  0  0  0
  5  9  1  6  0  0  0
 10 11  1  0  0  0  0
  6 10  1  1  0  0  0
 13 14  1  0  0  0  0
 14 15  1  0  0  0  0
 15 16  1  0  0  0  0
 16 17  1  0  0  0  0
 17 18  1  0  0  0  0
 18 19  1  0  0  0  0
 20 21  1  0  0  0  0
 21 22  2  0  0  0  0
 22 23  1  0  0  0  0
 23 24  2  0  0  0  0
 24 25  1  0  0  0  0
 20 25  2  0  0  0  0
 23 26  1  0  0  0  0
 22 27  1  0  0  0  0
 19 20  1  0  0  0  0
 28 29  1  0  0  0  0
 29 30  2  0  0  0  0
 30 31  1  0  0  0  0
 31 32  2  0  0  0  0
 32 33  1  0  0  0  0
 28 33  2  0  0  0  0
 31 34  1  0  0  0  0
 30 35  1  0  0  0  0
 13 28  1  0  0  0  0
 15 12  1  1  0  0  0
  2 12  1  1  0  0  0
M  END
>  <cdx:fragmentId>
43

$$$$
