302341.cdx
  Mrv1902 05222410272D          

 25 30  0  0  0  0            999 V2000
    7.4878   -7.0575    0.0000 C   0  0  0  0  0  0  0  0  0  0  0  0
    8.2045   -6.6489    0.0000 C   0  0  0  0  0  0  0  0  0  0  0  0
    8.9167   -7.0653    0.0000 C   0  0  0  0  0  0  0  0  0  0  0  0
    9.6334   -6.6567    0.0000 C   0  0  0  0  0  0  0  0  0  0  0  0
   10.4166   -6.9158    0.0000 O   0  0  0  0  0  0  0  0  0  0  0  0
   10.9052   -6.2510    0.0000 C   0  0  0  0  0  0  0  0  0  0  0  0
   10.4239   -5.5810    0.0000 O   0  0  0  0  0  0  0  0  0  0  0  0
    9.6379   -5.8317    0.0000 C   0  0  0  0  0  0  0  0  0  0  0  0
    8.9256   -5.4153    0.0000 C   0  0  0  0  0  0  0  0  0  0  0  0
    8.2089   -5.8239    0.0000 C   0  0  0  0  0  0  0  0  0  0  0  0
    7.4967   -5.4076    0.0000 C   0  0  0  0  0  0  0  0  0  0  0  0
    6.7800   -5.8162    0.0000 C   0  0  0  0  0  0  0  0  0  0  0  0
    6.7756   -6.6412    0.0000 C   0  0  0  0  0  0  0  0  0  0  0  0
    6.0589   -7.0498    0.0000 C   0  0  0  0  0  0  0  0  0  0  0  0
    5.3466   -6.6334    0.0000 C   0  0  0  0  0  0  0  0  0  0  0  0
    4.6299   -7.0421    0.0000 C   0  0  0  0  0  0  0  0  0  0  0  0
    4.6255   -7.8671    0.0000 C   0  0  0  0  0  0  0  0  0  0  0  0
    4.0094   -8.4158    0.0000 O   0  0  0  0  0  0  0  0  0  0  0  0
    4.3409   -9.1712    0.0000 C   0  0  0  0  0  0  0  0  0  0  0  0
    5.1618   -9.0895    0.0000 O   0  0  0  0  0  0  0  0  0  0  0  0
    5.3377   -8.2834    0.0000 C   0  0  0  0  0  0  0  0  0  0  0  0
    6.0544   -7.8748    0.0000 C   0  0  0  0  0  0  0  0  0  0  0  0
    6.7666   -8.2912    0.0000 C   0  0  0  0  0  0  0  0  0  0  0  0
    7.4833   -7.8825    0.0000 N   0  3  0  0  0  0  0  0  0  0  0  0
    8.1955   -8.2989    0.0000 C   0  0  0  0  0  0  0  0  0  0  0  0
  1  2  1  0  0  0  0
  2  3  1  0  0  0  0
  3  4  2  0  0  0  0
  4  5  1  0  0  0  0
  5  6  1  0  0  0  0
  6  7  1  0  0  0  0
  7  8  1  0  0  0  0
  8  9  2  0  0  0  0
  9 10  1  0  0  0  0
 10 11  1  0  0  0  0
 11 12  2  0  0  0  0
 12 13  1  0  0  0  0
 13 14  2  0  0  0  0
 14 15  1  0  0  0  0
 15 16  2  0  0  0  0
 16 17  1  0  0  0  0
 17 18  1  0  0  0  0
 18 19  1  0  0  0  0
 19 20  1  0  0  0  0
 20 21  1  0  0  0  0
 21 22  1  0  0  0  0
 22 23  2  0  0  0  0
 23 24  1  0  0  0  0
  1 24  2  0  0  0  0
  1 13  1  0  0  0  0
 14 22  1  0  0  0  0
 17 21  2  0  0  0  0
  2 10  2  0  0  0  0
  4  8  1  0  0  0  0
 24 25  1  0  0  0  0
M  CHG  1  24   1
M  END
>  <cdx:fragmentId>
5

$$$$
