302327.cdx
  Mrv1902 05222410252D          

 22 24  0  0  0  0            999 V2000
    7.1256   -7.1948    0.0000 C   0  0  1  0  0  0  0  0  0  0  0  0
    7.1256   -8.0196    0.0000 C   0  0  2  0  0  0  0  0  0  0  0  0
    7.8398   -8.4319    0.0000 C   0  0  1  0  0  0  0  0  0  0  0  0
    8.5541   -8.0196    0.0000 O   0  0  0  0  0  0  0  0  0  0  0  0
    8.5541   -7.1948    0.0000 C   0  0  2  0  0  0  0  0  0  0  0  0
    7.8398   -6.7824    0.0000 C   0  0  0  0  0  0  0  0  0  0  0  0
    6.3412   -6.9400    0.0000 C   0  0  0  0  0  0  0  0  0  0  0  0
    5.8564   -7.6072    0.0000 C   0  0  1  0  0  0  0  0  0  0  0  0
    6.3412   -8.2744    0.0000 C   0  0  1  0  0  0  0  0  0  0  0  0
    5.0317   -7.6072    0.0000 O   0  0  0  0  0  0  0  0  0  0  0  0
    6.0864   -9.0588    0.0000 C   0  0  0  0  0  0  0  0  0  0  0  0
    9.9849  -10.4898    0.0000 C   0  0  0  0  0  0  0  0  0  0  0  0
    9.2729  -11.7282    0.0000 C   0  0  0  0  0  0  0  0  0  0  0  0
    7.8398   -5.9577    0.0000 C   0  0  0  0  0  0  0  0  0  0  0  0
    7.1256   -6.3698    0.0000 H   0  0  0  0  0  0  0  0  0  0  0  0
    7.1256   -8.8446    0.0000 H   0  0  0  0  0  0  0  0  0  0  0  0
    6.7536   -7.5602    0.0000 O   0  0  0  0  0  0  0  0  0  0  0  0
    9.2714  -10.9035    0.0000 C   0  0  0  0  0  0  0  0  0  0  0  0
    9.2683   -9.2540    0.0000 O   0  0  0  0  0  0  0  0  0  0  0  0
    8.5564  -10.4925    0.0000 C   0  0  0  0  0  0  0  0  0  0  0  0
    8.5548   -9.6677    0.0000 C   0  0  0  0  0  0  0  0  0  0  0  0
    7.8398   -9.2567    0.0000 O   0  0  0  0  0  0  0  0  0  0  0  0
  2  3  1  0  0  0  0
  3  4  1  0  0  0  0
  4  5  1  0  0  0  0
  5  6  1  0  0  0  0
  6  1  1  0  0  0  0
  1  7  1  0  0  0  0
  7  8  1  0  0  0  0
  8  9  1  0  0  0  0
  9  2  1  0  0  0  0
  8 10  1  1  0  0  0
  9 11  1  1  0  0  0
 18 12  1  0  0  0  0
  3 22  1  1  0  0  0
 18 13  1  0  0  0  0
 20 18  1  0  0  0  0
  6 14  2  0  0  0  0
  1 15  1  1  0  0  0
  2 16  1  1  0  0  0
  9 17  1  6  0  0  0
  5 17  1  6  0  0  0
  1  2  1  0  0  0  0
 21 19  2  0  0  0  0
 21 20  1  0  0  0  0
 22 21  1  0  0  0  0
M  END
>  <cdx:fragmentId>
5

$$$$
