302324.cdx
  Mrv1902 05222410252D          

 71 77  0  0  0  0            999 V2000
   12.2769  -10.6827    0.0000 C   0  0  0  0  0  0  0  0  0  0  0  0
   11.4562  -10.7666    0.0000 C   0  0  0  0  0  0  0  0  0  0  0  0
   10.9732  -10.0978    0.0000 C   0  0  0  0  0  0  0  0  0  0  0  0
   10.1525  -10.1817    0.0000 C   0  0  0  0  0  0  0  0  0  0  0  0
    9.8147  -10.9344    0.0000 C   0  0  0  0  0  0  0  0  0  0  0  0
   10.2978  -11.6032    0.0000 C   0  0  0  0  0  0  0  0  0  0  0  0
   11.1185  -11.5193    0.0000 C   0  0  0  0  0  0  0  0  0  0  0  0
   12.6146   -9.9300    0.0000 O   0  0  0  0  0  0  0  0  0  0  0  0
   12.7599  -11.3515    0.0000 O   0  0  0  0  0  0  0  0  0  0  0  0
    9.9600  -12.3559    0.0000 O   0  0  0  0  0  0  0  0  0  0  0  0
    8.9940  -11.0183    0.0000 O   0  0  0  0  0  0  0  0  0  0  0  0
    9.6694   -9.5129    0.0000 O   0  0  0  0  0  0  0  0  0  0  0  0
   11.3109   -9.3451    0.0000 O   0  0  0  0  0  0  0  0  0  0  0  0
    9.8619   -7.3386    0.0000 C   0  0  0  0  0  0  0  0  0  0  0  0
    9.5684   -6.5676    0.0000 C   0  0  0  0  0  0  0  0  0  0  0  0
   10.2372   -6.0845    0.0000 C   0  0  0  0  0  0  0  0  0  0  0  0
   10.1534   -5.2638    0.0000 C   0  0  0  0  0  0  0  0  0  0  0  0
    9.4006   -4.9261    0.0000 C   0  0  0  0  0  0  0  0  0  0  0  0
    8.7318   -5.4091    0.0000 C   0  0  0  0  0  0  0  0  0  0  0  0
    8.8157   -6.2298    0.0000 C   0  0  1  0  0  0  0  0  0  0  0  0
    8.0447   -6.5233    0.0000 C   0  0  0  0  0  0  0  0  0  0  0  0
    7.7069   -7.2760    0.0000 O   0  0  0  0  0  0  0  0  0  0  0  0
    6.8830   -7.3168    0.0000 C   0  0  1  0  0  0  0  0  0  0  0  0
    6.3013   -6.7318    0.0000 C   0  0  1  0  0  0  0  0  0  0  0  0
    5.5038   -6.9430    0.0000 C   0  0  2  0  0  0  0  0  0  0  0  0
    5.2880   -7.7393    0.0000 C   0  0  0  0  0  0  0  0  0  0  0  0
    5.8697   -8.3243    0.0000 O   0  0  0  0  0  0  0  0  0  0  0  0
    6.6671   -8.1131    0.0000 C   0  0  2  0  0  0  0  0  0  0  0  0
    7.3578   -8.5644    0.0000 C   0  0  0  0  0  0  0  0  0  0  0  0
    8.0004   -8.0470    0.0000 O   0  0  0  0  0  0  0  0  0  0  0  0
    8.7531   -8.3848    0.0000 C   0  0  0  0  0  0  0  0  0  0  0  0
    9.5241   -8.0913    0.0000 C   0  0  0  0  0  0  0  0  0  0  0  0
   10.0072   -8.7601    0.0000 C   0  0  0  0  0  0  0  0  0  0  0  0
   10.8279   -8.6763    0.0000 C   0  0  0  0  0  0  0  0  0  0  0  0
   11.1656   -7.9235    0.0000 C   0  0  0  0  0  0  0  0  0  0  0  0
   10.6826   -7.2547    0.0000 C   0  0  0  0  0  0  0  0  0  0  0  0
    6.5171   -5.9355    0.0000 O   0  0  0  0  0  0  0  0  0  0  0  0
    5.9354   -5.3505    0.0000 C   0  0  0  0  0  0  0  0  0  0  0  0
    6.1489   -4.5536    0.0000 C   0  0  0  0  0  0  0  0  0  0  0  0
    5.5655   -3.9702    0.0000 C   0  0  0  0  0  0  0  0  0  0  0  0
    5.7791   -3.1733    0.0000 C   0  0  0  0  0  0  0  0  0  0  0  0
    6.5760   -2.9598    0.0000 C   0  0  0  0  0  0  0  0  0  0  0  0
    7.1593   -3.5432    0.0000 C   0  0  0  0  0  0  0  0  0  0  0  0
    6.9458   -4.3401    0.0000 C   0  0  0  0  0  0  0  0  0  0  0  0
    5.1385   -5.5640    0.0000 O   0  0  0  0  0  0  0  0  0  0  0  0
    7.9562   -3.3297    0.0000 O   0  0  0  0  0  0  0  0  0  0  0  0
    6.7895   -2.1629    0.0000 O   0  0  0  0  0  0  0  0  0  0  0  0
    5.1957   -2.5900    0.0000 O   0  0  0  0  0  0  0  0  0  0  0  0
    4.9221   -6.3580    0.0000 C   0  0  0  0  0  0  0  0  0  0  0  0
    4.1246   -6.5692    0.0000 C   0  0  0  0  0  0  0  0  0  0  0  0
    3.5412   -5.9859    0.0000 C   0  0  0  0  0  0  0  0  0  0  0  0
    2.7443   -6.1994    0.0000 C   0  0  0  0  0  0  0  0  0  0  0  0
    2.1610   -5.6160    0.0000 C   0  0  0  0  0  0  0  0  0  0  0  0
    2.3745   -4.8192    0.0000 C   0  0  0  0  0  0  0  0  0  0  0  0
    3.1714   -4.6056    0.0000 C   0  0  0  0  0  0  0  0  0  0  0  0
    3.7547   -5.1890    0.0000 C   0  0  0  0  0  0  0  0  0  0  0  0
    3.3849   -3.8087    0.0000 O   0  0  0  0  0  0  0  0  0  0  0  0
    1.7911   -4.2358    0.0000 O   0  0  0  0  0  0  0  0  0  0  0  0
    1.3641   -5.8296    0.0000 O   0  0  0  0  0  0  0  0  0  0  0  0
    3.9111   -7.3661    0.0000 O   0  0  0  0  0  0  0  0  0  0  0  0
    8.7531   -9.2098    0.0000 O   0  0  0  0  0  0  0  0  0  0  0  0
    7.4785   -5.9232    0.0000 O   0  0  0  0  0  0  0  0  0  0  0  0
   11.2574   -6.6629    0.0000 O   0  0  0  0  0  0  0  0  0  0  0  0
   11.9863   -7.8397    0.0000 O   0  0  0  0  0  0  0  0  0  0  0  0
    4.4905   -7.9506    0.0000 O   0  0  0  0  0  0  0  0  0  0  0  0
    9.3168   -4.1054    0.0000 O   0  0  0  0  0  0  0  0  0  0  0  0
   10.8222   -4.7808    0.0000 O   0  0  0  0  0  0  0  0  0  0  0  0
   11.0601   -6.1445    0.0000 O   0  0  0  0  0  0  0  0  0  0  0  0
    8.1012   -5.8173    0.0000 H   0  0  0  0  0  0  0  0  0  0  0  0
    7.1808   -6.5475    0.0000 H   0  0  0  0  0  0  0  0  0  0  0  0
    6.5358   -8.9276    0.0000 H   0  0  0  0  0  0  0  0  0  0  0  0
  1  2  1  0  0  0  0
  2  3  1  0  0  0  0
  3  4  2  0  0  0  0
  4  5  1  0  0  0  0
  5  6  2  0  0  0  0
  6  7  1  0  0  0  0
  2  7  2  0  0  0  0
  1  8  2  0  0  0  0
  1  9  1  0  0  0  0
  6 10  1  0  0  0  0
  5 11  1  0  0  0  0
  4 12  1  0  0  0  0
 14 15  1  0  0  0  0
 15 16  2  0  0  0  0
 16 17  1  0  0  0  0
 17 18  2  0  0  0  0
 18 19  1  0  0  0  0
 19 20  1  0  0  0  0
 20 21  1  0  0  0  0
 21 22  1  0  0  0  0
 22 23  1  0  0  0  0
 23 24  1  0  0  0  0
 24 25  1  0  0  0  0
 25 26  1  0  0  0  0
 26 27  1  0  0  0  0
 27 28  1  0  0  0  0
 28 29  1  0  0  0  0
 29 30  1  0  0  0  0
 30 31  1  0  0  0  0
 31 32  1  0  0  0  0
 32 33  2  0  0  0  0
 33 34  1  0  0  0  0
 34 35  2  0  0  0  0
 35 36  1  0  0  0  0
 14 36  2  0  0  0  0
 14 32  1  0  0  0  0
 23 28  1  0  0  0  0
 15 20  1  0  0  0  0
 38 39  1  0  0  0  0
 39 40  1  0  0  0  0
 40 41  2  0  0  0  0
 41 42  1  0  0  0  0
 42 43  2  0  0  0  0
 43 44  1  0  0  0  0
 39 44  2  0  0  0  0
 38 45  2  0  0  0  0
 43 46  1  0  0  0  0
 42 47  1  0  0  0  0
 41 48  1  0  0  0  0
 37 38  1  0  0  0  0
 24 37  1  1  0  0  0
 49 50  1  0  0  0  0
 51 52  1  0  0  0  0
 52 53  2  0  0  0  0
 53 54  1  0  0  0  0
 54 55  2  0  0  0  0
 55 56  1  0  0  0  0
 51 56  2  0  0  0  0
 55 57  1  0  0  0  0
 54 58  1  0  0  0  0
 53 59  1  0  0  0  0
 50 51  1  0  0  0  0
 50 60  2  0  0  0  0
 25 49  1  6  0  0  0
 31 61  2  0  0  0  0
 21 62  2  0  0  0  0
 36 63  1  0  0  0  0
 35 64  1  0  0  0  0
 26 65  1  0  0  0  0
 18 66  1  0  0  0  0
 17 67  1  0  0  0  0
 16 68  1  0  0  0  0
 13 34  1  0  0  0  0
  3 13  1  0  0  0  0
 20 69  1  1  0  0  0
 23 70  1  1  0  0  0
 28 71  1  6  0  0  0
M  END
>  <cdx:groupId>
221

>  <cdx:fragmentId>
31

$$$$
