302391.cdx
  Mrv1902 05222410282D          

 36 40  0  0  0  0            999 V2000
   10.5439   -6.2261    0.0000 C   0  0  0  0  0  0  0  0  0  0  0  0
   11.0959   -6.8392    0.0000 C   0  0  0  0  0  0  0  0  0  0  0  0
   11.9029   -6.6676    0.0000 C   0  0  0  0  0  0  0  0  0  0  0  0
   12.1578   -5.8830    0.0000 C   0  0  0  0  0  0  0  0  0  0  0  0
   11.6058   -5.2699    0.0000 C   0  0  0  0  0  0  0  0  0  0  0  0
   10.7988   -5.4414    0.0000 O   0  0  0  0  0  0  0  0  0  0  0  0
   11.8607   -4.4853    0.0000 O   0  0  0  0  0  0  0  0  0  0  0  0
    5.8395   -8.2621    0.0000 C   0  0  0  0  0  0  0  0  0  0  0  0
    5.1250   -8.6746    0.0000 C   0  0  0  0  0  0  0  0  0  0  0  0
    5.1250   -9.4996    0.0000 C   0  0  0  0  0  0  0  0  0  0  0  0
    5.8395   -9.9121    0.0000 C   0  0  0  0  0  0  0  0  0  0  0  0
    6.5539   -9.4996    0.0000 C   0  0  2  0  0  0  0  0  0  0  0  0
    7.2684   -9.9121    0.0000 C   0  0  0  0  0  0  0  0  0  0  0  0
    7.9829   -9.4996    0.0000 C   0  0  0  0  0  0  0  0  0  0  0  0
    7.9829   -8.6746    0.0000 C   0  0  1  0  0  0  0  0  0  0  0  0
    8.6973   -8.2621    0.0000 C   0  0  2  0  0  0  0  0  0  0  0  0
    9.4820   -8.5171    0.0000 C   0  0  0  0  0  0  0  0  0  0  0  0
    9.9669   -7.8496    0.0000 C   0  0  0  0  0  0  0  0  0  0  0  0
    9.4820   -7.1822    0.0000 C   0  0  1  0  0  0  0  0  0  0  0  0
    8.6973   -7.4371    0.0000 C   0  0  1  0  0  0  0  0  0  0  0  0
    7.9829   -7.0246    0.0000 C   0  0  0  0  0  0  0  0  0  0  0  0
    7.2684   -7.4371    0.0000 C   0  0  0  0  0  0  0  0  0  0  0  0
    7.2684   -8.2621    0.0000 C   0  0  0  0  0  0  0  0  0  0  0  0
    6.5539   -8.6746    0.0000 C   0  0  1  0  0  0  0  0  0  0  0  0
    4.4105   -9.9121    0.0000 O   0  0  0  0  0  0  0  0  0  0  0  0
    8.6973   -9.0871    0.0000 C   0  0  0  0  0  0  0  0  0  0  0  0
    8.7836   -6.6167    0.0000 C   0  0  0  0  0  0  0  0  0  0  0  0
    6.5539   -7.8496    0.0000 C   0  0  0  0  0  0  0  0  0  0  0  0
    6.2520  -10.6266    0.0000 C   0  0  0  0  0  0  0  0  0  0  0  0
    5.4270  -10.6266    0.0000 C   0  0  0  0  0  0  0  0  0  0  0  0
   12.9648   -5.7115    0.0000 C   0  0  0  0  0  0  0  0  0  0  0  0
    6.5539  -10.3246    0.0000 H   0  0  0  0  0  0  0  0  0  0  0  0
    7.9829   -7.8496    0.0000 H   0  0  0  0  0  0  0  0  0  0  0  0
    9.1849   -5.7845    0.0000 C   0  0  0  0  0  0  0  0  0  0  0  0
    9.7369   -6.3976    0.0000 C   0  0  0  0  0  0  0  0  0  0  0  0
   10.2666   -6.9273    0.0000 H   0  0  0  0  0  0  0  0  0  0  0  0
  1 35  1  0  0  0  0
 35 34  1  0  0  0  0
  1  2  1  0  0  0  0
  2  3  1  0  0  0  0
  3  4  2  0  0  0  0
  4  5  1  0  0  0  0
  5  6  1  0  0  0  0
  1  6  1  0  0  0  0
  8  9  1  0  0  0  0
  9 10  1  0  0  0  0
 10 11  1  0  0  0  0
 11 12  1  0  0  0  0
 12 13  1  0  0  0  0
 13 14  1  0  0  0  0
 14 15  1  0  0  0  0
 15 16  1  0  0  0  0
 16 17  1  0  0  0  0
 17 18  1  0  0  0  0
 19 18  1  0  0  0  0
 19 20  1  0  0  0  0
 16 20  1  0  0  0  0
 20 21  1  0  0  0  0
 21 22  1  0  0  0  0
 22 23  2  0  0  0  0
 15 23  1  0  0  0  0
 23 24  1  0  0  0  0
 12 24  1  0  0  0  0
  8 24  1  0  0  0  0
 10 25  2  0  0  0  0
 16 26  1  6  0  0  0
 20 27  1  1  0  0  0
 24 28  1  1  0  0  0
 11 29  1  0  0  0  0
 11 30  1  0  0  0  0
 35 19  1  0  0  0  0
  5  7  2  0  0  0  0
  4 31  1  0  0  0  0
 12 32  1  6  0  0  0
 15 33  1  1  0  0  0
 19 36  1  6  0  0  0
M  END
>  <cdx:fragmentId>
23

$$$$
