302334.cdx
  Mrv1902 05222410232D          

 24 26  0  0  0  0            999 V2000
    7.7822   -7.4987    0.0000 C   0  0  0  0  0  0  0  0  0  0  0  0
    7.7822   -6.6737    0.0000 C   0  0  0  0  0  0  0  0  0  0  0  0
    7.0678   -6.2612    0.0000 C   0  0  0  0  0  0  0  0  0  0  0  0
    6.3533   -6.6737    0.0000 C   0  0  0  0  0  0  0  0  0  0  0  0
    5.6388   -6.2612    0.0000 C   0  0  0  0  0  0  0  0  0  0  0  0
    4.9244   -6.6737    0.0000 C   0  0  0  0  0  0  0  0  0  0  0  0
    4.9244   -7.4987    0.0000 C   0  0  0  0  0  0  0  0  0  0  0  0
    5.6388   -7.9112    0.0000 C   0  0  0  0  0  0  0  0  0  0  0  0
    6.3533   -7.4987    0.0000 C   0  0  0  0  0  0  0  0  0  0  0  0
    7.0678   -7.9112    0.0000 O   0  0  0  0  0  0  0  0  0  0  0  0
    7.0678   -5.4362    0.0000 O   0  0  0  0  0  0  0  0  0  0  0  0
    8.4967   -7.9112    0.0000 C   0  0  0  0  0  0  0  0  0  0  0  0
    9.2112   -7.4987    0.0000 C   0  0  0  0  0  0  0  0  0  0  0  0
    9.9256   -7.9112    0.0000 C   0  0  0  0  0  0  0  0  0  0  0  0
    9.9256   -8.7362    0.0000 C   0  0  0  0  0  0  0  0  0  0  0  0
    9.2112   -9.1487    0.0000 C   0  0  0  0  0  0  0  0  0  0  0  0
    8.4967   -8.7362    0.0000 C   0  0  0  0  0  0  0  0  0  0  0  0
   10.6401   -9.1487    0.0000 O   0  0  0  0  0  0  0  0  0  0  0  0
   11.3546   -8.7362    0.0000 C   0  0  0  0  0  0  0  0  0  0  0  0
    4.2099   -7.9112    0.0000 O   0  0  0  0  0  0  0  0  0  0  0  0
    3.4954   -7.4987    0.0000 C   0  0  0  0  0  0  0  0  0  0  0  0
    4.2099   -6.2612    0.0000 O   0  0  0  0  0  0  0  0  0  0  0  0
    3.4954   -6.6737    0.0000 C   0  0  0  0  0  0  0  0  0  0  0  0
    5.6388   -5.4362    0.0000 O   0  0  0  0  0  0  0  0  0  0  0  0
  1  2  2  0  0  0  0
  2  3  1  0  0  0  0
  3  4  1  0  0  0  0
  4  5  1  0  0  0  0
  5  6  2  0  0  0  0
  6  7  1  0  0  0  0
  7  8  2  0  0  0  0
  8  9  1  0  0  0  0
  4  9  2  0  0  0  0
  9 10  1  0  0  0  0
  1 10  1  0  0  0  0
  3 11  2  0  0  0  0
 12 13  1  0  0  0  0
 13 14  2  0  0  0  0
 14 15  1  0  0  0  0
 15 16  2  0  0  0  0
 16 17  1  0  0  0  0
 12 17  2  0  0  0  0
 18 19  1  0  0  0  0
 15 18  1  0  0  0  0
  1 12  1  0  0  0  0
 20 21  1  0  0  0  0
  7 20  1  0  0  0  0
 22 23  1  0  0  0  0
  6 22  1  0  0  0  0
  5 24  1  0  0  0  0
M  END
>  <cdx:groupId>
76

>  <cdx:fragmentId>
5

$$$$
