302383.cdx
  Mrv1902 05222410272D          

 23 23  0  0  0  0            999 V2000
   11.8630   -7.3574    0.0000 C   0  0  0  0  0  0  0  0  0  0  0  0
   11.1485   -7.7699    0.0000 C   0  0  0  0  0  0  0  0  0  0  0  0
   10.4340   -7.3574    0.0000 C   0  0  0  0  0  0  0  0  0  0  0  0
    9.7196   -7.7699    0.0000 C   0  0  0  0  0  0  0  0  0  0  0  0
    9.0051   -7.3574    0.0000 C   0  0  0  0  0  0  0  0  0  0  0  0
    8.2906   -7.7699    0.0000 C   0  0  0  0  0  0  0  0  0  0  0  0
    7.5761   -7.3574    0.0000 C   0  0  0  0  0  0  0  0  0  0  0  0
    6.8617   -7.7699    0.0000 C   0  0  0  0  0  0  0  0  0  0  0  0
    6.1472   -7.3574    0.0000 C   0  0  0  0  0  0  0  0  0  0  0  0
    5.4327   -7.7699    0.0000 C   0  0  0  0  0  0  0  0  0  0  0  0
    4.7183   -7.3574    0.0000 C   0  0  0  0  0  0  0  0  0  0  0  0
    4.0038   -7.7699    0.0000 C   0  0  0  0  0  0  0  0  0  0  0  0
   11.8630   -6.5324    0.0000 O   0  0  0  0  0  0  0  0  0  0  0  0
   12.5774   -7.7699    0.0000 O   0  0  0  0  0  0  0  0  0  0  0  0
    2.5356   -7.6929    0.0000 O   0  0  0  0  0  0  0  0  0  0  0  0
    3.2893   -7.3574    0.0000 C   0  0  0  0  0  0  0  0  0  0  0  0
    3.2031   -6.5369    0.0000 C   0  0  0  0  0  0  0  0  0  0  0  0
    2.3961   -6.3654    0.0000 C   0  0  0  0  0  0  0  0  0  0  0  0
    1.9836   -7.0798    0.0000 C   0  0  0  0  0  0  0  0  0  0  0  0
    3.8162   -5.9849    0.0000 C   0  0  0  0  0  0  0  0  0  0  0  0
    5.4327   -8.5949    0.0000 C   0  0  0  0  0  0  0  0  0  0  0  0
    8.2906   -8.5949    0.0000 C   0  0  0  0  0  0  0  0  0  0  0  0
   11.1485   -8.5949    0.0000 C   0  0  0  0  0  0  0  0  0  0  0  0
  1  2  1  0  0  0  0
  2  3  2  0  0  0  0
  3  4  1  0  0  0  0
  4  5  1  0  0  0  0
  5  6  1  0  0  0  0
  6  7  2  0  0  0  0
  7  8  1  0  0  0  0
  8  9  1  0  0  0  0
  9 10  1  0  0  0  0
 10 11  2  0  0  0  0
 11 12  1  0  0  0  0
  1 13  2  0  0  0  0
  1 14  1  0  0  0  0
 15 16  1  0  0  0  0
 16 17  2  0  0  0  0
 17 18  1  0  0  0  0
 18 19  2  0  0  0  0
 15 19  1  0  0  0  0
 17 20  1  0  0  0  0
 12 16  1  0  0  0  0
 10 21  1  0  0  0  0
  6 22  1  0  0  0  0
  2 23  1  0  0  0  0
M  END
>  <cdx:groupId>
71

>  <cdx:fragmentId>
5

$$$$
