302340.cdx
  Mrv1902 05222410272D          

 83 91  0  0  0  0            999 V2000
    6.8182   -5.3757    0.0000 H   0  0  0  0  0  0  0  0  0  0  0  0
    5.9838  -11.2774    0.0000 O   0  0  0  0  0  0  0  0  0  0  0  0
    7.4092  -12.1084    0.0000 O   0  0  0  0  0  0  0  0  0  0  0  0
    8.8416  -11.2894    0.0000 O   0  0  0  0  0  0  0  0  0  0  0  0
    9.2695  -11.1605    0.0000 O   0  0  0  0  0  0  0  0  0  0  0  0
   10.8651  -10.7441    0.0000 O   0  0  0  0  0  0  0  0  0  0  0  0
   11.3022   -9.1541    0.0000 O   0  0  0  0  0  0  0  0  0  0  0  0
    2.1234   -6.3429    0.0000 O   0  0  0  0  0  0  0  0  0  0  0  0
    1.9073   -7.9787    0.0000 O   0  0  0  0  0  0  0  0  0  0  0  0
    2.9426   -8.8974    0.0000 O   0  0  0  0  0  0  0  0  0  0  0  0
    3.2801   -9.3377    0.0000 O   0  0  0  0  0  0  0  0  0  0  0  0
    3.8985  -10.5761    0.0000 O   0  0  0  0  0  0  0  0  0  0  0  0
    5.5343  -10.7923    0.0000 O   0  0  0  0  0  0  0  0  0  0  0  0
    6.4765   -8.7687    0.0000 O   0  0  0  0  0  0  0  0  0  0  0  0
    7.9432   -8.6384    0.0000 O   0  0  0  0  0  0  0  0  0  0  0  0
    4.6129   -5.7402    0.0000 O   0  0  0  0  0  0  0  0  0  0  0  0
    6.8360   -8.3939    0.0000 O   0  0  0  0  0  0  0  0  0  0  0  0
    6.1689   -7.2935    0.0000 O   0  0  0  0  0  0  0  0  0  0  0  0
    6.0608   -8.1114    0.0000 C   0  0  0  0  0  0  0  0  0  0  0  0
    5.4061   -8.6133    0.0000 C   0  0  0  0  0  0  0  0  0  0  0  0
    5.7215   -9.3756    0.0000 C   0  0  0  0  0  0  0  0  0  0  0  0
    5.2189  -10.0299    0.0000 C   0  0  0  0  0  0  0  0  0  0  0  0
    4.4010   -9.9218    0.0000 C   0  0  0  0  0  0  0  0  0  0  0  0
    4.0857   -9.1595    0.0000 C   0  0  0  0  0  0  0  0  0  0  0  0
    4.5882   -8.5052    0.0000 C   0  0  0  0  0  0  0  0  0  0  0  0
    4.0863   -7.8505    0.0000 C   0  0  0  0  0  0  0  0  0  0  0  0
    3.3239   -8.1658    0.0000 C   0  0  0  0  0  0  0  0  0  0  0  0
    2.6696   -7.6633    0.0000 C   0  0  0  0  0  0  0  0  0  0  0  0
    2.7777   -6.8454    0.0000 C   0  0  0  0  0  0  0  0  0  0  0  0
    3.5324   -6.5807    0.0000 C   0  0  0  0  0  0  0  0  0  0  0  0
    4.1943   -7.0326    0.0000 C   0  0  0  0  0  0  0  0  0  0  0  0
    4.8491   -6.5307    0.0000 C   0  0  0  0  0  0  0  0  0  0  0  0
    5.6670   -6.6387    0.0000 O   0  0  0  0  0  0  0  0  0  0  0  0
    6.1346   -5.9590    0.0000 C   0  0  0  0  0  0  0  0  0  0  0  0
    6.9255   -6.1937    0.0000 C   0  0  1  0  0  0  0  0  0  0  0  0
    7.6291   -5.7630    0.0000 O   0  0  0  0  0  0  0  0  0  0  0  0
    8.3540   -6.1570    0.0000 C   0  0  1  0  0  0  0  0  0  0  0  0
    8.3752   -6.9817    0.0000 C   0  0  2  0  0  0  0  0  0  0  0  0
    9.0023   -7.5178    0.0000 O   0  0  0  0  0  0  0  0  0  0  0  0
    8.6862   -8.2798    0.0000 C   0  0  0  0  0  0  0  0  0  0  0  0
    9.1481   -8.9634    0.0000 C   0  0  0  0  0  0  0  0  0  0  0  0
    9.9531   -8.7832    0.0000 C   0  0  0  0  0  0  0  0  0  0  0  0
   10.5117   -9.3903    0.0000 C   0  0  0  0  0  0  0  0  0  0  0  0
   10.2653  -10.1777    0.0000 C   0  0  0  0  0  0  0  0  0  0  0  0
    9.4602  -10.3579    0.0000 C   0  0  0  0  0  0  0  0  0  0  0  0
    8.9016   -9.7507    0.0000 C   0  0  0  0  0  0  0  0  0  0  0  0
    8.1324  -10.0489    0.0000 C   0  0  0  0  0  0  0  0  0  0  0  0
    8.1289  -10.8739    0.0000 C   0  0  0  0  0  0  0  0  0  0  0  0
    7.4127  -11.2834    0.0000 C   0  0  0  0  0  0  0  0  0  0  0  0
    6.7000  -10.8679    0.0000 C   0  0  0  0  0  0  0  0  0  0  0  0
    6.7034  -10.0429    0.0000 C   0  0  0  0  0  0  0  0  0  0  0  0
    7.4196   -9.6334    0.0000 C   0  0  0  0  0  0  0  0  0  0  0  0
    7.3001   -8.8171    0.0000 C   0  0  0  0  0  0  0  0  0  0  0  0
    7.8638   -8.2147    0.0000 O   0  0  0  0  0  0  0  0  0  0  0  0
    7.6715   -7.4124    0.0000 C   0  0  1  0  0  0  0  0  0  0  0  0
    6.9467   -7.0184    0.0000 C   0  0  2  0  0  0  0  0  0  0  0  0
   12.6332   -6.1093    0.0000 O   0  0  0  0  0  0  0  0  0  0  0  0
   12.6196   -4.4594    0.0000 O   0  0  0  0  0  0  0  0  0  0  0  0
   11.1840   -3.6462    0.0000 O   0  0  0  0  0  0  0  0  0  0  0  0
    9.0576   -5.7262    0.0000 O   0  0  0  0  0  0  0  0  0  0  0  0
    9.7822   -6.9578    0.0000 O   0  0  0  0  0  0  0  0  0  0  0  0
   10.4797   -4.8895    0.0000 C   0  0  0  0  0  0  0  0  0  0  0  0
   11.1907   -4.4711    0.0000 C   0  0  0  0  0  0  0  0  0  0  0  0
   11.9086   -4.8777    0.0000 C   0  0  0  0  0  0  0  0  0  0  0  0
   11.9154   -5.7027    0.0000 C   0  0  0  0  0  0  0  0  0  0  0  0
   11.2043   -6.1211    0.0000 C   0  0  0  0  0  0  0  0  0  0  0  0
   10.4865   -5.7145    0.0000 C   0  0  0  0  0  0  0  0  0  0  0  0
    9.7754   -6.1328    0.0000 C   0  0  0  0  0  0  0  0  0  0  0  0
    6.9680   -7.8432    0.0000 H   0  0  0  0  0  0  0  0  0  0  0  0
    9.1663   -6.7476    0.0000 H   0  0  0  0  0  0  0  0  0  0  0  0
    7.6502   -6.5877    0.0000 H   0  0  0  0  0  0  0  0  0  0  0  0
    2.1145   -5.5179    0.0000 C   0  0  0  0  0  0  0  0  0  0  0  0
    2.8245   -5.0977    0.0000 C   0  0  0  0  0  0  0  0  0  0  0  0
    2.8156   -4.2728    0.0000 C   0  0  0  0  0  0  0  0  0  0  0  0
    2.0967   -3.8680    0.0000 C   0  0  0  0  0  0  0  0  0  0  0  0
    1.3867   -4.2882    0.0000 C   0  0  0  0  0  0  0  0  0  0  0  0
    1.3956   -5.1132    0.0000 C   0  0  0  0  0  0  0  0  0  0  0  0
    3.5434   -5.5025    0.0000 C   0  0  0  0  0  0  0  0  0  0  0  0
    4.2534   -5.0823    0.0000 O   0  0  0  0  0  0  0  0  0  0  0  0
    3.5523   -6.3275    0.0000 O   0  0  0  0  0  0  0  0  0  0  0  0
    0.6857   -5.5333    0.0000 O   0  0  0  0  0  0  0  0  0  0  0  0
    0.6679   -3.8834    0.0000 O   0  0  0  0  0  0  0  0  0  0  0  0
    2.0878   -3.0431    0.0000 O   0  0  0  0  0  0  0  0  0  0  0  0
 35  1  1  6  0  0  0
 37 60  1  6  0  0  0
 50  2  1  0  0  0  0
 49  3  1  0  0  0  0
 48  4  1  0  0  0  0
 45  5  1  0  0  0  0
 44  6  1  0  0  0  0
 43  7  1  0  0  0  0
 29  8  1  0  0  0  0
 28  9  1  0  0  0  0
 27 10  1  0  0  0  0
 24 11  1  0  0  0  0
 23 12  1  0  0  0  0
 22 13  1  0  0  0  0
 53 14  2  0  0  0  0
 40 15  2  0  0  0  0
 32 16  2  0  0  0  0
 19 17  2  0  0  0  0
 52 47  1  0  0  0  0
 46 41  1  0  0  0  0
 55 38  1  0  0  0  0
 31 26  1  0  0  0  0
 25 20  1  0  0  0  0
 56 35  1  0  0  0  0
 56 18  1  0  0  0  0
 19 18  1  0  0  0  0
 20 19  1  0  0  0  0
 21 20  2  0  0  0  0
 22 21  1  0  0  0  0
 23 22  2  0  0  0  0
 24 23  1  0  0  0  0
 25 24  2  0  0  0  0
 26 25  1  0  0  0  0
 27 26  2  0  0  0  0
 28 27  1  0  0  0  0
 29 28  2  0  0  0  0
 30 29  1  0  0  0  0
 31 30  2  0  0  0  0
 32 31  1  0  0  0  0
 33 32  1  0  0  0  0
 34 33  1  0  0  0  0
 35 34  1  0  0  0  0
 36 35  1  0  0  0  0
 37 36  1  0  0  0  0
 38 37  1  0  0  0  0
 39 38  1  0  0  0  0
 40 39  1  0  0  0  0
 41 40  1  0  0  0  0
 42 41  2  0  0  0  0
 43 42  1  0  0  0  0
 44 43  2  0  0  0  0
 45 44  1  0  0  0  0
 46 45  2  0  0  0  0
 47 46  1  0  0  0  0
 48 47  2  0  0  0  0
 49 48  1  0  0  0  0
 50 49  2  0  0  0  0
 51 50  1  0  0  0  0
 52 51  2  0  0  0  0
 53 52  1  0  0  0  0
 54 53  1  0  0  0  0
 55 54  1  0  0  0  0
 56 55  1  0  0  0  0
 65 57  1  0  0  0  0
 64 58  1  0  0  0  0
 63 59  1  0  0  0  0
 68 60  1  0  0  0  0
 68 61  2  0  0  0  0
 67 62  2  0  0  0  0
 63 62  1  0  0  0  0
 64 63  2  0  0  0  0
 65 64  1  0  0  0  0
 66 65  2  0  0  0  0
 67 66  1  0  0  0  0
 68 67  1  0  0  0  0
 56 69  1  1  0  0  0
 38 70  1  1  0  0  0
 55 71  1  6  0  0  0
  8 72  1  0  0  0  0
 72 73  2  0  0  0  0
 73 74  1  0  0  0  0
 74 75  2  0  0  0  0
 75 76  1  0  0  0  0
 76 77  2  0  0  0  0
 77 72  1  0  0  0  0
 73 78  1  0  0  0  0
 78 79  1  0  0  0  0
 78 80  2  0  0  0  0
 77 81  1  0  0  0  0
 76 82  1  0  0  0  0
 75 83  1  0  0  0  0
M  END
>  <cdx:fragmentId>
3382

$$$$
