30233.cdx
  Mrv1902 05222410222D          

 22 23  0  0  0  0            999 V2000
    4.0989   -8.6534    0.0000 C   0  0  0  0  0  0  0  0  0  0  0  0
    3.3917   -9.0781    0.0000 C   0  0  0  0  0  0  0  0  0  0  0  0
    3.4059   -9.9030    0.0000 C   0  0  0  0  0  0  0  0  0  0  0  0
    4.1273  -10.3032    0.0000 C   0  0  0  0  0  0  0  0  0  0  0  0
    4.8346   -9.8784    0.0000 C   0  0  0  0  0  0  0  0  0  0  0  0
    4.8204   -9.0536    0.0000 C   0  0  0  0  0  0  0  0  0  0  0  0
    2.6986  -10.3277    0.0000 O   0  0  0  0  0  0  0  0  0  0  0  0
    5.5277   -8.6288    0.0000 C   0  0  0  0  0  0  0  0  0  0  0  0
    6.2491   -9.0290    0.0000 C   0  0  0  0  0  0  0  0  0  0  0  0
    6.9564   -8.6043    0.0000 C   0  0  0  0  0  0  0  0  0  0  0  0
    7.6779   -9.0044    0.0000 C   0  0  0  0  0  0  0  0  0  0  0  0
    8.3851   -8.5797    0.0000 C   0  0  0  0  0  0  0  0  0  0  0  0
    9.1066   -8.9799    0.0000 C   0  0  0  0  0  0  0  0  0  0  0  0
    9.8139   -8.5552    0.0000 C   0  0  0  0  0  0  0  0  0  0  0  0
   10.5353   -8.9553    0.0000 C   0  0  0  0  0  0  0  0  0  0  0  0
   10.5495   -9.7802    0.0000 C   0  0  0  0  0  0  0  0  0  0  0  0
   11.2710  -10.1804    0.0000 C   0  0  0  0  0  0  0  0  0  0  0  0
   11.9782   -9.7556    0.0000 C   0  0  0  0  0  0  0  0  0  0  0  0
   11.9641   -8.9308    0.0000 C   0  0  0  0  0  0  0  0  0  0  0  0
   11.2426   -8.5306    0.0000 C   0  0  0  0  0  0  0  0  0  0  0  0
   12.6997  -10.1558    0.0000 O   0  0  0  0  0  0  0  0  0  0  0  0
    6.9422   -7.7794    0.0000 O   0  0  0  0  0  0  0  0  0  0  0  0
  1  2  2  0  0  0  0
  2  3  1  0  0  0  0
  3  4  2  0  0  0  0
  4  5  1  0  0  0  0
  5  6  2  0  0  0  0
  6  1  1  0  0  0  0
  3  7  1  0  0  0  0
  6  8  1  0  0  0  0
  8  9  2  0  0  0  0
  9 10  1  0  0  0  0
 10 11  1  0  0  0  0
 11 12  2  0  0  0  0
 12 13  1  0  0  0  0
 13 14  2  0  0  0  0
 14 15  1  0  0  0  0
 15 16  2  0  0  0  0
 16 17  1  0  0  0  0
 17 18  2  0  0  0  0
 18 19  1  0  0  0  0
 19 20  2  0  0  0  0
 20 15  1  0  0  0  0
 18 21  1  0  0  0  0
 10 22  2  0  0  0  0
M  END
>  <cdx:fragmentId>
5

$$$$
