302367.cdx
  Mrv1902 05222410202D          

 70 77  0  0  0  0            999 V2000
    5.6388   -5.5279    0.0000 O   0  0  0  0  0  0  0  0  0  0  0  0
    4.9244   -5.1154    0.0000 C   0  0  1  0  0  0  0  0  0  0  0  0
    4.2099   -5.5279    0.0000 C   0  0  2  0  0  0  0  0  0  0  0  0
    4.2099   -6.3529    0.0000 C   0  0  1  0  0  0  0  0  0  0  0  0
    4.9244   -6.7654    0.0000 C   0  0  2  0  0  0  0  0  0  0  0  0
    5.6388   -6.3529    0.0000 C   0  0  2  0  0  0  0  0  0  0  0  0
    4.9244   -4.2904    0.0000 C   0  0  0  0  0  0  0  0  0  0  0  0
    5.6388   -3.8779    0.0000 O   0  0  0  0  0  0  0  0  0  0  0  0
    4.2099   -3.8779    0.0000 O   0  0  0  0  0  0  0  0  0  0  0  0
    3.4954   -6.7654    0.0000 O   0  0  0  0  0  0  0  0  0  0  0  0
    3.4954   -5.1154    0.0000 O   0  0  0  0  0  0  0  0  0  0  0  0
    4.9244   -7.5904    0.0000 O   0  0  0  0  0  0  0  0  0  0  0  0
    3.4954   -7.5904    0.0000 O   0  0  0  0  0  0  0  0  0  0  0  0
    4.2099   -8.0029    0.0000 C   0  0  2  0  0  0  0  0  0  0  0  0
    4.2099   -8.8279    0.0000 C   0  0  1  0  0  0  0  0  0  0  0  0
    3.4954   -9.2404    0.0000 C   0  0  2  0  0  0  0  0  0  0  0  0
    2.7809   -8.8279    0.0000 C   0  0  2  0  0  0  0  0  0  0  0  0
    2.7809   -8.0029    0.0000 C   0  0  1  0  0  0  0  0  0  0  0  0
    4.9244   -9.2404    0.0000 O   0  0  0  0  0  0  0  0  0  0  0  0
    4.2099  -10.4779    0.0000 O   0  0  0  0  0  0  0  0  0  0  0  0
    4.9244  -10.0654    0.0000 C   0  0  2  0  0  0  0  0  0  0  0  0
    5.6388  -10.4779    0.0000 C   0  0  1  0  0  0  0  0  0  0  0  0
    5.6388  -11.3029    0.0000 C   0  0  1  0  0  0  0  0  0  0  0  0
    4.9244  -11.7154    0.0000 C   0  0  2  0  0  0  0  0  0  0  0  0
    4.2099  -11.3029    0.0000 C   0  0  2  0  0  0  0  0  0  0  0  0
    3.4954  -11.7154    0.0000 C   0  0  0  0  0  0  0  0  0  0  0  0
    4.9244  -12.5404    0.0000 O   0  0  0  0  0  0  0  0  0  0  0  0
    6.3533  -11.7154    0.0000 O   0  0  0  0  0  0  0  0  0  0  0  0
    6.3533  -10.0654    0.0000 O   0  0  0  0  0  0  0  0  0  0  0  0
    2.0665   -7.5904    0.0000 C   0  0  0  0  0  0  0  0  0  0  0  0
    1.3520   -8.0029    0.0000 O   0  0  0  0  0  0  0  0  0  0  0  0
    2.0665   -9.2404    0.0000 O   0  0  0  0  0  0  0  0  0  0  0  0
    3.4954  -10.0654    0.0000 O   0  0  0  0  0  0  0  0  0  0  0  0
    6.3533   -6.7654    0.0000 O   0  0  0  0  0  0  0  0  0  0  0  0
    7.7822   -5.1154    0.0000 C   0  0  0  0  0  0  0  0  0  0  0  0
    7.0678   -5.5279    0.0000 C   0  0  0  0  0  0  0  0  0  0  0  0
    7.0678   -6.3529    0.0000 C   0  0  1  0  0  0  0  0  0  0  0  0
    7.7822   -6.7654    0.0000 C   0  0  2  0  0  0  0  0  0  0  0  0
    8.4967   -6.3529    0.0000 C   0  0  2  0  0  0  0  0  0  0  0  0
    9.2112   -6.7654    0.0000 C   0  0  0  0  0  0  0  0  0  0  0  0
    9.9256   -6.3529    0.0000 C   0  0  0  0  0  0  0  0  0  0  0  0
    9.9256   -5.5279    0.0000 C   0  0  1  0  0  0  0  0  0  0  0  0
   10.6401   -5.1154    0.0000 C   0  0  2  0  0  0  0  0  0  0  0  0
   11.3546   -5.5279    0.0000 C   0  0  0  0  0  0  0  0  0  0  0  0
   12.0691   -5.1154    0.0000 C   0  0  0  0  0  0  0  0  0  0  0  0
   12.0691   -4.2904    0.0000 C   0  0  1  0  0  0  0  0  0  0  0  0
   12.7835   -3.8779    0.0000 C   0  0  1  0  0  0  0  0  0  0  0  0
   12.7835   -3.0529    0.0000 C   0  0  0  0  0  0  0  0  0  0  0  0
   12.0691   -2.6404    0.0000 C   0  0  0  0  0  0  0  0  0  0  0  0
   11.3546   -3.0529    0.0000 C   0  0  0  0  0  0  0  0  0  0  0  0
   11.3546   -3.8779    0.0000 C   0  0  1  0  0  0  0  0  0  0  0  0
   10.6401   -4.2904    0.0000 C   0  0  0  0  0  0  0  0  0  0  0  0
    9.9256   -3.8779    0.0000 C   0  0  0  0  0  0  0  0  0  0  0  0
    9.2112   -4.2904    0.0000 C   0  0  0  0  0  0  0  0  0  0  0  0
    9.2112   -5.1154    0.0000 C   0  0  2  0  0  0  0  0  0  0  0  0
    8.4967   -5.5279    0.0000 C   0  0  1  0  0  0  0  0  0  0  0  0
    8.4967   -3.8779    0.0000 O   0  0  0  0  0  0  0  0  0  0  0  0
    8.4967   -4.7029    0.0000 C   0  0  0  0  0  0  0  0  0  0  0  0
   11.6566   -1.9260    0.0000 C   0  0  0  0  0  0  0  0  0  0  0  0
   12.4816   -1.9260    0.0000 C   0  0  0  0  0  0  0  0  0  0  0  0
   12.7835   -4.7029    0.0000 C   0  0  0  0  0  0  0  0  0  0  0  0
   10.6401   -5.9404    0.0000 C   0  0  0  0  0  0  0  0  0  0  0  0
    9.9256   -4.7029    0.0000 C   0  0  0  0  0  0  0  0  0  0  0  0
    7.3697   -7.4799    0.0000 C   0  0  0  0  0  0  0  0  0  0  0  0
    8.1947   -7.4799    0.0000 C   0  0  0  0  0  0  0  0  0  0  0  0
    7.7822   -8.1944    0.0000 O   0  0  0  0  0  0  0  0  0  0  0  0
   13.4980   -4.2904    0.0000 O   0  0  0  0  0  0  0  0  0  0  0  0
    8.4967   -7.1779    0.0000 H   0  0  0  0  0  0  0  0  0  0  0  0
   11.3546   -4.7029    0.0000 H   0  0  0  0  0  0  0  0  0  0  0  0
    9.2112   -5.9404    0.0000 H   0  0  0  0  0  0  0  0  0  0  0  0
  1  2  1  0  0  0  0
  2  3  1  0  0  0  0
  3  4  1  0  0  0  0
  4  5  1  0  0  0  0
  5  6  1  0  0  0  0
  1  6  1  0  0  0  0
  7  8  2  0  0  0  0
  7  9  1  0  0  0  0
  2  7  1  1  0  0  0
  4 10  1  1  0  0  0
  3 11  1  6  0  0  0
 13 14  1  0  0  0  0
 14 15  1  0  0  0  0
 15 16  1  0  0  0  0
 16 17  1  0  0  0  0
 17 18  1  0  0  0  0
 13 18  1  0  0  0  0
 20 21  1  0  0  0  0
 21 22  1  0  0  0  0
 22 23  1  0  0  0  0
 23 24  1  0  0  0  0
 24 25  1  0  0  0  0
 20 25  1  0  0  0  0
 25 26  1  6  0  0  0
 24 27  1  1  0  0  0
 23 28  1  6  0  0  0
 22 29  1  6  0  0  0
 21 19  1  1  0  0  0
 15 19  1  6  0  0  0
 30 31  1  0  0  0  0
 18 30  1  1  0  0  0
 17 32  1  1  0  0  0
 16 33  1  1  0  0  0
 14 12  1  1  0  0  0
  5 12  1  6  0  0  0
 35 36  1  0  0  0  0
 36 37  1  0  0  0  0
 37 38  1  0  0  0  0
 38 39  1  0  0  0  0
 39 40  1  0  0  0  0
 40 41  1  0  0  0  0
 41 42  1  0  0  0  0
 42 43  1  0  0  0  0
 43 44  1  0  0  0  0
 44 45  1  0  0  0  0
 45 46  1  0  0  0  0
 46 47  1  0  0  0  0
 47 48  1  0  0  0  0
 48 49  1  0  0  0  0
 49 50  1  0  0  0  0
 50 51  1  0  0  0  0
 46 51  1  0  0  0  0
 51 52  1  0  0  0  0
 43 52  1  0  0  0  0
 52 53  2  0  0  0  0
 53 54  1  0  0  0  0
 54 55  1  0  0  0  0
 42 55  1  0  0  0  0
 55 56  1  0  0  0  0
 39 56  1  0  0  0  0
 35 56  1  0  0  0  0
 54 57  2  0  0  0  0
 56 58  1  1  0  0  0
 49 59  1  0  0  0  0
 49 60  1  0  0  0  0
 46 61  1  1  0  0  0
 43 62  1  6  0  0  0
 42 63  1  1  0  0  0
 38 64  1  6  0  0  0
 65 66  1  0  0  0  0
 38 65  1  1  0  0  0
 47 67  1  1  0  0  0
 37 34  1  1  0  0  0
  6 34  1  1  0  0  0
 39 68  1  6  0  0  0
 51 69  1  1  0  0  0
 55 70  1  6  0  0  0
M  END
>  <cdx:groupId>
219

>  <cdx:fragmentId>
73

$$$$
