302377.cdx
  Mrv1902 05222410182D          

 33 38  0  0  0  0            999 V2000
    7.7074   -8.3898    0.0000 C   0  0  1  0  0  0  0  0  0  0  0  0
    8.4219   -8.8023    0.0000 O   0  0  0  0  0  0  0  0  0  0  0  0
    7.7074   -9.2148    0.0000 C   0  0  1  0  0  0  0  0  0  0  0  0
    6.9930   -9.6273    0.0000 C   0  0  0  0  0  0  0  0  0  0  0  0
    6.2785   -9.2148    0.0000 C   0  0  2  0  0  0  0  0  0  0  0  0
    5.5640   -9.6273    0.0000 C   0  0  0  0  0  0  0  0  0  0  0  0
    4.8495   -9.2148    0.0000 C   0  0  2  0  0  0  0  0  0  0  0  0
    4.8495   -8.3898    0.0000 C   0  0  0  0  0  0  0  0  0  0  0  0
    5.5640   -7.9773    0.0000 C   0  0  0  0  0  0  0  0  0  0  0  0
    6.2785   -8.3898    0.0000 C   0  0  2  0  0  0  0  0  0  0  0  0
    6.9930   -7.9773    0.0000 C   0  0  1  0  0  0  0  0  0  0  0  0
    6.9930   -7.1523    0.0000 C   0  0  1  0  0  0  0  0  0  0  0  0
    7.7074   -6.7398    0.0000 C   0  0  0  0  0  0  0  0  0  0  0  0
    8.4219   -7.1523    0.0000 C   0  0  2  0  0  0  0  0  0  0  0  0
    9.2065   -6.8973    0.0000 C   0  0  2  0  0  0  0  0  0  0  0  0
    9.6914   -7.5648    0.0000 C   0  0  0  0  0  0  0  0  0  0  0  0
    9.2065   -8.2322    0.0000 C   0  0  0  0  0  0  0  0  0  0  0  0
    8.4219   -7.9773    0.0000 C   0  0  2  0  0  0  0  0  0  0  0  0
    7.7074   -5.9148    0.0000 O   0  0  0  0  0  0  0  0  0  0  0  0
    9.4615   -4.7778    0.0000 O   0  0  0  0  0  0  0  0  0  0  0  0
    8.9765   -5.4453    0.0000 C   0  0  0  0  0  0  0  0  0  0  0  0
    9.4615   -6.1127    0.0000 C   0  0  0  0  0  0  0  0  0  0  0  0
   10.2461   -5.8578    0.0000 C   0  0  0  0  0  0  0  0  0  0  0  0
   10.2461   -5.0328    0.0000 C   0  0  0  0  0  0  0  0  0  0  0  0
   10.9135   -4.5478    0.0000 O   0  0  0  0  0  0  0  0  0  0  0  0
    8.5081   -6.3318    0.0000 C   0  0  0  0  0  0  0  0  0  0  0  0
    6.2785   -7.5648    0.0000 C   0  0  0  0  0  0  0  0  0  0  0  0
    9.1113   -8.7988    0.0000 O   0  0  0  0  0  0  0  0  0  0  0  0
    6.2785   -6.7398    0.0000 O   0  0  0  0  0  0  0  0  0  0  0  0
    4.1351   -9.6273    0.0000 O   0  0  0  0  0  0  0  0  0  0  0  0
    8.1199   -9.9292    0.0000 H   0  0  0  0  0  0  0  0  0  0  0  0
    6.2785  -10.0398    0.0000 H   0  0  0  0  0  0  0  0  0  0  0  0
    6.9930   -8.8023    0.0000 H   0  0  0  0  0  0  0  0  0  0  0  0
  1  2  1  1  0  0  0
  2  3  1  0  0  0  0
  3  4  1  0  0  0  0
  4  5  1  0  0  0  0
  5  6  1  0  0  0  0
  6  7  1  0  0  0  0
  7  8  1  0  0  0  0
  8  9  1  0  0  0  0
  9 10  1  0  0  0  0
 10 11  1  0  0  0  0
 11 12  1  0  0  0  0
 12 13  1  0  0  0  0
 13 14  1  0  0  0  0
 14 15  1  0  0  0  0
 15 16  1  0  0  0  0
 16 17  1  0  0  0  0
 17 18  1  0  0  0  0
  1 18  1  0  0  0  0
  1 11  1  0  0  0  0
  5 10  1  0  0  0  0
  1  3  1  0  0  0  0
 14 18  1  0  0  0  0
 13 19  2  0  0  0  0
 20 21  1  0  0  0  0
 21 22  1  0  0  0  0
 22 23  2  0  0  0  0
 23 24  1  0  0  0  0
 20 24  1  0  0  0  0
 24 25  2  0  0  0  0
 15 22  1  1  0  0  0
 14 26  1  1  0  0  0
 10 27  1  1  0  0  0
 18 28  1  1  0  0  0
 12 29  1  6  0  0  0
  7 30  1  1  0  0  0
  3 31  1  6  0  0  0
  5 32  1  1  0  0  0
 11 33  1  6  0  0  0
M  END
>  <cdx:groupId>
106

>  <cdx:fragmentId>
5

$$$$
