302358.cdx
  Mrv1902 05222410192D          

 35 37  0  0  0  0            999 V2000
    6.1727   -7.5552    0.0000 C   0  0  0  0  0  0  0  0  0  0  0  0
    5.4582   -7.9677    0.0000 C   0  0  0  0  0  0  0  0  0  0  0  0
    6.1727   -6.7302    0.0000 O   0  0  0  0  0  0  0  0  0  0  0  0
    6.8871   -7.9677    0.0000 O   0  0  0  0  0  0  0  0  0  0  0  0
    7.6016   -7.5552    0.0000 C   0  0  0  0  0  0  0  0  0  0  0  0
    7.6016   -6.7302    0.0000 C   0  0  0  0  0  0  0  0  0  0  0  0
    6.8871   -6.3177    0.0000 C   0  0  0  0  0  0  0  0  0  0  0  0
    6.8871   -5.4927    0.0000 C   0  0  0  0  0  0  0  0  0  0  0  0
    7.6016   -5.0802    0.0000 C   0  0  0  0  0  0  0  0  0  0  0  0
    8.3161   -5.4927    0.0000 C   0  0  0  0  0  0  0  0  0  0  0  0
    8.3161   -6.3177    0.0000 C   0  0  0  0  0  0  0  0  0  0  0  0
    6.1727   -5.0802    0.0000 O   0  0  0  0  0  0  0  0  0  0  0  0
    6.1727   -4.2552    0.0000 C   0  0  0  0  0  0  0  0  0  0  0  0
    7.6016   -4.2552    0.0000 O   0  0  0  0  0  0  0  0  0  0  0  0
    9.6315   -8.4511    0.0000 O   0  0  0  0  0  0  0  0  0  0  0  0
    9.1425   -7.7866    0.0000 C   0  0  0  0  0  0  0  0  0  0  0  0
    8.3595   -8.0463    0.0000 C   0  0  2  0  0  0  0  0  0  0  0  0
    8.3645   -8.8712    0.0000 C   0  0  2  0  0  0  0  0  0  0  0  0
    9.1506   -9.1214    0.0000 C   0  0  0  0  0  0  0  0  0  0  0  0
    6.8937   -8.9783    0.0000 O   0  0  0  0  0  0  0  0  0  0  0  0
    5.4499   -8.8558    0.0000 C   0  0  0  0  0  0  0  0  0  0  0  0
    6.1324  -10.1352    0.0000 O   0  0  0  0  0  0  0  0  0  0  0  0
    6.1385   -9.3102    0.0000 C   0  0  0  0  0  0  0  0  0  0  0  0
    7.5820  -12.6957    0.0000 O   0  0  0  0  0  0  0  0  0  0  0  0
    6.1531  -12.6856    0.0000 C   0  0  0  0  0  0  0  0  0  0  0  0
    6.1589  -11.8606    0.0000 O   0  0  0  0  0  0  0  0  0  0  0  0
    8.3110  -10.6383    0.0000 C   0  0  0  0  0  0  0  0  0  0  0  0
    8.3052  -11.4633    0.0000 C   0  0  0  0  0  0  0  0  0  0  0  0
    7.5878  -11.8707    0.0000 C   0  0  0  0  0  0  0  0  0  0  0  0
    6.8763  -11.4532    0.0000 C   0  0  0  0  0  0  0  0  0  0  0  0
    6.8821  -10.6282    0.0000 C   0  0  0  0  0  0  0  0  0  0  0  0
    7.5994  -10.2208    0.0000 C   0  0  0  0  0  0  0  0  0  0  0  0
    7.6053   -9.3958    0.0000 C   0  0  0  0  0  0  0  0  0  0  0  0
    8.3545   -7.2213    0.0000 H   0  0  0  0  0  0  0  0  0  0  0  0
    8.3695   -9.6962    0.0000 H   0  0  0  0  0  0  0  0  0  0  0  0
 33 20  1  0  0  0  0
 23 21  1  0  0  0  0
 23 22  2  0  0  0  0
 33 32  1  0  0  0  0
 29 24  1  0  0  0  0
 30 26  1  0  0  0  0
 26 25  1  0  0  0  0
 32 27  2  0  0  0  0
 28 27  1  0  0  0  0
 29 28  2  0  0  0  0
 30 29  1  0  0  0  0
 31 30  2  0  0  0  0
 32 31  1  0  0  0  0
  1  2  1  0  0  0  0
  1  3  2  0  0  0  0
  1  4  1  0  0  0  0
  6  7  1  0  0  0  0
  7  8  2  0  0  0  0
  8  9  1  0  0  0  0
  9 10  2  0  0  0  0
 10 11  1  0  0  0  0
  6 11  2  0  0  0  0
 12 13  1  0  0  0  0
  8 12  1  0  0  0  0
  9 14  1  0  0  0  0
  5  6  1  0  0  0  0
 15 16  1  0  0  0  0
 17 16  1  0  0  0  0
 17 18  1  0  0  0  0
 18 19  1  0  0  0  0
 15 19  1  0  0  0  0
 20 23  1  0  0  0  0
 18 33  1  0  0  0  0
  5 17  1  0  0  0  0
  4  5  1  0  0  0  0
 17 34  1  1  0  0  0
 18 35  1  1  0  0  0
M  END
>  <cdx:fragmentId>
45

$$$$
