302375.cdx
  Mrv1902 05222410192D          

 25 28  0  0  0  0            999 V2000
    8.7675   -7.8973    0.0000 C   0  0  0  0  0  0  0  0  0  0  0  0
    8.0242   -8.2553    0.0000 O   0  0  0  0  0  0  0  0  0  0  0  0
    7.2809   -7.8973    0.0000 C   0  0  0  0  0  0  0  0  0  0  0  0
    6.6761   -8.4585    0.0000 C   0  0  0  0  0  0  0  0  0  0  0  0
    5.8878   -8.2153    0.0000 C   0  0  0  0  0  0  0  0  0  0  0  0
    5.7042   -7.4110    0.0000 C   0  0  0  0  0  0  0  0  0  0  0  0
    6.3090   -6.8498    0.0000 C   0  0  0  0  0  0  0  0  0  0  0  0
    7.0973   -7.0930    0.0000 C   0  0  0  0  0  0  0  0  0  0  0  0
    7.6117   -6.4480    0.0000 C   0  0  0  0  0  0  0  0  0  0  0  0
    8.4367   -6.4480    0.0000 C   0  0  2  0  0  0  0  0  0  0  0  0
    8.6527   -5.6518    0.0000 N   0  0  0  0  0  0  0  0  0  0  0  0
    9.4548   -5.4590    0.0000 C   0  0  0  0  0  0  0  0  0  0  0  0
   10.0090   -6.0701    0.0000 C   0  0  0  0  0  0  0  0  0  0  0  0
    9.7394   -6.8498    0.0000 C   0  0  0  0  0  0  0  0  0  0  0  0
   10.3442   -7.4110    0.0000 C   0  0  0  0  0  0  0  0  0  0  0  0
   10.1606   -8.2153    0.0000 C   0  0  0  0  0  0  0  0  0  0  0  0
    9.3723   -8.4585    0.0000 C   0  0  0  0  0  0  0  0  0  0  0  0
    8.9511   -7.0930    0.0000 C   0  0  0  0  0  0  0  0  0  0  0  0
    6.8597   -9.2628    0.0000 O   0  0  0  0  0  0  0  0  0  0  0  0
    8.0778   -5.0600    0.0000 C   0  0  0  0  0  0  0  0  0  0  0  0
    9.1887   -9.2628    0.0000 O   0  0  0  0  0  0  0  0  0  0  0  0
    8.4003   -9.5059    0.0000 C   0  0  0  0  0  0  0  0  0  0  0  0
    5.2830   -8.7764    0.0000 O   0  0  0  0  0  0  0  0  0  0  0  0
    4.4947   -8.5333    0.0000 C   0  0  0  0  0  0  0  0  0  0  0  0
    7.9355   -5.7927    0.0000 H   0  0  0  0  0  0  0  0  0  0  0  0
  1  2  1  0  0  0  0
  2  3  1  0  0  0  0
  3  4  1  0  0  0  0
  4  5  2  0  0  0  0
  5  6  1  0  0  0  0
  6  7  2  0  0  0  0
  7  8  1  0  0  0  0
  8  9  1  0  0  0  0
  9 10  1  0  0  0  0
 10 11  1  0  0  0  0
 11 12  1  0  0  0  0
 12 13  1  0  0  0  0
 13 14  1  0  0  0  0
 14 15  1  0  0  0  0
 15 16  2  0  0  0  0
 16 17  1  0  0  0  0
  1 17  2  0  0  0  0
  1 18  1  0  0  0  0
 18 10  1  0  0  0  0
  3  8  2  0  0  0  0
 14 18  2  0  0  0  0
  4 19  1  0  0  0  0
 11 20  1  0  0  0  0
 21 22  1  0  0  0  0
 17 21  1  0  0  0  0
 23 24  1  0  0  0  0
  5 23  1  0  0  0  0
 10 25  1  1  0  0  0
M  END
>  <cdx:groupId>
80

>  <cdx:fragmentId>
5

$$$$
