302387.cdx
  Mrv1902 05222410272D          

 44 51  0  0  0  0            999 V2000
    8.3957   -6.3659    0.0000 H   0  0  0  0  0  0  0  0  0  0  0  0
    8.6953   -7.7631    0.0000 H   0  0  0  0  0  0  0  0  0  0  0  0
    9.7555   -6.8051    0.0000 H   0  0  0  0  0  0  0  0  0  0  0  0
    9.0784   -9.1825    0.0000 H   0  0  0  0  0  0  0  0  0  0  0  0
    9.9182   -9.6839    0.0000 C   0  0  0  0  0  0  0  0  0  0  0  0
    9.6923   -5.7142    0.0000 C   0  0  0  0  0  0  0  0  0  0  0  0
    7.3797   -5.6974    0.0000 C   0  0  0  0  0  0  0  0  0  0  0  0
    8.0581   -5.0369    0.0000 O   0  0  0  0  0  0  0  0  0  0  0  0
   11.3684   -8.6264    0.0000 O   0  0  0  0  0  0  0  0  0  0  0  0
    8.1422   -7.1510    0.0000 C   0  0  2  0  0  0  0  0  0  0  0  0
    7.6865   -6.4633    0.0000 C   0  0  2  0  0  0  0  0  0  0  0  0
    8.2311   -5.8436    0.0000 C   0  0  0  0  0  0  0  0  0  0  0  0
    8.9950   -6.1551    0.0000 C   0  0  2  0  0  0  0  0  0  0  0  0
    8.9488   -6.9780    0.0000 C   0  0  2  0  0  0  0  0  0  0  0  0
    9.5020   -7.5901    0.0000 C   0  0  1  0  0  0  0  0  0  0  0  0
   10.3270   -7.5887    0.0000 O   0  0  0  0  0  0  0  0  0  0  0  0
   10.5833   -8.3728    0.0000 C   0  0  0  0  0  0  0  0  0  0  0  0
    9.9167   -8.8589    0.0000 C   0  0  2  0  0  0  0  0  0  0  0  0
    9.2484   -8.3752    0.0000 C   0  0  1  0  0  0  0  0  0  0  0  0
    8.4418   -8.5482    0.0000 O   0  0  0  0  0  0  0  0  0  0  0  0
    7.8887   -7.9361    0.0000 C   0  0  1  0  0  0  0  0  0  0  0  0
    6.8779   -6.2993    0.0000 C   0  0  0  0  0  0  0  0  0  0  0  0
    6.1902   -6.7550    0.0000 C   0  0  0  0  0  0  0  0  0  0  0  0
    6.0262   -7.5635    0.0000 C   0  0  1  0  0  0  0  0  0  0  0  0
    6.4819   -8.2512    0.0000 C   0  0  0  0  0  0  0  0  0  0  0  0
    7.2904   -8.4153    0.0000 C   0  0  0  0  0  0  0  0  0  0  0  0
    7.4846   -9.2171    0.0000 O   0  0  0  0  0  0  0  0  0  0  0  0
    5.2044   -7.4910    0.0000 C   0  0  0  0  0  0  0  0  0  0  0  0
    4.6353   -8.0883    0.0000 C   0  0  1  0  0  0  0  0  0  0  0  0
    4.7475   -8.9057    0.0000 C   0  0  1  0  0  0  0  0  0  0  0  0
    5.4565   -9.3276    0.0000 C   0  0  0  0  0  0  0  0  0  0  0  0
    6.2284   -9.0363    0.0000 C   0  0  0  0  0  0  0  0  0  0  0  0
    3.8233   -7.9425    0.0000 C   0  0  2  0  0  0  0  0  0  0  0  0
    3.4337   -8.6697    0.0000 O   0  0  0  0  0  0  0  0  0  0  0  0
    4.0049   -9.2650    0.0000 C   0  0  2  0  0  0  0  0  0  0  0  0
    5.0250   -7.3612    0.0000 O   0  0  0  0  0  0  0  0  0  0  0  0
    4.4538   -6.7659    0.0000 C   0  0  0  0  0  0  0  0  0  0  0  0
    3.7111   -7.1252    0.0000 C   0  0  0  0  0  0  0  0  0  0  0  0
    4.5996   -5.9539    0.0000 O   0  0  0  0  0  0  0  0  0  0  0  0
    3.0264   -7.7290    0.0000 O   0  0  0  0  0  0  0  0  0  0  0  0
    3.4215   -9.8483    0.0000 C   0  0  0  0  0  0  0  0  0  0  0  0
    4.2184  -10.0619    0.0000 C   0  0  0  0  0  0  0  0  0  0  0  0
    4.8597   -9.7230    0.0000 H   0  0  0  0  0  0  0  0  0  0  0  0
    7.0400   -7.3975    0.0000 O   0  0  0  0  0  0  0  0  0  0  0  0
 10  1  1  1  0  0  0
 14  2  1  1  0  0  0
 15  3  1  6  0  0  0
 19  4  1  6  0  0  0
 18  5  1  1  0  0  0
 13  6  1  1  0  0  0
 11  7  1  1  0  0  0
 12  8  2  0  0  0  0
 17  9  2  0  0  0  0
 11 10  1  0  0  0  0
 19 15  1  0  0  0  0
 10 21  1  0  0  0  0
 14 10  1  0  0  0  0
 12 11  1  0  0  0  0
 13 12  1  0  0  0  0
 14 13  1  0  0  0  0
 15 14  1  0  0  0  0
 16 15  1  0  0  0  0
 17 16  1  0  0  0  0
 18 17  1  0  0  0  0
 19 18  1  0  0  0  0
 20 19  1  0  0  0  0
 21 20  1  0  0  0  0
 11 22  1  0  0  0  0
 22 23  1  0  0  0  0
 24 23  1  1  0  0  0
 24 25  1  0  0  0  0
 25 26  1  0  0  0  0
 26 21  1  0  0  0  0
 26 27  2  0  0  0  0
 24 28  1  0  0  0  0
 28 29  1  0  0  0  0
 29 30  1  0  0  0  0
 30 31  1  0  0  0  0
 31 32  1  0  0  0  0
 32 25  2  0  0  0  0
 29 33  1  0  0  0  0
 33 34  1  0  0  0  0
 34 35  1  0  0  0  0
 35 30  1  0  0  0  0
 29 36  1  6  0  0  0
 36 37  1  0  0  0  0
 37 38  1  0  0  0  0
 38 33  1  0  0  0  0
 37 39  2  0  0  0  0
 33 40  1  1  0  0  0
 35 41  1  1  0  0  0
 35 42  1  6  0  0  0
 30 43  1  6  0  0  0
 24 44  1  6  0  0  0
 21 44  1  6  0  0  0
M  END
>  <cdx:fragmentId>
9

$$$$
