302392.cdx
  Mrv1902 05222410272D          

 31 33  0  0  0  0            999 V2000
    7.5254   -7.7291    0.0000 C   0  0  0  0  0  0  0  0  0  0  0  0
    7.5433   -6.9043    0.0000 C   0  0  0  0  0  0  0  0  0  0  0  0
    6.7513   -6.6735    0.0000 C   0  0  0  0  0  0  0  0  0  0  0  0
    6.5551   -5.8722    0.0000 C   0  0  0  0  0  0  0  0  0  0  0  0
    7.1510   -5.3016    0.0000 C   0  0  0  0  0  0  0  0  0  0  0  0
    7.9431   -5.5324    0.0000 C   0  0  0  0  0  0  0  0  0  0  0  0
    8.1392   -6.3338    0.0000 C   0  0  0  0  0  0  0  0  0  0  0  0
    8.9640   -6.3517    0.0000 C   0  0  0  0  0  0  0  0  0  0  0  0
    9.5346   -6.9476    0.0000 C   0  0  1  0  0  0  0  0  0  0  0  0
    9.5166   -7.7724    0.0000 C   0  0  1  0  0  0  0  0  0  0  0  0
    8.9207   -8.3430    0.0000 C   0  0  0  0  0  0  0  0  0  0  0  0
    8.0959   -8.3250    0.0000 C   0  0  0  0  0  0  0  0  0  0  0  0
    7.8651   -9.1171    0.0000 C   0  0  0  0  0  0  0  0  0  0  0  0
    7.0638   -9.3132    0.0000 C   0  0  0  0  0  0  0  0  0  0  0  0
    6.4932   -8.7173    0.0000 C   0  0  0  0  0  0  0  0  0  0  0  0
    6.7240   -7.9253    0.0000 C   0  0  0  0  0  0  0  0  0  0  0  0
    9.2962   -5.5965    0.0000 O   0  0  0  0  0  0  0  0  0  0  0  0
   10.2718   -8.1046    0.0000 C   0  0  0  0  0  0  0  0  0  0  0  0
   10.3034   -6.6485    0.0000 C   0  0  0  0  0  0  0  0  0  0  0  0
    5.9841   -7.5605    0.0000 O   0  0  0  0  0  0  0  0  0  0  0  0
    5.2982   -8.0189    0.0000 C   0  0  0  0  0  0  0  0  0  0  0  0
    5.6919   -8.9135    0.0000 O   0  0  0  0  0  0  0  0  0  0  0  0
    5.4611   -9.7056    0.0000 C   0  0  0  0  0  0  0  0  0  0  0  0
    6.8330  -10.1053    0.0000 O   0  0  0  0  0  0  0  0  0  0  0  0
    6.0317  -10.3015    0.0000 C   0  0  0  0  0  0  0  0  0  0  0  0
    6.9548   -4.5003    0.0000 O   0  0  0  0  0  0  0  0  0  0  0  0
    7.5507   -3.9298    0.0000 C   0  0  0  0  0  0  0  0  0  0  0  0
    5.7630   -5.6414    0.0000 O   0  0  0  0  0  0  0  0  0  0  0  0
    5.5669   -4.8401    0.0000 C   0  0  0  0  0  0  0  0  0  0  0  0
    5.9961   -7.0059    0.0000 O   0  0  0  0  0  0  0  0  0  0  0  0
    5.3308   -6.5181    0.0000 C   0  0  0  0  0  0  0  0  0  0  0  0
  1  2  1  0  0  0  0
  2  3  2  0  0  0  0
  3  4  1  0  0  0  0
  4  5  2  0  0  0  0
  5  6  1  0  0  0  0
  6  7  2  0  0  0  0
  7  8  1  0  0  0  0
  8  9  1  0  0  0  0
  9 10  1  0  0  0  0
 10 11  1  0  0  0  0
 11 12  1  0  0  0  0
 12 13  2  0  0  0  0
 13 14  1  0  0  0  0
 14 15  2  0  0  0  0
 15 16  1  0  0  0  0
  1 16  2  0  0  0  0
  1 12  1  0  0  0  0
  2  7  1  0  0  0  0
  8 17  2  0  0  0  0
 10 18  1  6  0  0  0
  9 19  1  6  0  0  0
 20 21  1  0  0  0  0
 16 20  1  0  0  0  0
 22 23  1  0  0  0  0
 15 22  1  0  0  0  0
 24 25  1  0  0  0  0
 14 24  1  0  0  0  0
 26 27  1  0  0  0  0
  5 26  1  0  0  0  0
 28 29  1  0  0  0  0
  4 28  1  0  0  0  0
 30 31  1  0  0  0  0
  3 30  1  0  0  0  0
M  END
>  <cdx:fragmentId>
5

$$$$
