302378.cdx
  Mrv1902 05222410272D          

 21 24  0  0  0  0            999 V2000
    7.5192   -8.7013    0.0000 O   0  0  0  0  0  0  0  0  0  0  0  0
    7.3075   -7.9039    0.0000 C   0  0  2  0  0  0  0  0  0  0  0  0
    8.1039   -8.1193    0.0000 C   0  0  0  0  0  0  0  0  0  0  0  0
    6.9462   -7.9095    0.0000 C   0  0  1  0  0  0  0  0  0  0  0  0
    6.9462   -7.0845    0.0000 C   0  0  2  0  0  0  0  0  0  0  0  0
    6.2317   -6.6720    0.0000 C   0  0  2  0  0  0  0  0  0  0  0  0
    5.5172   -7.0845    0.0000 C   0  0  0  0  0  0  0  0  0  0  0  0
    5.5172   -7.9095    0.0000 C   0  0  0  0  0  0  0  0  0  0  0  0
    6.2317   -8.3220    0.0000 C   0  0  2  0  0  0  0  0  0  0  0  0
    7.7308   -6.8295    0.0000 C   0  0  1  0  0  0  0  0  0  0  0  0
    8.2157   -7.4970    0.0000 C   0  0  1  0  0  0  0  0  0  0  0  0
    7.7308   -8.1644    0.0000 C   0  0  2  0  0  0  0  0  0  0  0  0
    9.0407   -7.4970    0.0000 O   0  0  0  0  0  0  0  0  0  0  0  0
    7.9857   -8.9490    0.0000 O   0  0  0  0  0  0  0  0  0  0  0  0
    6.9462   -5.4345    0.0000 C   0  0  0  0  0  0  0  0  0  0  0  0
    6.2317   -5.8470    0.0000 C   0  0  0  0  0  0  0  0  0  0  0  0
    5.5172   -5.4345    0.0000 C   0  0  0  0  0  0  0  0  0  0  0  0
    6.2317   -9.1470    0.0000 C   0  0  0  0  0  0  0  0  0  0  0  0
    6.2317   -7.4970    0.0000 H   0  0  0  0  0  0  0  0  0  0  0  0
    7.0324   -6.2640    0.0000 H   0  0  0  0  0  0  0  0  0  0  0  0
    7.9857   -6.0449    0.0000 H   0  0  0  0  0  0  0  0  0  0  0  0
  2  1  1  6  0  0  0
  2  3  1  1  0  0  0
  1  3  1  0  0  0  0
  4  5  1  0  0  0  0
  5  6  1  0  0  0  0
  6  7  1  0  0  0  0
  7  8  1  0  0  0  0
  8  9  1  0  0  0  0
 10 11  1  0  0  0  0
 11 12  1  0  0  0  0
  4 12  1  0  0  0  0
  4  9  1  0  0  0  0
  5 10  1  0  0  0  0
  9  2  1  0  0  0  0
 10  2  1  0  0  0  0
 11 13  1  6  0  0  0
 12 14  1  6  0  0  0
 15 16  1  0  0  0  0
 16 17  1  0  0  0  0
  6 16  1  6  0  0  0
  9 18  1  1  0  0  0
  4 19  1  1  0  0  0
  5 20  1  1  0  0  0
 10 21  1  6  0  0  0
M  END
>  <cdx:groupId>
68

>  <cdx:fragmentId>
11

$$$$
