302312.cdx
  Mrv1902 05222410222D          

 36 40  0  0  0  0            999 V2000
    5.2816   -7.4360    0.0000 C   0  0  0  0  0  0  0  0  0  0  0  0
    4.5671   -7.8485    0.0000 C   0  0  0  0  0  0  0  0  0  0  0  0
    4.5671   -8.6735    0.0000 C   0  0  1  0  0  0  0  0  0  0  0  0
    5.2816   -9.0860    0.0000 C   0  0  2  0  0  0  0  0  0  0  0  0
    5.9961   -8.6735    0.0000 C   0  0  0  0  0  0  0  0  0  0  0  0
    6.7105   -9.0860    0.0000 C   0  0  0  0  0  0  0  0  0  0  0  0
    7.4250   -8.6735    0.0000 C   0  0  0  0  0  0  0  0  0  0  0  0
    7.4250   -7.8485    0.0000 C   0  0  1  0  0  0  0  0  0  0  0  0
    8.1395   -7.4360    0.0000 C   0  0  2  0  0  0  0  0  0  0  0  0
    8.8539   -7.8485    0.0000 C   0  0  0  0  0  0  0  0  0  0  0  0
    9.5684   -7.4360    0.0000 C   0  0  0  0  0  0  0  0  0  0  0  0
    9.5684   -6.6110    0.0000 C   0  0  1  0  0  0  0  0  0  0  0  0
   10.2829   -6.1985    0.0000 C   0  0  0  0  0  0  0  0  0  0  0  0
   10.2829   -5.3735    0.0000 C   0  0  0  0  0  0  0  0  0  0  0  0
    9.5684   -4.9610    0.0000 C   0  0  2  0  0  0  0  0  0  0  0  0
    8.8539   -5.3735    0.0000 C   0  0  1  0  0  0  0  0  0  0  0  0
    8.8539   -6.1985    0.0000 C   0  0  0  0  0  0  0  0  0  0  0  0
    8.1395   -6.6110    0.0000 C   0  0  0  0  0  0  0  0  0  0  0  0
    7.4250   -6.1985    0.0000 C   0  0  0  0  0  0  0  0  0  0  0  0
    6.7105   -6.6110    0.0000 C   0  0  0  0  0  0  0  0  0  0  0  0
    6.7105   -7.4360    0.0000 C   0  0  0  0  0  0  0  0  0  0  0  0
    5.9961   -7.8485    0.0000 C   0  0  1  0  0  0  0  0  0  0  0  0
    5.2816   -9.9110    0.0000 C   0  0  0  0  0  0  0  0  0  0  0  0
    5.9961  -10.3235    0.0000 O   0  0  0  0  0  0  0  0  0  0  0  0
    4.5671  -10.3235    0.0000 O   0  0  0  0  0  0  0  0  0  0  0  0
   10.2829   -7.0235    0.0000 C   0  0  0  0  0  0  0  0  0  0  0  0
   10.2829   -7.8485    0.0000 O   0  0  0  0  0  0  0  0  0  0  0  0
   10.9974   -6.6110    0.0000 O   0  0  0  0  0  0  0  0  0  0  0  0
    5.9961   -7.0235    0.0000 C   0  0  0  0  0  0  0  0  0  0  0  0
    8.4414   -4.6590    0.0000 C   0  0  0  0  0  0  0  0  0  0  0  0
    9.5684   -4.1360    0.0000 C   0  0  0  0  0  0  0  0  0  0  0  0
    8.1395   -8.2610    0.0000 C   0  0  0  0  0  0  0  0  0  0  0  0
    7.4250   -7.0235    0.0000 C   0  0  0  0  0  0  0  0  0  0  0  0
    5.9961   -9.4985    0.0000 C   0  0  0  0  0  0  0  0  0  0  0  0
    8.0289   -5.3735    0.0000 O   0  0  0  0  0  0  0  0  0  0  0  0
    3.8526   -9.0860    0.0000 O   0  0  0  0  0  0  0  0  0  0  0  0
  1  2  1  0  0  0  0
  2  3  1  0  0  0  0
  3  4  1  0  0  0  0
  4  5  1  0  0  0  0
  5  6  1  0  0  0  0
  6  7  1  0  0  0  0
  7  8  1  0  0  0  0
  8  9  1  0  0  0  0
  9 10  1  0  0  0  0
 10 11  1  0  0  0  0
 11 12  1  0  0  0  0
 12 13  1  0  0  0  0
 13 14  1  0  0  0  0
 14 15  1  0  0  0  0
 15 16  1  0  0  0  0
 16 17  1  0  0  0  0
 12 17  1  0  0  0  0
 17 18  1  0  0  0  0
  9 18  1  0  0  0  0
 18 19  2  0  0  0  0
 19 20  1  0  0  0  0
 20 21  1  0  0  0  0
  8 21  1  0  0  0  0
 21 22  1  0  0  0  0
  5 22  1  0  0  0  0
  1 22  1  0  0  0  0
 23 24  2  0  0  0  0
 23 25  1  0  0  0  0
  4 23  1  0  0  0  0
 26 27  2  0  0  0  0
 26 28  1  0  0  0  0
 12 26  1  1  0  0  0
 22 29  1  1  0  0  0
 16 30  1  1  0  0  0
 15 31  1  6  0  0  0
  9 32  1  6  0  0  0
  8 33  1  1  0  0  0
  4 34  1  1  0  0  0
 16 35  1  6  0  0  0
  3 36  1  1  0  0  0
M  END
>  <cdx:groupId>
114

>  <cdx:fragmentId>
5

$$$$
