302339.cdx
  Mrv1902 05222410222D          

 52 57  0  0  0  0            999 V2000
    6.7105   -6.3525    0.0000 C   0  0  0  0  0  0  0  0  0  0  0  0
    6.7105   -7.1775    0.0000 C   0  0  0  0  0  0  0  0  0  0  0  0
    7.4250   -7.5900    0.0000 C   0  0  0  0  0  0  0  0  0  0  0  0
    8.1395   -7.1775    0.0000 C   0  0  0  0  0  0  0  0  0  0  0  0
    8.1395   -6.3525    0.0000 C   0  0  0  0  0  0  0  0  0  0  0  0
    7.4250   -5.9400    0.0000 C   0  0  0  0  0  0  0  0  0  0  0  0
    8.8539   -7.5900    0.0000 C   0  0  0  0  0  0  0  0  0  0  0  0
    9.5684   -7.1775    0.0000 C   0  0  0  0  0  0  0  0  0  0  0  0
    9.5684   -6.3525    0.0000 C   0  0  0  0  0  0  0  0  0  0  0  0
    8.8539   -5.9400    0.0000 C   0  0  0  0  0  0  0  0  0  0  0  0
   10.2829   -5.9400    0.0000 C   0  0  0  0  0  0  0  0  0  0  0  0
   10.9974   -6.3525    0.0000 C   0  0  0  0  0  0  0  0  0  0  0  0
   11.7118   -5.9400    0.0000 C   0  0  0  0  0  0  0  0  0  0  0  0
   11.7118   -5.1150    0.0000 C   0  0  0  0  0  0  0  0  0  0  0  0
   10.9974   -4.7025    0.0000 C   0  0  0  0  0  0  0  0  0  0  0  0
   10.2829   -5.1150    0.0000 C   0  0  0  0  0  0  0  0  0  0  0  0
    9.5684   -4.7025    0.0000 O   0  0  0  0  0  0  0  0  0  0  0  0
   12.4263   -4.7025    0.0000 O   0  0  0  0  0  0  0  0  0  0  0  0
    8.8539   -8.4150    0.0000 O   0  0  0  0  0  0  0  0  0  0  0  0
    7.4250   -8.4150    0.0000 O   0  0  0  0  0  0  0  0  0  0  0  0
    5.9961   -5.9400    0.0000 O   0  0  0  0  0  0  0  0  0  0  0  0
    5.9961   -7.5900    0.0000 C   0  0  2  0  0  0  0  0  0  0  0  0
    5.2816   -7.1775    0.0000 C   0  0  2  0  0  0  0  0  0  0  0  0
    4.5671   -7.5900    0.0000 C   0  0  1  0  0  0  0  0  0  0  0  0
    4.5671   -8.4150    0.0000 C   0  0  0  0  0  0  0  0  0  0  0  0
    5.2816   -8.8275    0.0000 C   0  0  0  0  0  0  0  0  0  0  0  0
    5.9961   -8.4150    0.0000 C   0  0  0  0  0  0  0  0  0  0  0  0
    5.2816   -9.6525    0.0000 C   0  0  0  0  0  0  0  0  0  0  0  0
    5.9961  -10.0650    0.0000 C   0  0  0  0  0  0  0  0  0  0  0  0
    5.9961  -10.8900    0.0000 C   0  0  0  0  0  0  0  0  0  0  0  0
    6.7105  -11.3025    0.0000 C   0  0  0  0  0  0  0  0  0  0  0  0
    6.2980  -12.0170    0.0000 C   0  0  0  0  0  0  0  0  0  0  0  0
    7.1230  -10.5880    0.0000 C   0  0  0  0  0  0  0  0  0  0  0  0
    7.4250  -11.7150    0.0000 O   0  0  0  0  0  0  0  0  0  0  0  0
    3.8526   -7.1775    0.0000 C   0  0  0  0  0  0  0  0  0  0  0  0
    3.8526   -6.3525    0.0000 C   0  0  0  0  0  0  0  0  0  0  0  0
    3.1382   -5.9400    0.0000 C   0  0  0  0  0  0  0  0  0  0  0  0
    2.4237   -6.3525    0.0000 C   0  0  0  0  0  0  0  0  0  0  0  0
    2.4237   -7.1775    0.0000 C   0  0  0  0  0  0  0  0  0  0  0  0
    3.1382   -7.5900    0.0000 C   0  0  0  0  0  0  0  0  0  0  0  0
    1.7092   -5.9400    0.0000 O   0  0  0  0  0  0  0  0  0  0  0  0
    5.2816   -5.5825    0.0000 C   0  0  0  0  0  0  0  0  0  0  0  0
    4.5671   -5.1700    0.0000 C   0  0  0  0  0  0  0  0  0  0  0  0
    5.9961   -5.1700    0.0000 O   0  0  0  0  0  0  0  0  0  0  0  0
    4.5671   -4.3450    0.0000 C   0  0  0  0  0  0  0  0  0  0  0  0
    3.8526   -3.9325    0.0000 C   0  0  0  0  0  0  0  0  0  0  0  0
    3.1382   -4.3450    0.0000 C   0  0  0  0  0  0  0  0  0  0  0  0
    3.1382   -5.1700    0.0000 C   0  0  0  0  0  0  0  0  0  0  0  0
    3.8526   -5.5825    0.0000 C   0  0  0  0  0  0  0  0  0  0  0  0
    5.2816   -3.9325    0.0000 C   0  0  0  0  0  0  0  0  0  0  0  0
    2.4237   -3.9325    0.0000 C   0  0  0  0  0  0  0  0  0  0  0  0
    4.5671   -5.9400    0.0000 O   0  0  0  0  0  0  0  0  0  0  0  0
  1  2  2  0  0  0  0
  2  3  1  0  0  0  0
  3  4  2  0  0  0  0
  4  5  1  0  0  0  0
  5  6  2  0  0  0  0
  6  1  1  0  0  0  0
  4  7  1  0  0  0  0
  7  8  1  0  0  0  0
  8  9  1  0  0  0  0
  9 10  1  0  0  0  0
 10  5  1  0  0  0  0
  9 11  1  0  0  0  0
 11 12  2  0  0  0  0
 12 13  1  0  0  0  0
 13 14  2  0  0  0  0
 14 15  1  0  0  0  0
 15 16  2  0  0  0  0
 16 11  1  0  0  0  0
 16 17  1  0  0  0  0
 14 18  1  0  0  0  0
  7 19  2  0  0  0  0
  3 20  1  0  0  0  0
  1 21  1  0  0  0  0
 22  2  1  1  0  0  0
 22 23  1  0  0  0  0
 23 24  1  0  0  0  0
 24 25  1  0  0  0  0
 25 26  1  0  0  0  0
 26 27  2  0  0  0  0
 27 22  1  0  0  0  0
 26 28  1  0  0  0  0
 28 29  1  0  0  0  0
 29 30  1  0  0  0  0
 30 31  1  0  0  0  0
 31 32  1  0  0  0  0
 31 33  1  0  0  0  0
 31 34  1  0  0  0  0
 24 35  1  1  0  0  0
 35 36  2  0  0  0  0
 36 37  1  0  0  0  0
 37 38  2  0  0  0  0
 38 39  1  0  0  0  0
 39 40  2  0  0  0  0
 40 35  1  0  0  0  0
 38 41  1  0  0  0  0
 23 42  1  6  0  0  0
 42 43  1  0  0  0  0
 42 44  2  0  0  0  0
 43 45  2  0  0  0  0
 45 46  1  0  0  0  0
 46 47  2  0  0  0  0
 47 48  1  0  0  0  0
 48 49  2  0  0  0  0
 49 43  1  0  0  0  0
 45 50  1  0  0  0  0
 47 51  1  0  0  0  0
 36 52  1  0  0  0  0
M  END
>  <cdx:fragmentId>
89

$$$$
