302305.cdx
  Mrv1902 05222410222D          

 37 41  0  0  0  0            999 V2000
    8.7546   -5.2778    0.0000 C   0  0  1  0  0  0  0  0  0  0  0  0
    9.4691   -4.8653    0.0000 C   0  0  1  0  0  0  0  0  0  0  0  0
   10.1836   -5.2778    0.0000 C   0  0  0  0  0  0  0  0  0  0  0  0
   10.1836   -6.1028    0.0000 C   0  0  0  0  0  0  0  0  0  0  0  0
    9.4691   -6.5153    0.0000 C   0  0  2  0  0  0  0  0  0  0  0  0
    9.4691   -7.3403    0.0000 C   0  0  0  0  0  0  0  0  0  0  0  0
    8.7546   -7.7528    0.0000 C   0  0  0  0  0  0  0  0  0  0  0  0
    8.0402   -7.3403    0.0000 C   0  0  2  0  0  0  0  0  0  0  0  0
    7.3257   -7.7528    0.0000 C   0  0  1  0  0  0  0  0  0  0  0  0
    7.3257   -8.5778    0.0000 C   0  0  0  0  0  0  0  0  0  0  0  0
    6.6112   -8.9903    0.0000 C   0  0  0  0  0  0  0  0  0  0  0  0
    5.8968   -8.5778    0.0000 C   0  0  1  0  0  0  0  0  0  0  0  0
    5.1823   -8.9903    0.0000 C   0  0  2  0  0  0  0  0  0  0  0  0
    4.4678   -8.5778    0.0000 C   0  0  0  0  0  0  0  0  0  0  0  0
    4.4678   -7.7528    0.0000 C   0  0  0  0  0  0  0  0  0  0  0  0
    5.1823   -7.3403    0.0000 C   0  0  0  0  0  0  0  0  0  0  0  0
    5.8968   -7.7528    0.0000 C   0  0  1  0  0  0  0  0  0  0  0  0
    6.6112   -7.3403    0.0000 C   0  0  0  0  0  0  0  0  0  0  0  0
    6.6112   -6.5153    0.0000 C   0  0  0  0  0  0  0  0  0  0  0  0
    7.3257   -6.1028    0.0000 C   0  0  0  0  0  0  0  0  0  0  0  0
    8.0402   -6.5153    0.0000 C   0  0  0  0  0  0  0  0  0  0  0  0
    8.7546   -6.1028    0.0000 C   0  0  2  0  0  0  0  0  0  0  0  0
   10.1836   -6.9278    0.0000 C   0  0  0  0  0  0  0  0  0  0  0  0
   10.1836   -7.7528    0.0000 O   0  0  0  0  0  0  0  0  0  0  0  0
   10.8981   -6.5153    0.0000 O   0  0  0  0  0  0  0  0  0  0  0  0
    3.7533   -8.9903    0.0000 O   0  0  0  0  0  0  0  0  0  0  0  0
    5.8968   -6.9278    0.0000 C   0  0  0  0  0  0  0  0  0  0  0  0
    4.7698   -9.7047    0.0000 C   0  0  0  0  0  0  0  0  0  0  0  0
    8.0402   -8.1653    0.0000 C   0  0  0  0  0  0  0  0  0  0  0  0
    9.4691   -4.0403    0.0000 C   0  0  0  0  0  0  0  0  0  0  0  0
    8.3421   -4.5633    0.0000 C   0  0  0  0  0  0  0  0  0  0  0  0
    5.5948   -9.7047    0.0000 C   0  0  0  0  0  0  0  0  0  0  0  0
    5.1823  -10.4192    0.0000 O   0  0  0  0  0  0  0  0  0  0  0  0
    7.9296   -5.2778    0.0000 O   0  0  0  0  0  0  0  0  0  0  0  0
    5.8968   -9.4028    0.0000 H   0  0  0  0  0  0  0  0  0  0  0  0
    8.7546   -6.9278    0.0000 H   0  0  0  0  0  0  0  0  0  0  0  0
    7.7382   -8.4672    0.0000 C   0  0  0  0  0  0  0  0  0  0  0  0
  1  2  1  0  0  0  0
  2  3  1  0  0  0  0
  3  4  1  0  0  0  0
  4  5  1  0  0  0  0
  5  6  1  0  0  0  0
  6  7  1  0  0  0  0
  7  8  1  0  0  0  0
  8  9  1  0  0  0  0
  9 10  1  0  0  0  0
 10 11  1  0  0  0  0
 11 12  1  0  0  0  0
 12 13  1  0  0  0  0
 13 14  1  0  0  0  0
 14 15  1  0  0  0  0
 15 16  1  0  0  0  0
 16 17  1  0  0  0  0
 12 17  1  0  0  0  0
 17 18  1  0  0  0  0
  9 18  1  0  0  0  0
 18 19  1  0  0  0  0
 19 20  1  0  0  0  0
 20 21  2  0  0  0  0
  8 21  1  0  0  0  0
 21 22  1  0  0  0  0
  5 22  1  0  0  0  0
  1 22  1  0  0  0  0
 23 24  2  0  0  0  0
 23 25  1  0  0  0  0
  5 23  1  1  0  0  0
 14 26  2  0  0  0  0
 17 27  1  6  0  0  0
 13 28  1  1  0  0  0
  8 29  1  1  0  0  0
  2 30  1  6  0  0  0
  1 31  1  1  0  0  0
 32 33  1  0  0  0  0
 13 32  1  6  0  0  0
  1 34  1  6  0  0  0
 12 35  1  6  0  0  0
 22 36  1  1  0  0  0
  9 37  1  6  0  0  0
M  END
>  <cdx:groupId>
117

>  <cdx:fragmentId>
5

$$$$
