302393.cdx
  Mrv1902 05222410272D          

 29 33  0  0  0  0            999 V2000
    9.7090   -5.1899    0.0000 C   0  0  0  0  0  0  0  0  0  0  0  0
   10.2610   -5.8030    0.0000 C   0  0  0  0  0  0  0  0  0  0  0  0
   10.0061   -6.5876    0.0000 C   0  0  0  0  0  0  0  0  0  0  0  0
    9.1991   -6.7591    0.0000 C   0  0  0  0  0  0  0  0  0  0  0  0
    8.6471   -6.1460    0.0000 C   0  0  0  0  0  0  0  0  0  0  0  0
    8.9020   -5.3614    0.0000 O   0  0  0  0  0  0  0  0  0  0  0  0
    9.9639   -4.4053    0.0000 O   0  0  0  0  0  0  0  0  0  0  0  0
    5.3017   -8.6237    0.0000 C   0  0  0  0  0  0  0  0  0  0  0  0
    4.5872   -9.0362    0.0000 C   0  0  0  0  0  0  0  0  0  0  0  0
    4.5872   -9.8612    0.0000 C   0  0  0  0  0  0  0  0  0  0  0  0
    5.3017  -10.2737    0.0000 C   0  0  0  0  0  0  0  0  0  0  0  0
    6.0161   -9.8612    0.0000 C   0  0  0  0  0  0  0  0  0  0  0  0
    6.7306  -10.2737    0.0000 C   0  0  0  0  0  0  0  0  0  0  0  0
    7.4451   -9.8612    0.0000 C   0  0  0  0  0  0  0  0  0  0  0  0
    7.4451   -9.0362    0.0000 C   0  0  1  0  0  0  0  0  0  0  0  0
    8.1596   -8.6237    0.0000 C   0  0  1  0  0  0  0  0  0  0  0  0
    8.9442   -8.8786    0.0000 C   0  0  0  0  0  0  0  0  0  0  0  0
    9.4291   -8.2112    0.0000 C   0  0  0  0  0  0  0  0  0  0  0  0
    8.9442   -7.5438    0.0000 C   0  0  1  0  0  0  0  0  0  0  0  0
    8.1596   -7.7987    0.0000 C   0  0  1  0  0  0  0  0  0  0  0  0
    7.4451   -7.3862    0.0000 C   0  0  0  0  0  0  0  0  0  0  0  0
    6.7306   -7.7987    0.0000 C   0  0  0  0  0  0  0  0  0  0  0  0
    6.7306   -8.6237    0.0000 C   0  0  2  0  0  0  0  0  0  0  0  0
    6.0161   -9.0362    0.0000 C   0  0  1  0  0  0  0  0  0  0  0  0
    8.2458   -6.9782    0.0000 C   0  0  0  0  0  0  0  0  0  0  0  0
    6.0161   -8.2112    0.0000 C   0  0  0  0  0  0  0  0  0  0  0  0
    8.1596   -9.4487    0.0000 O   0  0  0  0  0  0  0  0  0  0  0  0
    7.4451   -8.2112    0.0000 H   0  0  0  0  0  0  0  0  0  0  0  0
    6.7306   -9.4487    0.0000 H   0  0  0  0  0  0  0  0  0  0  0  0
  1  2  1  0  0  0  0
  2  3  2  0  0  0  0
  3  4  1  0  0  0  0
  4  5  2  0  0  0  0
  5  6  1  0  0  0  0
  1  6  1  0  0  0  0
  1  7  2  0  0  0  0
  8  9  1  0  0  0  0
  9 10  1  0  0  0  0
 10 11  2  0  0  0  0
 11 12  1  0  0  0  0
 12 13  2  0  0  0  0
 13 14  1  0  0  0  0
 14 15  1  0  0  0  0
 15 16  1  0  0  0  0
 16 17  1  0  0  0  0
 17 18  1  0  0  0  0
 18 19  1  0  0  0  0
 19 20  1  0  0  0  0
 16 20  1  0  0  0  0
 20 21  1  0  0  0  0
 21 22  1  0  0  0  0
 22 23  1  0  0  0  0
 15 23  1  0  0  0  0
 23 24  1  0  0  0  0
 12 24  1  0  0  0  0
  8 24  1  0  0  0  0
 20 25  1  1  0  0  0
 24 26  1  1  0  0  0
 16 27  1  1  0  0  0
 19  4  1  1  0  0  0
 15 28  1  1  0  0  0
 23 29  1  6  0  0  0
M  END
>  <cdx:groupId>
93

>  <cdx:fragmentId>
19

$$$$
