302318.cdx
  Mrv1902 05222410252D          

 41 45  0  0  0  0            999 V2000
    5.0522  -11.1966    0.0000 O   0  0  0  0  0  0  0  0  0  0  0  0
   10.0535   -9.1341    0.0000 O   0  0  0  0  0  0  0  0  0  0  0  0
   11.4825   -9.9591    0.0000 O   0  0  0  0  0  0  0  0  0  0  0  0
   12.9114   -9.1341    0.0000 O   0  0  0  0  0  0  0  0  0  0  0  0
   13.6259   -7.8966    0.0000 O   0  0  0  0  0  0  0  0  0  0  0  0
   12.9114   -7.4841    0.0000 C   0  0  0  0  0  0  0  0  0  0  0  0
   12.1969   -7.8966    0.0000 C   0  0  2  0  0  0  0  0  0  0  0  0
   12.1969   -8.7216    0.0000 C   0  0  2  0  0  0  0  0  0  0  0  0
   11.4825   -9.1341    0.0000 C   0  0  1  0  0  0  0  0  0  0  0  0
   10.7680   -8.7216    0.0000 C   0  0  2  0  0  0  0  0  0  0  0  0
   10.7680   -7.8966    0.0000 C   0  0  1  0  0  0  0  0  0  0  0  0
   11.4825   -7.4841    0.0000 O   0  0  0  0  0  0  0  0  0  0  0  0
   10.0535   -7.4841    0.0000 O   0  0  0  0  0  0  0  0  0  0  0  0
    7.9101   -7.8966    0.0000 C   0  0  0  0  0  0  0  0  0  0  0  0
    8.6246   -7.4841    0.0000 C   0  0  0  0  0  0  0  0  0  0  0  0
    9.3391   -7.8966    0.0000 C   0  0  0  0  0  0  0  0  0  0  0  0
    9.3391   -8.7216    0.0000 C   0  0  0  0  0  0  0  0  0  0  0  0
    8.6246   -9.1341    0.0000 C   0  0  0  0  0  0  0  0  0  0  0  0
    7.9101   -8.7216    0.0000 C   0  0  0  0  0  0  0  0  0  0  0  0
    3.6233  -10.3716    0.0000 O   0  0  0  0  0  0  0  0  0  0  0  0
    2.1944  -11.1966    0.0000 O   0  0  0  0  0  0  0  0  0  0  0  0
    0.7654  -10.3716    0.0000 O   0  0  0  0  0  0  0  0  0  0  0  0
    0.7654   -8.7216    0.0000 C   0  0  0  0  0  0  0  0  0  0  0  0
    1.4799   -9.1341    0.0000 C   0  0  1  0  0  0  0  0  0  0  0  0
    1.4799   -9.9591    0.0000 C   0  0  1  0  0  0  0  0  0  0  0  0
    2.1944  -10.3716    0.0000 C   0  0  2  0  0  0  0  0  0  0  0  0
    2.9088   -9.9591    0.0000 C   0  0  2  0  0  0  0  0  0  0  0  0
    2.9088   -9.1341    0.0000 C   0  0  1  0  0  0  0  0  0  0  0  0
    2.1944   -8.7216    0.0000 O   0  0  0  0  0  0  0  0  0  0  0  0
    3.6233   -8.7216    0.0000 O   0  0  0  0  0  0  0  0  0  0  0  0
    6.4812  -11.1966    0.0000 O   0  0  0  0  0  0  0  0  0  0  0  0
    6.4812   -8.7216    0.0000 O   0  0  0  0  0  0  0  0  0  0  0  0
    5.7667   -9.1341    0.0000 C   0  0  0  0  0  0  0  0  0  0  0  0
    5.0522   -8.7216    0.0000 C   0  0  0  0  0  0  0  0  0  0  0  0
    4.3378   -9.1341    0.0000 C   0  0  0  0  0  0  0  0  0  0  0  0
    4.3378   -9.9591    0.0000 C   0  0  0  0  0  0  0  0  0  0  0  0
    5.0522  -10.3716    0.0000 C   0  0  0  0  0  0  0  0  0  0  0  0
    5.7667   -9.9591    0.0000 C   0  0  0  0  0  0  0  0  0  0  0  0
    6.4812  -10.3716    0.0000 C   0  0  0  0  0  0  0  0  0  0  0  0
    7.1956   -9.9591    0.0000 C   0  0  0  0  0  0  0  0  0  0  0  0
    7.1956   -9.1341    0.0000 C   0  0  1  0  0  0  0  0  0  0  0  0
 37  1  1  0  0  0  0
 41 19  1  6  0  0  0
 16 13  1  0  0  0  0
 11 13  1  6  0  0  0
 10  2  1  1  0  0  0
  9  3  1  6  0  0  0
  8  4  1  1  0  0  0
  7  6  1  6  0  0  0
  6  5  1  0  0  0  0
 12  7  1  0  0  0  0
  8  7  1  0  0  0  0
  9  8  1  0  0  0  0
 10  9  1  0  0  0  0
 11 10  1  0  0  0  0
 12 11  1  0  0  0  0
 19 14  2  0  0  0  0
 15 14  1  0  0  0  0
 16 15  2  0  0  0  0
 17 16  1  0  0  0  0
 18 17  2  0  0  0  0
 19 18  1  0  0  0  0
 35 30  1  0  0  0  0
 28 30  1  1  0  0  0
 27 20  1  6  0  0  0
 26 21  1  6  0  0  0
 25 22  1  1  0  0  0
 24 23  1  6  0  0  0
 29 24  1  0  0  0  0
 25 24  1  0  0  0  0
 26 25  1  0  0  0  0
 27 26  1  0  0  0  0
 28 27  1  0  0  0  0
 29 28  1  0  0  0  0
 39 31  2  0  0  0  0
 41 32  1  0  0  0  0
 33 32  1  0  0  0  0
 38 33  2  0  0  0  0
 34 33  1  0  0  0  0
 35 34  2  0  0  0  0
 36 35  1  0  0  0  0
 37 36  2  0  0  0  0
 38 37  1  0  0  0  0
 39 38  1  0  0  0  0
 40 39  1  0  0  0  0
 41 40  1  0  0  0  0
M  END
>  <cdx:fragmentId>
5

$$$$
