302396.cdx
  Mrv1902 05222410272D          

 27 28  0  0  0  0            999 V2000
    7.8068   -4.6268    0.0000 C   0  0  0  0  0  0  0  0  0  0  0  0
    9.2385   -5.4469    0.0000 C   0  0  0  0  0  0  0  0  0  0  0  0
    9.9544   -5.8570    0.0000 C   0  0  0  0  0  0  0  0  0  0  0  0
    7.8180   -7.9268    0.0000 O   0  0  0  0  0  0  0  0  0  0  0  0
    6.3892   -7.9078    0.0000 O   0  0  0  0  0  0  0  0  0  0  0  0
    7.0982   -8.3298    0.0000 C   0  0  2  0  0  0  0  0  0  0  0  0
    7.0872   -9.1547    0.0000 C   0  0  1  0  0  0  0  0  0  0  0  0
    6.3674   -9.5577    0.0000 C   0  0  2  0  0  0  0  0  0  0  0  0
    5.6584   -9.1358    0.0000 C   0  0  1  0  0  0  0  0  0  0  0  0
    5.6693   -8.3108    0.0000 C   0  0  1  0  0  0  0  0  0  0  0  0
    4.9604   -7.8889    0.0000 C   0  0  0  0  0  0  0  0  0  0  0  0
    4.2405   -8.2919    0.0000 O   0  0  0  0  0  0  0  0  0  0  0  0
    4.9385   -9.5388    0.0000 O   0  0  0  0  0  0  0  0  0  0  0  0
    6.3564  -10.3826    0.0000 O   0  0  0  0  0  0  0  0  0  0  0  0
    7.7962   -9.5766    0.0000 O   0  0  0  0  0  0  0  0  0  0  0  0
    8.5198   -4.2118    0.0000 O   0  0  0  0  0  0  0  0  0  0  0  0
    7.0909   -4.2167    0.0000 O   0  0  0  0  0  0  0  0  0  0  0  0
    7.0881   -3.3917    0.0000 C   0  0  0  0  0  0  0  0  0  0  0  0
    9.2173   -7.9215    0.0000 C   0  0  0  0  0  0  0  0  0  0  0  0
    9.2442   -7.0969    0.0000 C   0  0  0  0  0  0  0  0  0  0  0  0
   10.6675   -5.4420    0.0000 O   0  0  0  0  0  0  0  0  0  0  0  0
    7.0993   -6.6917    0.0000 O   0  0  0  0  0  0  0  0  0  0  0  0
    7.0965   -5.8667    0.0000 C   0  0  0  0  0  0  0  0  0  0  0  0
    7.8096   -5.4518    0.0000 C   0  0  0  0  0  0  0  0  0  0  0  0
    8.5255   -5.8618    0.0000 C   0  0  2  0  0  0  0  0  0  0  0  0
    8.5283   -6.6868    0.0000 C   0  0  2  0  0  0  0  0  0  0  0  0
    7.8152   -7.1018    0.0000 C   0  0  2  0  0  0  0  0  0  0  0  0
 26 20  1  1  0  0  0
 20 19  2  0  0  0  0
 25  2  1  1  0  0  0
 27  4  1  6  0  0  0
 24  1  1  0  0  0  0
 27 22  1  0  0  0  0
 23 22  1  0  0  0  0
 24 23  2  0  0  0  0
 25 24  1  0  0  0  0
 26 25  1  0  0  0  0
 27 26  1  0  0  0  0
  2  3  1  0  0  0  0
  3 21  1  0  0  0  0
  5  6  1  0  0  0  0
  6  7  1  0  0  0  0
  7  8  1  0  0  0  0
  8  9  1  0  0  0  0
  9 10  1  0  0  0  0
  5 10  1  0  0  0  0
 11 12  1  0  0  0  0
 10 11  1  1  0  0  0
  9 13  1  6  0  0  0
  8 14  1  1  0  0  0
  7 15  1  6  0  0  0
  6  4  1  1  0  0  0
  1 16  2  0  0  0  0
  1 17  1  0  0  0  0
 17 18  1  0  0  0  0
M  END
>  <cdx:fragmentId>
25

$$$$
