302397.cdx
  Mrv1902 05222410272D          

 14 15  0  0  0  0            999 V2000
    7.9602   -6.7769    0.0000 O   0  0  0  0  0  0  0  0  0  0  0  0
    7.4753   -6.1094    0.0000 C   0  0  0  0  0  0  0  0  0  0  0  0
    6.6907   -6.3644    0.0000 C   0  0  0  0  0  0  0  0  0  0  0  0
    6.6907   -7.1894    0.0000 C   0  0  0  0  0  0  0  0  0  0  0  0
    7.4753   -7.4443    0.0000 C   0  0  0  0  0  0  0  0  0  0  0  0
    5.9762   -7.6019    0.0000 C   0  0  0  0  0  0  0  0  0  0  0  0
    5.2618   -7.1894    0.0000 C   0  0  0  0  0  0  0  0  0  0  0  0
    5.2618   -6.3644    0.0000 C   0  0  0  0  0  0  0  0  0  0  0  0
    5.9762   -5.9519    0.0000 C   0  0  0  0  0  0  0  0  0  0  0  0
    7.7303   -5.3248    0.0000 O   0  0  0  0  0  0  0  0  0  0  0  0
    7.7303   -8.2289    0.0000 C   0  0  0  0  0  0  0  0  0  0  0  0
    8.5372   -8.4005    0.0000 C   0  0  0  0  0  0  0  0  0  0  0  0
    8.7922   -9.1851    0.0000 C   0  0  0  0  0  0  0  0  0  0  0  0
    9.5991   -9.3566    0.0000 C   0  0  0  0  0  0  0  0  0  0  0  0
  1  2  1  0  0  0  0
  2  3  1  0  0  0  0
  3  4  2  0  0  0  0
  4  5  1  0  0  0  0
  1  5  1  0  0  0  0
  6  7  1  0  0  0  0
  7  8  1  0  0  0  0
  8  9  1  0  0  0  0
  9  3  1  0  0  0  0
  6  4  1  0  0  0  0
  2 10  2  0  0  0  0
 11 12  1  0  0  0  0
 12 13  1  0  0  0  0
 13 14  1  0  0  0  0
  5 11  2  0  0  0  0
M  END
>  <cdx:groupId>
45

>  <cdx:fragmentId>
5

$$$$
