302368.cdx
  Mrv1902 05222410272D          

 67 74  0  0  0  0            999 V2000
   10.9974   -5.9968    0.0000 C   0  0  0  0  0  0  0  0  0  0  0  0
   11.7118   -5.5843    0.0000 C   0  0  0  0  0  0  0  0  0  0  0  0
   12.4263   -5.9968    0.0000 C   0  0  0  0  0  0  0  0  0  0  0  0
   12.4263   -6.8218    0.0000 C   0  0  0  0  0  0  0  0  0  0  0  0
   11.7118   -7.2343    0.0000 C   0  0  2  0  0  0  0  0  0  0  0  0
   11.7118   -8.0593    0.0000 C   0  0  0  0  0  0  0  0  0  0  0  0
   10.9974   -8.4718    0.0000 C   0  0  0  0  0  0  0  0  0  0  0  0
   10.2829   -8.0593    0.0000 C   0  0  2  0  0  0  0  0  0  0  0  0
    9.5684   -8.4718    0.0000 C   0  0  1  0  0  0  0  0  0  0  0  0
    9.5684   -9.2968    0.0000 C   0  0  0  0  0  0  0  0  0  0  0  0
    8.8539   -9.7093    0.0000 C   0  0  0  0  0  0  0  0  0  0  0  0
    8.1395   -9.2968    0.0000 C   0  0  1  0  0  0  0  0  0  0  0  0
    7.4250   -9.7093    0.0000 C   0  0  0  0  0  0  0  0  0  0  0  0
    6.7105   -9.2968    0.0000 C   0  0  2  0  0  0  0  0  0  0  0  0
    6.7105   -8.4718    0.0000 C   0  0  0  0  0  0  0  0  0  0  0  0
    7.4250   -8.0593    0.0000 C   0  0  0  0  0  0  0  0  0  0  0  0
    8.1395   -8.4718    0.0000 C   0  0  1  0  0  0  0  0  0  0  0  0
    8.8539   -8.0593    0.0000 C   0  0  0  0  0  0  0  0  0  0  0  0
    8.8539   -7.2343    0.0000 C   0  0  0  0  0  0  0  0  0  0  0  0
    9.5684   -6.8218    0.0000 C   0  0  0  0  0  0  0  0  0  0  0  0
   10.2829   -7.2343    0.0000 C   0  0  0  0  0  0  0  0  0  0  0  0
   10.9974   -6.8218    0.0000 C   0  0  2  0  0  0  0  0  0  0  0  0
   12.4263   -7.6468    0.0000 C   0  0  0  0  0  0  0  0  0  0  0  0
   12.4263   -8.4718    0.0000 O   0  0  0  0  0  0  0  0  0  0  0  0
   13.1408   -7.2343    0.0000 O   0  0  0  0  0  0  0  0  0  0  0  0
    8.1395   -7.6468    0.0000 C   0  0  0  0  0  0  0  0  0  0  0  0
    7.8375  -10.4237    0.0000 C   0  0  0  0  0  0  0  0  0  0  0  0
    7.0125  -10.4237    0.0000 C   0  0  0  0  0  0  0  0  0  0  0  0
   10.2829   -8.8843    0.0000 C   0  0  0  0  0  0  0  0  0  0  0  0
   11.2993   -4.8698    0.0000 C   0  0  0  0  0  0  0  0  0  0  0  0
   12.1243   -4.8698    0.0000 C   0  0  0  0  0  0  0  0  0  0  0  0
    5.9961   -9.7093    0.0000 O   0  0  0  0  0  0  0  0  0  0  0  0
    4.5671   -9.7093    0.0000 O   0  0  0  0  0  0  0  0  0  0  0  0
    5.2816   -9.2968    0.0000 C   0  0  2  0  0  0  0  0  0  0  0  0
    5.2816   -8.4718    0.0000 C   0  0  1  0  0  0  0  0  0  0  0  0
    4.5671   -8.0593    0.0000 C   0  0  2  0  0  0  0  0  0  0  0  0
    3.8526   -8.4718    0.0000 C   0  0  1  0  0  0  0  0  0  0  0  0
    3.8526   -9.2968    0.0000 C   0  0  1  0  0  0  0  0  0  0  0  0
    3.1382   -9.7093    0.0000 C   0  0  0  0  0  0  0  0  0  0  0  0
    2.4237   -9.2968    0.0000 O   0  0  0  0  0  0  0  0  0  0  0  0
    3.1382   -8.0593    0.0000 O   0  0  0  0  0  0  0  0  0  0  0  0
    4.5671   -7.2343    0.0000 O   0  0  0  0  0  0  0  0  0  0  0  0
    5.9961   -8.0593    0.0000 O   0  0  0  0  0  0  0  0  0  0  0  0
    6.7105   -6.3268    0.0000 O   0  0  0  0  0  0  0  0  0  0  0  0
    5.9961   -6.7393    0.0000 C   0  0  2  0  0  0  0  0  0  0  0  0
    5.2816   -6.3268    0.0000 C   0  0  1  0  0  0  0  0  0  0  0  0
    5.2816   -5.5018    0.0000 C   0  0  2  0  0  0  0  0  0  0  0  0
    5.9961   -5.0893    0.0000 C   0  0  1  0  0  0  0  0  0  0  0  0
    6.7105   -5.5018    0.0000 C   0  0  1  0  0  0  0  0  0  0  0  0
    4.5671   -6.7393    0.0000 O   0  0  0  0  0  0  0  0  0  0  0  0
    3.8526   -5.5018    0.0000 O   0  0  0  0  0  0  0  0  0  0  0  0
    3.8526   -6.3268    0.0000 C   0  0  2  0  0  0  0  0  0  0  0  0
    3.1382   -6.7393    0.0000 C   0  0  1  0  0  0  0  0  0  0  0  0
    2.4237   -6.3268    0.0000 C   0  0  1  0  0  0  0  0  0  0  0  0
    2.4237   -5.5018    0.0000 C   0  0  2  0  0  0  0  0  0  0  0  0
    3.1382   -5.0893    0.0000 C   0  0  2  0  0  0  0  0  0  0  0  0
    3.1382   -4.2643    0.0000 C   0  0  0  0  0  0  0  0  0  0  0  0
    1.7092   -5.0893    0.0000 O   0  0  0  0  0  0  0  0  0  0  0  0
    1.7092   -6.7393    0.0000 O   0  0  0  0  0  0  0  0  0  0  0  0
    3.1382   -7.5643    0.0000 O   0  0  0  0  0  0  0  0  0  0  0  0
    7.4250   -5.0893    0.0000 C   0  0  0  0  0  0  0  0  0  0  0  0
    8.1395   -5.5018    0.0000 O   0  0  0  0  0  0  0  0  0  0  0  0
    5.9961   -4.2643    0.0000 O   0  0  0  0  0  0  0  0  0  0  0  0
    4.5671   -5.0893    0.0000 O   0  0  0  0  0  0  0  0  0  0  0  0
    8.1395  -10.1218    0.0000 H   0  0  0  0  0  0  0  0  0  0  0  0
   10.9974   -7.6468    0.0000 H   0  0  0  0  0  0  0  0  0  0  0  0
    9.7819   -9.2686    0.0000 C   0  0  0  0  0  0  0  0  0  0  0  0
  1  2  1  0  0  0  0
  2  3  1  0  0  0  0
  3  4  1  0  0  0  0
  4  5  1  0  0  0  0
  5  6  1  0  0  0  0
  6  7  1  0  0  0  0
  7  8  1  0  0  0  0
  8  9  1  0  0  0  0
  9 10  1  0  0  0  0
 10 11  1  0  0  0  0
 11 12  1  0  0  0  0
 12 13  1  0  0  0  0
 13 14  1  0  0  0  0
 14 15  1  0  0  0  0
 15 16  1  0  0  0  0
 16 17  1  0  0  0  0
 12 17  1  0  0  0  0
 17 18  1  0  0  0  0
  9 18  1  0  0  0  0
 18 19  1  0  0  0  0
 19 20  1  0  0  0  0
 20 21  2  0  0  0  0
  8 21  1  0  0  0  0
 21 22  1  0  0  0  0
  5 22  1  0  0  0  0
  1 22  1  0  0  0  0
 23 24  2  0  0  0  0
 23 25  1  0  0  0  0
  5 23  1  1  0  0  0
 17 26  1  6  0  0  0
 13 27  1  0  0  0  0
 13 28  1  0  0  0  0
  8 29  1  1  0  0  0
  2 30  1  0  0  0  0
  2 31  1  0  0  0  0
 33 34  1  0  0  0  0
 34 35  1  0  0  0  0
 35 36  1  0  0  0  0
 36 37  1  0  0  0  0
 37 38  1  0  0  0  0
 33 38  1  0  0  0  0
 39 40  1  0  0  0  0
 38 39  1  6  0  0  0
 37 41  1  1  0  0  0
 36 42  1  6  0  0  0
 44 45  1  0  0  0  0
 45 46  1  0  0  0  0
 46 47  1  0  0  0  0
 47 48  1  0  0  0  0
 48 49  1  0  0  0  0
 44 49  1  0  0  0  0
 51 52  1  0  0  0  0
 52 53  1  0  0  0  0
 53 54  1  0  0  0  0
 54 55  1  0  0  0  0
 55 56  1  0  0  0  0
 51 56  1  0  0  0  0
 56 57  1  6  0  0  0
 55 58  1  1  0  0  0
 54 59  1  6  0  0  0
 53 60  1  6  0  0  0
 52 50  1  1  0  0  0
 46 50  1  6  0  0  0
 61 62  1  0  0  0  0
 49 61  1  1  0  0  0
 48 63  1  6  0  0  0
 47 64  1  1  0  0  0
 45 43  1  1  0  0  0
 35 43  1  1  0  0  0
 34 32  1  6  0  0  0
 14 32  1  1  0  0  0
 12 65  1  6  0  0  0
 22 66  1  1  0  0  0
  9 67  1  6  0  0  0
M  END
>  <cdx:groupId>
210

>  <cdx:fragmentId>
107

$$$$
