302316.cdx
  Mrv1902 05222410212D          

 38 42  0  0  0  0            999 V2000
    8.8539   -5.6866    0.0000 C   0  0  1  0  0  0  0  0  0  0  0  0
    9.5684   -5.2741    0.0000 C   0  0  1  0  0  0  0  0  0  0  0  0
   10.2829   -5.6866    0.0000 C   0  0  0  0  0  0  0  0  0  0  0  0
   10.2829   -6.5116    0.0000 C   0  0  0  0  0  0  0  0  0  0  0  0
    9.5684   -6.9241    0.0000 C   0  0  2  0  0  0  0  0  0  0  0  0
    9.5684   -7.7491    0.0000 C   0  0  0  0  0  0  0  0  0  0  0  0
    8.8539   -8.1616    0.0000 C   0  0  0  0  0  0  0  0  0  0  0  0
    8.1395   -7.7491    0.0000 C   0  0  1  0  0  0  0  0  0  0  0  0
    7.4250   -8.1616    0.0000 C   0  0  2  0  0  0  0  0  0  0  0  0
    7.4250   -8.9866    0.0000 C   0  0  2  0  0  0  0  0  0  0  0  0
    6.7105   -9.3991    0.0000 C   0  0  0  0  0  0  0  0  0  0  0  0
    5.9961   -8.9866    0.0000 C   0  0  0  0  0  0  0  0  0  0  0  0
    5.2816   -9.3991    0.0000 C   0  0  0  0  0  0  0  0  0  0  0  0
    4.5671   -8.9866    0.0000 C   0  0  1  0  0  0  0  0  0  0  0  0
    4.5671   -8.1616    0.0000 C   0  0  1  0  0  0  0  0  0  0  0  0
    5.2816   -7.7491    0.0000 C   0  0  0  0  0  0  0  0  0  0  0  0
    5.9961   -8.1616    0.0000 C   0  0  2  0  0  0  0  0  0  0  0  0
    6.7105   -7.7491    0.0000 C   0  0  1  0  0  0  0  0  0  0  0  0
    6.7105   -6.9241    0.0000 C   0  0  0  0  0  0  0  0  0  0  0  0
    7.4250   -6.5116    0.0000 C   0  0  0  0  0  0  0  0  0  0  0  0
    8.1395   -6.9241    0.0000 C   0  0  0  0  0  0  0  0  0  0  0  0
    8.8539   -6.5116    0.0000 C   0  0  1  0  0  0  0  0  0  0  0  0
   10.2829   -7.3366    0.0000 C   0  0  0  0  0  0  0  0  0  0  0  0
   10.2829   -8.1616    0.0000 O   0  0  0  0  0  0  0  0  0  0  0  0
   10.9974   -6.9241    0.0000 O   0  0  0  0  0  0  0  0  0  0  0  0
    5.9961   -7.3366    0.0000 C   0  0  0  0  0  0  0  0  0  0  0  0
    5.6941  -10.1135    0.0000 C   0  0  0  0  0  0  0  0  0  0  0  0
    4.8691  -10.1135    0.0000 C   0  0  0  0  0  0  0  0  0  0  0  0
    8.1395   -8.5741    0.0000 C   0  0  0  0  0  0  0  0  0  0  0  0
    9.5684   -4.4491    0.0000 C   0  0  0  0  0  0  0  0  0  0  0  0
    8.4414   -4.9721    0.0000 C   0  0  0  0  0  0  0  0  0  0  0  0
    3.8526   -7.7491    0.0000 O   0  0  0  0  0  0  0  0  0  0  0  0
    3.8526   -9.3991    0.0000 O   0  0  0  0  0  0  0  0  0  0  0  0
    8.1395   -9.3991    0.0000 O   0  0  0  0  0  0  0  0  0  0  0  0
    8.0289   -5.6866    0.0000 O   0  0  0  0  0  0  0  0  0  0  0  0
    8.1395   -6.0991    0.0000 H   0  0  0  0  0  0  0  0  0  0  0  0
    7.4250   -7.3366    0.0000 C   0  0  0  0  0  0  0  0  0  0  0  0
    6.7105   -8.5741    0.0000 H   0  0  0  0  0  0  0  0  0  0  0  0
  1  2  1  0  0  0  0
  2  3  1  0  0  0  0
  3  4  1  0  0  0  0
  4  5  1  0  0  0  0
  5  6  1  0  0  0  0
  6  7  1  0  0  0  0
  7  8  1  0  0  0  0
  8  9  1  0  0  0  0
  9 10  1  0  0  0  0
 10 11  1  0  0  0  0
 11 12  1  0  0  0  0
 12 13  1  0  0  0  0
 13 14  1  0  0  0  0
 14 15  1  0  0  0  0
 15 16  1  0  0  0  0
 16 17  1  0  0  0  0
 12 17  1  0  0  0  0
 17 18  1  0  0  0  0
  9 18  1  0  0  0  0
 18 19  1  0  0  0  0
 19 20  1  0  0  0  0
 20 21  2  0  0  0  0
  8 21  1  0  0  0  0
 21 22  1  0  0  0  0
  5 22  1  0  0  0  0
  1 22  1  0  0  0  0
 23 24  2  0  0  0  0
 23 25  1  0  0  0  0
  5 23  1  1  0  0  0
 17 26  1  1  0  0  0
 13 27  1  0  0  0  0
 13 28  1  0  0  0  0
  8 29  1  6  0  0  0
  2 30  1  6  0  0  0
  1 31  1  1  0  0  0
 15 32  1  6  0  0  0
 14 33  1  6  0  0  0
 10 34  1  1  0  0  0
  1 35  1  6  0  0  0
 22 36  1  6  0  0  0
  9 37  1  1  0  0  0
 18 38  1  6  0  0  0
M  END
>  <cdx:fragmentId>
5

$$$$
