30234.cdx
  Mrv1902 05222410222D          

 16 16  0  0  0  0            999 V2000
    8.3377   -4.6702    0.0000 C   0  0  0  0  0  0  0  0  0  0  0  0
    7.6232   -5.0827    0.0000 C   0  0  0  0  0  0  0  0  0  0  0  0
    6.9088   -4.6702    0.0000 C   0  0  0  0  0  0  0  0  0  0  0  0
    6.1943   -5.0827    0.0000 C   0  0  0  0  0  0  0  0  0  0  0  0
    5.4798   -4.6702    0.0000 C   0  0  0  0  0  0  0  0  0  0  0  0
    5.4798   -3.8452    0.0000 C   0  0  0  0  0  0  0  0  0  0  0  0
    6.1943   -3.4327    0.0000 C   0  0  0  0  0  0  0  0  0  0  0  0
    6.9088   -3.8452    0.0000 C   0  0  0  0  0  0  0  0  0  0  0  0
    7.6232   -3.4327    0.0000 C   0  0  0  0  0  0  0  0  0  0  0  0
    8.3377   -3.8452    0.0000 C   0  0  0  0  0  0  0  0  0  0  0  0
    6.1943   -5.9077    0.0000 C   0  0  0  0  0  0  0  0  0  0  0  0
    6.9088   -6.3202    0.0000 C   0  0  0  0  0  0  0  0  0  0  0  0
    5.4798   -6.3202    0.0000 C   0  0  0  0  0  0  0  0  0  0  0  0
    6.1943   -2.6077    0.0000 C   0  0  0  0  0  0  0  0  0  0  0  0
    8.7502   -5.3847    0.0000 C   0  0  0  0  0  0  0  0  0  0  0  0
    9.1627   -4.6702    0.0000 O   0  0  0  0  0  0  0  0  0  0  0  0
  1  2  1  0  0  0  0
  2  3  2  0  0  0  0
  3  4  1  0  0  0  0
  4  5  1  0  0  0  0
  5  6  1  0  0  0  0
  6  7  1  0  0  0  0
  7  8  2  0  0  0  0
  8  9  1  0  0  0  0
  9 10  1  0  0  0  0
  1 10  1  0  0  0  0
 11 12  1  0  0  0  0
 11 13  1  0  0  0  0
  4 11  1  0  0  0  0
  7 14  1  0  0  0  0
  1 15  1  0  0  0  0
  1 16  1  0  0  0  0
M  END
>  <cdx:fragmentId>
30094

$$$$
