302372.cdx
  Mrv1902 05222410202D          

 55 61  0  0  0  0            999 V2000
   10.2829   -5.7493    0.0000 C   0  0  0  0  0  0  0  0  0  0  0  0
   10.9974   -5.3368    0.0000 C   0  0  0  0  0  0  0  0  0  0  0  0
   11.7118   -5.7493    0.0000 C   0  0  0  0  0  0  0  0  0  0  0  0
   11.7118   -6.5743    0.0000 C   0  0  0  0  0  0  0  0  0  0  0  0
   10.9974   -6.9868    0.0000 C   0  0  2  0  0  0  0  0  0  0  0  0
   10.9974   -7.8118    0.0000 C   0  0  0  0  0  0  0  0  0  0  0  0
   10.2829   -8.2243    0.0000 C   0  0  0  0  0  0  0  0  0  0  0  0
    9.5684   -7.8118    0.0000 C   0  0  2  0  0  0  0  0  0  0  0  0
    8.8539   -8.2243    0.0000 C   0  0  1  0  0  0  0  0  0  0  0  0
    8.8539   -9.0493    0.0000 C   0  0  0  0  0  0  0  0  0  0  0  0
    8.1395   -9.4618    0.0000 C   0  0  0  0  0  0  0  0  0  0  0  0
    7.4250   -9.0493    0.0000 C   0  0  1  0  0  0  0  0  0  0  0  0
    6.7105   -9.4618    0.0000 C   0  0  0  0  0  0  0  0  0  0  0  0
    5.9961   -9.0493    0.0000 C   0  0  2  0  0  0  0  0  0  0  0  0
    5.9961   -8.2243    0.0000 C   0  0  0  0  0  0  0  0  0  0  0  0
    6.7105   -7.8118    0.0000 C   0  0  0  0  0  0  0  0  0  0  0  0
    7.4250   -8.2243    0.0000 C   0  0  1  0  0  0  0  0  0  0  0  0
    8.1395   -7.8118    0.0000 C   0  0  0  0  0  0  0  0  0  0  0  0
    8.1395   -6.9868    0.0000 C   0  0  0  0  0  0  0  0  0  0  0  0
    8.8539   -6.5743    0.0000 C   0  0  0  0  0  0  0  0  0  0  0  0
    9.5684   -6.9868    0.0000 C   0  0  0  0  0  0  0  0  0  0  0  0
   10.2829   -6.5743    0.0000 C   0  0  2  0  0  0  0  0  0  0  0  0
   11.7118   -7.3993    0.0000 C   0  0  0  0  0  0  0  0  0  0  0  0
   11.7118   -8.2243    0.0000 O   0  0  0  0  0  0  0  0  0  0  0  0
   12.4263   -6.9868    0.0000 O   0  0  0  0  0  0  0  0  0  0  0  0
    7.4250   -7.3993    0.0000 C   0  0  0  0  0  0  0  0  0  0  0  0
    7.1230  -10.1762    0.0000 C   0  0  0  0  0  0  0  0  0  0  0  0
    6.2980  -10.1762    0.0000 C   0  0  0  0  0  0  0  0  0  0  0  0
    9.5684   -8.6368    0.0000 C   0  0  0  0  0  0  0  0  0  0  0  0
   10.5849   -4.6223    0.0000 C   0  0  0  0  0  0  0  0  0  0  0  0
   11.4099   -4.6223    0.0000 C   0  0  0  0  0  0  0  0  0  0  0  0
    5.2816   -9.4618    0.0000 O   0  0  0  0  0  0  0  0  0  0  0  0
    3.8526   -9.4618    0.0000 O   0  0  0  0  0  0  0  0  0  0  0  0
    4.5671   -9.0493    0.0000 C   0  0  2  0  0  0  0  0  0  0  0  0
    4.5671   -8.2243    0.0000 C   0  0  1  0  0  0  0  0  0  0  0  0
    3.8526   -7.8118    0.0000 C   0  0  2  0  0  0  0  0  0  0  0  0
    3.1382   -8.2243    0.0000 C   0  0  2  0  0  0  0  0  0  0  0  0
    3.1382   -9.0493    0.0000 C   0  0  0  0  0  0  0  0  0  0  0  0
    5.2816   -7.8118    0.0000 O   0  0  0  0  0  0  0  0  0  0  0  0
    4.5671   -6.5743    0.0000 O   0  0  0  0  0  0  0  0  0  0  0  0
    5.2816   -6.9868    0.0000 C   0  0  2  0  0  0  0  0  0  0  0  0
    5.9961   -6.5743    0.0000 C   0  0  1  0  0  0  0  0  0  0  0  0
    5.9961   -5.7493    0.0000 C   0  0  2  0  0  0  0  0  0  0  0  0
    5.2816   -5.3368    0.0000 C   0  0  1  0  0  0  0  0  0  0  0  0
    4.5671   -5.7493    0.0000 C   0  0  1  0  0  0  0  0  0  0  0  0
    3.8526   -5.3368    0.0000 C   0  0  0  0  0  0  0  0  0  0  0  0
    3.1382   -5.7493    0.0000 O   0  0  0  0  0  0  0  0  0  0  0  0
    5.2816   -4.5118    0.0000 O   0  0  0  0  0  0  0  0  0  0  0  0
    6.7105   -5.3368    0.0000 O   0  0  0  0  0  0  0  0  0  0  0  0
    6.7105   -6.9868    0.0000 O   0  0  0  0  0  0  0  0  0  0  0  0
    2.4237   -7.8118    0.0000 O   0  0  0  0  0  0  0  0  0  0  0  0
    3.8526   -6.9868    0.0000 O   0  0  0  0  0  0  0  0  0  0  0  0
    7.4250   -9.8743    0.0000 H   0  0  0  0  0  0  0  0  0  0  0  0
   10.2829   -7.3993    0.0000 H   0  0  0  0  0  0  0  0  0  0  0  0
    8.8539   -7.3993    0.0000 C   0  0  0  0  0  0  0  0  0  0  0  0
  1  2  1  0  0  0  0
  2  3  1  0  0  0  0
  3  4  1  0  0  0  0
  4  5  1  0  0  0  0
  5  6  1  0  0  0  0
  6  7  1  0  0  0  0
  7  8  1  0  0  0  0
  8  9  1  0  0  0  0
  9 10  1  0  0  0  0
 10 11  1  0  0  0  0
 11 12  1  0  0  0  0
 12 13  1  0  0  0  0
 13 14  1  0  0  0  0
 14 15  1  0  0  0  0
 15 16  1  0  0  0  0
 16 17  1  0  0  0  0
 12 17  1  0  0  0  0
 17 18  1  0  0  0  0
  9 18  1  0  0  0  0
 18 19  1  0  0  0  0
 19 20  1  0  0  0  0
 20 21  2  0  0  0  0
  8 21  1  0  0  0  0
 21 22  1  0  0  0  0
  5 22  1  0  0  0  0
  1 22  1  0  0  0  0
 23 24  2  0  0  0  0
 23 25  1  0  0  0  0
  5 23  1  1  0  0  0
 17 26  1  6  0  0  0
 13 27  1  0  0  0  0
 13 28  1  0  0  0  0
  8 29  1  1  0  0  0
  2 30  1  0  0  0  0
  2 31  1  0  0  0  0
 33 34  1  0  0  0  0
 34 35  1  0  0  0  0
 35 36  1  0  0  0  0
 36 37  1  0  0  0  0
 37 38  1  0  0  0  0
 33 38  1  0  0  0  0
 40 41  1  0  0  0  0
 41 42  1  0  0  0  0
 42 43  1  0  0  0  0
 43 44  1  0  0  0  0
 44 45  1  0  0  0  0
 40 45  1  0  0  0  0
 46 47  1  0  0  0  0
 45 46  1  6  0  0  0
 44 48  1  1  0  0  0
 43 49  1  6  0  0  0
 42 50  1  1  0  0  0
 41 39  1  6  0  0  0
 35 39  1  1  0  0  0
 37 51  1  6  0  0  0
 36 52  1  6  0  0  0
 34 32  1  6  0  0  0
 14 32  1  1  0  0  0
 12 53  1  6  0  0  0
 22 54  1  1  0  0  0
  9 55  1  6  0  0  0
M  END
>  <cdx:groupId>
173

>  <cdx:fragmentId>
5

$$$$
