302398.cdx
  Mrv1902 05222410202D          

 39 43  0  0  0  0            999 V2000
   10.2393   -5.2712    0.0000 C   0  0  0  0  0  0  0  0  0  0  0  0
   10.2393   -6.0962    0.0000 C   0  0  0  0  0  0  0  0  0  0  0  0
    9.5248   -6.5087    0.0000 C   0  0  0  0  0  0  0  0  0  0  0  0
    8.8103   -6.0962    0.0000 C   0  0  0  0  0  0  0  0  0  0  0  0
    8.8103   -5.2712    0.0000 C   0  0  0  0  0  0  0  0  0  0  0  0
    9.5248   -4.8587    0.0000 C   0  0  0  0  0  0  0  0  0  0  0  0
   10.9538   -4.8587    0.0000 O   0  0  0  0  0  0  0  0  0  0  0  0
    8.0959   -6.5087    0.0000 C   0  0  0  0  0  0  0  0  0  0  0  0
    8.0959   -7.3337    0.0000 C   0  0  0  0  0  0  0  0  0  0  0  0
    8.8103   -7.7462    0.0000 C   0  0  0  0  0  0  0  0  0  0  0  0
    8.8103   -8.5712    0.0000 C   0  0  0  0  0  0  0  0  0  0  0  0
    8.0959   -8.9837    0.0000 C   0  0  0  0  0  0  0  0  0  0  0  0
    7.3814   -8.5712    0.0000 C   0  0  0  0  0  0  0  0  0  0  0  0
    7.3814   -7.7462    0.0000 C   0  0  0  0  0  0  0  0  0  0  0  0
    8.0959   -9.8087    0.0000 O   0  0  0  0  0  0  0  0  0  0  0  0
    6.9527   -5.8487    0.0000 C   0  0  0  0  0  0  0  0  0  0  0  0
    6.2383   -6.2612    0.0000 C   0  0  0  0  0  0  0  0  0  0  0  0
    5.5238   -5.8487    0.0000 C   0  0  0  0  0  0  0  0  0  0  0  0
    5.5238   -5.0237    0.0000 C   0  0  0  0  0  0  0  0  0  0  0  0
    6.2383   -4.6112    0.0000 C   0  0  0  0  0  0  0  0  0  0  0  0
    6.9527   -5.0237    0.0000 C   0  0  0  0  0  0  0  0  0  0  0  0
    6.2383   -7.0862    0.0000 C   0  0  0  0  0  0  0  0  0  0  0  0
    6.2383   -7.9112    0.0000 C   0  0  0  0  0  0  0  0  0  0  0  0
    6.2383   -8.7362    0.0000 C   0  0  0  0  0  0  0  0  0  0  0  0
    6.9527   -9.1487    0.0000 C   0  0  0  0  0  0  0  0  0  0  0  0
    6.9527   -9.9737    0.0000 C   0  0  0  0  0  0  0  0  0  0  0  0
    6.2383  -10.3862    0.0000 C   0  0  0  0  0  0  0  0  0  0  0  0
    5.5238   -9.9737    0.0000 C   0  0  0  0  0  0  0  0  0  0  0  0
    5.5238   -9.1487    0.0000 C   0  0  0  0  0  0  0  0  0  0  0  0
    6.2383  -11.2112    0.0000 O   0  0  0  0  0  0  0  0  0  0  0  0
    7.6672   -4.6112    0.0000 C   0  0  0  0  0  0  0  0  0  0  0  0
    7.6672   -3.7862    0.0000 C   0  0  0  0  0  0  0  0  0  0  0  0
    8.3817   -3.3737    0.0000 C   0  0  0  0  0  0  0  0  0  0  0  0
    9.0961   -3.7862    0.0000 C   0  0  0  0  0  0  0  0  0  0  0  0
    9.0961   -4.6112    0.0000 C   0  0  0  0  0  0  0  0  0  0  0  0
    8.3817   -5.0237    0.0000 C   0  0  0  0  0  0  0  0  0  0  0  0
    9.8106   -3.3737    0.0000 O   0  0  0  0  0  0  0  0  0  0  0  0
    4.8093   -6.2612    0.0000 C   0  0  0  0  0  0  0  0  0  0  0  0
    4.0948   -5.8487    0.0000 O   0  0  0  0  0  0  0  0  0  0  0  0
  1  2  1  0  0  0  0
  2  3  2  0  0  0  0
  3  4  1  0  0  0  0
  4  5  1  0  0  0  0
  5  6  2  0  0  0  0
  1  6  1  0  0  0  0
  1  7  2  0  0  0  0
  9 10  1  0  0  0  0
 10 11  2  0  0  0  0
 11 12  1  0  0  0  0
 12 13  2  0  0  0  0
 13 14  1  0  0  0  0
  9 14  2  0  0  0  0
 12 15  1  0  0  0  0
  8  9  1  0  0  0  0
 16 17  1  0  0  0  0
 17 18  2  0  0  0  0
 18 19  1  0  0  0  0
 19 20  2  0  0  0  0
 20 21  1  0  0  0  0
 16 21  2  0  0  0  0
 22 23  3  0  0  0  0
 24 25  1  0  0  0  0
 25 26  2  0  0  0  0
 26 27  1  0  0  0  0
 27 28  2  0  0  0  0
 28 29  1  0  0  0  0
 24 29  2  0  0  0  0
 27 30  1  0  0  0  0
 23 24  1  0  0  0  0
 17 22  1  0  0  0  0
 31 32  1  0  0  0  0
 32 33  2  0  0  0  0
 33 34  1  0  0  0  0
 34 35  2  0  0  0  0
 35 36  1  0  0  0  0
 31 36  2  0  0  0  0
 34 37  1  0  0  0  0
 21 31  1  0  0  0  0
 38 39  1  0  0  0  0
 18 38  1  0  0  0  0
  8 16  1  0  0  0  0
  4  8  2  0  0  0  0
M  END
>  <cdx:groupId>
123

>  <cdx:fragmentId>
51

$$$$
