302317.cdx
  Mrv1902 05222410212D          

 33 36  0  0  0  0            999 V2000
    7.1180   -9.5064    0.0000 C   0  0  0  0  0  0  0  0  0  0  0  0
    7.8324   -9.0939    0.0000 C   0  0  0  0  0  0  0  0  0  0  0  0
    7.8324   -8.2689    0.0000 C   0  0  0  0  0  0  0  0  0  0  0  0
    7.1180   -7.8564    0.0000 C   0  0  0  0  0  0  0  0  0  0  0  0
    6.4035   -8.2689    0.0000 C   0  0  0  0  0  0  0  0  0  0  0  0
    5.6890   -7.8564    0.0000 C   0  0  0  0  0  0  0  0  0  0  0  0
    4.9745   -8.2689    0.0000 C   0  0  0  0  0  0  0  0  0  0  0  0
    4.9745   -9.0939    0.0000 C   0  0  0  0  0  0  0  0  0  0  0  0
    5.6890   -9.5064    0.0000 C   0  0  0  0  0  0  0  0  0  0  0  0
    6.4035   -9.0939    0.0000 C   0  0  0  0  0  0  0  0  0  0  0  0
    8.5469   -9.5064    0.0000 C   0  0  0  0  0  0  0  0  0  0  0  0
    8.5469  -10.3314    0.0000 O   0  0  0  0  0  0  0  0  0  0  0  0
    9.2614   -9.0939    0.0000 O   0  0  0  0  0  0  0  0  0  0  0  0
    8.5469   -7.8564    0.0000 C   0  0  0  0  0  0  0  0  0  0  0  0
    9.2614   -8.2689    0.0000 C   0  0  0  0  0  0  0  0  0  0  0  0
    9.9758   -7.8564    0.0000 C   0  0  0  0  0  0  0  0  0  0  0  0
    9.9758   -7.0314    0.0000 C   0  0  0  0  0  0  0  0  0  0  0  0
   10.6903   -8.2689    0.0000 C   0  0  0  0  0  0  0  0  0  0  0  0
    7.1180  -10.3314    0.0000 O   0  0  0  0  0  0  0  0  0  0  0  0
    7.1180   -7.0314    0.0000 O   0  0  0  0  0  0  0  0  0  0  0  0
    6.4035   -5.7939    0.0000 C   0  0  0  0  0  0  0  0  0  0  0  0
    6.4035   -6.6189    0.0000 C   0  0  0  0  0  0  0  0  0  0  0  0
    5.6890   -7.0314    0.0000 C   0  0  0  0  0  0  0  0  0  0  0  0
    4.9745   -6.6189    0.0000 C   0  0  0  0  0  0  0  0  0  0  0  0
    4.9745   -5.7939    0.0000 C   0  0  0  0  0  0  0  0  0  0  0  0
    4.2601   -5.3814    0.0000 C   0  0  0  0  0  0  0  0  0  0  0  0
    4.2601   -4.5564    0.0000 C   0  0  0  0  0  0  0  0  0  0  0  0
    4.9745   -4.1439    0.0000 C   0  0  0  0  0  0  0  0  0  0  0  0
    5.6890   -4.5564    0.0000 C   0  0  0  0  0  0  0  0  0  0  0  0
    5.6890   -5.3814    0.0000 C   0  0  0  0  0  0  0  0  0  0  0  0
    4.2601   -7.0314    0.0000 O   0  0  0  0  0  0  0  0  0  0  0  0
    7.1180   -5.3814    0.0000 O   0  0  0  0  0  0  0  0  0  0  0  0
    9.9758   -9.5064    0.0000 C   0  0  0  0  0  0  0  0  0  0  0  0
  1  2  1  0  0  0  0
  2  3  2  0  0  0  0
  3  4  1  0  0  0  0
  4  5  2  0  0  0  0
  5  6  1  0  0  0  0
  6  7  2  0  0  0  0
  7  8  1  0  0  0  0
  8  9  2  0  0  0  0
  9 10  1  0  0  0  0
  1 10  2  0  0  0  0
  5 10  1  0  0  0  0
 11 12  2  0  0  0  0
 11 13  1  0  0  0  0
  2 11  1  0  0  0  0
 14 15  1  0  0  0  0
 15 16  2  0  0  0  0
 16 17  1  0  0  0  0
 16 18  1  0  0  0  0
  3 14  1  0  0  0  0
  1 19  1  0  0  0  0
 21 22  1  0  0  0  0
 22 23  2  0  0  0  0
 23 24  1  0  0  0  0
 24 25  1  0  0  0  0
 25 26  1  0  0  0  0
 26 27  2  0  0  0  0
 27 28  1  0  0  0  0
 28 29  2  0  0  0  0
 29 30  1  0  0  0  0
 21 30  1  0  0  0  0
 25 30  2  0  0  0  0
 24 31  2  0  0  0  0
 21 32  2  0  0  0  0
 20 22  1  0  0  0  0
  4 20  1  0  0  0  0
 13 33  1  0  0  0  0
M  END
>  <cdx:groupId>
108

>  <cdx:fragmentId>
9

$$$$
