302300.cdx
  Mrv1902 05222410202D          

 21 22  0  0  0  0            999 V2000
    5.7603   -6.6411    0.0000 O   0  0  0  0  0  0  0  0  0  0  0  0
    5.0469   -7.0554    0.0000 C   0  0  1  0  0  0  0  0  0  0  0  0
    5.0490   -7.8804    0.0000 C   0  0  2  0  0  0  0  0  0  0  0  0
    5.7645   -8.2911    0.0000 C   0  0  1  0  0  0  0  0  0  0  0  0
    6.4780   -7.8767    0.0000 C   0  0  2  0  0  0  0  0  0  0  0  0
    6.4758   -7.0517    0.0000 C   0  0  2  0  0  0  0  0  0  0  0  0
    4.3356   -8.2947    0.0000 O   0  0  0  0  0  0  0  0  0  0  0  0
    5.7667   -9.1161    0.0000 O   0  0  0  0  0  0  0  0  0  0  0  0
    7.1935   -8.2874    0.0000 O   0  0  0  0  0  0  0  0  0  0  0  0
    7.1893   -6.6374    0.0000 O   0  0  0  0  0  0  0  0  0  0  0  0
    7.9048   -7.0481    0.0000 C   0  0  0  0  0  0  0  0  0  0  0  0
    8.6182   -6.6337    0.0000 C   0  0  0  0  0  0  0  0  0  0  0  0
    9.3337   -7.0444    0.0000 C   0  0  0  0  0  0  0  0  0  0  0  0
   10.0471   -6.6301    0.0000 C   0  0  0  0  0  0  0  0  0  0  0  0
   10.0450   -5.8051    0.0000 C   0  0  0  0  0  0  0  0  0  0  0  0
   10.7584   -5.3908    0.0000 C   0  0  0  0  0  0  0  0  0  0  0  0
   11.4739   -5.8014    0.0000 C   0  0  0  0  0  0  0  0  0  0  0  0
   11.4761   -6.6264    0.0000 C   0  0  0  0  0  0  0  0  0  0  0  0
   10.7627   -7.0408    0.0000 C   0  0  0  0  0  0  0  0  0  0  0  0
    4.3314   -6.6447    0.0000 C   0  0  0  0  0  0  0  0  0  0  0  0
    3.6180   -7.0591    0.0000 O   0  0  0  0  0  0  0  0  0  0  0  0
  1  2  1  0  0  0  0
  2  3  1  0  0  0  0
  3  4  1  0  0  0  0
  4  5  1  0  0  0  0
  5  6  1  0  0  0  0
  1  6  1  0  0  0  0
  3  7  1  6  0  0  0
  4  8  1  1  0  0  0
  5  9  1  6  0  0  0
 11 12  1  0  0  0  0
 12 13  2  0  0  0  0
 10 11  1  0  0  0  0
 14 15  1  0  0  0  0
 15 16  2  0  0  0  0
 16 17  1  0  0  0  0
 17 18  2  0  0  0  0
 18 19  1  0  0  0  0
 14 19  2  0  0  0  0
 13 14  1  0  0  0  0
  6 10  1  1  0  0  0
 20 21  1  0  0  0  0
  2 20  1  1  0  0  0
M  END
>  <cdx:groupId>
70

>  <cdx:fragmentId>
35

$$$$
