302353.cdx
  Mrv1902 05222410282D          

 15 14  0  0  0  0            999 V2000
    7.6312   -5.1674    0.0000 Se  0  0  0  0  0  0  0  0  0  0  0  0
    7.6107   -4.3426    0.0000 C   0  0  0  0  0  0  0  0  0  0  0  0
    8.3146   -3.9125    0.0000 C   0  0  0  0  0  0  0  0  0  0  0  0
    8.2941   -3.0877    0.0000 C   0  0  2  0  0  0  0  0  0  0  0  0
    7.5696   -2.6931    0.0000 N   0  0  0  0  0  0  0  0  0  0  0  0
    8.9981   -2.6576    0.0000 C   0  0  0  0  0  0  0  0  0  0  0  0
    9.7226   -3.0521    0.0000 O   0  0  0  0  0  0  0  0  0  0  0  0
    8.9775   -1.8328    0.0000 O   0  0  0  0  0  0  0  0  0  0  0  0
    6.9272   -5.5975    0.0000 Se  0  0  0  0  0  0  0  0  0  0  0  0
    6.9478   -6.4223    0.0000 C   0  0  0  0  0  0  0  0  0  0  0  0
    6.2438   -6.8524    0.0000 C   0  0  2  0  0  0  0  0  0  0  0  0
    6.2643   -7.6772    0.0000 C   0  0  0  0  0  0  0  0  0  0  0  0
    5.5193   -6.4579    0.0000 N   0  0  0  0  0  0  0  0  0  0  0  0
    5.5604   -8.1073    0.0000 O   0  0  0  0  0  0  0  0  0  0  0  0
    6.9889   -8.0718    0.0000 O   0  0  0  0  0  0  0  0  0  0  0  0
  1  2  1  0  0  0  0
  2  3  1  0  0  0  0
  3  4  1  0  0  0  0
  4  5  1  6  0  0  0
  4  6  1  0  0  0  0
  6  7  2  0  0  0  0
  6  8  1  0  0  0  0
  1  9  1  0  0  0  0
  9 10  1  0  0  0  0
 10 11  1  0  0  0  0
 11 12  1  0  0  0  0
 11 13  1  6  0  0  0
 12 14  1  0  0  0  0
 12 15  2  0  0  0  0
M  END
>  <cdx:fragmentId>
105

$$$$
