302386.cdx
  Mrv1902 05222410272D          

 70 77  0  0  0  0            999 V2000
    7.2782   -5.8438    0.0000 C   0  0  1  0  0  0  0  0  0  0  0  0
    7.9927   -5.4313    0.0000 C   0  0  1  0  0  0  0  0  0  0  0  0
    8.7072   -5.8438    0.0000 C   0  0  0  0  0  0  0  0  0  0  0  0
    8.7072   -6.6688    0.0000 C   0  0  0  0  0  0  0  0  0  0  0  0
    7.9927   -7.0813    0.0000 C   0  0  2  0  0  0  0  0  0  0  0  0
    7.9927   -7.9063    0.0000 C   0  0  0  0  0  0  0  0  0  0  0  0
    7.2782   -8.3188    0.0000 C   0  0  0  0  0  0  0  0  0  0  0  0
    6.5637   -7.9063    0.0000 C   0  0  1  0  0  0  0  0  0  0  0  0
    5.8493   -8.3188    0.0000 C   0  0  2  0  0  0  0  0  0  0  0  0
    5.8493   -9.1438    0.0000 C   0  0  0  0  0  0  0  0  0  0  0  0
    5.1348   -9.5563    0.0000 C   0  0  0  0  0  0  0  0  0  0  0  0
    4.4203   -9.1438    0.0000 C   0  0  1  0  0  0  0  0  0  0  0  0
    3.7059   -9.5563    0.0000 C   0  0  2  0  0  0  0  0  0  0  0  0
    2.9914   -9.1438    0.0000 C   0  0  2  0  0  0  0  0  0  0  0  0
    2.9914   -8.3188    0.0000 C   0  0  1  0  0  0  0  0  0  0  0  0
    3.7059   -7.9063    0.0000 C   0  0  0  0  0  0  0  0  0  0  0  0
    4.4203   -8.3188    0.0000 C   0  0  2  0  0  0  0  0  0  0  0  0
    5.1348   -7.9063    0.0000 C   0  0  1  0  0  0  0  0  0  0  0  0
    5.1348   -7.0813    0.0000 C   0  0  0  0  0  0  0  0  0  0  0  0
    5.8493   -6.6688    0.0000 C   0  0  0  0  0  0  0  0  0  0  0  0
    6.5637   -7.0813    0.0000 C   0  0  0  0  0  0  0  0  0  0  0  0
    7.2782   -6.6688    0.0000 C   0  0  2  0  0  0  0  0  0  0  0  0
    8.7072   -7.4938    0.0000 C   0  0  0  0  0  0  0  0  0  0  0  0
    8.7072   -8.3188    0.0000 O   0  0  0  0  0  0  0  0  0  0  0  0
    4.4203   -7.4938    0.0000 C   0  0  0  0  0  0  0  0  0  0  0  0
    6.5637   -8.7313    0.0000 C   0  0  0  0  0  0  0  0  0  0  0  0
    7.9927   -4.6063    0.0000 C   0  0  0  0  0  0  0  0  0  0  0  0
    6.5637   -5.4313    0.0000 C   0  0  0  0  0  0  0  0  0  0  0  0
    2.2769   -7.9063    0.0000 O   0  0  0  0  0  0  0  0  0  0  0  0
    2.2769   -9.5563    0.0000 O   0  0  0  0  0  0  0  0  0  0  0  0
    4.4203   -9.9688    0.0000 H   0  0  0  0  0  0  0  0  0  0  0  0
    7.2782   -7.4938    0.0000 H   0  0  0  0  0  0  0  0  0  0  0  0
   11.5601   -9.9724    0.0000 O   0  0  0  0  0  0  0  0  0  0  0  0
   10.8411  -11.2073    0.0000 O   0  0  0  0  0  0  0  0  0  0  0  0
   11.5571  -10.7974    0.0000 C   0  0  2  0  0  0  0  0  0  0  0  0
   12.2701  -11.2125    0.0000 C   0  0  1  0  0  0  0  0  0  0  0  0
   12.2670  -12.0375    0.0000 C   0  0  2  0  0  0  0  0  0  0  0  0
   11.5511  -12.4474    0.0000 C   0  0  1  0  0  0  0  0  0  0  0  0
   10.8381  -12.0323    0.0000 C   0  0  1  0  0  0  0  0  0  0  0  0
    9.4092  -12.0271    0.0000 O   0  0  0  0  0  0  0  0  0  0  0  0
   12.9800  -12.4526    0.0000 O   0  0  0  0  0  0  0  0  0  0  0  0
   12.9860  -10.8027    0.0000 O   0  0  0  0  0  0  0  0  0  0  0  0
   11.5420  -14.9224    0.0000 O   0  0  0  0  0  0  0  0  0  0  0  0
   10.1101  -15.7422    0.0000 O   0  0  0  0  0  0  0  0  0  0  0  0
    8.6842  -14.9120    0.0000 O   0  0  0  0  0  0  0  0  0  0  0  0
    8.6902  -13.2620    0.0000 C   0  0  0  0  0  0  0  0  0  0  0  0
    9.4031  -13.6771    0.0000 C   0  0  1  0  0  0  0  0  0  0  0  0
    9.4001  -14.5021    0.0000 C   0  0  1  0  0  0  0  0  0  0  0  0
   10.1131  -14.9172    0.0000 C   0  0  2  0  0  0  0  0  0  0  0  0
   10.8291  -14.5073    0.0000 C   0  0  2  0  0  0  0  0  0  0  0  0
   10.8321  -13.6823    0.0000 C   0  0  1  0  0  0  0  0  0  0  0  0
   10.1191  -13.2672    0.0000 O   0  0  0  0  0  0  0  0  0  0  0  0
   11.5481  -13.2724    0.0000 O   0  0  0  0  0  0  0  0  0  0  0  0
   10.1221  -12.4422    0.0000 C   0  0  0  0  0  0  0  0  0  0  0  0
   10.8463   -9.5587    0.0000 C   0  0  0  0  0  0  0  0  0  0  0  0
   10.8520   -6.2587    0.0000 O   0  0  0  0  0  0  0  0  0  0  0  0
   12.2795   -7.0862    0.0000 O   0  0  0  0  0  0  0  0  0  0  0  0
   12.2767   -8.7362    0.0000 O   0  0  0  0  0  0  0  0  0  0  0  0
   10.8478   -8.7337    0.0000 C   0  0  2  0  0  0  0  0  0  0  0  0
   11.5629   -8.3224    0.0000 C   0  0  2  0  0  0  0  0  0  0  0  0
   11.5643   -7.4974    0.0000 C   0  0  1  0  0  0  0  0  0  0  0  0
   10.8506   -7.0837    0.0000 C   0  0  2  0  0  0  0  0  0  0  0  0
   10.1354   -7.4950    0.0000 C   0  0  1  0  0  0  0  0  0  0  0  0
   10.1340   -8.3200    0.0000 O   0  0  0  0  0  0  0  0  0  0  0  0
    9.4216   -7.0813    0.0000 O   0  0  0  0  0  0  0  0  0  0  0  0
    5.8493   -7.4938    0.0000 C   0  0  0  0  0  0  0  0  0  0  0  0
    3.2934  -10.2708    0.0000 C   0  0  0  0  0  0  0  0  0  0  0  0
    4.1184  -10.2708    0.0000 C   0  0  0  0  0  0  0  0  0  0  0  0
    3.7059  -10.9852    0.0000 O   0  0  0  0  0  0  0  0  0  0  0  0
    5.1348   -8.7313    0.0000 H   0  0  0  0  0  0  0  0  0  0  0  0
 63 65  1  1  0  0  0
 59 55  1  1  0  0  0
 55 33  1  0  0  0  0
 51 53  1  1  0  0  0
 50 43  1  6  0  0  0
 49 44  1  6  0  0  0
 48 45  1  1  0  0  0
 47 46  1  6  0  0  0
 52 47  1  0  0  0  0
 48 47  1  0  0  0  0
 49 48  1  0  0  0  0
 50 49  1  0  0  0  0
 51 50  1  0  0  0  0
 52 51  1  0  0  0  0
 54 40  1  0  0  0  0
 34 35  1  0  0  0  0
 62 56  1  6  0  0  0
 61 57  1  1  0  0  0
 60 58  1  6  0  0  0
 64 59  1  0  0  0  0
 60 59  1  0  0  0  0
 61 60  1  0  0  0  0
 62 61  1  0  0  0  0
  1  2  1  0  0  0  0
  2  3  1  0  0  0  0
  3  4  1  0  0  0  0
  4  5  1  0  0  0  0
  5  6  1  0  0  0  0
  6  7  1  0  0  0  0
  7  8  1  0  0  0  0
  8  9  1  0  0  0  0
  9 10  1  0  0  0  0
 10 11  1  0  0  0  0
 11 12  1  0  0  0  0
 12 13  1  0  0  0  0
 13 14  1  0  0  0  0
 14 15  1  0  0  0  0
 15 16  1  0  0  0  0
 16 17  1  0  0  0  0
 12 17  1  0  0  0  0
 17 18  1  0  0  0  0
  9 18  1  0  0  0  0
 18 19  1  0  0  0  0
 19 20  1  0  0  0  0
 20 21  2  0  0  0  0
  8 21  1  0  0  0  0
 21 22  1  0  0  0  0
  5 22  1  0  0  0  0
  1 22  1  0  0  0  0
 23 24  2  0  0  0  0
 23 65  1  0  0  0  0
  5 23  1  1  0  0  0
 17 25  1  1  0  0  0
  8 26  1  6  0  0  0
  2 27  1  6  0  0  0
  1 28  1  1  0  0  0
 15 29  1  6  0  0  0
 14 30  1  1  0  0  0
 12 31  1  6  0  0  0
 22 32  1  1  0  0  0
 63 62  1  0  0  0  0
 64 63  1  0  0  0  0
 35 36  1  0  0  0  0
 36 37  1  0  0  0  0
 37 38  1  0  0  0  0
 38 39  1  0  0  0  0
 34 39  1  0  0  0  0
 38 53  1  6  0  0  0
 39 54  1  1  0  0  0
 37 41  1  1  0  0  0
 36 42  1  6  0  0  0
 35 33  1  1  0  0  0
  9 66  1  1  0  0  0
 13 67  1  1  0  0  0
 13 68  1  6  0  0  0
 68 69  2  0  0  0  0
 18 70  1  6  0  0  0
M  END
>  <cdx:fragmentId>
9

$$$$
