302322.cdx
  Mrv1902 05222410242D          

 46 51  0  0  0  0            999 V2000
    5.6388   -6.0549    0.0000 C   0  0  0  0  0  0  0  0  0  0  0  0
    4.9244   -6.4674    0.0000 C   0  0  1  0  0  0  0  0  0  0  0  0
    4.9244   -7.2924    0.0000 C   0  0  0  0  0  0  0  0  0  0  0  0
    5.6388   -7.7049    0.0000 C   0  0  0  0  0  0  0  0  0  0  0  0
    6.3533   -7.2924    0.0000 C   0  0  2  0  0  0  0  0  0  0  0  0
    7.0678   -7.7049    0.0000 C   0  0  0  0  0  0  0  0  0  0  0  0
    7.7822   -7.2924    0.0000 C   0  0  0  0  0  0  0  0  0  0  0  0
    7.7822   -6.4674    0.0000 C   0  0  2  0  0  0  0  0  0  0  0  0
    8.4967   -6.0549    0.0000 C   0  0  1  0  0  0  0  0  0  0  0  0
    9.2112   -6.4674    0.0000 C   0  0  0  0  0  0  0  0  0  0  0  0
    9.9256   -6.0549    0.0000 C   0  0  0  0  0  0  0  0  0  0  0  0
    9.9256   -5.2299    0.0000 C   0  0  1  0  0  0  0  0  0  0  0  0
   10.6401   -4.8174    0.0000 C   0  0  0  0  0  0  0  0  0  0  0  0
   10.6401   -3.9924    0.0000 C   0  0  1  0  0  0  0  0  0  0  0  0
    9.9256   -3.5799    0.0000 C   0  0  1  0  0  0  0  0  0  0  0  0
    9.2112   -3.9924    0.0000 C   0  0  0  0  0  0  0  0  0  0  0  0
    9.2112   -4.8174    0.0000 C   0  0  1  0  0  0  0  0  0  0  0  0
    8.4967   -5.2299    0.0000 C   0  0  0  0  0  0  0  0  0  0  0  0
    7.7822   -4.8174    0.0000 C   0  0  0  0  0  0  0  0  0  0  0  0
    7.0678   -5.2299    0.0000 C   0  0  0  0  0  0  0  0  0  0  0  0
    7.0678   -6.0549    0.0000 C   0  0  0  0  0  0  0  0  0  0  0  0
    6.3533   -6.4674    0.0000 C   0  0  0  0  0  0  0  0  0  0  0  0
    6.3533   -8.1174    0.0000 C   0  0  0  0  0  0  0  0  0  0  0  0
    7.0678   -8.5299    0.0000 O   0  0  0  0  0  0  0  0  0  0  0  0
    5.6388   -8.5299    0.0000 O   0  0  0  0  0  0  0  0  0  0  0  0
    9.2112   -5.6424    0.0000 C   0  0  0  0  0  0  0  0  0  0  0  0
   11.4651   -4.8174    0.0000 C   0  0  0  0  0  0  0  0  0  0  0  0
   11.0526   -5.5319    0.0000 C   0  0  0  0  0  0  0  0  0  0  0  0
    8.4967   -6.8799    0.0000 C   0  0  0  0  0  0  0  0  0  0  0  0
    7.7822   -5.6424    0.0000 C   0  0  0  0  0  0  0  0  0  0  0  0
    4.2099   -6.0549    0.0000 C   0  0  0  0  0  0  0  0  0  0  0  0
    5.6388   -5.2299    0.0000 C   0  0  0  0  0  0  0  0  0  0  0  0
    9.9256   -2.7549    0.0000 O   0  0  0  0  0  0  0  0  0  0  0  0
   11.3546   -3.5799    0.0000 O   0  0  0  0  0  0  0  0  0  0  0  0
   10.6401   -5.6424    0.0000 H   0  0  0  0  0  0  0  0  0  0  0  0
    4.9244   -9.7674    0.0000 O   0  0  0  0  0  0  0  0  0  0  0  0
    5.6388   -9.3549    0.0000 C   0  0  2  0  0  0  0  0  0  0  0  0
    6.3533   -9.7674    0.0000 C   0  0  1  0  0  0  0  0  0  0  0  0
    6.3533  -10.5924    0.0000 C   0  0  2  0  0  0  0  0  0  0  0  0
    5.6388  -11.0049    0.0000 C   0  0  1  0  0  0  0  0  0  0  0  0
    4.9244  -10.5924    0.0000 C   0  0  1  0  0  0  0  0  0  0  0  0
    4.2099  -11.0049    0.0000 C   0  0  0  0  0  0  0  0  0  0  0  0
    3.4954  -10.5924    0.0000 O   0  0  0  0  0  0  0  0  0  0  0  0
    5.6388  -11.8299    0.0000 O   0  0  0  0  0  0  0  0  0  0  0  0
    7.0678  -11.0049    0.0000 O   0  0  0  0  0  0  0  0  0  0  0  0
    7.0678   -9.3549    0.0000 O   0  0  0  0  0  0  0  0  0  0  0  0
  1  2  1  0  0  0  0
  2  3  1  0  0  0  0
  3  4  1  0  0  0  0
  4  5  1  0  0  0  0
  5  6  1  0  0  0  0
  6  7  1  0  0  0  0
  7  8  1  0  0  0  0
  8  9  1  0  0  0  0
  9 10  1  0  0  0  0
 10 11  1  0  0  0  0
 11 12  1  0  0  0  0
 12 13  1  0  0  0  0
 13 14  1  0  0  0  0
 14 15  1  0  0  0  0
 15 16  1  0  0  0  0
 16 17  1  0  0  0  0
 12 17  1  0  0  0  0
 17 18  1  0  0  0  0
  9 18  1  0  0  0  0
 18 19  1  0  0  0  0
 19 20  1  0  0  0  0
 20 21  2  0  0  0  0
  8 21  1  0  0  0  0
 21 22  1  0  0  0  0
  5 22  1  0  0  0  0
  1 22  2  0  0  0  0
 23 24  2  0  0  0  0
 23 25  1  0  0  0  0
  5 23  1  6  0  0  0
 17 26  1  1  0  0  0
 13 27  1  0  0  0  0
 13 28  1  0  0  0  0
  9 29  1  1  0  0  0
  8 30  1  6  0  0  0
  2 31  1  1  0  0  0
  1 32  1  0  0  0  0
 15 33  1  1  0  0  0
 14 34  1  1  0  0  0
 12 35  1  1  0  0  0
 36 37  1  0  0  0  0
 37 38  1  0  0  0  0
 38 39  1  0  0  0  0
 39 40  1  0  0  0  0
 40 41  1  0  0  0  0
 36 41  1  0  0  0  0
 42 43  1  0  0  0  0
 41 42  1  1  0  0  0
 40 44  1  6  0  0  0
 39 45  1  1  0  0  0
 38 46  1  6  0  0  0
 37 25  1  1  0  0  0
M  END
>  <cdx:groupId>
145

>  <cdx:fragmentId>
5

$$$$
