302401.cdx
  Mrv1902 05222410202D          

 39 44  0  0  0  0            999 V2000
    6.9921   -8.1219    0.0000 C   0  0  0  0  0  0  0  0  0  0  0  0
    6.3246   -8.6068    0.0000 C   0  0  0  0  0  0  0  0  0  0  0  0
    5.5176   -8.4353    0.0000 C   0  0  0  0  0  0  0  0  0  0  0  0
    4.9656   -9.0484    0.0000 C   0  0  0  0  0  0  0  0  0  0  0  0
    5.2206   -9.8330    0.0000 C   0  0  0  0  0  0  0  0  0  0  0  0
    6.0275  -10.0045    0.0000 C   0  0  0  0  0  0  0  0  0  0  0  0
    6.5796   -9.3914    0.0000 C   0  0  0  0  0  0  0  0  0  0  0  0
    7.4046   -9.3914    0.0000 C   0  0  0  0  0  0  0  0  0  0  0  0
    7.9566  -10.0045    0.0000 C   0  0  0  0  0  0  0  0  0  0  0  0
    8.7636   -9.8330    0.0000 C   0  0  0  0  0  0  0  0  0  0  0  0
    9.0185   -9.0484    0.0000 C   0  0  0  0  0  0  0  0  0  0  0  0
    8.4665   -8.4353    0.0000 C   0  0  0  0  0  0  0  0  0  0  0  0
    7.6595   -8.6068    0.0000 C   0  0  0  0  0  0  0  0  0  0  0  0
    4.1586   -8.8769    0.0000 O   0  0  0  0  0  0  0  0  0  0  0  0
    8.8538   -7.7069    0.0000 C   0  0  0  0  0  0  0  0  0  0  0  0
    9.2411   -6.9784    0.0000 C   0  0  0  0  0  0  0  0  0  0  0  0
    9.6284   -6.2500    0.0000 C   0  0  0  0  0  0  0  0  0  0  0  0
    9.1912   -5.5504    0.0000 C   0  0  0  0  0  0  0  0  0  0  0  0
    9.5785   -4.8219    0.0000 C   0  0  0  0  0  0  0  0  0  0  0  0
   10.4030   -4.7931    0.0000 C   0  0  0  0  0  0  0  0  0  0  0  0
   10.8402   -5.4928    0.0000 C   0  0  0  0  0  0  0  0  0  0  0  0
   10.4529   -6.2212    0.0000 C   0  0  0  0  0  0  0  0  0  0  0  0
   10.7904   -4.0647    0.0000 O   0  0  0  0  0  0  0  0  0  0  0  0
    6.2337   -7.3635    0.0000 C   0  0  0  0  0  0  0  0  0  0  0  0
    5.4368   -7.5771    0.0000 C   0  0  0  0  0  0  0  0  0  0  0  0
    4.8534   -6.9937    0.0000 C   0  0  0  0  0  0  0  0  0  0  0  0
    5.0670   -6.1968    0.0000 C   0  0  0  0  0  0  0  0  0  0  0  0
    5.8639   -5.9833    0.0000 C   0  0  0  0  0  0  0  0  0  0  0  0
    6.4472   -6.5666    0.0000 C   0  0  0  0  0  0  0  0  0  0  0  0
    4.4836   -5.6134    0.0000 O   0  0  0  0  0  0  0  0  0  0  0  0
    7.5283   -7.1931    0.0000 C   0  0  0  0  0  0  0  0  0  0  0  0
    7.1158   -6.4786    0.0000 C   0  0  0  0  0  0  0  0  0  0  0  0
    7.5283   -5.7642    0.0000 C   0  0  0  0  0  0  0  0  0  0  0  0
    8.3533   -5.7642    0.0000 C   0  0  0  0  0  0  0  0  0  0  0  0
    8.7658   -6.4786    0.0000 C   0  0  0  0  0  0  0  0  0  0  0  0
    8.3533   -7.1931    0.0000 C   0  0  0  0  0  0  0  0  0  0  0  0
    8.7658   -5.0497    0.0000 O   0  0  0  0  0  0  0  0  0  0  0  0
    9.8255   -8.8769    0.0000 C   0  0  0  0  0  0  0  0  0  0  0  0
   10.3775   -9.4900    0.0000 O   0  0  0  0  0  0  0  0  0  0  0  0
  1  2  1  0  0  0  0
  2  3  1  0  0  0  0
  3  4  2  0  0  0  0
  4  5  1  0  0  0  0
  5  6  2  0  0  0  0
  6  7  1  0  0  0  0
  2  7  2  0  0  0  0
  7  8  1  0  0  0  0
  8  9  1  0  0  0  0
  9 10  2  0  0  0  0
 10 11  1  0  0  0  0
 11 12  2  0  0  0  0
 12 13  1  0  0  0  0
  8 13  2  0  0  0  0
  1 13  1  0  0  0  0
  4 14  1  0  0  0  0
 15 16  3  0  0  0  0
 17 18  1  0  0  0  0
 18 19  2  0  0  0  0
 19 20  1  0  0  0  0
 20 21  2  0  0  0  0
 21 22  1  0  0  0  0
 17 22  2  0  0  0  0
 20 23  1  0  0  0  0
 16 17  1  0  0  0  0
 12 15  1  0  0  0  0
 24 25  1  0  0  0  0
 25 26  2  0  0  0  0
 26 27  1  0  0  0  0
 27 28  2  0  0  0  0
 28 29  1  0  0  0  0
 24 29  2  0  0  0  0
 27 30  1  0  0  0  0
  1 24  1  0  0  0  0
 31 32  1  0  0  0  0
 32 33  2  0  0  0  0
 33 34  1  0  0  0  0
 34 35  2  0  0  0  0
 35 36  1  0  0  0  0
 31 36  2  0  0  0  0
 34 37  1  0  0  0  0
  1 31  1  0  0  0  0
 38 39  1  0  0  0  0
 11 38  1  0  0  0  0
M  END
>  <cdx:groupId>
124

>  <cdx:fragmentId>
5

$$$$
