302412.cdx
  Mrv1902 05222410192D          

 41 46  0  0  0  0            999 V2000
    6.9818   -8.4272    0.0000 C   0  0  2  0  0  0  0  0  0  0  0  0
    6.3144   -8.9121    0.0000 C   0  0  0  0  0  0  0  0  0  0  0  0
    5.5074   -8.7406    0.0000 C   0  0  0  0  0  0  0  0  0  0  0  0
    4.9554   -9.3536    0.0000 C   0  0  0  0  0  0  0  0  0  0  0  0
    5.2103  -10.1383    0.0000 C   0  0  0  0  0  0  0  0  0  0  0  0
    6.0173  -10.3098    0.0000 C   0  0  0  0  0  0  0  0  0  0  0  0
    6.5693   -9.6967    0.0000 C   0  0  0  0  0  0  0  0  0  0  0  0
    7.3943   -9.6967    0.0000 C   0  0  0  0  0  0  0  0  0  0  0  0
    7.9463  -10.3098    0.0000 C   0  0  0  0  0  0  0  0  0  0  0  0
    8.7533  -10.1383    0.0000 C   0  0  0  0  0  0  0  0  0  0  0  0
    9.0083   -9.3536    0.0000 C   0  0  0  0  0  0  0  0  0  0  0  0
    8.4562   -8.7406    0.0000 C   0  0  0  0  0  0  0  0  0  0  0  0
    7.6493   -8.9121    0.0000 C   0  0  0  0  0  0  0  0  0  0  0  0
    4.1484   -9.1821    0.0000 O   0  0  0  0  0  0  0  0  0  0  0  0
    6.2234   -7.6688    0.0000 C   0  0  0  0  0  0  0  0  0  0  0  0
    5.4266   -7.8823    0.0000 C   0  0  0  0  0  0  0  0  0  0  0  0
    4.8432   -7.2989    0.0000 C   0  0  0  0  0  0  0  0  0  0  0  0
    5.0567   -6.5021    0.0000 C   0  0  0  0  0  0  0  0  0  0  0  0
    5.8536   -6.2885    0.0000 C   0  0  0  0  0  0  0  0  0  0  0  0
    6.4370   -6.8719    0.0000 C   0  0  0  0  0  0  0  0  0  0  0  0
    4.4734   -5.9187    0.0000 O   0  0  0  0  0  0  0  0  0  0  0  0
    3.6765   -6.1322    0.0000 C   0  0  0  0  0  0  0  0  0  0  0  0
    9.8152   -9.1821    0.0000 C   0  0  0  0  0  0  0  0  0  0  0  0
   10.3673   -9.7952    0.0000 O   0  0  0  0  0  0  0  0  0  0  0  0
   11.1742   -9.6237    0.0000 C   0  0  0  0  0  0  0  0  0  0  0  0
    8.8435   -8.0121    0.0000 C   0  0  0  0  0  0  0  0  0  0  0  0
    9.2309   -7.2837    0.0000 C   0  0  0  0  0  0  0  0  0  0  0  0
    9.6182   -6.5553    0.0000 C   0  0  0  0  0  0  0  0  0  0  0  0
    9.1810   -5.8556    0.0000 C   0  0  0  0  0  0  0  0  0  0  0  0
    9.5683   -5.1272    0.0000 C   0  0  0  0  0  0  0  0  0  0  0  0
   10.3928   -5.0984    0.0000 C   0  0  0  0  0  0  0  0  0  0  0  0
   10.8300   -5.7980    0.0000 C   0  0  0  0  0  0  0  0  0  0  0  0
   10.4427   -6.5265    0.0000 C   0  0  0  0  0  0  0  0  0  0  0  0
   10.7801   -4.3700    0.0000 O   0  0  0  0  0  0  0  0  0  0  0  0
    7.5181   -7.4983    0.0000 C   0  0  0  0  0  0  0  0  0  0  0  0
    7.1056   -6.7839    0.0000 C   0  0  0  0  0  0  0  0  0  0  0  0
    7.5181   -6.0694    0.0000 C   0  0  0  0  0  0  0  0  0  0  0  0
    8.3431   -6.0694    0.0000 C   0  0  0  0  0  0  0  0  0  0  0  0
    8.7556   -6.7839    0.0000 C   0  0  0  0  0  0  0  0  0  0  0  0
    8.3431   -7.4983    0.0000 C   0  0  0  0  0  0  0  0  0  0  0  0
    8.7556   -5.3549    0.0000 O   0  0  0  0  0  0  0  0  0  0  0  0
  1  2  1  0  0  0  0
  2  3  1  0  0  0  0
  3  4  2  0  0  0  0
  4  5  1  0  0  0  0
  5  6  2  0  0  0  0
  6  7  1  0  0  0  0
  2  7  2  0  0  0  0
  7  8  1  0  0  0  0
  8  9  1  0  0  0  0
  9 10  2  0  0  0  0
 10 11  1  0  0  0  0
 11 12  2  0  0  0  0
 12 13  1  0  0  0  0
  8 13  2  0  0  0  0
  1 13  1  0  0  0  0
  4 14  1  0  0  0  0
 15 16  1  0  0  0  0
 16 17  2  0  0  0  0
 17 18  1  0  0  0  0
 18 19  2  0  0  0  0
 19 20  1  0  0  0  0
 15 20  2  0  0  0  0
 21 22  1  0  0  0  0
 18 21  1  0  0  0  0
  1 15  1  1  0  0  0
 24 25  1  0  0  0  0
 23 24  1  0  0  0  0
 11 23  1  0  0  0  0
 26 27  3  0  0  0  0
 28 29  1  0  0  0  0
 29 30  2  0  0  0  0
 30 31  1  0  0  0  0
 31 32  2  0  0  0  0
 32 33  1  0  0  0  0
 28 33  2  0  0  0  0
 31 34  1  0  0  0  0
 27 28  1  0  0  0  0
 12 26  1  0  0  0  0
 35 36  1  0  0  0  0
 36 37  2  0  0  0  0
 37 38  1  0  0  0  0
 38 39  2  0  0  0  0
 39 40  1  0  0  0  0
 35 40  2  0  0  0  0
 38 41  1  0  0  0  0
  1 35  1  6  0  0  0
M  END
>  <cdx:groupId>
130

>  <cdx:fragmentId>
5

$$$$
