302460.cdx
  Mrv1902 05222410222D          

 17 19  0  0  0  0            999 V2000
    8.2509   -5.2524    0.0000 C   0  0  0  0  0  0  0  0  0  0  0  0
    5.1071   -7.6414    0.0000 C   0  0  0  0  0  0  0  0  0  0  0  0
    8.3599   -8.9853    0.0000 C   0  0  0  0  0  0  0  0  0  0  0  0
    9.6586   -6.3660    0.0000 O   0  0  0  0  0  0  0  0  0  0  0  0
    6.4468   -8.0380    0.0000 C   0  0  0  0  0  0  0  0  0  0  0  0
    5.9015   -7.4188    0.0000 C   0  0  0  0  0  0  0  0  0  0  0  0
    6.0456   -6.6065    0.0000 C   0  0  0  0  0  0  0  0  0  0  0  0
    6.7706   -6.2127    0.0000 C   0  0  0  0  0  0  0  0  0  0  0  0
    7.2708   -7.9977    0.0000 C   0  0  0  0  0  0  0  0  0  0  0  0
    7.5637   -8.7689    0.0000 C   0  0  0  0  0  0  0  0  0  0  0  0
    6.9208   -9.2859    0.0000 C   0  0  0  0  0  0  0  0  0  0  0  0
    6.2304   -8.8341    0.0000 C   0  0  0  0  0  0  0  0  0  0  0  0
    8.8642   -6.5886    0.0000 C   0  0  0  0  0  0  0  0  0  0  0  0
    8.2172   -6.0767    0.0000 C   0  0  0  0  0  0  0  0  0  0  0  0
    7.5305   -6.5339    0.0000 C   0  0  0  0  0  0  0  0  0  0  0  0
    7.7531   -7.3283    0.0000 C   0  0  0  0  0  0  0  0  0  0  0  0
    8.5774   -7.3621    0.0000 O   0  0  0  0  0  0  0  0  0  0  0  0
 14  1  1  0  0  0  0
  6  2  1  0  0  0  0
 10  3  1  0  0  0  0
 13  4  2  0  0  0  0
  8 15  1  0  0  0  0
  9 16  1  0  0  0  0
  9  5  1  0  0  0  0
 12  5  1  0  0  0  0
  6  5  2  0  0  0  0
  7  6  1  0  0  0  0
  8  7  1  0  0  0  0
 10  9  1  0  0  0  0
 11 10  2  0  0  0  0
 12 11  1  0  0  0  0
 17 13  1  0  0  0  0
 14 13  1  0  0  0  0
 15 14  2  0  0  0  0
 16 15  1  0  0  0  0
 17 16  1  0  0  0  0
M  END
>  <cdx:groupId>
55

>  <cdx:fragmentId>
23

$$$$
