302436.cdx
  Mrv1902 05222410272D          

 44 50  0  0  0  0            999 V2000
    4.9275   -7.2361    0.0000 C   0  0  0  0  0  0  0  0  0  0  0  0
    5.6420   -7.6486    0.0000 C   0  0  0  0  0  0  0  0  0  0  0  0
    5.6420   -8.4736    0.0000 C   0  0  0  0  0  0  0  0  0  0  0  0
    4.9270   -8.8851    0.0000 C   0  0  0  0  0  0  0  0  0  0  0  0
    4.9272   -9.7101    0.0000 C   0  0  0  0  0  0  0  0  0  0  0  0
    5.6416  -10.1229    0.0000 C   0  0  0  0  0  0  0  0  0  0  0  0
    6.3565   -9.7111    0.0000 C   0  0  0  0  0  0  0  0  0  0  0  0
    7.0709  -10.1236    0.0000 O   0  0  0  0  0  0  0  0  0  0  0  0
    7.7854   -9.7111    0.0000 C   0  0  0  0  0  0  0  0  0  0  0  0
    7.7867   -8.8861    0.0000 C   0  0  0  0  0  0  0  0  0  0  0  0
    8.5012   -8.4736    0.0000 C   0  0  0  0  0  0  0  0  0  0  0  0
    9.2143   -8.8861    0.0000 C   0  0  0  0  0  0  0  0  0  0  0  0
    9.9288   -8.4736    0.0000 C   0  0  0  0  0  0  0  0  0  0  0  0
    9.9288   -7.6486    0.0000 C   0  0  0  0  0  0  0  0  0  0  0  0
   10.6438   -7.2370    0.0000 N   0  0  0  0  0  0  0  0  0  0  0  0
   10.6436   -6.4120    0.0000 C   0  0  0  0  0  0  0  0  0  0  0  0
    9.9292   -5.9993    0.0000 C   0  0  0  0  0  0  0  0  0  0  0  0
    9.2143   -6.4111    0.0000 C   0  0  0  0  0  0  0  0  0  0  0  0
    8.4999   -5.9986    0.0000 C   0  0  0  0  0  0  0  0  0  0  0  0
    7.7854   -6.4111    0.0000 C   0  0  0  0  0  0  0  0  0  0  0  0
    7.7854   -7.2361    0.0000 C   0  0  0  0  0  0  0  0  0  0  0  0
    8.4999   -7.6486    0.0000 C   0  0  0  0  0  0  0  0  0  0  0  0
    8.0874   -8.3630    0.0000 O   0  0  0  0  0  0  0  0  0  0  0  0
    5.6420   -5.1736    0.0000 C   0  0  0  0  0  0  0  0  0  0  0  0
    4.9289   -4.7611    0.0000 C   0  0  0  0  0  0  0  0  0  0  0  0
    4.2144   -5.1736    0.0000 C   0  0  0  0  0  0  0  0  0  0  0  0
    4.2130   -5.9986    0.0000 C   0  0  0  0  0  0  0  0  0  0  0  0
    3.4986   -6.4111    0.0000 C   0  0  0  0  0  0  0  0  0  0  0  0
    3.4986   -7.2361    0.0000 C   0  0  0  0  0  0  0  0  0  0  0  0
    4.2130   -7.6486    0.0000 N   0  0  0  0  0  0  0  0  0  0  0  0
    4.9275   -6.4111    0.0000 C   0  0  0  0  0  0  0  0  0  0  0  0
    5.6420   -5.9986    0.0000 C   0  0  0  0  0  0  0  0  0  0  0  0
    9.2143   -7.2361    0.0000 C   0  0  0  0  0  0  0  0  0  0  0  0
    9.2143   -9.7111    0.0000 C   0  0  0  0  0  0  0  0  0  0  0  0
    8.4999  -10.1236    0.0000 C   0  0  0  0  0  0  0  0  0  0  0  0
    6.3565   -8.8861    0.0000 C   0  0  0  0  0  0  0  0  0  0  0  0
    5.6416  -10.9479    0.0000 O   0  0  0  0  0  0  0  0  0  0  0  0
   11.3583   -7.6495    0.0000 C   0  0  0  0  0  0  0  0  0  0  0  0
    4.9289   -3.9361    0.0000 O   0  0  0  0  0  0  0  0  0  0  0  0
    4.2144   -3.5236    0.0000 C   0  0  0  0  0  0  0  0  0  0  0  0
    7.0709   -7.6486    0.0000 O   0  0  0  0  0  0  0  0  0  0  0  0
    6.3565   -7.2361    0.0000 C   0  0  0  0  0  0  0  0  0  0  0  0
    7.0709   -5.9986    0.0000 O   0  0  0  0  0  0  0  0  0  0  0  0
    7.0709   -5.1736    0.0000 C   0  0  0  0  0  0  0  0  0  0  0  0
  1  2  1  0  0  0  0
  2  3  1  0  0  0  0
  3  4  1  0  0  0  0
  4  5  2  0  0  0  0
  5  6  1  0  0  0  0
  6  7  2  0  0  0  0
  7  8  1  0  0  0  0
  8  9  1  0  0  0  0
  9 10  1  0  0  0  0
 10 11  2  0  0  0  0
 11 12  1  0  0  0  0
 12 13  1  0  0  0  0
 13 14  1  0  0  0  0
 14 15  1  0  0  0  0
 15 16  1  0  0  0  0
 16 17  1  0  0  0  0
 17 18  1  0  0  0  0
 18 19  2  0  0  0  0
 19 20  1  0  0  0  0
 20 21  2  0  0  0  0
 21 22  1  0  0  0  0
 22 23  1  0  0  0  0
 23 24  1  0  0  0  0
 24 25  2  0  0  0  0
 25 26  1  0  0  0  0
 26 27  2  0  0  0  0
 27 28  1  0  0  0  0
 28 29  1  0  0  0  0
 29 30  1  0  0  0  0
 31 32  2  0  0  0  0
 34 35  1  0  0  0  0
  1 30  1  0  0  0  0
  1 31  1  0  0  0  0
 32 24  1  0  0  0  0
 27 31  1  0  0  0  0
 18 33  1  0  0  0  0
 33 14  1  0  0  0  0
 12 34  2  0  0  0  0
 35  9  2  0  0  0  0
  7 36  1  0  0  0  0
 36  3  2  0  0  0  0
 22 33  2  0  0  0  0
  6 37  1  0  0  0  0
 15 38  1  0  0  0  0
 39 40  1  0  0  0  0
 25 39  1  0  0  0  0
 41 42  1  0  0  0  0
 21 41  1  0  0  0  0
 43 44  1  0  0  0  0
 20 43  1  0  0  0  0
M  END
>  <cdx:groupId>
140

>  <cdx:fragmentId>
5

$$$$
