302445.cdx
  Mrv1902 05222410242D          

 15 17  0  0  0  0            999 V2000
    8.2935   -7.5292    0.0000 O   0  0  0  0  0  0  0  0  0  0  0  0
    7.8086   -8.1966    0.0000 C   0  0  0  0  0  0  0  0  0  0  0  0
    7.0240   -7.9417    0.0000 C   0  0  0  0  0  0  0  0  0  0  0  0
    7.0240   -7.1167    0.0000 C   0  0  0  0  0  0  0  0  0  0  0  0
    7.8086   -6.8618    0.0000 C   0  0  0  0  0  0  0  0  0  0  0  0
    6.3095   -6.7042    0.0000 C   0  0  0  0  0  0  0  0  0  0  0  0
    5.5950   -7.1167    0.0000 C   0  0  0  0  0  0  0  0  0  0  0  0
    5.5950   -7.9417    0.0000 C   0  0  0  0  0  0  0  0  0  0  0  0
    6.3095   -8.3542    0.0000 C   0  0  0  0  0  0  0  0  0  0  0  0
    8.5932   -6.6068    0.0000 N   0  0  0  0  0  0  0  0  0  0  0  0
    7.3237   -6.1943    0.0000 C   0  0  0  0  0  0  0  0  0  0  0  0
    7.8086   -5.5269    0.0000 C   0  0  0  0  0  0  0  0  0  0  0  0
    8.5932   -5.7818    0.0000 C   0  0  0  0  0  0  0  0  0  0  0  0
    8.0635   -8.9812    0.0000 O   0  0  0  0  0  0  0  0  0  0  0  0
    9.2606   -7.0917    0.0000 C   0  0  0  0  0  0  0  0  0  0  0  0
  1  2  1  0  0  0  0
  2  3  1  0  0  0  0
  3  4  1  0  0  0  0
  4  5  1  0  0  0  0
  1  5  1  0  0  0  0
  6  7  1  0  0  0  0
  7  8  2  0  0  0  0
  8  9  1  0  0  0  0
  9  3  2  0  0  0  0
  6  4  2  0  0  0  0
 11 12  1  0  0  0  0
 12 13  1  0  0  0  0
 10 13  1  0  0  0  0
 10  5  1  0  0  0  0
 11  5  1  0  0  0  0
  2 14  2  0  0  0  0
 10 15  1  0  0  0  0
M  END
>  <cdx:groupId>
49

>  <cdx:fragmentId>
5

$$$$
