30249.cdx
  Mrv1902 05222410262D          

 30 32  0  0  0  0            999 V2000
    3.0781  -12.1126    0.0000 C   0  0  2  0  0  0  0  0  0  0  0  0
    3.0781  -12.9376    0.0000 C   0  0  0  0  0  0  0  0  0  0  0  0
    3.7925  -13.3501    0.0000 C   0  0  2  0  0  0  0  0  0  0  0  0
    4.5070  -12.9376    0.0000 C   0  0  0  0  0  0  0  0  0  0  0  0
    4.5070  -12.1126    0.0000 C   0  0  0  0  0  0  0  0  0  0  0  0
    3.7925  -11.7001    0.0000 C   0  0  0  0  0  0  0  0  0  0  0  0
    5.2215  -13.3501    0.0000 C   0  0  0  0  0  0  0  0  0  0  0  0
    5.9359  -12.9376    0.0000 C   0  0  0  0  0  0  0  0  0  0  0  0
    5.9359  -12.1126    0.0000 C   0  0  0  0  0  0  0  0  0  0  0  0
    5.2215  -11.7001    0.0000 C   0  0  0  0  0  0  0  0  0  0  0  0
    6.6504  -11.7001    0.0000 C   0  0  0  0  0  0  0  0  0  0  0  0
    6.6504  -10.8751    0.0000 C   0  0  2  0  0  0  0  0  0  0  0  0
    5.9359  -10.4626    0.0000 C   0  0  0  0  0  0  0  0  0  0  0  0
    5.2215  -10.8751    0.0000 C   0  0  0  0  0  0  0  0  0  0  0  0
    4.5070  -11.2876    0.0000 C   0  0  0  0  0  0  0  0  0  0  0  0
    4.4932  -13.5014    0.0000 H   0  0  0  0  0  0  0  0  0  0  0  0
    5.6472  -11.4389    0.0000 H   0  0  0  0  0  0  0  0  0  0  0  0
    7.2338  -10.2918    0.0000 C   0  0  0  0  0  0  0  0  0  0  0  0
    8.0588  -10.2918    0.0000 O   0  0  0  0  0  0  0  0  0  0  0  0
    6.8213   -9.5773    0.0000 C   0  0  0  0  0  0  0  0  0  0  0  0
    7.2338   -8.8628    0.0000 O   0  0  0  0  0  0  0  0  0  0  0  0
    6.8213   -8.1484    0.0000 C   0  0  0  0  0  0  0  0  0  0  0  0
    7.2338   -7.4339    0.0000 C   0  0  0  0  0  0  0  0  0  0  0  0
    5.9963   -8.1484    0.0000 O   0  0  0  0  0  0  0  0  0  0  0  0
    7.6521   -9.8597    0.0000 H   0  0  0  0  0  0  0  0  0  0  0  0
    3.3800  -14.0646    0.0000 C   0  0  0  0  0  0  0  0  0  0  0  0
    2.5550  -14.0646    0.0000 O   0  0  0  0  0  0  0  0  0  0  0  0
    4.3759  -13.9335    0.0000 C   0  0  0  0  0  0  0  0  0  0  0  0
    2.3636  -11.7001    0.0000 O   0  0  0  0  0  0  0  0  0  0  0  0
    7.4754  -10.8751    0.0000 C   0  0  0  0  0  0  0  0  0  0  0  0
  1  2  1  0  0  0  0
  2  3  1  0  0  0  0
  3  4  1  0  0  0  0
  4  5  1  0  0  0  0
  5  6  1  0  0  0  0
  6  1  1  0  0  0  0
  4  7  1  0  0  0  0
  7  8  1  0  0  0  0
  8  9  1  0  0  0  0
  9 10  1  0  0  0  0
 10  5  1  0  0  0  0
  9 11  2  0  0  0  0
 11 12  1  0  0  0  0
 12 13  1  0  0  0  0
 13 14  1  0  0  0  0
 14 10  1  0  0  0  0
  5 15  1  0  0  0  0
  4 16  1  0  0  0  0
 10 17  1  0  0  0  0
 12 18  1  0  0  0  0
 18 19  1  0  0  0  0
 18 20  1  0  0  0  0
 20 21  1  0  0  0  0
 21 22  1  0  0  0  0
 22 23  1  0  0  0  0
 22 24  2  0  0  0  0
 18 25  1  0  0  0  0
  3 26  1  0  0  0  0
 26 27  1  0  0  0  0
  3 28  1  1  0  0  0
  1 29  1  1  0  0  0
 12 30  1  1  0  0  0
M  END
>  <cdx:fragmentId>
5

$$$$
