302456.cdx
  Mrv1902 05222410252D          

 25 29  0  0  0  0            999 V2000
    7.4220   -8.4729    0.0000 N   0  0  0  0  0  0  0  0  0  0  0  0
    6.7067   -8.8841    0.0000 C   0  0  0  0  0  0  0  0  0  0  0  0
    5.9930   -8.4702    0.0000 C   0  0  0  0  0  0  0  0  0  0  0  0
    5.2778   -8.8814    0.0000 C   0  0  0  0  0  0  0  0  0  0  0  0
    5.1047   -9.6880    0.0000 O   0  0  0  0  0  0  0  0  0  0  0  0
    4.2841   -9.7727    0.0000 C   0  0  0  0  0  0  0  0  0  0  0  0
    3.9499   -9.0184    0.0000 O   0  0  0  0  0  0  0  0  0  0  0  0
    4.5641   -8.4675    0.0000 C   0  0  0  0  0  0  0  0  0  0  0  0
    4.5656   -7.6426    0.0000 C   0  0  0  0  0  0  0  0  0  0  0  0
    5.2809   -7.2314    0.0000 C   0  0  0  0  0  0  0  0  0  0  0  0
    5.9946   -7.6452    0.0000 C   0  0  0  0  0  0  0  0  0  0  0  0
    6.7098   -7.2341    0.0000 C   0  0  0  0  0  0  0  0  0  0  0  0
    7.4235   -7.6479    0.0000 C   0  0  0  0  0  0  0  0  0  0  0  0
    8.1388   -7.2368    0.0000 C   0  0  0  0  0  0  0  0  0  0  0  0
    8.1403   -6.4118    0.0000 C   0  0  0  0  0  0  0  0  0  0  0  0
    8.8556   -6.0006    0.0000 C   0  0  0  0  0  0  0  0  0  0  0  0
    9.5693   -6.4145    0.0000 C   0  0  0  0  0  0  0  0  0  0  0  0
    9.5677   -7.2395    0.0000 C   0  0  0  0  0  0  0  0  0  0  0  0
    8.8525   -7.6506    0.0000 C   0  0  0  0  0  0  0  0  0  0  0  0
    8.8509   -8.4756    0.0000 C   0  0  0  0  0  0  0  0  0  0  0  0
    8.1357   -8.8868    0.0000 C   0  0  0  0  0  0  0  0  0  0  0  0
   10.2845   -6.0033    0.0000 O   0  0  0  0  0  0  0  0  0  0  0  0
   10.9982   -6.4172    0.0000 C   0  0  0  0  0  0  0  0  0  0  0  0
    8.8571   -5.1756    0.0000 O   0  0  0  0  0  0  0  0  0  0  0  0
    9.5724   -4.7645    0.0000 C   0  0  0  0  0  0  0  0  0  0  0  0
  1  2  1  0  0  0  0
  2  3  1  0  0  0  0
  3  4  1  0  0  0  0
  4  5  1  0  0  0  0
  5  6  1  0  0  0  0
  6  7  1  0  0  0  0
  7  8  1  0  0  0  0
  8  9  1  0  0  0  0
  9 10  2  0  0  0  0
 10 11  1  0  0  0  0
 11 12  1  0  0  0  0
 12 13  1  0  0  0  0
 13 14  1  0  0  0  0
 14 15  2  0  0  0  0
 15 16  1  0  0  0  0
 16 17  2  0  0  0  0
 17 18  1  0  0  0  0
 18 19  2  0  0  0  0
 19 20  1  0  0  0  0
 20 21  1  0  0  0  0
  1 21  1  0  0  0  0
  1 13  1  0  0  0  0
 14 19  1  0  0  0  0
  3 11  2  0  0  0  0
  4  8  2  0  0  0  0
 22 23  1  0  0  0  0
 17 22  1  0  0  0  0
 24 25  1  0  0  0  0
 16 24  1  0  0  0  0
M  END
>  <cdx:fragmentId>
7

$$$$
