302474.cdx
  Mrv1902 05222410222D          

 14 14  0  0  0  0            999 V2000
    9.2112   -6.8799    0.0000 C   0  0  0  0  0  0  0  0  0  0  0  0
    8.4967   -7.2924    0.0000 C   0  0  0  0  0  0  0  0  0  0  0  0
    7.7822   -6.8799    0.0000 C   0  0  0  0  0  0  0  0  0  0  0  0
    7.0678   -7.2924    0.0000 C   0  0  0  0  0  0  0  0  0  0  0  0
    6.3533   -6.8799    0.0000 C   0  0  0  0  0  0  0  0  0  0  0  0
    5.6388   -7.2924    0.0000 C   0  0  0  0  0  0  0  0  0  0  0  0
    4.9244   -6.8799    0.0000 O   0  0  0  0  0  0  0  0  0  0  0  0
    5.6388   -8.1174    0.0000 C   0  0  0  0  0  0  0  0  0  0  0  0
    4.9244   -8.5299    0.0000 O   0  0  0  0  0  0  0  0  0  0  0  0
    6.3533   -8.5299    0.0000 C   0  0  0  0  0  0  0  0  0  0  0  0
    7.0678   -8.1174    0.0000 C   0  0  0  0  0  0  0  0  0  0  0  0
    9.2112   -6.0549    0.0000 O   0  0  0  0  0  0  0  0  0  0  0  0
    9.9256   -7.2924    0.0000 O   0  0  0  0  0  0  0  0  0  0  0  0
   10.6401   -6.8799    0.0000 C   0  0  0  0  0  0  0  0  0  0  0  0
  1  2  1  0  0  0  0
  2  3  2  0  0  0  0
  3  4  1  0  0  0  0
  4  5  1  0  0  0  0
  5  6  2  0  0  0  0
  6  7  1  0  0  0  0
  6  8  1  0  0  0  0
  8  9  1  0  0  0  0
  8 10  2  0  0  0  0
 10 11  1  0  0  0  0
  4 11  2  0  0  0  0
  1 12  2  0  0  0  0
  1 13  1  0  0  0  0
 13 14  1  0  0  0  0
M  END
>  <cdx:fragmentId>
5

$$$$
