302471.cdx
  Mrv1902 05222410212D          

 31 33  0  0  0  0            999 V2000
    9.8056   -6.1499    0.0000 O   0  0  0  0  0  0  0  0  0  0  0  0
    9.0209   -5.8950    0.0000 C   0  0  1  0  0  0  0  0  0  0  0  0
    9.0209   -5.0700    0.0000 C   0  0  1  0  0  0  0  0  0  0  0  0
    9.8056   -4.8150    0.0000 C   0  0  1  0  0  0  0  0  0  0  0  0
   10.2905   -5.4825    0.0000 C   0  0  0  0  0  0  0  0  0  0  0  0
    8.3759   -4.5556    0.0000 C   0  0  0  0  0  0  0  0  0  0  0  0
    7.5716   -4.7392    0.0000 C   0  0  0  0  0  0  0  0  0  0  0  0
    7.2137   -5.4825    0.0000 C   0  0  0  0  0  0  0  0  0  0  0  0
    7.5716   -6.2258    0.0000 C   0  0  0  0  0  0  0  0  0  0  0  0
    7.1485   -6.9340    0.0000 C   0  0  0  0  0  0  0  0  0  0  0  0
    7.6913   -7.5553    0.0000 C   0  0  1  0  0  0  0  0  0  0  0  0
    8.4499   -7.2310    0.0000 C   0  0  0  0  0  0  0  0  0  0  0  0
    8.3759   -6.4094    0.0000 C   0  0  0  0  0  0  0  0  0  0  0  0
   11.1155   -5.4825    0.0000 O   0  0  0  0  0  0  0  0  0  0  0  0
    7.5077   -8.3596    0.0000 O   0  0  0  0  0  0  0  0  0  0  0  0
    6.1146   -8.0416    0.0000 O   0  0  0  0  0  0  0  0  0  0  0  0
    6.7193   -8.6028    0.0000 C   0  0  2  0  0  0  0  0  0  0  0  0
    6.5358   -9.4071    0.0000 C   0  0  1  0  0  0  0  0  0  0  0  0
    5.7474   -9.6503    0.0000 C   0  0  2  0  0  0  0  0  0  0  0  0
    5.1426   -9.0891    0.0000 C   0  0  1  0  0  0  0  0  0  0  0  0
    5.3262   -8.2848    0.0000 C   0  0  1  0  0  0  0  0  0  0  0  0
    4.7215   -7.7237    0.0000 C   0  0  0  0  0  0  0  0  0  0  0  0
    3.9331   -7.9668    0.0000 O   0  0  0  0  0  0  0  0  0  0  0  0
    4.3543   -9.3323    0.0000 O   0  0  0  0  0  0  0  0  0  0  0  0
    5.5638  -10.4546    0.0000 O   0  0  0  0  0  0  0  0  0  0  0  0
    7.1405   -9.9682    0.0000 O   0  0  0  0  0  0  0  0  0  0  0  0
    9.1644   -7.6435    0.0000 C   0  0  0  0  0  0  0  0  0  0  0  0
    6.3887   -5.4825    0.0000 C   0  0  0  0  0  0  0  0  0  0  0  0
   10.0605   -4.0304    0.0000 C   0  0  0  0  0  0  0  0  0  0  0  0
    9.1682   -4.2582    0.0000 H   0  0  0  0  0  0  0  0  0  0  0  0
    9.1682   -6.7067    0.0000 H   0  0  0  0  0  0  0  0  0  0  0  0
  1  2  1  0  0  0  0
  2  3  1  0  0  0  0
  3  4  1  0  0  0  0
  4  5  1  0  0  0  0
  1  5  1  0  0  0  0
  6  7  1  0  0  0  0
  7  8  1  0  0  0  0
  8  9  2  0  0  0  0
  9 10  1  0  0  0  0
 10 11  1  0  0  0  0
 11 12  1  0  0  0  0
 12 13  2  0  0  0  0
 13  2  1  0  0  0  0
  6  3  1  0  0  0  0
  5 14  2  0  0  0  0
 16 17  1  0  0  0  0
 17 18  1  0  0  0  0
 18 19  1  0  0  0  0
 19 20  1  0  0  0  0
 20 21  1  0  0  0  0
 16 21  1  0  0  0  0
 22 23  1  0  0  0  0
 21 22  1  1  0  0  0
 20 24  1  6  0  0  0
 19 25  1  1  0  0  0
 18 26  1  6  0  0  0
 17 15  1  1  0  0  0
 11 15  1  1  0  0  0
 12 27  1  0  0  0  0
  8 28  1  0  0  0  0
  4 29  1  6  0  0  0
  3 30  1  1  0  0  0
  2 31  1  1  0  0  0
M  END
>  <cdx:groupId>
97

>  <cdx:fragmentId>
15

$$$$
