302487.cdx
  Mrv1902 05222410242D          

 27 31  0  0  0  0            999 V2000
    5.6577   -7.5088    0.0000 C   0  0  0  0  0  0  0  0  0  0  0  0
    4.9432   -7.9213    0.0000 C   0  0  0  0  0  0  0  0  0  0  0  0
    4.9432   -8.7463    0.0000 C   0  0  1  0  0  0  0  0  0  0  0  0
    5.6577   -9.1588    0.0000 C   0  0  0  0  0  0  0  0  0  0  0  0
    6.3721   -8.7463    0.0000 C   0  0  0  0  0  0  0  0  0  0  0  0
    7.0866   -9.1588    0.0000 C   0  0  0  0  0  0  0  0  0  0  0  0
    7.8011   -8.7463    0.0000 C   0  0  0  0  0  0  0  0  0  0  0  0
    7.8011   -7.9213    0.0000 C   0  0  1  0  0  0  0  0  0  0  0  0
    8.5155   -7.5088    0.0000 C   0  0  2  0  0  0  0  0  0  0  0  0
    9.3002   -7.7637    0.0000 C   0  0  0  0  0  0  0  0  0  0  0  0
    9.7851   -7.0963    0.0000 C   0  0  0  0  0  0  0  0  0  0  0  0
    8.5155   -6.6838    0.0000 C   0  0  1  0  0  0  0  0  0  0  0  0
    7.8011   -6.2713    0.0000 C   0  0  0  0  0  0  0  0  0  0  0  0
    7.0866   -6.6838    0.0000 C   0  0  0  0  0  0  0  0  0  0  0  0
    7.0866   -7.5088    0.0000 C   0  0  2  0  0  0  0  0  0  0  0  0
    6.3721   -7.9213    0.0000 C   0  0  1  0  0  0  0  0  0  0  0  0
    8.5155   -5.8588    0.0000 C   0  0  0  0  0  0  0  0  0  0  0  0
    6.3721   -7.0963    0.0000 C   0  0  0  0  0  0  0  0  0  0  0  0
    4.2287   -9.1588    0.0000 O   0  0  0  0  0  0  0  0  0  0  0  0
    8.1410   -5.4388    0.0000 O   0  0  0  0  0  0  0  0  0  0  0  0
    9.6607   -5.3192    0.0000 C   0  0  0  0  0  0  0  0  0  0  0  0
   10.0353   -6.0543    0.0000 C   0  0  0  0  0  0  0  0  0  0  0  0
    8.9256   -5.6938    0.0000 C   0  0  0  0  0  0  0  0  0  0  0  0
    9.3002   -6.4288    0.0000 C   0  0  2  0  0  0  0  0  0  0  0  0
    8.5155   -8.3338    0.0000 H   0  0  0  0  0  0  0  0  0  0  0  0
    7.8011   -7.0963    0.0000 H   0  0  0  0  0  0  0  0  0  0  0  0
    7.0866   -8.3338    0.0000 H   0  0  0  0  0  0  0  0  0  0  0  0
 23 20  2  0  0  0  0
 24 22  1  6  0  0  0
 23 24  1  0  0  0  0
 23 21  1  0  0  0  0
 22 21  1  0  0  0  0
  1  2  1  0  0  0  0
  2  3  1  0  0  0  0
  3  4  1  0  0  0  0
  4  5  1  0  0  0  0
  5  6  2  0  0  0  0
  6  7  1  0  0  0  0
  7  8  1  0  0  0  0
  8  9  1  0  0  0  0
  9 10  1  0  0  0  0
 10 11  1  0  0  0  0
 11 24  1  0  0  0  0
 24 12  1  0  0  0  0
  9 12  1  0  0  0  0
 12 13  1  0  0  0  0
 13 14  1  0  0  0  0
 14 15  1  0  0  0  0
  8 15  1  0  0  0  0
 15 16  1  0  0  0  0
  5 16  1  0  0  0  0
  1 16  1  0  0  0  0
 12 17  1  1  0  0  0
 16 18  1  1  0  0  0
  3 19  1  1  0  0  0
  9 25  1  6  0  0  0
  8 26  1  1  0  0  0
 15 27  1  6  0  0  0
M  END
>  <cdx:groupId>
78

>  <cdx:fragmentId>
5

$$$$
