302443.cdx
  Mrv1902 05222410252D          

 31 35  0  0  0  0            999 V2000
    8.6462   -6.8799    0.0000 C   0  0  2  0  0  0  0  0  0  0  0  0
    8.6462   -7.7049    0.0000 C   0  0  2  0  0  0  0  0  0  0  0  0
    7.9317   -8.1174    0.0000 C   0  0  0  0  0  0  0  0  0  0  0  0
    7.2172   -7.7049    0.0000 C   0  0  0  0  0  0  0  0  0  0  0  0
    6.5028   -8.1174    0.0000 C   0  0  0  0  0  0  0  0  0  0  0  0
    5.7883   -7.7049    0.0000 C   0  0  0  0  0  0  0  0  0  0  0  0
    5.7883   -6.8799    0.0000 C   0  0  0  0  0  0  0  0  0  0  0  0
    6.5028   -6.4674    0.0000 C   0  0  0  0  0  0  0  0  0  0  0  0
    7.2172   -6.8799    0.0000 C   0  0  0  0  0  0  0  0  0  0  0  0
    7.9317   -6.4674    0.0000 O   0  0  0  0  0  0  0  0  0  0  0  0
    6.5028   -8.9424    0.0000 C   0  0  0  0  0  0  0  0  0  0  0  0
    5.7883   -9.3549    0.0000 C   0  0  0  0  0  0  0  0  0  0  0  0
    5.0738   -8.9424    0.0000 C   0  0  0  0  0  0  0  0  0  0  0  0
    4.3594   -9.3549    0.0000 C   0  0  0  0  0  0  0  0  0  0  0  0
    3.6449   -8.9424    0.0000 C   0  0  0  0  0  0  0  0  0  0  0  0
    3.6449   -8.1174    0.0000 C   0  0  0  0  0  0  0  0  0  0  0  0
    4.3594   -7.7049    0.0000 C   0  0  0  0  0  0  0  0  0  0  0  0
    5.0738   -8.1174    0.0000 C   0  0  0  0  0  0  0  0  0  0  0  0
    9.3607   -8.1174    0.0000 O   0  0  0  0  0  0  0  0  0  0  0  0
    2.9304   -9.3549    0.0000 O   0  0  0  0  0  0  0  0  0  0  0  0
    5.0738   -6.4674    0.0000 O   0  0  0  0  0  0  0  0  0  0  0  0
    4.3594   -6.8799    0.0000 C   0  0  0  0  0  0  0  0  0  0  0  0
    9.3607   -6.4674    0.0000 C   0  0  0  0  0  0  0  0  0  0  0  0
   10.0751   -6.8799    0.0000 C   0  0  0  0  0  0  0  0  0  0  0  0
   10.7896   -6.4674    0.0000 C   0  0  0  0  0  0  0  0  0  0  0  0
   10.7896   -5.6424    0.0000 C   0  0  0  0  0  0  0  0  0  0  0  0
   10.0751   -5.2299    0.0000 C   0  0  0  0  0  0  0  0  0  0  0  0
    9.3607   -5.6424    0.0000 C   0  0  0  0  0  0  0  0  0  0  0  0
   11.5041   -6.8799    0.0000 O   0  0  0  0  0  0  0  0  0  0  0  0
   12.2185   -6.4674    0.0000 C   0  0  0  0  0  0  0  0  0  0  0  0
   11.5041   -5.2299    0.0000 O   0  0  0  0  0  0  0  0  0  0  0  0
  1  2  1  0  0  0  0
  2  3  1  0  0  0  0
  3  4  1  0  0  0  0
  4  5  1  0  0  0  0
  5  6  2  0  0  0  0
  6  7  1  0  0  0  0
  7  8  2  0  0  0  0
  8  9  1  0  0  0  0
  4  9  2  0  0  0  0
  9 10  1  0  0  0  0
  1 10  1  0  0  0  0
 11 12  1  0  0  0  0
 12 13  1  0  0  0  0
 13 14  1  0  0  0  0
 14 15  2  0  0  0  0
 15 16  1  0  0  0  0
 16 17  2  0  0  0  0
 17 18  1  0  0  0  0
 13 18  2  0  0  0  0
 11  5  1  0  0  0  0
 18  6  1  0  0  0  0
  2 19  1  1  0  0  0
 15 20  1  0  0  0  0
 21 22  1  0  0  0  0
  7 21  1  0  0  0  0
 23 24  1  0  0  0  0
 24 25  2  0  0  0  0
 25 26  1  0  0  0  0
 26 27  2  0  0  0  0
 27 28  1  0  0  0  0
 23 28  2  0  0  0  0
 29 30  1  0  0  0  0
 25 29  1  0  0  0  0
 26 31  1  0  0  0  0
  1 23  1  6  0  0  0
M  END
>  <cdx:groupId>
99

>  <cdx:fragmentId>
5

$$$$
