302484.cdx
  Mrv1902 05222410232D          

 21 20  0  0  0  0            999 V2000
    1.8587   -7.0573    0.0000 C   0  0  0  0  0  0  0  0  0  0  0  0
    2.5732   -7.4698    0.0000 C   0  0  1  0  0  0  0  0  0  0  0  0
    3.2877   -7.0573    0.0000 C   0  0  1  0  0  0  0  0  0  0  0  0
    4.0021   -7.4698    0.0000 C   0  0  0  0  0  0  0  0  0  0  0  0
    4.7166   -7.0573    0.0000 C   0  0  0  0  0  0  0  0  0  0  0  0
    5.4311   -7.4698    0.0000 C   0  0  0  0  0  0  0  0  0  0  0  0
    6.1455   -7.0573    0.0000 C   0  0  0  0  0  0  0  0  0  0  0  0
    6.8600   -7.4698    0.0000 C   0  0  0  0  0  0  0  0  0  0  0  0
    7.5745   -7.0573    0.0000 C   0  0  0  0  0  0  0  0  0  0  0  0
    8.2890   -7.4698    0.0000 C   0  0  0  0  0  0  0  0  0  0  0  0
    9.0034   -7.0573    0.0000 C   0  0  0  0  0  0  0  0  0  0  0  0
    9.7179   -7.4698    0.0000 C   0  0  0  0  0  0  0  0  0  0  0  0
   10.4324   -7.0573    0.0000 C   0  0  0  0  0  0  0  0  0  0  0  0
   11.1468   -7.4698    0.0000 C   0  0  0  0  0  0  0  0  0  0  0  0
   11.8613   -7.0573    0.0000 C   0  0  0  0  0  0  0  0  0  0  0  0
   12.5758   -7.4698    0.0000 C   0  0  0  0  0  0  0  0  0  0  0  0
   13.2903   -7.0573    0.0000 C   0  0  0  0  0  0  0  0  0  0  0  0
   14.0047   -7.4698    0.0000 C   0  0  0  0  0  0  0  0  0  0  0  0
    1.1442   -7.4698    0.0000 O   0  0  0  0  0  0  0  0  0  0  0  0
    3.2877   -6.2323    0.0000 O   0  0  0  0  0  0  0  0  0  0  0  0
    2.5732   -8.2948    0.0000 N   0  0  0  0  0  0  0  0  0  0  0  0
  1  2  1  0  0  0  0
  2  3  1  0  0  0  0
  3  4  1  0  0  0  0
  4  5  1  0  0  0  0
  5  6  1  0  0  0  0
  6  7  1  0  0  0  0
  7  8  1  0  0  0  0
  8  9  1  0  0  0  0
  9 10  1  0  0  0  0
 10 11  1  0  0  0  0
 11 12  1  0  0  0  0
 12 13  1  0  0  0  0
 13 14  1  0  0  0  0
 14 15  1  0  0  0  0
 15 16  1  0  0  0  0
 16 17  1  0  0  0  0
 17 18  1  0  0  0  0
  1 19  1  0  0  0  0
  3 20  1  6  0  0  0
  2 21  1  1  0  0  0
M  END
>  <cdx:groupId>
64

>  <cdx:fragmentId>
5

$$$$
