302489.cdx
  Mrv1902 05222410232D          

 30 29  0  0  0  0            999 V2000
    1.8288   -8.4150    0.0000 C   0  0  0  0  0  0  0  0  0  0  0  0
    1.8288   -7.5900    0.0000 C   0  0  0  0  0  0  0  0  0  0  0  0
    2.5433   -7.1775    0.0000 C   0  0  0  0  0  0  0  0  0  0  0  0
    3.2577   -7.5900    0.0000 C   0  0  0  0  0  0  0  0  0  0  0  0
    3.9722   -7.1775    0.0000 C   0  0  0  0  0  0  0  0  0  0  0  0
    4.6867   -7.5900    0.0000 C   0  0  0  0  0  0  0  0  0  0  0  0
    5.4012   -7.1775    0.0000 C   0  0  0  0  0  0  0  0  0  0  0  0
    6.1156   -7.5900    0.0000 C   0  0  0  0  0  0  0  0  0  0  0  0
    6.8301   -7.1775    0.0000 C   0  0  0  0  0  0  0  0  0  0  0  0
    7.5446   -7.5900    0.0000 C   0  0  0  0  0  0  0  0  0  0  0  0
    8.2590   -7.1775    0.0000 C   0  0  0  0  0  0  0  0  0  0  0  0
    8.9735   -7.5900    0.0000 C   0  0  0  0  0  0  0  0  0  0  0  0
    9.6880   -7.1775    0.0000 C   0  0  0  0  0  0  0  0  0  0  0  0
   10.4025   -7.5900    0.0000 C   0  0  0  0  0  0  0  0  0  0  0  0
   11.1169   -7.1775    0.0000 C   0  0  0  0  0  0  0  0  0  0  0  0
   11.8314   -7.5900    0.0000 C   0  0  0  0  0  0  0  0  0  0  0  0
   12.5459   -7.1775    0.0000 C   0  0  0  0  0  0  0  0  0  0  0  0
   13.2603   -7.5900    0.0000 C   0  0  0  0  0  0  0  0  0  0  0  0
   13.9748   -7.1775    0.0000 C   0  0  0  0  0  0  0  0  0  0  0  0
   14.6893   -7.5900    0.0000 C   0  0  0  0  0  0  0  0  0  0  0  0
   15.4038   -7.1775    0.0000 C   0  0  0  0  0  0  0  0  0  0  0  0
   16.1182   -7.5900    0.0000 C   0  0  0  0  0  0  0  0  0  0  0  0
   16.8327   -7.1775    0.0000 C   0  0  0  0  0  0  0  0  0  0  0  0
   16.8327   -6.3525    0.0000 C   0  0  0  0  0  0  0  0  0  0  0  0
   17.5472   -7.5900    0.0000 C   0  0  0  0  0  0  0  0  0  0  0  0
   13.9748   -6.3525    0.0000 C   0  0  0  0  0  0  0  0  0  0  0  0
   11.1169   -6.3525    0.0000 C   0  0  0  0  0  0  0  0  0  0  0  0
    7.5446   -8.4150    0.0000 C   0  0  0  0  0  0  0  0  0  0  0  0
    4.6867   -8.4150    0.0000 C   0  0  0  0  0  0  0  0  0  0  0  0
    1.1143   -7.1775    0.0000 C   0  0  0  0  0  0  0  0  0  0  0  0
  1  2  1  0  0  0  0
  2  3  1  0  0  0  0
  3  4  1  0  0  0  0
  4  5  1  0  0  0  0
  5  6  1  0  0  0  0
  6  7  1  0  0  0  0
  7  8  1  0  0  0  0
  8  9  1  0  0  0  0
  9 10  1  0  0  0  0
 10 11  1  0  0  0  0
 11 12  1  0  0  0  0
 12 13  1  0  0  0  0
 13 14  1  0  0  0  0
 14 15  1  0  0  0  0
 15 16  1  0  0  0  0
 16 17  1  0  0  0  0
 17 18  1  0  0  0  0
 18 19  1  0  0  0  0
 19 20  1  0  0  0  0
 20 21  1  0  0  0  0
 21 22  1  0  0  0  0
 22 23  1  0  0  0  0
 23 24  1  0  0  0  0
 23 25  1  0  0  0  0
 19 26  1  0  0  0  0
 15 27  1  0  0  0  0
 10 28  1  0  0  0  0
  6 29  1  0  0  0  0
  2 30  1  0  0  0  0
M  END
>  <cdx:groupId>
91

>  <cdx:fragmentId>
5

$$$$
