302413.cdx
  Mrv1902 05222410192D          

 42 48  0  0  0  0            999 V2000
    6.5610   -5.8977    0.0000 C   0  0  0  0  0  0  0  0  0  0  0  0
    5.8466   -6.3102    0.0000 C   0  0  0  0  0  0  0  0  0  0  0  0
    5.1321   -5.8977    0.0000 C   0  0  0  0  0  0  0  0  0  0  0  0
    4.4176   -6.3102    0.0000 C   0  0  0  0  0  0  0  0  0  0  0  0
    4.4176   -7.1352    0.0000 C   0  0  0  0  0  0  0  0  0  0  0  0
    5.1321   -7.5477    0.0000 C   0  0  0  0  0  0  0  0  0  0  0  0
    5.8466   -7.1352    0.0000 C   0  0  0  0  0  0  0  0  0  0  0  0
    6.5610   -7.5477    0.0000 C   0  0  0  0  0  0  0  0  0  0  0  0
    7.2755   -7.1352    0.0000 C   0  0  0  0  0  0  0  0  0  0  0  0
    7.9900   -7.5477    0.0000 C   0  0  0  0  0  0  0  0  0  0  0  0
    8.7045   -7.1352    0.0000 C   0  0  0  0  0  0  0  0  0  0  0  0
    8.7045   -6.3102    0.0000 C   0  0  0  0  0  0  0  0  0  0  0  0
    7.9900   -5.8977    0.0000 C   0  0  0  0  0  0  0  0  0  0  0  0
    7.9911   -5.0727    0.0000 C   0  0  0  0  0  0  0  0  0  0  0  0
    7.2765   -4.6605    0.0000 O   0  0  0  0  0  0  0  0  0  0  0  0
    6.5619   -5.0727    0.0000 C   0  0  1  0  0  0  0  0  0  0  0  0
    7.2755   -6.3102    0.0000 C   0  0  0  0  0  0  0  0  0  0  0  0
    8.7055   -4.6602    0.0000 O   0  0  0  0  0  0  0  0  0  0  0  0
    6.5610   -8.3727    0.0000 C   0  0  0  0  0  0  0  0  0  0  0  0
    7.2755   -8.7852    0.0000 C   0  0  0  0  0  0  0  0  0  0  0  0
    7.2755   -9.6102    0.0000 C   0  0  0  0  0  0  0  0  0  0  0  0
    6.5610  -10.0227    0.0000 C   0  0  0  0  0  0  0  0  0  0  0  0
    5.8466   -9.6102    0.0000 C   0  0  0  0  0  0  0  0  0  0  0  0
    5.8466   -8.7852    0.0000 C   0  0  0  0  0  0  0  0  0  0  0  0
    6.5610  -10.8477    0.0000 O   0  0  0  0  0  0  0  0  0  0  0  0
    5.8466  -11.2602    0.0000 C   0  0  0  0  0  0  0  0  0  0  0  0
    3.7032   -5.8977    0.0000 O   0  0  0  0  0  0  0  0  0  0  0  0
    2.9887   -6.3102    0.0000 C   0  0  0  0  0  0  0  0  0  0  0  0
    5.8474   -4.6602    0.0000 C   0  0  0  0  0  0  0  0  0  0  0  0
    5.1329   -5.0727    0.0000 C   0  0  0  0  0  0  0  0  0  0  0  0
    4.4184   -4.6602    0.0000 C   0  0  0  0  0  0  0  0  0  0  0  0
    4.4184   -3.8352    0.0000 C   0  0  0  0  0  0  0  0  0  0  0  0
    5.1329   -3.4227    0.0000 C   0  0  0  0  0  0  0  0  0  0  0  0
    5.8474   -3.8352    0.0000 C   0  0  0  0  0  0  0  0  0  0  0  0
    3.7040   -3.4227    0.0000 O   0  0  0  0  0  0  0  0  0  0  0  0
    9.4189   -7.5477    0.0000 C   0  0  0  0  0  0  0  0  0  0  0  0
   10.1334   -7.1352    0.0000 C   0  0  0  0  0  0  0  0  0  0  0  0
   10.8479   -7.5477    0.0000 C   0  0  0  0  0  0  0  0  0  0  0  0
   10.8479   -8.3727    0.0000 C   0  0  0  0  0  0  0  0  0  0  0  0
   10.1334   -8.7852    0.0000 C   0  0  0  0  0  0  0  0  0  0  0  0
    9.4189   -8.3727    0.0000 C   0  0  0  0  0  0  0  0  0  0  0  0
   11.5623   -8.7852    0.0000 O   0  0  0  0  0  0  0  0  0  0  0  0
  1  2  1  0  0  0  0
  2  3  1  0  0  0  0
  3  4  2  0  0  0  0
  4  5  1  0  0  0  0
  5  6  2  0  0  0  0
  6  7  1  0  0  0  0
  7  8  1  0  0  0  0
  8  9  2  0  0  0  0
  9 10  1  0  0  0  0
 10 11  2  0  0  0  0
 11 12  1  0  0  0  0
 12 13  2  0  0  0  0
 13 14  1  0  0  0  0
 14 15  1  0  0  0  0
 15 16  1  0  0  0  0
  1 16  1  0  0  0  0
  1 17  2  0  0  0  0
 17  9  1  0  0  0  0
  2  7  2  0  0  0  0
 13 17  1  0  0  0  0
 14 18  2  0  0  0  0
 19 20  1  0  0  0  0
 20 21  2  0  0  0  0
 21 22  1  0  0  0  0
 22 23  2  0  0  0  0
 23 24  1  0  0  0  0
 19 24  2  0  0  0  0
 25 26  1  0  0  0  0
 22 25  1  0  0  0  0
  8 19  1  0  0  0  0
 27 28  1  0  0  0  0
  4 27  1  0  0  0  0
 29 30  1  0  0  0  0
 30 31  2  0  0  0  0
 31 32  1  0  0  0  0
 32 33  2  0  0  0  0
 33 34  1  0  0  0  0
 29 34  2  0  0  0  0
 32 35  1  0  0  0  0
 16 29  1  6  0  0  0
 36 37  1  0  0  0  0
 37 38  2  0  0  0  0
 38 39  1  0  0  0  0
 39 40  2  0  0  0  0
 40 41  1  0  0  0  0
 36 41  2  0  0  0  0
 39 42  1  0  0  0  0
 11 36  1  0  0  0  0
M  END
>  <cdx:groupId>
134

>  <cdx:fragmentId>
5

$$$$
