30248.cdx
  Mrv1902 05222410262D          

 14 14  0  0  0  0            999 V2000
    3.3866   -2.9367    0.0000 C   0  0  0  0  0  0  0  0  0  0  0  0
    2.6721   -3.3492    0.0000 C   0  0  0  0  0  0  0  0  0  0  0  0
    3.3866   -2.1117    0.0000 O   0  0  0  0  0  0  0  0  0  0  0  0
    4.1010   -3.3492    0.0000 O   0  0  0  0  0  0  0  0  0  0  0  0
    4.8155   -2.9367    0.0000 C   0  0  0  0  0  0  0  0  0  0  0  0
    5.5300   -3.3492    0.0000 C   0  0  0  0  0  0  0  0  0  0  0  0
    6.2445   -2.9367    0.0000 C   0  0  0  0  0  0  0  0  0  0  0  0
    6.9589   -3.3492    0.0000 C   0  0  0  0  0  0  0  0  0  0  0  0
    6.9589   -4.1742    0.0000 C   0  0  0  0  0  0  0  0  0  0  0  0
    7.6734   -2.9367    0.0000 C   0  0  0  0  0  0  0  0  0  0  0  0
    6.2445   -2.1117    0.0000 C   0  0  0  0  0  0  0  0  0  0  0  0
    5.5300   -1.6992    0.0000 C   0  0  0  0  0  0  0  0  0  0  0  0
    4.8155   -2.1117    0.0000 C   0  0  0  0  0  0  0  0  0  0  0  0
    4.1010   -1.6992    0.0000 C   0  0  0  0  0  0  0  0  0  0  0  0
  1  2  1  0  0  0  0
  1  3  2  0  0  0  0
  1  4  1  0  0  0  0
  5  6  1  0  0  0  0
  6  7  1  0  0  0  0
  7  8  1  0  0  0  0
  8  9  2  0  0  0  0
  8 10  1  0  0  0  0
  7 11  1  0  0  0  0
 11 12  1  0  0  0  0
 12 13  1  0  0  0  0
 13 14  1  0  0  0  0
  5 13  1  0  0  0  0
  4  5  1  0  0  0  0
M  END
>  <cdx:groupId>
44

>  <cdx:fragmentId>
13

$$$$
