302479.cdx
  Mrv1902 05222410242D          

 42 43  0  0  0  0            999 V2000
   11.1041  -11.2179    0.0000 O   0  0  0  0  0  0  0  0  0  0  0  0
    8.9556   -8.3377    0.0000 C   0  0  1  0  0  0  0  0  0  0  0  0
    8.2344   -7.9371    0.0000 C   0  0  1  0  0  0  0  0  0  0  0  0
    8.2208   -7.1122    0.0000 C   0  0  0  0  0  0  0  0  0  0  0  0
    8.9283   -6.6879    0.0000 C   0  0  0  0  0  0  0  0  0  0  0  0
    9.6495   -7.0885    0.0000 C   0  0  0  0  0  0  0  0  0  0  0  0
    9.6632   -7.9134    0.0000 O   0  0  0  0  0  0  0  0  0  0  0  0
    7.4320   -6.8703    0.0000 C   0  0  0  0  0  0  0  0  0  0  0  0
    6.9582   -7.5457    0.0000 C   0  0  1  0  0  0  0  0  0  0  0  0
    7.4541   -8.2050    0.0000 C   0  0  2  0  0  0  0  0  0  0  0  0
    6.8503   -8.7671    0.0000 C   0  0  0  0  0  0  0  0  0  0  0  0
    6.0258   -8.7952    0.0000 O   0  0  0  0  0  0  0  0  0  0  0  0
    5.6379   -9.5233    0.0000 C   0  0  0  0  0  0  0  0  0  0  0  0
    4.8133   -9.5515    0.0000 C   0  0  0  0  0  0  0  0  0  0  0  0
    4.4254  -10.2796    0.0000 C   0  0  0  0  0  0  0  0  0  0  0  0
    4.8621  -10.9796    0.0000 C   0  0  0  0  0  0  0  0  0  0  0  0
    6.0745  -10.2233    0.0000 O   0  0  0  0  0  0  0  0  0  0  0  0
    3.6009  -10.3077    0.0000 C   0  0  0  0  0  0  0  0  0  0  0  0
    8.9146   -5.8630    0.0000 C   0  0  0  0  0  0  0  0  0  0  0  0
    9.6222   -5.4387    0.0000 O   0  0  0  0  0  0  0  0  0  0  0  0
    9.6085   -4.6138    0.0000 C   0  0  0  0  0  0  0  0  0  0  0  0
   10.3160   -4.1895    0.0000 C   0  0  0  0  0  0  0  0  0  0  0  0
   10.3023   -3.3646    0.0000 C   0  0  0  0  0  0  0  0  0  0  0  0
    9.6031   -2.9269    0.0000 C   0  0  0  0  0  0  0  0  0  0  0  0
    8.9092   -4.1760    0.0000 O   0  0  0  0  0  0  0  0  0  0  0  0
   11.0099   -2.9404    0.0000 C   0  0  0  0  0  0  0  0  0  0  0  0
    6.1333   -7.5593    0.0000 O   0  0  0  0  0  0  0  0  0  0  0  0
    5.4189   -7.1468    0.0000 C   0  0  0  0  0  0  0  0  0  0  0  0
    4.7044   -7.5592    0.0000 C   0  0  0  0  0  0  0  0  0  0  0  0
    3.9900   -7.1467    0.0000 C   0  0  0  0  0  0  0  0  0  0  0  0
    3.2755   -7.5591    0.0000 C   0  0  0  0  0  0  0  0  0  0  0  0
    5.4190   -6.3218    0.0000 O   0  0  0  0  0  0  0  0  0  0  0  0
    3.9900   -6.3217    0.0000 C   0  0  0  0  0  0  0  0  0  0  0  0
    7.6390   -9.0090    0.0000 O   0  0  0  0  0  0  0  0  0  0  0  0
    8.2344   -8.7621    0.0000 H   0  0  0  0  0  0  0  0  0  0  0  0
    9.9831  -11.5097    0.0000 C   0  0  0  0  0  0  0  0  0  0  0  0
    8.9693   -9.1625    0.0000 O   0  0  0  0  0  0  0  0  0  0  0  0
   10.4193   -9.1454    0.0000 O   0  0  0  0  0  0  0  0  0  0  0  0
   10.8081  -10.0807    0.0000 C   0  0  0  0  0  0  0  0  0  0  0  0
   10.3956  -10.7952    0.0000 C   0  0  0  0  0  0  0  0  0  0  0  0
    9.6871  -10.3725    0.0000 C   0  0  0  0  0  0  0  0  0  0  0  0
    9.6990   -9.5476    0.0000 C   0  0  0  0  0  0  0  0  0  0  0  0
 40  1  1  0  0  0  0
 40 36  1  0  0  0  0
 42 37  1  0  0  0  0
 42 38  2  0  0  0  0
 40 39  1  0  0  0  0
 41 40  1  0  0  0  0
 42 41  1  0  0  0  0
  2  3  1  0  0  0  0
  3  4  1  0  0  0  0
  4  5  1  0  0  0  0
  5  6  2  0  0  0  0
  6  7  1  0  0  0  0
  2  7  1  0  0  0  0
  8  9  1  0  0  0  0
  9 10  1  0  0  0  0
 10  3  1  0  0  0  0
  8  4  2  0  0  0  0
 13 14  1  0  0  0  0
 14 15  1  0  0  0  0
 15 16  1  0  0  0  0
 13 17  2  0  0  0  0
 12 13  1  0  0  0  0
 15 18  1  0  0  0  0
 11 12  1  0  0  0  0
 10 11  1  1  0  0  0
 21 22  1  0  0  0  0
 22 23  1  0  0  0  0
 23 24  1  0  0  0  0
 21 25  2  0  0  0  0
 20 21  1  0  0  0  0
 23 26  1  0  0  0  0
 19 20  1  0  0  0  0
  5 19  1  0  0  0  0
 28 29  1  0  0  0  0
 29 30  1  0  0  0  0
 30 31  1  0  0  0  0
 28 32  2  0  0  0  0
 27 28  1  0  0  0  0
 30 33  1  0  0  0  0
  9 27  1  1  0  0  0
 10 34  1  6  0  0  0
  2 37  1  1  0  0  0
  3 35  1  1  0  0  0
M  END
>  <cdx:groupId>
129

>  <cdx:fragmentId>
21

$$$$
