302495.cdx
  Mrv1902 05222410252D          

 57 65  0  0  0  0            999 V2000
   11.5557   -6.9063    0.0000 O   0  0  0  0  0  0  0  0  0  0  0  0
   12.3312   -6.6248    0.0000 C   0  0  1  0  0  0  0  0  0  0  0  0
   12.9627   -7.1557    0.0000 C   0  0  2  0  0  0  0  0  0  0  0  0
   12.8187   -7.9680    0.0000 C   0  0  2  0  0  0  0  0  0  0  0  0
   12.0432   -8.2495    0.0000 C   0  0  0  0  0  0  0  0  0  0  0  0
   11.4117   -7.7186    0.0000 C   0  0  2  0  0  0  0  0  0  0  0  0
   13.4502   -8.4989    0.0000 O   0  0  0  0  0  0  0  0  0  0  0  0
   12.4752   -5.8125    0.0000 C   0  0  0  0  0  0  0  0  0  0  0  0
   13.7382   -6.8742    0.0000 O   0  0  0  0  0  0  0  0  0  0  0  0
   14.2257   -8.2175    0.0000 O   0  0  0  0  0  0  0  0  0  0  0  0
   14.3697   -7.4051    0.0000 C   0  0  2  0  0  0  0  0  0  0  0  0
   15.1452   -7.1237    0.0000 C   0  0  0  0  0  0  0  0  0  0  0  0
   15.7767   -7.6545    0.0000 C   0  0  2  0  0  0  0  0  0  0  0  0
   15.6327   -8.4669    0.0000 C   0  0  2  0  0  0  0  0  0  0  0  0
   14.8572   -8.7483    0.0000 C   0  0  2  0  0  0  0  0  0  0  0  0
   14.7132   -9.5607    0.0000 C   0  0  0  0  0  0  0  0  0  0  0  0
   16.5522   -7.3731    0.0000 O   0  0  0  0  0  0  0  0  0  0  0  0
   17.1837   -7.9040    0.0000 C   0  0  0  0  0  0  0  0  0  0  0  0
   16.2642   -8.9977    0.0000 O   0  0  0  0  0  0  0  0  0  0  0  0
   10.6362   -8.0001    0.0000 O   0  0  0  0  0  0  0  0  0  0  0  0
    8.5977   -7.2198    0.0000 O   0  0  0  0  0  0  0  0  0  0  0  0
    9.2292   -7.7507    0.0000 C   0  0  1  0  0  0  0  0  0  0  0  0
   10.0047   -7.4692    0.0000 C   0  0  2  0  0  0  0  0  0  0  0  0
   10.1487   -6.6569    0.0000 C   0  0  1  0  0  0  0  0  0  0  0  0
    9.5172   -6.1260    0.0000 C   0  0  0  0  0  0  0  0  0  0  0  0
    8.7417   -6.4075    0.0000 C   0  0  2  0  0  0  0  0  0  0  0  0
    9.0852   -8.5630    0.0000 C   0  0  0  0  0  0  0  0  0  0  0  0
   10.9242   -6.3754    0.0000 O   0  0  0  0  0  0  0  0  0  0  0  0
   11.0682   -5.5631    0.0000 C   0  0  0  0  0  0  0  0  0  0  0  0
    8.1102   -5.8766    0.0000 O   0  0  0  0  0  0  0  0  0  0  0  0
    3.4572   -7.5653    0.0000 C   0  0  2  0  0  0  0  0  0  0  0  0
    3.6012   -6.7530    0.0000 C   0  0  0  0  0  0  0  0  0  0  0  0
    4.3767   -6.4716    0.0000 C   0  0  0  0  0  0  0  0  0  0  0  0
    5.0082   -7.0024    0.0000 C   0  0  2  0  0  0  0  0  0  0  0  0
    5.7837   -6.7210    0.0000 C   0  0  1  0  0  0  0  0  0  0  0  0
    5.9277   -5.9086    0.0000 C   0  0  0  0  0  0  0  0  0  0  0  0
    6.7032   -5.6272    0.0000 C   0  0  0  0  0  0  0  0  0  0  0  0
    7.3347   -6.1580    0.0000 C   0  0  1  0  0  0  0  0  0  0  0  0
    7.1907   -6.9704    0.0000 C   0  0  0  0  0  0  0  0  0  0  0  0
    6.4152   -7.2518    0.0000 C   0  0  0  0  0  0  0  0  0  0  0  0
    6.2712   -8.0642    0.0000 C   0  0  0  0  0  0  0  0  0  0  0  0
    5.4957   -8.3456    0.0000 C   0  0  0  0  0  0  0  0  0  0  0  0
    4.8642   -7.8148    0.0000 C   0  0  0  0  0  0  0  0  0  0  0  0
    4.0887   -8.0962    0.0000 C   0  0  0  0  0  0  0  0  0  0  0  0
    3.7789   -8.8609    0.0000 O   0  0  0  0  0  0  0  0  0  0  0  0
    2.9560   -8.8026    0.0000 C   0  0  2  0  0  0  0  0  0  0  0  0
    2.1332   -8.8757    0.0000 C   0  0  0  0  0  0  0  0  0  0  0  0
    1.6966   -8.1757    0.0000 O   0  0  0  0  0  0  0  0  0  0  0  0
    2.1256   -7.4710    0.0000 C   0  0  2  0  0  0  0  0  0  0  0  0
    2.4354   -6.7064    0.0000 O   0  0  0  0  0  0  0  0  0  0  0  0
    3.2583   -6.7647    0.0000 C   0  0  0  0  0  0  0  0  0  0  0  0
    2.7571   -8.0019    0.0000 C   0  0  2  0  0  0  0  0  0  0  0  0
    1.4112   -7.0585    0.0000 C   0  0  0  0  0  0  0  0  0  0  0  0
    5.7837   -7.5460    0.0000 C   0  0  0  0  0  0  0  0  0  0  0  0
    5.0082   -6.1774    0.0000 H   0  0  0  0  0  0  0  0  0  0  0  0
    2.9560   -9.6276    0.0000 H   0  0  0  0  0  0  0  0  0  0  0  0
    2.7571   -7.1769    0.0000 H   0  0  0  0  0  0  0  0  0  0  0  0
  1  2  1  0  0  0  0
  2  3  1  0  0  0  0
  3  4  1  0  0  0  0
  4  5  1  0  0  0  0
  5  6  1  0  0  0  0
  1  6  1  0  0  0  0
  4  7  1  1  0  0  0
  2  8  1  6  0  0  0
 10 11  1  0  0  0  0
 11 12  1  0  0  0  0
 12 13  1  0  0  0  0
 13 14  1  0  0  0  0
 14 15  1  0  0  0  0
 10 15  1  0  0  0  0
 15 16  1  6  0  0  0
 17 18  1  0  0  0  0
 13 17  1  1  0  0  0
 14 19  1  1  0  0  0
 11  9  1  1  0  0  0
  3  9  1  1  0  0  0
 21 22  1  0  0  0  0
 22 23  1  0  0  0  0
 23 24  1  0  0  0  0
 24 25  1  0  0  0  0
 25 26  1  0  0  0  0
 21 26  1  0  0  0  0
 22 27  1  1  0  0  0
 28 29  1  0  0  0  0
 24 28  1  1  0  0  0
 31 32  1  1  0  0  0
 32 33  1  0  0  0  0
 33 34  1  0  0  0  0
 34 35  1  0  0  0  0
 35 36  1  0  0  0  0
 36 37  1  0  0  0  0
 37 38  1  0  0  0  0
 38 39  1  0  0  0  0
 39 40  2  0  0  0  0
 40 41  1  0  0  0  0
 41 42  2  0  0  0  0
 42 43  1  0  0  0  0
 43 44  2  0  0  0  0
 44 45  1  0  0  0  0
 45 46  1  0  0  0  0
 46 47  1  0  0  0  0
 47 48  1  0  0  0  0
 48 49  1  0  0  0  0
 49 50  1  0  0  0  0
 50 51  1  0  0  0  0
 31 51  1  6  0  0  0
 31 52  1  0  0  0  0
 52 46  1  0  0  0  0
 31 44  1  0  0  0  0
 34 43  1  0  0  0  0
 35 40  1  0  0  0  0
 49 52  1  0  0  0  0
 49 53  1  1  0  0  0
 35 54  1  6  0  0  0
 38 30  1  6  0  0  0
 26 30  1  1  0  0  0
 23 20  1  6  0  0  0
  6 20  1  6  0  0  0
 34 55  1  1  0  0  0
 46 56  1  1  0  0  0
 52 57  1  1  0  0  0
M  END
>  <cdx:groupId>
181

>  <cdx:fragmentId>
65

$$$$
