302415.cdx
  Mrv1902 05222410202D          

 16 16  0  0  0  0            999 V2000
    8.1360   -6.4677    0.0000 C   0  0  0  0  0  0  0  0  0  0  0  0
    8.1360   -7.2927    0.0000 C   0  0  0  0  0  0  0  0  0  0  0  0
    8.8505   -7.7052    0.0000 C   0  0  0  0  0  0  0  0  0  0  0  0
    9.5650   -7.2927    0.0000 C   0  0  0  0  0  0  0  0  0  0  0  0
    9.5650   -6.4677    0.0000 C   0  0  0  0  0  0  0  0  0  0  0  0
    8.8505   -6.0552    0.0000 C   0  0  0  0  0  0  0  0  0  0  0  0
    9.2630   -8.4197    0.0000 C   0  0  0  0  0  0  0  0  0  0  0  0
    7.4216   -6.0552    0.0000 C   0  0  0  0  0  0  0  0  0  0  0  0
    8.4380   -8.4197    0.0000 C   0  0  0  0  0  0  0  0  0  0  0  0
    7.6130   -8.4197    0.0000 C   0  0  0  0  0  0  0  0  0  0  0  0
    7.4216   -7.7052    0.0000 C   0  0  0  0  0  0  0  0  0  0  0  0
    6.7071   -7.2927    0.0000 C   0  0  0  0  0  0  0  0  0  0  0  0
    5.9926   -7.7052    0.0000 C   0  0  0  0  0  0  0  0  0  0  0  0
    5.9926   -8.5302    0.0000 C   0  0  0  0  0  0  0  0  0  0  0  0
    5.2781   -7.2927    0.0000 C   0  0  0  0  0  0  0  0  0  0  0  0
    6.7071   -6.4677    0.0000 C   0  0  0  0  0  0  0  0  0  0  0  0
  1  2  2  0  0  0  0
  2  3  1  0  0  0  0
  3  4  1  0  0  0  0
  4  5  1  0  0  0  0
  5  6  1  0  0  0  0
  1  6  1  0  0  0  0
  3  7  1  0  0  0  0
  1  8  1  0  0  0  0
  9 10  1  0  0  0  0
  3  9  1  0  0  0  0
 11 12  1  0  0  0  0
 12 13  1  0  0  0  0
 13 14  2  0  0  0  0
 13 15  1  0  0  0  0
 12 16  1  0  0  0  0
  2 11  1  0  0  0  0
M  END
>  <cdx:groupId>
50

>  <cdx:fragmentId>
5

$$$$
