302480.cdx
  Mrv1902 05222410252D          

 39 40  0  0  0  0            999 V2000
    6.5484   -8.6673    0.0000 C   0  0  0  0  0  0  0  0  0  0  0  0
    5.7235   -8.6831    0.0000 O   0  0  0  0  0  0  0  0  0  0  0  0
    5.1007   -7.0493    0.0000 C   0  0  0  0  0  0  0  0  0  0  0  0
    4.3795   -7.4498    0.0000 C   0  0  0  0  0  0  0  0  0  0  0  0
    3.6720   -7.0254    0.0000 C   0  0  0  0  0  0  0  0  0  0  0  0
    2.9507   -7.4260    0.0000 C   0  0  0  0  0  0  0  0  0  0  0  0
    2.2432   -7.0016    0.0000 C   0  0  0  0  0  0  0  0  0  0  0  0
    5.1145   -6.2244    0.0000 O   0  0  0  0  0  0  0  0  0  0  0  0
    5.8082   -7.4736    0.0000 O   0  0  0  0  0  0  0  0  0  0  0  0
    7.9162   -8.6357    0.0000 H   0  0  0  0  0  0  0  0  0  0  0  0
    9.9250   -4.0236    0.0000 C   0  0  0  0  0  0  0  0  0  0  0  0
    8.4970   -4.0749    0.0000 O   0  0  0  0  0  0  0  0  0  0  0  0
    9.2258   -4.4615    0.0000 C   0  0  0  0  0  0  0  0  0  0  0  0
    9.2554   -5.2860    0.0000 O   0  0  0  0  0  0  0  0  0  0  0  0
    8.5562   -5.7238    0.0000 C   0  0  0  0  0  0  0  0  0  0  0  0
    7.3416   -8.8939    0.0000 O   0  0  0  0  0  0  0  0  0  0  0  0
    3.2765  -10.1594    0.0000 C   0  0  0  0  0  0  0  0  0  0  0  0
    5.7510  -10.1118    0.0000 O   0  0  0  0  0  0  0  0  0  0  0  0
    4.5275  -10.8499    0.0000 C   0  0  0  0  0  0  0  0  0  0  0  0
    4.1013  -10.1435    0.0000 C   0  0  0  0  0  0  0  0  0  0  0  0
    4.5000   -9.4213    0.0000 C   0  0  0  0  0  0  0  0  0  0  0  0
    5.3248   -9.4054    0.0000 C   0  0  0  0  0  0  0  0  0  0  0  0
   10.8242  -10.2485    0.0000 C   0  0  0  0  0  0  0  0  0  0  0  0
   10.1036   -9.0146    0.0000 O   0  0  0  0  0  0  0  0  0  0  0  0
   10.1160  -11.4895    0.0000 C   0  0  0  0  0  0  0  0  0  0  0  0
   10.1118  -10.6645    0.0000 C   0  0  0  0  0  0  0  0  0  0  0  0
    9.3953  -10.2556    0.0000 C   0  0  0  0  0  0  0  0  0  0  0  0
    9.3912   -9.4306    0.0000 C   0  0  0  0  0  0  0  0  0  0  0  0
    8.6747   -9.0217    0.0000 O   0  0  0  0  0  0  0  0  0  0  0  0
    7.1413   -8.0936    0.0000 C   0  0  1  0  0  0  0  0  0  0  0  0
    6.6327   -7.4440    0.0000 C   0  0  2  0  0  0  0  0  0  0  0  0
    7.0934   -6.7596    0.0000 C   0  0  0  0  0  0  0  0  0  0  0  0
    9.3443   -7.7594    0.0000 O   0  0  0  0  0  0  0  0  0  0  0  0
    9.3146   -6.9349    0.0000 C   0  0  0  0  0  0  0  0  0  0  0  0
    8.5858   -6.5483    0.0000 C   0  0  0  0  0  0  0  0  0  0  0  0
    7.8866   -6.9862    0.0000 C   0  0  0  0  0  0  0  0  0  0  0  0
    7.9162   -7.8107    0.0000 C   0  0  2  0  0  0  0  0  0  0  0  0
    8.6450   -8.1973    0.0000 C   0  0  2  0  0  0  0  0  0  0  0  0
    3.6857   -6.2006    0.0000 C   0  0  0  0  0  0  0  0  0  0  0  0
 37 10  1  1  0  0  0
 31  9  1  1  0  0  0
 35 15  1  0  0  0  0
 15 14  1  0  0  0  0
 14 13  1  0  0  0  0
 13 11  1  0  0  0  0
 13 12  2  0  0  0  0
 30 16  1  6  0  0  0
 30  1  1  1  0  0  0
 20 17  1  0  0  0  0
 22 18  2  0  0  0  0
 20 19  1  0  0  0  0
 21 20  1  0  0  0  0
 22 21  1  0  0  0  0
 38 29  1  1  0  0  0
 26 23  1  0  0  0  0
 29 28  1  0  0  0  0
 28 24  2  0  0  0  0
 26 25  1  0  0  0  0
 27 26  2  0  0  0  0
 28 27  1  0  0  0  0
 32 36  2  0  0  0  0
 30 37  1  0  0  0  0
 31 30  1  0  0  0  0
 32 31  1  0  0  0  0
 38 33  1  0  0  0  0
 34 33  1  0  0  0  0
 35 34  2  0  0  0  0
 36 35  1  0  0  0  0
 37 36  1  0  0  0  0
 38 37  1  0  0  0  0
  2 22  1  0  0  0  0
  1  2  1  0  0  0  0
  3  4  1  0  0  0  0
  4  5  1  0  0  0  0
  5  6  1  0  0  0  0
  6  7  1  0  0  0  0
  3  8  2  0  0  0  0
  3  9  1  0  0  0  0
  5 39  1  0  0  0  0
M  END
>  <cdx:groupId>
120

>  <cdx:fragmentId>
21

$$$$
