302488.cdx
  Mrv1902 05222410232D          

 16 17  0  0  0  0            999 V2000
    6.0332   -7.9319    0.0000 C   0  0  0  0  0  0  0  0  0  0  0  0
    5.3658   -7.4470    0.0000 C   0  0  0  0  0  0  0  0  0  0  0  0
    5.6207   -6.6624    0.0000 C   0  0  0  0  0  0  0  0  0  0  0  0
    6.4457   -6.6624    0.0000 C   0  0  1  0  0  0  0  0  0  0  0  0
    6.7007   -7.4470    0.0000 C   0  0  2  0  0  0  0  0  0  0  0  0
    7.3138   -6.8949    0.0000 C   0  0  0  0  0  0  0  0  0  0  0  0
    8.0984   -7.1499    0.0000 C   0  0  1  0  0  0  0  0  0  0  0  0
    8.2699   -7.9569    0.0000 C   0  0  0  0  0  0  0  0  0  0  0  0
    7.6568   -8.5089    0.0000 C   0  0  0  0  0  0  0  0  0  0  0  0
    6.8722   -8.2539    0.0000 C   0  0  0  0  0  0  0  0  0  0  0  0
    6.5320   -5.8419    0.0000 O   0  0  0  0  0  0  0  0  0  0  0  0
    8.5400   -5.7909    0.0000 C   0  0  0  0  0  0  0  0  0  0  0  0
    8.7115   -6.5978    0.0000 C   0  0  0  0  0  0  0  0  0  0  0  0
    9.4961   -6.8528    0.0000 C   0  0  0  0  0  0  0  0  0  0  0  0
    6.2591   -8.8060    0.0000 C   0  0  0  0  0  0  0  0  0  0  0  0
    7.1994   -6.3268    0.0000 C   0  0  0  0  0  0  0  0  0  0  0  0
  1  2  1  0  0  0  0
  2  3  1  0  0  0  0
  3  4  1  0  0  0  0
  4  5  1  0  0  0  0
  5  6  1  6  0  0  0
  6  7  1  0  0  0  0
  7  8  1  0  0  0  0
  8  9  1  0  0  0  0
  9 10  1  0  0  0  0
  1  5  1  0  0  0  0
  5 10  1  1  0  0  0
  4 11  1  6  0  0  0
 12 13  1  0  0  0  0
 13 14  1  0  0  0  0
  7 13  1  6  0  0  0
 10 15  2  0  0  0  0
  4 16  1  1  0  0  0
M  END
>  <cdx:groupId>
51

>  <cdx:fragmentId>
5

$$$$
