302468.cdx
  Mrv1902 05222410252D          

 21 19  0  0  0  0            999 V2000
   13.5893   -7.1137    0.0000 Na  0  3  0  0  0  0  0  0  0  0  0  0
   12.6004   -7.4987    0.0000 C   0  0  0  0  0  0  0  0  0  0  0  0
   11.8859   -7.9112    0.0000 C   0  0  0  0  0  0  0  0  0  0  0  0
   11.1714   -7.4987    0.0000 C   0  0  0  0  0  0  0  0  0  0  0  0
   10.4570   -7.9112    0.0000 C   0  0  0  0  0  0  0  0  0  0  0  0
    9.7425   -7.4987    0.0000 C   0  0  0  0  0  0  0  0  0  0  0  0
    9.0280   -7.9112    0.0000 C   0  0  0  0  0  0  0  0  0  0  0  0
    8.3135   -7.4987    0.0000 C   0  0  0  0  0  0  0  0  0  0  0  0
    7.5991   -7.9112    0.0000 C   0  0  0  0  0  0  0  0  0  0  0  0
    6.8846   -7.4987    0.0000 C   0  0  0  0  0  0  0  0  0  0  0  0
    6.1701   -7.9112    0.0000 C   0  0  0  0  0  0  0  0  0  0  0  0
    5.4557   -7.4987    0.0000 C   0  0  0  0  0  0  0  0  0  0  0  0
    4.7412   -7.9112    0.0000 C   0  0  0  0  0  0  0  0  0  0  0  0
    4.0267   -7.4987    0.0000 C   0  0  0  0  0  0  0  0  0  0  0  0
    3.3122   -7.9112    0.0000 C   0  0  0  0  0  0  0  0  0  0  0  0
    2.5978   -7.4987    0.0000 C   0  0  0  0  0  0  0  0  0  0  0  0
    1.8833   -7.9112    0.0000 C   0  0  0  0  0  0  0  0  0  0  0  0
    1.1688   -7.4987    0.0000 C   0  0  0  0  0  0  0  0  0  0  0  0
    0.4544   -7.9112    0.0000 C   0  0  0  0  0  0  0  0  0  0  0  0
   12.6004   -6.6737    0.0000 O   0  0  0  0  0  0  0  0  0  0  0  0
   13.3148   -7.9112    0.0000 O   0  5  0  0  0  0  0  0  0  0  0  0
  2  3  1  0  0  0  0
  3  4  1  0  0  0  0
  4  5  1  0  0  0  0
  5  6  1  0  0  0  0
  6  7  1  0  0  0  0
  7  8  1  0  0  0  0
  8  9  1  0  0  0  0
  9 10  1  0  0  0  0
 10 11  2  0  0  0  0
 11 12  1  0  0  0  0
 12 13  1  0  0  0  0
 13 14  2  0  0  0  0
 14 15  1  0  0  0  0
 15 16  1  0  0  0  0
 16 17  1  0  0  0  0
 17 18  1  0  0  0  0
 18 19  1  0  0  0  0
  2 20  2  0  0  0  0
  2 21  1  0  0  0  0
M  CHG  2   1   1  21  -1
M  END
>  <cdx:groupId>
63

>  <cdx:fragmentId>
7

$$$$
