302499.cdx
  Mrv1902 05222410212D          

 32 34  0  0  0  0            999 V2000
    9.2015   -4.1439    0.0000 O   0  0  0  0  0  0  0  0  0  0  0  0
    9.3760   -4.9502    0.0000 C   0  0  1  0  0  0  0  0  0  0  0  0
    8.6631   -5.3654    0.0000 C   0  0  2  0  0  0  0  0  0  0  0  0
    8.0479   -4.8157    0.0000 C   0  0  0  0  0  0  0  0  0  0  0  0
    8.3807   -4.0608    0.0000 C   0  0  0  0  0  0  0  0  0  0  0  0
    8.6662   -6.1904    0.0000 C   0  0  0  0  0  0  0  0  0  0  0  0
    7.9533   -6.6056    0.0000 C   0  0  0  0  0  0  0  0  0  0  0  0
    7.9564   -7.4306    0.0000 C   0  0  0  0  0  0  0  0  0  0  0  0
    8.6724   -7.8404    0.0000 C   0  0  0  0  0  0  0  0  0  0  0  0
    9.3853   -7.4252    0.0000 C   0  0  0  0  0  0  0  0  0  0  0  0
    9.3822   -6.6002    0.0000 C   0  0  0  0  0  0  0  0  0  0  0  0
   10.0951   -6.1850    0.0000 C   0  0  0  0  0  0  0  0  0  0  0  0
   10.0920   -5.3601    0.0000 C   0  0  0  0  0  0  0  0  0  0  0  0
    7.2435   -7.8458    0.0000 C   0  0  0  0  0  0  0  0  0  0  0  0
    6.5275   -7.4360    0.0000 O   0  0  0  0  0  0  0  0  0  0  0  0
    7.2466   -8.6708    0.0000 O   0  0  0  0  0  0  0  0  0  0  0  0
    7.9655   -3.3479    0.0000 O   0  0  0  0  0  0  0  0  0  0  0  0
    7.2416   -4.9903    0.0000 C   0  0  0  0  0  0  0  0  0  0  0  0
   10.8112   -6.5949    0.0000 C   0  0  0  0  0  0  0  0  0  0  0  0
    5.8177   -8.6762    0.0000 O   0  0  0  0  0  0  0  0  0  0  0  0
    6.5337   -9.0860    0.0000 C   0  0  2  0  0  0  0  0  0  0  0  0
    6.5368   -9.9110    0.0000 C   0  0  1  0  0  0  0  0  0  0  0  0
    5.8239  -10.3261    0.0000 C   0  0  2  0  0  0  0  0  0  0  0  0
    5.1078   -9.9163    0.0000 C   0  0  1  0  0  0  0  0  0  0  0  0
    5.1047   -9.0913    0.0000 C   0  0  1  0  0  0  0  0  0  0  0  0
    4.3887   -8.6815    0.0000 C   0  0  0  0  0  0  0  0  0  0  0  0
    3.6742   -9.0940    0.0000 O   0  0  0  0  0  0  0  0  0  0  0  0
    4.3949  -10.3315    0.0000 O   0  0  0  0  0  0  0  0  0  0  0  0
    5.8270  -11.1511    0.0000 O   0  0  0  0  0  0  0  0  0  0  0  0
    7.2528  -10.3208    0.0000 O   0  0  0  0  0  0  0  0  0  0  0  0
    7.9486   -5.7779    0.0000 H   0  0  0  0  0  0  0  0  0  0  0  0
   10.0905   -4.5377    0.0000 H   0  0  0  0  0  0  0  0  0  0  0  0
  1  2  1  0  0  0  0
  2  3  1  0  0  0  0
  3  4  1  0  0  0  0
  4  5  1  0  0  0  0
  1  5  1  0  0  0  0
  6  7  1  0  0  0  0
  7  8  1  0  0  0  0
  8  9  2  0  0  0  0
  9 10  1  0  0  0  0
 10 11  1  0  0  0  0
 11 12  1  0  0  0  0
 12 13  2  0  0  0  0
 13  2  1  0  0  0  0
  6  3  1  0  0  0  0
 14 15  2  0  0  0  0
 14 16  1  0  0  0  0
  8 14  1  0  0  0  0
  5 17  2  0  0  0  0
  4 18  2  0  0  0  0
 12 19  1  0  0  0  0
 20 21  1  0  0  0  0
 21 22  1  0  0  0  0
 22 23  1  0  0  0  0
 23 24  1  0  0  0  0
 24 25  1  0  0  0  0
 20 25  1  0  0  0  0
 26 27  1  0  0  0  0
 25 26  1  1  0  0  0
 24 28  1  6  0  0  0
 23 29  1  1  0  0  0
 22 30  1  6  0  0  0
 21 16  1  1  0  0  0
  3 31  1  6  0  0  0
  2 32  1  1  0  0  0
M  END
>  <cdx:fragmentId>
15

$$$$
