302409.cdx
  Mrv1902 05222410282D          

 41 46  0  0  0  0            999 V2000
    6.8970   -7.9874    0.0000 C   0  0  0  0  0  0  0  0  0  0  0  0
    6.2296   -8.4723    0.0000 C   0  0  0  0  0  0  0  0  0  0  0  0
    5.4226   -8.3008    0.0000 C   0  0  0  0  0  0  0  0  0  0  0  0
    4.8705   -8.9139    0.0000 C   0  0  0  0  0  0  0  0  0  0  0  0
    5.1255   -9.6985    0.0000 C   0  0  0  0  0  0  0  0  0  0  0  0
    5.9325   -9.8700    0.0000 C   0  0  0  0  0  0  0  0  0  0  0  0
    6.4845   -9.2569    0.0000 C   0  0  0  0  0  0  0  0  0  0  0  0
    7.3095   -9.2569    0.0000 C   0  0  0  0  0  0  0  0  0  0  0  0
    7.8615   -9.8700    0.0000 C   0  0  0  0  0  0  0  0  0  0  0  0
    8.6685   -9.6985    0.0000 C   0  0  0  0  0  0  0  0  0  0  0  0
    8.9234   -8.9139    0.0000 C   0  0  0  0  0  0  0  0  0  0  0  0
    8.3714   -8.3008    0.0000 C   0  0  0  0  0  0  0  0  0  0  0  0
    7.5644   -8.4723    0.0000 C   0  0  0  0  0  0  0  0  0  0  0  0
    4.0636   -8.7424    0.0000 O   0  0  0  0  0  0  0  0  0  0  0  0
    7.6066  -10.6547    0.0000 O   0  0  0  0  0  0  0  0  0  0  0  0
    9.7304   -8.7424    0.0000 C   0  0  0  0  0  0  0  0  0  0  0  0
   10.2824   -9.3555    0.0000 O   0  0  0  0  0  0  0  0  0  0  0  0
   11.0894   -9.1839    0.0000 C   0  0  0  0  0  0  0  0  0  0  0  0
    8.7587   -7.5724    0.0000 C   0  0  0  0  0  0  0  0  0  0  0  0
    9.1460   -6.8439    0.0000 C   0  0  0  0  0  0  0  0  0  0  0  0
    9.5333   -6.1155    0.0000 C   0  0  0  0  0  0  0  0  0  0  0  0
    9.0962   -5.4159    0.0000 C   0  0  0  0  0  0  0  0  0  0  0  0
    9.4835   -4.6874    0.0000 C   0  0  0  0  0  0  0  0  0  0  0  0
   10.3080   -4.6586    0.0000 C   0  0  0  0  0  0  0  0  0  0  0  0
   10.7452   -5.3583    0.0000 C   0  0  0  0  0  0  0  0  0  0  0  0
   10.3578   -6.0867    0.0000 C   0  0  0  0  0  0  0  0  0  0  0  0
   10.6953   -3.9302    0.0000 O   0  0  0  0  0  0  0  0  0  0  0  0
    6.1386   -7.2290    0.0000 C   0  0  0  0  0  0  0  0  0  0  0  0
    5.3417   -7.4425    0.0000 C   0  0  0  0  0  0  0  0  0  0  0  0
    4.7584   -6.8592    0.0000 C   0  0  0  0  0  0  0  0  0  0  0  0
    4.9719   -6.0623    0.0000 C   0  0  0  0  0  0  0  0  0  0  0  0
    5.7688   -5.8488    0.0000 C   0  0  0  0  0  0  0  0  0  0  0  0
    6.3521   -6.4321    0.0000 C   0  0  0  0  0  0  0  0  0  0  0  0
    4.3885   -5.4789    0.0000 O   0  0  0  0  0  0  0  0  0  0  0  0
    7.4332   -7.0586    0.0000 C   0  0  0  0  0  0  0  0  0  0  0  0
    7.0207   -6.3441    0.0000 C   0  0  0  0  0  0  0  0  0  0  0  0
    7.4332   -5.6296    0.0000 C   0  0  0  0  0  0  0  0  0  0  0  0
    8.2582   -5.6296    0.0000 C   0  0  0  0  0  0  0  0  0  0  0  0
    8.6707   -6.3441    0.0000 C   0  0  0  0  0  0  0  0  0  0  0  0
    8.2582   -7.0586    0.0000 C   0  0  0  0  0  0  0  0  0  0  0  0
    8.6707   -4.9152    0.0000 O   0  0  0  0  0  0  0  0  0  0  0  0
  1  2  1  0  0  0  0
  2  3  1  0  0  0  0
  3  4  2  0  0  0  0
  4  5  1  0  0  0  0
  5  6  2  0  0  0  0
  6  7  1  0  0  0  0
  2  7  2  0  0  0  0
  7  8  1  0  0  0  0
  8  9  1  0  0  0  0
  9 10  2  0  0  0  0
 10 11  1  0  0  0  0
 11 12  2  0  0  0  0
 12 13  1  0  0  0  0
  8 13  2  0  0  0  0
  1 13  1  0  0  0  0
  4 14  1  0  0  0  0
  9 15  1  0  0  0  0
 17 18  1  0  0  0  0
 16 17  1  0  0  0  0
 11 16  1  0  0  0  0
 19 20  3  0  0  0  0
 21 22  1  0  0  0  0
 22 23  2  0  0  0  0
 23 24  1  0  0  0  0
 24 25  2  0  0  0  0
 25 26  1  0  0  0  0
 21 26  2  0  0  0  0
 24 27  1  0  0  0  0
 20 21  1  0  0  0  0
 12 19  1  0  0  0  0
 28 29  1  0  0  0  0
 29 30  2  0  0  0  0
 30 31  1  0  0  0  0
 31 32  2  0  0  0  0
 32 33  1  0  0  0  0
 28 33  2  0  0  0  0
 31 34  1  0  0  0  0
  1 28  1  0  0  0  0
 35 36  1  0  0  0  0
 36 37  2  0  0  0  0
 37 38  1  0  0  0  0
 38 39  2  0  0  0  0
 39 40  1  0  0  0  0
 35 40  2  0  0  0  0
 38 41  1  0  0  0  0
  1 35  1  0  0  0  0
M  END
>  <cdx:groupId>
130

>  <cdx:fragmentId>
5

$$$$
