302483.cdx
  Mrv1902 05222410252D          

 49 55  0  0  0  0            999 V2000
    9.6677   -8.3649    0.0000 C   0  0  0  0  0  0  0  0  0  0  0  0
   10.3822   -8.7774    0.0000 C   0  0  0  0  0  0  0  0  0  0  0  0
   10.3822   -9.6024    0.0000 C   0  0  0  0  0  0  0  0  0  0  0  0
    9.6677  -10.0149    0.0000 C   0  0  0  0  0  0  0  0  0  0  0  0
    9.6677  -10.8399    0.0000 C   0  0  0  0  0  0  0  0  0  0  0  0
    8.9532  -11.2524    0.0000 C   0  0  0  0  0  0  0  0  0  0  0  0
    8.2388  -10.8399    0.0000 C   0  0  0  0  0  0  0  0  0  0  0  0
    8.2388  -10.0149    0.0000 C   0  0  0  0  0  0  0  0  0  0  0  0
    8.9532   -9.6024    0.0000 C   0  0  0  0  0  0  0  0  0  0  0  0
    8.9532   -8.7774    0.0000 O   0  0  0  0  0  0  0  0  0  0  0  0
    7.5243   -9.6024    0.0000 C   0  0  0  0  0  0  0  0  0  0  0  0
    6.8098  -10.0149    0.0000 C   0  0  0  0  0  0  0  0  0  0  0  0
    6.8098  -10.8399    0.0000 C   0  0  0  0  0  0  0  0  0  0  0  0
    7.5243  -11.2524    0.0000 O   0  0  0  0  0  0  0  0  0  0  0  0
    9.6677   -7.5399    0.0000 C   0  0  0  0  0  0  0  0  0  0  0  0
    8.9532   -7.1274    0.0000 O   0  0  0  0  0  0  0  0  0  0  0  0
   10.3822   -7.1274    0.0000 O   0  0  0  0  0  0  0  0  0  0  0  0
   11.0967  -10.0149    0.0000 O   0  0  0  0  0  0  0  0  0  0  0  0
    6.0954   -9.6024    0.0000 O   0  0  0  0  0  0  0  0  0  0  0  0
   10.3822  -11.2524    0.0000 O   0  0  0  0  0  0  0  0  0  0  0  0
    6.8098   -5.3949    0.0000 C   0  0  0  0  0  0  0  0  0  0  0  0
    6.0954   -5.8074    0.0000 C   0  0  0  0  0  0  0  0  0  0  0  0
    6.0954   -6.6324    0.0000 C   0  0  0  0  0  0  0  0  0  0  0  0
    6.8098   -7.0449    0.0000 C   0  0  0  0  0  0  0  0  0  0  0  0
    6.8098   -7.8699    0.0000 C   0  0  0  0  0  0  0  0  0  0  0  0
    7.5243   -8.2824    0.0000 C   0  0  0  0  0  0  0  0  0  0  0  0
    8.2388   -7.8699    0.0000 C   0  0  0  0  0  0  0  0  0  0  0  0
    8.2388   -7.0449    0.0000 C   0  0  0  0  0  0  0  0  0  0  0  0
    7.5243   -6.6324    0.0000 C   0  0  0  0  0  0  0  0  0  0  0  0
    7.5243   -5.8074    0.0000 O   0  0  0  0  0  0  0  0  0  0  0  0
    8.9532   -8.2824    0.0000 O   0  0  0  0  0  0  0  0  0  0  0  0
    6.0954   -8.2824    0.0000 O   0  0  0  0  0  0  0  0  0  0  0  0
    5.3809   -5.3949    0.0000 O   0  0  0  0  0  0  0  0  0  0  0  0
    6.8098   -4.5699    0.0000 C   0  0  0  0  0  0  0  0  0  0  0  0
    6.0954   -4.1574    0.0000 C   0  0  0  0  0  0  0  0  0  0  0  0
    6.0954   -3.3324    0.0000 C   0  0  0  0  0  0  0  0  0  0  0  0
    6.8098   -2.9199    0.0000 C   0  0  0  0  0  0  0  0  0  0  0  0
    7.5243   -3.3324    0.0000 C   0  0  0  0  0  0  0  0  0  0  0  0
    7.5243   -4.1574    0.0000 C   0  0  0  0  0  0  0  0  0  0  0  0
    6.8098   -2.0949    0.0000 O   0  0  0  0  0  0  0  0  0  0  0  0
    5.3809   -2.9199    0.0000 O   0  0  0  0  0  0  0  0  0  0  0  0
    6.0954  -11.2524    0.0000 C   0  0  0  0  0  0  0  0  0  0  0  0
    5.3809  -10.8399    0.0000 C   0  0  0  0  0  0  0  0  0  0  0  0
    4.6664  -11.2524    0.0000 C   0  0  0  0  0  0  0  0  0  0  0  0
    4.6664  -12.0774    0.0000 C   0  0  0  0  0  0  0  0  0  0  0  0
    5.3809  -12.4899    0.0000 C   0  0  0  0  0  0  0  0  0  0  0  0
    6.0954  -12.0774    0.0000 C   0  0  0  0  0  0  0  0  0  0  0  0
    3.9519  -12.4899    0.0000 O   0  0  0  0  0  0  0  0  0  0  0  0
    3.9519  -10.8399    0.0000 O   0  0  0  0  0  0  0  0  0  0  0  0
  1  2  2  0  0  0  0
  2  3  1  0  0  0  0
  3  4  1  0  0  0  0
  4  5  1  0  0  0  0
  5  6  2  0  0  0  0
  6  7  1  0  0  0  0
  7  8  2  0  0  0  0
  8  9  1  0  0  0  0
  4  9  2  0  0  0  0
  9 10  1  0  0  0  0
  1 10  1  0  0  0  0
 11 12  2  0  0  0  0
 12 13  1  0  0  0  0
 13 14  1  0  0  0  0
 14  7  1  0  0  0  0
 11  8  1  0  0  0  0
 15 16  2  0  0  0  0
 15 17  1  0  0  0  0
  1 15  1  0  0  0  0
  3 18  2  0  0  0  0
 12 19  1  0  0  0  0
  5 20  1  0  0  0  0
 21 22  1  0  0  0  0
 22 23  1  0  0  0  0
 23 24  1  0  0  0  0
 24 25  1  0  0  0  0
 25 26  2  0  0  0  0
 26 27  1  0  0  0  0
 27 28  2  0  0  0  0
 28 29  1  0  0  0  0
 24 29  2  0  0  0  0
 29 30  1  0  0  0  0
 21 30  1  0  0  0  0
 27 31  1  0  0  0  0
 25 32  1  0  0  0  0
 22 33  1  0  0  0  0
 34 35  1  0  0  0  0
 35 36  2  0  0  0  0
 36 37  1  0  0  0  0
 37 38  2  0  0  0  0
 38 39  1  0  0  0  0
 34 39  2  0  0  0  0
 37 40  1  0  0  0  0
 36 41  1  0  0  0  0
 21 34  1  0  0  0  0
 11 26  1  0  0  0  0
 42 43  1  0  0  0  0
 43 44  2  0  0  0  0
 44 45  1  0  0  0  0
 45 46  2  0  0  0  0
 46 47  1  0  0  0  0
 42 47  2  0  0  0  0
 45 48  1  0  0  0  0
 44 49  1  0  0  0  0
 13 42  1  0  0  0  0
M  END
>  <cdx:groupId>
155

>  <cdx:fragmentId>
45

$$$$
