302438.cdx
  Mrv1902 05222410182D          

 24 29  0  0  0  0            999 V2000
    7.5196   -7.4218    0.0000 C   0  0  0  0  0  0  0  0  0  0  0  0
    8.3042   -7.6768    0.0000 C   0  0  0  0  0  0  0  0  0  0  0  0
    8.6398   -8.4305    0.0000 C   0  0  0  0  0  0  0  0  0  0  0  0
    9.4603   -8.5167    0.0000 C   0  0  0  0  0  0  0  0  0  0  0  0
    9.9452   -7.8493    0.0000 C   0  0  0  0  0  0  0  0  0  0  0  0
    9.6096   -7.0956    0.0000 C   0  0  0  0  0  0  0  0  0  0  0  0
    8.7892   -7.0093    0.0000 C   0  0  0  0  0  0  0  0  0  0  0  0
    8.3042   -6.3419    0.0000 N   0  0  0  0  0  0  0  0  0  0  0  0
    7.5196   -6.5968    0.0000 C   0  0  0  0  0  0  0  0  0  0  0  0
    6.8051   -6.1843    0.0000 C   0  0  0  0  0  0  0  0  0  0  0  0
    6.4393   -6.9921    0.0000 C   0  0  0  0  0  0  0  0  0  0  0  0
    4.6617   -7.4218    0.0000 C   0  0  0  0  0  0  0  0  0  0  0  0
    4.6617   -6.5968    0.0000 C   0  0  0  0  0  0  0  0  0  0  0  0
    5.3762   -6.1843    0.0000 C   0  0  0  0  0  0  0  0  0  0  0  0
    6.0907   -6.5968    0.0000 N   0  0  0  0  0  0  0  0  0  0  0  0
    6.0907   -7.4218    0.0000 C   0  0  0  0  0  0  0  0  0  0  0  0
    5.3762   -7.8343    0.0000 C   0  0  0  0  0  0  0  0  0  0  0  0
    6.5749   -8.2900    0.0000 C   0  0  0  0  0  0  0  0  0  0  0  0
    6.8051   -7.8343    0.0000 C   0  0  0  0  0  0  0  0  0  0  0  0
    6.7307   -9.1002    0.0000 O   0  0  0  0  0  0  0  0  0  0  0  0
   10.0946   -6.4281    0.0000 O   0  0  0  0  0  0  0  0  0  0  0  0
   10.9150   -6.5144    0.0000 C   0  0  0  0  0  0  0  0  0  0  0  0
    3.9473   -6.1843    0.0000 C   0  0  0  0  0  0  0  0  0  0  0  0
    3.9473   -5.3593    0.0000 C   0  0  0  0  0  0  0  0  0  0  0  0
  1  2  1  0  0  0  0
  2  3  1  0  0  0  0
  3  4  2  0  0  0  0
  4  5  1  0  0  0  0
  5  6  2  0  0  0  0
  6  7  1  0  0  0  0
  7  8  1  0  0  0  0
  8  9  1  0  0  0  0
  9 10  1  0  0  0  0
 10 11  1  0  0  0  0
 11 12  1  0  0  0  0
 12 13  1  0  0  0  0
 13 14  1  0  0  0  0
 14 15  1  0  0  0  0
 15 16  1  0  0  0  0
 16 17  1  0  0  0  0
 17 18  1  0  0  0  0
  1 18  1  0  0  0  0
  1 19  1  0  0  0  0
 19 16  1  0  0  0  0
 12 17  1  0  0  0  0
 10 15  1  0  0  0  0
  1  9  1  0  0  0  0
  2  7  2  0  0  0  0
 18 20  1  0  0  0  0
 21 22  1  0  0  0  0
  6 21  1  0  0  0  0
 23 24  1  0  0  0  0
 13 23  2  0  0  0  0
M  END
>  <cdx:groupId>
79

>  <cdx:fragmentId>
5

$$$$
