302453.cdx
  Mrv1902 05222410232D          

 12 12  0  0  0  0            999 V2000
    7.9101   -8.6202    0.0000 C   0  0  0  0  0  0  0  0  0  0  0  0
    7.9101   -9.4452    0.0000 C   0  0  0  0  0  0  0  0  0  0  0  0
    7.1956   -9.8577    0.0000 C   0  0  0  0  0  0  0  0  0  0  0  0
    6.4812   -9.4452    0.0000 C   0  0  0  0  0  0  0  0  0  0  0  0
    6.4812   -8.6202    0.0000 C   0  0  0  0  0  0  0  0  0  0  0  0
    7.1956   -8.2077    0.0000 C   0  0  0  0  0  0  0  0  0  0  0  0
    7.1956   -6.5577    0.0000 O   0  0  0  0  0  0  0  0  0  0  0  0
    7.1956   -7.3827    0.0000 Si  0  0  0  0  0  0  0  0  0  0  0  0
    6.3706   -7.3827    0.0000 C   0  0  0  0  0  0  0  0  0  0  0  0
    8.0206   -7.3827    0.0000 O   0  0  0  0  0  0  0  0  0  0  0  0
    8.4331   -6.6682    0.0000 C   0  0  0  0  0  0  0  0  0  0  0  0
    6.4812   -6.1452    0.0000 C   0  0  0  0  0  0  0  0  0  0  0  0
  8  6  1  0  0  0  0
  6  1  1  0  0  0  0
  2  1  1  0  0  0  0
  3  2  1  0  0  0  0
  4  3  1  0  0  0  0
  5  4  1  0  0  0  0
  6  5  1  0  0  0  0
  8  7  1  0  0  0  0
  8  9  1  0  0  0  0
  8 10  1  0  0  0  0
 10 11  1  0  0  0  0
  7 12  1  0  0  0  0
M  END
>  <cdx:fragmentId>
17

$$$$
