302490.cdx
  Mrv1902 05222410232D          

 12 11  0  0  0  0            999 V2000
    6.3803   -7.6355    0.0000 N   0  3  0  0  0  0  0  0  0  0  0  0
    6.4665   -6.8150    0.0000 C   0  0  1  0  0  0  0  0  0  0  0  0
    5.7128   -6.4794    0.0000 C   0  0  0  0  0  0  0  0  0  0  0  0
    5.1608   -7.0925    0.0000 C   0  0  0  0  0  0  0  0  0  0  0  0
    5.5733   -7.8070    0.0000 C   0  0  0  0  0  0  0  0  0  0  0  0
    7.1810   -6.4025    0.0000 C   0  0  0  0  0  0  0  0  0  0  0  0
    7.1810   -5.5775    0.0000 O   0  0  0  0  0  0  0  0  0  0  0  0
    7.8954   -6.8150    0.0000 O   0  5  0  0  0  0  0  0  0  0  0  0
    7.1872   -7.8070    0.0000 C   0  0  0  0  0  0  0  0  0  0  0  0
    6.6352   -8.4201    0.0000 C   0  0  0  0  0  0  0  0  0  0  0  0
    8.7204   -6.9988    0.0000 H   0  0  0  0  0  0  0  0  0  0  0  0
    9.2952   -6.9988    0.0000 Cl  0  0  0  0  0  0  0  0  0  0  0  0
  1  2  1  0  0  0  0
  2  3  1  0  0  0  0
  3  4  1  0  0  0  0
  4  5  1  0  0  0  0
  1  5  1  0  0  0  0
  6  7  2  0  0  0  0
  6  8  1  0  0  0  0
  2  6  1  1  0  0  0
  1  9  1  0  0  0  0
  1 10  1  0  0  0  0
 11 12  1  0  0  0  0
M  CHG  2   1   1   8  -1
M  END
>  <cdx:groupId>
108

>  <cdx:fragmentId>
96

$$$$
