302497.cdx
  Mrv1902 05222410252D          

 20 19  0  0  0  0            999 V2000
    3.7608   -6.5087    0.0000 O   0  0  0  0  0  0  0  0  0  0  0  0
    4.4753   -7.7462    0.0000 O   0  0  0  0  0  0  0  0  0  0  0  0
    8.0476   -6.5087    0.0000 C   0  0  0  0  0  0  0  0  0  0  0  0
    7.3332   -6.9212    0.0000 C   0  0  0  0  0  0  0  0  0  0  0  0
    6.6187   -6.5087    0.0000 C   0  0  0  0  0  0  0  0  0  0  0  0
    5.9042   -6.9212    0.0000 C   0  0  0  0  0  0  0  0  0  0  0  0
    5.1897   -6.5087    0.0000 C   0  0  0  0  0  0  0  0  0  0  0  0
    4.4753   -6.9212    0.0000 C   0  0  0  0  0  0  0  0  0  0  0  0
    8.7621   -6.9212    0.0000 C   0  0  0  0  0  0  0  0  0  0  0  0
    8.7621   -7.7462    0.0000 C   0  0  0  0  0  0  0  0  0  0  0  0
    9.4766   -8.1587    0.0000 C   0  0  0  0  0  0  0  0  0  0  0  0
    9.4766   -8.9837    0.0000 C   0  0  0  0  0  0  0  0  0  0  0  0
    8.7621   -9.3962    0.0000 C   0  0  0  0  0  0  0  0  0  0  0  0
    8.7621  -10.2212    0.0000 C   0  0  0  0  0  0  0  0  0  0  0  0
    8.0476  -10.6337    0.0000 C   0  0  0  0  0  0  0  0  0  0  0  0
    7.3332  -10.2212    0.0000 C   0  0  0  0  0  0  0  0  0  0  0  0
    6.6187  -10.6337    0.0000 C   0  0  0  0  0  0  0  0  0  0  0  0
    5.9042  -10.2212    0.0000 C   0  0  0  0  0  0  0  0  0  0  0  0
    5.9042   -9.3962    0.0000 C   0  0  0  0  0  0  0  0  0  0  0  0
    5.1897   -8.9837    0.0000 C   0  0  0  0  0  0  0  0  0  0  0  0
  8  1  1  0  0  0  0
  8  2  2  0  0  0  0
  4  3  1  0  0  0  0
  5  4  1  0  0  0  0
  6  5  1  0  0  0  0
  7  6  1  0  0  0  0
  8  7  1  0  0  0  0
  3  9  2  0  0  0  0
  9 10  1  0  0  0  0
 10 11  1  0  0  0  0
 11 12  2  0  0  0  0
 12 13  1  0  0  0  0
 13 14  1  0  0  0  0
 14 15  2  0  0  0  0
 15 16  1  0  0  0  0
 16 17  1  0  0  0  0
 17 18  2  0  0  0  0
 18 19  1  0  0  0  0
 19 20  1  0  0  0  0
M  END
>  <cdx:fragmentId>
64

$$$$
