302492.cdx
  Mrv1902 05222410242D          

 57 56  0  0  0  0            999 V2000
    3.3370   -6.2692    0.0000 O   0  0  0  0  0  0  0  0  0  0  0  0
    4.0515   -5.8567    0.0000 C   0  0  1  0  0  0  0  0  0  0  0  0
    4.0515   -5.0317    0.0000 C   0  0  1  0  0  0  0  0  0  0  0  0
    3.3370   -4.6192    0.0000 C   0  0  2  0  0  0  0  0  0  0  0  0
    2.6226   -5.0317    0.0000 C   0  0  2  0  0  0  0  0  0  0  0  0
    2.6226   -5.8567    0.0000 C   0  0  1  0  0  0  0  0  0  0  0  0
    4.7660   -4.6192    0.0000 O   0  0  0  0  0  0  0  0  0  0  0  0
    3.3370   -3.7942    0.0000 O   0  0  0  0  0  0  0  0  0  0  0  0
    1.9081   -4.6192    0.0000 O   0  0  0  0  0  0  0  0  0  0  0  0
    1.9081   -6.2692    0.0000 C   0  0  0  0  0  0  0  0  0  0  0  0
    1.1936   -5.8567    0.0000 O   0  0  0  0  0  0  0  0  0  0  0  0
    4.7660   -6.2692    0.0000 O   0  0  0  0  0  0  0  0  0  0  0  0
    5.4805   -5.8567    0.0000 C   0  0  0  0  0  0  0  0  0  0  0  0
    6.9094   -5.8567    0.0000 O   0  0  0  0  0  0  0  0  0  0  0  0
    6.1949   -6.2692    0.0000 C   0  0  1  0  0  0  0  0  0  0  0  0
    6.1949   -7.0942    0.0000 C   0  0  1  0  0  0  0  0  0  0  0  0
    6.9094   -7.5067    0.0000 C   0  0  1  0  0  0  0  0  0  0  0  0
    7.6239   -7.0942    0.0000 C   0  0  2  0  0  0  0  0  0  0  0  0
    7.6239   -6.2692    0.0000 C   0  0  1  0  0  0  0  0  0  0  0  0
    8.3383   -7.5067    0.0000 O   0  0  0  0  0  0  0  0  0  0  0  0
    6.9094   -8.3317    0.0000 O   0  0  0  0  0  0  0  0  0  0  0  0
    5.4805   -7.5067    0.0000 O   0  0  0  0  0  0  0  0  0  0  0  0
    8.3383   -5.8567    0.0000 O   0  0  0  0  0  0  0  0  0  0  0  0
    9.0528   -6.2692    0.0000 C   0  0  0  0  0  0  0  0  0  0  0  0
   10.4817   -6.2692    0.0000 O   0  0  0  0  0  0  0  0  0  0  0  0
    9.7673   -5.8567    0.0000 C   0  0  1  0  0  0  0  0  0  0  0  0
    9.7673   -5.0317    0.0000 C   0  0  2  0  0  0  0  0  0  0  0  0
   10.4817   -4.6192    0.0000 C   0  0  1  0  0  0  0  0  0  0  0  0
   11.1962   -5.0317    0.0000 C   0  0  2  0  0  0  0  0  0  0  0  0
   11.1962   -5.8567    0.0000 C   0  0  1  0  0  0  0  0  0  0  0  0
   11.9107   -4.6192    0.0000 O   0  0  0  0  0  0  0  0  0  0  0  0
   10.4817   -3.7942    0.0000 O   0  0  0  0  0  0  0  0  0  0  0  0
    9.0528   -4.6192    0.0000 O   0  0  0  0  0  0  0  0  0  0  0  0
   11.9107   -6.2692    0.0000 O   0  0  0  0  0  0  0  0  0  0  0  0
   11.5751   -7.8479    0.0000 O   0  0  0  0  0  0  0  0  0  0  0  0
   11.9107   -7.0942    0.0000 C   0  0  2  0  0  0  0  0  0  0  0  0
   12.7312   -7.1804    0.0000 C   0  0  2  0  0  0  0  0  0  0  0  0
   12.9027   -7.9874    0.0000 C   0  0  1  0  0  0  0  0  0  0  0  0
   12.1882   -8.3999    0.0000 C   0  0  1  0  0  0  0  0  0  0  0  0
   12.1020   -9.2204    0.0000 C   0  0  0  0  0  0  0  0  0  0  0  0
   11.3483   -9.5559    0.0000 O   0  0  0  0  0  0  0  0  0  0  0  0
   11.1962   -6.6817    0.0000 C   0  0  0  0  0  0  0  0  0  0  0  0
   10.4817   -7.0942    0.0000 O   0  0  0  0  0  0  0  0  0  0  0  0
   13.6564   -8.3229    0.0000 O   0  0  0  0  0  0  0  0  0  0  0  0
   13.2832   -6.5673    0.0000 O   0  0  0  0  0  0  0  0  0  0  0  0
    3.3296  -10.7934    0.0000 H   0  0  0  0  0  0  0  0  0  0  0  0
    4.0441  -10.3809    0.0000 O   0  0  0  0  0  0  0  0  0  0  0  0
    4.7586  -10.7934    0.0000 H   0  0  0  0  0  0  0  0  0  0  0  0
    5.5836  -10.7934    0.0000 H   0  0  0  0  0  0  0  0  0  0  0  0
    6.2980  -10.3809    0.0000 O   0  0  0  0  0  0  0  0  0  0  0  0
    7.0125  -10.7934    0.0000 H   0  0  0  0  0  0  0  0  0  0  0  0
    7.8375  -10.7934    0.0000 H   0  0  0  0  0  0  0  0  0  0  0  0
    8.5520  -10.3809    0.0000 O   0  0  0  0  0  0  0  0  0  0  0  0
    9.2664  -10.7934    0.0000 H   0  0  0  0  0  0  0  0  0  0  0  0
   10.0914  -10.7934    0.0000 H   0  0  0  0  0  0  0  0  0  0  0  0
   10.8059  -10.3809    0.0000 O   0  0  0  0  0  0  0  0  0  0  0  0
   11.5204  -10.7934    0.0000 H   0  0  0  0  0  0  0  0  0  0  0  0
  1  2  1  0  0  0  0
  2  3  1  0  0  0  0
  3  4  1  0  0  0  0
  4  5  1  0  0  0  0
  5  6  1  0  0  0  0
  1  6  1  0  0  0  0
  3  7  1  1  0  0  0
  4  8  1  6  0  0  0
  5  9  1  6  0  0  0
 10 11  1  0  0  0  0
  6 10  1  6  0  0  0
 12 13  1  0  0  0  0
 14 15  1  0  0  0  0
 15 16  1  0  0  0  0
 16 17  1  0  0  0  0
 17 18  1  0  0  0  0
 18 19  1  0  0  0  0
 14 19  1  0  0  0  0
 18 20  1  6  0  0  0
 17 21  1  1  0  0  0
 16 22  1  1  0  0  0
 23 24  1  0  0  0  0
 25 26  1  0  0  0  0
 26 27  1  0  0  0  0
 27 28  1  0  0  0  0
 28 29  1  0  0  0  0
 29 30  1  0  0  0  0
 25 30  1  0  0  0  0
 29 31  1  1  0  0  0
 28 32  1  6  0  0  0
 27 33  1  1  0  0  0
 35 36  1  0  0  0  0
 36 37  1  0  0  0  0
 37 38  1  0  0  0  0
 38 39  1  0  0  0  0
 35 39  1  0  0  0  0
 40 41  1  0  0  0  0
 39 40  1  1  0  0  0
 42 43  1  0  0  0  0
 36 42  1  6  0  0  0
 38 44  1  6  0  0  0
 37 45  1  1  0  0  0
 36 34  1  1  0  0  0
 30 34  1  1  0  0  0
 26 24  1  6  0  0  0
 19 23  1  6  0  0  0
 15 13  1  1  0  0  0
  2 12  1  1  0  0  0
 46 47  1  0  0  0  0
 47 48  1  0  0  0  0
 49 50  1  0  0  0  0
 50 51  1  0  0  0  0
 52 53  1  0  0  0  0
 53 54  1  0  0  0  0
 55 56  1  0  0  0  0
 56 57  1  0  0  0  0
M  END
>  <cdx:groupId>
172

>  <cdx:fragmentId>
113

$$$$
