302462.cdx
  Mrv1902 05222410232D          

 28 31  0  0  0  0            999 V2000
    8.4694   -8.8842    0.0000 C   0  0  1  0  0  0  0  0  0  0  0  0
    9.1832   -9.2979    0.0000 C   0  0  0  0  0  0  0  0  0  0  0  0
    9.1472  -10.1221    0.0000 O   0  0  0  0  0  0  0  0  0  0  0  0
    7.0434   -7.2316    0.0000 H   0  0  0  0  0  0  0  0  0  0  0  0
    7.0376  -10.5316    0.0000 C   0  0  0  0  0  0  0  0  0  0  0  0
   10.6150   -7.6504    0.0000 C   0  0  0  0  0  0  0  0  0  0  0  0
    9.8998   -8.0617    0.0000 C   0  0  0  0  0  0  0  0  0  0  0  0
    5.7760   -5.9919    0.0000 C   0  0  0  0  0  0  0  0  0  0  0  0
    4.9557   -5.9043    0.0000 C   0  0  0  0  0  0  0  0  0  0  0  0
    4.6214   -5.1500    0.0000 C   0  0  0  0  0  0  0  0  0  0  0  0
    5.1075   -4.4834    0.0000 C   0  0  0  0  0  0  0  0  0  0  0  0
    5.9279   -4.5711    0.0000 C   0  0  0  0  0  0  0  0  0  0  0  0
    6.2621   -5.3253    0.0000 C   0  0  0  0  0  0  0  0  0  0  0  0
    6.2598   -6.6602    0.0000 N   0  0  0  0  0  0  0  0  0  0  0  0
    7.7586   -6.8204    0.0000 C   0  0  2  0  0  0  0  0  0  0  0  0
    7.7571   -7.6454    0.0000 C   0  0  0  0  0  0  0  0  0  0  0  0
    8.4709   -8.0592    0.0000 C   0  0  1  0  0  0  0  0  0  0  0  0
    9.1861   -7.6479    0.0000 C   0  0  2  0  0  0  0  0  0  0  0  0
    9.1875   -6.8229    0.0000 C   0  0  0  0  0  0  0  0  0  0  0  0
    8.4738   -6.4092    0.0000 N   0  0  0  0  0  0  0  0  0  0  0  0
    8.4752   -5.5842    0.0000 C   0  0  0  0  0  0  0  0  0  0  0  0
    7.7615   -5.1704    0.0000 C   0  0  0  0  0  0  0  0  0  0  0  0
    7.0463   -5.5817    0.0000 C   0  0  0  0  0  0  0  0  0  0  0  0
    7.0448   -6.4067    0.0000 C   0  0  0  0  0  0  0  0  0  0  0  0
    7.7528  -10.1204    0.0000 O   0  0  0  0  0  0  0  0  0  0  0  0
    7.0405   -8.8816    0.0000 O   0  0  0  0  0  0  0  0  0  0  0  0
    7.7542   -9.2954    0.0000 C   0  0  0  0  0  0  0  0  0  0  0  0
    7.7391   -8.4401    0.0000 H   0  0  0  0  0  0  0  0  0  0  0  0
 15  4  1  6  0  0  0
 25  5  1  0  0  0  0
  1 17  1  0  0  0  0
 18  7  1  6  0  0  0
  7  6  2  0  0  0  0
 13 23  1  0  0  0  0
 14 24  1  0  0  0  0
 13  8  2  0  0  0  0
 14  8  1  0  0  0  0
  9  8  1  0  0  0  0
 10  9  2  0  0  0  0
 11 10  1  0  0  0  0
 12 11  2  0  0  0  0
 13 12  1  0  0  0  0
 24 15  1  0  0  0  0
 20 15  1  0  0  0  0
 16 15  1  0  0  0  0
 17 16  1  0  0  0  0
 18 17  1  0  0  0  0
 19 18  1  0  0  0  0
 20 19  1  0  0  0  0
 21 20  1  0  0  0  0
 22 21  1  0  0  0  0
 23 22  1  0  0  0  0
 24 23  2  0  0  0  0
 27 25  1  0  0  0  0
 27 26  2  0  0  0  0
 27  1  1  0  0  0  0
  1  2  1  6  0  0  0
  2  3  1  0  0  0  0
 17 28  1  6  0  0  0
M  END
>  <cdx:groupId>
86

>  <cdx:fragmentId>
17

$$$$
