302402.cdx
  Mrv1902 05222410192D          

 38 43  0  0  0  0            999 V2000
    6.9426   -7.9874    0.0000 C   0  0  0  0  0  0  0  0  0  0  0  0
    6.2751   -8.4723    0.0000 C   0  0  0  0  0  0  0  0  0  0  0  0
    5.4681   -8.3008    0.0000 C   0  0  0  0  0  0  0  0  0  0  0  0
    4.9161   -8.9139    0.0000 C   0  0  0  0  0  0  0  0  0  0  0  0
    5.1711   -9.6985    0.0000 C   0  0  0  0  0  0  0  0  0  0  0  0
    5.9780   -9.8700    0.0000 C   0  0  0  0  0  0  0  0  0  0  0  0
    6.5301   -9.2569    0.0000 C   0  0  0  0  0  0  0  0  0  0  0  0
    7.3551   -9.2569    0.0000 C   0  0  0  0  0  0  0  0  0  0  0  0
    7.9071   -9.8700    0.0000 C   0  0  0  0  0  0  0  0  0  0  0  0
    8.7141   -9.6985    0.0000 C   0  0  0  0  0  0  0  0  0  0  0  0
    8.9690   -8.9139    0.0000 C   0  0  0  0  0  0  0  0  0  0  0  0
    8.4170   -8.3008    0.0000 C   0  0  0  0  0  0  0  0  0  0  0  0
    7.6100   -8.4723    0.0000 C   0  0  0  0  0  0  0  0  0  0  0  0
    4.1091   -8.7424    0.0000 O   0  0  0  0  0  0  0  0  0  0  0  0
    7.6522  -10.6547    0.0000 O   0  0  0  0  0  0  0  0  0  0  0  0
    8.8043   -7.5724    0.0000 C   0  0  0  0  0  0  0  0  0  0  0  0
    9.1916   -6.8439    0.0000 C   0  0  0  0  0  0  0  0  0  0  0  0
    9.5789   -6.1155    0.0000 C   0  0  0  0  0  0  0  0  0  0  0  0
    9.1417   -5.4159    0.0000 C   0  0  0  0  0  0  0  0  0  0  0  0
    9.5290   -4.6874    0.0000 C   0  0  0  0  0  0  0  0  0  0  0  0
   10.3535   -4.6586    0.0000 C   0  0  0  0  0  0  0  0  0  0  0  0
   10.7907   -5.3583    0.0000 C   0  0  0  0  0  0  0  0  0  0  0  0
   10.4034   -6.0867    0.0000 C   0  0  0  0  0  0  0  0  0  0  0  0
   10.7409   -3.9302    0.0000 O   0  0  0  0  0  0  0  0  0  0  0  0
    6.1842   -7.2290    0.0000 C   0  0  0  0  0  0  0  0  0  0  0  0
    5.3873   -7.4425    0.0000 C   0  0  0  0  0  0  0  0  0  0  0  0
    4.8039   -6.8592    0.0000 C   0  0  0  0  0  0  0  0  0  0  0  0
    5.0175   -6.0623    0.0000 C   0  0  0  0  0  0  0  0  0  0  0  0
    5.8144   -5.8488    0.0000 C   0  0  0  0  0  0  0  0  0  0  0  0
    6.3977   -6.4321    0.0000 C   0  0  0  0  0  0  0  0  0  0  0  0
    4.4341   -5.4789    0.0000 O   0  0  0  0  0  0  0  0  0  0  0  0
    7.4788   -7.0586    0.0000 C   0  0  0  0  0  0  0  0  0  0  0  0
    7.0663   -6.3441    0.0000 C   0  0  0  0  0  0  0  0  0  0  0  0
    7.4788   -5.6296    0.0000 C   0  0  0  0  0  0  0  0  0  0  0  0
    8.3038   -5.6296    0.0000 C   0  0  0  0  0  0  0  0  0  0  0  0
    8.7163   -6.3441    0.0000 C   0  0  0  0  0  0  0  0  0  0  0  0
    8.3038   -7.0586    0.0000 C   0  0  0  0  0  0  0  0  0  0  0  0
    8.7163   -4.9152    0.0000 O   0  0  0  0  0  0  0  0  0  0  0  0
  1  2  1  0  0  0  0
  2  3  1  0  0  0  0
  3  4  2  0  0  0  0
  4  5  1  0  0  0  0
  5  6  2  0  0  0  0
  6  7  1  0  0  0  0
  2  7  2  0  0  0  0
  7  8  1  0  0  0  0
  8  9  1  0  0  0  0
  9 10  2  0  0  0  0
 10 11  1  0  0  0  0
 11 12  2  0  0  0  0
 12 13  1  0  0  0  0
  8 13  2  0  0  0  0
  1 13  1  0  0  0  0
  4 14  1  0  0  0  0
  9 15  1  0  0  0  0
 16 17  3  0  0  0  0
 18 19  1  0  0  0  0
 19 20  2  0  0  0  0
 20 21  1  0  0  0  0
 21 22  2  0  0  0  0
 22 23  1  0  0  0  0
 18 23  2  0  0  0  0
 21 24  1  0  0  0  0
 17 18  1  0  0  0  0
 12 16  1  0  0  0  0
 25 26  1  0  0  0  0
 26 27  2  0  0  0  0
 27 28  1  0  0  0  0
 28 29  2  0  0  0  0
 29 30  1  0  0  0  0
 25 30  2  0  0  0  0
 28 31  1  0  0  0  0
  1 25  1  0  0  0  0
 32 33  1  0  0  0  0
 33 34  2  0  0  0  0
 34 35  1  0  0  0  0
 35 36  2  0  0  0  0
 36 37  1  0  0  0  0
 32 37  2  0  0  0  0
 35 38  1  0  0  0  0
  1 32  1  0  0  0  0
M  END
>  <cdx:groupId>
121

>  <cdx:fragmentId>
5

$$$$
