302437.cdx
  Mrv1902 05222410272D          

 24 23  0  0  0  0            999 V2000
    5.0738   -6.4708    0.0000 C   0  0  2  0  0  0  0  0  0  0  0  0
    5.0738   -5.6458    0.0000 C   0  0  0  0  0  0  0  0  0  0  0  0
    4.3593   -5.2333    0.0000 O   0  0  0  0  0  0  0  0  0  0  0  0
   10.0751   -6.8833    0.0000 C   0  0  0  0  0  0  0  0  0  0  0  0
    9.3606   -6.4708    0.0000 C   0  0  2  0  0  0  0  0  0  0  0  0
    9.3606   -5.6458    0.0000 C   0  0  0  0  0  0  0  0  0  0  0  0
   10.0751   -5.2333    0.0000 C   0  0  0  0  0  0  0  0  0  0  0  0
   10.0751   -4.4083    0.0000 C   0  0  0  0  0  0  0  0  0  0  0  0
   10.0751   -7.7083    0.0000 O   0  0  0  0  0  0  0  0  0  0  0  0
   10.7895   -6.4708    0.0000 O   0  0  0  0  0  0  0  0  0  0  0  0
    5.7882   -9.3583    0.0000 N   0  0  0  0  0  0  0  0  0  0  0  0
    4.3593   -6.8833    0.0000 N   0  0  0  0  0  0  0  0  0  0  0  0
    5.7882   -7.7083    0.0000 O   0  0  0  0  0  0  0  0  0  0  0  0
    5.7882   -6.8833    0.0000 C   0  0  0  0  0  0  0  0  0  0  0  0
    6.5027   -6.4708    0.0000 N   0  0  0  0  0  0  0  0  0  0  0  0
    7.2172   -9.3583    0.0000 O   0  0  0  0  0  0  0  0  0  0  0  0
    7.9317   -5.6458    0.0000 O   0  0  0  0  0  0  0  0  0  0  0  0
    6.5027   -8.9458    0.0000 C   0  0  0  0  0  0  0  0  0  0  0  0
    6.5027   -8.1208    0.0000 C   0  0  0  0  0  0  0  0  0  0  0  0
    7.2172   -7.7083    0.0000 C   0  0  0  0  0  0  0  0  0  0  0  0
    7.2172   -6.8833    0.0000 C   0  0  1  0  0  0  0  0  0  0  0  0
    7.9317   -6.4708    0.0000 C   0  0  0  0  0  0  0  0  0  0  0  0
    8.6461   -6.8833    0.0000 N   0  0  0  0  0  0  0  0  0  0  0  0
   10.7895   -5.6458    0.0000 C   0  0  0  0  0  0  0  0  0  0  0  0
  5 23  1  1  0  0  0
 23 22  1  0  0  0  0
 18 11  1  0  0  0  0
 21 15  1  6  0  0  0
 15 14  1  0  0  0  0
 14 13  2  0  0  0  0
 14  1  1  0  0  0  0
 18 16  2  0  0  0  0
 22 17  2  0  0  0  0
 19 18  1  0  0  0  0
 20 19  1  0  0  0  0
 21 20  1  0  0  0  0
 22 21  1  0  0  0  0
  1  2  1  0  0  0  0
  2  3  1  0  0  0  0
  1 12  1  1  0  0  0
  5  4  1  0  0  0  0
  5  6  1  0  0  0  0
  6  7  1  0  0  0  0
  7  8  1  0  0  0  0
  4  9  2  0  0  0  0
  4 10  1  0  0  0  0
  7 24  1  0  0  0  0
M  END
>  <cdx:fragmentId>
39

$$$$
