302494.cdx
  Mrv1902 05222410252D          

 36 40  0  0  0  0            999 V2000
    5.8842   -7.8493    0.0000 C   0  0  0  0  0  0  0  0  0  0  0  0
    5.1697   -8.2618    0.0000 C   0  0  1  0  0  0  0  0  0  0  0  0
    5.1697   -9.0868    0.0000 C   0  0  1  0  0  0  0  0  0  0  0  0
    5.8842   -9.4993    0.0000 C   0  0  0  0  0  0  0  0  0  0  0  0
    6.5987   -9.0868    0.0000 C   0  0  1  0  0  0  0  0  0  0  0  0
    7.3131   -9.4993    0.0000 C   0  0  0  0  0  0  0  0  0  0  0  0
    8.0276   -9.0868    0.0000 C   0  0  0  0  0  0  0  0  0  0  0  0
    8.0276   -8.2618    0.0000 C   0  0  0  0  0  0  0  0  0  0  0  0
    8.7421   -7.8493    0.0000 C   0  0  2  0  0  0  0  0  0  0  0  0
    9.5267   -8.1042    0.0000 C   0  0  0  0  0  0  0  0  0  0  0  0
   10.0116   -7.4368    0.0000 C   0  0  0  0  0  0  0  0  0  0  0  0
    9.5267   -6.7693    0.0000 C   0  0  1  0  0  0  0  0  0  0  0  0
    8.7421   -7.0243    0.0000 C   0  0  1  0  0  0  0  0  0  0  0  0
    8.0276   -6.6118    0.0000 C   0  0  0  0  0  0  0  0  0  0  0  0
    7.3131   -7.0243    0.0000 C   0  0  0  0  0  0  0  0  0  0  0  0
    7.3131   -7.8493    0.0000 C   0  0  2  0  0  0  0  0  0  0  0  0
    6.5987   -8.2618    0.0000 C   0  0  1  0  0  0  0  0  0  0  0  0
    7.3131  -10.3243    0.0000 O   0  0  0  0  0  0  0  0  0  0  0  0
    8.7421   -6.1993    0.0000 C   0  0  0  0  0  0  0  0  0  0  0  0
    6.5987   -7.4368    0.0000 C   0  0  0  0  0  0  0  0  0  0  0  0
    8.7421   -8.6743    0.0000 O   0  0  0  0  0  0  0  0  0  0  0  0
    4.4553   -9.4993    0.0000 O   0  0  0  0  0  0  0  0  0  0  0  0
    4.4553   -7.8493    0.0000 O   0  0  0  0  0  0  0  0  0  0  0  0
    9.7816   -5.9847    0.0000 C   0  0  0  0  0  0  0  0  0  0  0  0
    8.9848   -5.7767    0.0000 C   0  0  0  0  0  0  0  0  0  0  0  0
   10.5785   -6.1982    0.0000 O   0  0  0  0  0  0  0  0  0  0  0  0
    6.5987   -9.9118    0.0000 H   0  0  0  0  0  0  0  0  0  0  0  0
    7.3131   -8.6743    0.0000 H   0  0  0  0  0  0  0  0  0  0  0  0
   10.3517   -6.7693    0.0000 H   0  0  0  0  0  0  0  0  0  0  0  0
    9.9926   -5.1871    0.0000 C   0  0  0  0  0  0  0  0  0  0  0  0
   10.7618   -4.8890    0.0000 C   0  0  0  0  0  0  0  0  0  0  0  0
   10.7160   -4.0653    0.0000 C   0  0  0  0  0  0  0  0  0  0  0  0
    9.9184   -3.8543    0.0000 C   0  0  0  0  0  0  0  0  0  0  0  0
    9.4713   -4.5477    0.0000 O   0  0  0  0  0  0  0  0  0  0  0  0
    9.3351   -3.2710    0.0000 C   0  0  0  0  0  0  0  0  0  0  0  0
   10.1320   -3.0574    0.0000 C   0  0  0  0  0  0  0  0  0  0  0  0
  1  2  1  0  0  0  0
  2  3  1  0  0  0  0
  3  4  1  0  0  0  0
  4  5  1  0  0  0  0
  5  6  1  0  0  0  0
  6  7  1  0  0  0  0
  7  8  2  0  0  0  0
  8  9  1  0  0  0  0
  9 10  1  0  0  0  0
 10 11  1  0  0  0  0
 12 11  1  0  0  0  0
 12 13  1  0  0  0  0
  9 13  1  0  0  0  0
 13 14  1  0  0  0  0
 14 15  1  0  0  0  0
 15 16  1  0  0  0  0
  8 16  1  0  0  0  0
 16 17  1  0  0  0  0
  5 17  1  0  0  0  0
  1 17  1  0  0  0  0
  6 18  2  0  0  0  0
 13 19  1  1  0  0  0
 17 20  1  1  0  0  0
  9 21  1  6  0  0  0
  3 22  1  1  0  0  0
  2 23  1  1  0  0  0
 24 25  1  0  0  0  0
 24 26  1  1  0  0  0
 12 24  1  0  0  0  0
  5 27  1  1  0  0  0
 16 28  1  6  0  0  0
 12 29  1  6  0  0  0
 24 30  1  0  0  0  0
 30 31  1  0  0  0  0
 31 32  1  0  0  0  0
 32 33  1  0  0  0  0
 33 34  1  0  0  0  0
 34 30  1  0  0  0  0
 33 35  1  0  0  0  0
 33 36  1  0  0  0  0
M  END
>  <cdx:fragmentId>
5

$$$$
