302429.cdx
  Mrv1902 05222410202D          

 15 16  0  0  0  0            999 V2000
    7.6328   -7.3036    0.0000 O   0  0  0  0  0  0  0  0  0  0  0  0
    7.1479   -7.9710    0.0000 C   0  0  0  0  0  0  0  0  0  0  0  0
    6.3633   -7.7161    0.0000 C   0  0  0  0  0  0  0  0  0  0  0  0
    6.3633   -6.8911    0.0000 C   0  0  0  0  0  0  0  0  0  0  0  0
    7.1479   -6.6362    0.0000 C   0  0  0  0  0  0  0  0  0  0  0  0
    5.6488   -6.4786    0.0000 C   0  0  0  0  0  0  0  0  0  0  0  0
    4.9343   -6.8911    0.0000 C   0  0  0  0  0  0  0  0  0  0  0  0
    4.9343   -7.7161    0.0000 C   0  0  0  0  0  0  0  0  0  0  0  0
    5.6488   -8.1286    0.0000 C   0  0  0  0  0  0  0  0  0  0  0  0
    7.4028   -8.7557    0.0000 O   0  0  0  0  0  0  0  0  0  0  0  0
    6.9764   -5.8292    0.0000 O   0  0  0  0  0  0  0  0  0  0  0  0
    7.7610   -6.0841    0.0000 C   0  0  0  0  0  0  0  0  0  0  0  0
    8.5456   -6.3391    0.0000 C   0  0  0  0  0  0  0  0  0  0  0  0
    9.1290   -5.7557    0.0000 C   0  0  0  0  0  0  0  0  0  0  0  0
    9.9259   -5.9692    0.0000 C   0  0  0  0  0  0  0  0  0  0  0  0
  1  2  1  0  0  0  0
  2  3  1  0  0  0  0
  3  4  2  0  0  0  0
  4  5  1  0  0  0  0
  1  5  1  0  0  0  0
  6  7  1  0  0  0  0
  7  8  1  0  0  0  0
  8  9  2  0  0  0  0
  9  3  1  0  0  0  0
  6  4  1  0  0  0  0
  2 10  2  0  0  0  0
  5 11  1  0  0  0  0
 12 13  1  0  0  0  0
 13 14  1  0  0  0  0
 14 15  1  0  0  0  0
  5 12  1  0  0  0  0
M  END
>  <cdx:fragmentId>
5

$$$$
