30240.cdx
  Mrv1902 05222410182D          

 18 19  0  0  0  0            999 V2000
    5.7961  -13.3600    0.0000 O   0  0  0  0  0  0  0  0  0  0  0  0
    6.0503  -14.1449    0.0000 C   0  0  0  0  0  0  0  0  0  0  0  0
    6.8753  -14.1457    0.0000 C   0  0  0  0  0  0  0  0  0  0  0  0
    7.1310  -13.3614    0.0000 C   0  0  0  0  0  0  0  0  0  0  0  0
    6.4641  -12.8758    0.0000 C   0  0  0  0  0  0  0  0  0  0  0  0
    6.4649  -12.0508    0.0000 C   0  0  0  0  0  0  0  0  0  0  0  0
    5.7508  -11.6375    0.0000 O   0  0  0  0  0  0  0  0  0  0  0  0
    7.1798  -11.6390    0.0000 C   0  0  0  0  0  0  0  0  0  0  0  0
    7.1798  -10.8140    0.0000 N   0  0  0  0  0  0  0  0  0  0  0  0
    7.8472  -10.3291    0.0000 C   0  0  0  0  0  0  0  0  0  0  0  0
    7.5923   -9.5444    0.0000 C   0  0  0  0  0  0  0  0  0  0  0  0
    6.7673   -9.5444    0.0000 C   0  0  0  0  0  0  0  0  0  0  0  0
    6.5123  -10.3291    0.0000 C   0  0  0  0  0  0  0  0  0  0  0  0
    5.7277  -10.5840    0.0000 O   0  0  0  0  0  0  0  0  0  0  0  0
    8.6318  -10.5840    0.0000 C   0  0  0  0  0  0  0  0  0  0  0  0
    8.0608  -11.1259    0.0000 H   0  0  0  0  0  0  0  0  0  0  0  0
    9.2449  -10.0320    0.0000 O   0  0  0  0  0  0  0  0  0  0  0  0
    8.8034  -11.3910    0.0000 O   0  0  0  0  0  0  0  0  0  0  0  0
  1  2  1  0  0  0  0
  2  3  2  0  0  0  0
  3  4  1  0  0  0  0
  4  5  2  0  0  0  0
  5  1  1  0  0  0  0
  5  6  1  0  0  0  0
  6  7  2  0  0  0  0
  6  8  1  0  0  0  0
  8  9  1  0  0  0  0
  9 10  1  0  0  0  0
 10 11  1  0  0  0  0
 11 12  1  0  0  0  0
 12 13  1  0  0  0  0
 13  9  1  0  0  0  0
 13 14  2  0  0  0  0
 10 15  1  0  0  0  0
 10 16  1  0  0  0  0
 15 17  1  0  0  0  0
 15 18  2  0  0  0  0
M  END
>  <cdx:fragmentId>
5

$$$$
