302476.cdx
  Mrv1902 05222410232D          

 34 35  0  0  0  0            999 V2000
    8.1395   -8.8857    0.0000 C   0  0  0  0  0  0  0  0  0  0  0  0
    7.4250   -8.4732    0.0000 C   0  0  0  0  0  0  0  0  0  0  0  0
    6.7105   -8.8857    0.0000 C   0  0  0  0  0  0  0  0  0  0  0  0
    8.1395   -9.7107    0.0000 O   0  0  0  0  0  0  0  0  0  0  0  0
    5.9961   -8.4732    0.0000 C   0  0  0  0  0  0  0  0  0  0  0  0
    5.9961   -7.6482    0.0000 C   0  0  0  0  0  0  0  0  0  0  0  0
    5.2816   -7.2357    0.0000 C   0  0  0  0  0  0  0  0  0  0  0  0
    4.5671   -7.6482    0.0000 C   0  0  0  0  0  0  0  0  0  0  0  0
    4.5671   -8.4732    0.0000 C   0  0  0  0  0  0  0  0  0  0  0  0
    5.2816   -8.8857    0.0000 C   0  0  0  0  0  0  0  0  0  0  0  0
    3.8526   -8.8857    0.0000 C   0  0  0  0  0  0  0  0  0  0  0  0
    3.1382   -8.4732    0.0000 C   0  0  0  0  0  0  0  0  0  0  0  0
    2.4237   -8.8857    0.0000 C   0  0  0  0  0  0  0  0  0  0  0  0
    2.4237   -9.7107    0.0000 C   0  0  0  0  0  0  0  0  0  0  0  0
    1.7092   -8.4732    0.0000 C   0  0  0  0  0  0  0  0  0  0  0  0
    5.2816   -6.4107    0.0000 C   0  0  0  0  0  0  0  0  0  0  0  0
    4.5671   -5.9982    0.0000 C   0  0  0  0  0  0  0  0  0  0  0  0
    4.5671   -5.1732    0.0000 C   0  0  0  0  0  0  0  0  0  0  0  0
    5.2816   -4.7607    0.0000 C   0  0  0  0  0  0  0  0  0  0  0  0
    3.8526   -4.7607    0.0000 C   0  0  0  0  0  0  0  0  0  0  0  0
    3.8526   -7.2357    0.0000 O   0  0  0  0  0  0  0  0  0  0  0  0
    8.8539   -8.4732    0.0000 C   0  0  0  0  0  0  0  0  0  0  0  0
    9.5684   -8.8857    0.0000 C   0  0  0  0  0  0  0  0  0  0  0  0
   10.2829   -8.4732    0.0000 C   0  0  0  0  0  0  0  0  0  0  0  0
   10.2829   -7.6482    0.0000 C   0  0  0  0  0  0  0  0  0  0  0  0
    9.5684   -7.2357    0.0000 C   0  0  0  0  0  0  0  0  0  0  0  0
    8.8539   -7.6482    0.0000 C   0  0  0  0  0  0  0  0  0  0  0  0
   10.9974   -8.8857    0.0000 C   0  0  0  0  0  0  0  0  0  0  0  0
   11.7118   -8.4732    0.0000 C   0  0  0  0  0  0  0  0  0  0  0  0
   12.4263   -8.8857    0.0000 C   0  0  0  0  0  0  0  0  0  0  0  0
   12.4263   -9.7107    0.0000 C   0  0  0  0  0  0  0  0  0  0  0  0
   13.1408   -8.4732    0.0000 C   0  0  0  0  0  0  0  0  0  0  0  0
   10.9974   -7.2357    0.0000 O   0  0  0  0  0  0  0  0  0  0  0  0
    9.5684   -9.7107    0.0000 O   0  0  0  0  0  0  0  0  0  0  0  0
  1  2  1  0  0  0  0
  2  3  2  0  0  0  0
  1  4  2  0  0  0  0
  5  6  1  0  0  0  0
  6  7  2  0  0  0  0
  7  8  1  0  0  0  0
  8  9  2  0  0  0  0
  9 10  1  0  0  0  0
  5 10  2  0  0  0  0
 11 12  1  0  0  0  0
 12 13  2  0  0  0  0
 13 14  1  0  0  0  0
 13 15  1  0  0  0  0
  9 11  1  0  0  0  0
 16 17  1  0  0  0  0
 17 18  2  0  0  0  0
 18 19  1  0  0  0  0
 18 20  1  0  0  0  0
  7 16  1  0  0  0  0
  8 21  1  0  0  0  0
  3  5  1  0  0  0  0
 22 23  1  0  0  0  0
 23 24  2  0  0  0  0
 24 25  1  0  0  0  0
 25 26  2  0  0  0  0
 26 27  1  0  0  0  0
 22 27  2  0  0  0  0
 28 29  1  0  0  0  0
 29 30  2  0  0  0  0
 30 31  1  0  0  0  0
 30 32  1  0  0  0  0
 24 28  1  0  0  0  0
 25 33  1  0  0  0  0
 23 34  1  0  0  0  0
  1 22  1  0  0  0  0
M  END
>  <cdx:groupId>
105

>  <cdx:fragmentId>
13

$$$$
