30242.cdx
  Mrv1902 05222410182D          

 20 22  0  0  0  0            999 V2000
    9.4637   -8.5256    0.0000 H   0  0  0  0  0  0  0  0  0  0  0  0
    6.8029   -8.6640    0.0000 C   0  0  0  0  0  0  0  0  0  0  0  0
    6.9728   -9.4713    0.0000 C   0  0  0  0  0  0  0  0  0  0  0  0
    7.7099   -9.8418    0.0000 C   0  0  0  0  0  0  0  0  0  0  0  0
    8.4592   -9.4966    0.0000 C   0  0  0  0  0  0  0  0  0  0  0  0
    8.6564   -8.6955    0.0000 C   0  0  2  0  0  0  0  0  0  0  0  0
    8.1530   -8.0418    0.0000 C   0  0  0  0  0  0  0  0  0  0  0  0
    7.3282   -8.0278    0.0000 C   0  0  2  0  0  0  0  0  0  0  0  0
    8.4213   -7.2616    0.0000 C   0  0  0  0  0  0  0  0  0  0  0  0
    7.7622   -6.7654    0.0000 C   0  0  0  0  0  0  0  0  0  0  0  0
    7.0866   -7.2390    0.0000 O   0  0  0  0  0  0  0  0  0  0  0  0
    5.9826   -8.5761    0.0000 C   0  0  0  0  0  0  0  0  0  0  0  0
    5.6455   -9.3291    0.0000 C   0  0  0  0  0  0  0  0  0  0  0  0
    6.2575   -9.8823    0.0000 C   0  0  0  0  0  0  0  0  0  0  0  0
    7.7762   -5.9406    0.0000 O   0  0  0  0  0  0  0  0  0  0  0  0
    7.6959  -10.6667    0.0000 C   0  0  0  0  0  0  0  0  0  0  0  0
    6.1696  -10.7026    0.0000 O   0  0  0  0  0  0  0  0  0  0  0  0
    5.5715   -7.8608    0.0000 C   0  0  0  0  0  0  0  0  0  0  0  0
    4.7465   -7.8608    0.0000 O   0  0  0  0  0  0  0  0  0  0  0  0
    9.2101   -7.0201    0.0000 C   0  0  0  0  0  0  0  0  0  0  0  0
  6  1  1  1  0  0  0
  2  3  1  0  0  0  0
  3  4  2  0  0  0  0
  4  5  1  0  0  0  0
  5  6  1  0  0  0  0
  6  7  1  0  0  0  0
  7  8  1  0  0  0  0
  8  2  1  0  0  0  0
  7  9  1  0  0  0  0
  9 10  1  0  0  0  0
 10 11  1  0  0  0  0
  8 11  1  1  0  0  0
  2 12  1  0  0  0  0
 12 13  2  0  0  0  0
 13 14  1  0  0  0  0
 14  3  1  0  0  0  0
 10 15  2  0  0  0  0
  4 16  1  0  0  0  0
 14 17  2  0  0  0  0
 12 18  1  0  0  0  0
 18 19  1  0  0  0  0
  9 20  1  0  0  0  0
M  END
>  <cdx:fragmentId>
5

$$$$
