302470.cdx
  Mrv1902 05222410212D          

 35 40  0  0  0  0            999 V2000
    7.6019   -7.6835    0.0000 C   0  0  1  0  0  0  0  0  0  0  0  0
    6.8875   -8.0960    0.0000 C   0  0  2  0  0  0  0  0  0  0  0  0
    6.8875   -8.9210    0.0000 C   0  0  0  0  0  0  0  0  0  0  0  0
    6.1730   -9.3335    0.0000 C   0  0  0  0  0  0  0  0  0  0  0  0
    5.4585   -8.9210    0.0000 C   0  0  0  0  0  0  0  0  0  0  0  0
    4.7440   -9.3335    0.0000 C   0  0  0  0  0  0  0  0  0  0  0  0
    4.0296   -8.9210    0.0000 C   0  0  2  0  0  0  0  0  0  0  0  0
    4.0296   -8.0960    0.0000 C   0  0  0  0  0  0  0  0  0  0  0  0
    4.7440   -7.6835    0.0000 C   0  0  0  0  0  0  0  0  0  0  0  0
    5.4585   -8.0960    0.0000 C   0  0  2  0  0  0  0  0  0  0  0  0
    6.1730   -7.6835    0.0000 C   0  0  1  0  0  0  0  0  0  0  0  0
    6.1730   -6.8585    0.0000 C   0  0  0  0  0  0  0  0  0  0  0  0
    6.8875   -6.4460    0.0000 C   0  0  0  0  0  0  0  0  0  0  0  0
    7.6019   -6.8585    0.0000 C   0  0  2  0  0  0  0  0  0  0  0  0
    8.3865   -6.6036    0.0000 C   0  0  1  0  0  0  0  0  0  0  0  0
    8.8715   -5.9361    0.0000 C   0  0  1  0  0  0  0  0  0  0  0  0
    9.6561   -6.1911    0.0000 C   0  0  1  0  0  0  0  0  0  0  0  0
   10.3706   -5.7786    0.0000 C   0  0  0  0  0  0  0  0  0  0  0  0
   11.0850   -6.1911    0.0000 C   0  0  0  0  0  0  0  0  0  0  0  0
   11.0850   -7.0161    0.0000 C   0  0  1  0  0  0  0  0  0  0  0  0
   10.3706   -7.4286    0.0000 C   0  0  0  0  0  0  0  0  0  0  0  0
    9.6561   -7.0161    0.0000 N   0  0  0  0  0  0  0  0  0  0  0  0
    8.8715   -7.2710    0.0000 C   0  0  1  0  0  0  0  0  0  0  0  0
    8.3865   -7.9384    0.0000 C   0  0  0  0  0  0  0  0  0  0  0  0
    3.3151   -9.3335    0.0000 O   0  0  0  0  0  0  0  0  0  0  0  0
   11.7995   -7.4286    0.0000 C   0  0  0  0  0  0  0  0  0  0  0  0
    8.6165   -5.1515    0.0000 C   0  0  0  0  0  0  0  0  0  0  0  0
    7.6019   -6.0335    0.0000 C   0  0  0  0  0  0  0  0  0  0  0  0
    5.4585   -7.2710    0.0000 C   0  0  0  0  0  0  0  0  0  0  0  0
    7.6019   -8.5085    0.0000 H   0  0  0  0  0  0  0  0  0  0  0  0
    6.8875   -7.2710    0.0000 H   0  0  0  0  0  0  0  0  0  0  0  0
    6.1730   -8.5085    0.0000 H   0  0  0  0  0  0  0  0  0  0  0  0
    8.0249   -5.8621    0.0000 H   0  0  0  0  0  0  0  0  0  0  0  0
    9.5699   -5.3706    0.0000 H   0  0  0  0  0  0  0  0  0  0  0  0
    9.3564   -7.9384    0.0000 H   0  0  0  0  0  0  0  0  0  0  0  0
  1  2  1  0  0  0  0
  2  3  1  0  0  0  0
  3  4  1  0  0  0  0
  4  5  2  0  0  0  0
  5  6  1  0  0  0  0
  6  7  1  0  0  0  0
  7  8  1  0  0  0  0
  8  9  1  0  0  0  0
  9 10  1  0  0  0  0
 10 11  1  0  0  0  0
 11 12  1  0  0  0  0
 12 13  1  0  0  0  0
 13 14  1  0  0  0  0
 14 15  1  0  0  0  0
 15 16  1  0  0  0  0
 16 17  1  0  0  0  0
 17 18  1  0  0  0  0
 18 19  1  0  0  0  0
 19 20  1  0  0  0  0
 20 21  1  0  0  0  0
 21 22  1  0  0  0  0
 22 23  1  0  0  0  0
 23 24  1  0  0  0  0
  1 24  1  0  0  0  0
  1 14  1  0  0  0  0
 15 23  1  0  0  0  0
 17 22  1  0  0  0  0
  2 11  1  0  0  0  0
  5 10  1  0  0  0  0
  7 25  1  1  0  0  0
 20 26  1  6  0  0  0
 16 27  1  6  0  0  0
 14 28  1  1  0  0  0
 10 29  1  1  0  0  0
  1 30  1  6  0  0  0
  2 31  1  1  0  0  0
 11 32  1  6  0  0  0
 15 33  1  6  0  0  0
 17 34  1  6  0  0  0
 23 35  1  6  0  0  0
M  END
>  <cdx:fragmentId>
5

$$$$
