302464.cdx
  Mrv1902 05222410212D          

 33 38  0  0  0  0            999 V2000
    6.8753   -8.0915    0.0000 C   0  0  0  0  0  0  0  0  0  0  0  0
    7.5898   -7.6790    0.0000 C   0  0  0  0  0  0  0  0  0  0  0  0
    8.3744   -7.9340    0.0000 C   0  0  0  0  0  0  0  0  0  0  0  0
    8.8593   -7.2665    0.0000 C   0  0  2  0  0  0  0  0  0  0  0  0
    9.6439   -7.0116    0.0000 O   0  0  0  0  0  0  0  0  0  0  0  0
    9.6439   -6.1866    0.0000 C   0  0  2  0  0  0  0  0  0  0  0  0
    8.8593   -5.9317    0.0000 C   0  0  2  0  0  0  0  0  0  0  0  0
    8.3744   -6.5991    0.0000 C   0  0  2  0  0  0  0  0  0  0  0  0
    7.5898   -6.8540    0.0000 C   0  0  1  0  0  0  0  0  0  0  0  0
    6.8753   -6.4415    0.0000 C   0  0  0  0  0  0  0  0  0  0  0  0
    6.1608   -6.8540    0.0000 C   0  0  0  0  0  0  0  0  0  0  0  0
    6.1608   -7.6790    0.0000 C   0  0  0  0  0  0  0  0  0  0  0  0
    5.4463   -8.0915    0.0000 C   0  0  1  0  0  0  0  0  0  0  0  0
    4.7319   -7.6790    0.0000 C   0  0  0  0  0  0  0  0  0  0  0  0
    4.0174   -8.0915    0.0000 C   0  0  0  0  0  0  0  0  0  0  0  0
    4.0174   -8.9165    0.0000 C   0  0  0  0  0  0  0  0  0  0  0  0
    4.7319   -9.3290    0.0000 C   0  0  0  0  0  0  0  0  0  0  0  0
    5.4463   -8.9165    0.0000 C   0  0  1  0  0  0  0  0  0  0  0  0
    6.1608   -9.3290    0.0000 C   0  0  0  0  0  0  0  0  0  0  0  0
    6.8753   -8.9165    0.0000 C   0  0  0  0  0  0  0  0  0  0  0  0
    9.5577   -5.3661    0.0000 O   0  0  0  0  0  0  0  0  0  0  0  0
   10.3976   -6.5222    0.0000 C   0  0  0  0  0  0  0  0  0  0  0  0
   11.0650   -6.0372    0.0000 C   0  0  0  0  0  0  0  0  0  0  0  0
   10.9788   -5.2168    0.0000 C   0  0  0  0  0  0  0  0  0  0  0  0
   10.2251   -4.8812    0.0000 C   0  0  0  0  0  0  0  0  0  0  0  0
    3.3029   -9.3290    0.0000 O   0  0  0  0  0  0  0  0  0  0  0  0
    5.4463   -7.2665    0.0000 C   0  0  0  0  0  0  0  0  0  0  0  0
    7.4465   -6.0416    0.0000 C   0  0  0  0  0  0  0  0  0  0  0  0
    8.6044   -5.1470    0.0000 C   0  0  0  0  0  0  0  0  0  0  0  0
   11.6462   -4.7318    0.0000 C   0  0  0  0  0  0  0  0  0  0  0  0
    9.3442   -7.9340    0.0000 H   0  0  0  0  0  0  0  0  0  0  0  0
    8.0127   -5.8576    0.0000 H   0  0  0  0  0  0  0  0  0  0  0  0
    5.4463   -9.7415    0.0000 H   0  0  0  0  0  0  0  0  0  0  0  0
  1  2  1  0  0  0  0
  2  3  1  0  0  0  0
  3  4  1  0  0  0  0
  4  5  1  0  0  0  0
  5  6  1  0  0  0  0
  6  7  1  0  0  0  0
  7  8  1  0  0  0  0
  8  9  1  0  0  0  0
  9 10  1  0  0  0  0
 10 11  1  0  0  0  0
 11 12  1  0  0  0  0
 12 13  1  0  0  0  0
 13 14  1  0  0  0  0
 14 15  1  0  0  0  0
 15 16  1  0  0  0  0
 16 17  1  0  0  0  0
 17 18  1  0  0  0  0
 18 19  1  0  0  0  0
 19 20  1  0  0  0  0
  1 20  1  0  0  0  0
  1 12  1  0  0  0  0
 13 18  1  0  0  0  0
  2  9  1  0  0  0  0
  4  8  1  0  0  0  0
 22 23  1  0  0  0  0
 23 24  1  0  0  0  0
 24 25  1  0  0  0  0
 21 25  1  0  0  0  0
  6 21  1  6  0  0  0
  6 22  1  1  0  0  0
 16 26  2  0  0  0  0
 13 27  1  1  0  0  0
  9 28  1  1  0  0  0
  7 29  1  6  0  0  0
 24 30  1  0  0  0  0
  4 31  1  6  0  0  0
  8 32  1  6  0  0  0
 18 33  1  1  0  0  0
M  END
>  <cdx:groupId>
106

>  <cdx:fragmentId>
5

$$$$
