302407.cdx
  Mrv1902 05222410192D          

 41 46  0  0  0  0            999 V2000
    7.0274   -8.4272    0.0000 C   0  0  0  0  0  0  0  0  0  0  0  0
    6.3599   -8.9121    0.0000 C   0  0  0  0  0  0  0  0  0  0  0  0
    5.5530   -8.7406    0.0000 C   0  0  0  0  0  0  0  0  0  0  0  0
    5.0009   -9.3536    0.0000 C   0  0  0  0  0  0  0  0  0  0  0  0
    5.2559  -10.1383    0.0000 C   0  0  0  0  0  0  0  0  0  0  0  0
    6.0629  -10.3098    0.0000 C   0  0  0  0  0  0  0  0  0  0  0  0
    6.6149   -9.6967    0.0000 C   0  0  0  0  0  0  0  0  0  0  0  0
    7.4399   -9.6967    0.0000 C   0  0  0  0  0  0  0  0  0  0  0  0
    7.9919  -10.3098    0.0000 C   0  0  0  0  0  0  0  0  0  0  0  0
    8.7989  -10.1383    0.0000 C   0  0  0  0  0  0  0  0  0  0  0  0
    9.0538   -9.3536    0.0000 C   0  0  0  0  0  0  0  0  0  0  0  0
    8.5018   -8.7406    0.0000 C   0  0  0  0  0  0  0  0  0  0  0  0
    7.6948   -8.9121    0.0000 C   0  0  0  0  0  0  0  0  0  0  0  0
    4.1940   -9.1821    0.0000 O   0  0  0  0  0  0  0  0  0  0  0  0
    6.2690   -7.6688    0.0000 C   0  0  0  0  0  0  0  0  0  0  0  0
    5.4721   -7.8823    0.0000 C   0  0  0  0  0  0  0  0  0  0  0  0
    4.8888   -7.2989    0.0000 C   0  0  0  0  0  0  0  0  0  0  0  0
    5.1023   -6.5021    0.0000 C   0  0  0  0  0  0  0  0  0  0  0  0
    5.8992   -6.2885    0.0000 C   0  0  0  0  0  0  0  0  0  0  0  0
    6.4825   -6.8719    0.0000 C   0  0  0  0  0  0  0  0  0  0  0  0
    4.5189   -5.9187    0.0000 O   0  0  0  0  0  0  0  0  0  0  0  0
    3.7220   -6.1322    0.0000 C   0  0  0  0  0  0  0  0  0  0  0  0
    7.5636   -7.4983    0.0000 C   0  0  0  0  0  0  0  0  0  0  0  0
    7.1511   -6.7839    0.0000 C   0  0  0  0  0  0  0  0  0  0  0  0
    7.5636   -6.0694    0.0000 C   0  0  0  0  0  0  0  0  0  0  0  0
    8.3886   -6.0694    0.0000 C   0  0  0  0  0  0  0  0  0  0  0  0
    8.8011   -6.7839    0.0000 C   0  0  0  0  0  0  0  0  0  0  0  0
    8.3886   -7.4983    0.0000 C   0  0  0  0  0  0  0  0  0  0  0  0
    8.8011   -5.3549    0.0000 O   0  0  0  0  0  0  0  0  0  0  0  0
    8.3886   -4.6405    0.0000 C   0  0  0  0  0  0  0  0  0  0  0  0
    8.8891   -8.0121    0.0000 C   0  0  0  0  0  0  0  0  0  0  0  0
    9.2764   -7.2837    0.0000 C   0  0  0  0  0  0  0  0  0  0  0  0
    9.6637   -6.5553    0.0000 C   0  0  0  0  0  0  0  0  0  0  0  0
    9.2266   -5.8556    0.0000 C   0  0  0  0  0  0  0  0  0  0  0  0
    9.6139   -5.1272    0.0000 C   0  0  0  0  0  0  0  0  0  0  0  0
   10.4384   -5.0984    0.0000 C   0  0  0  0  0  0  0  0  0  0  0  0
   10.8755   -5.7980    0.0000 C   0  0  0  0  0  0  0  0  0  0  0  0
   10.4882   -6.5265    0.0000 C   0  0  0  0  0  0  0  0  0  0  0  0
   10.8257   -4.3700    0.0000 O   0  0  0  0  0  0  0  0  0  0  0  0
    9.8608   -9.1821    0.0000 C   0  0  0  0  0  0  0  0  0  0  0  0
   10.4128   -9.7952    0.0000 O   0  0  0  0  0  0  0  0  0  0  0  0
  1  2  1  0  0  0  0
  2  3  1  0  0  0  0
  3  4  2  0  0  0  0
  4  5  1  0  0  0  0
  5  6  2  0  0  0  0
  6  7  1  0  0  0  0
  2  7  2  0  0  0  0
  7  8  1  0  0  0  0
  8  9  1  0  0  0  0
  9 10  2  0  0  0  0
 10 11  1  0  0  0  0
 11 12  2  0  0  0  0
 12 13  1  0  0  0  0
  8 13  2  0  0  0  0
  1 13  1  0  0  0  0
  4 14  1  0  0  0  0
 15 16  1  0  0  0  0
 16 17  2  0  0  0  0
 17 18  1  0  0  0  0
 18 19  2  0  0  0  0
 19 20  1  0  0  0  0
 15 20  2  0  0  0  0
 21 22  1  0  0  0  0
 18 21  1  0  0  0  0
  1 15  1  0  0  0  0
 23 24  1  0  0  0  0
 24 25  2  0  0  0  0
 25 26  1  0  0  0  0
 26 27  2  0  0  0  0
 27 28  1  0  0  0  0
 23 28  2  0  0  0  0
 29 30  1  0  0  0  0
 26 29  1  0  0  0  0
  1 23  1  0  0  0  0
 31 32  3  0  0  0  0
 33 34  1  0  0  0  0
 34 35  2  0  0  0  0
 35 36  1  0  0  0  0
 36 37  2  0  0  0  0
 37 38  1  0  0  0  0
 33 38  2  0  0  0  0
 36 39  1  0  0  0  0
 32 33  1  0  0  0  0
 12 31  1  0  0  0  0
 40 41  1  0  0  0  0
 11 40  1  0  0  0  0
M  END
>  <cdx:groupId>
130

>  <cdx:fragmentId>
5

$$$$
