302472.cdx
  Mrv1902 05222410202D          

 27 29  0  0  0  0            999 V2000
    7.7822   -7.0785    0.0000 C   0  0  0  0  0  0  0  0  0  0  0  0
    7.7822   -6.2535    0.0000 C   0  0  0  0  0  0  0  0  0  0  0  0
    7.0678   -5.8410    0.0000 C   0  0  0  0  0  0  0  0  0  0  0  0
    6.3533   -6.2535    0.0000 C   0  0  0  0  0  0  0  0  0  0  0  0
    5.6388   -5.8410    0.0000 C   0  0  0  0  0  0  0  0  0  0  0  0
    4.9244   -6.2535    0.0000 C   0  0  0  0  0  0  0  0  0  0  0  0
    4.9244   -7.0785    0.0000 C   0  0  0  0  0  0  0  0  0  0  0  0
    5.6388   -7.4910    0.0000 C   0  0  0  0  0  0  0  0  0  0  0  0
    6.3533   -7.0785    0.0000 C   0  0  0  0  0  0  0  0  0  0  0  0
    7.0678   -7.4910    0.0000 O   0  0  0  0  0  0  0  0  0  0  0  0
    7.0678   -5.0160    0.0000 O   0  0  0  0  0  0  0  0  0  0  0  0
    5.6388   -8.3160    0.0000 C   0  0  0  0  0  0  0  0  0  0  0  0
    4.9244   -8.7285    0.0000 C   0  0  0  0  0  0  0  0  0  0  0  0
    4.9244   -9.5535    0.0000 C   0  0  0  0  0  0  0  0  0  0  0  0
    5.6388   -9.9660    0.0000 C   0  0  0  0  0  0  0  0  0  0  0  0
    4.2099   -9.9660    0.0000 C   0  0  0  0  0  0  0  0  0  0  0  0
    5.6388   -5.0160    0.0000 O   0  0  0  0  0  0  0  0  0  0  0  0
    4.9244   -4.6035    0.0000 C   0  0  0  0  0  0  0  0  0  0  0  0
    8.4967   -7.4910    0.0000 C   0  0  0  0  0  0  0  0  0  0  0  0
    9.2112   -7.0785    0.0000 C   0  0  0  0  0  0  0  0  0  0  0  0
    9.9256   -7.4910    0.0000 C   0  0  0  0  0  0  0  0  0  0  0  0
    9.9256   -8.3160    0.0000 C   0  0  0  0  0  0  0  0  0  0  0  0
    9.2112   -8.7285    0.0000 C   0  0  0  0  0  0  0  0  0  0  0  0
    8.4967   -8.3160    0.0000 C   0  0  0  0  0  0  0  0  0  0  0  0
   10.6401   -8.7285    0.0000 O   0  0  0  0  0  0  0  0  0  0  0  0
    4.2099   -7.4910    0.0000 O   0  0  0  0  0  0  0  0  0  0  0  0
    8.4967   -5.8410    0.0000 O   0  0  0  0  0  0  0  0  0  0  0  0
  1  2  2  0  0  0  0
  2  3  1  0  0  0  0
  3  4  1  0  0  0  0
  4  5  1  0  0  0  0
  5  6  2  0  0  0  0
  6  7  1  0  0  0  0
  7  8  2  0  0  0  0
  8  9  1  0  0  0  0
  4  9  2  0  0  0  0
  9 10  1  0  0  0  0
  1 10  1  0  0  0  0
  3 11  2  0  0  0  0
 12 13  1  0  0  0  0
 13 14  2  0  0  0  0
 14 15  1  0  0  0  0
 14 16  1  0  0  0  0
  8 12  1  0  0  0  0
 17 18  1  0  0  0  0
  5 17  1  0  0  0  0
 19 20  1  0  0  0  0
 20 21  2  0  0  0  0
 21 22  1  0  0  0  0
 22 23  2  0  0  0  0
 23 24  1  0  0  0  0
 19 24  2  0  0  0  0
 22 25  1  0  0  0  0
  1 19  1  0  0  0  0
  7 26  1  0  0  0  0
  2 27  1  0  0  0  0
M  END
>  <cdx:fragmentId>
5

$$$$
