302444.cdx
  Mrv1902 05222410242D          

 15 17  0  0  0  0            999 V2000
    7.5774   -6.3054    0.0000 N   0  0  0  0  0  0  0  0  0  0  0  0
    8.2448   -6.7903    0.0000 C   0  0  0  0  0  0  0  0  0  0  0  0
    7.9899   -7.5749    0.0000 C   0  0  0  0  0  0  0  0  0  0  0  0
    7.1649   -7.5749    0.0000 C   0  0  0  0  0  0  0  0  0  0  0  0
    6.6128   -8.1880    0.0000 C   0  0  0  0  0  0  0  0  0  0  0  0
    5.8059   -8.0165    0.0000 C   0  0  0  0  0  0  0  0  0  0  0  0
    5.5509   -7.2319    0.0000 C   0  0  0  0  0  0  0  0  0  0  0  0
    6.1030   -6.6188    0.0000 C   0  0  0  0  0  0  0  0  0  0  0  0
    6.9099   -6.7903    0.0000 C   0  0  0  0  0  0  0  0  0  0  0  0
    9.0518   -6.6188    0.0000 C   0  0  0  0  0  0  0  0  0  0  0  0
    8.5419   -8.1880    0.0000 C   0  0  0  0  0  0  0  0  0  0  0  0
    9.3489   -8.0165    0.0000 C   0  0  0  0  0  0  0  0  0  0  0  0
    9.6038   -7.2319    0.0000 N   0  0  0  0  0  0  0  0  0  0  0  0
    5.2538   -8.6296    0.0000 O   0  0  0  0  0  0  0  0  0  0  0  0
    9.3067   -5.8342    0.0000 C   0  0  0  0  0  0  0  0  0  0  0  0
  1  2  1  0  0  0  0
  2  3  2  0  0  0  0
  3  4  1  0  0  0  0
  4  5  1  0  0  0  0
  5  6  2  0  0  0  0
  6  7  1  0  0  0  0
  7  8  2  0  0  0  0
  8  9  1  0  0  0  0
  1  9  1  0  0  0  0
  4  9  2  0  0  0  0
 11 12  1  0  0  0  0
 12 13  1  0  0  0  0
 10 13  1  0  0  0  0
 10  2  1  0  0  0  0
 11  3  1  0  0  0  0
  6 14  1  0  0  0  0
 10 15  1  0  0  0  0
M  END
>  <cdx:groupId>
49

>  <cdx:fragmentId>
5

$$$$
