302427.cdx
  Mrv1902 05222410272D          

 40 44  0  0  0  0            999 V2000
    7.9831   -7.3094    0.0000 C   0  0  0  0  0  0  0  0  0  0  0  0
    4.0856   -9.1739    0.0000 C   0  0  0  0  0  0  0  0  0  0  0  0
    3.3712   -9.5864    0.0000 C   0  0  1  0  0  0  0  0  0  0  0  0
    3.3712  -10.4114    0.0000 C   0  0  1  0  0  0  0  0  0  0  0  0
    4.0856  -10.8239    0.0000 C   0  0  0  0  0  0  0  0  0  0  0  0
    4.8001  -10.4114    0.0000 C   0  0  1  0  0  0  0  0  0  0  0  0
    5.5146  -10.8239    0.0000 C   0  0  0  0  0  0  0  0  0  0  0  0
    6.2290  -10.4114    0.0000 C   0  0  0  0  0  0  0  0  0  0  0  0
    6.2290   -9.5864    0.0000 C   0  0  0  0  0  0  0  0  0  0  0  0
    6.9435   -9.1739    0.0000 C   0  0  0  0  0  0  0  0  0  0  0  0
    7.7281   -9.4289    0.0000 C   0  0  0  0  0  0  0  0  0  0  0  0
    8.2131   -8.7614    0.0000 C   0  0  0  0  0  0  0  0  0  0  0  0
    7.7281   -8.0940    0.0000 C   0  0  1  0  0  0  0  0  0  0  0  0
    6.9435   -8.3489    0.0000 C   0  0  1  0  0  0  0  0  0  0  0  0
    6.2290   -7.9364    0.0000 C   0  0  0  0  0  0  0  0  0  0  0  0
    5.5146   -8.3489    0.0000 C   0  0  0  0  0  0  0  0  0  0  0  0
    5.5146   -9.1739    0.0000 C   0  0  2  0  0  0  0  0  0  0  0  0
    4.8001   -9.5864    0.0000 C   0  0  1  0  0  0  0  0  0  0  0  0
    5.5146  -11.6489    0.0000 O   0  0  0  0  0  0  0  0  0  0  0  0
    7.0298   -7.5285    0.0000 C   0  0  0  0  0  0  0  0  0  0  0  0
    4.8001   -8.7614    0.0000 C   0  0  0  0  0  0  0  0  0  0  0  0
    6.9435   -9.9989    0.0000 O   0  0  0  0  0  0  0  0  0  0  0  0
    2.6567  -10.8239    0.0000 O   0  0  0  0  0  0  0  0  0  0  0  0
    2.6567   -9.1739    0.0000 O   0  0  0  0  0  0  0  0  0  0  0  0
    4.8001  -11.2364    0.0000 O   0  0  0  0  0  0  0  0  0  0  0  0
    5.5146   -9.9989    0.0000 H   0  0  0  0  0  0  0  0  0  0  0  0
    8.5250   -7.8805    0.0000 H   0  0  0  0  0  0  0  0  0  0  0  0
    8.1966   -6.5125    0.0000 C   0  0  0  0  0  0  0  0  0  0  0  0
    7.1862   -7.0959    0.0000 C   0  0  0  0  0  0  0  0  0  0  0  0
    8.7800   -7.5229    0.0000 O   0  0  0  0  0  0  0  0  0  0  0  0
    8.9935   -6.2990    0.0000 C   0  0  0  0  0  0  0  0  0  0  0  0
    9.2070   -5.5021    0.0000 C   0  0  1  0  0  0  0  0  0  0  0  0
   10.0039   -5.2886    0.0000 C   0  0  1  0  0  0  0  0  0  0  0  0
   10.2174   -4.4917    0.0000 C   0  0  0  0  0  0  0  0  0  0  0  0
    9.6341   -3.9083    0.0000 O   0  0  0  0  0  0  0  0  0  0  0  0
    8.8372   -4.1218    0.0000 C   0  0  0  0  0  0  0  0  0  0  0  0
    8.6237   -4.9187    0.0000 C   0  0  2  0  0  0  0  0  0  0  0  0
    7.8268   -5.1322    0.0000 O   0  0  0  0  0  0  0  0  0  0  0  0
   10.5873   -5.8719    0.0000 C   0  0  0  0  0  0  0  0  0  0  0  0
   11.0143   -4.2781    0.0000 O   0  0  0  0  0  0  0  0  0  0  0  0
  2  3  1  0  0  0  0
  3  4  1  0  0  0  0
  4  5  1  0  0  0  0
  5  6  1  0  0  0  0
  6  7  1  0  0  0  0
  7  8  1  0  0  0  0
  8  9  2  0  0  0  0
  9 10  1  0  0  0  0
 10 11  1  0  0  0  0
 11 12  1  0  0  0  0
 13 12  1  0  0  0  0
 13 14  1  0  0  0  0
 10 14  1  0  0  0  0
 14 15  1  0  0  0  0
 15 16  1  0  0  0  0
 16 17  1  0  0  0  0
  9 17  1  0  0  0  0
 17 18  1  0  0  0  0
  6 18  1  0  0  0  0
  2 18  1  0  0  0  0
  7 19  2  0  0  0  0
 14 20  1  1  0  0  0
 18 21  1  1  0  0  0
 10 22  1  0  0  0  0
  4 23  1  1  0  0  0
  3 24  1  1  0  0  0
  1 13  1  0  0  0  0
  6 25  1  1  0  0  0
 17 26  1  6  0  0  0
 13 27  1  6  0  0  0
  1 28  1  0  0  0  0
  1 29  1  0  0  0  0
  1 30  1  1  0  0  0
 28 31  1  0  0  0  0
 32 31  1  6  0  0  0
 32 33  1  0  0  0  0
 33 34  1  0  0  0  0
 34 35  1  0  0  0  0
 35 36  1  0  0  0  0
 36 37  1  0  0  0  0
 37 32  1  0  0  0  0
 37 38  1  1  0  0  0
 33 39  1  1  0  0  0
 34 40  2  0  0  0  0
M  END
>  <cdx:fragmentId>
29

$$$$
