302441.cdx
  Mrv1902 05222410252D          

 33 36  0  0  0  0            999 V2000
    8.1395   -9.5612    0.0000 C   0  0  0  0  0  0  0  0  0  0  0  0
    7.4250   -9.9737    0.0000 C   0  0  0  0  0  0  0  0  0  0  0  0
    6.7105   -9.5612    0.0000 C   0  0  0  0  0  0  0  0  0  0  0  0
    6.7105   -8.7362    0.0000 C   0  0  0  0  0  0  0  0  0  0  0  0
    7.4250   -8.3237    0.0000 C   0  0  0  0  0  0  0  0  0  0  0  0
    8.1395   -8.7362    0.0000 C   0  0  0  0  0  0  0  0  0  0  0  0
    8.8539   -9.9737    0.0000 O   0  0  0  0  0  0  0  0  0  0  0  0
    5.9961   -9.9737    0.0000 O   0  0  0  0  0  0  0  0  0  0  0  0
    8.8539   -8.3237    0.0000 C   0  0  0  0  0  0  0  0  0  0  0  0
    9.5684   -8.7362    0.0000 C   0  0  0  0  0  0  0  0  0  0  0  0
   10.2829   -8.3237    0.0000 C   0  0  0  0  0  0  0  0  0  0  0  0
   10.9974   -8.7362    0.0000 C   0  0  0  0  0  0  0  0  0  0  0  0
   10.9974   -9.5612    0.0000 C   0  0  0  0  0  0  0  0  0  0  0  0
   10.2829   -9.9737    0.0000 C   0  0  0  0  0  0  0  0  0  0  0  0
    9.5684   -9.5612    0.0000 C   0  0  0  0  0  0  0  0  0  0  0  0
   11.7118   -9.9737    0.0000 O   0  0  0  0  0  0  0  0  0  0  0  0
    5.9961   -8.3237    0.0000 C   0  0  0  0  0  0  0  0  0  0  0  0
    5.2816   -8.7362    0.0000 C   0  0  0  0  0  0  0  0  0  0  0  0
    5.2816   -9.5612    0.0000 C   0  0  0  0  0  0  0  0  0  0  0  0
    4.5671   -9.9737    0.0000 C   0  0  0  0  0  0  0  0  0  0  0  0
    3.8526   -9.5612    0.0000 C   0  0  0  0  0  0  0  0  0  0  0  0
    3.8526   -8.7362    0.0000 C   0  0  0  0  0  0  0  0  0  0  0  0
    4.5671   -8.3237    0.0000 C   0  0  0  0  0  0  0  0  0  0  0  0
    3.1382   -9.9737    0.0000 O   0  0  0  0  0  0  0  0  0  0  0  0
    7.4250   -7.4987    0.0000 C   0  0  0  0  0  0  0  0  0  0  0  0
    8.1395   -7.0862    0.0000 C   0  0  0  0  0  0  0  0  0  0  0  0
    8.1395   -6.2612    0.0000 C   0  0  0  0  0  0  0  0  0  0  0  0
    7.4250   -5.8487    0.0000 C   0  0  0  0  0  0  0  0  0  0  0  0
    7.4250   -5.0237    0.0000 C   0  0  0  0  0  0  0  0  0  0  0  0
    8.1395   -4.6112    0.0000 C   0  0  0  0  0  0  0  0  0  0  0  0
    8.8539   -5.0237    0.0000 C   0  0  0  0  0  0  0  0  0  0  0  0
    8.8539   -5.8487    0.0000 C   0  0  0  0  0  0  0  0  0  0  0  0
    6.7105   -4.6112    0.0000 O   0  0  0  0  0  0  0  0  0  0  0  0
  1  2  1  0  0  0  0
  2  3  2  0  0  0  0
  3  4  1  0  0  0  0
  4  5  2  0  0  0  0
  5  6  1  0  0  0  0
  1  6  2  0  0  0  0
  1  7  1  0  0  0  0
  3  8  1  0  0  0  0
 10 11  1  0  0  0  0
 11 12  2  0  0  0  0
 12 13  1  0  0  0  0
 13 14  2  0  0  0  0
 14 15  1  0  0  0  0
 10 15  2  0  0  0  0
 13 16  1  0  0  0  0
  9 10  1  0  0  0  0
  6  9  1  0  0  0  0
 18 19  1  0  0  0  0
 19 20  2  0  0  0  0
 20 21  1  0  0  0  0
 21 22  2  0  0  0  0
 22 23  1  0  0  0  0
 18 23  2  0  0  0  0
 21 24  1  0  0  0  0
 17 18  1  0  0  0  0
  4 17  1  0  0  0  0
 25 26  1  0  0  0  0
 27 28  1  0  0  0  0
 28 29  2  0  0  0  0
 29 30  1  0  0  0  0
 30 31  2  0  0  0  0
 31 32  1  0  0  0  0
 27 32  2  0  0  0  0
 29 33  1  0  0  0  0
 26 27  1  0  0  0  0
  5 25  1  0  0  0  0
M  END
>  <cdx:groupId>
104

>  <cdx:fragmentId>
23

$$$$
