302496.cdx
  Mrv1902 05222410252D          

 60 67  0  0  0  0            999 V2000
   14.4769   -6.5933    0.0000 C   0  0  0  0  0  0  0  0  0  0  0  0
   13.6651   -6.4463    0.0000 C   0  0  0  0  0  0  0  0  0  0  0  0
   13.0127   -6.9512    0.0000 C   0  0  0  0  0  0  0  0  0  0  0  0
   12.2492   -6.6387    0.0000 C   0  0  2  0  0  0  0  0  0  0  0  0
   11.5967   -7.1436    0.0000 C   0  0  1  0  0  0  0  0  0  0  0  0
   11.7078   -7.9611    0.0000 C   0  0  0  0  0  0  0  0  0  0  0  0
   11.0554   -8.4660    0.0000 C   0  0  0  0  0  0  0  0  0  0  0  0
   10.2919   -8.1535    0.0000 C   0  0  1  0  0  0  0  0  0  0  0  0
   10.1808   -7.3360    0.0000 C   0  0  0  0  0  0  0  0  0  0  0  0
   10.8332   -6.8311    0.0000 C   0  0  0  0  0  0  0  0  0  0  0  0
   10.7222   -6.0136    0.0000 C   0  0  0  0  0  0  0  0  0  0  0  0
   11.3746   -5.5086    0.0000 C   0  0  0  0  0  0  0  0  0  0  0  0
   12.1381   -5.8212    0.0000 C   0  0  1  0  0  0  0  0  0  0  0  0
   12.7905   -5.3162    0.0000 C   0  0  0  0  0  0  0  0  0  0  0  0
   13.5540   -5.6288    0.0000 O   0  0  0  0  0  0  0  0  0  0  0  0
   14.2972   -5.2705    0.0000 C   0  0  2  0  0  0  0  0  0  0  0  0
   14.9749   -4.7982    0.0000 C   0  0  0  0  0  0  0  0  0  0  0  0
   15.7016   -5.1889    0.0000 O   0  0  0  0  0  0  0  0  0  0  0  0
   15.6793   -6.0136    0.0000 C   0  0  2  0  0  0  0  0  0  0  0  0
   15.7904   -6.8311    0.0000 O   0  0  0  0  0  0  0  0  0  0  0  0
   15.0473   -7.1893    0.0000 C   0  0  0  0  0  0  0  0  0  0  0  0
   14.8675   -5.8666    0.0000 C   0  0  2  0  0  0  0  0  0  0  0  0
   12.6794   -4.4988    0.0000 O   0  0  0  0  0  0  0  0  0  0  0  0
   16.5043   -6.0136    0.0000 C   0  0  0  0  0  0  0  0  0  0  0  0
   11.5967   -6.3186    0.0000 C   0  0  0  0  0  0  0  0  0  0  0  0
    9.6395   -8.6584    0.0000 O   0  0  0  0  0  0  0  0  0  0  0  0
    8.7649   -7.5284    0.0000 O   0  0  0  0  0  0  0  0  0  0  0  0
    8.8760   -8.3459    0.0000 C   0  0  2  0  0  0  0  0  0  0  0  0
    8.2235   -8.8508    0.0000 C   0  0  1  0  0  0  0  0  0  0  0  0
    7.4600   -8.5383    0.0000 C   0  0  2  0  0  0  0  0  0  0  0  0
    7.3489   -7.7208    0.0000 C   0  0  1  0  0  0  0  0  0  0  0  0
    8.0014   -7.2159    0.0000 C   0  0  1  0  0  0  0  0  0  0  0  0
    7.8903   -6.3984    0.0000 C   0  0  0  0  0  0  0  0  0  0  0  0
    6.8076   -9.0432    0.0000 O   0  0  0  0  0  0  0  0  0  0  0  0
    6.9187   -9.8607    0.0000 C   0  0  0  0  0  0  0  0  0  0  0  0
    6.5854   -7.4082    0.0000 O   0  0  0  0  0  0  0  0  0  0  0  0
    5.1695   -7.6006    0.0000 O   0  0  0  0  0  0  0  0  0  0  0  0
    5.9330   -7.9132    0.0000 C   0  0  2  0  0  0  0  0  0  0  0  0
    6.0441   -8.7307    0.0000 C   0  0  0  0  0  0  0  0  0  0  0  0
    5.3917   -9.2356    0.0000 C   0  0  1  0  0  0  0  0  0  0  0  0
    4.6282   -8.9231    0.0000 C   0  0  1  0  0  0  0  0  0  0  0  0
    4.5171   -8.1056    0.0000 C   0  0  1  0  0  0  0  0  0  0  0  0
    3.7536   -7.7930    0.0000 C   0  0  0  0  0  0  0  0  0  0  0  0
    3.9757   -9.4280    0.0000 O   0  0  0  0  0  0  0  0  0  0  0  0
    3.1012   -8.2980    0.0000 O   0  0  0  0  0  0  0  0  0  0  0  0
    3.2122   -9.1155    0.0000 C   0  0  2  0  0  0  0  0  0  0  0  0
    2.5598   -9.6204    0.0000 C   0  0  0  0  0  0  0  0  0  0  0  0
    1.7963   -9.3079    0.0000 C   0  0  1  0  0  0  0  0  0  0  0  0
    1.6852   -8.4904    0.0000 C   0  0  1  0  0  0  0  0  0  0  0  0
    2.3376   -7.9854    0.0000 C   0  0  1  0  0  0  0  0  0  0  0  0
    2.2266   -7.1679    0.0000 C   0  0  0  0  0  0  0  0  0  0  0  0
    1.1439   -9.8128    0.0000 O   0  0  0  0  0  0  0  0  0  0  0  0
    0.3804   -9.5002    0.0000 C   0  0  0  0  0  0  0  0  0  0  0  0
    0.9217   -8.1778    0.0000 O   0  0  0  0  0  0  0  0  0  0  0  0
    5.5027  -10.0531    0.0000 O   0  0  0  0  0  0  0  0  0  0  0  0
    8.3346   -9.6683    0.0000 O   0  0  0  0  0  0  0  0  0  0  0  0
   12.2492   -7.4637    0.0000 H   0  0  0  0  0  0  0  0  0  0  0  0
   12.0270   -5.0037    0.0000 H   0  0  0  0  0  0  0  0  0  0  0  0
   13.8847   -4.5561    0.0000 H   0  0  0  0  0  0  0  0  0  0  0  0
   15.2258   -6.6098    0.0000 H   0  0  0  0  0  0  0  0  0  0  0  0
  1  2  1  0  0  0  0
  2  3  1  0  0  0  0
  3  4  1  0  0  0  0
  4  5  1  0  0  0  0
  5  6  1  0  0  0  0
  6  7  1  0  0  0  0
  7  8  1  0  0  0  0
  8  9  1  0  0  0  0
  9 10  1  0  0  0  0
 10 11  2  0  0  0  0
 11 12  1  0  0  0  0
 12 13  1  0  0  0  0
 13 14  1  0  0  0  0
 14 15  1  0  0  0  0
 15 16  1  0  0  0  0
 16 17  1  0  0  0  0
 17 18  1  0  0  0  0
 18 19  1  0  0  0  0
 19 20  1  0  0  0  0
 20 21  1  0  0  0  0
  1 21  2  0  0  0  0
  1 22  1  0  0  0  0
 22 16  1  0  0  0  0
  4 13  1  0  0  0  0
  5 10  1  0  0  0  0
 19 22  1  0  0  0  0
 14 23  2  0  0  0  0
 19 24  1  1  0  0  0
  5 25  1  6  0  0  0
 27 28  1  0  0  0  0
 28 29  1  0  0  0  0
 29 30  1  0  0  0  0
 30 31  1  0  0  0  0
 31 32  1  0  0  0  0
 27 32  1  0  0  0  0
 32 33  1  1  0  0  0
 34 35  1  0  0  0  0
 30 34  1  1  0  0  0
 37 38  1  0  0  0  0
 38 39  1  0  0  0  0
 39 40  1  0  0  0  0
 40 41  1  0  0  0  0
 41 42  1  0  0  0  0
 37 42  1  0  0  0  0
 42 43  1  1  0  0  0
 45 46  1  0  0  0  0
 46 47  1  0  0  0  0
 47 48  1  0  0  0  0
 48 49  1  0  0  0  0
 49 50  1  0  0  0  0
 45 50  1  0  0  0  0
 50 51  1  1  0  0  0
 52 53  1  0  0  0  0
 48 52  1  6  0  0  0
 49 54  1  6  0  0  0
 46 44  1  1  0  0  0
 41 44  1  6  0  0  0
 40 55  1  6  0  0  0
 38 36  1  1  0  0  0
 31 36  1  6  0  0  0
 29 56  1  6  0  0  0
 28 26  1  1  0  0  0
  8 26  1  6  0  0  0
  4 57  1  1  0  0  0
 13 58  1  6  0  0  0
 16 59  1  1  0  0  0
 22 60  1  1  0  0  0
M  END
>  <cdx:groupId>
189

>  <cdx:fragmentId>
93

$$$$
