30243.cdx
  Mrv1902 05222410192D          

 25 25  0  0  0  0            999 V2000
    0.8775   -9.1151    0.0000 O   0  0  0  0  0  0  0  0  0  0  0  0
    1.5920   -8.7026    0.0000 C   0  0  0  0  0  0  0  0  0  0  0  0
    2.3065   -9.1151    0.0000 C   0  0  0  0  0  0  0  0  0  0  0  0
    3.0209   -8.7026    0.0000 C   0  0  0  0  0  0  0  0  0  0  0  0
    3.7354   -9.1151    0.0000 C   0  0  0  0  0  0  0  0  0  0  0  0
    4.4499   -8.7026    0.0000 C   0  0  0  0  0  0  0  0  0  0  0  0
    5.1644   -9.1151    0.0000 C   0  0  0  0  0  0  0  0  0  0  0  0
    5.8788   -8.7026    0.0000 C   0  0  0  0  0  0  0  0  0  0  0  0
    6.5933   -9.1151    0.0000 C   0  0  0  0  0  0  0  0  0  0  0  0
    7.3078   -8.7026    0.0000 C   0  0  0  0  0  0  0  0  0  0  0  0
    8.0222   -9.1151    0.0000 C   0  0  0  0  0  0  0  0  0  0  0  0
    8.7367   -8.7026    0.0000 C   0  0  0  0  0  0  0  0  0  0  0  0
    9.4512   -9.1151    0.0000 C   0  0  0  0  0  0  0  0  0  0  0  0
    1.5920   -7.8776    0.0000 O   0  0  0  0  0  0  0  0  0  0  0  0
    8.7367   -7.8776    0.0000 O   0  0  0  0  0  0  0  0  0  0  0  0
   10.2762   -9.1151    0.0000 C   0  0  0  0  0  0  0  0  0  0  0  0
   10.9906   -8.7026    0.0000 C   0  0  0  0  0  0  0  0  0  0  0  0
   11.7051   -9.1151    0.0000 C   0  0  0  0  0  0  0  0  0  0  0  0
   12.4196   -8.7026    0.0000 C   0  0  0  0  0  0  0  0  0  0  0  0
   13.1341   -9.1151    0.0000 C   0  0  0  0  0  0  0  0  0  0  0  0
   13.8485   -8.7026    0.0000 C   0  0  0  0  0  0  0  0  0  0  0  0
    9.0799   -8.4826    0.0000 H   0  0  0  0  0  0  0  0  0  0  0  0
    9.8637   -9.8296    0.0000 C   0  0  0  0  0  0  0  0  0  0  0  0
    9.1291   -9.4510    0.0000 H   0  0  0  0  0  0  0  0  0  0  0  0
   10.5983   -9.4648    0.0000 H   0  0  0  0  0  0  0  0  0  0  0  0
  1  2  1  0  0  0  0
  2  3  1  0  0  0  0
  3  4  1  0  0  0  0
  4  5  1  0  0  0  0
  5  6  1  0  0  0  0
  6  7  1  0  0  0  0
  7  8  1  0  0  0  0
  8  9  1  0  0  0  0
  9 10  1  0  0  0  0
 10 11  2  3  0  0  0
 11 12  1  0  0  0  0
 12 13  1  0  0  0  0
  2 14  2  0  0  0  0
 12 15  1  0  0  0  0
 13 16  1  0  0  0  0
 16 17  1  0  0  0  0
 17 18  1  0  0  0  0
 18 19  1  0  0  0  0
 19 20  1  0  0  0  0
 20 21  1  0  0  0  0
 12 22  1  0  0  0  0
 13 23  1  0  0  0  0
 23 16  1  0  0  0  0
 13 24  1  0  0  0  0
 16 25  1  0  0  0  0
M  END
>  <cdx:fragmentId>
3

$$$$
