302431.cdx
  Mrv1902 05222410262D          

 15 16  0  0  0  0            999 V2000
    7.9602   -7.8161    0.0000 O   0  0  0  0  0  0  0  0  0  0  0  0
    7.4753   -8.4836    0.0000 C   0  0  0  0  0  0  0  0  0  0  0  0
    6.6907   -8.2286    0.0000 C   0  0  0  0  0  0  0  0  0  0  0  0
    6.6907   -7.4036    0.0000 C   0  0  0  0  0  0  0  0  0  0  0  0
    7.4753   -7.1487    0.0000 C   0  0  2  0  0  0  0  0  0  0  0  0
    5.9762   -6.9911    0.0000 C   0  0  0  0  0  0  0  0  0  0  0  0
    5.2618   -7.4036    0.0000 C   0  0  0  0  0  0  0  0  0  0  0  0
    5.2618   -8.2286    0.0000 C   0  0  0  0  0  0  0  0  0  0  0  0
    5.9762   -8.6411    0.0000 C   0  0  0  0  0  0  0  0  0  0  0  0
    7.7303   -9.2682    0.0000 O   0  0  0  0  0  0  0  0  0  0  0  0
    5.9762   -6.1661    0.0000 O   0  0  0  0  0  0  0  0  0  0  0  0
    7.7303   -6.3641    0.0000 C   0  0  0  0  0  0  0  0  0  0  0  0
    8.5372   -6.1926    0.0000 C   0  0  0  0  0  0  0  0  0  0  0  0
    8.7922   -5.4079    0.0000 C   0  0  0  0  0  0  0  0  0  0  0  0
    9.5991   -5.2364    0.0000 C   0  0  0  0  0  0  0  0  0  0  0  0
  1  2  1  0  0  0  0
  2  3  1  0  0  0  0
  3  4  2  0  0  0  0
  4  5  1  0  0  0  0
  1  5  1  0  0  0  0
  6  7  1  0  0  0  0
  7  8  1  0  0  0  0
  8  9  2  0  0  0  0
  9  3  1  0  0  0  0
  6  4  1  0  0  0  0
  2 10  2  0  0  0  0
  6 11  1  0  0  0  0
 12 13  1  0  0  0  0
 13 14  1  0  0  0  0
 14 15  1  0  0  0  0
  5 12  1  6  0  0  0
M  END
>  <cdx:fragmentId>
5

$$$$
