302434.cdx
  Mrv1902 05222410282D          

 16 17  0  0  0  0            999 V2000
   10.1217   -5.1653    0.0000 C   0  0  0  0  0  0  0  0  0  0  0  0
    9.3131   -5.3291    0.0000 C   0  0  0  0  0  0  0  0  0  0  0  0
    9.0507   -6.1113    0.0000 C   0  0  0  0  0  0  0  0  0  0  0  0
    8.2421   -6.2751    0.0000 C   0  0  0  0  0  0  0  0  0  0  0  0
    5.0375   -8.5216    0.0000 O   0  0  0  0  0  0  0  0  0  0  0  0
    6.4585   -9.3602    0.0000 O   0  0  0  0  0  0  0  0  0  0  0  0
    8.2143   -9.1791    0.0000 O   0  0  0  0  0  0  0  0  0  0  0  0
    6.4664   -8.5352    0.0000 C   0  0  2  0  0  0  0  0  0  0  0  0
    5.7559   -8.1159    0.0000 C   0  0  2  0  0  0  0  0  0  0  0  0
    5.7638   -7.2910    0.0000 C   0  0  0  0  0  0  0  0  0  0  0  0
    6.4822   -6.8853    0.0000 C   0  0  0  0  0  0  0  0  0  0  0  0
    7.9797   -7.0572    0.0000 C   0  0  1  0  0  0  0  0  0  0  0  0
    7.1927   -7.3046    0.0000 C   0  0  0  0  0  0  0  0  0  0  0  0
    7.1848   -8.1296    0.0000 C   0  0  0  0  0  0  0  0  0  0  0  0
    7.9669   -8.3920    0.0000 C   0  0  0  0  0  0  0  0  0  0  0  0
    8.4582   -7.7293    0.0000 O   0  0  0  0  0  0  0  0  0  0  0  0
 12  4  1  6  0  0  0
  2  1  1  0  0  0  0
  3  2  1  0  0  0  0
  4  3  1  0  0  0  0
  9  5  1  1  0  0  0
  8  6  1  6  0  0  0
 15  7  2  0  0  0  0
 11 13  1  0  0  0  0
  8 14  1  0  0  0  0
  9  8  1  0  0  0  0
 10  9  1  0  0  0  0
 11 10  1  0  0  0  0
 16 12  1  0  0  0  0
 13 12  1  0  0  0  0
 14 13  2  0  0  0  0
 15 14  1  0  0  0  0
 16 15  1  0  0  0  0
M  END
>  <cdx:fragmentId>
5

$$$$
