302440.cdx
  Mrv1902 05222410252D          

 16 16  0  0  0  0            999 V2000
   10.3787   -7.6929    0.0000 O   0  0  0  0  0  0  0  0  0  0  0  0
    9.6250   -7.3574    0.0000 C   0  0  0  0  0  0  0  0  0  0  0  0
    9.7113   -6.5369    0.0000 C   0  0  0  0  0  0  0  0  0  0  0  0
   10.5182   -6.3654    0.0000 C   0  0  0  0  0  0  0  0  0  0  0  0
   10.9307   -7.0798    0.0000 C   0  0  0  0  0  0  0  0  0  0  0  0
    9.0982   -5.9849    0.0000 C   0  0  0  0  0  0  0  0  0  0  0  0
    8.9105   -7.7699    0.0000 C   0  0  0  0  0  0  0  0  0  0  0  0
    8.1961   -7.3574    0.0000 C   0  0  0  0  0  0  0  0  0  0  0  0
    7.4816   -7.7699    0.0000 C   0  0  0  0  0  0  0  0  0  0  0  0
    6.7671   -7.3574    0.0000 C   0  0  0  0  0  0  0  0  0  0  0  0
    6.0527   -7.7699    0.0000 C   0  0  0  0  0  0  0  0  0  0  0  0
    5.3382   -7.3574    0.0000 C   0  0  0  0  0  0  0  0  0  0  0  0
    4.6237   -7.7699    0.0000 C   0  0  0  0  0  0  0  0  0  0  0  0
    4.6237   -8.5949    0.0000 C   0  0  0  0  0  0  0  0  0  0  0  0
    3.9092   -7.3574    0.0000 C   0  0  0  0  0  0  0  0  0  0  0  0
    7.4816   -8.5949    0.0000 C   0  0  0  0  0  0  0  0  0  0  0  0
  1  2  1  0  0  0  0
  2  3  2  0  0  0  0
  3  4  1  0  0  0  0
  4  5  2  0  0  0  0
  1  5  1  0  0  0  0
  3  6  1  0  0  0  0
  7  8  1  0  0  0  0
  8  9  2  0  0  0  0
  9 10  1  0  0  0  0
 10 11  1  0  0  0  0
 11 12  1  0  0  0  0
 12 13  2  0  0  0  0
 13 14  1  0  0  0  0
 13 15  1  0  0  0  0
  9 16  1  0  0  0  0
  2  7  1  0  0  0  0
M  END
>  <cdx:groupId>
54

>  <cdx:fragmentId>
21

$$$$
