302455.cdx
  Mrv1902 05222410252D          

 17 16  0  0  0  0            999 V2000
    7.4135   -7.4282    0.0000 Si  0  0  0  0  0  0  0  0  0  0  0  0
    8.1280   -7.8407    0.0000 O   0  0  0  0  0  0  0  0  0  0  0  0
    6.5930   -7.5144    0.0000 O   0  0  0  0  0  0  0  0  0  0  0  0
    8.8425   -7.4282    0.0000 Si  0  0  0  0  0  0  0  0  0  0  0  0
    9.5569   -7.0157    0.0000 C   0  0  0  0  0  0  0  0  0  0  0  0
    8.8425   -6.6032    0.0000 C   0  0  0  0  0  0  0  0  0  0  0  0
    9.5569   -7.8407    0.0000 C   0  0  0  0  0  0  0  0  0  0  0  0
    6.1081   -6.8470    0.0000 Si  0  0  0  0  0  0  0  0  0  0  0  0
    6.4437   -6.0933    0.0000 C   0  0  0  0  0  0  0  0  0  0  0  0
    5.6232   -6.1795    0.0000 C   0  0  0  0  0  0  0  0  0  0  0  0
    5.2876   -6.9332    0.0000 C   0  0  0  0  0  0  0  0  0  0  0  0
    7.4135   -6.6032    0.0000 O   0  0  0  0  0  0  0  0  0  0  0  0
    7.4135   -8.2532    0.0000 O   0  0  0  0  0  0  0  0  0  0  0  0
    6.6990   -8.6657    0.0000 C   0  0  0  0  0  0  0  0  0  0  0  0
    5.9846   -8.2532    0.0000 C   0  0  0  0  0  0  0  0  0  0  0  0
    8.1280   -6.1907    0.0000 C   0  0  0  0  0  0  0  0  0  0  0  0
    8.1280   -5.3657    0.0000 C   0  0  0  0  0  0  0  0  0  0  0  0
  1  2  1  0  0  0  0
  1  3  1  0  0  0  0
  4  5  1  0  0  0  0
  4  6  1  0  0  0  0
  4  7  1  0  0  0  0
  2  4  1  0  0  0  0
  8  9  1  0  0  0  0
  8 10  1  0  0  0  0
  8 11  1  0  0  0  0
  3  8  1  0  0  0  0
  1 12  1  0  0  0  0
  1 13  1  0  0  0  0
 13 14  1  0  0  0  0
 14 15  1  0  0  0  0
 12 16  1  0  0  0  0
 16 17  1  0  0  0  0
M  END
>  <cdx:groupId>
49

>  <cdx:fragmentId>
13

$$$$
