302461.cdx
  Mrv1902 05222410222D          

 64 68  0  0  0  0            999 V2000
   13.7276  -10.2571    0.0000 C   0  0  0  0  0  0  0  0  0  0  0  0
   13.0131  -10.6696    0.0000 C   0  0  0  0  0  0  0  0  0  0  0  0
   13.0131  -11.4946    0.0000 C   0  0  1  0  0  0  0  0  0  0  0  0
   13.7276  -11.9071    0.0000 C   0  0  0  0  0  0  0  0  0  0  0  0
   14.4421  -11.4946    0.0000 C   0  0  0  0  0  0  0  0  0  0  0  0
   15.1565  -11.9071    0.0000 C   0  0  0  0  0  0  0  0  0  0  0  0
   15.8710  -11.4946    0.0000 C   0  0  0  0  0  0  0  0  0  0  0  0
   15.8710  -10.6696    0.0000 C   0  0  1  0  0  0  0  0  0  0  0  0
   16.5855  -10.2571    0.0000 C   0  0  2  0  0  0  0  0  0  0  0  0
   17.3701  -10.5120    0.0000 C   0  0  0  0  0  0  0  0  0  0  0  0
   17.8550   -9.8446    0.0000 C   0  0  0  0  0  0  0  0  0  0  0  0
   17.3701   -9.1771    0.0000 C   0  0  1  0  0  0  0  0  0  0  0  0
   16.5855   -9.4321    0.0000 C   0  0  1  0  0  0  0  0  0  0  0  0
   15.8710   -9.0196    0.0000 C   0  0  0  0  0  0  0  0  0  0  0  0
   15.1565   -9.4321    0.0000 C   0  0  0  0  0  0  0  0  0  0  0  0
   15.1565  -10.2571    0.0000 C   0  0  2  0  0  0  0  0  0  0  0  0
   14.4421  -10.6696    0.0000 C   0  0  1  0  0  0  0  0  0  0  0  0
   16.6717   -8.6116    0.0000 C   0  0  0  0  0  0  0  0  0  0  0  0
   14.4421   -9.8446    0.0000 C   0  0  0  0  0  0  0  0  0  0  0  0
   17.0730   -7.7794    0.0000 C   0  0  0  0  0  0  0  0  0  0  0  0
   17.6250   -8.3925    0.0000 C   0  0  2  0  0  0  0  0  0  0  0  0
   18.4320   -8.2210    0.0000 C   0  0  0  0  0  0  0  0  0  0  0  0
   18.6869   -7.4364    0.0000 C   0  0  0  0  0  0  0  0  0  0  0  0
   19.4939   -7.2648    0.0000 C   0  0  2  0  0  0  0  0  0  0  0  0
   19.7489   -6.4802    0.0000 C   0  0  0  0  0  0  0  0  0  0  0  0
   19.1968   -5.8671    0.0000 C   0  0  0  0  0  0  0  0  0  0  0  0
   20.5558   -6.3087    0.0000 C   0  0  0  0  0  0  0  0  0  0  0  0
   20.0459   -7.8779    0.0000 C   0  0  0  0  0  0  0  0  0  0  0  0
   20.8529   -7.7064    0.0000 C   0  0  0  0  0  0  0  0  0  0  0  0
   15.8710   -9.8446    0.0000 H   0  0  0  0  0  0  0  0  0  0  0  0
   15.1565  -11.0821    0.0000 H   0  0  0  0  0  0  0  0  0  0  0  0
   16.5855  -11.0821    0.0000 H   0  0  0  0  0  0  0  0  0  0  0  0
   12.2986  -11.9071    0.0000 O   0  0  0  0  0  0  0  0  0  0  0  0
    9.4444  -10.2508    0.0000 O   0  0  0  0  0  0  0  0  0  0  0  0
    9.4408  -11.9007    0.0000 O   0  0  0  0  0  0  0  0  0  0  0  0
   10.8679  -12.7289    0.0000 O   0  0  0  0  0  0  0  0  0  0  0  0
   11.5851  -11.4930    0.0000 C   0  0  1  0  0  0  0  0  0  0  0  0
   10.8697  -11.9039    0.0000 C   0  0  1  0  0  0  0  0  0  0  0  0
   10.1562  -11.4898    0.0000 C   0  0  2  0  0  0  0  0  0  0  0  0
   10.1580  -10.6648    0.0000 C   0  0  1  0  0  0  0  0  0  0  0  0
   10.8734  -10.2539    0.0000 C   0  0  2  0  0  0  0  0  0  0  0  0
   11.5869  -10.6680    0.0000 O   0  0  0  0  0  0  0  0  0  0  0  0
   10.8752   -9.4289    0.0000 C   0  0  0  0  0  0  0  0  0  0  0  0
   10.1616   -9.0148    0.0000 O   0  0  0  0  0  0  0  0  0  0  0  0
   10.8788   -7.7789    0.0000 O   0  0  0  0  0  0  0  0  0  0  0  0
    0.8869   -2.8016    0.0000 C   0  0  0  0  0  0  0  0  0  0  0  0
    1.6000   -3.2164    0.0000 C   0  0  0  0  0  0  0  0  0  0  0  0
    2.3158   -2.8062    0.0000 C   0  0  0  0  0  0  0  0  0  0  0  0
    3.0290   -3.2210    0.0000 C   0  0  0  0  0  0  0  0  0  0  0  0
    3.7448   -2.8108    0.0000 C   0  0  0  0  0  0  0  0  0  0  0  0
    4.4579   -3.2256    0.0000 C   0  0  0  0  0  0  0  0  0  0  0  0
    5.1737   -2.8154    0.0000 C   0  0  0  0  0  0  0  0  0  0  0  0
    5.8869   -3.2302    0.0000 C   0  0  0  0  0  0  0  0  0  0  0  0
    6.6027   -2.8200    0.0000 C   0  0  0  0  0  0  0  0  0  0  0  0
    7.3165   -3.2335    0.0000 C   0  0  0  0  0  0  0  0  0  0  0  0
    7.3147   -4.0585    0.0000 C   0  0  0  0  0  0  0  0  0  0  0  0
    8.0283   -4.4726    0.0000 C   0  0  0  0  0  0  0  0  0  0  0  0
    8.0264   -5.2976    0.0000 C   0  0  0  0  0  0  0  0  0  0  0  0
    8.7400   -5.7117    0.0000 C   0  0  0  0  0  0  0  0  0  0  0  0
    8.7382   -6.5367    0.0000 C   0  0  0  0  0  0  0  0  0  0  0  0
    9.4517   -6.9508    0.0000 C   0  0  0  0  0  0  0  0  0  0  0  0
    9.4499   -7.7758    0.0000 C   0  0  0  0  0  0  0  0  0  0  0  0
   10.1635   -8.1898    0.0000 C   0  0  0  0  0  0  0  0  0  0  0  0
   18.1670   -8.9636    0.0000 H   0  0  0  0  0  0  0  0  0  0  0  0
 44 43  1  0  0  0  0
 41 43  1  1  0  0  0
 37 33  1  1  0  0  0
 40 34  1  6  0  0  0
 39 35  1  1  0  0  0
 38 36  1  6  0  0  0
 42 37  1  0  0  0  0
 38 37  1  0  0  0  0
 39 38  1  0  0  0  0
 40 39  1  0  0  0  0
 41 40  1  0  0  0  0
 42 41  1  0  0  0  0
 63 44  1  0  0  0  0
 63 45  2  0  0  0  0
 47 46  1  0  0  0  0
 48 47  1  0  0  0  0
 49 48  1  0  0  0  0
 50 49  1  0  0  0  0
 51 50  1  0  0  0  0
 52 51  1  0  0  0  0
 53 52  1  0  0  0  0
 54 53  1  0  0  0  0
 55 54  2  0  0  0  0
 56 55  1  0  0  0  0
 57 56  1  0  0  0  0
 58 57  1  0  0  0  0
 59 58  1  0  0  0  0
 60 59  1  0  0  0  0
 61 60  1  0  0  0  0
 62 61  1  0  0  0  0
 63 62  1  0  0  0  0
  1  2  1  0  0  0  0
  2  3  1  0  0  0  0
  3  4  1  0  0  0  0
  4  5  1  0  0  0  0
  5  6  2  0  0  0  0
  6  7  1  0  0  0  0
  7  8  1  0  0  0  0
  8  9  1  0  0  0  0
  9 10  1  0  0  0  0
 10 11  1  0  0  0  0
 12 11  1  0  0  0  0
 12 13  1  0  0  0  0
  9 13  1  0  0  0  0
 13 14  1  0  0  0  0
 14 15  1  0  0  0  0
 15 16  1  0  0  0  0
  8 16  1  0  0  0  0
 16 17  1  0  0  0  0
  5 17  1  0  0  0  0
  1 17  1  0  0  0  0
 13 18  1  1  0  0  0
 17 19  1  1  0  0  0
 21 20  1  6  0  0  0
 21 22  1  0  0  0  0
 22 23  1  0  0  0  0
 24 23  1  6  0  0  0
 24 25  1  0  0  0  0
 25 26  1  0  0  0  0
 25 27  1  0  0  0  0
 28 29  1  0  0  0  0
 24 28  1  0  0  0  0
 12 21  1  0  0  0  0
  3 33  1  1  0  0  0
  8 30  1  1  0  0  0
 16 31  1  6  0  0  0
  9 32  1  6  0  0  0
 12 64  1  6  0  0  0
M  END
>  <cdx:fragmentId>
67

$$$$
