302408.cdx
  Mrv1902 05222410282D          

 40 45  0  0  0  0            999 V2000
    6.8970   -8.4272    0.0000 C   0  0  0  0  0  0  0  0  0  0  0  0
    6.2296   -8.9121    0.0000 C   0  0  0  0  0  0  0  0  0  0  0  0
    5.4226   -8.7406    0.0000 C   0  0  0  0  0  0  0  0  0  0  0  0
    4.8705   -9.3536    0.0000 C   0  0  0  0  0  0  0  0  0  0  0  0
    5.1255  -10.1383    0.0000 C   0  0  0  0  0  0  0  0  0  0  0  0
    5.9325  -10.3098    0.0000 C   0  0  0  0  0  0  0  0  0  0  0  0
    6.4845   -9.6967    0.0000 C   0  0  0  0  0  0  0  0  0  0  0  0
    7.3095   -9.6967    0.0000 C   0  0  0  0  0  0  0  0  0  0  0  0
    7.8615  -10.3098    0.0000 C   0  0  0  0  0  0  0  0  0  0  0  0
    8.6685  -10.1383    0.0000 C   0  0  0  0  0  0  0  0  0  0  0  0
    8.9234   -9.3536    0.0000 C   0  0  0  0  0  0  0  0  0  0  0  0
    8.3714   -8.7406    0.0000 C   0  0  0  0  0  0  0  0  0  0  0  0
    7.5644   -8.9121    0.0000 C   0  0  0  0  0  0  0  0  0  0  0  0
    4.0636   -9.1821    0.0000 O   0  0  0  0  0  0  0  0  0  0  0  0
    9.7304   -9.1821    0.0000 C   0  0  0  0  0  0  0  0  0  0  0  0
   10.2824   -9.7952    0.0000 O   0  0  0  0  0  0  0  0  0  0  0  0
   11.0894   -9.6237    0.0000 C   0  0  0  0  0  0  0  0  0  0  0  0
    8.7587   -8.0121    0.0000 C   0  0  0  0  0  0  0  0  0  0  0  0
    9.1460   -7.2837    0.0000 C   0  0  0  0  0  0  0  0  0  0  0  0
    9.5333   -6.5553    0.0000 C   0  0  0  0  0  0  0  0  0  0  0  0
    9.0962   -5.8556    0.0000 C   0  0  0  0  0  0  0  0  0  0  0  0
    9.4835   -5.1272    0.0000 C   0  0  0  0  0  0  0  0  0  0  0  0
   10.3080   -5.0984    0.0000 C   0  0  0  0  0  0  0  0  0  0  0  0
   10.7452   -5.7980    0.0000 C   0  0  0  0  0  0  0  0  0  0  0  0
   10.3578   -6.5265    0.0000 C   0  0  0  0  0  0  0  0  0  0  0  0
   10.6953   -4.3700    0.0000 O   0  0  0  0  0  0  0  0  0  0  0  0
    6.1386   -7.6688    0.0000 C   0  0  0  0  0  0  0  0  0  0  0  0
    5.3417   -7.8823    0.0000 C   0  0  0  0  0  0  0  0  0  0  0  0
    4.7584   -7.2989    0.0000 C   0  0  0  0  0  0  0  0  0  0  0  0
    4.9719   -6.5021    0.0000 C   0  0  0  0  0  0  0  0  0  0  0  0
    5.7688   -6.2885    0.0000 C   0  0  0  0  0  0  0  0  0  0  0  0
    6.3521   -6.8719    0.0000 C   0  0  0  0  0  0  0  0  0  0  0  0
    4.3885   -5.9187    0.0000 O   0  0  0  0  0  0  0  0  0  0  0  0
    7.4332   -7.4983    0.0000 C   0  0  0  0  0  0  0  0  0  0  0  0
    7.0207   -6.7839    0.0000 C   0  0  0  0  0  0  0  0  0  0  0  0
    7.4332   -6.0694    0.0000 C   0  0  0  0  0  0  0  0  0  0  0  0
    8.2582   -6.0694    0.0000 C   0  0  0  0  0  0  0  0  0  0  0  0
    8.6707   -6.7839    0.0000 C   0  0  0  0  0  0  0  0  0  0  0  0
    8.2582   -7.4983    0.0000 C   0  0  0  0  0  0  0  0  0  0  0  0
    8.6707   -5.3549    0.0000 O   0  0  0  0  0  0  0  0  0  0  0  0
  1  2  1  0  0  0  0
  2  3  1  0  0  0  0
  3  4  2  0  0  0  0
  4  5  1  0  0  0  0
  5  6  2  0  0  0  0
  6  7  1  0  0  0  0
  2  7  2  0  0  0  0
  7  8  1  0  0  0  0
  8  9  1  0  0  0  0
  9 10  2  0  0  0  0
 10 11  1  0  0  0  0
 11 12  2  0  0  0  0
 12 13  1  0  0  0  0
  8 13  2  0  0  0  0
  1 13  1  0  0  0  0
  4 14  1  0  0  0  0
 16 17  1  0  0  0  0
 15 16  1  0  0  0  0
 11 15  1  0  0  0  0
 18 19  3  0  0  0  0
 20 21  1  0  0  0  0
 21 22  2  0  0  0  0
 22 23  1  0  0  0  0
 23 24  2  0  0  0  0
 24 25  1  0  0  0  0
 20 25  2  0  0  0  0
 23 26  1  0  0  0  0
 19 20  1  0  0  0  0
 12 18  1  0  0  0  0
 27 28  1  0  0  0  0
 28 29  2  0  0  0  0
 29 30  1  0  0  0  0
 30 31  2  0  0  0  0
 31 32  1  0  0  0  0
 27 32  2  0  0  0  0
 30 33  1  0  0  0  0
  1 27  1  0  0  0  0
 34 35  1  0  0  0  0
 35 36  2  0  0  0  0
 36 37  1  0  0  0  0
 37 38  2  0  0  0  0
 38 39  1  0  0  0  0
 34 39  2  0  0  0  0
 37 40  1  0  0  0  0
  1 34  1  0  0  0  0
M  END
>  <cdx:groupId>
127

>  <cdx:fragmentId>
5

$$$$
