302485.cdx
  Mrv1902 05222410232D          

 57 62  0  0  0  0            999 V2000
    4.1398  -10.3862    0.0000 O   0  0  0  0  0  0  0  0  0  0  0  0
    3.3148  -10.3856    0.0000 C   0  0  2  0  0  0  0  0  0  0  0  0
    2.9028   -9.6708    0.0000 O   0  0  0  0  0  0  0  0  0  0  0  0
    3.3158   -8.9567    0.0000 C   0  0  0  0  0  0  0  0  0  0  0  0
    2.9038   -8.2419    0.0000 C   0  0  0  0  0  0  0  0  0  0  0  0
    3.3168   -7.5277    0.0000 O   0  0  0  0  0  0  0  0  0  0  0  0
    2.0788   -8.2413    0.0000 O   0  0  0  0  0  0  0  0  0  0  0  0
    2.9018  -11.0998    0.0000 C   0  0  0  0  0  0  0  0  0  0  0  0
    3.3137  -11.8145    0.0000 O   0  0  0  0  0  0  0  0  0  0  0  0
    8.4428   -8.7087    0.0000 C   0  0  0  0  0  0  0  0  0  0  0  0
    7.7283   -9.1212    0.0000 C   0  0  0  0  0  0  0  0  0  0  0  0
    7.7283   -9.9462    0.0000 C   0  0  1  0  0  0  0  0  0  0  0  0
    8.4428  -10.3587    0.0000 C   0  0  0  0  0  0  0  0  0  0  0  0
    9.1572   -9.9462    0.0000 C   0  0  2  0  0  0  0  0  0  0  0  0
    9.8717  -10.3587    0.0000 C   0  0  0  0  0  0  0  0  0  0  0  0
   10.5862   -9.9462    0.0000 C   0  0  0  0  0  0  0  0  0  0  0  0
   10.5862   -9.1212    0.0000 C   0  0  1  0  0  0  0  0  0  0  0  0
   11.3006   -8.7087    0.0000 C   0  0  2  0  0  0  0  0  0  0  0  0
   12.0151   -9.1212    0.0000 C   0  0  0  0  0  0  0  0  0  0  0  0
   12.7296   -8.7087    0.0000 C   0  0  0  0  0  0  0  0  0  0  0  0
   12.7296   -7.8837    0.0000 C   0  0  1  0  0  0  0  0  0  0  0  0
   13.4441   -7.4712    0.0000 C   0  0  0  0  0  0  0  0  0  0  0  0
   13.4441   -6.6462    0.0000 C   0  0  0  0  0  0  0  0  0  0  0  0
   12.7296   -6.2337    0.0000 C   0  0  0  0  0  0  0  0  0  0  0  0
   12.0151   -6.6462    0.0000 C   0  0  0  0  0  0  0  0  0  0  0  0
   12.0151   -7.4712    0.0000 C   0  0  1  0  0  0  0  0  0  0  0  0
   11.3006   -7.8837    0.0000 C   0  0  0  0  0  0  0  0  0  0  0  0
   10.5862   -7.4712    0.0000 C   0  0  0  0  0  0  0  0  0  0  0  0
    9.8717   -7.8837    0.0000 C   0  0  0  0  0  0  0  0  0  0  0  0
    9.8717   -8.7087    0.0000 C   0  0  2  0  0  0  0  0  0  0  0  0
    9.1572   -9.1212    0.0000 C   0  0  1  0  0  0  0  0  0  0  0  0
    9.1572   -8.2962    0.0000 C   0  0  0  0  0  0  0  0  0  0  0  0
   12.3171   -5.5192    0.0000 C   0  0  0  0  0  0  0  0  0  0  0  0
   13.1421   -5.5192    0.0000 C   0  0  0  0  0  0  0  0  0  0  0  0
   11.3006   -9.5337    0.0000 C   0  0  0  0  0  0  0  0  0  0  0  0
   10.5862   -8.2962    0.0000 C   0  0  0  0  0  0  0  0  0  0  0  0
    8.8553  -11.0731    0.0000 C   0  0  0  0  0  0  0  0  0  0  0  0
    8.0303  -11.0731    0.0000 C   0  0  0  0  0  0  0  0  0  0  0  0
   13.4441   -8.2962    0.0000 C   0  0  0  0  0  0  0  0  0  0  0  0
   13.4441   -9.1212    0.0000 O   0  0  0  0  0  0  0  0  0  0  0  0
   14.1585   -7.8837    0.0000 O   0  0  0  0  0  0  0  0  0  0  0  0
    9.1572  -10.7712    0.0000 H   0  0  0  0  0  0  0  0  0  0  0  0
   12.0151   -8.2962    0.0000 H   0  0  0  0  0  0  0  0  0  0  0  0
    9.8717   -9.5337    0.0000 H   0  0  0  0  0  0  0  0  0  0  0  0
    7.0138  -10.3587    0.0000 O   0  0  0  0  0  0  0  0  0  0  0  0
    2.0768  -11.0992    0.0000 O   0  0  0  0  0  0  0  0  0  0  0  0
    4.1559   -8.7087    0.0000 O   0  0  0  0  0  0  0  0  0  0  0  0
    5.5849  -11.1837    0.0000 O   0  0  0  0  0  0  0  0  0  0  0  0
    4.8704   -7.4712    0.0000 O   0  0  0  0  0  0  0  0  0  0  0  0
    6.2994   -7.4712    0.0000 O   0  0  0  0  0  0  0  0  0  0  0  0
    5.5849   -7.8837    0.0000 C   0  0  0  0  0  0  0  0  0  0  0  0
    6.2994   -9.9462    0.0000 C   0  0  1  0  0  0  0  0  0  0  0  0
    5.5849  -10.3587    0.0000 C   0  0  1  0  0  0  0  0  0  0  0  0
    4.8704   -9.9462    0.0000 C   0  0  2  0  0  0  0  0  0  0  0  0
    4.8704   -9.1212    0.0000 C   0  0  1  0  0  0  0  0  0  0  0  0
    5.5849   -8.7087    0.0000 C   0  0  2  0  0  0  0  0  0  0  0  0
    6.2994   -9.1212    0.0000 O   0  0  0  0  0  0  0  0  0  0  0  0
 52 45  1  1  0  0  0
 54  1  1  1  0  0  0
 55 47  1  6  0  0  0
 53 48  1  6  0  0  0
 56 51  1  1  0  0  0
 51 49  1  0  0  0  0
 51 50  2  0  0  0  0
 57 52  1  0  0  0  0
 53 52  1  0  0  0  0
 54 53  1  0  0  0  0
 55 54  1  0  0  0  0
 56 55  1  0  0  0  0
 57 56  1  0  0  0  0
  2  1  1  1  0  0  0
  3  4  1  0  0  0  0
  5  6  2  0  0  0  0
  5  7  1  0  0  0  0
  4  5  1  0  0  0  0
  2  3  1  0  0  0  0
  8  9  2  0  0  0  0
  8 46  1  0  0  0  0
  2  8  1  0  0  0  0
 10 11  1  0  0  0  0
 11 12  1  0  0  0  0
 12 13  1  0  0  0  0
 13 14  1  0  0  0  0
 14 15  1  0  0  0  0
 15 16  1  0  0  0  0
 16 17  1  0  0  0  0
 17 18  1  0  0  0  0
 18 19  1  0  0  0  0
 19 20  1  0  0  0  0
 20 21  1  0  0  0  0
 21 22  1  0  0  0  0
 22 23  1  0  0  0  0
 23 24  1  0  0  0  0
 24 25  1  0  0  0  0
 25 26  1  0  0  0  0
 21 26  1  0  0  0  0
 26 27  1  0  0  0  0
 18 27  1  0  0  0  0
 27 28  2  0  0  0  0
 28 29  1  0  0  0  0
 29 30  1  0  0  0  0
 17 30  1  0  0  0  0
 30 31  1  0  0  0  0
 14 31  1  0  0  0  0
 10 31  1  0  0  0  0
 31 32  1  1  0  0  0
 24 33  1  0  0  0  0
 24 34  1  0  0  0  0
 18 35  1  6  0  0  0
 17 36  1  1  0  0  0
 13 37  1  0  0  0  0
 13 38  1  0  0  0  0
 39 40  2  0  0  0  0
 39 41  1  0  0  0  0
 21 39  1  1  0  0  0
 12 45  1  1  0  0  0
 14 42  1  6  0  0  0
 26 43  1  1  0  0  0
 30 44  1  6  0  0  0
M  END
>  <cdx:groupId>
178

>  <cdx:fragmentId>
49

$$$$
