302493.cdx
  Mrv1902 05222410242D          

 35 38  0  0  0  0            999 V2000
    4.8768   -8.3357    0.0000 C   0  0  0  0  0  0  0  0  0  0  0  0
    4.1624   -8.7482    0.0000 C   0  0  1  0  0  0  0  0  0  0  0  0
    4.1624   -9.5732    0.0000 C   0  0  1  0  0  0  0  0  0  0  0  0
    4.8768   -9.9857    0.0000 C   0  0  0  0  0  0  0  0  0  0  0  0
    5.5913   -9.5732    0.0000 C   0  0  1  0  0  0  0  0  0  0  0  0
    6.3058   -9.9857    0.0000 C   0  0  0  0  0  0  0  0  0  0  0  0
    7.0203   -9.5732    0.0000 C   0  0  0  0  0  0  0  0  0  0  0  0
    7.0203   -8.7482    0.0000 C   0  0  0  0  0  0  0  0  0  0  0  0
    7.7347   -8.3357    0.0000 C   0  0  0  0  0  0  0  0  0  0  0  0
    8.5194   -8.5906    0.0000 C   0  0  0  0  0  0  0  0  0  0  0  0
    9.0043   -7.9232    0.0000 C   0  0  0  0  0  0  0  0  0  0  0  0
    8.5194   -7.2557    0.0000 C   0  0  1  0  0  0  0  0  0  0  0  0
    7.7347   -7.5107    0.0000 C   0  0  1  0  0  0  0  0  0  0  0  0
    7.0203   -7.0982    0.0000 C   0  0  0  0  0  0  0  0  0  0  0  0
    6.3058   -7.5107    0.0000 C   0  0  0  0  0  0  0  0  0  0  0  0
    6.3058   -8.3357    0.0000 C   0  0  2  0  0  0  0  0  0  0  0  0
    5.5913   -8.7482    0.0000 C   0  0  1  0  0  0  0  0  0  0  0  0
    6.3058  -10.8107    0.0000 O   0  0  0  0  0  0  0  0  0  0  0  0
    8.6028   -5.6641    0.0000 C   0  0  0  0  0  0  0  0  0  0  0  0
    8.7743   -6.4711    0.0000 C   0  0  2  0  0  0  0  0  0  0  0  0
    9.5813   -6.2996    0.0000 C   0  0  1  0  0  0  0  0  0  0  0  0
    9.8362   -5.5150    0.0000 C   0  0  0  0  0  0  0  0  0  0  0  0
   10.6432   -5.3434    0.0000 C   0  0  0  0  0  0  0  0  0  0  0  0
   10.8981   -4.5588    0.0000 C   0  0  0  0  0  0  0  0  0  0  0  0
   10.3461   -3.9457    0.0000 C   0  0  0  0  0  0  0  0  0  0  0  0
   11.7051   -4.3873    0.0000 C   0  0  0  0  0  0  0  0  0  0  0  0
   11.1531   -3.7742    0.0000 O   0  0  0  0  0  0  0  0  0  0  0  0
   10.1333   -6.9127    0.0000 O   0  0  0  0  0  0  0  0  0  0  0  0
    7.9897   -6.2162    0.0000 O   0  0  0  0  0  0  0  0  0  0  0  0
    7.8210   -6.6902    0.0000 C   0  0  0  0  0  0  0  0  0  0  0  0
    5.5913   -7.9232    0.0000 C   0  0  0  0  0  0  0  0  0  0  0  0
    3.4479   -9.9857    0.0000 O   0  0  0  0  0  0  0  0  0  0  0  0
    3.4479   -8.3357    0.0000 O   0  0  0  0  0  0  0  0  0  0  0  0
    5.5913  -10.3982    0.0000 H   0  0  0  0  0  0  0  0  0  0  0  0
    6.3058   -9.1607    0.0000 H   0  0  0  0  0  0  0  0  0  0  0  0
  1  2  1  0  0  0  0
  2  3  1  0  0  0  0
  3  4  1  0  0  0  0
  4  5  1  0  0  0  0
  5  6  1  0  0  0  0
  6  7  1  0  0  0  0
  7  8  2  0  0  0  0
  8  9  1  0  0  0  0
  9 10  2  0  0  0  0
 10 11  1  0  0  0  0
 12 11  1  1  0  0  0
 12 13  1  0  0  0  0
  9 13  1  0  0  0  0
 13 14  1  0  0  0  0
 14 15  1  0  0  0  0
 15 16  1  0  0  0  0
  8 16  1  0  0  0  0
 16 17  1  0  0  0  0
  5 17  1  0  0  0  0
  1 17  1  0  0  0  0
  6 18  2  0  0  0  0
 20 19  1  6  0  0  0
 20 21  1  0  0  0  0
 21 22  1  0  0  0  0
 22 23  1  0  0  0  0
 23 24  1  0  0  0  0
 24 25  1  0  0  0  0
 24 26  1  0  0  0  0
 24 27  1  0  0  0  0
 21 28  1  1  0  0  0
 20 29  1  1  0  0  0
 12 20  1  0  0  0  0
 13 30  1  1  0  0  0
 17 31  1  1  0  0  0
  3 32  1  1  0  0  0
  2 33  1  1  0  0  0
  5 34  1  1  0  0  0
 16 35  1  6  0  0  0
M  END
>  <cdx:groupId>
110

>  <cdx:fragmentId>
5

$$$$
