302450.cdx
  Mrv1902 05222410242D          

 39 43  0  0  0  0            999 V2000
    5.9961   -8.7115    0.0000 C   0  0  0  0  0  0  0  0  0  0  0  0
    6.7105   -9.1240    0.0000 C   0  0  0  0  0  0  0  0  0  0  0  0
    7.4250   -8.7115    0.0000 C   0  0  0  0  0  0  0  0  0  0  0  0
    8.1395   -9.1240    0.0000 C   0  0  0  0  0  0  0  0  0  0  0  0
    8.1395   -9.9490    0.0000 C   0  0  0  0  0  0  0  0  0  0  0  0
    7.4250  -10.3615    0.0000 C   0  0  0  0  0  0  0  0  0  0  0  0
    6.7105   -9.9490    0.0000 C   0  0  0  0  0  0  0  0  0  0  0  0
    5.9961  -10.3615    0.0000 O   0  0  0  0  0  0  0  0  0  0  0  0
    5.2816   -9.9490    0.0000 C   0  0  0  0  0  0  0  0  0  0  0  0
    4.5671  -10.3615    0.0000 C   0  0  0  0  0  0  0  0  0  0  0  0
    3.8526   -9.9490    0.0000 C   0  0  0  0  0  0  0  0  0  0  0  0
    3.8526   -9.1240    0.0000 C   0  0  0  0  0  0  0  0  0  0  0  0
    4.5671   -8.7115    0.0000 C   0  0  0  0  0  0  0  0  0  0  0  0
    5.2816   -9.1240    0.0000 C   0  0  0  0  0  0  0  0  0  0  0  0
    5.9961   -7.8865    0.0000 O   0  0  0  0  0  0  0  0  0  0  0  0
    3.1382   -8.7115    0.0000 O   0  0  0  0  0  0  0  0  0  0  0  0
    8.8539  -10.3615    0.0000 O   0  0  0  0  0  0  0  0  0  0  0  0
    7.4250   -7.8865    0.0000 O   0  0  0  0  0  0  0  0  0  0  0  0
    9.5684   -9.1240    0.0000 O   0  0  0  0  0  0  0  0  0  0  0  0
    8.8539   -8.7115    0.0000 C   0  0  2  0  0  0  0  0  0  0  0  0
    8.8539   -7.8865    0.0000 C   0  0  1  0  0  0  0  0  0  0  0  0
    9.5684   -7.4740    0.0000 C   0  0  2  0  0  0  0  0  0  0  0  0
   10.2829   -7.8865    0.0000 C   0  0  1  0  0  0  0  0  0  0  0  0
   10.2829   -8.7115    0.0000 C   0  0  1  0  0  0  0  0  0  0  0  0
   10.9974   -9.1240    0.0000 C   0  0  0  0  0  0  0  0  0  0  0  0
   11.7118   -8.7115    0.0000 O   0  0  0  0  0  0  0  0  0  0  0  0
   10.9974   -7.4740    0.0000 O   0  0  0  0  0  0  0  0  0  0  0  0
    9.5684   -6.6490    0.0000 O   0  0  0  0  0  0  0  0  0  0  0  0
    8.1395   -7.4740    0.0000 O   0  0  0  0  0  0  0  0  0  0  0  0
    8.8069   -6.1640    0.0000 O   0  0  0  0  0  0  0  0  0  0  0  0
    8.1395   -6.6490    0.0000 C   0  0  2  0  0  0  0  0  0  0  0  0
    7.4720   -6.1640    0.0000 C   0  0  1  0  0  0  0  0  0  0  0  0
    7.7270   -5.3794    0.0000 C   0  0  2  0  0  0  0  0  0  0  0  0
    8.5520   -5.3794    0.0000 C   0  0  0  0  0  0  0  0  0  0  0  0
    7.6407   -4.5589    0.0000 C   0  0  0  0  0  0  0  0  0  0  0  0
    6.8871   -4.2234    0.0000 O   0  0  0  0  0  0  0  0  0  0  0  0
    6.9733   -5.0439    0.0000 O   0  0  0  0  0  0  0  0  0  0  0  0
    6.6874   -6.4190    0.0000 O   0  0  0  0  0  0  0  0  0  0  0  0
    8.8539   -9.5365    0.0000 H   0  0  0  0  0  0  0  0  0  0  0  0
  1  2  1  0  0  0  0
  2  3  1  0  0  0  0
  3  4  2  0  0  0  0
  4  5  1  0  0  0  0
  5  6  2  0  0  0  0
  6  7  1  0  0  0  0
  2  7  2  0  0  0  0
  7  8  1  0  0  0  0
  8  9  1  0  0  0  0
  9 10  1  0  0  0  0
 10 11  2  0  0  0  0
 11 12  1  0  0  0  0
 12 13  2  0  0  0  0
 13 14  1  0  0  0  0
  9 14  2  0  0  0  0
  1 14  1  0  0  0  0
  1 15  2  0  0  0  0
 12 16  1  0  0  0  0
  5 17  1  0  0  0  0
  3 18  1  0  0  0  0
 19 20  1  0  0  0  0
 20 21  1  0  0  0  0
 21 22  1  0  0  0  0
 22 23  1  0  0  0  0
 23 24  1  0  0  0  0
 19 24  1  0  0  0  0
 25 26  1  0  0  0  0
 24 25  1  1  0  0  0
 23 27  1  6  0  0  0
 22 28  1  1  0  0  0
 30 31  1  0  0  0  0
 31 32  1  0  0  0  0
 32 33  1  0  0  0  0
 33 34  1  0  0  0  0
 30 34  1  0  0  0  0
 35 36  1  0  0  0  0
 33 35  1  1  0  0  0
 33 37  1  6  0  0  0
 32 38  1  6  0  0  0
 31 29  1  1  0  0  0
 21 29  1  6  0  0  0
 20  4  1  0  0  0  0
 20 39  1  6  0  0  0
M  END
>  <cdx:fragmentId>
67

$$$$
