30245.cdx
  Mrv1902 05222410202D          

 25 29  0  0  0  0            999 V2000
    6.7251   -6.7493    0.0000 C   0  0  0  0  0  0  0  0  0  0  0  0
    3.1440   -8.7965    0.0000 C   0  0  0  0  0  0  0  0  0  0  0  0
    3.8567   -9.2121    0.0000 O   0  0  0  0  0  0  0  0  0  0  0  0
    5.2821  -10.0432    0.0000 O   0  0  0  0  0  0  0  0  0  0  0  0
   10.1984   -6.2120    0.0000 O   0  0  0  0  0  0  0  0  0  0  0  0
    9.8661   -5.4569    0.0000 C   0  0  0  0  0  0  0  0  0  0  0  0
    9.0452   -5.5397    0.0000 O   0  0  0  0  0  0  0  0  0  0  0  0
    9.5795   -7.5864    0.0000 C   0  0  0  0  0  0  0  0  0  0  0  0
    9.5830   -6.7614    0.0000 C   0  0  0  0  0  0  0  0  0  0  0  0
    8.8703   -6.3459    0.0000 C   0  0  0  0  0  0  0  0  0  0  0  0
    8.1540   -6.7554    0.0000 C   0  0  0  0  0  0  0  0  0  0  0  0
    8.1435   -9.2303    0.0000 C   0  0  0  0  0  0  0  0  0  0  0  0
    8.8597   -8.8209    0.0000 C   0  0  0  0  0  0  0  0  0  0  0  0
    8.8632   -7.9959    0.0000 C   0  0  0  0  0  0  0  0  0  0  0  0
    8.1505   -7.5803    0.0000 C   0  0  0  0  0  0  0  0  0  0  0  0
    6.7146   -9.2242    0.0000 C   0  0  0  0  0  0  0  0  0  0  0  0
    7.4308   -8.8148    0.0000 N   0  3  0  0  0  0  0  0  0  0  0  0
    7.4343   -7.9898    0.0000 C   0  0  0  0  0  0  0  0  0  0  0  0
    6.7216   -7.5743    0.0000 C   0  0  0  0  0  0  0  0  0  0  0  0
    5.2856   -9.2182    0.0000 C   0  0  0  0  0  0  0  0  0  0  0  0
    6.0019   -8.8087    0.0000 C   0  0  0  0  0  0  0  0  0  0  0  0
    6.0054   -7.9837    0.0000 C   0  0  0  0  0  0  0  0  0  0  0  0
    5.2927   -7.5682    0.0000 C   0  0  0  0  0  0  0  0  0  0  0  0
    4.5764   -7.9776    0.0000 C   0  0  0  0  0  0  0  0  0  0  0  0
    4.5729   -8.8026    0.0000 C   0  0  0  0  0  0  0  0  0  0  0  0
 19  1  1  0  0  0  0
  3  2  1  0  0  0  0
 25  3  1  0  0  0  0
 20  4  1  0  0  0  0
  5  9  1  0  0  0  0
  6  5  1  0  0  0  0
  7  6  1  0  0  0  0
 10  7  1  0  0  0  0
  8 14  2  0  0  0  0
  9  8  1  0  0  0  0
 10  9  2  0  0  0  0
 11 10  1  0  0  0  0
 15 11  2  0  0  0  0
 12 17  1  0  0  0  0
 13 12  1  0  0  0  0
 14 13  1  0  0  0  0
 15 14  1  0  0  0  0
 18 15  1  0  0  0  0
 16 21  2  0  0  0  0
 17 16  1  0  0  0  0
 18 17  2  0  0  0  0
 19 18  1  0  0  0  0
 22 19  2  0  0  0  0
 20 25  2  0  0  0  0
 21 20  1  0  0  0  0
 22 21  1  0  0  0  0
 23 22  1  0  0  0  0
 24 23  2  0  0  0  0
 25 24  1  0  0  0  0
M  CHG  1  17   1
M  END
>  <cdx:fragmentId>
5

$$$$
