302433.cdx
  Mrv1902 05222410272D          

 16 17  0  0  0  0            999 V2000
    8.4635   -7.7172    0.0000 O   0  0  0  0  0  0  0  0  0  0  0  0
    7.9786   -8.3847    0.0000 C   0  0  0  0  0  0  0  0  0  0  0  0
    7.1940   -8.1297    0.0000 C   0  0  0  0  0  0  0  0  0  0  0  0
    7.1940   -7.3047    0.0000 C   0  0  0  0  0  0  0  0  0  0  0  0
    7.9786   -7.0498    0.0000 C   0  0  0  0  0  0  0  0  0  0  0  0
    6.4795   -6.8922    0.0000 C   0  0  0  0  0  0  0  0  0  0  0  0
    5.7650   -7.3047    0.0000 C   0  0  0  0  0  0  0  0  0  0  0  0
    5.7650   -8.1297    0.0000 C   0  0  0  0  0  0  0  0  0  0  0  0
    6.4795   -8.5422    0.0000 C   0  0  0  0  0  0  0  0  0  0  0  0
    8.2335   -9.1693    0.0000 O   0  0  0  0  0  0  0  0  0  0  0  0
    5.0506   -8.5422    0.0000 O   0  0  0  0  0  0  0  0  0  0  0  0
    6.4795   -9.3672    0.0000 Cl  0  0  0  0  0  0  0  0  0  0  0  0
    8.2335   -6.2652    0.0000 C   0  0  0  0  0  0  0  0  0  0  0  0
    9.0405   -6.0936    0.0000 C   0  0  0  0  0  0  0  0  0  0  0  0
    9.2954   -5.3090    0.0000 C   0  0  0  0  0  0  0  0  0  0  0  0
   10.1024   -5.1375    0.0000 C   0  0  0  0  0  0  0  0  0  0  0  0
  1  2  1  0  0  0  0
  2  3  1  0  0  0  0
  3  4  2  0  0  0  0
  4  5  1  0  0  0  0
  1  5  1  0  0  0  0
  6  7  1  0  0  0  0
  7  8  1  0  0  0  0
  8  9  1  0  0  0  0
  9  3  1  0  0  0  0
  6  4  1  0  0  0  0
  2 10  2  0  0  0  0
  8 11  1  0  0  0  0
  9 12  1  0  0  0  0
 13 14  1  0  0  0  0
 14 15  1  0  0  0  0
 15 16  1  0  0  0  0
  5 13  2  0  0  0  0
M  END
>  <cdx:fragmentId>
5

$$$$
