302446.cdx
  Mrv1902 05222410232D          

 11 11  0  0  0  0            999 V2000
    8.9497   -7.6929    0.0000 O   0  0  0  0  0  0  0  0  0  0  0  0
    8.1961   -7.3574    0.0000 C   0  0  0  0  0  0  0  0  0  0  0  0
    8.2823   -6.5369    0.0000 C   0  0  0  0  0  0  0  0  0  0  0  0
    9.0893   -6.3654    0.0000 C   0  0  0  0  0  0  0  0  0  0  0  0
    9.5018   -7.0798    0.0000 C   0  0  0  0  0  0  0  0  0  0  0  0
    7.4816   -7.7699    0.0000 C   0  0  0  0  0  0  0  0  0  0  0  0
    6.7671   -7.3574    0.0000 C   0  0  0  0  0  0  0  0  0  0  0  0
    6.0527   -7.7699    0.0000 C   0  0  0  0  0  0  0  0  0  0  0  0
    6.0527   -8.5949    0.0000 C   0  0  0  0  0  0  0  0  0  0  0  0
    5.3382   -7.3574    0.0000 C   0  0  0  0  0  0  0  0  0  0  0  0
    7.6692   -5.9849    0.0000 C   0  0  0  0  0  0  0  0  0  0  0  0
  1  2  1  0  0  0  0
  2  3  2  0  0  0  0
  3  4  1  0  0  0  0
  4  5  2  0  0  0  0
  1  5  1  0  0  0  0
  6  7  2  0  0  0  0
  7  8  1  0  0  0  0
  8  9  2  0  0  0  0
  8 10  1  0  0  0  0
  2  6  1  0  0  0  0
  3 11  1  0  0  0  0
M  END
>  <cdx:groupId>
35

>  <cdx:fragmentId>
5

$$$$
