302542.cdx
  Mrv1902 05222410272D          

 17 19  0  0  0  0            999 V2000
    4.9533   -5.8163    0.0000 C   0  0  0  0  0  0  0  0  0  0  0  0
    4.9533   -6.6413    0.0000 C   0  0  1  0  0  0  0  0  0  0  0  0
    5.6677   -7.0537    0.0000 C   0  0  2  0  0  0  0  0  0  0  0  0
    6.3822   -6.6413    0.0000 C   0  0  2  0  0  0  0  0  0  0  0  0
    6.3822   -5.8163    0.0000 C   0  0  0  0  0  0  0  0  0  0  0  0
    5.6677   -5.4037    0.0000 C   0  0  0  0  0  0  0  0  0  0  0  0
    5.6677   -7.8788    0.0000 C   0  0  0  0  0  0  0  0  0  0  0  0
    6.3822   -8.2912    0.0000 C   0  0  0  0  0  0  0  0  0  0  0  0
    7.0967   -7.8788    0.0000 C   0  0  0  0  0  0  0  0  0  0  0  0
    7.0967   -7.0537    0.0000 C   0  0  0  0  0  0  0  0  0  0  0  0
    4.2388   -5.4037    0.0000 C   0  0  0  0  0  0  0  0  0  0  0  0
    4.9533   -7.4663    0.0000 C   0  0  0  0  0  0  0  0  0  0  0  0
    4.8427   -7.8788    0.0000 C   0  0  0  0  0  0  0  0  0  0  0  0
    5.2552   -8.5932    0.0000 C   0  0  0  0  0  0  0  0  0  0  0  0
    7.0967   -6.2287    0.0000 C   0  0  0  0  0  0  0  0  0  0  0  0
    4.1283   -6.6413    0.0000 H   0  0  0  0  0  0  0  0  0  0  0  0
    4.2388   -4.5788    0.0000 O   0  0  0  0  0  0  0  0  0  0  0  0
  1  2  1  0  0  0  0
  2  3  1  0  0  0  0
  3  4  1  0  0  0  0
  4  5  1  0  0  0  0
  5  6  1  0  0  0  0
  6  1  2  0  0  0  0
  3  7  1  0  0  0  0
  7  8  1  0  0  0  0
  8  9  1  0  0  0  0
  9 10  1  0  0  0  0
 10  4  1  0  0  0  0
  1 11  1  0  0  0  0
  2 12  1  0  0  0  0
  3 12  1  1  0  0  0
  7 13  1  0  0  0  0
  7 14  1  0  0  0  0
  4 15  1  1  0  0  0
  2 16  1  6  0  0  0
 11 17  2  0  0  0  0
M  END
>  <cdx:fragmentId>
5

$$$$
