302564.cdx
  Mrv1902 05222410182D          

 30 33  0  0  0  0            999 V2000
    4.7388   -6.5835    0.0000 C   0  0  0  0  0  0  0  0  0  0  0  0
    4.7388   -7.4085    0.0000 C   0  0  2  0  0  0  0  0  0  0  0  0
    5.4532   -7.8210    0.0000 C   0  0  0  0  0  0  0  0  0  0  0  0
    6.1677   -7.4085    0.0000 C   0  0  2  0  0  0  0  0  0  0  0  0
    6.1677   -6.5835    0.0000 C   0  0  2  0  0  0  0  0  0  0  0  0
    5.4532   -6.1710    0.0000 C   0  0  0  0  0  0  0  0  0  0  0  0
    6.8822   -7.8210    0.0000 C   0  0  0  0  0  0  0  0  0  0  0  0
    7.5967   -7.4085    0.0000 C   0  0  0  0  0  0  0  0  0  0  0  0
    7.5967   -6.5835    0.0000 C   0  0  2  0  0  0  0  0  0  0  0  0
    6.8822   -6.1710    0.0000 C   0  0  2  0  0  0  0  0  0  0  0  0
    8.3111   -6.1710    0.0000 C   0  0  1  0  0  0  0  0  0  0  0  0
    8.3111   -5.3460    0.0000 C   0  0  2  0  0  0  0  0  0  0  0  0
    7.5967   -4.9335    0.0000 C   0  0  0  0  0  0  0  0  0  0  0  0
    6.8822   -5.3460    0.0000 C   0  0  2  0  0  0  0  0  0  0  0  0
    9.0958   -6.4259    0.0000 C   0  0  0  0  0  0  0  0  0  0  0  0
    9.5807   -5.7585    0.0000 C   0  0  0  0  0  0  0  0  0  0  0  0
    9.0958   -5.0911    0.0000 C   0  0  1  0  0  0  0  0  0  0  0  0
    4.0243   -7.8210    0.0000 O   0  0  0  0  0  0  0  0  0  0  0  0
    9.3093   -4.2942    0.0000 O   0  0  0  0  0  0  0  0  0  0  0  0
    8.7236   -6.8855    0.0000 H   0  0  0  0  0  0  0  0  0  0  0  0
    7.5967   -5.7585    0.0000 H   0  0  0  0  0  0  0  0  0  0  0  0
    9.8926   -4.8775    0.0000 C   0  0  0  0  0  0  0  0  0  0  0  0
   10.4760   -5.4609    0.0000 C   0  0  0  0  0  0  0  0  0  0  0  0
   10.1062   -4.0806    0.0000 O   0  0  0  0  0  0  0  0  0  0  0  0
   11.2729   -5.2474    0.0000 O   0  0  0  0  0  0  0  0  0  0  0  0
    8.3111   -4.5210    0.0000 C   0  0  0  0  0  0  0  0  0  0  0  0
    6.1677   -5.7585    0.0000 C   0  0  0  0  0  0  0  0  0  0  0  0
    6.1677   -8.2335    0.0000 H   0  0  0  0  0  0  0  0  0  0  0  0
    6.1677   -4.9335    0.0000 O   0  0  0  0  0  0  0  0  0  0  0  0
    8.1800   -7.1669    0.0000 H   0  0  0  0  0  0  0  0  0  0  0  0
  1  2  1  0  0  0  0
  2  3  1  0  0  0  0
  3  4  1  0  0  0  0
  4  5  1  0  0  0  0
  5  6  1  0  0  0  0
  6  1  1  0  0  0  0
  4  7  1  0  0  0  0
  7  8  1  0  0  0  0
  8  9  1  0  0  0  0
  9 10  1  0  0  0  0
 10  5  1  0  0  0  0
  9 11  1  0  0  0  0
 11 12  1  0  0  0  0
 12 13  1  0  0  0  0
 13 14  1  0  0  0  0
 14 10  1  0  0  0  0
 11 15  1  0  0  0  0
 15 16  1  0  0  0  0
 16 17  1  0  0  0  0
 17 12  1  0  0  0  0
  2 18  1  6  0  0  0
 17 19  1  6  0  0  0
 11 20  1  6  0  0  0
 10 21  1  6  0  0  0
 17 22  1  1  0  0  0
 22 23  1  0  0  0  0
 22 24  2  0  0  0  0
 23 25  1  0  0  0  0
 12 26  1  1  0  0  0
  5 27  1  1  0  0  0
  4 28  1  1  0  0  0
 14 29  1  1  0  0  0
  9 30  1  1  0  0  0
M  END
>  <cdx:fragmentId>
5

$$$$
