30250.cdx
  Mrv1902 05222410202D          

 28 32  0  0  0  0            999 V2000
    5.0856   -6.6539    0.0000 C   0  0  2  0  0  0  0  0  0  0  0  0
    5.0856   -7.4789    0.0000 C   0  0  1  0  0  0  0  0  0  0  0  0
    5.8000   -7.8914    0.0000 C   0  0  1  0  0  0  0  0  0  0  0  0
    6.5145   -7.4789    0.0000 C   0  0  2  0  0  0  0  0  0  0  0  0
    6.5145   -6.6539    0.0000 C   0  0  1  0  0  0  0  0  0  0  0  0
    5.8000   -6.2414    0.0000 C   0  0  1  0  0  0  0  0  0  0  0  0
    5.8000   -8.7164    0.0000 C   0  0  0  0  0  0  0  0  0  0  0  0
    6.5145   -9.1289    0.0000 C   0  0  0  0  0  0  0  0  0  0  0  0
    7.2290   -8.7164    0.0000 C   0  0  2  0  0  0  0  0  0  0  0  0
    7.2290   -7.8914    0.0000 C   0  0  2  0  0  0  0  0  0  0  0  0
    7.9434   -9.1289    0.0000 C   0  0  0  0  0  0  0  0  0  0  0  0
    8.6579   -8.7164    0.0000 C   0  0  2  0  0  0  0  0  0  0  0  0
    8.6579   -7.8914    0.0000 C   0  0  0  0  0  0  0  0  0  0  0  0
    7.9434   -7.4789    0.0000 C   0  0  0  0  0  0  0  0  0  0  0  0
    4.3009   -6.3990    0.0000 C   0  0  2  0  0  0  0  0  0  0  0  0
    3.8160   -7.0664    0.0000 C   0  0  0  0  0  0  0  0  0  0  0  0
    4.3009   -7.7338    0.0000 C   0  0  0  0  0  0  0  0  0  0  0  0
    4.0460   -5.6143    0.0000 C   0  0  0  0  0  0  0  0  0  0  0  0
    4.9993   -5.8334    0.0000 C   0  0  0  0  0  0  0  0  0  0  0  0
    5.8000   -5.4164    0.0000 O   0  0  0  0  0  0  0  0  0  0  0  0
    4.9993   -8.2994    0.0000 O   0  0  0  0  0  0  0  0  0  0  0  0
    7.2290   -7.0664    0.0000 C   0  0  0  0  0  0  0  0  0  0  0  0
    9.3724   -9.1289    0.0000 O   0  0  0  0  0  0  0  0  0  0  0  0
    7.2290   -9.5414    0.0000 H   0  0  0  0  0  0  0  0  0  0  0  0
    7.0979   -6.8955    0.0000 H   0  0  0  0  0  0  0  0  0  0  0  0
    7.2290   -6.2414    0.0000 O   0  0  0  0  0  0  0  0  0  0  0  0
    4.5980   -5.0012    0.0000 O   0  0  0  0  0  0  0  0  0  0  0  0
    3.2390   -5.4428    0.0000 C   0  0  0  0  0  0  0  0  0  0  0  0
  1  2  1  0  0  0  0
  2  3  1  0  0  0  0
  3  4  1  0  0  0  0
  4  5  1  0  0  0  0
  5  6  1  0  0  0  0
  6  1  1  0  0  0  0
  3  7  1  0  0  0  0
  7  8  1  0  0  0  0
  8  9  1  0  0  0  0
  9 10  1  0  0  0  0
 10  4  1  0  0  0  0
  9 11  1  0  0  0  0
 11 12  1  0  0  0  0
 12 13  1  0  0  0  0
 13 14  1  0  0  0  0
 14 10  1  0  0  0  0
  1 15  1  0  0  0  0
 15 16  1  0  0  0  0
 16 17  1  0  0  0  0
 17  2  1  0  0  0  0
 15 18  1  6  0  0  0
  1 19  1  6  0  0  0
  6 20  1  6  0  0  0
  2 21  1  6  0  0  0
 10 22  1  6  0  0  0
 12 23  1  6  0  0  0
  9 24  1  1  0  0  0
  4 25  1  1  0  0  0
  5 26  1  1  0  0  0
 18 27  2  0  0  0  0
 18 28  1  0  0  0  0
  3 21  1  6  0  0  0
M  END
>  <cdx:fragmentId>
5

$$$$
