302562.cdx
  Mrv1902 05222410202D          

 40 45  0  0  0  0            999 V2000
    9.5684   -5.8487    0.0000 C   0  0  0  0  0  0  0  0  0  0  0  0
    9.5684   -5.0237    0.0000 C   0  0  0  0  0  0  0  0  0  0  0  0
    8.8539   -4.6112    0.0000 C   0  0  0  0  0  0  0  0  0  0  0  0
    8.1395   -5.0237    0.0000 C   0  0  0  0  0  0  0  0  0  0  0  0
    7.4250   -4.6112    0.0000 C   0  0  0  0  0  0  0  0  0  0  0  0
    6.7105   -5.0237    0.0000 C   0  0  0  0  0  0  0  0  0  0  0  0
    6.7105   -5.8487    0.0000 C   0  0  0  0  0  0  0  0  0  0  0  0
    7.4250   -6.2612    0.0000 C   0  0  0  0  0  0  0  0  0  0  0  0
    8.1395   -5.8487    0.0000 C   0  0  0  0  0  0  0  0  0  0  0  0
    8.8539   -6.2612    0.0000 O   0  0  0  0  0  0  0  0  0  0  0  0
    8.8539   -3.7862    0.0000 O   0  0  0  0  0  0  0  0  0  0  0  0
   10.2829   -6.2612    0.0000 C   0  0  0  0  0  0  0  0  0  0  0  0
   10.9974   -5.8487    0.0000 C   0  0  0  0  0  0  0  0  0  0  0  0
   11.7118   -6.2612    0.0000 C   0  0  0  0  0  0  0  0  0  0  0  0
   11.7118   -7.0862    0.0000 C   0  0  0  0  0  0  0  0  0  0  0  0
   10.9974   -7.4987    0.0000 C   0  0  0  0  0  0  0  0  0  0  0  0
   10.2829   -7.0862    0.0000 C   0  0  0  0  0  0  0  0  0  0  0  0
   12.4263   -7.4987    0.0000 O   0  0  0  0  0  0  0  0  0  0  0  0
    5.9961   -6.2612    0.0000 O   0  0  0  0  0  0  0  0  0  0  0  0
    7.4250   -3.7862    0.0000 O   0  0  0  0  0  0  0  0  0  0  0  0
    7.4250   -7.0862    0.0000 C   0  0  0  0  0  0  0  0  0  0  0  0
    8.1395   -7.4987    0.0000 C   0  0  0  0  0  0  0  0  0  0  0  0
    8.1395   -8.3237    0.0000 C   0  0  0  0  0  0  0  0  0  0  0  0
    7.4250   -8.7362    0.0000 C   0  0  0  0  0  0  0  0  0  0  0  0
    6.7105   -8.3237    0.0000 C   0  0  0  0  0  0  0  0  0  0  0  0
    6.7105   -7.4987    0.0000 C   0  0  0  0  0  0  0  0  0  0  0  0
    8.8539   -7.0862    0.0000 O   0  0  0  0  0  0  0  0  0  0  0  0
    5.9961   -8.7362    0.0000 C   0  0  0  0  0  0  0  0  0  0  0  0
    5.9961   -9.5612    0.0000 C   0  0  0  0  0  0  0  0  0  0  0  0
    5.2816   -9.9737    0.0000 C   0  0  0  0  0  0  0  0  0  0  0  0
    4.5671   -9.5612    0.0000 C   0  0  0  0  0  0  0  0  0  0  0  0
    3.8526   -9.9737    0.0000 C   0  0  0  0  0  0  0  0  0  0  0  0
    3.1382   -9.5612    0.0000 C   0  0  0  0  0  0  0  0  0  0  0  0
    3.1382   -8.7362    0.0000 C   0  0  0  0  0  0  0  0  0  0  0  0
    3.8526   -8.3237    0.0000 C   0  0  0  0  0  0  0  0  0  0  0  0
    4.5671   -8.7362    0.0000 C   0  0  0  0  0  0  0  0  0  0  0  0
    5.2816   -8.3237    0.0000 O   0  0  0  0  0  0  0  0  0  0  0  0
    5.2816  -10.7987    0.0000 O   0  0  0  0  0  0  0  0  0  0  0  0
    2.4237   -8.3237    0.0000 O   0  0  0  0  0  0  0  0  0  0  0  0
    3.8526  -10.7987    0.0000 O   0  0  0  0  0  0  0  0  0  0  0  0
  1  2  1  0  0  0  0
  2  3  1  0  0  0  0
  3  4  1  0  0  0  0
  4  5  1  0  0  0  0
  5  6  2  0  0  0  0
  6  7  1  0  0  0  0
  7  8  2  0  0  0  0
  8  9  1  0  0  0  0
  4  9  2  0  0  0  0
  9 10  1  0  0  0  0
  1 10  1  0  0  0  0
  3 11  2  0  0  0  0
 12 13  1  0  0  0  0
 13 14  2  0  0  0  0
 14 15  1  0  0  0  0
 15 16  2  0  0  0  0
 16 17  1  0  0  0  0
 12 17  2  0  0  0  0
 15 18  1  0  0  0  0
  1 12  1  0  0  0  0
  7 19  1  0  0  0  0
  5 20  1  0  0  0  0
 21 22  1  0  0  0  0
 22 23  2  0  0  0  0
 23 24  1  0  0  0  0
 24 25  2  0  0  0  0
 25 26  1  0  0  0  0
 21 26  2  0  0  0  0
 22 27  1  0  0  0  0
 28 29  1  0  0  0  0
 29 30  1  0  0  0  0
 30 31  1  0  0  0  0
 31 32  1  0  0  0  0
 32 33  2  0  0  0  0
 33 34  1  0  0  0  0
 34 35  2  0  0  0  0
 35 36  1  0  0  0  0
 31 36  2  0  0  0  0
 36 37  1  0  0  0  0
 28 37  1  0  0  0  0
 30 38  2  0  0  0  0
 34 39  1  0  0  0  0
 32 40  1  0  0  0  0
 25 28  1  0  0  0  0
  8 21  1  0  0  0  0
M  END
>  <cdx:groupId>
127

>  <cdx:fragmentId>
59

$$$$
