302532.cdx
  Mrv1902 05222410242D          

 35 38  0  0  0  0            999 V2000
    6.6532   -6.2045    0.0000 C   0  0  0  0  0  0  0  0  0  0  0  0
    5.9388   -5.7920    0.0000 C   0  0  0  0  0  0  0  0  0  0  0  0
    5.9388   -4.9670    0.0000 C   0  0  0  0  0  0  0  0  0  0  0  0
    6.6532   -4.5545    0.0000 C   0  0  0  0  0  0  0  0  0  0  0  0
    7.3677   -5.7920    0.0000 O   0  0  0  0  0  0  0  0  0  0  0  0
    6.6532   -7.0295    0.0000 O   0  0  0  0  0  0  0  0  0  0  0  0
    5.2243   -4.5545    0.0000 C   0  0  0  0  0  0  0  0  0  0  0  0
    5.9388   -8.2670    0.0000 C   0  0  0  0  0  0  0  0  0  0  0  0
    5.2243   -8.6795    0.0000 C   0  0  0  0  0  0  0  0  0  0  0  0
    5.2243   -9.5045    0.0000 C   0  0  1  0  0  0  0  0  0  0  0  0
    5.9388   -9.9170    0.0000 C   0  0  0  0  0  0  0  0  0  0  0  0
    6.6532   -9.5045    0.0000 C   0  0  0  0  0  0  0  0  0  0  0  0
    7.3677   -9.9170    0.0000 C   0  0  0  0  0  0  0  0  0  0  0  0
    8.0822   -9.5045    0.0000 C   0  0  0  0  0  0  0  0  0  0  0  0
    8.0822   -8.6795    0.0000 C   0  0  1  0  0  0  0  0  0  0  0  0
    8.7966   -8.2670    0.0000 C   0  0  2  0  0  0  0  0  0  0  0  0
    9.5813   -8.5219    0.0000 C   0  0  0  0  0  0  0  0  0  0  0  0
   10.0662   -7.8545    0.0000 C   0  0  0  0  0  0  0  0  0  0  0  0
    9.5813   -7.1870    0.0000 C   0  0  1  0  0  0  0  0  0  0  0  0
    8.7966   -7.4420    0.0000 C   0  0  1  0  0  0  0  0  0  0  0  0
    8.0822   -7.0295    0.0000 C   0  0  1  0  0  0  0  0  0  0  0  0
    7.3677   -7.4420    0.0000 C   0  0  2  0  0  0  0  0  0  0  0  0
    7.3677   -8.2670    0.0000 C   0  0  2  0  0  0  0  0  0  0  0  0
    6.6532   -8.6795    0.0000 C   0  0  1  0  0  0  0  0  0  0  0  0
    8.8829   -6.6215    0.0000 C   0  0  0  0  0  0  0  0  0  0  0  0
    6.6532   -7.8545    0.0000 C   0  0  0  0  0  0  0  0  0  0  0  0
   10.6432   -6.2309    0.0000 O   0  0  0  0  0  0  0  0  0  0  0  0
    8.7966   -9.0920    0.0000 O   0  0  0  0  0  0  0  0  0  0  0  0
    8.0822   -6.2045    0.0000 O   0  0  0  0  0  0  0  0  0  0  0  0
    4.5098   -9.9170    0.0000 O   0  0  0  0  0  0  0  0  0  0  0  0
    8.0822   -7.8545    0.0000 H   0  0  0  0  0  0  0  0  0  0  0  0
    7.3677   -9.0920    0.0000 H   0  0  0  0  0  0  0  0  0  0  0  0
    9.2842   -5.7893    0.0000 C   0  0  0  0  0  0  0  0  0  0  0  0
    9.8362   -6.4024    0.0000 C   0  0  2  0  0  0  0  0  0  0  0  0
   10.3659   -6.9321    0.0000 H   0  0  0  0  0  0  0  0  0  0  0  0
 34 27  1  1  0  0  0
 34 33  1  0  0  0  0
  1  2  1  0  0  0  0
  2  3  2  0  0  0  0
  3  4  1  0  0  0  0
  1  5  2  0  0  0  0
  1  6  1  0  0  0  0
  3  7  1  0  0  0  0
  8  9  1  0  0  0  0
  9 10  1  0  0  0  0
 10 11  1  0  0  0  0
 11 12  1  0  0  0  0
 12 13  2  0  0  0  0
 13 14  1  0  0  0  0
 14 15  1  0  0  0  0
 15 16  1  0  0  0  0
 16 17  1  0  0  0  0
 17 18  1  0  0  0  0
 19 18  1  0  0  0  0
 19 20  1  0  0  0  0
 16 20  1  0  0  0  0
 20 21  1  0  0  0  0
 21 22  1  0  0  0  0
 22 23  1  0  0  0  0
 15 23  1  0  0  0  0
 23 24  1  0  0  0  0
 12 24  1  0  0  0  0
  8 24  1  0  0  0  0
 20 25  1  1  0  0  0
 24 26  1  1  0  0  0
 19 34  1  0  0  0  0
 16 28  1  6  0  0  0
 21 29  1  1  0  0  0
 10 30  1  1  0  0  0
 22  6  1  6  0  0  0
 15 31  1  1  0  0  0
 23 32  1  6  0  0  0
 19 35  1  6  0  0  0
M  END
>  <cdx:fragmentId>
19

$$$$
