302556.cdx
  Mrv1902 05222410272D          

 15 15  0  0  0  0            999 V2000
    9.5306   -8.6795    0.0000 C   0  0  0  0  0  0  0  0  0  0  0  0
    8.8161   -8.2670    0.0000 C   0  0  0  0  0  0  0  0  0  0  0  0
    8.1017   -8.6795    0.0000 C   0  0  0  0  0  0  0  0  0  0  0  0
    7.3872   -8.2670    0.0000 C   0  0  0  0  0  0  0  0  0  0  0  0
    7.3872   -7.4420    0.0000 C   0  0  0  0  0  0  0  0  0  0  0  0
    6.6727   -7.0295    0.0000 C   0  0  0  0  0  0  0  0  0  0  0  0
    5.9582   -7.4420    0.0000 C   0  0  0  0  0  0  0  0  0  0  0  0
    5.9582   -8.2670    0.0000 C   0  0  0  0  0  0  0  0  0  0  0  0
    6.6727   -8.6795    0.0000 C   0  0  0  0  0  0  0  0  0  0  0  0
   10.2451   -8.2670    0.0000 O   0  0  0  0  0  0  0  0  0  0  0  0
    5.2438   -7.0295    0.0000 O   0  0  0  0  0  0  0  0  0  0  0  0
    5.2438   -8.6795    0.0000 O   0  0  0  0  0  0  0  0  0  0  0  0
    4.5293   -8.2670    0.0000 C   0  0  0  0  0  0  0  0  0  0  0  0
    6.6727   -6.2045    0.0000 O   0  0  0  0  0  0  0  0  0  0  0  0
    5.9582   -5.7920    0.0000 C   0  0  0  0  0  0  0  0  0  0  0  0
  1  2  1  0  0  0  0
  2  3  2  0  0  0  0
  3  4  1  0  0  0  0
  4  5  1  0  0  0  0
  5  6  2  0  0  0  0
  6  7  1  0  0  0  0
  7  8  2  0  0  0  0
  8  9  1  0  0  0  0
  4  9  2  0  0  0  0
  1 10  2  0  0  0  0
  7 11  1  0  0  0  0
 12 13  1  0  0  0  0
  8 12  1  0  0  0  0
 14 15  1  0  0  0  0
  6 14  1  0  0  0  0
M  END
>  <cdx:groupId>
47

>  <cdx:fragmentId>
5

$$$$
