302510.cdx
  Mrv1902 05222410222D          

 19 21  0  0  0  0            999 V2000
    9.9826   -6.7805    0.0000 C   0  0  0  0  0  0  0  0  0  0  0  0
    9.9826   -7.6055    0.0000 C   0  0  0  0  0  0  0  0  0  0  0  0
    9.2681   -8.0180    0.0000 C   0  0  0  0  0  0  0  0  0  0  0  0
    8.5536   -7.6055    0.0000 C   0  0  0  0  0  0  0  0  0  0  0  0
    7.8391   -8.0180    0.0000 C   0  0  0  0  0  0  0  0  0  0  0  0
    7.1247   -7.6055    0.0000 C   0  0  0  0  0  0  0  0  0  0  0  0
    7.1247   -6.7805    0.0000 C   0  0  0  0  0  0  0  0  0  0  0  0
    7.8391   -6.3680    0.0000 C   0  0  0  0  0  0  0  0  0  0  0  0
    8.5536   -6.7805    0.0000 C   0  0  0  0  0  0  0  0  0  0  0  0
    9.2681   -6.3680    0.0000 O   0  0  0  0  0  0  0  0  0  0  0  0
   10.6970   -6.3680    0.0000 O   0  0  0  0  0  0  0  0  0  0  0  0
    6.4102   -6.3680    0.0000 O   0  0  0  0  0  0  0  0  0  0  0  0
    5.6957   -6.7805    0.0000 C   0  0  0  0  0  0  0  0  0  0  0  0
    6.4102   -8.0180    0.0000 C   0  0  0  0  0  0  0  0  0  0  0  0
    5.2832   -6.8910    0.0000 O   0  0  0  0  0  0  0  0  0  0  0  0
    5.6957   -7.6055    0.0000 C   0  0  0  0  0  0  0  0  0  0  0  0
    4.8707   -7.6055    0.0000 C   0  0  0  0  0  0  0  0  0  0  0  0
    4.4582   -8.3200    0.0000 C   0  0  0  0  0  0  0  0  0  0  0  0
    4.0457   -7.6055    0.0000 C   0  0  0  0  0  0  0  0  0  0  0  0
  1  2  1  0  0  0  0
  2  3  2  0  0  0  0
  3  4  1  0  0  0  0
  4  5  1  0  0  0  0
  5  6  2  0  0  0  0
  6  7  1  0  0  0  0
  7  8  2  0  0  0  0
  8  9  1  0  0  0  0
  4  9  2  0  0  0  0
  9 10  1  0  0  0  0
  1 10  1  0  0  0  0
  1 11  2  0  0  0  0
 12 13  1  0  0  0  0
  7 12  1  0  0  0  0
 15 16  1  0  0  0  0
 16 17  1  0  0  0  0
 15 17  1  0  0  0  0
 17 18  1  0  0  0  0
 17 19  1  0  0  0  0
 14 16  1  0  0  0  0
  6 14  1  0  0  0  0
M  END
>  <cdx:groupId>
61

>  <cdx:fragmentId>
5

$$$$
