302543.cdx
  Mrv1902 05222410272D          

  9  8  0  0  0  0            999 V2000
    8.1395   -8.3081    0.0000 C   0  0  0  0  0  0  0  0  0  0  0  0
    7.4250   -7.8956    0.0000 C   0  0  0  0  0  0  0  0  0  0  0  0
    6.7105   -8.3081    0.0000 C   0  0  0  0  0  0  0  0  0  0  0  0
    8.8539   -7.8956    0.0000 O   0  0  0  0  0  0  0  0  0  0  0  0
    5.9961   -7.8956    0.0000 O   0  0  0  0  0  0  0  0  0  0  0  0
    7.4250   -7.0706    0.0000 C   0  0  0  0  0  0  0  0  0  0  0  0
    6.7105   -6.6581    0.0000 C   0  0  0  0  0  0  0  0  0  0  0  0
    7.4250   -6.2456    0.0000 C   0  0  0  0  0  0  0  0  0  0  0  0
    8.1395   -6.6581    0.0000 C   0  0  0  0  0  0  0  0  0  0  0  0
  1  2  1  0  0  0  0
  2  3  1  0  0  0  0
  1  4  2  0  0  0  0
  3  5  2  0  0  0  0
  6  7  1  0  0  0  0
  6  9  1  0  0  0  0
  6  8  1  0  0  0  0
  2  6  1  0  0  0  0
M  END
>  <cdx:groupId>
28

>  <cdx:fragmentId>
5

$$$$
