302565.cdx
  Mrv1902 05222410182D          

 19 19  0  0  0  0            999 V2000
   12.0656   -8.0627    0.0000 O   0  0  0  0  0  0  0  0  0  0  0  0
   11.3512   -7.6502    0.0000 C   0  0  0  0  0  0  0  0  0  0  0  0
   11.3512   -6.8252    0.0000 C   0  0  0  0  0  0  0  0  0  0  0  0
   12.0656   -6.4127    0.0000 C   0  0  0  0  0  0  0  0  0  0  0  0
   12.7801   -6.8252    0.0000 C   0  0  0  0  0  0  0  0  0  0  0  0
   12.7801   -7.6502    0.0000 C   0  0  0  0  0  0  0  0  0  0  0  0
   10.6367   -8.0627    0.0000 O   0  0  0  0  0  0  0  0  0  0  0  0
    9.9222   -7.6502    0.0000 C   0  0  0  0  0  0  0  0  0  0  0  0
    9.2077   -8.0627    0.0000 C   0  0  0  0  0  0  0  0  0  0  0  0
    8.4933   -7.6502    0.0000 C   0  0  0  0  0  0  0  0  0  0  0  0
    7.7788   -8.0627    0.0000 C   0  0  0  0  0  0  0  0  0  0  0  0
    7.0643   -7.6502    0.0000 C   0  0  0  0  0  0  0  0  0  0  0  0
    6.3499   -8.0627    0.0000 C   0  0  0  0  0  0  0  0  0  0  0  0
    5.6354   -7.6502    0.0000 C   0  0  0  0  0  0  0  0  0  0  0  0
    4.9209   -7.2377    0.0000 C   0  0  0  0  0  0  0  0  0  0  0  0
    4.2064   -6.8252    0.0000 C   0  0  0  0  0  0  0  0  0  0  0  0
    3.4920   -7.2377    0.0000 C   0  0  0  0  0  0  0  0  0  0  0  0
    2.7775   -6.8252    0.0000 C   0  0  0  0  0  0  0  0  0  0  0  0
    2.0630   -7.2377    0.0000 C   0  0  0  0  0  0  0  0  0  0  0  0
  1  2  1  0  0  0  0
  2  3  1  0  0  0  0
  3  4  1  0  0  0  0
  4  5  1  0  0  0  0
  5  6  1  0  0  0  0
  1  6  1  0  0  0  0
  8  9  1  0  0  0  0
  9 10  1  0  0  0  0
 10 11  1  0  0  0  0
 11 12  1  0  0  0  0
 12 13  1  0  0  0  0
 13 14  1  0  0  0  0
 14 15  3  0  0  0  0
 15 16  1  0  0  0  0
 16 17  1  0  0  0  0
 17 18  1  0  0  0  0
 18 19  1  0  0  0  0
  7  8  1  0  0  0  0
  2  7  1  0  0  0  0
M  END
>  <cdx:groupId>
61

>  <cdx:fragmentId>
21

$$$$
