302591.cdx
  Mrv1902 05222410272D          

 14 14  0  0  0  0            999 V2000
    6.0633   -8.3879    0.0000 C   0  0  0  0  0  0  0  0  0  0  0  0
    6.7777   -8.8004    0.0000 C   0  0  0  0  0  0  0  0  0  0  0  0
    7.4922   -8.3879    0.0000 C   0  0  0  0  0  0  0  0  0  0  0  0
    7.4922   -7.5629    0.0000 C   0  0  0  0  0  0  0  0  0  0  0  0
    6.7777   -7.1504    0.0000 C   0  0  0  0  0  0  0  0  0  0  0  0
    6.0632   -7.5629    0.0000 C   0  0  0  0  0  0  0  0  0  0  0  0
    5.3488   -8.8004    0.0000 O   0  0  0  0  0  0  0  0  0  0  0  0
    6.7777   -9.6254    0.0000 O   0  0  0  0  0  0  0  0  0  0  0  0
    8.2067   -8.8004    0.0000 O   0  0  0  0  0  0  0  0  0  0  0  0
    6.3652   -6.4359    0.0000 O   0  0  0  0  0  0  0  0  0  0  0  0
    7.1902   -6.4359    0.0000 C   0  0  0  0  0  0  0  0  0  0  0  0
    8.0152   -6.4359    0.0000 C   0  0  0  0  0  0  0  0  0  0  0  0
    8.4277   -5.7214    0.0000 C   0  0  0  0  0  0  0  0  0  0  0  0
    9.2527   -5.7214    0.0000 C   0  0  0  0  0  0  0  0  0  0  0  0
  1  2  1  0  0  0  0
  2  3  1  0  0  0  0
  3  4  1  0  0  0  0
  4  5  1  0  0  0  0
  5  6  1  0  0  0  0
  1  6  1  0  0  0  0
  1  7  1  0  0  0  0
  2  8  1  0  0  0  0
  3  9  1  0  0  0  0
  5 10  1  0  0  0  0
  5 11  1  0  0  0  0
 11 12  1  0  0  0  0
 12 13  1  0  0  0  0
 13 14  1  0  0  0  0
M  END
>  <cdx:fragmentId>
7

$$$$
