302561.cdx
  Mrv1902 05222410202D          

 15 16  0  0  0  0            999 V2000
    8.2855   -7.4439    0.0000 C   0  0  0  0  0  0  0  0  0  0  0  0
    7.5710   -7.0314    0.0000 C   0  0  0  0  0  0  0  0  0  0  0  0
    6.8566   -7.4439    0.0000 C   0  0  0  0  0  0  0  0  0  0  0  0
    6.8566   -8.2689    0.0000 C   0  0  0  0  0  0  0  0  0  0  0  0
    6.1421   -8.6814    0.0000 C   0  0  0  0  0  0  0  0  0  0  0  0
    5.4276   -8.2689    0.0000 C   0  0  0  0  0  0  0  0  0  0  0  0
    5.4276   -7.4439    0.0000 C   0  0  0  0  0  0  0  0  0  0  0  0
    6.1421   -7.0314    0.0000 C   0  0  0  0  0  0  0  0  0  0  0  0
    9.0000   -7.0314    0.0000 C   0  0  0  0  0  0  0  0  0  0  0  0
    9.0000   -6.2064    0.0000 C   0  0  0  0  0  0  0  0  0  0  0  0
    9.7145   -5.7939    0.0000 C   0  0  0  0  0  0  0  0  0  0  0  0
   10.4289   -6.2064    0.0000 C   0  0  0  0  0  0  0  0  0  0  0  0
   10.4289   -7.0314    0.0000 C   0  0  0  0  0  0  0  0  0  0  0  0
    9.7145   -7.4439    0.0000 C   0  0  0  0  0  0  0  0  0  0  0  0
    4.7132   -8.6814    0.0000 O   0  0  0  0  0  0  0  0  0  0  0  0
  1  2  2  0  0  0  0
  2  3  1  0  0  0  0
  3  4  1  0  0  0  0
  4  5  2  0  0  0  0
  5  6  1  0  0  0  0
  6  7  2  0  0  0  0
  7  8  1  0  0  0  0
  3  8  2  0  0  0  0
  1  9  1  0  0  0  0
  9 10  1  0  0  0  0
 10 11  2  0  0  0  0
 11 12  1  0  0  0  0
 12 13  2  0  0  0  0
 13 14  1  0  0  0  0
  9 14  2  0  0  0  0
  6 15  1  0  0  0  0
M  END
>  <cdx:groupId>
48

>  <cdx:fragmentId>
5

$$$$
