302534.cdx
  Mrv1902 05222410252D          

 12 12  0  0  0  0            999 V2000
    8.8539   -8.1174    0.0000 C   0  0  0  0  0  0  0  0  0  0  0  0
    8.1395   -7.7049    0.0000 C   0  0  0  0  0  0  0  0  0  0  0  0
    7.4250   -8.1174    0.0000 C   0  0  0  0  0  0  0  0  0  0  0  0
    6.7105   -7.7049    0.0000 C   0  0  0  0  0  0  0  0  0  0  0  0
    6.7105   -6.8799    0.0000 C   0  0  0  0  0  0  0  0  0  0  0  0
    5.9961   -6.4674    0.0000 C   0  0  0  0  0  0  0  0  0  0  0  0
    7.4250   -6.4674    0.0000 C   0  0  0  0  0  0  0  0  0  0  0  0
    8.1395   -6.8799    0.0000 C   0  0  0  0  0  0  0  0  0  0  0  0
    8.8539   -8.9424    0.0000 O   0  0  0  0  0  0  0  0  0  0  0  0
    9.5684   -7.7049    0.0000 O   0  0  0  0  0  0  0  0  0  0  0  0
    5.9961   -5.6424    0.0000 O   0  0  0  0  0  0  0  0  0  0  0  0
    5.2816   -6.8799    0.0000 O   0  0  0  0  0  0  0  0  0  0  0  0
  1  2  1  0  0  0  0
  2  3  1  0  0  0  0
  3  4  2  0  0  0  0
  4  5  1  0  0  0  0
  5  6  1  0  0  0  0
  5  7  2  0  0  0  0
  7  8  1  0  0  0  0
  2  8  2  0  0  0  0
  1  9  2  0  0  0  0
  1 10  1  0  0  0  0
  6 11  2  0  0  0  0
  6 12  1  0  0  0  0
M  END
>  <cdx:groupId>
38

>  <cdx:fragmentId>
5

$$$$
