302530.cdx
  Mrv1902 05222410242D          

 33 36  0  0  0  0            999 V2000
   10.2033   -9.2639    0.0000 O   0  0  0  0  0  0  0  0  0  0  0  0
    2.3180   -8.0571    0.0000 O   0  0  0  0  0  0  0  0  0  0  0  0
    3.0221   -9.3005    0.0000 O   0  0  0  0  0  0  0  0  0  0  0  0
    3.7400   -8.8940    0.0000 C   0  0  2  0  0  0  0  0  0  0  0  0
    3.7469   -8.0690    0.0000 C   0  0  1  0  0  0  0  0  0  0  0  0
   10.8654   -5.5417    0.0000 O   0  0  0  0  0  0  0  0  0  0  0  0
   12.3058   -6.3465    0.0000 O   0  0  0  0  0  0  0  0  0  0  0  0
    7.3573  -10.1290    0.0000 O   0  0  0  0  0  0  0  0  0  0  0  0
    8.7861  -10.1089    0.0000 O   0  0  0  0  0  0  0  0  0  0  0  0
   10.9003   -8.0165    0.0000 C   0  0  0  0  0  0  0  0  0  0  0  0
   11.6089   -7.5940    0.0000 C   0  0  0  0  0  0  0  0  0  0  0  0
   11.5972   -6.7690    0.0000 C   0  0  0  0  0  0  0  0  0  0  0  0
   10.8770   -6.3666    0.0000 C   0  0  0  0  0  0  0  0  0  0  0  0
   10.1801   -7.6141    0.0000 C   0  0  0  0  0  0  0  0  0  0  0  0
   10.1684   -6.7892    0.0000 C   0  0  0  0  0  0  0  0  0  0  0  0
    8.7745   -9.2840    0.0000 C   0  0  0  0  0  0  0  0  0  0  0  0
    9.4831   -8.8615    0.0000 C   0  0  1  0  0  0  0  0  0  0  0  0
    9.4715   -8.0366    0.0000 C   0  0  2  0  0  0  0  0  0  0  0  0
    8.7513   -7.6342    0.0000 O   0  0  0  0  0  0  0  0  0  0  0  0
    7.3457   -9.3041    0.0000 C   0  0  0  0  0  0  0  0  0  0  0  0
    8.0543   -8.8816    0.0000 C   0  0  0  0  0  0  0  0  0  0  0  0
    8.0427   -8.0567    0.0000 C   0  0  0  0  0  0  0  0  0  0  0  0
    7.3225   -7.6543    0.0000 C   0  0  0  0  0  0  0  0  0  0  0  0
    3.0359   -7.6506    0.0000 C   0  0  0  0  0  0  0  0  0  0  0  0
    6.6255   -8.9017    0.0000 C   0  0  0  0  0  0  0  0  0  0  0  0
    6.6139   -8.0768    0.0000 C   0  0  0  0  0  0  0  0  0  0  0  0
    4.4510   -9.3124    0.0000 C   0  0  1  0  0  0  0  0  0  0  0  0
    5.1689   -8.9059    0.0000 C   0  0  2  0  0  0  0  0  0  0  0  0
    5.1758   -8.0809    0.0000 C   0  0  1  0  0  0  0  0  0  0  0  0
    4.4648   -7.6625    0.0000 O   0  0  0  0  0  0  0  0  0  0  0  0
    5.8937   -7.6744    0.0000 O   0  0  0  0  0  0  0  0  0  0  0  0
    4.4441  -10.1374    0.0000 O   0  0  0  0  0  0  0  0  0  0  0  0
    5.8799   -9.3243    0.0000 O   0  0  0  0  0  0  0  0  0  0  0  0
 17  1  1  1  0  0  0
 13  6  1  0  0  0  0
 12  7  1  0  0  0  0
  8 20  1  0  0  0  0
 16  9  2  0  0  0  0
 10 14  1  0  0  0  0
 11 10  2  0  0  0  0
 12 11  1  0  0  0  0
 13 12  2  0  0  0  0
 15 13  1  0  0  0  0
 18 14  1  6  0  0  0
 15 14  2  0  0  0  0
 16 21  1  0  0  0  0
 17 16  1  0  0  0  0
 18 17  1  0  0  0  0
 19 18  1  0  0  0  0
 22 19  1  0  0  0  0
 20 25  1  0  0  0  0
 21 20  2  0  0  0  0
 22 21  1  0  0  0  0
 23 22  2  0  0  0  0
 26 23  1  0  0  0  0
 26 25  2  0  0  0  0
 31 26  1  0  0  0  0
  4  3  1  6  0  0  0
  4  5  1  0  0  0  0
  5 24  1  1  0  0  0
 24  2  1  0  0  0  0
  4 27  1  0  0  0  0
 27 28  1  0  0  0  0
 28 29  1  0  0  0  0
 29 30  1  0  0  0  0
 30  5  1  0  0  0  0
 29 31  1  1  0  0  0
 27 32  1  1  0  0  0
 28 33  1  6  0  0  0
M  END
>  <cdx:fragmentId>
5

$$$$
