302587.cdx
  Mrv1902 05222410262D          

 41 46  0  0  0  0            999 V2000
    8.8539   -5.2299    0.0000 C   0  0  0  0  0  0  0  0  0  0  0  0
    9.5684   -5.6424    0.0000 C   0  0  0  0  0  0  0  0  0  0  0  0
    9.5684   -6.4674    0.0000 C   0  0  0  0  0  0  0  0  0  0  0  0
    8.8539   -6.8799    0.0000 C   0  0  0  0  0  0  0  0  0  0  0  0
    8.1395   -6.4674    0.0000 C   0  0  0  0  0  0  0  0  0  0  0  0
    7.4250   -6.8799    0.0000 C   0  0  1  0  0  0  0  0  0  0  0  0
    6.7105   -6.4674    0.0000 C   0  0  0  0  0  0  0  0  0  0  0  0
    5.9961   -6.8799    0.0000 C   0  0  0  0  0  0  0  0  0  0  0  0
    5.2816   -6.4674    0.0000 C   0  0  0  0  0  0  0  0  0  0  0  0
    5.2816   -5.6424    0.0000 C   0  0  0  0  0  0  0  0  0  0  0  0
    5.9961   -5.2299    0.0000 C   0  0  0  0  0  0  0  0  0  0  0  0
    6.7105   -5.6424    0.0000 C   0  0  0  0  0  0  0  0  0  0  0  0
    7.4250   -5.2299    0.0000 C   0  0  0  0  0  0  0  0  0  0  0  0
    8.1395   -5.6424    0.0000 C   0  0  0  0  0  0  0  0  0  0  0  0
    7.4250   -4.4049    0.0000 O   0  0  0  0  0  0  0  0  0  0  0  0
    8.8539   -7.7049    0.0000 C   0  0  0  0  0  0  0  0  0  0  0  0
    9.5684   -8.1174    0.0000 C   0  0  0  0  0  0  0  0  0  0  0  0
    9.5684   -8.9424    0.0000 C   0  0  0  0  0  0  0  0  0  0  0  0
    8.8539   -9.3549    0.0000 C   0  0  0  0  0  0  0  0  0  0  0  0
    8.1395   -8.9424    0.0000 C   0  0  0  0  0  0  0  0  0  0  0  0
    7.4250   -9.3549    0.0000 C   0  0  0  0  0  0  0  0  0  0  0  0
    6.7105   -8.9424    0.0000 C   0  0  0  0  0  0  0  0  0  0  0  0
    5.9961   -9.3549    0.0000 C   0  0  0  0  0  0  0  0  0  0  0  0
    5.2816   -8.9424    0.0000 C   0  0  0  0  0  0  0  0  0  0  0  0
    5.2816   -8.1174    0.0000 C   0  0  0  0  0  0  0  0  0  0  0  0
    5.9961   -7.7049    0.0000 C   0  0  0  0  0  0  0  0  0  0  0  0
    6.7105   -8.1174    0.0000 C   0  0  0  0  0  0  0  0  0  0  0  0
    7.4250   -7.7049    0.0000 C   0  0  2  0  0  0  0  0  0  0  0  0
    8.1395   -8.1174    0.0000 C   0  0  0  0  0  0  0  0  0  0  0  0
    7.4250  -10.1799    0.0000 O   0  0  0  0  0  0  0  0  0  0  0  0
    5.9961   -4.4049    0.0000 O   0  0  0  0  0  0  0  0  0  0  0  0
    8.8539   -4.4049    0.0000 O   0  0  0  0  0  0  0  0  0  0  0  0
    5.9961  -10.1799    0.0000 O   0  0  0  0  0  0  0  0  0  0  0  0
    8.8539  -10.1799    0.0000 O   0  0  0  0  0  0  0  0  0  0  0  0
   10.2829   -7.7049    0.0000 C   0  0  0  0  0  0  0  0  0  0  0  0
   10.2829   -6.8799    0.0000 C   0  0  0  0  0  0  0  0  0  0  0  0
    4.5671   -6.8799    0.0000 O   0  0  0  0  0  0  0  0  0  0  0  0
    4.5671   -7.7049    0.0000 O   0  0  0  0  0  0  0  0  0  0  0  0
    3.8526   -8.1174    0.0000 C   0  0  0  0  0  0  0  0  0  0  0  0
    8.2219   -7.0935    0.0000 H   0  0  0  0  0  0  0  0  0  0  0  0
    6.6281   -7.4914    0.0000 H   0  0  0  0  0  0  0  0  0  0  0  0
  1  2  1  0  0  0  0
  2  3  2  0  0  0  0
  3  4  1  0  0  0  0
  4  5  2  0  0  0  0
  5  6  1  0  0  0  0
  6  7  1  0  0  0  0
  7  8  1  0  0  0  0
  8  9  2  0  0  0  0
  9 10  1  0  0  0  0
 10 11  2  0  0  0  0
 11 12  1  0  0  0  0
  7 12  2  0  0  0  0
 12 13  1  0  0  0  0
 13 14  1  0  0  0  0
  5 14  1  0  0  0  0
  1 14  2  0  0  0  0
 13 15  2  0  0  0  0
 16 17  1  0  0  0  0
 17 18  2  0  0  0  0
 18 19  1  0  0  0  0
 19 20  2  0  0  0  0
 20 21  1  0  0  0  0
 21 22  1  0  0  0  0
 22 23  1  0  0  0  0
 23 24  2  0  0  0  0
 24 25  1  0  0  0  0
 25 26  2  0  0  0  0
 26 27  1  0  0  0  0
 22 27  2  0  0  0  0
 27 28  1  0  0  0  0
 28 29  1  0  0  0  0
 20 29  1  0  0  0  0
 16 29  2  0  0  0  0
 21 30  2  0  0  0  0
  6 28  1  0  0  0  0
 11 31  1  0  0  0  0
  1 32  1  0  0  0  0
 23 33  1  0  0  0  0
 19 34  1  0  0  0  0
 17 35  1  0  0  0  0
  3 36  1  0  0  0  0
  9 37  1  0  0  0  0
 25 38  1  0  0  0  0
 38 39  1  0  0  0  0
  6 40  1  1  0  0  0
 28 41  1  6  0  0  0
M  END
>  <cdx:groupId>
97

>  <cdx:fragmentId>
35

$$$$
