302573.cdx
  Mrv1902 05222410192D          

 28 33  0  0  0  0            999 V2000
    7.4272   -6.4096    0.0000 C   0  0  2  0  0  0  0  0  0  0  0  0
    8.2118   -6.6646    0.0000 C   0  0  0  0  0  0  0  0  0  0  0  0
    8.5473   -7.4182    0.0000 C   0  0  0  0  0  0  0  0  0  0  0  0
    9.3678   -7.5045    0.0000 C   0  0  0  0  0  0  0  0  0  0  0  0
    9.8527   -6.8370    0.0000 C   0  0  0  0  0  0  0  0  0  0  0  0
    9.5172   -6.0833    0.0000 C   0  0  0  0  0  0  0  0  0  0  0  0
    8.6967   -5.9971    0.0000 C   0  0  0  0  0  0  0  0  0  0  0  0
    8.2118   -5.3297    0.0000 N   0  0  0  0  0  0  0  0  0  0  0  0
    7.4272   -5.5846    0.0000 C   0  0  1  0  0  0  0  0  0  0  0  0
    6.7127   -5.1721    0.0000 C   0  0  2  0  0  0  0  0  0  0  0  0
    6.3468   -5.9798    0.0000 C   0  0  0  0  0  0  0  0  0  0  0  0
    4.5693   -6.4096    0.0000 C   0  0  1  0  0  0  0  0  0  0  0  0
    4.5693   -5.5846    0.0000 C   0  0  0  0  0  0  0  0  0  0  0  0
    5.2838   -5.1721    0.0000 C   0  0  0  0  0  0  0  0  0  0  0  0
    5.9982   -5.5846    0.0000 N   0  0  0  0  0  0  0  0  0  0  0  0
    5.9982   -6.4096    0.0000 C   0  0  2  0  0  0  0  0  0  0  0  0
    5.2838   -6.8221    0.0000 C   0  0  1  0  0  0  0  0  0  0  0  0
    6.4824   -7.2778    0.0000 C   0  0  1  0  0  0  0  0  0  0  0  0
    6.7127   -6.8221    0.0000 C   0  0  0  0  0  0  0  0  0  0  0  0
    6.6382   -8.0879    0.0000 O   0  0  0  0  0  0  0  0  0  0  0  0
    8.4667   -4.5451    0.0000 C   0  0  0  0  0  0  0  0  0  0  0  0
    3.8548   -5.1721    0.0000 C   0  0  0  0  0  0  0  0  0  0  0  0
    3.1403   -5.5846    0.0000 C   0  0  0  0  0  0  0  0  0  0  0  0
    7.5134   -4.7641    0.0000 H   0  0  0  0  0  0  0  0  0  0  0  0
    6.7127   -4.3471    0.0000 H   0  0  0  0  0  0  0  0  0  0  0  0
    3.8548   -6.8221    0.0000 H   0  0  0  0  0  0  0  0  0  0  0  0
    6.8107   -6.2664    0.0000 H   0  0  0  0  0  0  0  0  0  0  0  0
    4.8713   -7.5366    0.0000 H   0  0  0  0  0  0  0  0  0  0  0  0
  1  2  1  0  0  0  0
  2  3  2  0  0  0  0
  3  4  1  0  0  0  0
  4  5  2  0  0  0  0
  5  6  1  0  0  0  0
  6  7  2  0  0  0  0
  7  8  1  0  0  0  0
  8  9  1  0  0  0  0
  9 10  1  0  0  0  0
 10 11  1  1  0  0  0
 12 11  1  1  0  0  0
 12 13  1  0  0  0  0
 13 14  1  0  0  0  0
 14 15  1  0  0  0  0
 15 16  1  0  0  0  0
 16 17  1  0  0  0  0
 17 18  1  0  0  0  0
  1 18  1  0  0  0  0
  1 19  1  6  0  0  0
 19 16  1  0  0  0  0
 12 17  1  0  0  0  0
 10 15  1  0  0  0  0
  1  9  1  0  0  0  0
  2  7  1  0  0  0  0
 18 20  1  6  0  0  0
  8 21  1  0  0  0  0
 22 23  1  0  0  0  0
 13 22  2  0  0  0  0
  9 24  1  1  0  0  0
 10 25  1  0  0  0  0
 12 26  1  0  0  0  0
 16 27  1  6  0  0  0
 17 28  1  6  0  0  0
M  END
>  <cdx:groupId>
91

>  <cdx:fragmentId>
5

$$$$
