302593.cdx
  Mrv1902 05222410262D          

 14 15  0  0  0  0            999 V2000
    7.0402   -6.5351    0.0000 C   0  0  0  0  0  0  0  0  0  0  0  0
    7.0402   -7.3601    0.0000 C   0  0  0  0  0  0  0  0  0  0  0  0
    6.3257   -7.7726    0.0000 C   0  0  0  0  0  0  0  0  0  0  0  0
    5.6112   -7.3601    0.0000 C   0  0  0  0  0  0  0  0  0  0  0  0
    5.6112   -6.5351    0.0000 C   0  0  0  0  0  0  0  0  0  0  0  0
    6.3257   -6.1226    0.0000 N   0  0  0  0  0  0  0  0  0  0  0  0
    7.8248   -7.6151    0.0000 C   0  0  0  0  0  0  0  0  0  0  0  0
    8.3097   -6.9476    0.0000 C   0  0  0  0  0  0  0  0  0  0  0  0
    7.8248   -6.2802    0.0000 S   0  0  0  0  0  0  0  0  0  0  0  0
    9.1347   -6.9476    0.0000 C   0  0  0  0  0  0  0  0  0  0  0  0
    9.5472   -7.6621    0.0000 O   0  0  0  0  0  0  0  0  0  0  0  0
    9.5472   -6.2331    0.0000 N   0  0  0  0  0  0  0  0  0  0  0  0
    4.8968   -6.1226    0.0000 C   0  0  0  0  0  0  0  0  0  0  0  0
    8.0797   -8.3997    0.0000 N   0  0  0  0  0  0  0  0  0  0  0  0
  1  2  1  0  0  0  0
  2  3  2  0  0  0  0
  3  4  1  0  0  0  0
  4  5  2  0  0  0  0
  5  6  1  0  0  0  0
  1  6  2  0  0  0  0
  7  8  2  0  0  0  0
  8  9  1  0  0  0  0
  9  1  1  0  0  0  0
  7  2  1  0  0  0  0
 10 11  2  0  0  0  0
 10 12  1  0  0  0  0
  8 10  1  0  0  0  0
  5 13  1  0  0  0  0
  7 14  1  0  0  0  0
M  END
>  <cdx:groupId>
45

>  <cdx:fragmentId>
5

$$$$
