302545.cdx
  Mrv1902 05222410262D          

 15 14  0  0  0  0            999 V2000
    3.1760   -7.0100    0.0000 C   0  0  0  0  0  0  0  0  0  0  0  0
    3.8905   -7.4225    0.0000 C   0  0  0  0  0  0  0  0  0  0  0  0
    4.6049   -7.0100    0.0000 C   0  0  0  0  0  0  0  0  0  0  0  0
    5.3194   -7.4225    0.0000 C   0  0  0  0  0  0  0  0  0  0  0  0
    6.0339   -7.0100    0.0000 C   0  0  0  0  0  0  0  0  0  0  0  0
    6.7483   -7.4225    0.0000 C   0  0  0  0  0  0  0  0  0  0  0  0
    7.4628   -7.0100    0.0000 C   0  0  0  0  0  0  0  0  0  0  0  0
    8.1773   -7.4225    0.0000 C   0  0  0  0  0  0  0  0  0  0  0  0
    8.8918   -7.0100    0.0000 C   0  0  0  0  0  0  0  0  0  0  0  0
    9.6062   -7.4225    0.0000 C   0  0  0  0  0  0  0  0  0  0  0  0
   10.3207   -7.0100    0.0000 C   0  0  0  0  0  0  0  0  0  0  0  0
   11.0352   -7.4225    0.0000 C   0  0  0  0  0  0  0  0  0  0  0  0
   11.7496   -7.0100    0.0000 C   0  0  0  0  0  0  0  0  0  0  0  0
   12.4641   -7.4225    0.0000 C   0  0  0  0  0  0  0  0  0  0  0  0
    2.4615   -7.4225    0.0000 O   0  0  0  0  0  0  0  0  0  0  0  0
  1  2  1  0  0  0  0
  2  3  1  0  0  0  0
  3  4  1  0  0  0  0
  4  5  1  0  0  0  0
  5  6  1  0  0  0  0
  6  7  1  0  0  0  0
  7  8  1  0  0  0  0
  8  9  1  0  0  0  0
  9 10  1  0  0  0  0
 10 11  1  0  0  0  0
 11 12  1  0  0  0  0
 12 13  1  0  0  0  0
 13 14  1  0  0  0  0
  1 15  2  0  0  0  0
M  END
>  <cdx:groupId>
46

>  <cdx:fragmentId>
5

$$$$
