302539.cdx
  Mrv1902 05222410212D          

 17 17  0  0  0  0            999 V2000
    3.5062   -5.4615    0.0000 C   0  0  0  0  0  0  0  0  0  0  0  0
    3.5062   -6.2865    0.0000 C   0  0  0  0  0  0  0  0  0  0  0  0
    4.2207   -6.6990    0.0000 C   0  0  0  0  0  0  0  0  0  0  0  0
    4.9352   -6.2865    0.0000 C   0  0  0  0  0  0  0  0  0  0  0  0
    4.9352   -5.4615    0.0000 C   0  0  0  0  0  0  0  0  0  0  0  0
    4.2207   -5.0490    0.0000 C   0  0  0  0  0  0  0  0  0  0  0  0
    2.7918   -5.0490    0.0000 O   0  0  0  0  0  0  0  0  0  0  0  0
    4.2207   -7.5240    0.0000 O   0  0  0  0  0  0  0  0  0  0  0  0
    2.7918   -6.6990    0.0000 O   0  0  0  0  0  0  0  0  0  0  0  0
    5.6497   -5.0490    0.0000 C   0  0  2  0  0  0  0  0  0  0  0  0
    6.3641   -5.4615    0.0000 C   0  0  1  0  0  0  0  0  0  0  0  0
    7.0786   -5.0490    0.0000 C   0  0  0  0  0  0  0  0  0  0  0  0
    7.7931   -5.4615    0.0000 O   0  0  0  0  0  0  0  0  0  0  0  0
    5.6497   -4.2240    0.0000 O   0  0  0  0  0  0  0  0  0  0  0  0
    6.3641   -6.2865    0.0000 O   0  0  0  0  0  0  0  0  0  0  0  0
    2.0773   -5.4615    0.0000 C   0  0  0  0  0  0  0  0  0  0  0  0
    4.9352   -7.9365    0.0000 C   0  0  0  0  0  0  0  0  0  0  0  0
  1  2  2  0  0  0  0
  2  3  1  0  0  0  0
  3  4  2  0  0  0  0
  4  5  1  0  0  0  0
  5  6  2  0  0  0  0
  6  1  1  0  0  0  0
  1  7  1  0  0  0  0
  3  8  1  0  0  0  0
  2  9  1  0  0  0  0
  5 10  1  0  0  0  0
 10 11  1  0  0  0  0
 11 12  1  0  0  0  0
 12 13  1  0  0  0  0
 10 14  1  1  0  0  0
 11 15  1  1  0  0  0
  7 16  1  0  0  0  0
  8 17  1  0  0  0  0
M  END
>  <cdx:fragmentId>
5

$$$$
