302506.cdx
  Mrv1902 05222410202D          

 37 40  0  0  0  0            999 V2000
    6.7105   -8.5299    0.0000 C   0  0  0  0  0  0  0  0  0  0  0  0
    5.9961   -8.1174    0.0000 C   0  0  0  0  0  0  0  0  0  0  0  0
    5.9961   -7.2924    0.0000 C   0  0  0  0  0  0  0  0  0  0  0  0
    6.7105   -6.8799    0.0000 C   0  0  0  0  0  0  0  0  0  0  0  0
    7.4250   -7.2924    0.0000 C   0  0  0  0  0  0  0  0  0  0  0  0
    7.4250   -8.1174    0.0000 N   0  0  0  0  0  0  0  0  0  0  0  0
    6.7105   -9.3549    0.0000 C   0  0  0  0  0  0  0  0  0  0  0  0
    7.4250   -9.7674    0.0000 O   0  0  0  0  0  0  0  0  0  0  0  0
    5.9961   -9.7674    0.0000 O   0  0  0  0  0  0  0  0  0  0  0  0
    5.2816   -8.5299    0.0000 C   0  0  0  0  0  0  0  0  0  0  0  0
    5.2816   -6.8799    0.0000 C   0  0  0  0  0  0  0  0  0  0  0  0
    4.5671   -7.2924    0.0000 C   0  0  0  0  0  0  0  0  0  0  0  0
    3.8526   -6.8799    0.0000 C   0  0  0  0  0  0  0  0  0  0  0  0
    3.8526   -6.0549    0.0000 C   0  0  0  0  0  0  0  0  0  0  0  0
    4.5671   -5.6424    0.0000 C   0  0  0  0  0  0  0  0  0  0  0  0
    5.2816   -6.0549    0.0000 C   0  0  0  0  0  0  0  0  0  0  0  0
    3.1382   -5.6424    0.0000 O   0  0  0  0  0  0  0  0  0  0  0  0
    2.4237   -6.0549    0.0000 C   0  0  0  0  0  0  0  0  0  0  0  0
    3.1382   -7.2924    0.0000 O   0  0  0  0  0  0  0  0  0  0  0  0
    2.4237   -6.8799    0.0000 C   0  0  0  0  0  0  0  0  0  0  0  0
    4.5671   -8.1174    0.0000 O   0  0  0  0  0  0  0  0  0  0  0  0
    8.8539   -7.2924    0.0000 N   0  0  0  0  0  0  0  0  0  0  0  0
    8.1395   -6.8799    0.0000 C   0  0  0  0  0  0  0  0  0  0  0  0
    8.1395   -6.0549    0.0000 C   0  0  0  0  0  0  0  0  0  0  0  0
    8.8539   -5.6424    0.0000 C   0  0  0  0  0  0  0  0  0  0  0  0
    9.5684   -6.0549    0.0000 C   0  0  0  0  0  0  0  0  0  0  0  0
   10.2829   -5.6424    0.0000 C   0  0  0  0  0  0  0  0  0  0  0  0
   10.9974   -6.0549    0.0000 C   0  0  0  0  0  0  0  0  0  0  0  0
   10.9974   -6.8799    0.0000 C   0  0  0  0  0  0  0  0  0  0  0  0
   10.2829   -7.2924    0.0000 C   0  0  0  0  0  0  0  0  0  0  0  0
    9.5684   -6.8799    0.0000 C   0  0  0  0  0  0  0  0  0  0  0  0
   10.2829   -8.1174    0.0000 O   0  0  0  0  0  0  0  0  0  0  0  0
   10.2829   -4.8174    0.0000 O   0  0  0  0  0  0  0  0  0  0  0  0
   11.7118   -5.6424    0.0000 O   0  0  0  0  0  0  0  0  0  0  0  0
   12.4263   -6.0549    0.0000 C   0  0  0  0  0  0  0  0  0  0  0  0
   11.7118   -7.2924    0.0000 N   0  0  0  0  0  0  0  0  0  0  0  0
    6.7105   -6.0549    0.0000 N   0  0  0  0  0  0  0  0  0  0  0  0
  1  2  1  0  0  0  0
  2  3  2  0  0  0  0
  3  4  1  0  0  0  0
  4  5  2  0  0  0  0
  5  6  1  0  0  0  0
  1  6  2  0  0  0  0
  7  8  2  0  0  0  0
  7  9  1  0  0  0  0
  1  7  1  0  0  0  0
  2 10  1  0  0  0  0
 11 12  1  0  0  0  0
 12 13  2  0  0  0  0
 13 14  1  0  0  0  0
 14 15  2  0  0  0  0
 15 16  1  0  0  0  0
 11 16  2  0  0  0  0
 17 18  1  0  0  0  0
 14 17  1  0  0  0  0
 19 20  1  0  0  0  0
 13 19  1  0  0  0  0
 12 21  1  0  0  0  0
  3 11  1  0  0  0  0
 22 23  2  0  0  0  0
 23 24  1  0  0  0  0
 24 25  2  0  0  0  0
 25 26  1  0  0  0  0
 26 27  1  0  0  0  0
 27 28  1  0  0  0  0
 28 29  2  0  0  0  0
 29 30  1  0  0  0  0
 30 31  1  0  0  0  0
 22 31  1  0  0  0  0
 26 31  2  0  0  0  0
 30 32  2  0  0  0  0
 27 33  2  0  0  0  0
 34 35  1  0  0  0  0
 28 34  1  0  0  0  0
 29 36  1  0  0  0  0
  5 23  1  0  0  0  0
  4 37  1  0  0  0  0
M  END
>  <cdx:groupId>
116

>  <cdx:fragmentId>
25

$$$$
