302568.cdx
  Mrv1902 05222410282D          

 24 25  0  0  0  0            999 V2000
    6.3911   -6.7480    0.0000 C   0  0  0  0  0  0  0  0  0  0  0  0
    7.1026   -7.1657    0.0000 C   0  0  0  0  0  0  0  0  0  0  0  0
    7.0965   -7.9907    0.0000 C   0  0  2  0  0  0  0  0  0  0  0  0
    6.3790   -8.3979    0.0000 C   0  0  0  0  0  0  0  0  0  0  0  0
    5.6676   -7.9802    0.0000 C   0  0  1  0  0  0  0  0  0  0  0  0
    5.6736   -7.1552    0.0000 C   0  0  0  0  0  0  0  0  0  0  0  0
    4.9501   -8.3874    0.0000 O   0  0  0  0  0  0  0  0  0  0  0  0
    7.8079   -8.4085    0.0000 O   0  0  0  0  0  0  0  0  0  0  0  0
    5.9786   -6.0335    0.0000 O   0  0  0  0  0  0  0  0  0  0  0  0
    6.3729   -9.2229    0.0000 O   0  0  0  0  0  0  0  0  0  0  0  0
    5.6554   -9.6301    0.0000 C   0  0  0  0  0  0  0  0  0  0  0  0
    4.9440   -9.2123    0.0000 O   0  0  0  0  0  0  0  0  0  0  0  0
    5.6493  -10.4551    0.0000 C   0  0  0  0  0  0  0  0  0  0  0  0
    4.9318  -10.8623    0.0000 C   0  0  0  0  0  0  0  0  0  0  0  0
    4.9257  -11.6873    0.0000 C   0  0  0  0  0  0  0  0  0  0  0  0
    4.2128  -12.1025    0.0000 C   0  0  0  0  0  0  0  0  0  0  0  0
    4.2128  -12.9275    0.0000 C   0  0  0  0  0  0  0  0  0  0  0  0
    4.9257  -13.3373    0.0000 C   0  0  0  0  0  0  0  0  0  0  0  0
    5.6386  -12.9275    0.0000 C   0  0  0  0  0  0  0  0  0  0  0  0
    5.6386  -12.1025    0.0000 C   0  0  0  0  0  0  0  0  0  0  0  0
    4.9257  -14.1623    0.0000 O   0  0  0  0  0  0  0  0  0  0  0  0
    6.8036   -6.0335    0.0000 C   0  0  0  0  0  0  0  0  0  0  0  0
    6.3911   -5.3190    0.0000 O   0  0  0  0  0  0  0  0  0  0  0  0
    7.6286   -6.0335    0.0000 O   0  0  0  0  0  0  0  0  0  0  0  0
  1  2  1  0  0  0  0
  2  3  1  0  0  0  0
  3  4  1  0  0  0  0
  4  5  1  0  0  0  0
  5  6  1  0  0  0  0
  1  6  1  0  0  0  0
  4 10  1  0  0  0  0
  5  7  1  6  0  0  0
  3  8  1  1  0  0  0
  1  9  1  0  0  0  0
 10 11  1  0  0  0  0
 11 12  2  0  0  0  0
 11 13  1  0  0  0  0
 13 14  2  0  0  0  0
 14 15  1  0  0  0  0
 15 16  2  0  0  0  0
 16 17  1  0  0  0  0
 17 18  2  0  0  0  0
 18 19  1  0  0  0  0
 19 20  2  0  0  0  0
 20 15  1  0  0  0  0
 18 21  1  0  0  0  0
  1 22  1  0  0  0  0
 22 23  2  0  0  0  0
 22 24  1  0  0  0  0
M  END
>  <cdx:fragmentId>
257318

$$$$
