302596.cdx
  Mrv1902 05222410282D          

  7  7  0  0  0  0            999 V2000
    7.6438   -6.9270    0.0000 C   0  0  0  0  0  0  0  0  0  0  0  0
    7.6438   -7.7520    0.0000 C   0  0  0  0  0  0  0  0  0  0  0  0
    6.9293   -8.1645    0.0000 C   0  0  0  0  0  0  0  0  0  0  0  0
    6.2149   -7.7520    0.0000 C   0  0  0  0  0  0  0  0  0  0  0  0
    6.2149   -6.9270    0.0000 C   0  0  0  0  0  0  0  0  0  0  0  0
    6.9293   -6.5145    0.0000 C   0  0  0  0  0  0  0  0  0  0  0  0
    8.3583   -6.5145    0.0000 S   0  0  0  0  0  0  0  0  0  0  0  0
  1  2  1  0  0  0  0
  2  3  2  0  0  0  0
  3  4  1  0  0  0  0
  4  5  2  0  0  0  0
  5  6  1  0  0  0  0
  1  6  2  0  0  0  0
  1  7  1  0  0  0  0
M  END
>  <cdx:groupId>
23

>  <cdx:fragmentId>
5

$$$$
