302522.cdx
  Mrv1902 05222410252D          

 26 31  0  0  0  0            999 V2000
    7.8017   -9.1371    0.0000 O   0  5  0  0  0  0  0  0  0  0  0  0
    7.0656   -7.0823    0.0000 C   0  0  0  0  0  0  0  0  0  0  0  0
    6.3555   -7.5023    0.0000 C   0  0  0  0  0  0  0  0  0  0  0  0
    5.6368   -7.0973    0.0000 C   0  0  0  0  0  0  0  0  0  0  0  0
    4.9267   -7.5173    0.0000 C   0  0  0  0  0  0  0  0  0  0  0  0
    4.9353   -8.3423    0.0000 C   0  0  0  0  0  0  0  0  0  0  0  0
    4.3281   -8.9007    0.0000 O   0  0  0  0  0  0  0  0  0  0  0  0
    4.6716   -9.6508    0.0000 C   0  0  0  0  0  0  0  0  0  0  0  0
    5.4911   -9.5559    0.0000 O   0  0  0  0  0  0  0  0  0  0  0  0
    5.6541   -8.7472    0.0000 C   0  0  0  0  0  0  0  0  0  0  0  0
    6.3642   -8.3272    0.0000 C   0  0  0  0  0  0  0  0  0  0  0  0
    7.0830   -8.7322    0.0000 C   0  0  0  0  0  0  0  0  0  0  0  0
    7.7931   -8.3122    0.0000 N   0  3  0  0  0  0  0  0  0  0  0  0
    8.5118   -8.7171    0.0000 C   0  0  0  0  0  0  0  0  0  0  0  0
    9.2219   -8.2971    0.0000 C   0  0  0  0  0  0  0  0  0  0  0  0
    9.2132   -7.4722    0.0000 C   0  0  0  0  0  0  0  0  0  0  0  0
    9.9233   -7.0522    0.0000 C   0  0  0  0  0  0  0  0  0  0  0  0
    9.9147   -6.2272    0.0000 C   0  0  0  0  0  0  0  0  0  0  0  0
   10.5219   -5.6688    0.0000 O   0  0  0  0  0  0  0  0  0  0  0  0
   10.1784   -4.9187    0.0000 C   0  0  0  0  0  0  0  0  0  0  0  0
    9.3589   -5.0136    0.0000 O   0  0  0  0  0  0  0  0  0  0  0  0
    9.1959   -5.8223    0.0000 C   0  0  0  0  0  0  0  0  0  0  0  0
    8.4858   -6.2423    0.0000 C   0  0  0  0  0  0  0  0  0  0  0  0
    8.4945   -7.0672    0.0000 C   0  0  0  0  0  0  0  0  0  0  0  0
    7.7844   -7.4872    0.0000 C   0  0  2  0  0  0  0  0  0  0  0  0
    7.7757   -6.6623    0.0000 H   0  0  0  0  0  0  0  0  0  0  0  0
 13  1  1  0  0  0  0
 22 18  2  0  0  0  0
 24 16  1  0  0  0  0
 10  6  2  0  0  0  0
 11  3  2  0  0  0  0
 25 13  1  0  0  0  0
 25  2  1  0  0  0  0
  3  2  1  0  0  0  0
  4  3  1  0  0  0  0
  5  4  2  0  0  0  0
  6  5  1  0  0  0  0
  7  6  1  0  0  0  0
  8  7  1  0  0  0  0
  9  8  1  0  0  0  0
 10  9  1  0  0  0  0
 11 10  1  0  0  0  0
 12 11  1  0  0  0  0
 13 12  1  0  0  0  0
 14 13  1  0  0  0  0
 15 14  1  0  0  0  0
 16 15  1  0  0  0  0
 17 16  2  0  0  0  0
 18 17  1  0  0  0  0
 19 18  1  0  0  0  0
 20 19  1  0  0  0  0
 21 20  1  0  0  0  0
 22 21  1  0  0  0  0
 23 22  1  0  0  0  0
 24 23  2  0  0  0  0
 25 24  1  0  0  0  0
 25 26  1  6  0  0  0
M  CHG  2   1  -1  13   1
M  END
>  <cdx:fragmentId>
5

$$$$
