302516.cdx
  Mrv1902 05222410232D          

 38 43  0  0  0  0            999 V2000
    6.4472   -8.2236    0.0000 C   0  0  1  0  0  0  0  0  0  0  0  0
    7.1612   -8.6368    0.0000 C   0  0  1  0  0  0  0  0  0  0  0  0
    6.4464   -9.0486    0.0000 O   0  0  0  0  0  0  0  0  0  0  0  0
    7.1605   -9.4618    0.0000 C   0  0  2  0  0  0  0  0  0  0  0  0
    7.8745   -9.8750    0.0000 C   0  0  0  0  0  0  0  0  0  0  0  0
    8.5894   -9.4632    0.0000 O   0  0  0  0  0  0  0  0  0  0  0  0
    8.5902   -8.6382    0.0000 C   0  0  2  0  0  0  0  0  0  0  0  0
    7.8761   -8.2250    0.0000 C   0  0  2  0  0  0  0  0  0  0  0  0
    7.8769   -7.4000    0.0000 C   0  0  0  0  0  0  0  0  0  0  0  0
    7.1628   -6.9868    0.0000 C   0  0  0  0  0  0  0  0  0  0  0  0
    6.4479   -7.3986    0.0000 C   0  0  2  0  0  0  0  0  0  0  0  0
    5.7339   -6.9855    0.0000 C   0  0  1  0  0  0  0  0  0  0  0  0
    5.5631   -6.1783    0.0000 C   0  0  1  0  0  0  0  0  0  0  0  0
    4.7427   -6.0913    0.0000 O   0  0  0  0  0  0  0  0  0  0  0  0
    4.4064   -6.8447    0.0000 C   0  0  0  0  0  0  0  0  0  0  0  0
    5.0190   -7.3973    0.0000 C   0  0  2  0  0  0  0  0  0  0  0  0
    5.0182   -8.2223    0.0000 C   0  0  0  0  0  0  0  0  0  0  0  0
    5.7323   -8.6355    0.0000 C   0  0  0  0  0  0  0  0  0  0  0  0
    7.8738  -10.7000    0.0000 O   0  0  0  0  0  0  0  0  0  0  0  0
    5.7315   -9.4605    0.0000 O   0  0  0  0  0  0  0  0  0  0  0  0
    3.7928   -7.3961    0.0000 C   0  0  0  0  0  0  0  0  0  0  0  0
    3.6220   -6.5890    0.0000 C   0  0  0  0  0  0  0  0  0  0  0  0
    6.3479   -5.9241    0.0000 C   0  0  0  0  0  0  0  0  0  0  0  0
    6.4487   -6.5736    0.0000 C   0  0  0  0  0  0  0  0  0  0  0  0
    8.5910   -7.8132    0.0000 C   0  0  0  0  0  0  0  0  0  0  0  0
    7.1620   -7.8118    0.0000 C   0  0  0  0  0  0  0  0  0  0  0  0
    5.7354   -5.3715    0.0000 O   0  0  0  0  0  0  0  0  0  0  0  0
    5.1228   -4.8189    0.0000 C   0  0  0  0  0  0  0  0  0  0  0  0
   10.1992   -7.2352    0.0000 O   0  0  0  0  0  0  0  0  0  0  0  0
   10.6110   -7.9500    0.0000 C   0  0  0  0  0  0  0  0  0  0  0  0
   10.0584   -8.5626    0.0000 C   0  0  0  0  0  0  0  0  0  0  0  0
    9.3050   -8.2263    0.0000 C   0  0  0  0  0  0  0  0  0  0  0  0
    9.3920   -7.4059    0.0000 C   0  0  0  0  0  0  0  0  0  0  0  0
    8.7795   -6.8533    0.0000 O   0  0  0  0  0  0  0  0  0  0  0  0
   11.4314   -8.0370    0.0000 O   0  0  0  0  0  0  0  0  0  0  0  0
    6.7473  -10.1759    0.0000 H   0  0  0  0  0  0  0  0  0  0  0  0
    5.7331   -7.8105    0.0000 H   0  0  0  0  0  0  0  0  0  0  0  0
    4.2650   -7.7321    0.0000 H   0  0  0  0  0  0  0  0  0  0  0  0
  1  2  1  0  0  0  0
  2  3  1  1  0  0  0
  3  4  1  0  0  0  0
  4  5  1  0  0  0  0
  5  6  1  0  0  0  0
  6  7  1  0  0  0  0
  7  8  1  0  0  0  0
  8  9  1  0  0  0  0
  9 10  1  0  0  0  0
 10 11  1  0  0  0  0
 11 12  1  0  0  0  0
 12 13  1  0  0  0  0
 13 14  1  0  0  0  0
 14 15  1  0  0  0  0
 15 16  1  0  0  0  0
 16 17  1  0  0  0  0
 17 18  1  0  0  0  0
  1 18  1  0  0  0  0
  1 11  1  0  0  0  0
 12 16  1  0  0  0  0
  2  8  1  0  0  0  0
  2  4  1  0  0  0  0
  5 19  2  0  0  0  0
 18 20  2  0  0  0  0
 15 21  1  0  0  0  0
 15 22  1  0  0  0  0
 13 23  1  1  0  0  0
 12 24  1  1  0  0  0
  8 25  1  6  0  0  0
  1 26  1  1  0  0  0
 27 28  1  0  0  0  0
 13 27  1  6  0  0  0
 29 30  1  0  0  0  0
 30 31  1  0  0  0  0
 31 32  2  0  0  0  0
 32 33  1  0  0  0  0
 29 33  1  0  0  0  0
 33 34  2  0  0  0  0
 30 35  1  0  0  0  0
  7 32  1  6  0  0  0
  4 36  1  6  0  0  0
 11 37  1  6  0  0  0
 16 38  1  6  0  0  0
M  END
>  <cdx:fragmentId>
5

$$$$
