302574.cdx
  Mrv1902 05222410202D          

 44 43  0  0  0  0            999 V2000
    0.1489   -7.8210    0.0000 C   0  0  0  0  0  0  0  0  0  0  0  0
    0.8633   -7.4085    0.0000 C   0  0  0  0  0  0  0  0  0  0  0  0
    1.5778   -7.8210    0.0000 C   0  0  0  0  0  0  0  0  0  0  0  0
    2.2923   -7.4085    0.0000 C   0  0  0  0  0  0  0  0  0  0  0  0
    3.0068   -7.8210    0.0000 C   0  0  0  0  0  0  0  0  0  0  0  0
    3.7212   -7.4085    0.0000 C   0  0  0  0  0  0  0  0  0  0  0  0
    4.4357   -7.8210    0.0000 C   0  0  0  0  0  0  0  0  0  0  0  0
    5.1502   -7.4085    0.0000 C   0  0  0  0  0  0  0  0  0  0  0  0
    5.8646   -7.8210    0.0000 C   0  0  0  0  0  0  0  0  0  0  0  0
    6.5791   -7.4085    0.0000 C   0  0  0  0  0  0  0  0  0  0  0  0
    7.2936   -7.8210    0.0000 C   0  0  0  0  0  0  0  0  0  0  0  0
    8.0081   -7.4085    0.0000 C   0  0  0  0  0  0  0  0  0  0  0  0
    8.7225   -7.8210    0.0000 C   0  0  0  0  0  0  0  0  0  0  0  0
    9.4370   -7.4085    0.0000 C   0  0  0  0  0  0  0  0  0  0  0  0
   10.1515   -7.8210    0.0000 C   0  0  0  0  0  0  0  0  0  0  0  0
   10.8659   -7.4085    0.0000 C   0  0  0  0  0  0  0  0  0  0  0  0
   11.5804   -7.8210    0.0000 C   0  0  0  0  0  0  0  0  0  0  0  0
   12.2949   -7.4085    0.0000 C   0  0  0  0  0  0  0  0  0  0  0  0
   13.0094   -7.8210    0.0000 C   0  0  0  0  0  0  0  0  0  0  0  0
   13.7238   -7.4085    0.0000 C   0  0  0  0  0  0  0  0  0  0  0  0
   14.4383   -7.8210    0.0000 C   0  0  0  0  0  0  0  0  0  0  0  0
   15.1528   -7.4085    0.0000 C   0  0  0  0  0  0  0  0  0  0  0  0
   15.8672   -7.8210    0.0000 C   0  0  0  0  0  0  0  0  0  0  0  0
   16.5817   -7.4085    0.0000 C   0  0  0  0  0  0  0  0  0  0  0  0
   17.2962   -7.8210    0.0000 C   0  0  0  0  0  0  0  0  0  0  0  0
   18.0106   -7.4085    0.0000 C   0  0  0  0  0  0  0  0  0  0  0  0
   18.7251   -7.8210    0.0000 C   0  0  0  0  0  0  0  0  0  0  0  0
   19.4396   -7.4085    0.0000 C   0  0  0  0  0  0  0  0  0  0  0  0
   20.1541   -7.8210    0.0000 C   0  0  0  0  0  0  0  0  0  0  0  0
   20.8685   -7.4085    0.0000 C   0  0  0  0  0  0  0  0  0  0  0  0
   21.5830   -7.8210    0.0000 C   0  0  0  0  0  0  0  0  0  0  0  0
   22.2975   -7.4085    0.0000 C   0  0  0  0  0  0  0  0  0  0  0  0
   23.0119   -7.8210    0.0000 C   0  0  0  0  0  0  0  0  0  0  0  0
   23.7264   -7.4085    0.0000 C   0  0  0  0  0  0  0  0  0  0  0  0
   24.4409   -7.8210    0.0000 C   0  0  0  0  0  0  0  0  0  0  0  0
   25.1554   -7.4085    0.0000 C   0  0  0  0  0  0  0  0  0  0  0  0
   25.8698   -7.8210    0.0000 C   0  0  0  0  0  0  0  0  0  0  0  0
   26.5843   -7.4085    0.0000 C   0  0  0  0  0  0  0  0  0  0  0  0
   27.2988   -7.8210    0.0000 C   0  0  0  0  0  0  0  0  0  0  0  0
   28.0132   -7.4085    0.0000 C   0  0  0  0  0  0  0  0  0  0  0  0
   28.7277   -7.8210    0.0000 C   0  0  0  0  0  0  0  0  0  0  0  0
   29.4422   -7.4085    0.0000 C   0  0  0  0  0  0  0  0  0  0  0  0
   30.1567   -7.8210    0.0000 C   0  0  0  0  0  0  0  0  0  0  0  0
   30.8711   -7.4085    0.0000 C   0  0  0  0  0  0  0  0  0  0  0  0
  1  2  1  0  0  0  0
  2  3  1  0  0  0  0
  3  4  1  0  0  0  0
  4  5  1  0  0  0  0
  5  6  1  0  0  0  0
  6  7  1  0  0  0  0
  7  8  1  0  0  0  0
  8  9  1  0  0  0  0
  9 10  1  0  0  0  0
 10 11  1  0  0  0  0
 11 12  1  0  0  0  0
 12 13  1  0  0  0  0
 13 14  1  0  0  0  0
 14 15  1  0  0  0  0
 15 16  1  0  0  0  0
 16 17  1  0  0  0  0
 17 18  1  0  0  0  0
 18 19  1  0  0  0  0
 19 20  1  0  0  0  0
 20 21  1  0  0  0  0
 21 22  1  0  0  0  0
 22 23  1  0  0  0  0
 23 24  1  0  0  0  0
 24 25  1  0  0  0  0
 25 26  1  0  0  0  0
 26 27  1  0  0  0  0
 27 28  1  0  0  0  0
 28 29  1  0  0  0  0
 29 30  1  0  0  0  0
 30 31  1  0  0  0  0
 31 32  1  0  0  0  0
 32 33  1  0  0  0  0
 33 34  1  0  0  0  0
 34 35  1  0  0  0  0
 35 36  1  0  0  0  0
 36 37  1  0  0  0  0
 37 38  1  0  0  0  0
 38 39  1  0  0  0  0
 39 40  1  0  0  0  0
 40 41  1  0  0  0  0
 41 42  1  0  0  0  0
 42 43  1  0  0  0  0
 43 44  1  0  0  0  0
M  END
>  <cdx:groupId>
133

>  <cdx:fragmentId>
5

$$$$
