302558.cdx
  Mrv1902 05222410182D          

 17 16  0  0  0  0            999 V2000
   11.3546   -6.3116    0.0000 C   0  0  0  0  0  0  0  0  0  0  0  0
   11.3546   -7.1366    0.0000 C   0  0  0  0  0  0  0  0  0  0  0  0
   10.6401   -7.5491    0.0000 C   0  0  0  0  0  0  0  0  0  0  0  0
    9.9256   -7.1366    0.0000 C   0  0  0  0  0  0  0  0  0  0  0  0
    9.2112   -7.5491    0.0000 C   0  0  0  0  0  0  0  0  0  0  0  0
    8.4967   -7.1366    0.0000 C   0  0  0  0  0  0  0  0  0  0  0  0
    7.7822   -7.5491    0.0000 C   0  0  0  0  0  0  0  0  0  0  0  0
    7.0678   -7.1366    0.0000 C   0  0  0  0  0  0  0  0  0  0  0  0
    6.3533   -7.5491    0.0000 C   0  0  0  0  0  0  0  0  0  0  0  0
    5.6388   -7.1366    0.0000 C   0  0  0  0  0  0  0  0  0  0  0  0
    4.9244   -7.5491    0.0000 C   0  0  0  0  0  0  0  0  0  0  0  0
    4.2099   -7.1366    0.0000 C   0  0  0  0  0  0  0  0  0  0  0  0
    3.4954   -7.5491    0.0000 C   0  0  0  0  0  0  0  0  0  0  0  0
    2.7809   -7.1366    0.0000 C   0  0  0  0  0  0  0  0  0  0  0  0
    5.6388   -6.3116    0.0000 C   0  0  0  0  0  0  0  0  0  0  0  0
    8.4967   -6.3116    0.0000 C   0  0  0  0  0  0  0  0  0  0  0  0
   12.0691   -7.5491    0.0000 C   0  0  0  0  0  0  0  0  0  0  0  0
  1  2  1  0  0  0  0
  2  3  1  0  0  0  0
  3  4  1  0  0  0  0
  4  5  1  0  0  0  0
  5  6  1  0  0  0  0
  6  7  1  0  0  0  0
  7  8  1  0  0  0  0
  8  9  1  0  0  0  0
  9 10  1  0  0  0  0
 10 11  1  0  0  0  0
 11 12  1  0  0  0  0
 12 13  1  0  0  0  0
 13 14  1  0  0  0  0
 10 15  1  0  0  0  0
  6 16  1  0  0  0  0
  2 17  1  0  0  0  0
M  END
>  <cdx:groupId>
101

>  <cdx:fragmentId>
54

$$$$
