302535.cdx
  Mrv1902 05222410242D          

 28 28  0  0  0  0            999 V2000
    6.7105   -7.7049    0.0000 C   0  0  0  0  0  0  0  0  0  0  0  0
    6.7105   -6.8799    0.0000 C   0  0  0  0  0  0  0  0  0  0  0  0
    7.4250   -6.4674    0.0000 C   0  0  0  0  0  0  0  0  0  0  0  0
    8.1395   -6.8799    0.0000 C   0  0  0  0  0  0  0  0  0  0  0  0
    8.1395   -7.7049    0.0000 C   0  0  0  0  0  0  0  0  0  0  0  0
    7.4250   -8.1174    0.0000 C   0  0  0  0  0  0  0  0  0  0  0  0
    5.9961   -8.1174    0.0000 C   0  0  0  0  0  0  0  0  0  0  0  0
    5.9961   -8.9424    0.0000 O   0  0  0  0  0  0  0  0  0  0  0  0
    5.2816   -7.7049    0.0000 O   0  0  0  0  0  0  0  0  0  0  0  0
    8.8539   -6.4674    0.0000 C   0  0  0  0  0  0  0  0  0  0  0  0
    8.8539   -5.6424    0.0000 O   0  0  0  0  0  0  0  0  0  0  0  0
    9.5684   -6.8799    0.0000 O   0  0  0  0  0  0  0  0  0  0  0  0
    4.5671   -8.1174    0.0000 C   0  0  0  0  0  0  0  0  0  0  0  0
    3.8526   -7.7049    0.0000 C   0  0  0  0  0  0  0  0  0  0  0  0
    3.1382   -8.1174    0.0000 C   0  0  0  0  0  0  0  0  0  0  0  0
    2.4237   -7.7049    0.0000 C   0  0  0  0  0  0  0  0  0  0  0  0
    1.7092   -8.1174    0.0000 C   0  0  0  0  0  0  0  0  0  0  0  0
    0.9948   -7.7049    0.0000 C   0  0  0  0  0  0  0  0  0  0  0  0
    3.8526   -6.8799    0.0000 C   0  0  0  0  0  0  0  0  0  0  0  0
    3.1382   -6.4674    0.0000 C   0  0  0  0  0  0  0  0  0  0  0  0
   10.2829   -6.4674    0.0000 C   0  0  0  0  0  0  0  0  0  0  0  0
   10.9974   -6.8799    0.0000 C   0  0  0  0  0  0  0  0  0  0  0  0
   11.7118   -6.4674    0.0000 C   0  0  0  0  0  0  0  0  0  0  0  0
   12.4263   -6.8799    0.0000 C   0  0  0  0  0  0  0  0  0  0  0  0
   13.1408   -6.4674    0.0000 C   0  0  0  0  0  0  0  0  0  0  0  0
   13.8552   -6.8799    0.0000 C   0  0  0  0  0  0  0  0  0  0  0  0
   10.9974   -7.7049    0.0000 C   0  0  0  0  0  0  0  0  0  0  0  0
   11.7118   -8.1174    0.0000 C   0  0  0  0  0  0  0  0  0  0  0  0
  1  2  1  0  0  0  0
  2  3  2  0  0  0  0
  3  4  1  0  0  0  0
  4  5  2  0  0  0  0
  5  6  1  0  0  0  0
  1  6  2  0  0  0  0
  7  8  2  0  0  0  0
  7  9  1  0  0  0  0
  1  7  1  0  0  0  0
 10 11  2  0  0  0  0
 10 12  1  0  0  0  0
  4 10  1  0  0  0  0
 13 14  1  0  0  0  0
 14 15  1  0  0  0  0
 15 16  1  0  0  0  0
 16 17  1  0  0  0  0
 17 18  1  0  0  0  0
 19 20  1  0  0  0  0
 14 19  1  0  0  0  0
  9 13  1  0  0  0  0
 21 22  1  0  0  0  0
 22 23  1  0  0  0  0
 23 24  1  0  0  0  0
 24 25  1  0  0  0  0
 25 26  1  0  0  0  0
 27 28  1  0  0  0  0
 22 27  1  0  0  0  0
 12 21  1  0  0  0  0
M  END
>  <cdx:groupId>
86

>  <cdx:fragmentId>
5

$$$$
