302575.cdx
  Mrv1902 05222410202D          

 14 14  0  0  0  0            999 V2000
    6.5106   -5.7567    0.0000 C   0  0  0  0  0  0  0  0  0  0  0  0
    5.8047   -6.1837    0.0000 C   0  0  0  0  0  0  0  0  0  0  0  0
    5.8216   -7.0086    0.0000 C   0  0  0  0  0  0  0  0  0  0  0  0
    8.7295   -9.4246    0.0000 C   0  0  0  0  0  0  0  0  0  0  0  0
    8.7126   -8.5998    0.0000 C   0  0  0  0  0  0  0  0  0  0  0  0
    9.4185   -8.1728    0.0000 C   0  0  0  0  0  0  0  0  0  0  0  0
    7.9730   -7.3772    0.0000 C   0  0  0  0  0  0  0  0  0  0  0  0
    7.9899   -8.2020    0.0000 C   0  0  2  0  0  0  0  0  0  0  0  0
    7.2840   -8.6290    0.0000 C   0  0  0  0  0  0  0  0  0  0  0  0
    6.5612   -8.2312    0.0000 C   0  0  0  0  0  0  0  0  0  0  0  0
    6.5444   -7.4064    0.0000 C   0  0  0  0  0  0  0  0  0  0  0  0
    7.2503   -6.9794    0.0000 C   0  0  2  0  0  0  0  0  0  0  0  0
    7.2334   -6.1545    0.0000 O   0  0  0  0  0  0  0  0  0  0  0  0
    6.4938   -4.9319    0.0000 O   0  0  0  0  0  0  0  0  0  0  0  0
 12 13  1  6  0  0  0
 11  3  1  0  0  0  0
  8  5  1  1  0  0  0
  5  4  1  0  0  0  0
  6  5  2  0  0  0  0
 12  7  1  0  0  0  0
  8  7  1  0  0  0  0
  9  8  1  0  0  0  0
 10  9  1  0  0  0  0
 11 10  2  0  0  0  0
 12 11  1  0  0  0  0
  1 13  1  0  0  0  0
  1  2  1  0  0  0  0
  1 14  2  0  0  0  0
M  END
>  <cdx:groupId>
44

>  <cdx:fragmentId>
13

$$$$
