302576.cdx
  Mrv1902 05222410202D          

 13 13  0  0  0  0            999 V2000
    8.1512   -5.2279    0.0000 C   0  0  0  0  0  0  0  0  0  0  0  0
    8.8600   -4.8057    0.0000 C   0  0  0  0  0  0  0  0  0  0  0  0
    7.4312   -4.8251    0.0000 O   0  0  0  0  0  0  0  0  0  0  0  0
    8.1625   -6.0528    0.0000 O   0  0  0  0  0  0  0  0  0  0  0  0
    7.4537   -6.4750    0.0000 C   0  0  0  0  0  0  0  0  0  0  0  0
    7.4649   -7.2999    0.0000 C   0  0  0  0  0  0  0  0  0  0  0  0
    6.7561   -7.7221    0.0000 C   0  0  0  0  0  0  0  0  0  0  0  0
    6.7674   -8.5470    0.0000 C   0  0  0  0  0  0  0  0  0  0  0  0
    6.0586   -8.9692    0.0000 C   0  0  0  0  0  0  0  0  0  0  0  0
    6.0698   -9.7941    0.0000 C   0  0  0  0  0  0  0  0  0  0  0  0
    6.7899  -10.1969    0.0000 C   0  0  0  0  0  0  0  0  0  0  0  0
    7.4986   -9.7747    0.0000 C   0  0  0  0  0  0  0  0  0  0  0  0
    7.4874   -8.9498    0.0000 C   0  0  0  0  0  0  0  0  0  0  0  0
  1  2  1  0  0  0  0
  1  3  2  0  0  0  0
  1  4  1  0  0  0  0
  5  6  1  0  0  0  0
  6  7  2  0  0  0  0
  8  9  1  0  0  0  0
  9 10  2  0  0  0  0
 10 11  1  0  0  0  0
 11 12  2  0  0  0  0
 12 13  1  0  0  0  0
  8 13  2  0  0  0  0
  7  8  1  0  0  0  0
  4  5  1  0  0  0  0
M  END
>  <cdx:fragmentId>
19

$$$$
