302533.cdx
  Mrv1902 05222410232D          

 97107  0  0  0  0            999 V2000
   14.1385  -10.8461    0.0000 C   0  0  1  0  0  0  0  0  0  0  0  0
   14.8530  -10.4336    0.0000 C   0  0  2  0  0  0  0  0  0  0  0  0
   15.6376  -10.6885    0.0000 C   0  0  0  0  0  0  0  0  0  0  0  0
   16.1225  -10.0211    0.0000 C   0  0  2  0  0  0  0  0  0  0  0  0
   16.9071   -9.7661    0.0000 O   0  0  0  0  0  0  0  0  0  0  0  0
   16.9071   -8.9411    0.0000 C   0  0  0  0  0  0  0  0  0  0  0  0
   16.1225   -8.6862    0.0000 C   0  0  0  0  0  0  0  0  0  0  0  0
   15.6376   -9.3536    0.0000 C   0  0  2  0  0  0  0  0  0  0  0  0
   14.8530   -9.6086    0.0000 C   0  0  1  0  0  0  0  0  0  0  0  0
   14.1385   -9.1961    0.0000 C   0  0  0  0  0  0  0  0  0  0  0  0
   13.4240   -9.6086    0.0000 C   0  0  0  0  0  0  0  0  0  0  0  0
   13.4240  -10.4336    0.0000 C   0  0  2  0  0  0  0  0  0  0  0  0
   12.7095  -10.8461    0.0000 C   0  0  1  0  0  0  0  0  0  0  0  0
   11.9951  -10.4336    0.0000 C   0  0  0  0  0  0  0  0  0  0  0  0
   11.2806  -10.8461    0.0000 C   0  0  0  0  0  0  0  0  0  0  0  0
   11.2806  -11.6711    0.0000 C   0  0  1  0  0  0  0  0  0  0  0  0
   11.9951  -12.0836    0.0000 C   0  0  0  0  0  0  0  0  0  0  0  0
   12.7095  -11.6711    0.0000 C   0  0  2  0  0  0  0  0  0  0  0  0
   13.4240  -12.0836    0.0000 C   0  0  0  0  0  0  0  0  0  0  0  0
   14.1385  -11.6711    0.0000 C   0  0  0  0  0  0  0  0  0  0  0  0
   17.7185   -8.7917    0.0000 C   0  0  0  0  0  0  0  0  0  0  0  0
   18.2536   -9.4196    0.0000 C   0  0  0  0  0  0  0  0  0  0  0  0
   19.0649   -9.2702    0.0000 C   0  0  2  0  0  0  0  0  0  0  0  0
   19.6000   -9.8981    0.0000 C   0  0  0  0  0  0  0  0  0  0  0  0
   20.4114   -9.7487    0.0000 O   0  0  0  0  0  0  0  0  0  0  0  0
   20.6702  -11.1540    0.0000 O   0  0  0  0  0  0  0  0  0  0  0  0
   20.9464  -10.3767    0.0000 C   0  0  2  0  0  0  0  0  0  0  0  0
   21.7578  -10.2272    0.0000 C   0  0  1  0  0  0  0  0  0  0  0  0
   22.2929  -10.8552    0.0000 C   0  0  2  0  0  0  0  0  0  0  0  0
   22.0166  -11.6325    0.0000 C   0  0  1  0  0  0  0  0  0  0  0  0
   21.2053  -11.7820    0.0000 C   0  0  1  0  0  0  0  0  0  0  0  0
   20.9290  -12.5593    0.0000 C   0  0  0  0  0  0  0  0  0  0  0  0
   21.4641  -13.1873    0.0000 O   0  0  0  0  0  0  0  0  0  0  0  0
   22.5517  -12.2605    0.0000 O   0  0  0  0  0  0  0  0  0  0  0  0
   23.1042  -10.7057    0.0000 O   0  0  0  0  0  0  0  0  0  0  0  0
   22.0341   -9.4499    0.0000 O   0  0  0  0  0  0  0  0  0  0  0  0
   19.3412   -8.4928    0.0000 C   0  0  0  0  0  0  0  0  0  0  0  0
   12.7095  -10.0211    0.0000 C   0  0  0  0  0  0  0  0  0  0  0  0
   14.8530   -8.7836    0.0000 C   0  0  0  0  0  0  0  0  0  0  0  0
   15.8676   -7.9016    0.0000 C   0  0  0  0  0  0  0  0  0  0  0  0
   14.1385  -10.0211    0.0000 H   0  0  0  0  0  0  0  0  0  0  0  0
   14.8530  -11.2586    0.0000 H   0  0  0  0  0  0  0  0  0  0  0  0
   16.6074  -10.6885    0.0000 H   0  0  0  0  0  0  0  0  0  0  0  0
   15.2759   -8.6121    0.0000 H   0  0  0  0  0  0  0  0  0  0  0  0
   13.4240  -11.2586    0.0000 H   0  0  0  0  0  0  0  0  0  0  0  0
    7.7083  -12.0661    0.0000 O   0  0  0  0  0  0  0  0  0  0  0  0
    8.4404   -9.1830    0.0000 O   0  0  0  0  0  0  0  0  0  0  0  0
    9.1523   -9.5999    0.0000 C   0  0  0  0  0  0  0  0  0  0  0  0
   10.5661  -12.0836    0.0000 O   0  0  0  0  0  0  0  0  0  0  0  0
   10.0119  -14.3497    0.0000 O   0  0  0  0  0  0  0  0  0  0  0  0
    9.2445  -15.8104    0.0000 O   0  0  0  0  0  0  0  0  0  0  0  0
    7.5958  -15.8762    0.0000 O   0  0  0  0  0  0  0  0  0  0  0  0
    6.7146  -14.4812    0.0000 C   0  0  0  0  0  0  0  0  0  0  0  0
    7.5389  -14.4483    0.0000 C   0  0  1  0  0  0  0  0  0  0  0  0
    7.9795  -15.1458    0.0000 C   0  0  1  0  0  0  0  0  0  0  0  0
    8.8039  -15.1130    0.0000 C   0  0  2  0  0  0  0  0  0  0  0  0
    9.1876  -14.3826    0.0000 C   0  0  2  0  0  0  0  0  0  0  0  0
    8.7470  -13.6851    0.0000 C   0  0  1  0  0  0  0  0  0  0  0  0
    7.9226  -13.7180    0.0000 O   0  0  0  0  0  0  0  0  0  0  0  0
    9.1307  -12.9548    0.0000 O   0  0  0  0  0  0  0  0  0  0  0  0
    9.8542  -11.6667    0.0000 C   0  0  1  0  0  0  0  0  0  0  0  0
    9.1372  -12.0748    0.0000 C   0  0  1  0  0  0  0  0  0  0  0  0
    8.4253  -11.6580    0.0000 C   0  0  2  0  0  0  0  0  0  0  0  0
    8.4303  -10.8330    0.0000 C   0  0  2  0  0  0  0  0  0  0  0  0
    9.1473  -10.4249    0.0000 C   0  0  2  0  0  0  0  0  0  0  0  0
    9.8592  -10.8417    0.0000 O   0  0  0  0  0  0  0  0  0  0  0  0
   12.7095  -12.4961    0.0000 H   0  0  0  0  0  0  0  0  0  0  0  0
    6.9964  -11.6492    0.0000 C   0  0  2  0  0  0  0  0  0  0  0  0
    7.0039  -10.8243    0.0000 O   0  0  0  0  0  0  0  0  0  0  0  0
    6.2932  -10.4053    0.0000 C   0  0  1  0  0  0  0  0  0  0  0  0
    5.5750  -10.8243    0.0000 C   0  0  2  0  0  0  0  0  0  0  0  0
    5.5750  -11.6492    0.0000 C   0  0  1  0  0  0  0  0  0  0  0  0
    6.2932  -12.0683    0.0000 C   0  0  1  0  0  0  0  0  0  0  0  0
    6.2951   -9.5803    0.0000 C   0  0  0  0  0  0  0  0  0  0  0  0
    4.8596  -12.0601    0.0000 O   0  0  0  0  0  0  0  0  0  0  0  0
    6.2971  -12.8932    0.0000 O   0  0  0  0  0  0  0  0  0  0  0  0
    4.8596  -10.4134    0.0000 O   0  0  0  0  0  0  0  0  0  0  0  0
    5.5816   -9.1661    0.0000 O   0  0  0  0  0  0  0  0  0  0  0  0
    7.7184  -10.4161    0.0000 O   0  0  0  0  0  0  0  0  0  0  0  0
    5.5845  -13.3091    0.0000 C   0  0  2  0  0  0  0  0  0  0  0  0
    4.8662  -12.9032    0.0000 O   0  0  0  0  0  0  0  0  0  0  0  0
    4.1556  -13.3091    0.0000 C   0  0  0  0  0  0  0  0  0  0  0  0
    4.1556  -14.1340    0.0000 C   0  0  2  0  0  0  0  0  0  0  0  0
    4.8662  -14.5399    0.0000 C   0  0  1  0  0  0  0  0  0  0  0  0
    5.5845  -14.1340    0.0000 C   0  0  1  0  0  0  0  0  0  0  0  0
    4.1461  -11.6460    0.0000 C   0  0  2  0  0  0  0  0  0  0  0  0
    4.1489  -10.8210    0.0000 O   0  0  0  0  0  0  0  0  0  0  0  0
    3.4358  -10.4061    0.0000 C   0  0  0  0  0  0  0  0  0  0  0  0
    2.7200  -10.8210    0.0000 C   0  0  2  0  0  0  0  0  0  0  0  0
    2.7200  -11.6460    0.0000 C   0  0  1  0  0  0  0  0  0  0  0  0
    3.4358  -12.0609    0.0000 C   0  0  1  0  0  0  0  0  0  0  0  0
    3.4372  -12.8859    0.0000 O   0  0  0  0  0  0  0  0  0  0  0  0
    2.0051  -12.0579    0.0000 O   0  0  0  0  0  0  0  0  0  0  0  0
    2.0051  -10.4091    0.0000 O   0  0  0  0  0  0  0  0  0  0  0  0
    6.2971  -14.5498    0.0000 O   0  0  0  0  0  0  0  0  0  0  0  0
    4.8643  -15.3649    0.0000 O   0  0  0  0  0  0  0  0  0  0  0  0
    3.4421  -14.5482    0.0000 O   0  0  0  0  0  0  0  0  0  0  0  0
 63 46  1  1  0  0  0
 65 48  1  1  0  0  0
 48 47  1  0  0  0  0
 61 49  1  1  0  0  0
 62 60  1  6  0  0  0
 58 60  1  1  0  0  0
 57 50  1  6  0  0  0
 56 51  1  6  0  0  0
 55 52  1  1  0  0  0
 54 53  1  6  0  0  0
 59 54  1  0  0  0  0
 55 54  1  0  0  0  0
 56 55  1  0  0  0  0
 57 56  1  0  0  0  0
 58 57  1  0  0  0  0
 59 58  1  0  0  0  0
 66 61  1  0  0  0  0
 62 61  1  0  0  0  0
 63 62  1  0  0  0  0
 64 63  1  0  0  0  0
 65 64  1  0  0  0  0
 66 65  1  0  0  0  0
  1  2  1  0  0  0  0
  2  3  1  0  0  0  0
  3  4  1  0  0  0  0
  4  5  1  0  0  0  0
  5  6  1  0  0  0  0
  6  7  2  0  0  0  0
  7  8  1  0  0  0  0
  8  9  1  0  0  0  0
  9 10  1  0  0  0  0
 10 11  1  0  0  0  0
 11 12  1  0  0  0  0
 12 13  1  0  0  0  0
 13 14  1  0  0  0  0
 14 15  1  0  0  0  0
 15 16  1  0  0  0  0
 16 17  1  0  0  0  0
 17 18  1  0  0  0  0
 18 19  1  0  0  0  0
 19 20  1  0  0  0  0
  1 20  1  0  0  0  0
  1 12  1  0  0  0  0
 13 18  1  0  0  0  0
  2  9  1  0  0  0  0
  4  8  1  0  0  0  0
 21 22  1  0  0  0  0
 22 23  1  0  0  0  0
 23 24  1  0  0  0  0
 26 27  1  0  0  0  0
 27 28  1  0  0  0  0
 28 29  1  0  0  0  0
 29 30  1  0  0  0  0
 30 31  1  0  0  0  0
 26 31  1  0  0  0  0
 32 33  1  0  0  0  0
 31 32  1  1  0  0  0
 30 34  1  6  0  0  0
 29 35  1  1  0  0  0
 28 36  1  6  0  0  0
 27 25  1  1  0  0  0
 24 25  1  0  0  0  0
 23 37  1  1  0  0  0
  6 21  1  0  0  0  0
 13 38  1  1  0  0  0
  9 39  1  1  0  0  0
  7 40  1  6  0  0  0
 16 49  1  1  0  0  0
  1 41  1  1  0  0  0
  2 42  1  6  0  0  0
  4 43  1  6  0  0  0
  8 44  1  6  0  0  0
 12 45  1  6  0  0  0
 18 67  1  6  0  0  0
 68 46  1  1  0  0  0
 68 69  1  0  0  0  0
 69 70  1  0  0  0  0
 70 71  1  0  0  0  0
 71 72  1  0  0  0  0
 72 73  1  0  0  0  0
 73 68  1  0  0  0  0
 70 74  1  1  0  0  0
 72 75  1  1  0  0  0
 73 76  1  6  0  0  0
 71 77  1  6  0  0  0
 74 78  1  0  0  0  0
 64 79  1  1  0  0  0
 80 76  1  1  0  0  0
 80 81  1  0  0  0  0
 81 82  1  0  0  0  0
 82 83  1  0  0  0  0
 83 84  1  0  0  0  0
 84 85  1  0  0  0  0
 85 80  1  0  0  0  0
 86 75  1  1  0  0  0
 86 87  1  0  0  0  0
 87 88  1  0  0  0  0
 88 89  1  0  0  0  0
 89 90  1  0  0  0  0
 90 91  1  0  0  0  0
 91 86  1  0  0  0  0
 91 92  1  6  0  0  0
 90 93  1  1  0  0  0
 89 94  1  6  0  0  0
 85 95  1  6  0  0  0
 84 96  1  1  0  0  0
 83 97  1  6  0  0  0
M  END
>  <cdx:fragmentId>
63

$$$$
