302566.cdx
  Mrv1902 05222410182D          

 25 27  0  0  0  0            999 V2000
    4.7132   -8.1506    0.0000 O   0  0  0  0  0  0  0  0  0  0  0  0
    4.7132   -6.5006    0.0000 O   0  0  0  0  0  0  0  0  0  0  0  0
    6.1421   -5.6756    0.0000 O   0  0  0  0  0  0  0  0  0  0  0  0
    8.2855   -5.2631    0.0000 O   0  0  0  0  0  0  0  0  0  0  0  0
    9.7145   -6.9131    0.0000 C   0  0  0  0  0  0  0  0  0  0  0  0
   10.4289   -6.5006    0.0000 C   0  0  0  0  0  0  0  0  0  0  0  0
   10.4289   -5.6756    0.0000 C   0  0  0  0  0  0  0  0  0  0  0  0
    9.7145   -5.2631    0.0000 C   0  0  0  0  0  0  0  0  0  0  0  0
    9.0000   -5.6756    0.0000 C   0  0  0  0  0  0  0  0  0  0  0  0
    9.0000   -6.5006    0.0000 C   0  0  0  0  0  0  0  0  0  0  0  0
    9.7145   -7.7381    0.0000 C   0  0  0  0  0  0  0  0  0  0  0  0
    9.0000   -8.1506    0.0000 O   0  0  0  0  0  0  0  0  0  0  0  0
    5.4276   -9.3881    0.0000 C   0  0  0  0  0  0  0  0  0  0  0  0
    6.1421   -8.9756    0.0000 O   0  0  0  0  0  0  0  0  0  0  0  0
    7.5710   -8.9756    0.0000 O   0  0  0  0  0  0  0  0  0  0  0  0
    7.5710   -6.5006    0.0000 O   0  0  0  0  0  0  0  0  0  0  0  0
    6.8566   -6.9131    0.0000 C   0  0  0  0  0  0  0  0  0  0  0  0
    6.1421   -6.5006    0.0000 C   0  0  0  0  0  0  0  0  0  0  0  0
    5.4276   -6.9131    0.0000 C   0  0  0  0  0  0  0  0  0  0  0  0
    5.4276   -7.7381    0.0000 C   0  0  0  0  0  0  0  0  0  0  0  0
    6.1421   -8.1506    0.0000 C   0  0  0  0  0  0  0  0  0  0  0  0
    6.8566   -7.7381    0.0000 C   0  0  0  0  0  0  0  0  0  0  0  0
    7.5710   -8.1506    0.0000 C   0  0  0  0  0  0  0  0  0  0  0  0
    8.2855   -7.7381    0.0000 C   0  0  0  0  0  0  0  0  0  0  0  0
    8.2855   -6.9131    0.0000 C   0  0  0  0  0  0  0  0  0  0  0  0
 20  1  1  0  0  0  0
 19  2  1  0  0  0  0
 18  3  1  0  0  0  0
 25 10  1  0  0  0  0
  9  4  1  0  0  0  0
 10  5  2  0  0  0  0
  6  5  1  0  0  0  0
  7  6  2  0  0  0  0
  8  7  1  0  0  0  0
  9  8  2  0  0  0  0
 10  9  1  0  0  0  0
 24 12  1  0  0  0  0
 12 11  1  0  0  0  0
 21 14  1  0  0  0  0
 14 13  1  0  0  0  0
 23 15  2  0  0  0  0
 25 16  1  0  0  0  0
 17 16  1  0  0  0  0
 22 17  2  0  0  0  0
 18 17  1  0  0  0  0
 19 18  2  0  0  0  0
 20 19  1  0  0  0  0
 21 20  2  0  0  0  0
 22 21  1  0  0  0  0
 23 22  1  0  0  0  0
 24 23  1  0  0  0  0
 25 24  2  0  0  0  0
M  END
>  <cdx:fragmentId>
5

$$$$
