302582.cdx
  Mrv1902 05222410282D          

 15 16  0  0  0  0            999 V2000
    5.6415   -7.7196    0.0000 O   0  0  0  0  0  0  0  0  0  0  0  0
    4.9192   -6.4866    0.0000 C   0  0  0  0  0  0  0  0  0  0  0  0
    5.6311   -6.0696    0.0000 O   0  0  0  0  0  0  0  0  0  0  0  0
    9.9282   -7.6925    0.0000 C   0  0  0  0  0  0  0  0  0  0  0  0
    8.5045   -8.5265    0.0000 O   0  0  0  0  0  0  0  0  0  0  0  0
    7.7822   -7.2935    0.0000 C   0  0  0  0  0  0  0  0  0  0  0  0
    7.0704   -7.7105    0.0000 C   0  0  0  0  0  0  0  0  0  0  0  0
    6.3533   -7.3026    0.0000 C   0  0  0  0  0  0  0  0  0  0  0  0
    6.3481   -6.4776    0.0000 C   0  0  0  0  0  0  0  0  0  0  0  0
    7.0600   -6.0606    0.0000 C   0  0  0  0  0  0  0  0  0  0  0  0
    7.7770   -6.4685    0.0000 C   0  0  0  0  0  0  0  0  0  0  0  0
    8.4889   -6.0515    0.0000 C   0  0  0  0  0  0  0  0  0  0  0  0
    9.2059   -6.4595    0.0000 C   0  0  0  0  0  0  0  0  0  0  0  0
    9.2112   -7.2845    0.0000 N   0  0  0  0  0  0  0  0  0  0  0  0
    8.4993   -7.7015    0.0000 C   0  0  0  0  0  0  0  0  0  0  0  0
  8  1  1  0  0  0  0
  9  3  1  0  0  0  0
  3  2  1  0  0  0  0
 14  4  1  0  0  0  0
 15  5  2  0  0  0  0
 11  6  2  0  0  0  0
 15  6  1  0  0  0  0
  7  6  1  0  0  0  0
  8  7  2  0  0  0  0
  9  8  1  0  0  0  0
 10  9  2  0  0  0  0
 11 10  1  0  0  0  0
 12 11  1  0  0  0  0
 13 12  1  0  0  0  0
 14 13  1  0  0  0  0
 15 14  1  0  0  0  0
M  END
>  <cdx:fragmentId>
5

$$$$
