302541.cdx
  Mrv1902 05222410282D          

 71 78  0  0  0  0            999 V2000
   20.2339   -8.8907    0.0000 C   0  0  0  0  0  0  0  0  0  0  0  0
   19.7490   -8.2233    0.0000 C   0  0  1  0  0  0  0  0  0  0  0  0
   18.9285   -8.3095    0.0000 C   0  0  0  0  0  0  0  0  0  0  0  0
   18.4436   -7.6421    0.0000 C   0  0  0  0  0  0  0  0  0  0  0  0
   20.0846   -7.4696    0.0000 C   0  0  0  0  0  0  0  0  0  0  0  0
   14.8545   -9.6332    0.0000 C   0  0  1  0  0  0  0  0  0  0  0  0
   15.5690   -9.2207    0.0000 C   0  0  2  0  0  0  0  0  0  0  0  0
   16.3536   -9.4757    0.0000 C   0  0  0  0  0  0  0  0  0  0  0  0
   16.8385   -8.8082    0.0000 C   0  0  2  0  0  0  0  0  0  0  0  0
   17.6231   -8.5533    0.0000 O   0  0  0  0  0  0  0  0  0  0  0  0
   17.6231   -7.7283    0.0000 C   0  0  1  0  0  0  0  0  0  0  0  0
   16.8385   -7.4734    0.0000 C   0  0  2  0  0  0  0  0  0  0  0  0
   16.3536   -8.1408    0.0000 C   0  0  2  0  0  0  0  0  0  0  0  0
   15.5690   -8.3957    0.0000 C   0  0  1  0  0  0  0  0  0  0  0  0
   14.8545   -7.9832    0.0000 C   0  0  0  0  0  0  0  0  0  0  0  0
   14.1400   -8.3957    0.0000 C   0  0  0  0  0  0  0  0  0  0  0  0
   14.1400   -9.2207    0.0000 C   0  0  2  0  0  0  0  0  0  0  0  0
   13.4255   -9.6332    0.0000 C   0  0  1  0  0  0  0  0  0  0  0  0
   12.7111   -9.2207    0.0000 C   0  0  0  0  0  0  0  0  0  0  0  0
   11.9966   -9.6332    0.0000 C   0  0  2  0  0  0  0  0  0  0  0  0
   11.9966  -10.4582    0.0000 C   0  0  1  0  0  0  0  0  0  0  0  0
   12.7111  -10.8707    0.0000 C   0  0  0  0  0  0  0  0  0  0  0  0
   13.4255  -10.4582    0.0000 C   0  0  2  0  0  0  0  0  0  0  0  0
   14.1400  -10.8707    0.0000 C   0  0  0  0  0  0  0  0  0  0  0  0
   14.8545  -10.4582    0.0000 C   0  0  0  0  0  0  0  0  0  0  0  0
   13.4255   -8.8082    0.0000 C   0  0  0  0  0  0  0  0  0  0  0  0
   15.5690   -7.5707    0.0000 C   0  0  0  0  0  0  0  0  0  0  0  0
   16.5836   -6.6887    0.0000 C   0  0  0  0  0  0  0  0  0  0  0  0
   11.2821   -9.2207    0.0000 O   0  0  0  0  0  0  0  0  0  0  0  0
   17.9587   -6.9746    0.0000 O   0  0  0  0  0  0  0  0  0  0  0  0
   11.2821  -10.8707    0.0000 O   0  0  0  0  0  0  0  0  0  0  0  0
   10.5677   -9.6332    0.0000 O   0  0  0  0  0  0  0  0  0  0  0  0
   10.5677  -10.4582    0.0000 C   0  0  2  0  0  0  0  0  0  0  0  0
    9.8532  -10.8707    0.0000 C   0  0  1  0  0  0  0  0  0  0  0  0
    9.1387  -10.4582    0.0000 C   0  0  2  0  0  0  0  0  0  0  0  0
    9.1387   -9.6332    0.0000 C   0  0  2  0  0  0  0  0  0  0  0  0
    9.8532   -9.2207    0.0000 C   0  0  1  0  0  0  0  0  0  0  0  0
    9.8532   -8.3957    0.0000 C   0  0  0  0  0  0  0  0  0  0  0  0
    9.1387   -7.9832    0.0000 O   0  0  0  0  0  0  0  0  0  0  0  0
    8.4242  -10.8707    0.0000 O   0  0  0  0  0  0  0  0  0  0  0  0
    9.8532  -11.6957    0.0000 O   0  0  0  0  0  0  0  0  0  0  0  0
   14.8545   -8.8082    0.0000 H   0  0  0  0  0  0  0  0  0  0  0  0
   15.5690  -10.0457    0.0000 H   0  0  0  0  0  0  0  0  0  0  0  0
   17.3234   -9.4757    0.0000 H   0  0  0  0  0  0  0  0  0  0  0  0
   15.9919   -7.3993    0.0000 H   0  0  0  0  0  0  0  0  0  0  0  0
   14.1400  -10.0457    0.0000 H   0  0  0  0  0  0  0  0  0  0  0  0
   13.4255  -11.2832    0.0000 H   0  0  0  0  0  0  0  0  0  0  0  0
   21.0544   -8.8045    0.0000 O   0  0  0  0  0  0  0  0  0  0  0  0
   21.5583  -12.3651    0.0000 O   0  0  0  0  0  0  0  0  0  0  0  0
   21.1277  -11.6614    0.0000 C   0  0  0  0  0  0  0  0  0  0  0  0
   22.7771  -11.6191    0.0000 O   0  0  0  0  0  0  0  0  0  0  0  0
   23.5652  -10.1695    0.0000 O   0  0  0  0  0  0  0  0  0  0  0  0
   22.7039   -8.7622    0.0000 O   0  0  0  0  0  0  0  0  0  0  0  0
   21.5217  -10.9366    0.0000 C   0  0  2  0  0  0  0  0  0  0  0  0
   22.3464  -10.9155    0.0000 C   0  0  2  0  0  0  0  0  0  0  0  0
   22.7405  -10.1907    0.0000 C   0  0  1  0  0  0  0  0  0  0  0  0
   22.3098   -9.4870    0.0000 C   0  0  2  0  0  0  0  0  0  0  0  0
   21.4851   -9.5081    0.0000 C   0  0  1  0  0  0  0  0  0  0  0  0
    7.6540  -10.6799    0.0000 O   0  0  0  0  0  0  0  0  0  0  0  0
    6.0052  -10.7425    0.0000 O   0  0  0  0  0  0  0  0  0  0  0  0
    5.1266   -9.3458    0.0000 O   0  0  0  0  0  0  0  0  0  0  0  0
    5.0725   -7.9179    0.0000 O   0  0  0  0  0  0  0  0  0  0  0  0
    5.8969   -7.8866    0.0000 C   0  0  0  0  0  0  0  0  0  0  0  0
    6.3362   -8.5850    0.0000 C   0  0  2  0  0  0  0  0  0  0  0  0
    5.9510   -9.3145    0.0000 C   0  0  2  0  0  0  0  0  0  0  0  0
    6.3903  -10.0129    0.0000 C   0  0  1  0  0  0  0  0  0  0  0  0
    7.2147   -9.9816    0.0000 C   0  0  2  0  0  0  0  0  0  0  0  0
    7.5998   -9.2520    0.0000 C   0  0  1  0  0  0  0  0  0  0  0  0
    7.1606   -8.5537    0.0000 O   0  0  0  0  0  0  0  0  0  0  0  0
    8.4242   -9.2207    0.0000 O   0  0  0  0  0  0  0  0  0  0  0  0
   21.0910  -10.2329    0.0000 O   0  0  0  0  0  0  0  0  0  0  0  0
 58 48  1  1  0  0  0
 54 50  1  1  0  0  0
 50 49  1  0  0  0  0
 55 51  1  6  0  0  0
 56 52  1  1  0  0  0
 57 53  1  6  0  0  0
 71 54  1  0  0  0  0
 55 54  1  0  0  0  0
 56 55  1  0  0  0  0
 57 56  1  0  0  0  0
 58 57  1  0  0  0  0
 71 58  1  0  0  0  0
 68 70  1  1  0  0  0
 67 59  1  6  0  0  0
 66 60  1  1  0  0  0
 65 61  1  6  0  0  0
 64 63  1  1  0  0  0
 63 62  1  0  0  0  0
 69 64  1  0  0  0  0
 65 64  1  0  0  0  0
 66 65  1  0  0  0  0
 67 66  1  0  0  0  0
 68 67  1  0  0  0  0
 69 68  1  0  0  0  0
  1  2  1  0  0  0  0
  2  3  1  0  0  0  0
  3  4  1  0  0  0  0
 48  1  1  0  0  0  0
  2  5  1  1  0  0  0
  6  7  1  0  0  0  0
  7  8  1  0  0  0  0
  8  9  1  0  0  0  0
  9 10  1  0  0  0  0
 10 11  1  0  0  0  0
 11 12  1  0  0  0  0
 12 13  1  0  0  0  0
 13 14  1  0  0  0  0
 14 15  1  0  0  0  0
 15 16  1  0  0  0  0
 16 17  1  0  0  0  0
 17 18  1  0  0  0  0
 18 19  1  0  0  0  0
 19 20  1  0  0  0  0
 20 21  1  0  0  0  0
 21 22  1  0  0  0  0
 22 23  1  0  0  0  0
 23 24  1  0  0  0  0
 24 25  1  0  0  0  0
  6 25  1  0  0  0  0
  6 17  1  0  0  0  0
 18 23  1  0  0  0  0
  7 14  1  0  0  0  0
  9 13  1  0  0  0  0
 18 26  1  1  0  0  0
 14 27  1  1  0  0  0
 12 28  1  6  0  0  0
 20 29  1  6  0  0  0
 11 30  1  6  0  0  0
 32 33  1  0  0  0  0
 33 34  1  0  0  0  0
 34 35  1  0  0  0  0
 35 36  1  0  0  0  0
 36 37  1  0  0  0  0
 32 37  1  0  0  0  0
 36 70  1  1  0  0  0
 38 39  1  0  0  0  0
 37 38  1  1  0  0  0
 35 40  1  1  0  0  0
 34 41  1  6  0  0  0
 33 31  1  1  0  0  0
 21 31  1  1  0  0  0
 11  4  1  0  0  0  0
  6 42  1  1  0  0  0
  7 43  1  6  0  0  0
  9 44  1  6  0  0  0
 13 45  1  6  0  0  0
 17 46  1  6  0  0  0
 23 47  1  6  0  0  0
M  END
>  <cdx:groupId>
222

>  <cdx:fragmentId>
39

$$$$
