302598.cdx
  Mrv1902 05222410192D          

 18 19  0  0  0  0            999 V2000
    9.0034   -8.2689    0.0000 C   0  0  0  0  0  0  0  0  0  0  0  0
    8.2890   -7.8564    0.0000 C   0  0  0  0  0  0  0  0  0  0  0  0
    8.2890   -7.0314    0.0000 C   0  0  0  0  0  0  0  0  0  0  0  0
    9.0034   -6.6189    0.0000 C   0  0  0  0  0  0  0  0  0  0  0  0
    9.7179   -7.0314    0.0000 C   0  0  0  0  0  0  0  0  0  0  0  0
    9.7179   -7.8564    0.0000 C   0  0  0  0  0  0  0  0  0  0  0  0
    9.0034   -9.0939    0.0000 O   0  0  0  0  0  0  0  0  0  0  0  0
   10.4324   -6.6189    0.0000 O   0  0  0  0  0  0  0  0  0  0  0  0
   11.1468   -7.0314    0.0000 C   0  0  0  0  0  0  0  0  0  0  0  0
    7.5745   -6.6189    0.0000 C   0  0  0  0  0  0  0  0  0  0  0  0
    6.8600   -7.0314    0.0000 C   0  0  0  0  0  0  0  0  0  0  0  0
    6.1455   -6.6189    0.0000 C   0  0  0  0  0  0  0  0  0  0  0  0
    5.4311   -7.0314    0.0000 C   0  0  0  0  0  0  0  0  0  0  0  0
    4.7166   -6.6189    0.0000 C   0  0  0  0  0  0  0  0  0  0  0  0
    4.7166   -5.7939    0.0000 C   0  0  0  0  0  0  0  0  0  0  0  0
    5.4311   -5.3814    0.0000 C   0  0  0  0  0  0  0  0  0  0  0  0
    6.1455   -5.7939    0.0000 C   0  0  0  0  0  0  0  0  0  0  0  0
    4.0021   -7.0314    0.0000 O   0  0  0  0  0  0  0  0  0  0  0  0
  1  2  1  0  0  0  0
  2  3  2  0  0  0  0
  3  4  1  0  0  0  0
  4  5  2  0  0  0  0
  5  6  1  0  0  0  0
  1  6  2  0  0  0  0
  1  7  1  0  0  0  0
  8  9  1  0  0  0  0
  5  8  1  0  0  0  0
 10 11  2  0  0  0  0
 12 13  1  0  0  0  0
 13 14  2  0  0  0  0
 14 15  1  0  0  0  0
 15 16  2  0  0  0  0
 16 17  1  0  0  0  0
 12 17  2  0  0  0  0
 14 18  1  0  0  0  0
 11 12  1  0  0  0  0
  3 10  1  0  0  0  0
M  END
>  <cdx:groupId>
57

>  <cdx:fragmentId>
27

$$$$
