302579.cdx
  Mrv1902 05222410262D          

 11 12  0  0  0  0            999 V2000
    8.8445   -6.9250    0.0000 N   0  0  0  0  0  0  0  0  0  0  0  0
    9.3294   -7.5924    0.0000 C   0  0  0  0  0  0  0  0  0  0  0  0
    8.8445   -8.2598    0.0000 N   0  0  0  0  0  0  0  0  0  0  0  0
    8.0599   -8.0049    0.0000 C   0  0  0  0  0  0  0  0  0  0  0  0
    7.3454   -8.4174    0.0000 N   0  0  0  0  0  0  0  0  0  0  0  0
    6.6309   -8.0049    0.0000 C   0  0  0  0  0  0  0  0  0  0  0  0
    6.6309   -7.1799    0.0000 N   0  0  0  0  0  0  0  0  0  0  0  0
    7.3454   -6.7674    0.0000 C   0  0  0  0  0  0  0  0  0  0  0  0
    8.0599   -7.1799    0.0000 C   0  0  0  0  0  0  0  0  0  0  0  0
    7.3454   -5.9424    0.0000 S   0  0  0  0  0  0  0  0  0  0  0  0
    5.9165   -8.4174    0.0000 N   0  0  0  0  0  0  0  0  0  0  0  0
  1  2  1  0  0  0  0
  2  3  2  0  0  0  0
  3  4  1  0  0  0  0
  4  5  1  0  0  0  0
  5  6  1  0  0  0  0
  6  7  2  0  0  0  0
  7  8  1  0  0  0  0
  8  9  1  0  0  0  0
  1  9  1  0  0  0  0
  4  9  2  0  0  0  0
  8 10  2  0  0  0  0
  6 11  1  0  0  0  0
M  END
>  <cdx:groupId>
36

>  <cdx:fragmentId>
5

$$$$
