302502.cdx
  Mrv1902 05222410232D          

 14 15  0  0  0  0            999 V2000
    8.0572   -6.1985    0.0000 C   0  0  0  0  0  0  0  0  0  0  0  0
    7.3428   -5.7860    0.0000 C   0  0  0  0  0  0  0  0  0  0  0  0
    6.6283   -6.1985    0.0000 C   0  0  0  0  0  0  0  0  0  0  0  0
    6.6283   -7.0235    0.0000 C   0  0  0  0  0  0  0  0  0  0  0  0
    5.9138   -7.4360    0.0000 C   0  0  0  0  0  0  0  0  0  0  0  0
    5.1994   -7.0235    0.0000 C   0  0  0  0  0  0  0  0  0  0  0  0
    5.1994   -6.1985    0.0000 C   0  0  0  0  0  0  0  0  0  0  0  0
    5.9138   -5.7860    0.0000 C   0  0  0  0  0  0  0  0  0  0  0  0
    8.7717   -5.7860    0.0000 C   0  0  0  0  0  0  0  0  0  0  0  0
    8.7717   -4.9610    0.0000 C   0  0  0  0  0  0  0  0  0  0  0  0
    9.4862   -4.5485    0.0000 C   0  0  0  0  0  0  0  0  0  0  0  0
   10.2006   -4.9610    0.0000 C   0  0  0  0  0  0  0  0  0  0  0  0
   10.2006   -5.7860    0.0000 C   0  0  0  0  0  0  0  0  0  0  0  0
    9.4862   -6.1985    0.0000 C   0  0  0  0  0  0  0  0  0  0  0  0
  1  2  2  0  0  0  0
  2  3  1  0  0  0  0
  3  4  1  0  0  0  0
  4  5  2  0  0  0  0
  5  6  1  0  0  0  0
  6  7  2  0  0  0  0
  7  8  1  0  0  0  0
  3  8  2  0  0  0  0
  1  9  1  0  0  0  0
  9 10  1  0  0  0  0
 10 11  2  0  0  0  0
 11 12  1  0  0  0  0
 12 13  2  0  0  0  0
 13 14  1  0  0  0  0
  9 14  2  0  0  0  0
M  END
>  <cdx:fragmentId>
5

$$$$
