302508.cdx
  Mrv1902 05222410252D          

 27 30  0  0  0  0            999 V2000
    7.4767   -9.5421    0.0000 O   0  0  0  0  0  0  0  0  0  0  0  0
    6.8092   -9.0571    0.0000 C   0  0  1  0  0  0  0  0  0  0  0  0
    7.0642   -8.2725    0.0000 C   0  0  1  0  0  0  0  0  0  0  0  0
    7.8892   -8.2725    0.0000 C   0  0  0  0  0  0  0  0  0  0  0  0
    8.1441   -9.0571    0.0000 C   0  0  0  0  0  0  0  0  0  0  0  0
    6.3967   -7.7876    0.0000 C   0  0  0  0  0  0  0  0  0  0  0  0
    5.7293   -8.2725    0.0000 C   0  0  0  0  0  0  0  0  0  0  0  0
    4.9223   -8.1010    0.0000 C   0  0  0  0  0  0  0  0  0  0  0  0
    4.3703   -8.7141    0.0000 C   0  0  0  0  0  0  0  0  0  0  0  0
    4.6252   -9.4987    0.0000 C   0  0  0  0  0  0  0  0  0  0  0  0
    5.4322   -9.6702    0.0000 C   0  0  0  0  0  0  0  0  0  0  0  0
    5.9842   -9.0571    0.0000 C   0  0  0  0  0  0  0  0  0  0  0  0
    8.9287   -9.3121    0.0000 O   0  0  0  0  0  0  0  0  0  0  0  0
    4.6674   -7.3164    0.0000 O   0  0  0  0  0  0  0  0  0  0  0  0
    8.3741   -7.6051    0.0000 C   0  0  0  0  0  0  0  0  0  0  0  0
    8.0385   -6.8514    0.0000 O   0  0  0  0  0  0  0  0  0  0  0  0
    9.3484   -6.1840    0.0000 O   0  0  0  0  0  0  0  0  0  0  0  0
    8.5234   -6.1840    0.0000 C   0  0  2  0  0  0  0  0  0  0  0  0
    8.2685   -5.3994    0.0000 C   0  0  0  0  0  0  0  0  0  0  0  0
    8.9359   -4.9144    0.0000 C   0  0  0  0  0  0  0  0  0  0  0  0
    9.6034   -5.3994    0.0000 C   0  0  0  0  0  0  0  0  0  0  0  0
   10.3880   -5.1444    0.0000 O   0  0  0  0  0  0  0  0  0  0  0  0
    8.9359   -4.0894    0.0000 C   0  0  0  0  0  0  0  0  0  0  0  0
    6.0453  -10.2223    0.0000 C   0  0  0  0  0  0  0  0  0  0  0  0
    5.2607  -10.4772    0.0000 C   0  0  0  0  0  0  0  0  0  0  0  0
    7.3191   -7.4879    0.0000 H   0  0  0  0  0  0  0  0  0  0  0  0
    6.5543   -9.8418    0.0000 H   0  0  0  0  0  0  0  0  0  0  0  0
  1  2  1  0  0  0  0
  2  3  1  0  0  0  0
  3  4  1  0  0  0  0
  4  5  1  0  0  0  0
  1  5  1  0  0  0  0
  6  7  1  0  0  0  0
  7  8  1  0  0  0  0
  8  9  1  0  0  0  0
  9 10  1  0  0  0  0
 10 11  1  0  0  0  0
 11 12  1  0  0  0  0
  7 12  2  0  0  0  0
 12  2  1  0  0  0  0
  6  3  1  0  0  0  0
  5 13  2  0  0  0  0
  8 14  2  0  0  0  0
 17 18  1  0  0  0  0
 18 19  1  0  0  0  0
 19 20  2  0  0  0  0
 20 21  1  0  0  0  0
 17 21  1  0  0  0  0
 21 22  2  0  0  0  0
 20 23  1  0  0  0  0
 18 16  1  1  0  0  0
 15 16  1  0  0  0  0
  4 15  2  0  0  0  0
 11 24  1  0  0  0  0
 11 25  1  0  0  0  0
  3 26  1  1  0  0  0
  2 27  1  1  0  0  0
M  END
>  <cdx:groupId>
86

>  <cdx:fragmentId>
15

$$$$
