302584.cdx
  Mrv1902 05222410262D          

 34 36  0  0  0  0            999 V2000
    5.1232   -6.3578    0.0000 O   0  0  0  0  0  0  0  0  0  0  0  0
    5.8377   -6.7703    0.0000 C   0  0  1  0  0  0  0  0  0  0  0  0
    5.8377   -7.5953    0.0000 C   0  0  1  0  0  0  0  0  0  0  0  0
    5.1232   -8.0078    0.0000 C   0  0  2  0  0  0  0  0  0  0  0  0
    4.4087   -7.5953    0.0000 C   0  0  1  0  0  0  0  0  0  0  0  0
    4.4087   -6.7703    0.0000 C   0  0  1  0  0  0  0  0  0  0  0  0
    6.5522   -8.0078    0.0000 O   0  0  0  0  0  0  0  0  0  0  0  0
    5.1232   -8.8328    0.0000 O   0  0  0  0  0  0  0  0  0  0  0  0
    3.6943   -8.0078    0.0000 O   0  0  0  0  0  0  0  0  0  0  0  0
    3.6943   -6.3578    0.0000 C   0  0  0  0  0  0  0  0  0  0  0  0
    2.9798   -6.7703    0.0000 O   0  0  0  0  0  0  0  0  0  0  0  0
    6.5522   -6.3578    0.0000 O   0  0  0  0  0  0  0  0  0  0  0  0
    7.2666   -6.7703    0.0000 C   0  0  0  0  0  0  0  0  0  0  0  0
    8.6956   -6.7703    0.0000 O   0  0  0  0  0  0  0  0  0  0  0  0
    7.9811   -6.3578    0.0000 C   0  0  1  0  0  0  0  0  0  0  0  0
    7.9811   -5.5328    0.0000 C   0  0  2  0  0  0  0  0  0  0  0  0
    8.6956   -5.1203    0.0000 C   0  0  1  0  0  0  0  0  0  0  0  0
    9.4100   -5.5328    0.0000 C   0  0  2  0  0  0  0  0  0  0  0  0
    9.4100   -6.3578    0.0000 C   0  0  1  0  0  0  0  0  0  0  0  0
   10.1245   -5.1203    0.0000 O   0  0  0  0  0  0  0  0  0  0  0  0
    8.6956   -4.2953    0.0000 O   0  0  0  0  0  0  0  0  0  0  0  0
    7.2666   -5.1203    0.0000 O   0  0  0  0  0  0  0  0  0  0  0  0
   10.1245   -6.7703    0.0000 O   0  0  0  0  0  0  0  0  0  0  0  0
    9.2998   -7.5747    0.0000 O   0  0  0  0  0  0  0  0  0  0  0  0
   10.1245   -7.5953    0.0000 C   0  0  2  0  0  0  0  0  0  0  0  0
   10.3599   -8.3860    0.0000 C   0  0  2  0  0  0  0  0  0  0  0  0
    9.6806   -8.8541    0.0000 C   0  0  1  0  0  0  0  0  0  0  0  0
    9.0254   -8.3528    0.0000 C   0  0  1  0  0  0  0  0  0  0  0  0
    8.2347   -8.5881    0.0000 C   0  0  0  0  0  0  0  0  0  0  0  0
    8.0212   -9.3850    0.0000 O   0  0  0  0  0  0  0  0  0  0  0  0
    9.6601   -9.6789    0.0000 O   0  0  0  0  0  0  0  0  0  0  0  0
   11.1379   -8.6603    0.0000 O   0  0  0  0  0  0  0  0  0  0  0  0
   10.9409   -7.4763    0.0000 C   0  0  0  0  0  0  0  0  0  0  0  0
   11.4521   -8.1239    0.0000 O   0  0  0  0  0  0  0  0  0  0  0  0
  1  2  1  0  0  0  0
  2  3  1  0  0  0  0
  3  4  1  0  0  0  0
  4  5  1  0  0  0  0
  5  6  1  0  0  0  0
  1  6  1  0  0  0  0
  3  7  1  6  0  0  0
  4  8  1  1  0  0  0
  5  9  1  6  0  0  0
 10 11  1  0  0  0  0
  6 10  1  1  0  0  0
 12 13  1  0  0  0  0
 14 15  1  0  0  0  0
 15 16  1  0  0  0  0
 16 17  1  0  0  0  0
 17 18  1  0  0  0  0
 18 19  1  0  0  0  0
 14 19  1  0  0  0  0
 18 20  1  1  0  0  0
 17 21  1  6  0  0  0
 16 22  1  1  0  0  0
 24 25  1  0  0  0  0
 25 26  1  0  0  0  0
 26 27  1  0  0  0  0
 27 28  1  0  0  0  0
 24 28  1  0  0  0  0
 29 30  1  0  0  0  0
 28 29  1  1  0  0  0
 27 31  1  6  0  0  0
 26 32  1  1  0  0  0
 25 23  1  1  0  0  0
 19 23  1  1  0  0  0
 15 13  1  6  0  0  0
  2 12  1  6  0  0  0
 25 33  1  0  0  0  0
 33 34  1  0  0  0  0
M  END
>  <cdx:groupId>
106

>  <cdx:fragmentId>
51

$$$$
