302559.cdx
  Mrv1902 05222410182D          

 15 14  0  0  0  0            999 V2000
    3.3412   -7.0026    0.0000 C   0  0  0  0  0  0  0  0  0  0  0  0
    4.0557   -7.4151    0.0000 C   0  0  0  0  0  0  0  0  0  0  0  0
    4.7701   -7.0026    0.0000 C   0  0  0  0  0  0  0  0  0  0  0  0
    5.4846   -7.4151    0.0000 C   0  0  0  0  0  0  0  0  0  0  0  0
    6.1991   -7.0026    0.0000 C   0  0  0  0  0  0  0  0  0  0  0  0
    6.9135   -7.4151    0.0000 C   0  0  0  0  0  0  0  0  0  0  0  0
    7.6280   -7.0026    0.0000 C   0  0  0  0  0  0  0  0  0  0  0  0
    8.3425   -7.4151    0.0000 C   0  0  0  0  0  0  0  0  0  0  0  0
    9.0570   -7.0026    0.0000 C   0  0  0  0  0  0  0  0  0  0  0  0
    9.7714   -7.4151    0.0000 C   0  0  0  0  0  0  0  0  0  0  0  0
   10.4859   -7.0026    0.0000 C   0  0  0  0  0  0  0  0  0  0  0  0
   11.2004   -7.4151    0.0000 C   0  0  0  0  0  0  0  0  0  0  0  0
   11.9148   -7.0026    0.0000 C   0  0  0  0  0  0  0  0  0  0  0  0
   12.6293   -7.4151    0.0000 C   0  0  0  0  0  0  0  0  0  0  0  0
    2.6267   -7.4151    0.0000 N   0  0  0  0  0  0  0  0  0  0  0  0
  1  2  1  0  0  0  0
  2  3  1  0  0  0  0
  3  4  1  0  0  0  0
  4  5  1  0  0  0  0
  5  6  1  0  0  0  0
  6  7  1  0  0  0  0
  7  8  1  0  0  0  0
  8  9  1  0  0  0  0
  9 10  1  0  0  0  0
 10 11  1  0  0  0  0
 11 12  1  0  0  0  0
 12 13  1  0  0  0  0
 13 14  1  0  0  0  0
  1 15  1  0  0  0  0
M  END
>  <cdx:groupId>
46

>  <cdx:fragmentId>
5

$$$$
