302594.cdx
  Mrv1902 05222410272D          

  5  4  0  0  0  0            999 V2000
    6.6642   -7.2900    0.0000 C   0  0  0  0  0  0  0  0  0  0  0  0
    5.9497   -7.7025    0.0000 C   0  0  0  0  0  0  0  0  0  0  0  0
    7.3786   -7.7025    0.0000 S   0  0  0  0  0  0  0  0  0  0  0  0
    8.0931   -7.2900    0.0000 C   0  0  0  0  0  0  0  0  0  0  0  0
    8.8076   -6.8775    0.0000 N   0  0  0  0  0  0  0  0  0  0  0  0
  1  2  1  0  0  0  0
  3  4  1  0  0  0  0
  4  5  3  0  0  0  0
  1  3  1  0  0  0  0
M  END
>  <cdx:groupId>
16

>  <cdx:fragmentId>
9

$$$$
