302572.cdx
  Mrv1902 05222410182D          

 26 25  0  0  0  0            999 V2000
    3.6596   -8.7527    0.0000 O   0  0  0  0  0  0  0  0  0  0  0  0
    6.5175   -8.7527    0.0000 O   0  0  0  0  0  0  0  0  0  0  0  0
    1.5162   -7.5152    0.0000 O   0  0  0  0  0  0  0  0  0  0  0  0
    2.2306   -8.7527    0.0000 O   0  0  0  0  0  0  0  0  0  0  0  0
   17.2345   -7.5152    0.0000 C   0  0  0  0  0  0  0  0  0  0  0  0
   16.5201   -7.9277    0.0000 C   0  0  0  0  0  0  0  0  0  0  0  0
   15.8056   -7.5152    0.0000 C   0  0  0  0  0  0  0  0  0  0  0  0
   15.0911   -7.9277    0.0000 C   0  0  0  0  0  0  0  0  0  0  0  0
   14.3766   -7.5152    0.0000 C   0  0  0  0  0  0  0  0  0  0  0  0
   13.6622   -7.9277    0.0000 C   0  0  0  0  0  0  0  0  0  0  0  0
   12.9477   -7.5152    0.0000 C   0  0  0  0  0  0  0  0  0  0  0  0
   12.2332   -7.9277    0.0000 C   0  0  0  0  0  0  0  0  0  0  0  0
   11.5188   -7.5152    0.0000 C   0  0  0  0  0  0  0  0  0  0  0  0
   10.8043   -7.9277    0.0000 C   0  0  0  0  0  0  0  0  0  0  0  0
   10.0898   -7.5152    0.0000 C   0  0  0  0  0  0  0  0  0  0  0  0
    9.3753   -7.9277    0.0000 C   0  0  0  0  0  0  0  0  0  0  0  0
    8.6609   -7.5152    0.0000 C   0  0  0  0  0  0  0  0  0  0  0  0
    7.9464   -7.9277    0.0000 C   0  0  0  0  0  0  0  0  0  0  0  0
    7.2319   -7.5152    0.0000 C   0  0  0  0  0  0  0  0  0  0  0  0
    6.5175   -7.9277    0.0000 C   0  0  1  0  0  0  0  0  0  0  0  0
    5.8030   -7.5152    0.0000 C   0  0  0  0  0  0  0  0  0  0  0  0
    5.0885   -7.9277    0.0000 C   0  0  0  0  0  0  0  0  0  0  0  0
    4.3741   -7.5152    0.0000 C   0  0  0  0  0  0  0  0  0  0  0  0
    3.6596   -7.9277    0.0000 C   0  0  1  0  0  0  0  0  0  0  0  0
    2.9451   -7.5152    0.0000 C   0  0  0  0  0  0  0  0  0  0  0  0
    2.2306   -7.9277    0.0000 C   0  0  0  0  0  0  0  0  0  0  0  0
 24  1  1  6  0  0  0
 20  2  1  6  0  0  0
 26  3  1  0  0  0  0
 26  4  2  0  0  0  0
  6  5  1  0  0  0  0
  7  6  1  0  0  0  0
  8  7  1  0  0  0  0
  9  8  1  0  0  0  0
 10  9  1  0  0  0  0
 11 10  1  0  0  0  0
 12 11  1  0  0  0  0
 13 12  1  0  0  0  0
 14 13  1  0  0  0  0
 15 14  1  0  0  0  0
 16 15  1  0  0  0  0
 17 16  1  0  0  0  0
 18 17  1  0  0  0  0
 19 18  1  0  0  0  0
 20 19  1  0  0  0  0
 21 20  1  0  0  0  0
 22 21  1  0  0  0  0
 23 22  1  0  0  0  0
 24 23  1  0  0  0  0
 25 24  1  0  0  0  0
 26 25  1  0  0  0  0
M  END
>  <cdx:fragmentId>
5

$$$$
