302525.cdx
  Mrv1902 05222410242D          

 22 23  0  0  0  0            999 V2000
    4.0073   -6.3910    0.0000 C   0  0  0  0  0  0  0  0  0  0  0  0
    4.0073   -7.2160    0.0000 C   0  0  0  0  0  0  0  0  0  0  0  0
    4.7217   -7.6285    0.0000 C   0  0  0  0  0  0  0  0  0  0  0  0
    5.4362   -7.2160    0.0000 C   0  0  0  0  0  0  0  0  0  0  0  0
    5.4362   -6.3910    0.0000 C   0  0  0  0  0  0  0  0  0  0  0  0
    4.7217   -5.9785    0.0000 C   0  0  0  0  0  0  0  0  0  0  0  0
    6.1507   -5.9785    0.0000 C   0  0  0  0  0  0  0  0  0  0  0  0
    6.8652   -6.3910    0.0000 C   0  0  0  0  0  0  0  0  0  0  0  0
    7.5796   -5.9785    0.0000 C   0  0  0  0  0  0  0  0  0  0  0  0
    8.2941   -6.3910    0.0000 C   0  0  0  0  0  0  0  0  0  0  0  0
    7.5796   -5.1535    0.0000 O   0  0  0  0  0  0  0  0  0  0  0  0
    8.2941   -7.2160    0.0000 C   0  0  0  0  0  0  0  0  0  0  0  0
    9.0086   -7.6285    0.0000 C   0  0  0  0  0  0  0  0  0  0  0  0
    9.7230   -7.2160    0.0000 C   0  0  0  0  0  0  0  0  0  0  0  0
    9.7230   -6.3910    0.0000 C   0  0  0  0  0  0  0  0  0  0  0  0
    9.0086   -5.9785    0.0000 C   0  0  0  0  0  0  0  0  0  0  0  0
    4.7217   -5.1535    0.0000 O   0  0  0  0  0  0  0  0  0  0  0  0
    4.0073   -4.7410    0.0000 C   0  0  0  0  0  0  0  0  0  0  0  0
    3.2928   -5.9785    0.0000 O   0  0  0  0  0  0  0  0  0  0  0  0
    3.2928   -7.6285    0.0000 O   0  0  0  0  0  0  0  0  0  0  0  0
   10.4375   -5.9785    0.0000 O   0  0  0  0  0  0  0  0  0  0  0  0
   10.4375   -7.6285    0.0000 O   0  0  0  0  0  0  0  0  0  0  0  0
  1  2  2  0  0  0  0
  2  3  1  0  0  0  0
  3  4  2  0  0  0  0
  4  5  1  0  0  0  0
  5  6  2  0  0  0  0
  6  1  1  0  0  0  0
  5  7  1  0  0  0  0
  7  8  2  0  0  0  0
  8  9  1  0  0  0  0
  9 10  1  0  0  0  0
  9 11  2  0  0  0  0
 10 12  2  0  0  0  0
 12 13  1  0  0  0  0
 13 14  2  0  0  0  0
 14 15  1  0  0  0  0
 15 16  2  0  0  0  0
 16 10  1  0  0  0  0
  6 17  1  0  0  0  0
 17 18  1  0  0  0  0
  1 19  1  0  0  0  0
  2 20  1  0  0  0  0
 15 21  1  0  0  0  0
 14 22  1  0  0  0  0
M  END
>  <cdx:fragmentId>
5

$$$$
