302511.cdx
  Mrv1902 05222410212D          

 21 21  0  0  0  0            999 V2000
   10.4136   -9.3066    0.0000 C   0  0  0  0  0  0  0  0  0  0  0  0
    9.5886   -9.3065    0.0000 C   0  0  0  0  0  0  0  0  0  0  0  0
    9.1760  -10.0209    0.0000 C   0  0  0  0  0  0  0  0  0  0  0  0
    8.3510  -10.0207    0.0000 C   0  0  0  0  0  0  0  0  0  0  0  0
   10.8260  -10.0212    0.0000 O   0  0  0  0  0  0  0  0  0  0  0  0
   10.8263   -8.5923    0.0000 O   0  0  0  0  0  0  0  0  0  0  0  0
    7.9386   -9.3061    0.0000 O   0  0  0  0  0  0  0  0  0  0  0  0
    7.9383  -10.7351    0.0000 O   0  0  0  0  0  0  0  0  0  0  0  0
   11.6513   -8.5924    0.0000 C   0  0  0  0  0  0  0  0  0  0  0  0
   12.0639   -7.8780    0.0000 C   0  0  0  0  0  0  0  0  0  0  0  0
   11.6516   -7.1635    0.0000 C   0  0  0  0  0  0  0  0  0  0  0  0
   12.8889   -7.8782    0.0000 C   0  0  0  0  0  0  0  0  0  0  0  0
    5.4633  -10.7346    0.0000 C   0  0  0  0  0  0  0  0  0  0  0  0
    6.2883  -10.7347    0.0000 C   0  0  0  0  0  0  0  0  0  0  0  0
    7.4151  -11.8619    0.0000 C   0  0  0  0  0  0  0  0  0  0  0  0
    6.7007  -11.4493    0.0000 C   0  0  0  0  0  0  0  0  0  0  0  0
    5.9861  -11.8616    0.0000 C   0  0  0  0  0  0  0  0  0  0  0  0
    5.9859  -12.6866    0.0000 O   0  0  0  0  0  0  0  0  0  0  0  0
    6.7003  -13.0993    0.0000 C   0  0  0  0  0  0  0  0  0  0  0  0
    7.4149  -12.6869    0.0000 O   0  0  0  0  0  0  0  0  0  0  0  0
    7.1133  -10.7349    0.0000 C   0  0  0  0  0  0  0  0  0  0  0  0
 21 16  1  0  0  0  0
 16 14  1  0  0  0  0
 14 13  1  0  0  0  0
 20 15  1  0  0  0  0
 16 15  1  0  0  0  0
 17 16  1  0  0  0  0
 18 17  1  0  0  0  0
 19 18  1  0  0  0  0
 20 19  1  0  0  0  0
  1  2  1  0  0  0  0
  2  3  1  0  0  0  0
  3  4  1  0  0  0  0
  1  5  2  0  0  0  0
  1  6  1  0  0  0  0
  4  7  2  0  0  0  0
  4  8  1  0  0  0  0
  9 10  1  0  0  0  0
 10 11  1  0  0  0  0
 10 12  1  0  0  0  0
  6  9  1  0  0  0  0
  8 21  1  0  0  0  0
M  END
>  <cdx:fragmentId>
5

$$$$
