302581.cdx
  Mrv1902 05222410272D          

 25 28  0  0  0  0            999 V2000
    7.9153   -8.6795    0.0000 N   0  3  0  0  0  0  0  0  0  0  0  0
    7.2009   -9.0920    0.0000 C   0  0  0  0  0  0  0  0  0  0  0  0
    6.4864   -8.6795    0.0000 C   0  0  0  0  0  0  0  0  0  0  0  0
    5.7719   -9.0920    0.0000 C   0  0  0  0  0  0  0  0  0  0  0  0
    5.0575   -8.6795    0.0000 C   0  0  0  0  0  0  0  0  0  0  0  0
    4.2728   -8.9344    0.0000 O   0  0  0  0  0  0  0  0  0  0  0  0
    3.7879   -8.2670    0.0000 C   0  0  0  0  0  0  0  0  0  0  0  0
    4.2728   -7.5995    0.0000 O   0  0  0  0  0  0  0  0  0  0  0  0
    5.0575   -7.8545    0.0000 C   0  0  0  0  0  0  0  0  0  0  0  0
    5.7719   -7.4420    0.0000 C   0  0  0  0  0  0  0  0  0  0  0  0
    6.4864   -7.8545    0.0000 C   0  0  0  0  0  0  0  0  0  0  0  0
    7.2009   -7.4420    0.0000 C   0  0  0  0  0  0  0  0  0  0  0  0
    7.9153   -7.8545    0.0000 C   0  0  0  0  0  0  0  0  0  0  0  0
    8.6298   -7.4420    0.0000 C   0  0  0  0  0  0  0  0  0  0  0  0
    8.6298   -6.6170    0.0000 C   0  0  0  0  0  0  0  0  0  0  0  0
    9.3443   -6.2045    0.0000 C   0  0  0  0  0  0  0  0  0  0  0  0
   10.0588   -6.6170    0.0000 C   0  0  0  0  0  0  0  0  0  0  0  0
   10.0588   -7.4420    0.0000 C   0  0  0  0  0  0  0  0  0  0  0  0
    9.3443   -7.8545    0.0000 C   0  0  0  0  0  0  0  0  0  0  0  0
    9.3443   -8.6795    0.0000 C   0  0  0  0  0  0  0  0  0  0  0  0
    8.6298   -9.0920    0.0000 C   0  0  0  0  0  0  0  0  0  0  0  0
   10.7732   -6.2045    0.0000 O   0  0  0  0  0  0  0  0  0  0  0  0
    9.3443   -5.3795    0.0000 O   0  0  0  0  0  0  0  0  0  0  0  0
   10.0588   -4.9670    0.0000 C   0  0  0  0  0  0  0  0  0  0  0  0
    7.9153   -9.5045    0.0000 Cl  0  5  0  0  0  0  0  0  0  0  0  0
  1  2  2  0  0  0  0
  2  3  1  0  0  0  0
  3  4  2  0  0  0  0
  4  5  1  0  0  0  0
  5  6  1  0  0  0  0
  6  7  1  0  0  0  0
  7  8  1  0  0  0  0
  8  9  1  0  0  0  0
  9 10  1  0  0  0  0
 10 11  2  0  0  0  0
 11 12  1  0  0  0  0
 12 13  2  0  0  0  0
 13 14  1  0  0  0  0
 14 15  2  0  0  0  0
 15 16  1  0  0  0  0
 16 17  2  0  0  0  0
 17 18  1  0  0  0  0
 18 19  2  0  0  0  0
 19 20  1  0  0  0  0
 20 21  1  0  0  0  0
  1 21  1  0  0  0  0
  1 13  1  0  0  0  0
 14 19  1  0  0  0  0
  3 11  1  0  0  0  0
  5  9  2  0  0  0  0
 17 22  1  0  0  0  0
 23 24  1  0  0  0  0
 16 23  1  0  0  0  0
M  CHG  2   1   1  25  -1
M  END
>  <cdx:groupId>
80

>  <cdx:fragmentId>
51

$$$$
