302555.cdx
  Mrv1902 05222410282D          

 42 42  0  0  0  0            999 V2000
    7.2961   -6.9789    0.0000 C   0  0  0  0  0  0  0  0  0  0  0  0
    6.5816   -7.3914    0.0000 C   0  0  0  0  0  0  0  0  0  0  0  0
    5.8671   -6.9789    0.0000 C   0  0  0  0  0  0  0  0  0  0  0  0
    7.2961   -6.1539    0.0000 O   0  0  0  0  0  0  0  0  0  0  0  0
    8.0105   -7.3914    0.0000 O   0  0  0  0  0  0  0  0  0  0  0  0
    5.1527   -7.3914    0.0000 C   0  0  0  0  0  0  0  0  0  0  0  0
    4.4382   -6.9789    0.0000 C   0  0  0  0  0  0  0  0  0  0  0  0
    3.7237   -7.3914    0.0000 C   0  0  0  0  0  0  0  0  0  0  0  0
    3.7237   -8.2164    0.0000 C   0  0  0  0  0  0  0  0  0  0  0  0
    4.4382   -8.6289    0.0000 C   0  0  0  0  0  0  0  0  0  0  0  0
    5.1527   -8.2164    0.0000 C   0  0  0  0  0  0  0  0  0  0  0  0
    3.0092   -6.9789    0.0000 O   0  0  0  0  0  0  0  0  0  0  0  0
    2.2948   -7.3914    0.0000 C   0  0  0  0  0  0  0  0  0  0  0  0
    3.0092   -8.6289    0.0000 O   0  0  0  0  0  0  0  0  0  0  0  0
    8.7250   -6.9789    0.0000 C   0  0  0  0  0  0  0  0  0  0  0  0
    9.4395   -7.3914    0.0000 C   0  0  0  0  0  0  0  0  0  0  0  0
   10.1540   -6.9789    0.0000 C   0  0  0  0  0  0  0  0  0  0  0  0
   10.8684   -7.3914    0.0000 C   0  0  0  0  0  0  0  0  0  0  0  0
   11.5829   -6.9789    0.0000 C   0  0  0  0  0  0  0  0  0  0  0  0
   12.2974   -7.3914    0.0000 C   0  0  0  0  0  0  0  0  0  0  0  0
   13.0118   -6.9789    0.0000 C   0  0  0  0  0  0  0  0  0  0  0  0
   13.7263   -7.3914    0.0000 C   0  0  0  0  0  0  0  0  0  0  0  0
   14.4408   -6.9789    0.0000 C   0  0  0  0  0  0  0  0  0  0  0  0
   15.1552   -7.3914    0.0000 C   0  0  0  0  0  0  0  0  0  0  0  0
   15.8697   -6.9789    0.0000 C   0  0  0  0  0  0  0  0  0  0  0  0
   16.5842   -7.3914    0.0000 C   0  0  0  0  0  0  0  0  0  0  0  0
   17.2987   -6.9789    0.0000 C   0  0  0  0  0  0  0  0  0  0  0  0
   18.0131   -7.3914    0.0000 C   0  0  0  0  0  0  0  0  0  0  0  0
   18.7276   -6.9789    0.0000 C   0  0  0  0  0  0  0  0  0  0  0  0
   19.4421   -7.3914    0.0000 C   0  0  0  0  0  0  0  0  0  0  0  0
   20.1565   -6.9789    0.0000 C   0  0  0  0  0  0  0  0  0  0  0  0
   20.8710   -7.3914    0.0000 C   0  0  0  0  0  0  0  0  0  0  0  0
   21.5855   -6.9789    0.0000 C   0  0  0  0  0  0  0  0  0  0  0  0
   22.3000   -7.3914    0.0000 C   0  0  0  0  0  0  0  0  0  0  0  0
   23.0144   -6.9789    0.0000 C   0  0  0  0  0  0  0  0  0  0  0  0
   23.7289   -7.3914    0.0000 C   0  0  0  0  0  0  0  0  0  0  0  0
   24.4434   -6.9789    0.0000 C   0  0  0  0  0  0  0  0  0  0  0  0
   25.1578   -7.3914    0.0000 C   0  0  0  0  0  0  0  0  0  0  0  0
   25.8723   -6.9789    0.0000 C   0  0  0  0  0  0  0  0  0  0  0  0
   26.5868   -7.3914    0.0000 C   0  0  0  0  0  0  0  0  0  0  0  0
   27.3013   -6.9789    0.0000 C   0  0  0  0  0  0  0  0  0  0  0  0
   28.0157   -7.3914    0.0000 C   0  0  0  0  0  0  0  0  0  0  0  0
  1  2  1  0  0  0  0
  2  3  2  0  0  0  0
  1  4  2  0  0  0  0
  1  5  1  0  0  0  0
  6  7  1  0  0  0  0
  7  8  2  0  0  0  0
  8  9  1  0  0  0  0
  9 10  2  0  0  0  0
 10 11  1  0  0  0  0
  6 11  2  0  0  0  0
 12 13  1  0  0  0  0
  8 12  1  0  0  0  0
  9 14  1  0  0  0  0
  3  6  1  0  0  0  0
 15 16  1  0  0  0  0
 16 17  1  0  0  0  0
 17 18  1  0  0  0  0
 18 19  1  0  0  0  0
 19 20  1  0  0  0  0
 20 21  1  0  0  0  0
 21 22  1  0  0  0  0
 22 23  1  0  0  0  0
 23 24  1  0  0  0  0
 24 25  1  0  0  0  0
 25 26  1  0  0  0  0
 26 27  1  0  0  0  0
 27 28  1  0  0  0  0
 28 29  1  0  0  0  0
 29 30  1  0  0  0  0
 30 31  1  0  0  0  0
 31 32  1  0  0  0  0
 32 33  1  0  0  0  0
 33 34  1  0  0  0  0
 34 35  1  0  0  0  0
 35 36  1  0  0  0  0
 36 37  1  0  0  0  0
 37 38  1  0  0  0  0
 38 39  1  0  0  0  0
 39 40  1  0  0  0  0
 40 41  1  0  0  0  0
 41 42  1  0  0  0  0
  5 15  1  0  0  0  0
M  END
>  <cdx:groupId>
128

>  <cdx:fragmentId>
33

$$$$
