302580.cdx
  Mrv1902 05222410272D          

 23 24  0  0  0  0            999 V2000
    3.2464   -6.4421    0.0000 O   0  0  0  0  0  0  0  0  0  0  0  0
    3.9636   -6.0345    0.0000 C   0  0  0  0  0  0  0  0  0  0  0  0
   11.8142   -7.3258    0.0000 O   0  5  0  0  0  0  0  0  0  0  0  0
   11.0912   -8.5584    0.0000 O   0  0  0  0  0  0  0  0  0  0  0  0
   11.0969   -7.7334    0.0000 N   0  3  0  0  0  0  0  0  0  0  0  0
   10.3853   -7.3160    0.0000 C   0  0  0  0  0  0  0  0  0  0  0  0
    9.6680   -7.7236    0.0000 C   0  0  0  0  0  0  0  0  0  0  0  0
    8.2504   -6.0639    0.0000 C   0  0  0  0  0  0  0  0  0  0  0  0
    8.9620   -6.4812    0.0000 C   0  0  0  0  0  0  0  0  0  0  0  0
    8.9563   -7.3062    0.0000 C   0  0  0  0  0  0  0  0  0  0  0  0
    8.2391   -7.7138    0.0000 C   0  0  0  0  0  0  0  0  0  0  0  0
    7.5274   -7.2964    0.0000 C   0  0  0  0  0  0  0  0  0  0  0  0
    7.5331   -6.4715    0.0000 C   0  0  0  0  0  0  0  0  0  0  0  0
    6.8215   -6.0541    0.0000 O   0  0  0  0  0  0  0  0  0  0  0  0
    6.8102   -7.7040    0.0000 O   0  0  0  0  0  0  0  0  0  0  0  0
    5.3756   -8.5192    0.0000 O   0  0  0  0  0  0  0  0  0  0  0  0
    3.9523   -7.6845    0.0000 O   0  0  0  0  0  0  0  0  0  0  0  0
    6.1042   -6.4617    0.0000 C   0  0  1  0  0  0  0  0  0  0  0  0
    6.0985   -7.2866    0.0000 C   0  0  1  0  0  0  0  0  0  0  0  0
    5.3812   -7.6942    0.0000 C   0  0  2  0  0  0  0  0  0  0  0  0
    4.6696   -7.2769    0.0000 C   0  0  1  0  0  0  0  0  0  0  0  0
    4.6753   -6.4519    0.0000 C   0  0  2  0  0  0  0  0  0  0  0  0
    5.3925   -6.0443    0.0000 O   0  0  0  0  0  0  0  0  0  0  0  0
 22  2  1  1  0  0  0
  2  1  1  0  0  0  0
 18 14  1  1  0  0  0
 10  7  1  0  0  0  0
  6  5  1  0  0  0  0
  5  3  1  0  0  0  0
  5  4  2  0  0  0  0
  7  6  1  0  0  0  0
 14 13  1  0  0  0  0
 13  8  2  0  0  0  0
  9  8  1  0  0  0  0
 10  9  2  0  0  0  0
 11 10  1  0  0  0  0
 12 11  2  0  0  0  0
 13 12  1  0  0  0  0
 19 15  1  6  0  0  0
 20 16  1  1  0  0  0
 21 17  1  6  0  0  0
 23 18  1  0  0  0  0
 19 18  1  0  0  0  0
 20 19  1  0  0  0  0
 21 20  1  0  0  0  0
 22 21  1  0  0  0  0
 23 22  1  0  0  0  0
M  CHG  2   3  -1   5   1
M  END
>  <cdx:groupId>
72

>  <cdx:fragmentId>
25

$$$$
