302544.cdx
  Mrv1902 05222410262D          

 18 19  0  0  0  0            999 V2000
    9.4691   -7.3474    0.0000 C   0  0  0  0  0  0  0  0  0  0  0  0
    8.7546   -7.7599    0.0000 C   0  0  0  0  0  0  0  0  0  0  0  0
    8.7546   -8.5849    0.0000 C   0  0  0  0  0  0  0  0  0  0  0  0
    9.4691   -6.5224    0.0000 O   0  0  0  0  0  0  0  0  0  0  0  0
   10.1836   -7.7599    0.0000 O   0  0  0  0  0  0  0  0  0  0  0  0
    7.3257   -7.7599    0.0000 C   0  0  0  0  0  0  0  0  0  0  0  0
    8.0402   -7.3474    0.0000 C   0  0  1  0  0  0  0  0  0  0  0  0
    8.0402   -6.5224    0.0000 C   0  0  0  0  0  0  0  0  0  0  0  0
    7.3257   -6.1099    0.0000 C   0  0  0  0  0  0  0  0  0  0  0  0
    6.6112   -6.5224    0.0000 C   0  0  0  0  0  0  0  0  0  0  0  0
    5.8968   -6.1099    0.0000 C   0  0  0  0  0  0  0  0  0  0  0  0
    5.1823   -6.5224    0.0000 C   0  0  0  0  0  0  0  0  0  0  0  0
    5.1823   -7.3474    0.0000 C   0  0  0  0  0  0  0  0  0  0  0  0
    5.8968   -7.7599    0.0000 C   0  0  1  0  0  0  0  0  0  0  0  0
    6.6112   -7.3474    0.0000 C   0  0  1  0  0  0  0  0  0  0  0  0
    4.4678   -6.1099    0.0000 O   0  0  0  0  0  0  0  0  0  0  0  0
    6.6112   -8.1724    0.0000 C   0  0  0  0  0  0  0  0  0  0  0  0
    5.8968   -8.5849    0.0000 C   0  0  0  0  0  0  0  0  0  0  0  0
  1  2  1  0  0  0  0
  2  3  2  0  0  0  0
  1  4  2  0  0  0  0
  1  5  1  0  0  0  0
  6  7  1  0  0  0  0
  7  8  1  0  0  0  0
  8  9  1  0  0  0  0
  9 10  1  0  0  0  0
 10 11  2  0  0  0  0
 11 12  1  0  0  0  0
 12 13  1  0  0  0  0
 13 14  1  0  0  0  0
 14 15  1  0  0  0  0
  6 15  1  0  0  0  0
 10 15  1  0  0  0  0
 12 16  2  0  0  0  0
 15 17  1  1  0  0  0
 14 18  1  1  0  0  0
  7  2  1  1  0  0  0
M  END
>  <cdx:groupId>
57

>  <cdx:fragmentId>
15

$$$$
