302504.cdx
  Mrv1902 05222410222D          

 78 86  0  0  0  0            999 V2000
   20.7581   -7.6304    0.0000 C   0  0  0  0  0  0  0  0  0  0  0  0
   20.7581   -8.4554    0.0000 C   0  0  1  0  0  0  0  0  0  0  0  0
   21.4726   -8.8679    0.0000 C   0  0  0  0  0  0  0  0  0  0  0  0
   22.1871   -8.4554    0.0000 C   0  0  1  0  0  0  0  0  0  0  0  0
   22.1871   -7.6304    0.0000 C   0  0  2  0  0  0  0  0  0  0  0  0
   21.4726   -7.2179    0.0000 C   0  0  0  0  0  0  0  0  0  0  0  0
   22.9015   -8.8679    0.0000 C   0  0  0  0  0  0  0  0  0  0  0  0
   23.6160   -8.4554    0.0000 C   0  0  0  0  0  0  0  0  0  0  0  0
   23.6160   -7.6304    0.0000 C   0  0  2  0  0  0  0  0  0  0  0  0
   22.9015   -7.2179    0.0000 C   0  0  2  0  0  0  0  0  0  0  0  0
   24.3305   -7.2179    0.0000 C   0  0  2  0  0  0  0  0  0  0  0  0
   24.3305   -6.3929    0.0000 C   0  0  2  0  0  0  0  0  0  0  0  0
   23.6160   -5.9804    0.0000 C   0  0  1  0  0  0  0  0  0  0  0  0
   22.9015   -6.3929    0.0000 C   0  0  1  0  0  0  0  0  0  0  0  0
   25.1151   -7.4728    0.0000 C   0  0  0  0  0  0  0  0  0  0  0  0
   25.6000   -6.8054    0.0000 C   0  0  0  0  0  0  0  0  0  0  0  0
   25.1151   -6.1379    0.0000 C   0  0  2  0  0  0  0  0  0  0  0  0
   23.6160   -5.1554    0.0000 C   0  0  0  0  0  0  0  0  0  0  0  0
   24.4167   -5.5724    0.0000 C   0  0  0  0  0  0  0  0  0  0  0  0
   24.4167   -8.0384    0.0000 O   0  0  0  0  0  0  0  0  0  0  0  0
   22.1871   -6.8054    0.0000 C   0  0  0  0  0  0  0  0  0  0  0  0
   20.0437   -8.8679    0.0000 O   0  0  0  0  0  0  0  0  0  0  0  0
   22.1871   -9.2804    0.0000 H   0  0  0  0  0  0  0  0  0  0  0  0
   22.1871   -5.9804    0.0000 C   0  0  0  0  0  0  0  0  0  0  0  0
   22.9015   -8.0429    0.0000 H   0  0  0  0  0  0  0  0  0  0  0  0
   25.3700   -5.3533    0.0000 C   0  0  0  0  0  0  0  0  0  0  0  0
   26.1770   -5.1818    0.0000 O   0  0  0  0  0  0  0  0  0  0  0  0
   24.8180   -4.7402    0.0000 C   0  0  0  0  0  0  0  0  0  0  0  0
   19.3292   -8.4554    0.0000 C   0  0  0  0  0  0  0  0  0  0  0  0
   18.8216   -7.8050    0.0000 O   0  0  0  0  0  0  0  0  0  0  0  0
   18.0602   -8.1228    0.0000 C   0  0  0  0  0  0  0  0  0  0  0  0
   17.2432   -8.0082    0.0000 C   0  0  0  0  0  0  0  0  0  0  0  0
   17.7507   -8.6587    0.0000 C   0  0  0  0  0  0  0  0  0  0  0  0
   18.5122   -8.3410    0.0000 C   0  0  0  0  0  0  0  0  0  0  0  0
   16.5287   -8.4207    0.0000 O   0  0  0  0  0  0  0  0  0  0  0  0
   15.8142   -8.0082    0.0000 C   0  0  0  0  0  0  0  0  0  0  0  0
   15.3066   -7.3579    0.0000 O   0  0  0  0  0  0  0  0  0  0  0  0
   14.5452   -7.6757    0.0000 C   0  0  0  0  0  0  0  0  0  0  0  0
   13.7282   -7.5611    0.0000 C   0  0  0  0  0  0  0  0  0  0  0  0
   14.2358   -8.2115    0.0000 C   0  0  0  0  0  0  0  0  0  0  0  0
   14.9972   -7.8938    0.0000 C   0  0  0  0  0  0  0  0  0  0  0  0
   13.0137   -7.9736    0.0000 O   0  0  0  0  0  0  0  0  0  0  0  0
   12.2993   -7.5611    0.0000 C   0  0  0  0  0  0  0  0  0  0  0  0
   11.7917   -6.9107    0.0000 O   0  0  0  0  0  0  0  0  0  0  0  0
   11.0303   -7.2285    0.0000 C   0  0  0  0  0  0  0  0  0  0  0  0
   10.2133   -7.1139    0.0000 C   0  0  0  0  0  0  0  0  0  0  0  0
   10.7208   -7.7644    0.0000 C   0  0  0  0  0  0  0  0  0  0  0  0
   11.4823   -7.4467    0.0000 C   0  0  0  0  0  0  0  0  0  0  0  0
    9.4988   -7.5264    0.0000 O   0  0  0  0  0  0  0  0  0  0  0  0
    8.7843   -7.1139    0.0000 C   0  0  0  0  0  0  0  0  0  0  0  0
    8.2767   -6.4636    0.0000 O   0  0  0  0  0  0  0  0  0  0  0  0
    7.5153   -6.7814    0.0000 C   0  0  0  0  0  0  0  0  0  0  0  0
    6.6983   -6.6668    0.0000 C   0  0  0  0  0  0  0  0  0  0  0  0
    7.2059   -7.3172    0.0000 C   0  0  0  0  0  0  0  0  0  0  0  0
    7.9673   -6.9995    0.0000 C   0  0  0  0  0  0  0  0  0  0  0  0
   17.8467   -7.3259    0.0000 C   0  0  0  0  0  0  0  0  0  0  0  0
   14.3317   -6.8788    0.0000 C   0  0  0  0  0  0  0  0  0  0  0  0
   10.8168   -6.4316    0.0000 C   0  0  0  0  0  0  0  0  0  0  0  0
   11.4001   -5.8483    0.0000 O   0  0  0  0  0  0  0  0  0  0  0  0
   16.9538   -8.4451    0.0000 O   0  0  0  0  0  0  0  0  0  0  0  0
   16.3705   -9.0285    0.0000 C   0  0  0  0  0  0  0  0  0  0  0  0
   14.2358   -9.0365    0.0000 O   0  0  0  0  0  0  0  0  0  0  0  0
   13.5213   -9.4490    0.0000 C   0  0  0  0  0  0  0  0  0  0  0  0
    9.9239   -7.5508    0.0000 O   0  0  0  0  0  0  0  0  0  0  0  0
   12.0656   -8.0300    0.0000 O   0  0  0  0  0  0  0  0  0  0  0  0
    8.3798   -7.7140    0.0000 O   0  0  0  0  0  0  0  0  0  0  0  0
    7.1028   -6.0669    0.0000 C   0  0  0  0  0  0  0  0  0  0  0  0
    7.5153   -5.3524    0.0000 O   0  0  0  0  0  0  0  0  0  0  0  0
    5.9838   -7.0793    0.0000 O   0  0  0  0  0  0  0  0  0  0  0  0
    6.4090   -7.1037    0.0000 O   0  0  0  0  0  0  0  0  0  0  0  0
   15.5806   -8.4772    0.0000 O   0  0  0  0  0  0  0  0  0  0  0  0
   24.3305   -4.7429    0.0000 O   0  0  0  0  0  0  0  0  0  0  0  0
   22.9015   -4.7429    0.0000 C   0  0  0  0  0  0  0  0  0  0  0  0
   21.3621   -5.9804    0.0000 O   0  0  0  0  0  0  0  0  0  0  0  0
   22.1871   -5.1554    0.0000 C   0  0  0  0  0  0  0  0  0  0  0  0
   21.4726   -4.7429    0.0000 C   0  0  0  0  0  0  0  0  0  0  0  0
   22.5996   -4.4409    0.0000 C   0  0  0  0  0  0  0  0  0  0  0  0
   22.1871   -3.7264    0.0000 C   0  0  0  0  0  0  0  0  0  0  0  0
  1  2  1  0  0  0  0
  2  3  1  0  0  0  0
  3  4  1  0  0  0  0
  4  5  1  0  0  0  0
  5  6  1  0  0  0  0
  6  1  1  0  0  0  0
  4  7  1  0  0  0  0
  7  8  1  0  0  0  0
  8  9  1  0  0  0  0
  9 10  1  0  0  0  0
 10  5  1  0  0  0  0
  9 11  1  0  0  0  0
 11 12  1  0  0  0  0
 12 13  1  0  0  0  0
 13 14  1  0  0  0  0
 14 10  1  0  0  0  0
 11 15  1  0  0  0  0
 15 16  1  0  0  0  0
 16 17  1  0  0  0  0
 17 12  1  0  0  0  0
 13 18  1  1  0  0  0
 12 19  1  1  0  0  0
 11 20  1  1  0  0  0
  9 20  1  1  0  0  0
  5 21  1  1  0  0  0
  2 22  1  1  0  0  0
  4 23  1  6  0  0  0
 14 24  1  6  0  0  0
 10 25  1  6  0  0  0
 17 26  1  1  0  0  0
 26 27  2  0  0  0  0
 26 28  1  0  0  0  0
 22 29  1  0  0  0  0
 29 30  1  0  0  0  0
 30 31  1  0  0  0  0
 31 32  1  0  0  0  0
 32 33  1  0  0  0  0
 33 34  1  0  0  0  0
 34 29  1  0  0  0  0
 32 35  1  0  0  0  0
 35 36  1  0  0  0  0
 36 37  1  0  0  0  0
 37 38  1  0  0  0  0
 38 39  1  0  0  0  0
 39 40  1  0  0  0  0
 40 41  1  0  0  0  0
 41 36  1  0  0  0  0
 39 42  1  0  0  0  0
 42 43  1  0  0  0  0
 43 44  1  0  0  0  0
 44 45  1  0  0  0  0
 45 46  1  0  0  0  0
 46 47  1  0  0  0  0
 47 48  1  0  0  0  0
 48 43  1  0  0  0  0
 46 49  1  0  0  0  0
 49 50  1  0  0  0  0
 50 51  1  0  0  0  0
 51 52  1  0  0  0  0
 52 53  1  0  0  0  0
 53 54  1  0  0  0  0
 54 55  1  0  0  0  0
 55 50  1  0  0  0  0
 31 56  1  0  0  0  0
 38 57  1  0  0  0  0
 45 58  1  0  0  0  0
 58 59  1  0  0  0  0
 33 60  1  0  0  0  0
 60 61  1  0  0  0  0
 40 62  1  0  0  0  0
 62 63  1  0  0  0  0
 47 64  1  0  0  0  0
 48 65  1  0  0  0  0
 55 66  1  0  0  0  0
 52 67  1  0  0  0  0
 67 68  1  0  0  0  0
 53 69  1  0  0  0  0
 54 70  1  0  0  0  0
 41 71  1  0  0  0  0
 18 72  2  0  0  0  0
 18 73  1  0  0  0  0
 24 74  2  0  0  0  0
 24 75  1  0  0  0  0
 75 76  1  0  0  0  0
 75 77  1  0  0  0  0
 77 78  1  0  0  0  0
M  END
>  <cdx:fragmentId>
282

$$$$
