302509.cdx
  Mrv1902 05222410242D          

 20 21  0  0  0  0            999 V2000
    5.9961   -7.6972    0.0000 C   0  0  0  0  0  0  0  0  0  0  0  0
    5.2816   -8.1097    0.0000 C   0  0  0  0  0  0  0  0  0  0  0  0
    4.5671   -7.6972    0.0000 C   0  0  0  0  0  0  0  0  0  0  0  0
    5.9961   -6.8722    0.0000 O   0  0  0  0  0  0  0  0  0  0  0  0
    6.7105   -8.1097    0.0000 O   0  0  0  0  0  0  0  0  0  0  0  0
    4.5671   -6.8722    0.0000 C   0  0  0  0  0  0  0  0  0  0  0  0
    3.8526   -6.4597    0.0000 C   0  0  0  0  0  0  0  0  0  0  0  0
    3.8526   -5.6347    0.0000 C   0  0  0  0  0  0  0  0  0  0  0  0
    4.5671   -5.2222    0.0000 C   0  0  0  0  0  0  0  0  0  0  0  0
    5.2816   -5.6347    0.0000 C   0  0  0  0  0  0  0  0  0  0  0  0
    5.2816   -6.4597    0.0000 C   0  0  0  0  0  0  0  0  0  0  0  0
    7.4250   -7.6972    0.0000 C   0  0  0  0  0  0  0  0  0  0  0  0
    8.1395   -8.1097    0.0000 C   0  0  0  0  0  0  0  0  0  0  0  0
    8.8539   -7.6972    0.0000 C   0  0  0  0  0  0  0  0  0  0  0  0
    9.5684   -8.1097    0.0000 C   0  0  0  0  0  0  0  0  0  0  0  0
   10.2829   -7.6972    0.0000 C   0  0  0  0  0  0  0  0  0  0  0  0
   10.9974   -8.1097    0.0000 C   0  0  0  0  0  0  0  0  0  0  0  0
   10.9974   -8.9347    0.0000 C   0  0  0  0  0  0  0  0  0  0  0  0
   10.2829   -9.3472    0.0000 C   0  0  0  0  0  0  0  0  0  0  0  0
    9.5684   -8.9347    0.0000 C   0  0  0  0  0  0  0  0  0  0  0  0
  1  2  1  0  0  0  0
  2  3  2  0  0  0  0
  1  4  2  0  0  0  0
  1  5  1  0  0  0  0
  6  7  1  0  0  0  0
  7  8  2  0  0  0  0
  8  9  1  0  0  0  0
  9 10  2  0  0  0  0
 10 11  1  0  0  0  0
  6 11  2  0  0  0  0
  3  6  1  0  0  0  0
 12 13  1  0  0  0  0
 13 14  2  0  0  0  0
 15 16  1  0  0  0  0
 16 17  2  0  0  0  0
 17 18  1  0  0  0  0
 18 19  2  0  0  0  0
 19 20  1  0  0  0  0
 15 20  2  0  0  0  0
 14 15  1  0  0  0  0
  5 12  1  0  0  0  0
M  END
>  <cdx:groupId>
63

>  <cdx:fragmentId>
15

$$$$
