302592.cdx
  Mrv1902 05222410262D          

 24 27  0  0  0  0            999 V2000
   10.8280  -11.3993    0.0000 C   0  0  0  0  0  0  0  0  0  0  0  0
   10.0460  -11.1365    0.0000 O   0  0  0  0  0  0  0  0  0  0  0  0
    8.6454  -11.4195    0.0000 C   0  0  0  0  0  0  0  0  0  0  0  0
    8.4820  -10.6109    0.0000 O   0  0  0  0  0  0  0  0  0  0  0  0
    8.9372   -9.2564    0.0000 C   0  0  0  0  0  0  0  0  0  0  0  0
    9.1006  -10.0650    0.0000 C   0  0  0  0  0  0  0  0  0  0  0  0
    9.8826  -10.3278    0.0000 C   0  0  0  0  0  0  0  0  0  0  0  0
   10.5012   -9.7820    0.0000 C   0  0  0  0  0  0  0  0  0  0  0  0
   10.3378   -8.9733    0.0000 C   0  0  0  0  0  0  0  0  0  0  0  0
    9.5558   -8.7105    0.0000 C   0  0  0  0  0  0  0  0  0  0  0  0
    9.3924   -7.9019    0.0000 C   0  0  0  0  0  0  0  0  0  0  0  0
    7.9298   -8.9422    0.0000 O   0  0  0  0  0  0  0  0  0  0  0  0
    8.6104   -7.6391    0.0000 C   0  0  0  0  0  0  0  0  0  0  0  0
    7.9381   -8.1172    0.0000 C   0  0  0  0  0  0  0  0  0  0  0  0
    8.3633   -6.8519    0.0000 S   0  0  0  0  0  0  0  0  0  0  0  0
    5.8924   -8.2249    0.0000 C   0  0  0  0  0  0  0  0  0  0  0  0
    5.0872   -8.0452    0.0000 C   0  0  0  0  0  0  0  0  0  0  0  0
    4.8402   -7.2581    0.0000 C   0  0  0  0  0  0  0  0  0  0  0  0
    5.3984   -6.6506    0.0000 C   0  0  0  0  0  0  0  0  0  0  0  0
    7.2756   -7.6256    0.0000 N   0  0  0  0  0  0  0  0  0  0  0  0
    6.4506   -7.6173    0.0000 C   0  0  0  0  0  0  0  0  0  0  0  0
    6.2036   -6.8302    0.0000 C   0  0  0  0  0  0  0  0  0  0  0  0
    6.8759   -6.3520    0.0000 N   0  0  0  0  0  0  0  0  0  0  0  0
    7.5384   -6.8436    0.0000 C   0  0  0  0  0  0  0  0  0  0  0  0
  2  1  1  0  0  0  0
  7  2  1  0  0  0  0
  4  3  1  0  0  0  0
  6  4  1  0  0  0  0
  5 10  1  0  0  0  0
  6  5  2  0  0  0  0
  7  6  1  0  0  0  0
  8  7  2  0  0  0  0
  9  8  1  0  0  0  0
 10  9  2  0  0  0  0
 11 10  1  0  0  0  0
 13 11  2  0  0  0  0
 14 12  2  0  0  0  0
 15 24  1  0  0  0  0
 14 20  1  0  0  0  0
 15 13  1  0  0  0  0
 14 13  1  0  0  0  0
 19 22  2  0  0  0  0
 16 21  2  0  0  0  0
 17 16  1  0  0  0  0
 18 17  2  0  0  0  0
 19 18  1  0  0  0  0
 24 20  1  0  0  0  0
 21 20  1  0  0  0  0
 22 21  1  0  0  0  0
 23 22  1  0  0  0  0
 24 23  2  0  0  0  0
M  END
>  <cdx:fragmentId>
5

$$$$
