302595.cdx
  Mrv1902 05222410272D          

  5  5  0  0  0  0            999 V2000
    8.1095   -7.0661    0.0000 C   0  0  0  0  0  0  0  0  0  0  0  0
    7.8475   -7.8484    0.0000 C   0  0  0  0  0  0  0  0  0  0  0  0
    7.0225   -7.8409    0.0000 C   0  0  0  0  0  0  0  0  0  0  0  0
    6.7747   -7.0540    0.0000 C   0  0  0  0  0  0  0  0  0  0  0  0
    7.4465   -6.5752    0.0000 S   0  0  0  0  0  0  0  0  0  0  0  0
  1  2  2  0  0  0  0
  2  3  1  0  0  0  0
  3  4  2  0  0  0  0
  4  5  1  0  0  0  0
  1  5  1  0  0  0  0
M  END
>  <cdx:fragmentId>
5

$$$$
