302517.cdx
  Mrv1902 05222410222D          

 29 32  0  0  0  0            999 V2000
    7.4250  -10.1722    0.0000 C   0  0  0  0  0  0  0  0  0  0  0  0
    8.1395  -10.5847    0.0000 C   0  0  0  0  0  0  0  0  0  0  0  0
    8.1395  -11.4097    0.0000 C   0  0  0  0  0  0  0  0  0  0  0  0
    7.4250  -11.8222    0.0000 C   0  0  0  0  0  0  0  0  0  0  0  0
    6.7105  -11.4097    0.0000 C   0  0  0  0  0  0  0  0  0  0  0  0
    5.9961  -11.8222    0.0000 C   0  0  0  0  0  0  0  0  0  0  0  0
    5.2816  -11.4097    0.0000 C   0  0  0  0  0  0  0  0  0  0  0  0
    5.2816  -10.5847    0.0000 C   0  0  0  0  0  0  0  0  0  0  0  0
    5.9961  -10.1722    0.0000 C   0  0  0  0  0  0  0  0  0  0  0  0
    6.7105  -10.5847    0.0000 C   0  0  0  0  0  0  0  0  0  0  0  0
    8.8539  -10.1722    0.0000 O   0  0  0  0  0  0  0  0  0  0  0  0
    7.4250   -9.3472    0.0000 N   0  0  0  0  0  0  0  0  0  0  0  0
    8.1395   -8.9347    0.0000 N   0  0  0  0  0  0  0  0  0  0  0  0
    8.1395   -8.1097    0.0000 C   0  0  0  0  0  0  0  0  0  0  0  0
    7.4250   -7.6972    0.0000 C   0  0  0  0  0  0  0  0  0  0  0  0
    7.4250   -6.8722    0.0000 C   0  0  0  0  0  0  0  0  0  0  0  0
    8.1395   -6.4597    0.0000 C   0  0  0  0  0  0  0  0  0  0  0  0
    8.8539   -6.8722    0.0000 C   0  0  0  0  0  0  0  0  0  0  0  0
    8.8539   -7.6972    0.0000 C   0  0  0  0  0  0  0  0  0  0  0  0
    8.1395   -5.6347    0.0000 N   0  0  0  0  0  0  0  0  0  0  0  0
    8.8539   -5.2222    0.0000 N   0  0  0  0  0  0  0  0  0  0  0  0
    8.8539   -4.3972    0.0000 C   0  0  0  0  0  0  0  0  0  0  0  0
    8.1395   -3.9847    0.0000 C   0  0  0  0  0  0  0  0  0  0  0  0
    8.1395   -3.1597    0.0000 C   0  0  0  0  0  0  0  0  0  0  0  0
    8.8539   -2.7472    0.0000 C   0  0  0  0  0  0  0  0  0  0  0  0
    9.5684   -3.1597    0.0000 C   0  0  0  0  0  0  0  0  0  0  0  0
    9.5684   -3.9847    0.0000 C   0  0  0  0  0  0  0  0  0  0  0  0
    7.4250   -4.3972    0.0000 C   0  0  0  0  0  0  0  0  0  0  0  0
    6.7105   -8.1097    0.0000 C   0  0  0  0  0  0  0  0  0  0  0  0
  1  2  1  0  0  0  0
  2  3  2  0  0  0  0
  3  4  1  0  0  0  0
  4  5  2  0  0  0  0
  5  6  1  0  0  0  0
  6  7  2  0  0  0  0
  7  8  1  0  0  0  0
  8  9  2  0  0  0  0
  9 10  1  0  0  0  0
  1 10  2  0  0  0  0
  5 10  1  0  0  0  0
  2 11  1  0  0  0  0
 12 13  2  0  0  0  0
 14 15  1  0  0  0  0
 15 16  2  0  0  0  0
 16 17  1  0  0  0  0
 17 18  2  0  0  0  0
 18 19  1  0  0  0  0
 14 19  2  0  0  0  0
 20 21  2  0  0  0  0
 22 23  1  0  0  0  0
 23 24  2  0  0  0  0
 24 25  1  0  0  0  0
 25 26  2  0  0  0  0
 26 27  1  0  0  0  0
 22 27  2  0  0  0  0
 23 28  1  0  0  0  0
 21 22  1  0  0  0  0
 17 20  1  0  0  0  0
 15 29  1  0  0  0  0
 13 14  1  0  0  0  0
  1 12  1  0  0  0  0
M  END
>  <cdx:groupId>
92

>  <cdx:fragmentId>
47

$$$$
