30259.cdx
  Mrv1902 05222410282D          

 13 13  0  0  0  0            999 V2000
    6.0481   -9.4039    0.0000 C   0  0  0  0  0  0  0  0  0  0  0  0
    6.0481  -10.2289    0.0000 C   0  0  0  0  0  0  0  0  0  0  0  0
    6.7625  -10.6414    0.0000 C   0  0  0  0  0  0  0  0  0  0  0  0
    7.4770  -10.2289    0.0000 C   0  0  0  0  0  0  0  0  0  0  0  0
    7.4770   -9.4039    0.0000 C   0  0  0  0  0  0  0  0  0  0  0  0
    6.7625   -8.9914    0.0000 C   0  0  0  0  0  0  0  0  0  0  0  0
    6.7625  -11.4664    0.0000 O   0  0  0  0  0  0  0  0  0  0  0  0
    6.0481  -11.8789    0.0000 C   0  0  0  0  0  0  0  0  0  0  0  0
    6.7625   -8.1664    0.0000 C   0  0  0  0  0  0  0  0  0  0  0  0
    6.0481   -7.7539    0.0000 C   0  0  0  0  0  0  0  0  0  0  0  0
    7.4770   -7.7539    0.0000 C   0  0  0  0  0  0  0  0  0  0  0  0
    7.4770   -6.9289    0.0000 C   0  0  0  0  0  0  0  0  0  0  0  0
    6.7625   -7.8226    0.0000 H   0  0  0  0  0  0  0  0  0  0  0  0
  1  2  2  0  0  0  0
  2  3  1  0  0  0  0
  3  4  2  0  0  0  0
  4  5  1  0  0  0  0
  5  6  2  0  0  0  0
  6  1  1  0  0  0  0
  3  7  1  0  0  0  0
  7  8  1  0  0  0  0
  6  9  1  0  0  0  0
  9 10  1  0  0  0  0
  9 11  1  0  0  0  0
 11 12  1  0  0  0  0
  9 13  1  0  0  0  0
M  END
>  <cdx:fragmentId>
5

$$$$
