302597.cdx
  Mrv1902 05222410282D          

 20 19  0  0  0  0            999 V2000
    5.6388   -6.2612    0.0000 C   0  0  0  0  0  0  0  0  0  0  0  0
    6.3533   -5.0237    0.0000 O   0  0  0  0  0  0  0  0  0  0  0  0
    6.3533   -5.8487    0.0000 C   0  0  0  0  0  0  0  0  0  0  0  0
    7.0678   -6.2612    0.0000 O   0  0  0  0  0  0  0  0  0  0  0  0
    9.2112   -8.3237    0.0000 C   0  0  0  0  0  0  0  0  0  0  0  0
    8.4967   -9.5612    0.0000 O   0  0  0  0  0  0  0  0  0  0  0  0
    8.4967   -8.7362    0.0000 C   0  0  0  0  0  0  0  0  0  0  0  0
    7.7822   -8.3237    0.0000 O   0  0  0  0  0  0  0  0  0  0  0  0
   10.6401   -7.4987    0.0000 C   0  0  0  0  0  0  0  0  0  0  0  0
    9.9256   -6.2612    0.0000 O   0  0  0  0  0  0  0  0  0  0  0  0
    9.9256   -7.0862    0.0000 C   0  0  0  0  0  0  0  0  0  0  0  0
    9.2112   -7.4987    0.0000 O   0  0  0  0  0  0  0  0  0  0  0  0
    8.4967   -7.0862    0.0000 C   0  0  0  0  0  0  0  0  0  0  0  0
    7.7822   -7.4987    0.0000 C   0  0  2  0  0  0  0  0  0  0  0  0
    7.0678   -7.0862    0.0000 C   0  0  1  0  0  0  0  0  0  0  0  0
    6.3533   -7.4987    0.0000 C   0  0  0  0  0  0  0  0  0  0  0  0
    5.6388   -7.0862    0.0000 O   0  0  0  0  0  0  0  0  0  0  0  0
    4.9244   -8.3237    0.0000 O   0  0  0  0  0  0  0  0  0  0  0  0
    4.2099   -7.0862    0.0000 C   0  0  0  0  0  0  0  0  0  0  0  0
    4.9244   -7.4987    0.0000 C   0  0  0  0  0  0  0  0  0  0  0  0
 17 16  1  0  0  0  0
 15  4  1  1  0  0  0
  4  3  1  0  0  0  0
  3  1  1  0  0  0  0
  3  2  2  0  0  0  0
 14  8  1  1  0  0  0
  8  7  1  0  0  0  0
  7  5  1  0  0  0  0
  7  6  2  0  0  0  0
 13 12  1  0  0  0  0
 12 11  1  0  0  0  0
 11  9  1  0  0  0  0
 11 10  2  0  0  0  0
 14 13  1  0  0  0  0
 15 14  1  0  0  0  0
 16 15  1  0  0  0  0
 20 17  1  0  0  0  0
 20 18  2  0  0  0  0
 20 19  1  0  0  0  0
M  END
>  <cdx:fragmentId>
23

$$$$
