302563.cdx
  Mrv1902 05222410192D          

 25 27  0  0  0  0            999 V2000
    5.8901  -10.1852    0.0000 C   0  0  0  0  0  0  0  0  0  0  0  0
    5.1762   -9.7718    0.0000 C   0  0  0  0  0  0  0  0  0  0  0  0
    4.4612  -10.1833    0.0000 C   0  0  0  0  0  0  0  0  0  0  0  0
    3.7472   -9.7699    0.0000 C   0  0  0  0  0  0  0  0  0  0  0  0
    8.0362   -8.1255    0.0000 H   0  0  0  0  0  0  0  0  0  0  0  0
   10.1780   -9.3658    0.0000 H   0  0  0  0  0  0  0  0  0  0  0  0
   10.2880   -9.7784    0.0000 C   0  0  0  0  0  0  0  0  0  0  0  0
    9.8746  -10.4923    0.0000 C   0  0  0  0  0  0  0  0  0  0  0  0
    9.4673   -6.4773    0.0000 C   0  0  0  0  0  0  0  0  0  0  0  0
    3.0322  -10.1815    0.0000 C   0  0  0  0  0  0  0  0  0  0  0  0
    7.3223   -7.7121    0.0000 O   0  0  0  0  0  0  0  0  0  0  0  0
   10.1791   -8.5408    0.0000 C   0  0  0  0  0  0  0  0  0  0  0  0
   10.1802   -7.7158    0.0000 C   0  0  0  0  0  0  0  0  0  0  0  0
    9.4662   -7.3023    0.0000 C   0  0  0  0  0  0  0  0  0  0  0  0
    8.7512   -7.7139    0.0000 C   0  0  0  0  0  0  0  0  0  0  0  0
    8.7480  -10.1889    0.0000 O   0  0  0  0  0  0  0  0  0  0  0  0
    8.0341   -9.7755    0.0000 C   0  0  0  0  0  0  0  0  0  0  0  0
    7.3191  -10.1871    0.0000 C   0  0  0  0  0  0  0  0  0  0  0  0
    6.6051   -9.7736    0.0000 C   0  0  0  0  0  0  0  0  0  0  0  0
    6.6062   -8.9486    0.0000 C   0  0  0  0  0  0  0  0  0  0  0  0
    7.3212   -8.5371    0.0000 C   0  0  0  0  0  0  0  0  0  0  0  0
    8.0351   -8.9505    0.0000 C   0  0  0  0  0  0  0  0  0  0  0  0
    8.7502   -8.5389    0.0000 C   0  0  1  0  0  0  0  0  0  0  0  0
    9.4641   -8.9523    0.0000 C   0  0  2  0  0  0  0  0  0  0  0  0
    9.4630   -9.7773    0.0000 C   0  0  0  0  0  0  0  0  0  0  0  0
 23  5  1  1  0  0  0
 24  6  1  6  0  0  0
 25  7  1  0  0  0  0
 25  8  1  0  0  0  0
 14  9  1  0  0  0  0
 19  1  1  0  0  0  0
 21 11  1  0  0  0  0
 15 23  1  0  0  0  0
 12 24  1  0  0  0  0
 13 12  1  0  0  0  0
 14 13  1  0  0  0  0
 15 14  2  0  0  0  0
 25 16  1  0  0  0  0
 17 16  1  0  0  0  0
 22 17  2  0  0  0  0
 18 17  1  0  0  0  0
 19 18  2  0  0  0  0
 20 19  1  0  0  0  0
 21 20  2  0  0  0  0
 22 21  1  0  0  0  0
 23 22  1  0  0  0  0
 24 23  1  0  0  0  0
 25 24  1  0  0  0  0
  1  2  1  0  0  0  0
  2  3  1  0  0  0  0
  3  4  1  0  0  0  0
  4 10  1  0  0  0  0
M  END
>  <cdx:fragmentId>
5

$$$$
