302523.cdx
  Mrv1902 05222410262D          

 54 58  0  0  0  0            999 V2000
    4.5067   -7.8411    0.0000 C   0  0  1  0  0  0  0  0  0  0  0  0
    5.2211   -7.4286    0.0000 C   0  0  1  0  0  0  0  0  0  0  0  0
    5.2211   -6.6036    0.0000 C   0  0  1  0  0  0  0  0  0  0  0  0
    4.5067   -6.1911    0.0000 C   0  0  0  0  0  0  0  0  0  0  0  0
    3.7922   -6.6036    0.0000 C   0  0  0  0  0  0  0  0  0  0  0  0
    3.7922   -7.4286    0.0000 O   0  0  0  0  0  0  0  0  0  0  0  0
    6.0058   -6.3487    0.0000 C   0  0  0  0  0  0  0  0  0  0  0  0
    6.4907   -7.0161    0.0000 C   0  0  1  0  0  0  0  0  0  0  0  0
    6.0058   -7.6835    0.0000 C   0  0  2  0  0  0  0  0  0  0  0  0
    4.5067   -5.3661    0.0000 C   0  0  0  0  0  0  0  0  0  0  0  0
    5.2211   -4.9536    0.0000 O   0  0  0  0  0  0  0  0  0  0  0  0
    3.7922   -4.9536    0.0000 O   0  0  0  0  0  0  0  0  0  0  0  0
    4.5067   -8.6661    0.0000 O   0  0  0  0  0  0  0  0  0  0  0  0
    3.0777   -8.6661    0.0000 O   0  0  0  0  0  0  0  0  0  0  0  0
    3.7922   -9.0786    0.0000 C   0  0  2  0  0  0  0  0  0  0  0  0
    3.7922   -9.9036    0.0000 C   0  0  1  0  0  0  0  0  0  0  0  0
    3.0777  -10.3161    0.0000 C   0  0  2  0  0  0  0  0  0  0  0  0
    2.3633   -9.9036    0.0000 C   0  0  1  0  0  0  0  0  0  0  0  0
    2.3633   -9.0786    0.0000 C   0  0  1  0  0  0  0  0  0  0  0  0
    1.6488   -8.6661    0.0000 C   0  0  0  0  0  0  0  0  0  0  0  0
    0.9343   -9.0786    0.0000 O   0  0  0  0  0  0  0  0  0  0  0  0
    1.6488  -10.3161    0.0000 O   0  0  0  0  0  0  0  0  0  0  0  0
    3.0777  -11.1411    0.0000 O   0  0  0  0  0  0  0  0  0  0  0  0
    4.5067  -10.3161    0.0000 O   0  0  0  0  0  0  0  0  0  0  0  0
    6.2607   -8.4682    0.0000 C   0  0  0  0  0  0  0  0  0  0  0  0
    7.3157   -7.0161    0.0000 O   0  0  0  0  0  0  0  0  0  0  0  0
    7.7282   -6.3016    0.0000 C   0  0  0  0  0  0  0  0  0  0  0  0
    7.3157   -5.5872    0.0000 O   0  0  0  0  0  0  0  0  0  0  0  0
    8.5532   -4.8727    0.0000 C   0  0  0  0  0  0  0  0  0  0  0  0
    8.9657   -4.1582    0.0000 C   0  0  0  0  0  0  0  0  0  0  0  0
   11.0282   -6.3016    0.0000 O   0  0  0  0  0  0  0  0  0  0  0  0
   11.7554   -7.5317    0.0000 O   0  0  0  0  0  0  0  0  0  0  0  0
   11.7469   -6.7068    0.0000 C   0  0  2  0  0  0  0  0  0  0  0  0
   12.4571   -6.2869    0.0000 C   0  0  1  0  0  0  0  0  0  0  0  0
   13.1757   -6.6921    0.0000 C   0  0  2  0  0  0  0  0  0  0  0  0
   13.1842   -7.5170    0.0000 C   0  0  1  0  0  0  0  0  0  0  0  0
   12.4740   -7.9368    0.0000 C   0  0  1  0  0  0  0  0  0  0  0  0
   12.4825   -8.7618    0.0000 C   0  0  0  0  0  0  0  0  0  0  0  0
   13.1970   -9.1743    0.0000 O   0  0  0  0  0  0  0  0  0  0  0  0
   13.9029   -7.9221    0.0000 O   0  0  0  0  0  0  0  0  0  0  0  0
   13.8859   -6.2722    0.0000 O   0  0  0  0  0  0  0  0  0  0  0  0
   12.4486   -5.4620    0.0000 O   0  0  0  0  0  0  0  0  0  0  0  0
    5.3074   -5.7831    0.0000 H   0  0  0  0  0  0  0  0  0  0  0  0
    5.3074   -8.2491    0.0000 H   0  0  0  0  0  0  0  0  0  0  0  0
    3.7922   -4.1286    0.0000 C   0  0  0  0  0  0  0  0  0  0  0  0
   11.0282   -4.8727    0.0000 C   0  0  0  0  0  0  0  0  0  0  0  0
   10.2032   -4.8727    0.0000 C   0  0  0  0  0  0  0  0  0  0  0  0
    8.5532   -3.4437    0.0000 O   0  0  0  0  0  0  0  0  0  0  0  0
    9.7907   -7.0161    0.0000 O   0  0  0  0  0  0  0  0  0  0  0  0
    8.9657   -7.0161    0.0000 C   0  0  0  0  0  0  0  0  0  0  0  0
    8.5532   -6.3016    0.0000 C   0  0  0  0  0  0  0  0  0  0  0  0
    8.9657   -5.5872    0.0000 C   0  0  2  0  0  0  0  0  0  0  0  0
    9.7907   -5.5872    0.0000 C   0  0  2  0  0  0  0  0  0  0  0  0
   10.2032   -6.3016    0.0000 C   0  0  2  0  0  0  0  0  0  0  0  0
 53 47  1  1  0  0  0
 47 46  2  0  0  0  0
 52 29  1  1  0  0  0
 54 31  1  6  0  0  0
 54 49  1  0  0  0  0
 50 49  1  0  0  0  0
 51 50  2  0  0  0  0
 52 51  1  0  0  0  0
 53 52  1  0  0  0  0
  1  2  1  0  0  0  0
  2  3  1  0  0  0  0
  3  4  1  0  0  0  0
  4  5  2  0  0  0  0
  5  6  1  0  0  0  0
  1  6  1  0  0  0  0
  7  8  1  0  0  0  0
  8  9  1  0  0  0  0
  9  2  1  0  0  0  0
  7  3  1  0  0  0  0
 10 11  2  0  0  0  0
 10 12  1  0  0  0  0
  4 10  1  0  0  0  0
 14 15  1  0  0  0  0
 15 16  1  0  0  0  0
 16 17  1  0  0  0  0
 17 18  1  0  0  0  0
 18 19  1  0  0  0  0
 14 19  1  0  0  0  0
 20 21  1  0  0  0  0
 19 20  1  1  0  0  0
 18 22  1  6  0  0  0
 17 23  1  1  0  0  0
 16 24  1  6  0  0  0
 15 13  1  1  0  0  0
  1 13  1  6  0  0  0
  9 25  1  6  0  0  0
 27 28  2  0  0  0  0
 54 53  1  0  0  0  0
 29 30  1  0  0  0  0
 30 48  1  0  0  0  0
 27 51  1  0  0  0  0
 32 33  1  0  0  0  0
 33 34  1  0  0  0  0
 34 35  1  0  0  0  0
 35 36  1  0  0  0  0
 36 37  1  0  0  0  0
 32 37  1  0  0  0  0
 38 39  1  0  0  0  0
 37 38  1  1  0  0  0
 36 40  1  6  0  0  0
 35 41  1  1  0  0  0
 34 42  1  6  0  0  0
 33 31  1  1  0  0  0
 26 27  1  0  0  0  0
  8 26  1  6  0  0  0
  3 43  1  6  0  0  0
  2 44  1  6  0  0  0
 12 45  1  0  0  0  0
M  END
>  <cdx:fragmentId>
75

$$$$
