30255.cdx
  Mrv1902 05222410182D          

  8  8  0  0  0  0            999 V2000
    6.4285   -9.4176    0.0000 C   0  0  0  0  0  0  0  0  0  0  0  0
    6.4285  -10.2426    0.0000 C   0  0  0  0  0  0  0  0  0  0  0  0
    7.2131  -10.4976    0.0000 C   0  0  0  0  0  0  0  0  0  0  0  0
    7.6981   -9.8301    0.0000 C   0  0  0  0  0  0  0  0  0  0  0  0
    7.2131   -9.1627    0.0000 C   0  0  0  0  0  0  0  0  0  0  0  0
    7.4681   -8.3781    0.0000 C   0  0  0  0  0  0  0  0  0  0  0  0
    8.2650   -8.1646    0.0000 C   0  0  0  0  0  0  0  0  0  0  0  0
    5.7611  -10.7276    0.0000 C   0  0  0  0  0  0  0  0  0  0  0  0
  1  2  1  0  0  0  0
  2  3  1  0  0  0  0
  3  4  1  0  0  0  0
  4  5  1  0  0  0  0
  5  1  1  0  0  0  0
  5  6  1  0  0  0  0
  6  7  1  0  0  0  0
  2  8  1  0  0  0  0
M  END
>  <cdx:fragmentId>
5

$$$$
