30251.cdx
  Mrv1902 05222410202D          

 20 22  0  0  0  0            999 V2000
    3.0368   -8.6201    0.0000 C   0  0  0  0  0  0  0  0  0  0  0  0
    3.0368   -9.4451    0.0000 C   0  0  0  0  0  0  0  0  0  0  0  0
    3.7513   -9.8576    0.0000 C   0  0  0  0  0  0  0  0  0  0  0  0
    4.4657   -9.4451    0.0000 C   0  0  0  0  0  0  0  0  0  0  0  0
    4.4657   -8.6201    0.0000 C   0  0  0  0  0  0  0  0  0  0  0  0
    3.7513   -8.2076    0.0000 C   0  0  0  0  0  0  0  0  0  0  0  0
    5.2504   -9.7001    0.0000 C   0  0  0  0  0  0  0  0  0  0  0  0
    5.7353   -9.0326    0.0000 C   0  0  0  0  0  0  0  0  0  0  0  0
    5.2504   -8.3652    0.0000 N   0  0  0  0  0  0  0  0  0  0  0  0
    5.5859  -10.4538    0.0000 C   0  0  0  0  0  0  0  0  0  0  0  0
    6.4064  -10.5400    0.0000 C   0  0  0  0  0  0  0  0  0  0  0  0
    6.8913   -9.8726    0.0000 N   0  0  0  0  0  0  0  0  0  0  0  0
    6.5558   -9.1189    0.0000 C   0  0  0  0  0  0  0  0  0  0  0  0
    7.0407   -8.4514    0.0000 C   0  0  0  0  0  0  0  0  0  0  0  0
    6.7051   -7.6978    0.0000 O   0  0  0  0  0  0  0  0  0  0  0  0
    7.8612   -8.5377    0.0000 C   0  0  0  0  0  0  0  0  0  0  0  0
    6.7420  -11.2937    0.0000 C   0  0  0  0  0  0  0  0  0  0  0  0
    6.2570  -11.9611    0.0000 O   0  0  0  0  0  0  0  0  0  0  0  0
    7.5624  -11.3799    0.0000 O   0  0  0  0  0  0  0  0  0  0  0  0
    7.9749  -12.0944    0.0000 C   0  0  0  0  0  0  0  0  0  0  0  0
  1  2  2  0  0  0  0
  2  3  1  0  0  0  0
  3  4  2  0  0  0  0
  4  5  1  0  0  0  0
  5  6  2  0  0  0  0
  6  1  1  0  0  0  0
  4  7  1  0  0  0  0
  7  8  2  0  0  0  0
  8  9  1  0  0  0  0
  9  5  1  0  0  0  0
  7 10  1  0  0  0  0
 10 11  2  0  0  0  0
 11 12  1  0  0  0  0
 12 13  2  0  0  0  0
 13  8  1  0  0  0  0
 13 14  1  0  0  0  0
 14 15  2  0  0  0  0
 14 16  1  0  0  0  0
 11 17  1  0  0  0  0
 17 18  2  0  0  0  0
 17 19  1  0  0  0  0
 19 20  1  0  0  0  0
M  END
>  <cdx:fragmentId>
5

$$$$
