302549.cdx
  Mrv1902 05222410202D          

 19 20  0  0  0  0            999 V2000
   10.0065   -7.0480    0.0000 C   0  0  0  0  0  0  0  0  0  0  0  0
    9.5216   -6.3805    0.0000 C   0  0  0  0  0  0  0  0  0  0  0  0
    9.6709   -7.8016    0.0000 O   0  0  0  0  0  0  0  0  0  0  0  0
   10.8270   -6.9617    0.0000 O   0  0  0  0  0  0  0  0  0  0  0  0
    8.1491   -5.8537    0.0000 N   0  0  0  0  0  0  0  0  0  0  0  0
    8.7011   -6.4668    0.0000 C   0  0  0  0  0  0  0  0  0  0  0  0
    8.2886   -7.1812    0.0000 C   0  0  0  0  0  0  0  0  0  0  0  0
    7.4816   -7.0097    0.0000 C   0  0  0  0  0  0  0  0  0  0  0  0
    7.3954   -6.1892    0.0000 C   0  0  0  0  0  0  0  0  0  0  0  0
    6.6809   -5.7767    0.0000 C   0  0  0  0  0  0  0  0  0  0  0  0
    5.9665   -6.1892    0.0000 C   0  0  0  0  0  0  0  0  0  0  0  0
    5.9665   -7.0142    0.0000 C   0  0  0  0  0  0  0  0  0  0  0  0
    5.2520   -7.4267    0.0000 C   0  0  0  0  0  0  0  0  0  0  0  0
    4.5375   -7.0142    0.0000 C   0  0  0  0  0  0  0  0  0  0  0  0
    4.5375   -6.1892    0.0000 C   0  0  0  0  0  0  0  0  0  0  0  0
    5.2520   -5.7767    0.0000 C   0  0  0  0  0  0  0  0  0  0  0  0
    6.6809   -4.9517    0.0000 O   0  0  0  0  0  0  0  0  0  0  0  0
    3.8230   -7.4267    0.0000 C   0  0  0  0  0  0  0  0  0  0  0  0
    8.3206   -5.0467    0.0000 C   0  0  0  0  0  0  0  0  0  0  0  0
  1  2  1  0  0  0  0
  1  3  2  0  0  0  0
  1  4  1  0  0  0  0
  5  6  1  0  0  0  0
  6  7  2  0  0  0  0
  7  8  1  0  0  0  0
  8  9  2  0  0  0  0
  5  9  1  0  0  0  0
 10 11  1  0  0  0  0
 11 12  1  0  0  0  0
 12 13  2  0  0  0  0
 13 14  1  0  0  0  0
 14 15  2  0  0  0  0
 15 16  1  0  0  0  0
 11 16  2  0  0  0  0
 10 17  2  0  0  0  0
 14 18  1  0  0  0  0
  9 10  1  0  0  0  0
  5 19  1  0  0  0  0
  2  6  1  0  0  0  0
M  END
>  <cdx:groupId>
324

>  <cdx:fragmentId>
287

$$$$
