302512.cdx
  Mrv1902 05222410202D          

 19 18  0  0  0  0            999 V2000
   10.0784   -6.4949    0.0000 O   0  0  0  0  0  0  0  0  0  0  0  0
    9.3639   -6.0824    0.0000 C   0  0  0  0  0  0  0  0  0  0  0  0
    8.6495   -6.4949    0.0000 C   0  0  0  0  0  0  0  0  0  0  0  0
    9.3639   -5.2574    0.0000 O   0  0  0  0  0  0  0  0  0  0  0  0
    7.9361   -6.0824    0.0000 C   0  0  0  0  0  0  0  0  0  0  0  0
    7.2216   -6.4949    0.0000 C   0  0  0  0  0  0  0  0  0  0  0  0
    6.5071   -6.0824    0.0000 N   0  0  0  0  0  0  0  0  0  0  0  0
    7.2216   -7.3199    0.0000 O   0  0  0  0  0  0  0  0  0  0  0  0
    5.7926   -6.4949    0.0000 C   0  0  2  0  0  0  0  0  0  0  0  0
    5.0782   -6.0824    0.0000 C   0  0  0  0  0  0  0  0  0  0  0  0
    4.3637   -6.4949    0.0000 O   0  0  0  0  0  0  0  0  0  0  0  0
    5.0782   -5.2574    0.0000 O   0  0  0  0  0  0  0  0  0  0  0  0
    5.7926   -7.3199    0.0000 C   0  0  0  0  0  0  0  0  0  0  0  0
    5.0782   -7.7324    0.0000 C   0  0  0  0  0  0  0  0  0  0  0  0
    5.0782   -8.5574    0.0000 C   0  0  0  0  0  0  0  0  0  0  0  0
    4.3637   -8.9699    0.0000 N   0  0  0  0  0  0  0  0  0  0  0  0
    4.3637   -9.7949    0.0000 C   0  0  0  0  0  0  0  0  0  0  0  0
    5.0782  -10.2074    0.0000 N   0  0  0  0  0  0  0  0  0  0  0  0
    3.6492  -10.2074    0.0000 N   0  0  0  0  0  0  0  0  0  0  0  0
  1  2  1  0  0  0  0
  2  3  1  0  0  0  0
  2  4  2  0  0  0  0
  5  6  1  0  0  0  0
  6  7  1  0  0  0  0
  6  8  2  0  0  0  0
  9  7  1  1  0  0  0
  9 10  1  0  0  0  0
 10 11  1  0  0  0  0
 10 12  2  0  0  0  0
  9 13  1  0  0  0  0
 13 14  1  0  0  0  0
 14 15  1  0  0  0  0
 15 16  1  0  0  0  0
 16 17  2  0  0  0  0
 17 18  1  0  0  0  0
 17 19  1  0  0  0  0
  3  5  1  0  0  0  0
M  END
>  <cdx:fragmentId>
5

$$$$
