302585.cdx
  Mrv1902 05222410272D          

 14 15  0  0  0  0            999 V2000
    7.7192   -8.1374    0.0000 O   0  0  0  0  0  0  0  0  0  0  0  0
    8.4913   -7.8467    0.0000 C   0  0  1  0  0  0  0  0  0  0  0  0
    8.4534   -7.0226    0.0000 C   0  0  0  0  0  0  0  0  0  0  0  0
    7.6579   -6.8040    0.0000 C   0  0  0  0  0  0  0  0  0  0  0  0
    7.2042   -7.4930    0.0000 C   0  0  2  0  0  0  0  0  0  0  0  0
    9.1803   -8.3005    0.0000 C   0  0  0  0  0  0  0  0  0  0  0  0
    6.7214   -5.9741    0.0000 C   0  0  0  0  0  0  0  0  0  0  0  0
    7.4541   -6.3533    0.0000 C   0  0  0  0  0  0  0  0  0  0  0  0
    7.2698   -8.9204    0.0000 C   0  0  0  0  0  0  0  0  0  0  0  0
    6.8249   -8.2256    0.0000 C   0  0  0  0  0  0  0  0  0  0  0  0
    6.0008   -8.2635    0.0000 C   0  0  0  0  0  0  0  0  0  0  0  0
    5.5559   -7.5688    0.0000 C   0  0  0  0  0  0  0  0  0  0  0  0
    5.9352   -6.8361    0.0000 C   0  0  0  0  0  0  0  0  0  0  0  0
    6.7593   -6.7982    0.0000 C   0  0  0  0  0  0  0  0  0  0  0  0
 14  7  1  0  0  0  0
 14  8  1  0  0  0  0
 10  9  1  0  0  0  0
 10  5  1  0  0  0  0
 11 10  2  0  0  0  0
 12 11  1  0  0  0  0
 13 12  1  0  0  0  0
 14 13  1  0  0  0  0
  5 14  1  0  0  0  0
  1  2  1  0  0  0  0
  2  3  1  0  0  0  0
  3  4  1  0  0  0  0
  5  4  1  0  0  0  0
  5  1  1  6  0  0  0
  2  6  1  1  0  0  0
M  END
>  <cdx:groupId>
45

>  <cdx:fragmentId>
5

$$$$
