302500.cdx
  Mrv1902 05222410222D          

 58 64  0  0  0  0            999 V2000
   10.0682   -9.1924    0.0000 C   0  0  1  0  0  0  0  0  0  0  0  0
   10.7827   -9.6049    0.0000 C   0  0  0  0  0  0  0  0  0  0  0  0
   11.4971   -9.1924    0.0000 C   0  0  0  0  0  0  0  0  0  0  0  0
   11.4971   -8.3674    0.0000 C   0  0  2  0  0  0  0  0  0  0  0  0
   12.2116   -7.9549    0.0000 C   0  0  1  0  0  0  0  0  0  0  0  0
   12.2116   -7.1299    0.0000 C   0  0  0  0  0  0  0  0  0  0  0  0
   11.4971   -6.7174    0.0000 C   0  0  0  0  0  0  0  0  0  0  0  0
   10.7827   -7.1299    0.0000 C   0  0  0  0  0  0  0  0  0  0  0  0
   10.7827   -7.9549    0.0000 C   0  0  1  0  0  0  0  0  0  0  0  0
   10.0682   -8.3674    0.0000 C   0  0  2  0  0  0  0  0  0  0  0  0
    9.4232   -7.8530    0.0000 C   0  0  0  0  0  0  0  0  0  0  0  0
    8.6189   -8.0366    0.0000 C   0  0  0  0  0  0  0  0  0  0  0  0
    8.2609   -8.7799    0.0000 C   0  0  1  0  0  0  0  0  0  0  0  0
    8.6189   -9.5232    0.0000 C   0  0  0  0  0  0  0  0  0  0  0  0
    9.4232   -9.7068    0.0000 C   0  0  0  0  0  0  0  0  0  0  0  0
    9.2844   -8.4652    0.0000 C   0  0  0  0  0  0  0  0  0  0  0  0
   12.9261   -8.3674    0.0000 C   0  0  0  0  0  0  0  0  0  0  0  0
   12.9261   -9.1924    0.0000 O   0  0  0  0  0  0  0  0  0  0  0  0
    8.1045  -10.1682    0.0000 C   0  0  0  0  0  0  0  0  0  0  0  0
   10.7827   -8.7799    0.0000 C   0  0  0  0  0  0  0  0  0  0  0  0
   12.9261   -7.5424    0.0000 C   0  0  0  0  0  0  0  0  0  0  0  0
    7.4359   -8.7799    0.0000 O   0  0  0  0  0  0  0  0  0  0  0  0
    7.4359   -7.3510    0.0000 O   0  0  0  0  0  0  0  0  0  0  0  0
    7.0234   -8.0655    0.0000 C   0  0  2  0  0  0  0  0  0  0  0  0
    6.1984   -8.0655    0.0000 C   0  0  1  0  0  0  0  0  0  0  0  0
    5.7859   -7.3510    0.0000 C   0  0  2  0  0  0  0  0  0  0  0  0
    6.1984   -6.6365    0.0000 C   0  0  1  0  0  0  0  0  0  0  0  0
    7.0234   -6.6365    0.0000 C   0  0  1  0  0  0  0  0  0  0  0  0
    5.7859   -8.7799    0.0000 O   0  0  0  0  0  0  0  0  0  0  0  0
    4.5484   -8.0655    0.0000 O   0  0  0  0  0  0  0  0  0  0  0  0
    4.9609   -8.7799    0.0000 C   0  0  2  0  0  0  0  0  0  0  0  0
    4.5484   -9.4944    0.0000 C   0  0  1  0  0  0  0  0  0  0  0  0
    3.7234   -9.4944    0.0000 C   0  0  2  0  0  0  0  0  0  0  0  0
    3.3109   -8.7799    0.0000 C   0  0  1  0  0  0  0  0  0  0  0  0
    3.7234   -8.0655    0.0000 C   0  0  1  0  0  0  0  0  0  0  0  0
    3.3109   -7.3510    0.0000 C   0  0  0  0  0  0  0  0  0  0  0  0
    2.4859   -7.3510    0.0000 O   0  0  0  0  0  0  0  0  0  0  0  0
    2.4859   -8.7799    0.0000 O   0  0  0  0  0  0  0  0  0  0  0  0
    3.3109  -10.2089    0.0000 O   0  0  0  0  0  0  0  0  0  0  0  0
    4.9609  -10.2089    0.0000 O   0  0  0  0  0  0  0  0  0  0  0  0
    7.4359   -5.9220    0.0000 C   0  0  0  0  0  0  0  0  0  0  0  0
    8.2609   -5.9220    0.0000 O   0  0  0  0  0  0  0  0  0  0  0  0
    5.7859   -5.9220    0.0000 O   0  0  0  0  0  0  0  0  0  0  0  0
    4.9609   -7.3510    0.0000 O   0  0  0  0  0  0  0  0  0  0  0  0
   12.2116   -8.7799    0.0000 H   0  0  0  0  0  0  0  0  0  0  0  0
   10.0682   -7.5424    0.0000 H   0  0  0  0  0  0  0  0  0  0  0  0
   15.0681   -7.1275    0.0000 O   0  0  0  0  0  0  0  0  0  0  0  0
   16.4984   -7.9500    0.0000 O   0  0  0  0  0  0  0  0  0  0  0  0
   16.5013   -9.6000    0.0000 O   0  0  0  0  0  0  0  0  0  0  0  0
   15.7889  -10.8387    0.0000 O   0  0  0  0  0  0  0  0  0  0  0  0
   15.0738  -10.4274    0.0000 C   0  0  0  0  0  0  0  0  0  0  0  0
   15.0723   -9.6024    0.0000 C   0  0  2  0  0  0  0  0  0  0  0  0
   15.7861   -9.1887    0.0000 C   0  0  2  0  0  0  0  0  0  0  0  0
   15.7847   -8.3637    0.0000 C   0  0  1  0  0  0  0  0  0  0  0  0
   15.0695   -7.9525    0.0000 C   0  0  2  0  0  0  0  0  0  0  0  0
   14.3557   -8.3662    0.0000 C   0  0  1  0  0  0  0  0  0  0  0  0
   14.3571   -9.1912    0.0000 O   0  0  0  0  0  0  0  0  0  0  0  0
   13.6405   -7.9549    0.0000 O   0  0  0  0  0  0  0  0  0  0  0  0
 56 58  1  1  0  0  0
 55 47  1  6  0  0  0
 54 48  1  1  0  0  0
 53 49  1  6  0  0  0
 52 51  1  1  0  0  0
 51 50  1  0  0  0  0
 57 52  1  0  0  0  0
 53 52  1  0  0  0  0
 54 53  1  0  0  0  0
 55 54  1  0  0  0  0
 56 55  1  0  0  0  0
 57 56  1  0  0  0  0
  1  2  1  0  0  0  0
  2  3  1  0  0  0  0
  3  4  1  0  0  0  0
  4  5  1  0  0  0  0
  5  6  1  0  0  0  0
  6  7  1  0  0  0  0
  7  8  1  0  0  0  0
  8  9  1  0  0  0  0
  9 10  1  0  0  0  0
 10 11  1  0  0  0  0
 11 12  1  0  0  0  0
 12 13  1  0  0  0  0
 13 14  1  0  0  0  0
 14 15  1  0  0  0  0
  1 15  1  0  0  0  0
  1 16  1  1  0  0  0
 13 16  1  1  0  0  0
  1 10  1  0  0  0  0
  4  9  1  0  0  0  0
 17 18  2  0  0  0  0
 17 58  1  0  0  0  0
  5 17  1  0  0  0  0
 14 19  2  0  0  0  0
  9 20  1  1  0  0  0
  5 21  1  6  0  0  0
 23 24  1  0  0  0  0
 24 25  1  0  0  0  0
 25 26  1  0  0  0  0
 26 27  1  0  0  0  0
 27 28  1  0  0  0  0
 23 28  1  0  0  0  0
 30 31  1  0  0  0  0
 31 32  1  0  0  0  0
 32 33  1  0  0  0  0
 33 34  1  0  0  0  0
 34 35  1  0  0  0  0
 30 35  1  0  0  0  0
 36 37  1  0  0  0  0
 35 36  1  1  0  0  0
 34 38  1  6  0  0  0
 33 39  1  1  0  0  0
 32 40  1  6  0  0  0
 31 29  1  1  0  0  0
 25 29  1  6  0  0  0
 41 42  1  0  0  0  0
 28 41  1  1  0  0  0
 27 43  1  6  0  0  0
 26 44  1  1  0  0  0
 24 22  1  1  0  0  0
 13 22  1  0  0  0  0
  4 45  1  6  0  0  0
 10 46  1  6  0  0  0
M  END
>  <cdx:fragmentId>
65

$$$$
