302507.cdx
  Mrv1902 05222410212D          

 40 44  0  0  0  0            999 V2000
    8.9685   -6.8117    0.0000 O   0  0  0  0  0  0  0  0  0  0  0  0
    9.6889   -8.0457    0.0000 O   0  0  0  0  0  0  0  0  0  0  0  0
    9.6850   -7.2208    0.0000 C   0  0  2  0  0  0  0  0  0  0  0  0
   10.3974   -6.8048    0.0000 C   0  0  1  0  0  0  0  0  0  0  0  0
   11.1139   -7.2139    0.0000 C   0  0  2  0  0  0  0  0  0  0  0  0
   11.1178   -8.0389    0.0000 C   0  0  1  0  0  0  0  0  0  0  0  0
   10.4053   -8.4548    0.0000 C   0  0  1  0  0  0  0  0  0  0  0  0
   10.4093   -9.2798    0.0000 C   0  0  0  0  0  0  0  0  0  0  0  0
   11.1257   -9.6889    0.0000 O   0  0  0  0  0  0  0  0  0  0  0  0
   11.8343   -8.4480    0.0000 O   0  0  0  0  0  0  0  0  0  0  0  0
   11.8264   -6.7980    0.0000 O   0  0  0  0  0  0  0  0  0  0  0  0
   10.3935   -5.9798    0.0000 O   0  0  0  0  0  0  0  0  0  0  0  0
    8.2383   -5.5834    0.0000 C   0  0  0  0  0  0  0  0  0  0  0  0
    7.5292   -6.0049    0.0000 C   0  0  0  0  0  0  0  0  0  0  0  0
    6.8095   -5.6016    0.0000 N   0  0  0  0  0  0  0  0  0  0  0  0
    6.7990   -4.7766    0.0000 C   0  0  0  0  0  0  0  0  0  0  0  0
    6.0793   -4.3733    0.0000 C   0  0  0  0  0  0  0  0  0  0  0  0
    6.1004   -6.0231    0.0000 C   0  0  2  0  0  0  0  0  0  0  0  0
    4.1060   -5.2235    0.0000 C   0  0  0  0  0  0  0  0  0  0  0  0
    3.2845   -5.1477    0.0000 C   0  0  0  0  0  0  0  0  0  0  0  0
    2.9394   -4.3984    0.0000 C   0  0  0  0  0  0  0  0  0  0  0  0
    3.4157   -3.7248    0.0000 C   0  0  0  0  0  0  0  0  0  0  0  0
    4.2373   -3.8006    0.0000 C   0  0  0  0  0  0  0  0  0  0  0  0
    4.5824   -4.5499    0.0000 C   0  0  0  0  0  0  0  0  0  0  0  0
    5.3702   -4.7948    0.0000 C   0  0  0  0  0  0  0  0  0  0  0  0
    5.3807   -5.6198    0.0000 C   0  0  0  0  0  0  0  0  0  0  0  0
    4.5994   -5.8847    0.0000 N   0  0  0  0  0  0  0  0  0  0  0  0
    6.1109   -6.8481    0.0000 C   0  0  0  0  0  0  0  0  0  0  0  0
    5.4122   -8.0946    0.0000 O   0  0  0  0  0  0  0  0  0  0  0  0
    6.1424   -9.3229    0.0000 O   0  0  0  0  0  0  0  0  0  0  0  0
    6.1319   -8.4979    0.0000 C   0  0  0  0  0  0  0  0  0  0  0  0
    8.2699   -8.0582    0.0000 O   0  0  0  0  0  0  0  0  0  0  0  0
    7.5607   -8.4797    0.0000 C   0  0  0  0  0  0  0  0  0  0  0  0
    6.8410   -8.0764    0.0000 C   0  0  0  0  0  0  0  0  0  0  0  0
    6.8305   -7.2514    0.0000 C   0  0  2  0  0  0  0  0  0  0  0  0
    7.5397   -6.8299    0.0000 C   0  0  2  0  0  0  0  0  0  0  0  0
    8.2594   -7.2332    0.0000 C   0  0  2  0  0  0  0  0  0  0  0  0
    5.3859   -6.4356    0.0000 H   0  0  0  0  0  0  0  0  0  0  0  0
    6.1161   -7.6639    0.0000 H   0  0  0  0  0  0  0  0  0  0  0  0
    8.2542   -6.4174    0.0000 H   0  0  0  0  0  0  0  0  0  0  0  0
 36 14  1  0  0  0  0
 14 13  2  0  0  0  0
 35 28  1  0  0  0  0
 18 28  1  0  0  0  0
 17 25  1  0  0  0  0
 18 26  1  0  0  0  0
 18 15  1  0  0  0  0
 16 15  1  0  0  0  0
 17 16  1  0  0  0  0
 24 19  2  0  0  0  0
 27 19  1  0  0  0  0
 20 19  1  0  0  0  0
 21 20  2  0  0  0  0
 22 21  1  0  0  0  0
 23 22  2  0  0  0  0
 24 23  1  0  0  0  0
 25 24  1  0  0  0  0
 26 25  2  0  0  0  0
 27 26  1  0  0  0  0
 37  1  1  6  0  0  0
 34 31  1  0  0  0  0
 31 29  1  0  0  0  0
 31 30  2  0  0  0  0
 37 32  1  0  0  0  0
 33 32  1  0  0  0  0
 34 33  2  0  0  0  0
 35 34  1  0  0  0  0
 36 35  1  0  0  0  0
 37 36  1  0  0  0  0
  2  3  1  0  0  0  0
  3  4  1  0  0  0  0
  4  5  1  0  0  0  0
  5  6  1  0  0  0  0
  6  7  1  0  0  0  0
  2  7  1  0  0  0  0
  8  9  1  0  0  0  0
  7  8  1  1  0  0  0
  6 10  1  6  0  0  0
  5 11  1  1  0  0  0
  4 12  1  6  0  0  0
  3  1  1  1  0  0  0
 18 38  1  6  0  0  0
 35 39  1  6  0  0  0
 36 40  1  6  0  0  0
M  END
>  <cdx:groupId>
117

>  <cdx:fragmentId>
25

$$$$
