302571.cdx
  Mrv1902 05222410182D          

 15 16  0  0  0  0            999 V2000
    6.3572   -6.2474    0.0000 C   0  0  1  0  0  0  0  0  0  0  0  0
    5.6426   -6.6597    0.0000 C   0  0  0  0  0  0  0  0  0  0  0  0
    5.6425   -7.4847    0.0000 C   0  0  0  0  0  0  0  0  0  0  0  0
    6.3569   -7.8974    0.0000 C   0  0  1  0  0  0  0  0  0  0  0  0
    7.0714   -7.4850    0.0000 C   0  0  0  0  0  0  0  0  0  0  0  0
    7.7858   -7.8976    0.0000 C   0  0  0  0  0  0  0  0  0  0  0  0
    8.5004   -7.4852    0.0000 C   0  0  0  0  0  0  0  0  0  0  0  0
    8.5005   -6.6602    0.0000 C   0  0  0  0  0  0  0  0  0  0  0  0
    7.7861   -6.2476    0.0000 C   0  0  0  0  0  0  0  0  0  0  0  0
    7.0716   -6.6600    0.0000 C   0  0  0  0  0  0  0  0  0  0  0  0
    7.0712   -9.1350    0.0000 C   0  0  0  0  0  0  0  0  0  0  0  0
    6.3568   -8.7224    0.0000 C   0  0  0  0  0  0  0  0  0  0  0  0
    5.6422   -9.1347    0.0000 C   0  0  0  0  0  0  0  0  0  0  0  0
    9.2148   -7.8979    0.0000 C   0  0  0  0  0  0  0  0  0  0  0  0
    6.3573   -5.4224    0.0000 C   0  0  0  0  0  0  0  0  0  0  0  0
  1  2  1  0  0  0  0
  2  3  1  0  0  0  0
  3  4  1  0  0  0  0
  4  5  1  0  0  0  0
  5  6  1  0  0  0  0
  6  7  2  0  0  0  0
  7  8  1  0  0  0  0
  8  9  2  0  0  0  0
  9 10  1  0  0  0  0
  1 10  1  0  0  0  0
  5 10  2  0  0  0  0
 11 12  1  0  0  0  0
 12 13  1  0  0  0  0
  4 12  1  1  0  0  0
  7 14  1  0  0  0  0
  1 15  1  6  0  0  0
M  END
>  <cdx:groupId>
52

>  <cdx:fragmentId>
9

$$$$
