302620.cdx
  Mrv1902 05222410272D          

  4  3  0  0  0  0            999 V2000
    7.4594   -7.4987    0.0000 C   0  0  0  0  0  0  0  0  0  0  0  0
    6.7449   -7.9112    0.0000 Cl  0  0  0  0  0  0  0  0  0  0  0  0
    8.1738   -7.9112    0.0000 Cl  0  0  0  0  0  0  0  0  0  0  0  0
    7.4594   -6.6737    0.0000 Cl  0  0  0  0  0  0  0  0  0  0  0  0
  1  2  1  0  0  0  0
  1  3  1  0  0  0  0
  1  4  1  0  0  0  0
M  END
>  <cdx:groupId>
13

>  <cdx:fragmentId>
5

$$$$
