302623.cdx
  Mrv1902 05222410282D          

 35 38  0  0  0  0            999 V2000
    8.6462   -8.1665    0.0000 C   0  0  0  0  0  0  0  0  0  0  0  0
    8.6462   -7.3415    0.0000 C   0  0  0  0  0  0  0  0  0  0  0  0
    7.9317   -6.9290    0.0000 C   0  0  0  0  0  0  0  0  0  0  0  0
    7.2172   -7.3415    0.0000 C   0  0  0  0  0  0  0  0  0  0  0  0
    6.5028   -6.9290    0.0000 C   0  0  0  0  0  0  0  0  0  0  0  0
    5.7883   -7.3415    0.0000 C   0  0  0  0  0  0  0  0  0  0  0  0
    5.7883   -8.1665    0.0000 C   0  0  0  0  0  0  0  0  0  0  0  0
    6.5028   -8.5790    0.0000 C   0  0  0  0  0  0  0  0  0  0  0  0
    7.2172   -8.1665    0.0000 C   0  0  0  0  0  0  0  0  0  0  0  0
    7.9317   -8.5790    0.0000 O   0  0  0  0  0  0  0  0  0  0  0  0
    7.9317   -6.1040    0.0000 O   0  0  0  0  0  0  0  0  0  0  0  0
    6.5028   -6.1040    0.0000 O   0  0  0  0  0  0  0  0  0  0  0  0
    5.0738   -6.1040    0.0000 O   0  0  0  0  0  0  0  0  0  0  0  0
    5.7883   -5.6915    0.0000 C   0  0  2  0  0  0  0  0  0  0  0  0
    5.7883   -4.8665    0.0000 C   0  0  1  0  0  0  0  0  0  0  0  0
    5.0738   -4.4540    0.0000 C   0  0  2  0  0  0  0  0  0  0  0  0
    4.3594   -4.8665    0.0000 C   0  0  1  0  0  0  0  0  0  0  0  0
    4.3594   -5.6915    0.0000 C   0  0  1  0  0  0  0  0  0  0  0  0
    3.6449   -6.1040    0.0000 C   0  0  0  0  0  0  0  0  0  0  0  0
    2.9304   -5.6915    0.0000 O   0  0  0  0  0  0  0  0  0  0  0  0
    3.6449   -4.4540    0.0000 O   0  0  0  0  0  0  0  0  0  0  0  0
    5.0738   -3.6290    0.0000 O   0  0  0  0  0  0  0  0  0  0  0  0
    6.5028   -4.4540    0.0000 O   0  0  0  0  0  0  0  0  0  0  0  0
    9.3607   -8.5790    0.0000 C   0  0  0  0  0  0  0  0  0  0  0  0
   10.0751   -8.1665    0.0000 C   0  0  0  0  0  0  0  0  0  0  0  0
   10.7896   -8.5790    0.0000 C   0  0  0  0  0  0  0  0  0  0  0  0
   10.7896   -9.4040    0.0000 C   0  0  0  0  0  0  0  0  0  0  0  0
   10.0751   -9.8165    0.0000 C   0  0  0  0  0  0  0  0  0  0  0  0
    9.3607   -9.4040    0.0000 C   0  0  0  0  0  0  0  0  0  0  0  0
   10.0751  -10.6415    0.0000 O   0  0  0  0  0  0  0  0  0  0  0  0
   10.7896  -11.0540    0.0000 C   0  0  0  0  0  0  0  0  0  0  0  0
   11.5041   -8.1665    0.0000 O   0  0  0  0  0  0  0  0  0  0  0  0
   12.2185   -8.5790    0.0000 C   0  0  0  0  0  0  0  0  0  0  0  0
   11.5041   -9.8165    0.0000 O   0  0  0  0  0  0  0  0  0  0  0  0
    5.0738   -8.5790    0.0000 O   0  0  0  0  0  0  0  0  0  0  0  0
  1  2  2  0  0  0  0
  2  3  1  0  0  0  0
  3  4  1  0  0  0  0
  4  5  1  0  0  0  0
  5  6  2  0  0  0  0
  6  7  1  0  0  0  0
  7  8  2  0  0  0  0
  8  9  1  0  0  0  0
  4  9  2  0  0  0  0
  9 10  1  0  0  0  0
  1 10  1  0  0  0  0
  3 11  2  0  0  0  0
 13 14  1  0  0  0  0
 14 15  1  0  0  0  0
 15 16  1  0  0  0  0
 16 17  1  0  0  0  0
 17 18  1  0  0  0  0
 13 18  1  0  0  0  0
 19 20  1  0  0  0  0
 18 19  1  6  0  0  0
 17 21  1  1  0  0  0
 16 22  1  6  0  0  0
 15 23  1  1  0  0  0
 14 12  1  6  0  0  0
  5 12  1  0  0  0  0
 24 25  1  0  0  0  0
 25 26  2  0  0  0  0
 26 27  1  0  0  0  0
 27 28  2  0  0  0  0
 28 29  1  0  0  0  0
 24 29  2  0  0  0  0
 30 31  1  0  0  0  0
 28 30  1  0  0  0  0
 32 33  1  0  0  0  0
 26 32  1  0  0  0  0
 27 34  1  0  0  0  0
  1 24  1  0  0  0  0
  7 35  1  0  0  0  0
M  END
>  <cdx:groupId>
110

>  <cdx:fragmentId>
29

$$$$
