302659.cdx
  Mrv1902 05222410212D          

 25 24  0  0  0  0            999 V2000
    7.0678   -7.5428    0.0000 As  0  0  0  0  0  0  0  0  0  0  0  0
    7.7822   -7.1303    0.0000 O   0  0  0  0  0  0  0  0  0  0  0  0
    6.3533   -7.1303    0.0000 O   0  0  0  0  0  0  0  0  0  0  0  0
    7.0678   -8.3678    0.0000 O   0  0  0  0  0  0  0  0  0  0  0  0
    8.4967   -7.5428    0.0000 Si  0  0  0  0  0  0  0  0  0  0  0  0
    8.0842   -8.2573    0.0000 C   0  0  0  0  0  0  0  0  0  0  0  0
    8.9092   -8.2573    0.0000 C   0  0  0  0  0  0  0  0  0  0  0  0
    9.2112   -7.1303    0.0000 C   0  0  0  0  0  0  0  0  0  0  0  0
    9.2112   -6.3053    0.0000 C   0  0  0  0  0  0  0  0  0  0  0  0
    9.9256   -6.7178    0.0000 C   0  0  0  0  0  0  0  0  0  0  0  0
    9.9256   -7.5428    0.0000 C   0  0  0  0  0  0  0  0  0  0  0  0
    6.3533   -6.3053    0.0000 Si  0  0  0  0  0  0  0  0  0  0  0  0
    6.7658   -5.5909    0.0000 C   0  0  0  0  0  0  0  0  0  0  0  0
    7.1783   -6.3053    0.0000 C   0  0  0  0  0  0  0  0  0  0  0  0
    5.6388   -5.8928    0.0000 C   0  0  0  0  0  0  0  0  0  0  0  0
    5.6388   -5.0678    0.0000 C   0  0  0  0  0  0  0  0  0  0  0  0
    4.9244   -5.4803    0.0000 C   0  0  0  0  0  0  0  0  0  0  0  0
    4.9244   -6.3053    0.0000 C   0  0  0  0  0  0  0  0  0  0  0  0
    6.3533   -8.7803    0.0000 Si  0  0  0  0  0  0  0  0  0  0  0  0
    5.9408   -9.4948    0.0000 C   0  0  0  0  0  0  0  0  0  0  0  0
    6.7658   -9.4948    0.0000 C   0  0  0  0  0  0  0  0  0  0  0  0
    5.6388   -8.3678    0.0000 C   0  0  0  0  0  0  0  0  0  0  0  0
    4.9244   -7.9553    0.0000 C   0  0  0  0  0  0  0  0  0  0  0  0
    5.6388   -7.5428    0.0000 C   0  0  0  0  0  0  0  0  0  0  0  0
    4.9244   -8.7803    0.0000 C   0  0  0  0  0  0  0  0  0  0  0  0
  1  2  1  0  0  0  0
  1  3  1  0  0  0  0
  1  4  1  0  0  0  0
  5  6  1  0  0  0  0
  5  7  1  0  0  0  0
  8  9  1  0  0  0  0
  8 11  1  0  0  0  0
  8 10  1  0  0  0  0
  5  8  1  0  0  0  0
  2  5  1  0  0  0  0
 12 13  1  0  0  0  0
 12 14  1  0  0  0  0
 15 16  1  0  0  0  0
 15 18  1  0  0  0  0
 15 17  1  0  0  0  0
 12 15  1  0  0  0  0
  3 12  1  0  0  0  0
 19 20  1  0  0  0  0
 19 21  1  0  0  0  0
 22 23  1  0  0  0  0
 22 25  1  0  0  0  0
 22 24  1  0  0  0  0
 19 22  1  0  0  0  0
  4 19  1  0  0  0  0
M  END
>  <cdx:groupId>
76

>  <cdx:fragmentId>
19

$$$$
