302626.cdx
  Mrv1902 05222410262D          

 26 25  0  0  0  0            999 V2000
    0.4601   -7.2512    0.0000 C   0  0  0  0  0  0  0  0  0  0  0  0
    1.1746   -6.8387    0.0000 O   0  0  0  0  0  0  0  0  0  0  0  0
    1.8890   -8.0762    0.0000 O   0  0  0  0  0  0  0  0  0  0  0  0
   17.6074   -7.2512    0.0000 C   0  0  0  0  0  0  0  0  0  0  0  0
   16.8929   -6.8387    0.0000 C   0  0  0  0  0  0  0  0  0  0  0  0
   16.1785   -7.2512    0.0000 C   0  0  0  0  0  0  0  0  0  0  0  0
   15.4640   -6.8387    0.0000 C   0  0  0  0  0  0  0  0  0  0  0  0
   14.7495   -7.2512    0.0000 C   0  0  0  0  0  0  0  0  0  0  0  0
   14.0350   -6.8387    0.0000 C   0  0  0  0  0  0  0  0  0  0  0  0
   13.3206   -7.2512    0.0000 C   0  0  0  0  0  0  0  0  0  0  0  0
   12.6061   -6.8387    0.0000 C   0  0  0  0  0  0  0  0  0  0  0  0
   11.8916   -7.2512    0.0000 C   0  0  0  0  0  0  0  0  0  0  0  0
   11.1772   -6.8387    0.0000 C   0  0  0  0  0  0  0  0  0  0  0  0
   10.4627   -7.2512    0.0000 C   0  0  0  0  0  0  0  0  0  0  0  0
    9.7482   -6.8387    0.0000 C   0  0  0  0  0  0  0  0  0  0  0  0
    9.0337   -7.2512    0.0000 C   0  0  0  0  0  0  0  0  0  0  0  0
    8.3193   -6.8387    0.0000 C   0  0  0  0  0  0  0  0  0  0  0  0
    7.6048   -7.2512    0.0000 C   0  0  0  0  0  0  0  0  0  0  0  0
    6.8903   -6.8387    0.0000 C   0  0  0  0  0  0  0  0  0  0  0  0
    6.1759   -7.2512    0.0000 C   0  0  0  0  0  0  0  0  0  0  0  0
    5.4614   -6.8387    0.0000 C   0  0  0  0  0  0  0  0  0  0  0  0
    4.7469   -7.2512    0.0000 C   0  0  0  0  0  0  0  0  0  0  0  0
    4.0325   -6.8387    0.0000 C   0  0  0  0  0  0  0  0  0  0  0  0
    3.3180   -7.2512    0.0000 C   0  0  0  0  0  0  0  0  0  0  0  0
    2.6035   -6.8387    0.0000 C   0  0  0  0  0  0  0  0  0  0  0  0
    1.8890   -7.2512    0.0000 C   0  0  0  0  0  0  0  0  0  0  0  0
  2  1  1  0  0  0  0
 26  2  1  0  0  0  0
 26  3  2  0  0  0  0
  5  4  1  0  0  0  0
  6  5  1  0  0  0  0
  7  6  1  0  0  0  0
  8  7  1  0  0  0  0
  9  8  1  0  0  0  0
 10  9  1  0  0  0  0
 11 10  1  0  0  0  0
 12 11  1  0  0  0  0
 13 12  1  0  0  0  0
 14 13  1  0  0  0  0
 15 14  1  0  0  0  0
 16 15  1  0  0  0  0
 17 16  1  0  0  0  0
 18 17  1  0  0  0  0
 19 18  1  0  0  0  0
 20 19  1  0  0  0  0
 21 20  1  0  0  0  0
 22 21  1  0  0  0  0
 23 22  1  0  0  0  0
 24 23  1  0  0  0  0
 25 24  1  0  0  0  0
 26 25  1  0  0  0  0
M  END
>  <cdx:fragmentId>
5

$$$$
