30260.cdx
  Mrv1902 05222410262D          

 28 32  0  0  0  0            999 V2000
    6.5568  -11.5764    0.0000 C   0  0  0  0  0  0  0  0  0  0  0  0
    6.5568  -12.4014    0.0000 C   0  0  0  0  0  0  0  0  0  0  0  0
    7.2713  -12.8139    0.0000 C   0  0  0  0  0  0  0  0  0  0  0  0
    7.9857  -12.4014    0.0000 C   0  0  0  0  0  0  0  0  0  0  0  0
    7.9857  -11.5764    0.0000 C   0  0  0  0  0  0  0  0  0  0  0  0
    7.2713  -11.1639    0.0000 C   0  0  0  0  0  0  0  0  0  0  0  0
    7.2713  -10.3389    0.0000 C   0  0  1  0  0  0  0  0  0  0  0  0
    6.5568   -9.9264    0.0000 C   0  0  1  0  0  0  0  0  0  0  0  0
    5.8423  -10.3389    0.0000 C   0  0  0  0  0  0  0  0  0  0  0  0
    5.8423  -11.1639    0.0000 O   0  0  0  0  0  0  0  0  0  0  0  0
    7.8844   -9.7869    0.0000 O   0  0  0  0  0  0  0  0  0  0  0  0
    7.5488   -9.0332    0.0000 C   0  0  0  0  0  0  0  0  0  0  0  0
    6.7283   -9.1194    0.0000 C   0  0  0  0  0  0  0  0  0  0  0  0
    7.8844   -8.2795    0.0000 C   0  0  0  0  0  0  0  0  0  0  0  0
    7.3994   -7.6121    0.0000 C   0  0  0  0  0  0  0  0  0  0  0  0
    6.5790   -7.6983    0.0000 C   0  0  0  0  0  0  0  0  0  0  0  0
    6.2434   -8.4520    0.0000 C   0  0  0  0  0  0  0  0  0  0  0  0
    8.7048   -8.1933    0.0000 C   0  0  0  0  0  0  0  0  0  0  0  0
    9.0404   -7.4396    0.0000 C   0  0  0  0  0  0  0  0  0  0  0  0
    8.5555   -6.7722    0.0000 C   0  0  0  0  0  0  0  0  0  0  0  0
    7.7350   -6.8584    0.0000 O   0  0  0  0  0  0  0  0  0  0  0  0
    7.2713  -13.6389    0.0000 O   0  0  0  0  0  0  0  0  0  0  0  0
    8.7002  -11.1639    0.0000 O   0  0  0  0  0  0  0  0  0  0  0  0
    9.4147  -11.5764    0.0000 C   0  0  0  0  0  0  0  0  0  0  0  0
    8.3420   -5.9753    0.0000 C   0  0  0  0  0  0  0  0  0  0  0  0
    9.3001   -6.4170    0.0000 C   0  0  0  0  0  0  0  0  0  0  0  0
    5.8894   -9.4415    0.0000 H   0  0  0  0  0  0  0  0  0  0  0  0
    8.0249  -10.6745    0.0000 H   0  0  0  0  0  0  0  0  0  0  0  0
  1  2  2  0  0  0  0
  2  3  1  0  0  0  0
  3  4  2  0  0  0  0
  4  5  1  0  0  0  0
  5  6  2  0  0  0  0
  6  1  1  0  0  0  0
  6  7  1  0  0  0  0
  7  8  1  0  0  0  0
  8  9  1  0  0  0  0
  9 10  1  0  0  0  0
 10  1  1  0  0  0  0
  7 11  1  0  0  0  0
 11 12  1  0  0  0  0
 12 13  2  0  0  0  0
 13  8  1  0  0  0  0
 12 14  1  0  0  0  0
 14 15  2  0  0  0  0
 15 16  1  0  0  0  0
 16 17  2  0  0  0  0
 17 13  1  0  0  0  0
 14 18  1  0  0  0  0
 18 19  2  0  0  0  0
 19 20  1  0  0  0  0
 20 21  1  0  0  0  0
 21 15  1  0  0  0  0
  3 22  1  0  0  0  0
  5 23  1  0  0  0  0
 23 24  1  0  0  0  0
 20 25  1  0  0  0  0
 20 26  1  0  0  0  0
  8 27  1  6  0  0  0
  7 28  1  6  0  0  0
M  END
>  <cdx:fragmentId>
5

$$$$
