302609.cdx
  Mrv1902 05222410272D          

 17 19  0  0  0  0            999 V2000
    9.4127   -7.0785    0.0000 H   0  0  0  0  0  0  0  0  0  0  0  0
    6.0659   -8.7285    0.0000 C   0  0  0  0  0  0  0  0  0  0  0  0
    6.7804   -5.8410    0.0000 C   0  0  0  0  0  0  0  0  0  0  0  0
    8.9977   -8.1232    0.0000 C   0  0  0  0  0  0  0  0  0  0  0  0
    8.3527   -8.6376    0.0000 C   0  0  0  0  0  0  0  0  0  0  0  0
    7.5660   -6.7633    0.0000 C   0  0  0  0  0  0  0  0  0  0  0  0
    7.4254   -8.0054    0.0000 O   0  0  0  0  0  0  0  0  0  0  0  0
    8.2297   -7.8218    0.0000 C   0  0  0  0  0  0  0  0  0  0  0  0
    8.5877   -7.0785    0.0000 C   0  0  2  0  0  0  0  0  0  0  0  0
    8.2297   -6.3352    0.0000 C   0  0  0  0  0  0  0  0  0  0  0  0
    7.4254   -6.1516    0.0000 C   0  0  0  0  0  0  0  0  0  0  0  0
    6.7804   -6.6660    0.0000 C   0  0  1  0  0  0  0  0  0  0  0  0
    6.0659   -6.2535    0.0000 C   0  0  0  0  0  0  0  0  0  0  0  0
    5.3515   -6.6660    0.0000 C   0  0  0  0  0  0  0  0  0  0  0  0
    5.3515   -7.4910    0.0000 C   0  0  0  0  0  0  0  0  0  0  0  0
    6.0659   -7.9035    0.0000 C   0  0  2  0  0  0  0  0  0  0  0  0
    6.7804   -7.4910    0.0000 C   0  0  1  0  0  0  0  0  0  0  0  0
  9  1  1  6  0  0  0
 16  2  1  6  0  0  0
 12  3  1  6  0  0  0
  8  4  1  0  0  0  0
  8  5  1  0  0  0  0
 17 12  1  0  0  0  0
  9  6  1  0  0  0  0
 17  6  1  0  0  0  0
 17  7  1  1  0  0  0
  8  7  1  0  0  0  0
  9  8  1  0  0  0  0
 10  9  1  0  0  0  0
 11 10  1  0  0  0  0
 12 11  1  0  0  0  0
 13 12  1  0  0  0  0
 14 13  1  0  0  0  0
 15 14  1  0  0  0  0
 16 15  1  0  0  0  0
 17 16  1  0  0  0  0
M  END
>  <cdx:fragmentId>
5

$$$$
