302667.cdx
  Mrv1902 05222410212D          

 19 19  0  0  0  0            999 V2000
    8.1395   -6.8096    0.0000 C   0  0  0  0  0  0  0  0  0  0  0  0
    8.8539   -6.3971    0.0000 C   0  0  0  0  0  0  0  0  0  0  0  0
    9.5684   -6.8096    0.0000 C   0  0  0  0  0  0  0  0  0  0  0  0
   10.2829   -6.3971    0.0000 C   0  0  0  0  0  0  0  0  0  0  0  0
    8.1395   -7.6346    0.0000 O   0  0  0  0  0  0  0  0  0  0  0  0
    7.4250   -6.3971    0.0000 O   0  0  0  0  0  0  0  0  0  0  0  0
    8.8539   -5.5721    0.0000 C   0  0  0  0  0  0  0  0  0  0  0  0
   10.9974   -6.8096    0.0000 O   0  0  0  0  0  0  0  0  0  0  0  0
    5.9961   -6.3971    0.0000 O   0  0  0  0  0  0  0  0  0  0  0  0
    6.7105   -6.8096    0.0000 C   0  0  2  0  0  0  0  0  0  0  0  0
    6.7105   -7.6346    0.0000 C   0  0  1  0  0  0  0  0  0  0  0  0
    5.9961   -8.0471    0.0000 C   0  0  2  0  0  0  0  0  0  0  0  0
    5.2816   -7.6346    0.0000 C   0  0  1  0  0  0  0  0  0  0  0  0
    5.2816   -6.8096    0.0000 C   0  0  1  0  0  0  0  0  0  0  0  0
    4.5671   -6.3971    0.0000 C   0  0  0  0  0  0  0  0  0  0  0  0
    3.8526   -6.8096    0.0000 O   0  0  0  0  0  0  0  0  0  0  0  0
    4.5671   -8.0471    0.0000 O   0  0  0  0  0  0  0  0  0  0  0  0
    5.9961   -8.8721    0.0000 O   0  0  0  0  0  0  0  0  0  0  0  0
    7.4250   -8.0471    0.0000 O   0  0  0  0  0  0  0  0  0  0  0  0
  1  2  1  0  0  0  0
  2  3  1  0  0  0  0
  3  4  1  0  0  0  0
  1  5  2  0  0  0  0
  1  6  1  0  0  0  0
  2  7  2  0  0  0  0
  4  8  1  0  0  0  0
  9 10  1  0  0  0  0
 10 11  1  0  0  0  0
 11 12  1  0  0  0  0
 12 13  1  0  0  0  0
 13 14  1  0  0  0  0
  9 14  1  0  0  0  0
 15 16  1  0  0  0  0
 14 15  1  1  0  0  0
 13 17  1  6  0  0  0
 12 18  1  1  0  0  0
 11 19  1  6  0  0  0
 10  6  1  1  0  0  0
M  END
>  <cdx:groupId>
59

>  <cdx:fragmentId>
21

$$$$
