302616.cdx
  Mrv1902 05222410202D          

 61 67  0  0  0  0            999 V2000
   15.0940  -11.5494    0.0000 C   0  0  1  0  0  0  0  0  0  0  0  0
   15.8084  -11.1369    0.0000 C   0  0  2  0  0  0  0  0  0  0  0  0
   16.5930  -11.3919    0.0000 C   0  0  0  0  0  0  0  0  0  0  0  0
   17.0780  -10.7244    0.0000 C   0  0  2  0  0  0  0  0  0  0  0  0
   17.8626  -10.4695    0.0000 O   0  0  0  0  0  0  0  0  0  0  0  0
   17.8626   -9.6445    0.0000 C   0  0  2  0  0  0  0  0  0  0  0  0
   17.0780   -9.3895    0.0000 C   0  0  2  0  0  0  0  0  0  0  0  0
   16.5930  -10.0570    0.0000 C   0  0  2  0  0  0  0  0  0  0  0  0
   15.8084  -10.3119    0.0000 C   0  0  1  0  0  0  0  0  0  0  0  0
   15.0940   -9.8994    0.0000 C   0  0  0  0  0  0  0  0  0  0  0  0
   14.3795  -10.3119    0.0000 C   0  0  0  0  0  0  0  0  0  0  0  0
   14.3795  -11.1369    0.0000 C   0  0  2  0  0  0  0  0  0  0  0  0
   13.6650  -11.5494    0.0000 C   0  0  1  0  0  0  0  0  0  0  0  0
   12.9505  -11.1369    0.0000 C   0  0  0  0  0  0  0  0  0  0  0  0
   12.2361  -11.5494    0.0000 C   0  0  0  0  0  0  0  0  0  0  0  0
   12.2361  -12.3744    0.0000 C   0  0  1  0  0  0  0  0  0  0  0  0
   12.9505  -12.7869    0.0000 C   0  0  0  0  0  0  0  0  0  0  0  0
   13.6650  -12.3744    0.0000 C   0  0  0  0  0  0  0  0  0  0  0  0
   14.3795  -12.7869    0.0000 C   0  0  0  0  0  0  0  0  0  0  0  0
   15.0940  -12.3744    0.0000 C   0  0  0  0  0  0  0  0  0  0  0  0
   17.7764   -8.8240    0.0000 O   0  0  0  0  0  0  0  0  0  0  0  0
   18.6163   -9.9800    0.0000 C   0  0  0  0  0  0  0  0  0  0  0  0
   19.2837   -9.4951    0.0000 C   0  0  0  0  0  0  0  0  0  0  0  0
   19.1975   -8.6746    0.0000 C   0  0  2  0  0  0  0  0  0  0  0  0
   18.4438   -8.3391    0.0000 C   0  0  0  0  0  0  0  0  0  0  0  0
   13.6650  -10.7244    0.0000 C   0  0  0  0  0  0  0  0  0  0  0  0
   15.8084   -9.4869    0.0000 C   0  0  0  0  0  0  0  0  0  0  0  0
   16.8230   -8.6049    0.0000 C   0  0  0  0  0  0  0  0  0  0  0  0
   19.8649   -8.1897    0.0000 C   0  0  0  0  0  0  0  0  0  0  0  0
   15.0940  -10.7244    0.0000 H   0  0  0  0  0  0  0  0  0  0  0  0
   15.8084  -11.9619    0.0000 H   0  0  0  0  0  0  0  0  0  0  0  0
   17.5629  -11.3919    0.0000 H   0  0  0  0  0  0  0  0  0  0  0  0
   16.2314   -9.3155    0.0000 H   0  0  0  0  0  0  0  0  0  0  0  0
   14.3795  -11.9619    0.0000 H   0  0  0  0  0  0  0  0  0  0  0  0
    8.6639  -12.7580    0.0000 O   0  0  0  0  0  0  0  0  0  0  0  0
    8.6805  -11.1081    0.0000 O   0  0  0  0  0  0  0  0  0  0  0  0
   10.1177  -10.2976    0.0000 C   0  0  0  0  0  0  0  0  0  0  0  0
   11.5216  -12.7869    0.0000 O   0  0  0  0  0  0  0  0  0  0  0  0
   10.1094  -11.1226    0.0000 C   0  0  2  0  0  0  0  0  0  0  0  0
    9.3908  -11.5278    0.0000 C   0  0  2  0  0  0  0  0  0  0  0  0
    9.3825  -12.3528    0.0000 C   0  0  1  0  0  0  0  0  0  0  0  0
   10.0927  -12.7725    0.0000 C   0  0  2  0  0  0  0  0  0  0  0  0
   10.8113  -12.3672    0.0000 C   0  0  1  0  0  0  0  0  0  0  0  0
   10.8197  -11.5423    0.0000 O   0  0  0  0  0  0  0  0  0  0  0  0
   10.0844  -13.5974    0.0000 O   0  0  0  0  0  0  0  0  0  0  0  0
    9.4075   -9.8779    0.0000 O   0  0  0  0  0  0  0  0  0  0  0  0
    9.3658  -14.0027    0.0000 C   0  0  2  0  0  0  0  0  0  0  0  0
    8.6598  -13.5758    0.0000 O   0  0  0  0  0  0  0  0  0  0  0  0
    7.9371  -13.9738    0.0000 C   0  0  2  0  0  0  0  0  0  0  0  0
    7.9371  -14.7987    0.0000 C   0  0  1  0  0  0  0  0  0  0  0  0
    8.6598  -15.2255    0.0000 C   0  0  2  0  0  0  0  0  0  0  0  0
    9.3658  -14.8275    0.0000 C   0  0  1  0  0  0  0  0  0  0  0  0
    7.2269  -13.5541    0.0000 C   0  0  0  0  0  0  0  0  0  0  0  0
    7.2206  -15.2076    0.0000 O   0  0  0  0  0  0  0  0  0  0  0  0
    8.6515  -16.0505    0.0000 O   0  0  0  0  0  0  0  0  0  0  0  0
   10.0781  -15.2437    0.0000 O   0  0  0  0  0  0  0  0  0  0  0  0
    7.9619  -11.5134    0.0000 S   0  0  0  0  0  0  0  0  0  0  0  0
    7.2475  -11.9259    0.0000 O   0  5  0  0  0  0  0  0  0  0  0  0
    7.6600  -12.6404    0.0000 Na  0  3  0  0  0  0  0  0  0  0  0  0
    8.3744  -12.2279    0.0000 O   0  0  0  0  0  0  0  0  0  0  0  0
    7.5494  -10.7989    0.0000 O   0  0  0  0  0  0  0  0  0  0  0  0
 42 45  1  6  0  0  0
 41 35  1  1  0  0  0
 40 36  1  6  0  0  0
 39 37  1  1  0  0  0
 43 38  1  1  0  0  0
 44 39  1  0  0  0  0
 40 39  1  0  0  0  0
 41 40  1  0  0  0  0
 42 41  1  0  0  0  0
 43 42  1  0  0  0  0
 44 43  1  0  0  0  0
  1  2  1  0  0  0  0
  2  3  1  0  0  0  0
  3  4  1  0  0  0  0
  4  5  1  0  0  0  0
  6  5  1  6  0  0  0
  6  7  1  0  0  0  0
  7  8  1  0  0  0  0
  8  9  1  0  0  0  0
  9 10  1  0  0  0  0
 10 11  1  0  0  0  0
 11 12  1  0  0  0  0
 12 13  1  0  0  0  0
 13 14  1  0  0  0  0
 14 15  1  0  0  0  0
 15 16  1  0  0  0  0
 16 17  1  0  0  0  0
 17 18  1  0  0  0  0
 18 19  2  0  0  0  0
 19 20  1  0  0  0  0
  1 20  1  0  0  0  0
  1 12  1  0  0  0  0
 13 18  1  0  0  0  0
  2  9  1  0  0  0  0
  4  8  1  0  0  0  0
 22 23  1  0  0  0  0
 23 24  1  0  0  0  0
 24 25  1  0  0  0  0
 21 25  1  0  0  0  0
  6 21  1  0  0  0  0
  6 22  1  0  0  0  0
 13 26  1  1  0  0  0
  9 27  1  1  0  0  0
  7 28  1  6  0  0  0
 24 29  1  6  0  0  0
 16 38  1  1  0  0  0
  1 30  1  1  0  0  0
  2 31  1  6  0  0  0
  4 32  1  6  0  0  0
  8 33  1  6  0  0  0
 12 34  1  6  0  0  0
 37 46  1  0  0  0  0
 47 45  1  1  0  0  0
 47 48  1  0  0  0  0
 48 49  1  0  0  0  0
 49 50  1  0  0  0  0
 50 51  1  0  0  0  0
 51 52  1  0  0  0  0
 52 47  1  0  0  0  0
 49 53  1  6  0  0  0
 50 54  1  1  0  0  0
 51 55  1  6  0  0  0
 52 56  1  6  0  0  0
 36 57  1  0  0  0  0
 57 58  1  0  0  0  0
 57 60  2  0  0  0  0
 57 61  2  0  0  0  0
M  CHG  2  58  -1  59   1
M  STY  1   1 SUP
M  SAL   1  2  58  59
M  SBL   1  1  65
M  SMT   1 O-Na\S+
M  SAP   1  1  58  57  1
M  END
>  <cdx:fragmentId>
198565

$$$$
