302605.cdx
  Mrv1902 05222410192D          

 20 22  0  0  0  0            999 V2000
    9.9256   -7.2924    0.0000 O   0  0  0  0  0  0  0  0  0  0  0  0
    9.9256   -8.1174    0.0000 C   0  0  0  0  0  0  0  0  0  0  0  0
    9.2112   -8.5299    0.0000 C   0  0  0  0  0  0  0  0  0  0  0  0
    8.4967   -8.1174    0.0000 C   0  0  0  0  0  0  0  0  0  0  0  0
    7.7822   -8.5299    0.0000 C   0  0  0  0  0  0  0  0  0  0  0  0
    7.0678   -8.1174    0.0000 C   0  0  0  0  0  0  0  0  0  0  0  0
    7.0678   -7.2924    0.0000 C   0  0  0  0  0  0  0  0  0  0  0  0
    7.7822   -6.8799    0.0000 C   0  0  0  0  0  0  0  0  0  0  0  0
    8.4967   -7.2924    0.0000 C   0  0  0  0  0  0  0  0  0  0  0  0
    9.2112   -6.8799    0.0000 C   0  0  0  0  0  0  0  0  0  0  0  0
    6.3533   -6.8799    0.0000 C   0  0  0  0  0  0  0  0  0  0  0  0
    5.6388   -7.2924    0.0000 C   0  0  0  0  0  0  0  0  0  0  0  0
    5.6388   -8.1174    0.0000 C   0  0  0  0  0  0  0  0  0  0  0  0
    6.3533   -8.5299    0.0000 C   0  0  0  0  0  0  0  0  0  0  0  0
    9.2112   -6.0549    0.0000 O   0  0  0  0  0  0  0  0  0  0  0  0
   10.6401   -8.5299    0.0000 C   0  0  0  0  0  0  0  0  0  0  0  0
    4.9244   -8.5299    0.0000 O   0  0  0  0  0  0  0  0  0  0  0  0
    4.2099   -8.1174    0.0000 C   0  0  0  0  0  0  0  0  0  0  0  0
    7.7822   -6.0549    0.0000 O   0  0  0  0  0  0  0  0  0  0  0  0
    6.3533   -6.0549    0.0000 O   0  0  0  0  0  0  0  0  0  0  0  0
  1  2  1  0  0  0  0
  2  3  2  0  0  0  0
  3  4  1  0  0  0  0
  4  5  1  0  0  0  0
  5  6  2  0  0  0  0
  6  7  1  0  0  0  0
  7  8  2  0  0  0  0
  8  9  1  0  0  0  0
  4  9  2  0  0  0  0
  9 10  1  0  0  0  0
  1 10  1  0  0  0  0
 11 12  2  0  0  0  0
 12 13  1  0  0  0  0
 13 14  2  0  0  0  0
 14  6  1  0  0  0  0
 11  7  1  0  0  0  0
 10 15  2  0  0  0  0
  2 16  1  0  0  0  0
 17 18  1  0  0  0  0
 13 17  1  0  0  0  0
  8 19  1  0  0  0  0
 11 20  1  0  0  0  0
M  END
>  <cdx:groupId>
64

>  <cdx:fragmentId>
5

$$$$
