302665.cdx
  Mrv1902 05222410212D          

 69 77  0  0  0  0            999 V2000
    7.2376  -10.2492    0.0000 O   0  0  0  0  0  0  0  0  0  0  0  0
    7.2376   -9.4242    0.0000 C   0  0  2  0  0  0  0  0  0  0  0  0
    6.5232   -9.0117    0.0000 C   0  0  1  0  0  0  0  0  0  0  0  0
    5.8087   -9.4242    0.0000 C   0  0  1  0  0  0  0  0  0  0  0  0
    5.8087  -10.2492    0.0000 C   0  0  2  0  0  0  0  0  0  0  0  0
    6.5232  -10.6617    0.0000 C   0  0  2  0  0  0  0  0  0  0  0  0
    6.5232   -8.1867    0.0000 O   0  0  0  0  0  0  0  0  0  0  0  0
    5.0942   -9.0117    0.0000 O   0  0  0  0  0  0  0  0  0  0  0  0
    5.0942  -10.6617    0.0000 O   0  0  0  0  0  0  0  0  0  0  0  0
    6.5232  -11.4867    0.0000 C   0  0  0  0  0  0  0  0  0  0  0  0
    7.9521   -9.0117    0.0000 O   0  0  0  0  0  0  0  0  0  0  0  0
   10.0955   -9.4242    0.0000 O   0  0  0  0  0  0  0  0  0  0  0  0
    9.3811   -9.0117    0.0000 C   0  0  1  0  0  0  0  0  0  0  0  0
    8.6666   -9.4242    0.0000 C   0  0  2  0  0  0  0  0  0  0  0  0
    8.6666  -10.2492    0.0000 C   0  0  1  0  0  0  0  0  0  0  0  0
    9.3811  -10.6617    0.0000 C   0  0  2  0  0  0  0  0  0  0  0  0
   10.0955  -10.2492    0.0000 C   0  0  2  0  0  0  0  0  0  0  0  0
    9.3811  -11.4867    0.0000 O   0  0  0  0  0  0  0  0  0  0  0  0
   10.8100  -11.4867    0.0000 O   0  0  0  0  0  0  0  0  0  0  0  0
   10.0955  -11.8992    0.0000 C   0  0  2  0  0  0  0  0  0  0  0  0
   10.0955  -12.7242    0.0000 C   0  0  1  0  0  0  0  0  0  0  0  0
   10.8100  -13.1367    0.0000 C   0  0  1  0  0  0  0  0  0  0  0  0
   11.5245  -12.7242    0.0000 C   0  0  2  0  0  0  0  0  0  0  0  0
   11.5245  -11.8992    0.0000 C   0  0  2  0  0  0  0  0  0  0  0  0
   12.2389  -11.4867    0.0000 C   0  0  0  0  0  0  0  0  0  0  0  0
   12.2389  -13.1367    0.0000 O   0  0  0  0  0  0  0  0  0  0  0  0
   10.8100  -13.9617    0.0000 O   0  0  0  0  0  0  0  0  0  0  0  0
    9.3811  -13.1367    0.0000 O   0  0  0  0  0  0  0  0  0  0  0  0
    9.3811   -8.1867    0.0000 C   0  0  0  0  0  0  0  0  0  0  0  0
    8.6666   -7.7742    0.0000 O   0  0  0  0  0  0  0  0  0  0  0  0
    7.9521  -10.6617    0.0000 O   0  0  0  0  0  0  0  0  0  0  0  0
   10.8100  -10.6617    0.0000 O   0  0  0  0  0  0  0  0  0  0  0  0
   14.3823   -9.4242    0.0000 C   0  0  1  0  0  0  0  0  0  0  0  0
   15.0968   -9.0117    0.0000 C   0  0  2  0  0  0  0  0  0  0  0  0
   15.8814   -9.2667    0.0000 C   0  0  0  0  0  0  0  0  0  0  0  0
   16.3664   -8.5992    0.0000 C   0  0  2  0  0  0  0  0  0  0  0  0
   17.1510   -8.3443    0.0000 O   0  0  0  0  0  0  0  0  0  0  0  0
   17.1510   -7.5193    0.0000 C   0  0  2  0  0  0  0  0  0  0  0  0
   16.3664   -7.2643    0.0000 C   0  0  2  0  0  0  0  0  0  0  0  0
   15.8814   -7.9318    0.0000 C   0  0  2  0  0  0  0  0  0  0  0  0
   15.0968   -8.1867    0.0000 C   0  0  1  0  0  0  0  0  0  0  0  0
   14.3823   -7.7742    0.0000 C   0  0  0  0  0  0  0  0  0  0  0  0
   13.6679   -8.1867    0.0000 C   0  0  0  0  0  0  0  0  0  0  0  0
   13.6679   -9.0117    0.0000 C   0  0  2  0  0  0  0  0  0  0  0  0
   12.9534   -9.4242    0.0000 C   0  0  1  0  0  0  0  0  0  0  0  0
   12.2389   -9.0117    0.0000 C   0  0  0  0  0  0  0  0  0  0  0  0
   11.5245   -9.4242    0.0000 C   0  0  1  0  0  0  0  0  0  0  0  0
   11.5245  -10.2492    0.0000 C   0  0  1  0  0  0  0  0  0  0  0  0
   12.2389  -10.6617    0.0000 C   0  0  0  0  0  0  0  0  0  0  0  0
   12.9534  -10.2492    0.0000 C   0  0  1  0  0  0  0  0  0  0  0  0
   13.6679  -10.6617    0.0000 C   0  0  0  0  0  0  0  0  0  0  0  0
   14.3823  -10.2492    0.0000 C   0  0  0  0  0  0  0  0  0  0  0  0
   17.0647   -6.6988    0.0000 O   0  0  0  0  0  0  0  0  0  0  0  0
   17.9047   -7.8548    0.0000 C   0  0  0  0  0  0  0  0  0  0  0  0
   18.5721   -7.3699    0.0000 C   0  0  1  0  0  0  0  0  0  0  0  0
   18.4859   -6.5494    0.0000 C   0  0  2  0  0  0  0  0  0  0  0  0
   17.7322   -6.2139    0.0000 C   0  0  0  0  0  0  0  0  0  0  0  0
   12.9534   -8.5992    0.0000 C   0  0  0  0  0  0  0  0  0  0  0  0
   15.0968   -7.3617    0.0000 C   0  0  0  0  0  0  0  0  0  0  0  0
   16.1114   -6.4797    0.0000 C   0  0  0  0  0  0  0  0  0  0  0  0
   19.1533   -6.0645    0.0000 C   0  0  0  0  0  0  0  0  0  0  0  0
   10.8100   -9.0117    0.0000 O   0  0  0  0  0  0  0  0  0  0  0  0
   19.3258   -7.7055    0.0000 O   0  0  0  0  0  0  0  0  0  0  0  0
   14.3823   -8.5992    0.0000 H   0  0  0  0  0  0  0  0  0  0  0  0
   15.0968   -9.8367    0.0000 H   0  0  0  0  0  0  0  0  0  0  0  0
   16.8513   -9.2667    0.0000 H   0  0  0  0  0  0  0  0  0  0  0  0
   15.5198   -7.1903    0.0000 H   0  0  0  0  0  0  0  0  0  0  0  0
   13.6679   -9.8367    0.0000 H   0  0  0  0  0  0  0  0  0  0  0  0
   12.9534  -11.0742    0.0000 H   0  0  0  0  0  0  0  0  0  0  0  0
  1  2  1  0  0  0  0
  2  3  1  0  0  0  0
  3  4  1  0  0  0  0
  4  5  1  0  0  0  0
  5  6  1  0  0  0  0
  1  6  1  0  0  0  0
  3  7  1  1  0  0  0
  4  8  1  1  0  0  0
  5  9  1  6  0  0  0
  6 10  1  1  0  0  0
 12 13  1  0  0  0  0
 13 14  1  0  0  0  0
 14 15  1  0  0  0  0
 15 16  1  0  0  0  0
 16 17  1  0  0  0  0
 12 17  1  0  0  0  0
 19 20  1  0  0  0  0
 20 21  1  0  0  0  0
 21 22  1  0  0  0  0
 22 23  1  0  0  0  0
 23 24  1  0  0  0  0
 19 24  1  0  0  0  0
 24 25  1  1  0  0  0
 23 26  1  6  0  0  0
 22 27  1  1  0  0  0
 21 28  1  1  0  0  0
 20 18  1  6  0  0  0
 16 18  1  6  0  0  0
 29 30  1  0  0  0  0
 13 29  1  1  0  0  0
 15 31  1  1  0  0  0
 33 34  1  0  0  0  0
 34 35  1  0  0  0  0
 35 36  1  0  0  0  0
 36 37  1  0  0  0  0
 38 37  1  6  0  0  0
 38 39  1  0  0  0  0
 39 40  1  0  0  0  0
 40 41  1  0  0  0  0
 41 42  1  0  0  0  0
 42 43  1  0  0  0  0
 43 44  1  0  0  0  0
 44 45  1  0  0  0  0
 45 46  1  0  0  0  0
 46 47  1  0  0  0  0
 47 48  1  0  0  0  0
 48 49  1  0  0  0  0
 49 50  1  0  0  0  0
 50 51  1  0  0  0  0
 51 52  1  0  0  0  0
 33 52  1  0  0  0  0
 33 44  1  0  0  0  0
 45 50  1  0  0  0  0
 34 41  1  0  0  0  0
 36 40  1  0  0  0  0
 54 55  1  0  0  0  0
 55 56  1  0  0  0  0
 56 57  1  0  0  0  0
 53 57  1  0  0  0  0
 38 53  1  0  0  0  0
 38 54  1  0  0  0  0
 45 58  1  1  0  0  0
 41 59  1  1  0  0  0
 39 60  1  6  0  0  0
 56 61  1  6  0  0  0
 47 62  1  1  0  0  0
 55 63  1  1  0  0  0
 48 32  1  1  0  0  0
 17 32  1  1  0  0  0
 14 11  1  6  0  0  0
  2 11  1  6  0  0  0
 33 64  1  1  0  0  0
 34 65  1  6  0  0  0
 36 66  1  6  0  0  0
 40 67  1  6  0  0  0
 44 68  1  6  0  0  0
 50 69  1  1  0  0  0
M  END
>  <cdx:fragmentId>
69

$$$$
