302602.cdx
  Mrv1902 05222410202D          

 33 36  0  0  0  0            999 V2000
    4.8768   -8.2987    0.0000 C   0  0  0  0  0  0  0  0  0  0  0  0
    4.1624   -8.7112    0.0000 C   0  0  0  0  0  0  0  0  0  0  0  0
    4.1624   -9.5362    0.0000 C   0  0  1  0  0  0  0  0  0  0  0  0
    4.8768   -9.9487    0.0000 C   0  0  0  0  0  0  0  0  0  0  0  0
    5.5913   -9.5362    0.0000 C   0  0  2  0  0  0  0  0  0  0  0  0
    6.3058   -9.9487    0.0000 C   0  0  0  0  0  0  0  0  0  0  0  0
    7.0203   -9.5362    0.0000 C   0  0  0  0  0  0  0  0  0  0  0  0
    7.0203   -8.7112    0.0000 C   0  0  0  0  0  0  0  0  0  0  0  0
    7.7347   -8.2987    0.0000 C   0  0  1  0  0  0  0  0  0  0  0  0
    8.5194   -8.5536    0.0000 C   0  0  0  0  0  0  0  0  0  0  0  0
    9.0043   -7.8862    0.0000 C   0  0  0  0  0  0  0  0  0  0  0  0
    8.5194   -7.2187    0.0000 C   0  0  2  0  0  0  0  0  0  0  0  0
    7.7347   -7.4737    0.0000 C   0  0  2  0  0  0  0  0  0  0  0  0
    7.0203   -7.0612    0.0000 C   0  0  0  0  0  0  0  0  0  0  0  0
    6.3058   -7.4737    0.0000 C   0  0  0  0  0  0  0  0  0  0  0  0
    6.3058   -8.2987    0.0000 C   0  0  0  0  0  0  0  0  0  0  0  0
    5.5913   -8.7112    0.0000 C   0  0  1  0  0  0  0  0  0  0  0  0
    3.4479   -9.9487    0.0000 O   0  0  0  0  0  0  0  0  0  0  0  0
    8.2223   -5.8210    0.0000 C   0  0  0  0  0  0  0  0  0  0  0  0
    8.7743   -6.4341    0.0000 C   0  0  1  0  0  0  0  0  0  0  0  0
    9.5813   -6.2626    0.0000 C   0  0  0  0  0  0  0  0  0  0  0  0
    9.8362   -5.4779    0.0000 C   0  0  0  0  0  0  0  0  0  0  0  0
   10.6432   -5.3064    0.0000 C   0  0  0  0  0  0  0  0  0  0  0  0
   10.8981   -4.5218    0.0000 C   0  0  0  0  0  0  0  0  0  0  0  0
   10.3461   -3.9087    0.0000 C   0  0  0  0  0  0  0  0  0  0  0  0
   11.7051   -4.3503    0.0000 C   0  0  0  0  0  0  0  0  0  0  0  0
    7.8210   -9.1191    0.0000 C   0  0  0  0  0  0  0  0  0  0  0  0
    7.8210   -6.6532    0.0000 C   0  0  0  0  0  0  0  0  0  0  0  0
    5.5913   -7.8862    0.0000 C   0  0  0  0  0  0  0  0  0  0  0  0
    5.2893  -10.6631    0.0000 C   0  0  0  0  0  0  0  0  0  0  0  0
    4.4643  -10.6631    0.0000 C   0  0  0  0  0  0  0  0  0  0  0  0
    5.5913  -10.3612    0.0000 H   0  0  0  0  0  0  0  0  0  0  0  0
    9.3040   -6.9638    0.0000 H   0  0  0  0  0  0  0  0  0  0  0  0
  1  2  1  0  0  0  0
  2  3  1  0  0  0  0
  3  4  1  0  0  0  0
  4  5  1  0  0  0  0
  5  6  1  0  0  0  0
  6  7  1  0  0  0  0
  7  8  1  0  0  0  0
  8  9  1  0  0  0  0
  9 10  1  0  0  0  0
 10 11  1  0  0  0  0
 12 11  1  0  0  0  0
 12 13  1  0  0  0  0
  9 13  1  0  0  0  0
 13 14  1  0  0  0  0
 14 15  1  0  0  0  0
 15 16  1  0  0  0  0
  8 16  2  0  0  0  0
 16 17  1  0  0  0  0
  5 17  1  0  0  0  0
  1 17  1  0  0  0  0
  3 18  1  1  0  0  0
 20 19  1  1  0  0  0
 20 21  1  0  0  0  0
 21 22  1  0  0  0  0
 22 23  1  0  0  0  0
 23 24  2  0  0  0  0
 24 25  1  0  0  0  0
 24 26  1  0  0  0  0
 12 20  1  0  0  0  0
  9 27  1  1  0  0  0
 13 28  1  6  0  0  0
 17 29  1  1  0  0  0
  4 30  1  0  0  0  0
  4 31  1  0  0  0  0
  5 32  1  6  0  0  0
 12 33  1  1  0  0  0
M  END
>  <cdx:groupId>
101

>  <cdx:fragmentId>
5

$$$$
