302658.cdx
  Mrv1902 05222410202D          

 23 25  0  0  0  0            999 V2000
    7.1406   -8.9031    0.0000 P   0  0  0  0  0  0  0  0  0  0  0  0
    7.1406   -9.7281    0.0000 O   0  0  0  0  0  0  0  0  0  0  0  0
    7.1406   -8.0781    0.0000 O   0  0  0  0  0  0  0  0  0  0  0  0
    7.9656   -8.9031    0.0000 O   0  0  0  0  0  0  0  0  0  0  0  0
    6.3156   -8.9031    0.0000 O   0  0  0  0  0  0  0  0  0  0  0  0
    8.3781   -8.1887    0.0000 C   0  0  0  0  0  0  0  0  0  0  0  0
    6.4262   -7.6656    0.0000 C   0  0  0  0  0  0  0  0  0  0  0  0
    5.9031   -9.6176    0.0000 C   0  0  0  0  0  0  0  0  0  0  0  0
    9.2031   -8.1887    0.0000 C   0  0  0  0  0  0  0  0  0  0  0  0
    9.6156   -7.4742    0.0000 C   0  0  0  0  0  0  0  0  0  0  0  0
    9.2031   -6.7597    0.0000 C   0  0  0  0  0  0  0  0  0  0  0  0
    8.3781   -6.7597    0.0000 C   0  0  0  0  0  0  0  0  0  0  0  0
    7.9656   -7.4742    0.0000 C   0  0  0  0  0  0  0  0  0  0  0  0
    6.4262   -6.8406    0.0000 C   0  0  0  0  0  0  0  0  0  0  0  0
    5.7117   -6.4281    0.0000 C   0  0  0  0  0  0  0  0  0  0  0  0
    4.9972   -6.8406    0.0000 C   0  0  0  0  0  0  0  0  0  0  0  0
    4.9972   -7.6656    0.0000 C   0  0  0  0  0  0  0  0  0  0  0  0
    5.7117   -8.0781    0.0000 C   0  0  0  0  0  0  0  0  0  0  0  0
    5.0781   -9.6176    0.0000 C   0  0  0  0  0  0  0  0  0  0  0  0
    4.6656  -10.3321    0.0000 C   0  0  0  0  0  0  0  0  0  0  0  0
    5.0781  -11.0465    0.0000 C   0  0  0  0  0  0  0  0  0  0  0  0
    5.9031  -11.0465    0.0000 C   0  0  0  0  0  0  0  0  0  0  0  0
    6.3156  -10.3321    0.0000 C   0  0  0  0  0  0  0  0  0  0  0  0
  1  2  2  0  0  0  0
  1  3  1  0  0  0  0
  1  4  1  0  0  0  0
  1  5  1  0  0  0  0
  4  6  1  0  0  0  0
  3  7  1  0  0  0  0
  5  8  1  0  0  0  0
  6  9  2  0  0  0  0
  9 10  1  0  0  0  0
 10 11  2  0  0  0  0
 11 12  1  0  0  0  0
 12 13  2  0  0  0  0
 13  6  1  0  0  0  0
  7 14  2  0  0  0  0
 14 15  1  0  0  0  0
 15 16  2  0  0  0  0
 16 17  1  0  0  0  0
 17 18  2  0  0  0  0
 18  7  1  0  0  0  0
  8 19  2  0  0  0  0
 19 20  1  0  0  0  0
 20 21  2  0  0  0  0
 21 22  1  0  0  0  0
 22 23  2  0  0  0  0
 23  8  1  0  0  0  0
M  END
>  <cdx:fragmentId>
76

$$$$
