302625.cdx
  Mrv1902 05222410262D          

 40 43  0  0  0  0            999 V2000
    3.7243   -5.0230    0.0000 O   0  0  0  0  0  0  0  0  0  0  0  0
    4.2763   -4.4099    0.0000 C   0  0  0  0  0  0  0  0  0  0  0  0
    5.0300   -4.7455    0.0000 C   0  0  1  0  0  0  0  0  0  0  0  0
    4.9437   -5.5659    0.0000 C   0  0  2  0  0  0  0  0  0  0  0  0
    4.1368   -5.7375    0.0000 C   0  0  0  0  0  0  0  0  0  0  0  0
    4.1048   -3.6029    0.0000 O   0  0  0  0  0  0  0  0  0  0  0  0
    5.5568   -6.1180    0.0000 C   0  0  0  0  0  0  0  0  0  0  0  0
    5.3853   -6.9250    0.0000 C   0  0  0  0  0  0  0  0  0  0  0  0
    5.9984   -7.4770    0.0000 C   0  0  0  0  0  0  0  0  0  0  0  0
    5.8269   -8.2840    0.0000 C   0  0  0  0  0  0  0  0  0  0  0  0
    5.0423   -8.5389    0.0000 C   0  0  0  0  0  0  0  0  0  0  0  0
    4.4292   -7.9869    0.0000 C   0  0  0  0  0  0  0  0  0  0  0  0
    4.6007   -7.1799    0.0000 C   0  0  0  0  0  0  0  0  0  0  0  0
    3.6445   -8.2418    0.0000 O   0  0  0  0  0  0  0  0  0  0  0  0
    3.0612   -7.6584    0.0000 C   0  0  0  0  0  0  0  0  0  0  0  0
    4.8707   -9.3459    0.0000 O   0  0  0  0  0  0  0  0  0  0  0  0
    4.0861   -9.6008    0.0000 C   0  0  0  0  0  0  0  0  0  0  0  0
    6.4400   -8.8360    0.0000 O   0  0  0  0  0  0  0  0  0  0  0  0
    7.2246   -8.5811    0.0000 C   0  0  0  0  0  0  0  0  0  0  0  0
    5.7445   -4.3330    0.0000 C   0  0  0  0  0  0  0  0  0  0  0  0
    6.4589   -4.7455    0.0000 C   0  0  0  0  0  0  0  0  0  0  0  0
    6.4589   -5.5705    0.0000 C   0  0  0  0  0  0  0  0  0  0  0  0
    7.1734   -5.9830    0.0000 C   0  0  0  0  0  0  0  0  0  0  0  0
    7.8879   -5.5705    0.0000 C   0  0  0  0  0  0  0  0  0  0  0  0
    7.8879   -4.7455    0.0000 C   0  0  0  0  0  0  0  0  0  0  0  0
    7.1734   -4.3330    0.0000 C   0  0  0  0  0  0  0  0  0  0  0  0
    8.6023   -5.9830    0.0000 O   0  0  0  0  0  0  0  0  0  0  0  0
   10.0313   -5.9830    0.0000 O   0  0  0  0  0  0  0  0  0  0  0  0
    9.3168   -5.5705    0.0000 C   0  0  2  0  0  0  0  0  0  0  0  0
    9.3168   -4.7455    0.0000 C   0  0  1  0  0  0  0  0  0  0  0  0
   10.0313   -4.3330    0.0000 C   0  0  2  0  0  0  0  0  0  0  0  0
   10.7458   -4.7455    0.0000 C   0  0  1  0  0  0  0  0  0  0  0  0
   10.7458   -5.5705    0.0000 C   0  0  1  0  0  0  0  0  0  0  0  0
   11.4602   -5.9830    0.0000 C   0  0  0  0  0  0  0  0  0  0  0  0
   12.1747   -5.5705    0.0000 O   0  0  0  0  0  0  0  0  0  0  0  0
   11.4602   -4.3330    0.0000 O   0  0  0  0  0  0  0  0  0  0  0  0
   10.0313   -3.5080    0.0000 O   0  0  0  0  0  0  0  0  0  0  0  0
    8.6023   -4.3330    0.0000 O   0  0  0  0  0  0  0  0  0  0  0  0
    7.1734   -6.8080    0.0000 O   0  0  0  0  0  0  0  0  0  0  0  0
    6.4589   -7.2205    0.0000 C   0  0  0  0  0  0  0  0  0  0  0  0
  1  2  1  0  0  0  0
  2  3  1  0  0  0  0
  3  4  1  0  0  0  0
  4  5  1  0  0  0  0
  1  5  1  0  0  0  0
  2  6  2  0  0  0  0
  8  9  1  0  0  0  0
  9 10  2  0  0  0  0
 10 11  1  0  0  0  0
 11 12  2  0  0  0  0
 12 13  1  0  0  0  0
  8 13  2  0  0  0  0
 14 15  1  0  0  0  0
 12 14  1  0  0  0  0
 16 17  1  0  0  0  0
 11 16  1  0  0  0  0
 18 19  1  0  0  0  0
 10 18  1  0  0  0  0
  7  8  1  0  0  0  0
  4  7  1  1  0  0  0
 21 22  1  0  0  0  0
 22 23  2  0  0  0  0
 23 24  1  0  0  0  0
 24 25  2  0  0  0  0
 25 26  1  0  0  0  0
 21 26  2  0  0  0  0
 28 29  1  0  0  0  0
 29 30  1  0  0  0  0
 30 31  1  0  0  0  0
 31 32  1  0  0  0  0
 32 33  1  0  0  0  0
 28 33  1  0  0  0  0
 34 35  1  0  0  0  0
 33 34  1  1  0  0  0
 32 36  1  6  0  0  0
 31 37  1  1  0  0  0
 30 38  1  6  0  0  0
 29 27  1  1  0  0  0
 24 27  1  0  0  0  0
 39 40  1  0  0  0  0
 23 39  1  0  0  0  0
 20 21  1  0  0  0  0
  3 20  1  6  0  0  0
M  END
>  <cdx:fragmentId>
36282

$$$$
