302614.cdx
  Mrv1902 05222410192D          

 45 47  0  0  0  0            999 V2000
    8.4967   -7.0862    0.0000 C   0  0  0  0  0  0  0  0  0  0  0  0
    7.7822   -7.4987    0.0000 C   0  0  0  0  0  0  0  0  0  0  0  0
    7.0678   -7.0862    0.0000 C   0  0  2  0  0  0  0  0  0  0  0  0
    6.3533   -7.4987    0.0000 C   0  0  2  0  0  0  0  0  0  0  0  0
    6.3533   -8.8187    0.0000 C   0  0  0  0  0  0  0  0  0  0  0  0
    8.4967   -6.2612    0.0000 O   0  0  0  0  0  0  0  0  0  0  0  0
    7.7822   -8.3237    0.0000 O   0  0  0  0  0  0  0  0  0  0  0  0
    7.0678   -9.2312    0.0000 O   0  0  0  0  0  0  0  0  0  0  0  0
    5.6388   -7.0862    0.0000 C   0  0  1  0  0  0  0  0  0  0  0  0
    4.9244   -7.4987    0.0000 C   0  0  1  0  0  0  0  0  0  0  0  0
    4.2099   -7.0862    0.0000 C   0  0  0  0  0  0  0  0  0  0  0  0
    3.4954   -7.4987    0.0000 O   0  0  0  0  0  0  0  0  0  0  0  0
    4.9244   -8.3237    0.0000 O   0  0  0  0  0  0  0  0  0  0  0  0
    5.6388   -6.2612    0.0000 O   0  0  0  0  0  0  0  0  0  0  0  0
    5.6388   -9.2312    0.0000 C   0  0  0  0  0  0  0  0  0  0  0  0
    5.6388  -10.0562    0.0000 C   0  0  0  0  0  0  0  0  0  0  0  0
    4.9244  -10.4687    0.0000 C   0  0  0  0  0  0  0  0  0  0  0  0
    4.2099  -10.0562    0.0000 C   0  0  0  0  0  0  0  0  0  0  0  0
    4.2099   -9.2312    0.0000 C   0  0  0  0  0  0  0  0  0  0  0  0
    4.9244   -8.8187    0.0000 C   0  0  0  0  0  0  0  0  0  0  0  0
    3.4954   -8.8187    0.0000 O   0  0  0  0  0  0  0  0  0  0  0  0
    3.4954  -10.4687    0.0000 O   0  0  0  0  0  0  0  0  0  0  0  0
    4.9244  -11.2937    0.0000 O   0  0  0  0  0  0  0  0  0  0  0  0
    9.2112   -7.4987    0.0000 C   0  0  0  0  0  0  0  0  0  0  0  0
    9.9256   -7.0862    0.0000 C   0  0  0  0  0  0  0  0  0  0  0  0
   10.6401   -7.4987    0.0000 C   0  0  0  0  0  0  0  0  0  0  0  0
   10.6401   -8.3237    0.0000 C   0  0  0  0  0  0  0  0  0  0  0  0
    9.9256   -8.7362    0.0000 C   0  0  0  0  0  0  0  0  0  0  0  0
    9.2112   -8.3237    0.0000 C   0  0  0  0  0  0  0  0  0  0  0  0
    9.9256   -9.5612    0.0000 O   0  0  0  0  0  0  0  0  0  0  0  0
   11.3546   -8.7362    0.0000 O   0  0  0  0  0  0  0  0  0  0  0  0
   11.3546   -7.0862    0.0000 O   0  0  0  0  0  0  0  0  0  0  0  0
    7.0678   -5.7662    0.0000 C   0  0  0  0  0  0  0  0  0  0  0  0
    6.3533   -5.3537    0.0000 C   0  0  0  0  0  0  0  0  0  0  0  0
    5.6388   -5.7662    0.0000 C   0  0  0  0  0  0  0  0  0  0  0  0
    4.9244   -5.3537    0.0000 C   0  0  0  0  0  0  0  0  0  0  0  0
    4.9244   -4.5287    0.0000 C   0  0  0  0  0  0  0  0  0  0  0  0
    5.6388   -4.1162    0.0000 C   0  0  0  0  0  0  0  0  0  0  0  0
    6.3533   -4.5287    0.0000 C   0  0  0  0  0  0  0  0  0  0  0  0
    7.7822   -5.3537    0.0000 O   0  0  0  0  0  0  0  0  0  0  0  0
    5.6388   -3.2912    0.0000 O   0  0  0  0  0  0  0  0  0  0  0  0
    4.2099   -4.1162    0.0000 O   0  0  0  0  0  0  0  0  0  0  0  0
    4.2099   -5.7662    0.0000 O   0  0  0  0  0  0  0  0  0  0  0  0
    6.3533   -6.6737    0.0000 O   0  0  0  0  0  0  0  0  0  0  0  0
    7.0678   -7.9112    0.0000 O   0  0  0  0  0  0  0  0  0  0  0  0
  1  2  1  0  0  0  0
  2  3  1  0  0  0  0
  3  4  1  0  0  0  0
  4  5  1  0  0  0  0
  1  6  2  0  0  0  0
  2  7  2  0  0  0  0
  5  8  2  0  0  0  0
  9 10  1  0  0  0  0
 10 11  1  0  0  0  0
 11 12  1  0  0  0  0
 10 13  1  6  0  0  0
  9 14  1  1  0  0  0
  4  9  1  0  0  0  0
 15 16  1  0  0  0  0
 16 17  2  0  0  0  0
 17 18  1  0  0  0  0
 18 19  2  0  0  0  0
 19 20  1  0  0  0  0
 15 20  2  0  0  0  0
 19 21  1  0  0  0  0
 18 22  1  0  0  0  0
 17 23  1  0  0  0  0
  5 15  1  0  0  0  0
 24 25  1  0  0  0  0
 25 26  2  0  0  0  0
 26 27  1  0  0  0  0
 27 28  2  0  0  0  0
 28 29  1  0  0  0  0
 24 29  2  0  0  0  0
 28 30  1  0  0  0  0
 27 31  1  0  0  0  0
 26 32  1  0  0  0  0
  1 24  1  0  0  0  0
 33 34  1  0  0  0  0
 34 35  1  0  0  0  0
 35 36  2  0  0  0  0
 36 37  1  0  0  0  0
 37 38  2  0  0  0  0
 38 39  1  0  0  0  0
 34 39  2  0  0  0  0
 33 40  2  0  0  0  0
 38 41  1  0  0  0  0
 37 42  1  0  0  0  0
 36 43  1  0  0  0  0
  3 33  1  0  0  0  0
  4 44  1  1  0  0  0
  3 45  1  1  0  0  0
M  END
>  <cdx:groupId>
139

>  <cdx:fragmentId>
5

$$$$
