302628.cdx
  Mrv1902 05222410192D          

 11 10  0  0  0  0            999 V2000
    6.6594   -8.5663    0.0000 P   0  0  0  0  0  0  0  0  0  0  0  0
    7.3739   -8.1538    0.0000 O   0  0  0  0  0  0  0  0  0  0  0  0
    5.9449   -8.9788    0.0000 O   0  0  0  0  0  0  0  0  0  0  0  0
    6.2469   -7.8518    0.0000 O   0  0  0  0  0  0  0  0  0  0  0  0
    7.0719   -9.2807    0.0000 O   0  0  0  0  0  0  0  0  0  0  0  0
    5.2305   -8.5663    0.0000 C   0  0  0  0  0  0  0  0  0  0  0  0
    4.5160   -8.9788    0.0000 C   0  0  0  0  0  0  0  0  0  0  0  0
    6.6594   -7.1373    0.0000 C   0  0  0  0  0  0  0  0  0  0  0  0
    6.2469   -6.4228    0.0000 C   0  0  0  0  0  0  0  0  0  0  0  0
    8.0883   -8.5663    0.0000 C   0  0  0  0  0  0  0  0  0  0  0  0
    8.8028   -8.1538    0.0000 C   0  0  0  0  0  0  0  0  0  0  0  0
  1  2  1  0  0  0  0
  1  3  1  0  0  0  0
  1  4  1  0  0  0  0
  1  5  2  0  0  0  0
  3  6  1  0  0  0  0
  6  7  1  0  0  0  0
  4  8  1  0  0  0  0
  8  9  1  0  0  0  0
  2 10  1  0  0  0  0
 10 11  1  0  0  0  0
M  END
>  <cdx:fragmentId>
3

$$$$
