302689.cdx
  Mrv1902 05222410222D          

 33 35  0  0  0  0            999 V2000
   11.3568   -7.1120    0.0000 C   0  0  0  0  0  0  0  0  0  0  0  0
   10.6423   -6.6995    0.0000 C   0  0  0  0  0  0  0  0  0  0  0  0
   10.6423   -5.8745    0.0000 C   0  0  0  0  0  0  0  0  0  0  0  0
    9.9279   -5.4620    0.0000 C   0  0  0  0  0  0  0  0  0  0  0  0
    9.2134   -5.8745    0.0000 C   0  0  0  0  0  0  0  0  0  0  0  0
    9.2134   -6.6995    0.0000 C   0  0  0  0  0  0  0  0  0  0  0  0
    9.9279   -7.1120    0.0000 C   0  0  0  0  0  0  0  0  0  0  0  0
   12.0713   -6.6995    0.0000 O   0  0  0  0  0  0  0  0  0  0  0  0
    9.9279   -4.6370    0.0000 O   0  0  0  0  0  0  0  0  0  0  0  0
   10.6423   -4.2245    0.0000 C   0  0  0  0  0  0  0  0  0  0  0  0
    8.4989   -5.4620    0.0000 O   0  0  0  0  0  0  0  0  0  0  0  0
    7.0700   -5.4620    0.0000 O   0  0  0  0  0  0  0  0  0  0  0  0
    7.7844   -5.8745    0.0000 C   0  0  2  0  0  0  0  0  0  0  0  0
    7.7844   -6.6995    0.0000 C   0  0  1  0  0  0  0  0  0  0  0  0
    7.0700   -7.1120    0.0000 C   0  0  2  0  0  0  0  0  0  0  0  0
    6.3555   -6.6995    0.0000 C   0  0  1  0  0  0  0  0  0  0  0  0
    6.3555   -5.8745    0.0000 C   0  0  1  0  0  0  0  0  0  0  0  0
    5.6410   -5.4620    0.0000 C   0  0  0  0  0  0  0  0  0  0  0  0
    5.6410   -4.6370    0.0000 O   0  0  0  0  0  0  0  0  0  0  0  0
    7.0700   -7.9370    0.0000 O   0  0  0  0  0  0  0  0  0  0  0  0
    8.4989   -7.1120    0.0000 O   0  0  0  0  0  0  0  0  0  0  0  0
    4.2094   -7.9322    0.0000 O   0  0  0  0  0  0  0  0  0  0  0  0
    2.7832   -7.1025    0.0000 O   0  0  0  0  0  0  0  0  0  0  0  0
    2.7886   -5.4525    0.0000 O   0  0  0  0  0  0  0  0  0  0  0  0
    3.5186   -4.1983    0.0000 O   0  0  0  0  0  0  0  0  0  0  0  0
    4.2202   -4.6323    0.0000 C   0  0  0  0  0  0  0  0  0  0  0  0
    4.2175   -5.4573    0.0000 C   0  0  2  0  0  0  0  0  0  0  0  0
    3.5017   -5.8674    0.0000 C   0  0  1  0  0  0  0  0  0  0  0  0
    3.4990   -6.6924    0.0000 C   0  0  1  0  0  0  0  0  0  0  0  0
    4.2121   -7.1072    0.0000 C   0  0  2  0  0  0  0  0  0  0  0  0
    4.9279   -6.6971    0.0000 C   0  0  1  0  0  0  0  0  0  0  0  0
    4.9306   -5.8721    0.0000 O   0  0  0  0  0  0  0  0  0  0  0  0
    5.6410   -7.1120    0.0000 O   0  0  0  0  0  0  0  0  0  0  0  0
 31 33  1  1  0  0  0
 30 22  1  6  0  0  0
 29 23  1  1  0  0  0
 28 24  1  1  0  0  0
 27 26  1  1  0  0  0
 26 25  1  0  0  0  0
 32 27  1  0  0  0  0
 28 27  1  0  0  0  0
 29 28  1  0  0  0  0
 30 29  1  0  0  0  0
 31 30  1  0  0  0  0
 32 31  1  0  0  0  0
  1  2  1  0  0  0  0
  2  3  1  0  0  0  0
  3  4  2  0  0  0  0
  4  5  1  0  0  0  0
  5  6  2  0  0  0  0
  6  7  1  0  0  0  0
  2  7  2  0  0  0  0
  1  8  2  0  0  0  0
  9 10  1  0  0  0  0
  4  9  1  0  0  0  0
 12 13  1  0  0  0  0
 13 14  1  0  0  0  0
 14 15  1  0  0  0  0
 15 16  1  0  0  0  0
 16 17  1  0  0  0  0
 12 17  1  0  0  0  0
 16 33  1  6  0  0  0
 18 19  1  0  0  0  0
 17 18  1  1  0  0  0
 15 20  1  1  0  0  0
 14 21  1  6  0  0  0
 13 11  1  1  0  0  0
  5 11  1  0  0  0  0
M  END
>  <cdx:fragmentId>
41

$$$$
