3026.cdx
  Mrv1902 05222410202D          

 20 20  0  0  0  0            999 V2000
    4.6135   -4.5452    0.0000 C   0  0  0  0  0  0  0  0  0  0  0  0
    4.6135   -3.7202    0.0000 C   0  0  0  0  0  0  0  0  0  0  0  0
    3.8990   -3.3077    0.0000 C   0  0  0  0  0  0  0  0  0  0  0  0
    3.1846   -3.7202    0.0000 C   0  0  0  0  0  0  0  0  0  0  0  0
    3.1846   -4.5452    0.0000 C   0  0  0  0  0  0  0  0  0  0  0  0
    3.8990   -4.9577    0.0000 C   0  0  0  0  0  0  0  0  0  0  0  0
    5.3280   -4.9577    0.0000 C   0  0  0  0  0  0  0  0  0  0  0  0
    5.3280   -5.7827    0.0000 O   0  0  0  0  0  0  0  0  0  0  0  0
    6.0424   -4.5452    0.0000 O   0  0  0  0  0  0  0  0  0  0  0  0
    5.3280   -3.3077    0.0000 C   0  0  0  0  0  0  0  0  0  0  0  0
    5.3280   -2.4827    0.0000 O   0  0  0  0  0  0  0  0  0  0  0  0
    6.0424   -3.7202    0.0000 O   0  0  0  0  0  0  0  0  0  0  0  0
    6.7569   -4.9577    0.0000 C   0  0  0  0  0  0  0  0  0  0  0  0
    7.4714   -4.5452    0.0000 C   0  0  0  0  0  0  0  0  0  0  0  0
    8.1859   -4.9577    0.0000 C   0  0  0  0  0  0  0  0  0  0  0  0
    8.9003   -4.5452    0.0000 C   0  0  0  0  0  0  0  0  0  0  0  0
    6.7569   -3.3077    0.0000 C   0  0  0  0  0  0  0  0  0  0  0  0
    7.4714   -3.7202    0.0000 C   0  0  0  0  0  0  0  0  0  0  0  0
    8.1859   -3.3077    0.0000 C   0  0  0  0  0  0  0  0  0  0  0  0
    8.9003   -3.7202    0.0000 C   0  0  0  0  0  0  0  0  0  0  0  0
  1  2  1  0  0  0  0
  2  3  2  0  0  0  0
  3  4  1  0  0  0  0
  4  5  2  0  0  0  0
  5  6  1  0  0  0  0
  1  6  2  0  0  0  0
  7  8  2  0  0  0  0
  7  9  1  0  0  0  0
  1  7  1  0  0  0  0
 10 11  2  0  0  0  0
 10 12  1  0  0  0  0
  2 10  1  0  0  0  0
 13 14  1  0  0  0  0
 14 15  1  0  0  0  0
 15 16  1  0  0  0  0
  9 13  1  0  0  0  0
 17 18  1  0  0  0  0
 18 19  1  0  0  0  0
 19 20  1  0  0  0  0
 12 17  1  0  0  0  0
M  END
>  <cdx:groupId>
62

>  <cdx:fragmentId>
5

$$$$
