302666.cdx
  Mrv1902 05222410212D          

 34 38  0  0  0  0            999 V2000
    8.5671   -6.1679    0.0000 H   0  0  0  0  0  0  0  0  0  0  0  0
    8.2063   -6.3432    0.0000 H   0  0  0  0  0  0  0  0  0  0  0  0
    7.2013   -7.4162    0.0000 C   0  0  2  0  0  0  0  0  0  0  0  0
    7.7415   -6.7926    0.0000 C   0  0  0  0  0  0  0  0  0  0  0  0
    8.5015   -7.1136    0.0000 C   0  0  1  0  0  0  0  0  0  0  0  0
    8.4310   -7.9356    0.0000 C   0  0  0  0  0  0  0  0  0  0  0  0
    9.0567   -8.4728    0.0000 C   0  0  0  0  0  0  0  0  0  0  0  0
    9.0320   -9.2974    0.0000 C   0  0  0  0  0  0  0  0  0  0  0  0
    8.3740   -9.7950    0.0000 C   0  0  0  0  0  0  0  0  0  0  0  0
    7.5739   -9.5942    0.0000 C   0  0  0  0  0  0  0  0  0  0  0  0
    7.2288   -8.8449    0.0000 C   0  0  2  0  0  0  0  0  0  0  0  0
    6.4039   -8.8607    0.0000 C   0  0  2  0  0  0  0  0  0  0  0  0
    5.9778   -8.1543    0.0000 C   0  0  2  0  0  0  0  0  0  0  0  0
    5.1677   -7.9983    0.0000 O   0  0  0  0  0  0  0  0  0  0  0  0
    5.0657   -7.1796    0.0000 C   0  0  0  0  0  0  0  0  0  0  0  0
    5.8128   -6.8297    0.0000 C   0  0  2  0  0  0  0  0  0  0  0  0
    6.3765   -7.4320    0.0000 C   0  0  2  0  0  0  0  0  0  0  0  0
    7.6275   -8.1226    0.0000 C   0  0  2  0  0  0  0  0  0  0  0  0
    4.3434   -6.7809    0.0000 O   0  0  0  0  0  0  0  0  0  0  0  0
    5.9688   -6.0195    0.0000 C   0  0  0  0  0  0  0  0  0  0  0  0
    6.0052   -9.5830    0.0000 C   0  0  0  0  0  0  0  0  0  0  0  0
    5.1847   -9.6687    0.0000 C   0  0  0  0  0  0  0  0  0  0  0  0
    6.9757   -6.6226    0.0000 H   0  0  0  0  0  0  0  0  0  0  0  0
    6.8301   -9.5671    0.0000 H   0  0  0  0  0  0  0  0  0  0  0  0
    5.5058   -8.8309    0.0000 H   0  0  0  0  0  0  0  0  0  0  0  0
    6.5779   -6.6320    0.0000 H   0  0  0  0  0  0  0  0  0  0  0  0
    8.0262   -7.4003    0.0000 H   0  0  0  0  0  0  0  0  0  0  0  0
   11.3300   -6.4554    0.0000 C   0  0  0  0  0  0  0  0  0  0  0  0
   10.4029   -4.9185    0.0000 O   0  0  0  0  0  0  0  0  0  0  0  0
   10.0819   -5.6785    0.0000 C   0  0  0  0  0  0  0  0  0  0  0  0
   10.5080   -6.3849    0.0000 C   0  0  2  0  0  0  0  0  0  0  0  0
    9.9679   -7.0085    0.0000 C   0  0  0  0  0  0  0  0  0  0  0  0
    9.2079   -6.6875    0.0000 C   0  0  2  0  0  0  0  0  0  0  0  0
    9.2784   -5.8655    0.0000 O   0  0  0  0  0  0  0  0  0  0  0  0
 33  1  1  6  0  0  0
  5  2  1  1  0  0  0
 31 28  1  1  0  0  0
 30 29  2  0  0  0  0
 34 30  1  0  0  0  0
 31 30  1  0  0  0  0
 32 31  1  0  0  0  0
 33 32  1  0  0  0  0
 33 34  1  0  0  0  0
  3  4  1  0  0  0  0
  5  4  1  0  0  0  0
  5  6  1  0  0  0  0
  6  7  1  0  0  0  0
  7  8  1  0  0  0  0
  8  9  1  0  0  0  0
  9 10  1  0  0  0  0
 10 11  1  0  0  0  0
 11 12  1  0  0  0  0
 12 13  1  0  0  0  0
 13 14  1  0  0  0  0
 14 15  1  0  0  0  0
 15 16  1  0  0  0  0
 16 17  1  0  0  0  0
  3 17  1  0  0  0  0
  3 18  1  0  0  0  0
 18 11  1  0  0  0  0
 13 17  1  0  0  0  0
  6 18  1  0  0  0  0
 15 19  2  0  0  0  0
  5 33  1  0  0  0  0
 16 20  1  1  0  0  0
 21 22  1  0  0  0  0
 12 21  1  1  0  0  0
  3 23  1  6  0  0  0
 11 24  1  1  0  0  0
 13 25  1  1  0  0  0
 17 26  1  1  0  0  0
 18 27  1  1  0  0  0
M  END
>  <cdx:fragmentId>
5

$$$$
