30264.cdx
  Mrv1902 05222410282D          

 59 64  0  0  0  0            999 V2000
   10.8294   -8.4283    0.0000 C   0  0  2  0  0  0  0  0  0  0  0  0
   10.1149   -8.8408    0.0000 O   0  0  0  0  0  0  0  0  0  0  0  0
    9.4033   -8.4234    0.0000 C   0  0  2  0  0  0  0  0  0  0  0  0
    9.4090   -7.5984    0.0000 O   0  0  0  0  0  0  0  0  0  0  0  0
    8.6975   -7.1809    0.0000 C   0  0  1  0  0  0  0  0  0  0  0  0
    7.9801   -7.5885    0.0000 C   0  0  2  0  0  0  0  0  0  0  0  0
    7.9744   -8.4135    0.0000 C   0  0  1  0  0  0  0  0  0  0  0  0
    8.6860   -8.8309    0.0000 C   0  0  1  0  0  0  0  0  0  0  0  0
    8.6803   -9.6559    0.0000 O   0  0  0  0  0  0  0  0  0  0  0  0
   11.9564   -9.5553    0.0000 C   0  0  0  0  0  0  0  0  0  0  0  0
   11.5439   -8.8408    0.0000 C   0  0  1  0  0  0  0  0  0  0  0  0
   12.2583   -8.4283    0.0000 C   0  0  2  0  0  0  0  0  0  0  0  0
   12.9728   -8.8408    0.0000 C   0  0  0  0  0  0  0  0  0  0  0  0
   13.6873   -8.4283    0.0000 C   0  0  1  0  0  0  0  0  0  0  0  0
   13.6873   -7.6033    0.0000 C   0  0  1  0  0  0  0  0  0  0  0  0
   14.4017   -7.1908    0.0000 C   0  0  2  0  0  0  0  0  0  0  0  0
   14.4017   -6.3658    0.0000 C   0  0  2  0  0  0  0  0  0  0  0  0
   13.6873   -5.9533    0.0000 C   0  0  0  0  0  0  0  0  0  0  0  0
   12.9728   -6.3658    0.0000 C   0  0  0  0  0  0  0  0  0  0  0  0
   12.9728   -7.1908    0.0000 C   0  0  2  0  0  0  0  0  0  0  0  0
   12.2583   -7.6033    0.0000 C   0  0  1  0  0  0  0  0  0  0  0  0
   11.5439   -7.1908    0.0000 C   0  0  0  0  0  0  0  0  0  0  0  0
   10.8294   -7.6033    0.0000 C   0  0  0  0  0  0  0  0  0  0  0  0
   12.2583   -6.7783    0.0000 C   0  0  0  0  0  0  0  0  0  0  0  0
   14.8142   -7.9053    0.0000 C   0  0  0  0  0  0  0  0  0  0  0  0
   11.1314   -9.5553    0.0000 C   0  0  0  0  0  0  0  0  0  0  0  0
    8.7032   -6.3560    0.0000 C   0  0  0  0  0  0  0  0  0  0  0  0
    7.2571   -8.8210    0.0000 O   0  0  0  0  0  0  0  0  0  0  0  0
    7.2685   -7.1710    0.0000 O   0  0  0  0  0  0  0  0  0  0  0  0
   12.9728   -8.0158    0.0000 H   0  0  0  0  0  0  0  0  0  0  0  0
   12.2583   -9.2533    0.0000 H   0  0  0  0  0  0  0  0  0  0  0  0
   15.1864   -7.4457    0.0000 C   0  0  0  0  0  0  0  0  0  0  0  0
   15.6713   -6.7783    0.0000 C   0  0  0  0  0  0  0  0  0  0  0  0
   15.1864   -6.1109    0.0000 C   0  0  2  0  0  0  0  0  0  0  0  0
   13.6873   -9.2533    0.0000 O   0  0  0  0  0  0  0  0  0  0  0  0
   14.2706   -8.1867    0.0000 C   0  0  0  0  0  0  0  0  0  0  0  0
   14.2706   -9.0117    0.0000 O   0  0  0  0  0  0  0  0  0  0  0  0
   14.4017   -5.5408    0.0000 H   0  0  0  0  0  0  0  0  0  0  0  0
   15.4413   -5.3262    0.0000 C   0  0  1  0  0  0  0  0  0  0  0  0
   14.7268   -4.9137    0.0000 O   0  0  0  0  0  0  0  0  0  0  0  0
   16.2483   -5.1547    0.0000 C   0  0  0  0  0  0  0  0  0  0  0  0
   16.5032   -4.3701    0.0000 C   0  0  0  0  0  0  0  0  0  0  0  0
   17.3102   -4.1986    0.0000 C   0  0  0  0  0  0  0  0  0  0  0  0
   17.5651   -3.4139    0.0000 C   0  0  0  0  0  0  0  0  0  0  0  0
   17.0131   -2.8009    0.0000 C   0  0  0  0  0  0  0  0  0  0  0  0
   18.3721   -3.2424    0.0000 C   0  0  0  0  0  0  0  0  0  0  0  0
   18.6270   -2.4578    0.0000 O   0  0  0  0  0  0  0  0  0  0  0  0
   15.4413   -4.5012    0.0000 C   0  0  0  0  0  0  0  0  0  0  0  0
    7.9933   -5.9356    0.0000 O   0  0  0  0  0  0  0  0  0  0  0  0
    7.9630  -10.0634    0.0000 C   0  0  2  0  0  0  0  0  0  0  0  0
    7.2543   -9.6411    0.0000 O   0  0  0  0  0  0  0  0  0  0  0  0
    6.5342  -10.0634    0.0000 C   0  0  0  0  0  0  0  0  0  0  0  0
    6.5342  -10.8883    0.0000 C   0  0  1  0  0  0  0  0  0  0  0  0
    7.2543  -11.3107    0.0000 C   0  0  1  0  0  0  0  0  0  0  0  0
    7.9630  -10.8883    0.0000 C   0  0  1  0  0  0  0  0  0  0  0  0
    8.6803  -11.2959    0.0000 O   0  0  0  0  0  0  0  0  0  0  0  0
    7.2572  -12.1357    0.0000 O   0  0  0  0  0  0  0  0  0  0  0  0
    5.8183  -11.2984    0.0000 O   0  0  0  0  0  0  0  0  0  0  0  0
   15.9710   -5.8559    0.0000 H   0  0  0  0  0  0  0  0  0  0  0  0
  1  2  1  1  0  0  0
  3  2  1  1  0  0  0
  3  4  1  0  0  0  0
  4  5  1  0  0  0  0
  5  6  1  0  0  0  0
  6  7  1  0  0  0  0
  7  8  1  0  0  0  0
  8  9  1  6  0  0  0
 11 10  1  6  0  0  0
 11 12  1  0  0  0  0
 12 13  1  0  0  0  0
 13 14  1  0  0  0  0
 14 15  1  0  0  0  0
 15 16  1  0  0  0  0
 17 18  1  0  0  0  0
 18 19  1  0  0  0  0
 19 20  1  0  0  0  0
 20 21  1  0  0  0  0
 21 22  1  0  0  0  0
 22 23  1  0  0  0  0
  1 23  1  0  0  0  0
  1 11  1  0  0  0  0
 12 21  1  0  0  0  0
 15 20  1  0  0  0  0
 16 17  1  0  0  0  0
  3  8  1  0  0  0  0
 21 24  1  1  0  0  0
 16 25  1  6  0  0  0
 11 26  1  1  0  0  0
  5 27  1  1  0  0  0
  7 28  1  1  0  0  0
  6 29  1  6  0  0  0
 20 30  1  6  0  0  0
 12 31  1  6  0  0  0
 16 32  1  0  0  0  0
 32 33  1  0  0  0  0
 33 34  1  0  0  0  0
 34 17  1  0  0  0  0
 14 35  1  1  0  0  0
 15 36  1  1  0  0  0
 36 37  1  0  0  0  0
 17 38  1  1  0  0  0
 34 39  1  0  0  0  0
 39 40  1  1  0  0  0
 39 41  1  0  0  0  0
 41 42  1  0  0  0  0
 42 43  1  0  0  0  0
 43 44  2  0  0  0  0
 44 45  1  0  0  0  0
 44 46  1  0  0  0  0
 46 47  1  0  0  0  0
 39 48  1  6  0  0  0
 27 49  1  0  0  0  0
 50  9  1  1  0  0  0
 50 51  1  0  0  0  0
 51 52  1  0  0  0  0
 52 53  1  0  0  0  0
 53 54  1  0  0  0  0
 54 55  1  0  0  0  0
 55 50  1  0  0  0  0
 55 56  1  6  0  0  0
 54 57  1  1  0  0  0
 53 58  1  1  0  0  0
 34 59  1  6  0  0  0
M  END
>  <cdx:fragmentId>
185389

$$$$
