30265.cdx
  Mrv1902 05222410282D          

 25 26  0  0  0  0            999 V2000
    1.6206   -8.1114    0.0000 C   0  0  0  0  0  0  0  0  0  0  0  0
    1.6206   -8.9364    0.0000 C   0  0  0  0  0  0  0  0  0  0  0  0
    2.3350   -9.3489    0.0000 C   0  0  0  0  0  0  0  0  0  0  0  0
    3.0495   -8.9364    0.0000 C   0  0  0  0  0  0  0  0  0  0  0  0
    3.0495   -8.1114    0.0000 C   0  0  0  0  0  0  0  0  0  0  0  0
    2.3350   -7.6989    0.0000 C   0  0  0  0  0  0  0  0  0  0  0  0
    3.7640   -9.3489    0.0000 N   0  0  0  0  0  0  0  0  0  0  0  0
    4.4784   -8.9364    0.0000 C   0  0  0  0  0  0  0  0  0  0  0  0
    4.4784   -8.1114    0.0000 C   0  0  0  0  0  0  0  0  0  0  0  0
    3.7640   -7.6989    0.0000 C   0  0  0  0  0  0  0  0  0  0  0  0
    3.7640  -10.1739    0.0000 C   0  0  0  0  0  0  0  0  0  0  0  0
    3.7640   -6.8739    0.0000 O   0  0  0  0  0  0  0  0  0  0  0  0
    5.1929   -9.3489    0.0000 C   0  0  0  0  0  0  0  0  0  0  0  0
    5.9074   -8.9364    0.0000 C   0  0  0  0  0  0  0  0  0  0  0  0
    9.4819   -9.3351    0.0000 C   0  0  0  0  0  0  0  0  0  0  0  0
   10.1963   -8.9226    0.0000 C   0  0  0  0  0  0  0  0  0  0  0  0
   10.1963   -8.0976    0.0000 C   0  0  0  0  0  0  0  0  0  0  0  0
    6.6219   -9.3489    0.0000 C   0  0  0  0  0  0  0  0  0  0  0  0
    7.3363   -8.9364    0.0000 C   0  0  0  0  0  0  0  0  0  0  0  0
   10.9108   -7.6851    0.0000 C   0  0  0  0  0  0  0  0  0  0  0  0
   10.9108   -6.8601    0.0000 C   0  0  0  0  0  0  0  0  0  0  0  0
   11.6253   -6.4476    0.0000 C   0  0  0  0  0  0  0  0  0  0  0  0
   11.6253   -5.6226    0.0000 C   0  0  0  0  0  0  0  0  0  0  0  0
    8.0508   -9.3489    0.0000 C   0  0  0  0  0  0  0  0  0  0  0  0
    8.7653   -8.9364    0.0000 C   0  0  0  0  0  0  0  0  0  0  0  0
  1  2  2  0  0  0  0
  2  3  1  0  0  0  0
  3  4  2  0  0  0  0
  4  5  1  0  0  0  0
  5  6  2  0  0  0  0
  6  1  1  0  0  0  0
  4  7  1  0  0  0  0
  7  8  1  0  0  0  0
  8  9  2  0  0  0  0
  9 10  1  0  0  0  0
 10  5  1  0  0  0  0
  7 11  1  0  0  0  0
 10 12  2  0  0  0  0
  8 13  1  0  0  0  0
 13 14  1  0  0  0  0
 15 16  2  0  0  0  0
 16 17  1  0  0  0  0
 14 18  1  0  0  0  0
 18 19  1  0  0  0  0
 17 20  1  0  0  0  0
 20 21  1  0  0  0  0
 21 22  1  0  0  0  0
 22 23  1  0  0  0  0
 19 24  1  0  0  0  0
 24 25  1  0  0  0  0
 25 15  1  0  0  0  0
M  END
>  <cdx:fragmentId>
74

$$$$
