302674.cdx
  Mrv1902 05222410232D          

  4  3  0  0  0  0            999 V2000
    6.7105   -7.8823    0.0000 N   0  0  0  0  0  0  0  0  0  0  0  0
    7.4250   -7.4698    0.0000 C   0  0  0  0  0  0  0  0  0  0  0  0
    7.4250   -6.6448    0.0000 O   0  0  0  0  0  0  0  0  0  0  0  0
    8.1395   -7.8823    0.0000 N   0  0  0  0  0  0  0  0  0  0  0  0
  1  2  1  0  0  0  0
  2  3  2  0  0  0  0
  2  4  1  0  0  0  0
M  END
>  <cdx:groupId>
13

>  <cdx:fragmentId>
5

$$$$
