302675.cdx
  Mrv1902 05222410222D          

 33 39  0  0  0  0            999 V2000
    7.5692   -4.9244    0.0000 C   0  0  0  0  0  0  0  0  0  0  0  0
    8.4923   -5.2793    0.0000 C   0  0  0  0  0  0  0  0  0  0  0  0
    6.4774   -3.8600    0.0000 H   0  0  0  0  0  0  0  0  0  0  0  0
    7.9256   -4.1134    0.0000 C   0  0  0  0  0  0  0  0  0  0  0  0
    7.1369   -4.3557    0.0000 C   0  0  1  0  0  0  0  0  0  0  0  0
    7.1236   -5.1805    0.0000 C   0  0  0  0  0  0  0  0  0  0  0  0
    8.1813   -8.5154    0.0000 H   0  0  0  0  0  0  0  0  0  0  0  0
    7.4706   -6.1501    0.0000 O   0  0  0  0  0  0  0  0  0  0  0  0
    3.8412   -9.3473    0.0000 O   0  0  0  0  0  0  0  0  0  0  0  0
    6.0177   -7.3197    0.0000 C   0  0  0  0  0  0  0  0  0  0  0  0
   10.3609   -5.7466    0.0000 C   0  0  0  0  0  0  0  0  0  0  0  0
    6.6854  -10.2184    0.0000 O   0  0  0  0  0  0  0  0  0  0  0  0
    8.3996   -4.7886    0.0000 N   0  0  0  0  0  0  0  0  0  0  0  0
    9.2186   -4.8881    0.0000 C   0  0  0  0  0  0  0  0  0  0  0  0
    9.5420   -5.6471    0.0000 C   0  0  1  0  0  0  0  0  0  0  0  0
    9.0463   -6.3066    0.0000 C   0  0  0  0  0  0  0  0  0  0  0  0
    9.3697   -7.0656    0.0000 C   0  0  0  0  0  0  0  0  0  0  0  0
    8.8740   -7.7251    0.0000 C   0  0  0  0  0  0  0  0  0  0  0  0
    8.0550   -7.6256    0.0000 C   0  0  0  0  0  0  0  0  0  0  0  0
    7.4331   -8.1677    0.0000 C   0  0  2  0  0  0  0  0  0  0  0  0
    7.4198   -8.9926    0.0000 C   0  0  0  0  0  0  0  0  0  0  0  0
    6.6987   -9.3935    0.0000 C   0  0  0  0  0  0  0  0  0  0  0  0
    5.9910   -8.9695    0.0000 C   0  0  0  0  0  0  0  0  0  0  0  0
    5.2700   -9.3704    0.0000 C   0  0  0  0  0  0  0  0  0  0  0  0
    4.5623   -8.9464    0.0000 C   0  0  2  0  0  0  0  0  0  0  0  0
    4.5756   -8.1215    0.0000 C   0  0  0  0  0  0  0  0  0  0  0  0
    5.2966   -7.7206    0.0000 C   0  0  0  0  0  0  0  0  0  0  0  0
    6.0043   -8.1446    0.0000 C   0  0  1  0  0  0  0  0  0  0  0  0
    6.7254   -7.7437    0.0000 C   0  0  0  0  0  0  0  0  0  0  0  0
    6.9099   -6.9396    0.0000 C   0  0  0  0  0  0  0  0  0  0  0  0
    7.7317   -6.8666    0.0000 C   0  0  0  0  0  0  0  0  0  0  0  0
    8.2273   -6.2071    0.0000 C   0  0  0  0  0  0  0  0  0  0  0  0
    7.9040   -5.4481    0.0000 C   0  0  0  0  0  0  0  0  0  0  0  0
  1  5  1  0  0  0  0
  2  1  1  0  0  0  0
 14  2  1  0  0  0  0
  5  3  1  1  0  0  0
  4 13  1  0  0  0  0
  5  4  1  0  0  0  0
  6  5  1  0  0  0  0
 33  6  1  0  0  0  0
 20  7  1  1  0  0  0
 33  8  1  0  0  0  0
 25  9  1  1  0  0  0
 28 10  1  1  0  0  0
 15 11  1  6  0  0  0
 22 12  2  0  0  0  0
 28 23  1  0  0  0  0
 29 20  1  0  0  0  0
 31 19  2  0  0  0  0
 32 16  2  0  0  0  0
 14 13  1  0  0  0  0
 33 13  1  0  0  0  0
 15 14  1  0  0  0  0
 16 15  1  0  0  0  0
 17 16  1  0  0  0  0
 18 17  2  0  0  0  0
 19 18  1  0  0  0  0
 20 19  1  0  0  0  0
 21 20  1  0  0  0  0
 22 21  1  0  0  0  0
 23 22  1  0  0  0  0
 24 23  1  0  0  0  0
 25 24  1  0  0  0  0
 26 25  1  0  0  0  0
 27 26  1  0  0  0  0
 28 27  1  0  0  0  0
 29 28  1  0  0  0  0
 30 29  1  0  0  0  0
 31 30  1  0  0  0  0
 32 31  1  0  0  0  0
 33 32  1  0  0  0  0
M  END
>  <cdx:groupId>
107

>  <cdx:fragmentId>
5

$$$$
