302693.cdx
  Mrv1902 05222410232D          

 52 59  0  0  0  0            999 V2000
    5.2786  -11.1825    0.0000 C   0  0  0  0  0  0  0  0  0  0  0  0
    4.5723  -11.6087    0.0000 C   0  0  0  0  0  0  0  0  0  0  0  0
    3.8500  -11.2101    0.0000 C   0  0  0  0  0  0  0  0  0  0  0  0
    3.1436  -11.6363    0.0000 C   0  0  0  0  0  0  0  0  0  0  0  0
    3.1595  -12.4611    0.0000 C   0  0  0  0  0  0  0  0  0  0  0  0
    3.8818  -12.8598    0.0000 C   0  0  0  0  0  0  0  0  0  0  0  0
    4.5882  -12.4336    0.0000 C   0  0  0  0  0  0  0  0  0  0  0  0
    5.2627  -10.3577    0.0000 O   0  0  0  0  0  0  0  0  0  0  0  0
    6.0009  -11.5812    0.0000 O   0  0  0  0  0  0  0  0  0  0  0  0
    2.4531  -12.8873    0.0000 O   0  0  0  0  0  0  0  0  0  0  0  0
    1.7308  -12.4887    0.0000 C   0  0  0  0  0  0  0  0  0  0  0  0
    2.4213  -11.2376    0.0000 O   0  0  0  0  0  0  0  0  0  0  0  0
    1.7149  -11.6638    0.0000 C   0  0  0  0  0  0  0  0  0  0  0  0
    8.1360  -11.9524    0.0000 H   0  0  0  0  0  0  0  0  0  0  0  0
   10.2632  -10.6875    0.0000 H   0  0  0  0  0  0  0  0  0  0  0  0
   12.0390   -7.0046    0.0000 H   0  0  0  0  0  0  0  0  0  0  0  0
    9.4762   -8.0740    0.0000 H   0  0  0  0  0  0  0  0  0  0  0  0
    9.2177   -8.3809    0.0000 O   0  0  0  0  0  0  0  0  0  0  0  0
   12.3639   -7.8948    0.0000 O   0  0  0  0  0  0  0  0  0  0  0  0
   11.9170   -8.4284    0.0000 O   0  0  0  0  0  0  0  0  0  0  0  0
   12.2671   -9.1754    0.0000 O   0  0  0  0  0  0  0  0  0  0  0  0
   10.5636  -10.4258    0.0000 O   0  0  0  0  0  0  0  0  0  0  0  0
    7.4296  -12.3786    0.0000 O   0  0  0  0  0  0  0  0  0  0  0  0
   10.1669   -4.6930    0.0000 C   0  0  0  0  0  0  0  0  0  0  0  0
   12.3141   -7.3313    0.0000 C   0  0  0  0  0  0  0  0  0  0  0  0
    8.1042   -9.4777    0.0000 C   0  0  0  0  0  0  0  0  0  0  0  0
    8.9824   -9.0663    0.0000 C   0  0  0  0  0  0  0  0  0  0  0  0
    8.8265   -9.8764    0.0000 C   0  0  1  0  0  0  0  0  0  0  0  0
    7.5075  -10.3675    0.0000 O   0  0  0  0  0  0  0  0  0  0  0  0
    7.4296  -11.5536    0.0000 C   0  0  1  0  0  0  0  0  0  0  0  0
    6.7073  -11.1550    0.0000 C   0  0  2  0  0  0  0  0  0  0  0  0
    6.6914  -10.3301    0.0000 C   0  0  0  0  0  0  0  0  0  0  0  0
    7.3978   -9.9039    0.0000 C   0  0  0  0  0  0  0  0  0  0  0  0
    8.1201  -10.3026    0.0000 C   0  0  2  0  0  0  0  0  0  0  0  0
    8.1360  -11.1274    0.0000 C   0  0  2  0  0  0  0  0  0  0  0  0
    8.8583  -11.5261    0.0000 C   0  0  0  0  0  0  0  0  0  0  0  0
    9.5647  -11.0999    0.0000 C   0  0  0  0  0  0  0  0  0  0  0  0
    9.5488  -10.2750    0.0000 C   0  0  1  0  0  0  0  0  0  0  0  0
   10.1511   -9.7113    0.0000 C   0  0  1  0  0  0  0  0  0  0  0  0
   10.9731   -9.7817    0.0000 C   0  0  0  0  0  0  0  0  0  0  0  0
   11.4451   -9.1050    0.0000 C   0  0  1  0  0  0  0  0  0  0  0  0
   11.0950   -8.3580    0.0000 C   0  0  1  0  0  0  0  0  0  0  0  0
   11.5670   -7.6813    0.0000 C   0  0  1  0  0  0  0  0  0  0  0  0
   11.2170   -6.9342    0.0000 C   0  0  2  0  0  0  0  0  0  0  0  0
   11.6889   -6.2576    0.0000 C   0  0  0  0  0  0  0  0  0  0  0  0
   11.3389   -5.5105    0.0000 C   0  0  0  0  0  0  0  0  0  0  0  0
   10.5169   -5.4401    0.0000 C   0  0  1  0  0  0  0  0  0  0  0  0
   10.0450   -6.1168    0.0000 C   0  0  0  0  0  0  0  0  0  0  0  0
   10.3950   -6.8638    0.0000 N   0  0  0  0  0  0  0  0  0  0  0  0
    9.9230   -7.5405    0.0000 C   0  0  0  0  0  0  0  0  0  0  0  0
   10.2730   -8.2876    0.0000 C   0  0  1  0  0  0  0  0  0  0  0  0
    9.8011   -8.9642    0.0000 C   0  0  1  0  0  0  0  0  0  0  0  0
 35 14  1  1  0  0  0
 38 15  1  1  0  0  0
 44 16  1  6  0  0  0
 51 17  1  1  0  0  0
 31  9  1  1  0  0  0
 52 18  1  6  0  0  0
 43 19  1  1  0  0  0
 42 20  1  6  0  0  0
 41 21  1  1  0  0  0
 39 22  1  6  0  0  0
 30 23  1  6  0  0  0
 47 24  1  1  0  0  0
 43 25  1  6  0  0  0
 34 26  1  1  0  0  0
 49 44  1  0  0  0  0
 51 42  1  0  0  0  0
 35 30  1  0  0  0  0
 38 28  1  0  0  0  0
 34 28  1  0  0  0  0
 52 39  1  0  0  0  0
 52 27  1  0  0  0  0
 28 27  1  1  0  0  0
 28 29  1  0  0  0  0
 30 29  1  0  0  0  0
 31 30  1  0  0  0  0
 32 31  1  0  0  0  0
 33 32  1  0  0  0  0
 34 33  1  0  0  0  0
 35 34  1  0  0  0  0
 36 35  1  0  0  0  0
 37 36  1  0  0  0  0
 38 37  1  0  0  0  0
 39 38  1  0  0  0  0
 40 39  1  0  0  0  0
 41 40  1  0  0  0  0
 42 41  1  0  0  0  0
 43 42  1  0  0  0  0
 44 43  1  0  0  0  0
 45 44  1  0  0  0  0
 46 45  1  0  0  0  0
 47 46  1  0  0  0  0
 48 47  1  0  0  0  0
 49 48  1  0  0  0  0
 50 49  1  0  0  0  0
 51 50  1  0  0  0  0
 52 51  1  0  0  0  0
  1  2  1  0  0  0  0
  2  3  1  0  0  0  0
  3  4  2  0  0  0  0
  4  5  1  0  0  0  0
  5  6  2  0  0  0  0
  6  7  1  0  0  0  0
  2  7  2  0  0  0  0
  1  8  2  0  0  0  0
  1  9  1  0  0  0  0
 10 11  1  0  0  0  0
  5 10  1  0  0  0  0
 12 13  1  0  0  0  0
  4 12  1  0  0  0  0
M  END
>  <cdx:fragmentId>
232

$$$$
