30268.cdx
  Mrv1902 05222410182D          

 27 28  0  0  0  0            999 V2000
    1.3593   -7.7539    0.0000 C   0  0  0  0  0  0  0  0  0  0  0  0
    1.3593   -8.5789    0.0000 C   0  0  0  0  0  0  0  0  0  0  0  0
    2.0738   -8.9914    0.0000 C   0  0  0  0  0  0  0  0  0  0  0  0
    2.7882   -8.5789    0.0000 C   0  0  0  0  0  0  0  0  0  0  0  0
    2.7882   -7.7539    0.0000 C   0  0  0  0  0  0  0  0  0  0  0  0
    2.0738   -7.3414    0.0000 C   0  0  0  0  0  0  0  0  0  0  0  0
    3.5027   -8.9914    0.0000 N   0  0  0  0  0  0  0  0  0  0  0  0
    4.2172   -8.5789    0.0000 C   0  0  0  0  0  0  0  0  0  0  0  0
    4.2172   -7.7539    0.0000 C   0  0  0  0  0  0  0  0  0  0  0  0
    3.5027   -7.3414    0.0000 C   0  0  0  0  0  0  0  0  0  0  0  0
    3.5027   -9.8164    0.0000 C   0  0  0  0  0  0  0  0  0  0  0  0
    3.5027   -6.5164    0.0000 O   0  0  0  0  0  0  0  0  0  0  0  0
    4.9317   -8.9914    0.0000 C   0  0  0  0  0  0  0  0  0  0  0  0
    5.6461   -8.5789    0.0000 C   0  0  0  0  0  0  0  0  0  0  0  0
    9.2206   -8.9776    0.0000 C   0  0  0  0  0  0  0  0  0  0  0  0
    9.9351   -8.5651    0.0000 C   0  0  0  0  0  0  0  0  0  0  0  0
    6.3606   -8.9914    0.0000 C   0  0  0  0  0  0  0  0  0  0  0  0
    7.0751   -8.5789    0.0000 C   0  0  0  0  0  0  0  0  0  0  0  0
    7.7895   -8.9914    0.0000 C   0  0  0  0  0  0  0  0  0  0  0  0
    8.5040   -8.5789    0.0000 C   0  0  0  0  0  0  0  0  0  0  0  0
   10.6495   -8.9776    0.0000 C   0  0  0  0  0  0  0  0  0  0  0  0
   11.3640   -8.5651    0.0000 C   0  0  0  0  0  0  0  0  0  0  0  0
   11.3640   -7.7401    0.0000 C   0  0  0  0  0  0  0  0  0  0  0  0
   12.0785   -7.3276    0.0000 C   0  0  0  0  0  0  0  0  0  0  0  0
   12.0785   -6.5026    0.0000 C   0  0  0  0  0  0  0  0  0  0  0  0
   12.7930   -6.0901    0.0000 C   0  0  0  0  0  0  0  0  0  0  0  0
   12.7930   -5.2651    0.0000 C   0  0  0  0  0  0  0  0  0  0  0  0
  1  2  2  0  0  0  0
  2  3  1  0  0  0  0
  3  4  2  0  0  0  0
  4  5  1  0  0  0  0
  5  6  2  0  0  0  0
  6  1  1  0  0  0  0
  4  7  1  0  0  0  0
  7  8  1  0  0  0  0
  8  9  2  0  0  0  0
  9 10  1  0  0  0  0
 10  5  1  0  0  0  0
  7 11  1  0  0  0  0
 10 12  2  0  0  0  0
  8 13  1  0  0  0  0
 13 14  1  0  0  0  0
 15 16  1  0  0  0  0
 14 17  1  0  0  0  0
 17 18  1  0  0  0  0
 18 19  1  0  0  0  0
 19 20  1  0  0  0  0
 20 15  1  0  0  0  0
 16 21  1  0  0  0  0
 21 22  2  0  0  0  0
 22 23  1  0  0  0  0
 23 24  1  0  0  0  0
 24 25  1  0  0  0  0
 25 26  1  0  0  0  0
 26 27  1  0  0  0  0
M  END
>  <cdx:fragmentId>
74

$$$$
