302624.cdx
  Mrv1902 05222410272D          

 12 11  0  0  0  0            999 V2000
    8.8539   -7.1414    0.0000 C   0  0  0  0  0  0  0  0  0  0  0  0
    8.1395   -7.5539    0.0000 C   0  0  0  0  0  0  0  0  0  0  0  0
    8.8539   -6.3164    0.0000 O   0  0  0  0  0  0  0  0  0  0  0  0
    9.5684   -7.5539    0.0000 O   0  0  0  0  0  0  0  0  0  0  0  0
    7.4250   -7.1414    0.0000 N   0  0  0  0  0  0  0  0  0  0  0  0
    7.1230   -8.2684    0.0000 C   0  0  0  0  0  0  0  0  0  0  0  0
    6.7105   -7.5539    0.0000 C   0  0  0  0  0  0  0  0  0  0  0  0
    5.9961   -7.9664    0.0000 C   0  0  0  0  0  0  0  0  0  0  0  0
    6.2980   -6.8395    0.0000 C   0  0  0  0  0  0  0  0  0  0  0  0
    6.7105   -6.1250    0.0000 O   0  0  0  0  0  0  0  0  0  0  0  0
    5.2816   -7.5539    0.0000 O   0  0  0  0  0  0  0  0  0  0  0  0
    6.7105   -8.9829    0.0000 O   0  0  0  0  0  0  0  0  0  0  0  0
  1  2  1  0  0  0  0
  1  3  2  0  0  0  0
  1  4  1  0  0  0  0
  6  7  1  0  0  0  0
  7  8  1  0  0  0  0
  9 10  1  0  0  0  0
  7  9  1  0  0  0  0
  8 11  1  0  0  0  0
  6 12  1  0  0  0  0
  5  7  1  0  0  0  0
  2  5  1  0  0  0  0
M  END
>  <cdx:fragmentId>
15

$$$$
