302688.cdx
  Mrv1902 05222410222D          

 55 59  0  0  0  0            999 V2000
   12.2549   -9.1729    0.0000 C   0  0  0  0  0  0  0  0  0  0  0  0
   11.5404   -8.7604    0.0000 C   0  0  2  0  0  0  0  0  0  0  0  0
   10.8259   -9.1729    0.0000 C   0  0  0  0  0  0  0  0  0  0  0  0
   10.1114   -8.7604    0.0000 C   0  0  0  0  0  0  0  0  0  0  0  0
   12.2549   -9.9979    0.0000 O   0  0  0  0  0  0  0  0  0  0  0  0
   12.9693   -8.7604    0.0000 O   0  0  0  0  0  0  0  0  0  0  0  0
   10.1114   -7.9354    0.0000 O   0  0  0  0  0  0  0  0  0  0  0  0
    9.3970   -9.1729    0.0000 O   0  0  0  0  0  0  0  0  0  0  0  0
   11.5404   -7.9354    0.0000 C   0  0  0  0  0  0  0  0  0  0  0  0
   12.2549   -7.5229    0.0000 C   0  0  0  0  0  0  0  0  0  0  0  0
   12.2549   -6.6979    0.0000 C   0  0  0  0  0  0  0  0  0  0  0  0
   12.9693   -6.2854    0.0000 C   0  0  0  0  0  0  0  0  0  0  0  0
   13.6838   -6.6979    0.0000 C   0  0  0  0  0  0  0  0  0  0  0  0
   13.6838   -7.5229    0.0000 C   0  0  0  0  0  0  0  0  0  0  0  0
   12.9693   -7.9354    0.0000 C   0  0  0  0  0  0  0  0  0  0  0  0
   14.3983   -6.2854    0.0000 O   0  0  0  0  0  0  0  0  0  0  0  0
   11.5404   -9.5854    0.0000 O   0  0  0  0  0  0  0  0  0  0  0  0
   13.6838   -9.1729    0.0000 C   0  0  0  0  0  0  0  0  0  0  0  0
   14.3983   -8.7604    0.0000 C   0  0  0  0  0  0  0  0  0  0  0  0
   14.3983   -7.9354    0.0000 C   0  0  0  0  0  0  0  0  0  0  0  0
   15.1127   -7.5229    0.0000 C   0  0  0  0  0  0  0  0  0  0  0  0
   15.8272   -7.9354    0.0000 C   0  0  0  0  0  0  0  0  0  0  0  0
   15.8272   -8.7604    0.0000 C   0  0  0  0  0  0  0  0  0  0  0  0
   15.1127   -9.1729    0.0000 C   0  0  0  0  0  0  0  0  0  0  0  0
    8.6825   -8.7604    0.0000 C   0  0  0  0  0  0  0  0  0  0  0  0
    7.9680   -9.1729    0.0000 C   0  0  0  0  0  0  0  0  0  0  0  0
    7.9680   -9.9979    0.0000 C   0  0  0  0  0  0  0  0  0  0  0  0
    7.2536  -10.4104    0.0000 C   0  0  0  0  0  0  0  0  0  0  0  0
    6.5391   -9.9979    0.0000 C   0  0  0  0  0  0  0  0  0  0  0  0
    6.5391   -9.1729    0.0000 C   0  0  0  0  0  0  0  0  0  0  0  0
    7.2536   -8.7604    0.0000 C   0  0  0  0  0  0  0  0  0  0  0  0
   15.1127   -6.6979    0.0000 O   0  0  0  0  0  0  0  0  0  0  0  0
   15.1127   -5.0479    0.0000 O   0  0  0  0  0  0  0  0  0  0  0  0
   16.5417   -4.2229    0.0000 O   0  0  0  0  0  0  0  0  0  0  0  0
   17.9706   -4.2229    0.0000 O   0  0  0  0  0  0  0  0  0  0  0  0
   17.9706   -5.0479    0.0000 C   0  0  0  0  0  0  0  0  0  0  0  0
   17.2562   -5.4604    0.0000 C   0  0  2  0  0  0  0  0  0  0  0  0
   16.5417   -5.0479    0.0000 C   0  0  2  0  0  0  0  0  0  0  0  0
   15.8272   -5.4604    0.0000 C   0  0  1  0  0  0  0  0  0  0  0  0
   15.8272   -6.2854    0.0000 C   0  0  2  0  0  0  0  0  0  0  0  0
   16.5417   -6.6979    0.0000 C   0  0  1  0  0  0  0  0  0  0  0  0
   17.2562   -6.2854    0.0000 O   0  0  0  0  0  0  0  0  0  0  0  0
   16.5417   -7.5229    0.0000 O   0  0  0  0  0  0  0  0  0  0  0  0
    4.3968  -11.2373    0.0000 O   0  0  0  0  0  0  0  0  0  0  0  0
    2.9667  -10.4142    0.0000 O   0  0  0  0  0  0  0  0  0  0  0  0
    2.9645   -8.7642    0.0000 O   0  0  0  0  0  0  0  0  0  0  0  0
    3.6773   -7.5257    0.0000 O   0  0  0  0  0  0  0  0  0  0  0  0
    4.3924   -7.9373    0.0000 C   0  0  0  0  0  0  0  0  0  0  0  0
    4.3935   -8.7623    0.0000 C   0  0  2  0  0  0  0  0  0  0  0  0
    3.6795   -9.1757    0.0000 C   0  0  2  0  0  0  0  0  0  0  0  0
    3.6807  -10.0007    0.0000 C   0  0  1  0  0  0  0  0  0  0  0  0
    4.3957  -10.4123    0.0000 C   0  0  2  0  0  0  0  0  0  0  0  0
    5.1096   -9.9988    0.0000 C   0  0  1  0  0  0  0  0  0  0  0  0
    5.1085   -9.1738    0.0000 O   0  0  0  0  0  0  0  0  0  0  0  0
    5.8246  -10.4104    0.0000 O   0  0  0  0  0  0  0  0  0  0  0  0
 41 43  1  1  0  0  0
 40 32  1  6  0  0  0
 39 33  1  1  0  0  0
 38 34  1  6  0  0  0
 37 36  1  1  0  0  0
 36 35  1  0  0  0  0
 42 37  1  0  0  0  0
 38 37  1  0  0  0  0
 39 38  1  0  0  0  0
 40 39  1  0  0  0  0
 41 40  1  0  0  0  0
 42 41  1  0  0  0  0
 53 55  1  1  0  0  0
 52 44  1  6  0  0  0
 51 45  1  1  0  0  0
 50 46  1  6  0  0  0
 49 48  1  1  0  0  0
 48 47  1  0  0  0  0
 54 49  1  0  0  0  0
 50 49  1  0  0  0  0
 51 50  1  0  0  0  0
 52 51  1  0  0  0  0
 53 52  1  0  0  0  0
 54 53  1  0  0  0  0
  1  2  1  0  0  0  0
  2  3  1  0  0  0  0
  3  4  1  0  0  0  0
  1  5  2  0  0  0  0
  1  6  1  0  0  0  0
  4  7  2  0  0  0  0
  4  8  1  0  0  0  0
 10 11  1  0  0  0  0
 11 12  2  0  0  0  0
 12 13  1  0  0  0  0
 13 14  2  0  0  0  0
 14 15  1  0  0  0  0
 10 15  2  0  0  0  0
 13 16  1  0  0  0  0
  9 10  1  0  0  0  0
  2  9  1  0  0  0  0
  2 17  1  1  0  0  0
 19 20  1  0  0  0  0
 20 21  2  0  0  0  0
 21 22  1  0  0  0  0
 22 23  2  0  0  0  0
 23 24  1  0  0  0  0
 19 24  2  0  0  0  0
 22 43  1  0  0  0  0
 18 19  1  0  0  0  0
  6 18  1  0  0  0  0
 26 27  1  0  0  0  0
 27 28  2  0  0  0  0
 28 29  1  0  0  0  0
 29 30  2  0  0  0  0
 30 31  1  0  0  0  0
 26 31  2  0  0  0  0
 29 55  1  0  0  0  0
 25 26  1  0  0  0  0
  8 25  1  0  0  0  0
M  END
>  <cdx:fragmentId>
55

$$$$
