302642.cdx
  Mrv1902 05222410252D          

 22 24  0  0  0  0            999 V2000
    8.4967   -5.3989    0.0000 C   0  0  0  0  0  0  0  0  0  0  0  0
    9.2112   -4.9864    0.0000 C   0  0  0  0  0  0  0  0  0  0  0  0
    9.9256   -5.3989    0.0000 C   0  0  0  0  0  0  0  0  0  0  0  0
    9.9256   -6.2239    0.0000 C   0  0  0  0  0  0  0  0  0  0  0  0
    9.2112   -6.6364    0.0000 C   0  0  0  0  0  0  0  0  0  0  0  0
    8.4967   -6.2239    0.0000 C   0  0  0  0  0  0  0  0  0  0  0  0
    9.3217   -8.6989    0.0000 O   0  0  0  0  0  0  0  0  0  0  0  0
    8.4967   -9.5239    0.0000 O   0  0  0  0  0  0  0  0  0  0  0  0
    7.6717   -8.6989    0.0000 O   0  0  0  0  0  0  0  0  0  0  0  0
    8.4967   -8.6989    0.0000 C   0  0  0  0  0  0  0  0  0  0  0  0
    8.4967   -7.8739    0.0000 O   0  0  0  0  0  0  0  0  0  0  0  0
    7.0678   -8.6989    0.0000 O   0  0  0  0  0  0  0  0  0  0  0  0
    7.0678   -6.2239    0.0000 O   0  0  0  0  0  0  0  0  0  0  0  0
    6.3533   -6.6364    0.0000 C   0  0  0  0  0  0  0  0  0  0  0  0
    5.6388   -6.2239    0.0000 C   0  0  0  0  0  0  0  0  0  0  0  0
    4.9244   -6.6364    0.0000 C   0  0  0  0  0  0  0  0  0  0  0  0
    4.9244   -7.4614    0.0000 C   0  0  0  0  0  0  0  0  0  0  0  0
    5.6388   -7.8739    0.0000 C   0  0  0  0  0  0  0  0  0  0  0  0
    6.3533   -7.4614    0.0000 C   0  0  0  0  0  0  0  0  0  0  0  0
    7.0678   -7.8739    0.0000 C   0  0  0  0  0  0  0  0  0  0  0  0
    7.7822   -7.4614    0.0000 C   0  0  0  0  0  0  0  0  0  0  0  0
    7.7822   -6.6364    0.0000 C   0  0  0  0  0  0  0  0  0  0  0  0
 22  6  1  0  0  0  0
  6  1  2  0  0  0  0
  2  1  1  0  0  0  0
  3  2  2  0  0  0  0
  4  3  1  0  0  0  0
  5  4  2  0  0  0  0
  6  5  1  0  0  0  0
 21 11  1  0  0  0  0
 10  7  1  0  0  0  0
 10  8  1  0  0  0  0
 10  9  1  0  0  0  0
 11 10  1  0  0  0  0
 20 12  2  0  0  0  0
 22 13  1  0  0  0  0
 14 13  1  0  0  0  0
 19 14  2  0  0  0  0
 15 14  1  0  0  0  0
 16 15  2  0  0  0  0
 17 16  1  0  0  0  0
 18 17  2  0  0  0  0
 19 18  1  0  0  0  0
 20 19  1  0  0  0  0
 21 20  1  0  0  0  0
 22 21  2  0  0  0  0
M  END
>  <cdx:fragmentId>
5

$$$$
