30269.cdx
  Mrv1902 05222410182D          

 11 10  0  0  0  0            999 V2000
    4.7825   -7.7126    0.0000 C   0  0  0  0  0  0  0  0  0  0  0  0
    5.4970   -7.3001    0.0000 C   0  0  0  0  0  0  0  0  0  0  0  0
    6.2115   -7.7126    0.0000 C   0  0  0  0  0  0  0  0  0  0  0  0
    6.9259   -7.3001    0.0000 O   0  0  0  0  0  0  0  0  0  0  0  0
    7.6404   -7.7126    0.0000 C   0  0  0  0  0  0  0  0  0  0  0  0
    8.3549   -7.3001    0.0000 C   0  0  0  0  0  0  0  0  0  0  0  0
    9.0694   -7.7126    0.0000 C   0  0  0  0  0  0  0  0  0  0  0  0
    9.7838   -7.3001    0.0000 C   0  0  0  0  0  0  0  0  0  0  0  0
    5.4970   -6.4751    0.0000 O   0  0  0  0  0  0  0  0  0  0  0  0
    6.2115   -8.5376    0.0000 C   0  0  0  0  0  0  0  0  0  0  0  0
    7.6404   -8.5376    0.0000 O   0  0  0  0  0  0  0  0  0  0  0  0
  1  2  1  0  0  0  0
  2  3  1  0  0  0  0
  3  4  1  0  0  0  0
  4  5  1  0  0  0  0
  5  6  1  0  0  0  0
  6  7  1  0  0  0  0
  7  8  1  0  0  0  0
  2  9  2  0  0  0  0
  3 10  1  0  0  0  0
  5 11  2  0  0  0  0
M  END
>  <cdx:fragmentId>
3

$$$$
