302651.cdx
  Mrv1902 05222410232D          

 16 16  0  0  0  0            999 V2000
    9.9256   -6.1020    0.0000 C   0  0  0  0  0  0  0  0  0  0  0  0
    9.9256   -6.9270    0.0000 C   0  0  0  0  0  0  0  0  0  0  0  0
    9.2112   -7.3395    0.0000 C   0  0  0  0  0  0  0  0  0  0  0  0
    8.4967   -6.9270    0.0000 C   0  0  0  0  0  0  0  0  0  0  0  0
    7.7822   -7.3395    0.0000 C   0  0  0  0  0  0  0  0  0  0  0  0
    7.0678   -6.9270    0.0000 C   0  0  2  0  0  0  0  0  0  0  0  0
    7.0678   -6.1020    0.0000 C   0  0  0  0  0  0  0  0  0  0  0  0
    8.4967   -6.1020    0.0000 O   0  0  0  0  0  0  0  0  0  0  0  0
    6.3533   -7.3395    0.0000 C   0  0  0  0  0  0  0  0  0  0  0  0
    6.3533   -8.1645    0.0000 C   0  0  0  0  0  0  0  0  0  0  0  0
    5.6388   -8.5770    0.0000 C   0  0  0  0  0  0  0  0  0  0  0  0
    4.9244   -8.1645    0.0000 C   0  0  0  0  0  0  0  0  0  0  0  0
    4.9244   -7.3395    0.0000 C   0  0  0  0  0  0  0  0  0  0  0  0
    5.6388   -6.9270    0.0000 C   0  0  0  0  0  0  0  0  0  0  0  0
    4.2099   -8.5770    0.0000 C   0  0  0  0  0  0  0  0  0  0  0  0
   10.6401   -7.3395    0.0000 C   0  0  0  0  0  0  0  0  0  0  0  0
  1  2  1  0  0  0  0
  2  3  2  0  0  0  0
  3  4  1  0  0  0  0
  4  5  1  0  0  0  0
  5  6  1  0  0  0  0
  6  7  1  1  0  0  0
  4  8  2  0  0  0  0
  9 10  1  0  0  0  0
 10 11  1  0  0  0  0
 11 12  2  0  0  0  0
 12 13  1  0  0  0  0
 13 14  1  0  0  0  0
  9 14  2  0  0  0  0
 12 15  1  0  0  0  0
  6  9  1  0  0  0  0
  2 16  1  0  0  0  0
M  END
>  <cdx:fragmentId>
5

$$$$
