302684.cdx
  Mrv1902 05222410242D          

 49 50  0  0  0  0            999 V2000
    6.5484   -8.6673    0.0000 C   0  0  0  0  0  0  0  0  0  0  0  0
    5.7235   -8.6831    0.0000 O   0  0  0  0  0  0  0  0  0  0  0  0
    5.1007   -7.0493    0.0000 C   0  0  0  0  0  0  0  0  0  0  0  0
    4.3795   -7.4498    0.0000 C   0  0  0  0  0  0  0  0  0  0  0  0
    5.1145   -6.2244    0.0000 O   0  0  0  0  0  0  0  0  0  0  0  0
    5.8082   -7.4736    0.0000 O   0  0  0  0  0  0  0  0  0  0  0  0
    7.9162   -8.6357    0.0000 H   0  0  0  0  0  0  0  0  0  0  0  0
    9.9250   -4.0236    0.0000 C   0  0  0  0  0  0  0  0  0  0  0  0
    8.4970   -4.0749    0.0000 O   0  0  0  0  0  0  0  0  0  0  0  0
    9.2258   -4.4615    0.0000 C   0  0  0  0  0  0  0  0  0  0  0  0
    9.2554   -5.2860    0.0000 O   0  0  0  0  0  0  0  0  0  0  0  0
    8.5562   -5.7238    0.0000 C   0  0  0  0  0  0  0  0  0  0  0  0
    7.3416   -8.8939    0.0000 O   0  0  0  0  0  0  0  0  0  0  0  0
    5.7510  -10.1118    0.0000 O   0  0  0  0  0  0  0  0  0  0  0  0
    4.5000   -9.4213    0.0000 C   0  0  0  0  0  0  0  0  0  0  0  0
    5.3248   -9.4054    0.0000 C   0  0  0  0  0  0  0  0  0  0  0  0
   10.1036   -9.0261    0.0000 O   0  0  0  0  0  0  0  0  0  0  0  0
   10.0985  -10.6761    0.0000 C   0  0  0  0  0  0  0  0  0  0  0  0
    9.3853  -10.2614    0.0000 C   0  0  0  0  0  0  0  0  0  0  0  0
    9.3879   -9.4364    0.0000 C   0  0  0  0  0  0  0  0  0  0  0  0
    8.6747   -9.0217    0.0000 O   0  0  0  0  0  0  0  0  0  0  0  0
    7.1413   -8.0936    0.0000 C   0  0  1  0  0  0  0  0  0  0  0  0
    6.6327   -7.4440    0.0000 C   0  0  2  0  0  0  0  0  0  0  0  0
    7.0934   -6.7596    0.0000 C   0  0  0  0  0  0  0  0  0  0  0  0
    9.3443   -7.7594    0.0000 O   0  0  0  0  0  0  0  0  0  0  0  0
    9.3146   -6.9349    0.0000 C   0  0  0  0  0  0  0  0  0  0  0  0
    8.5858   -6.5483    0.0000 C   0  0  0  0  0  0  0  0  0  0  0  0
    7.8866   -6.9862    0.0000 C   0  0  0  0  0  0  0  0  0  0  0  0
    7.9162   -7.8107    0.0000 C   0  0  2  0  0  0  0  0  0  0  0  0
    8.6450   -8.1973    0.0000 C   0  0  2  0  0  0  0  0  0  0  0  0
    3.6720   -7.0254    0.0000 C   0  0  0  0  0  0  0  0  0  0  0  0
    2.9575   -6.6129    0.0000 O   0  0  0  0  0  0  0  0  0  0  0  0
    4.0845   -6.3110    0.0000 C   0  0  0  0  0  0  0  0  0  0  0  0
   10.0960  -11.5011    0.0000 C   0  0  0  0  0  0  0  0  0  0  0  0
   10.8143  -10.2658    0.0000 C   0  0  0  0  0  0  0  0  0  0  0  0
    3.2595   -7.7399    0.0000 C   0  0  0  0  0  0  0  0  0  0  0  0
    2.2431   -7.0254    0.0000 C   0  0  0  0  0  0  0  0  0  0  0  0
    1.5286   -6.6129    0.0000 C   0  0  0  0  0  0  0  0  0  0  0  0
    2.2431   -7.8504    0.0000 O   0  0  0  0  0  0  0  0  0  0  0  0
   10.6538   -4.4102    0.0000 O   0  0  0  0  0  0  0  0  0  0  0  0
    9.8954   -3.1992    0.0000 C   0  0  0  0  0  0  0  0  0  0  0  0
   10.5946   -2.7613    0.0000 C   0  0  0  0  0  0  0  0  0  0  0  0
    9.1666   -2.8126    0.0000 C   0  0  0  0  0  0  0  0  0  0  0  0
   11.3530   -3.9723    0.0000 C   0  0  0  0  0  0  0  0  0  0  0  0
   12.0819   -4.3589    0.0000 C   0  0  0  0  0  0  0  0  0  0  0  0
   11.3234   -3.1479    0.0000 O   0  0  0  0  0  0  0  0  0  0  0  0
   12.7811   -3.9211    0.0000 C   0  0  0  0  0  0  0  0  0  0  0  0
   13.5099   -4.3077    0.0000 C   0  0  0  0  0  0  0  0  0  0  0  0
   12.7515   -3.0966    0.0000 C   0  0  0  0  0  0  0  0  0  0  0  0
 29  7  1  1  0  0  0
 23  6  1  1  0  0  0
 27 12  1  0  0  0  0
 12 11  1  0  0  0  0
 11 10  1  0  0  0  0
 10  8  1  0  0  0  0
 10  9  2  0  0  0  0
 22 13  1  6  0  0  0
 22  1  1  1  0  0  0
 16 14  2  0  0  0  0
 16 15  1  0  0  0  0
 30 21  1  1  0  0  0
 21 20  1  0  0  0  0
 20 17  2  0  0  0  0
 19 18  1  0  0  0  0
 20 19  1  0  0  0  0
 24 28  2  0  0  0  0
 22 29  1  0  0  0  0
 23 22  1  0  0  0  0
 24 23  1  0  0  0  0
 30 25  1  0  0  0  0
 26 25  1  0  0  0  0
 27 26  2  0  0  0  0
 28 27  1  0  0  0  0
 29 28  1  0  0  0  0
 30 29  1  0  0  0  0
  2 16  1  0  0  0  0
  1  2  1  0  0  0  0
  3  4  1  0  0  0  0
  3  5  2  0  0  0  0
  3  6  1  0  0  0  0
  4 31  1  0  0  0  0
 31 32  1  0  0  0  0
 31 33  1  0  0  0  0
 18 34  1  0  0  0  0
 18 35  1  0  0  0  0
 31 36  1  0  0  0  0
 32 37  1  0  0  0  0
 37 38  1  0  0  0  0
 37 39  2  0  0  0  0
  8 40  1  0  0  0  0
  8 41  1  0  0  0  0
 41 42  1  0  0  0  0
 41 43  1  0  0  0  0
 40 44  1  0  0  0  0
 44 45  1  0  0  0  0
 44 46  2  0  0  0  0
 45 47  1  0  0  0  0
 47 48  1  0  0  0  0
 47 49  1  0  0  0  0
M  END
>  <cdx:groupId>
120

>  <cdx:fragmentId>
21

$$$$
