302603.cdx
  Mrv1902 05222410202D          

 24 27  0  0  0  0            999 V2000
    9.2893   -8.3795    0.0000 C   0  0  0  0  0  0  0  0  0  0  0  0
    8.5748   -7.9670    0.0000 O   0  0  0  0  0  0  0  0  0  0  0  0
    6.4314   -9.2045    0.0000 C   0  0  0  0  0  0  0  0  0  0  0  0
    6.4314   -8.3795    0.0000 O   0  0  0  0  0  0  0  0  0  0  0  0
    5.0024   -6.7295    0.0000 C   0  0  0  0  0  0  0  0  0  0  0  0
    4.2880   -7.1420    0.0000 C   0  0  0  0  0  0  0  0  0  0  0  0
    4.2880   -7.9670    0.0000 C   0  0  0  0  0  0  0  0  0  0  0  0
    5.0024   -8.3795    0.0000 C   0  0  0  0  0  0  0  0  0  0  0  0
    5.7169   -7.9670    0.0000 C   0  0  0  0  0  0  0  0  0  0  0  0
    5.7169   -7.1420    0.0000 C   0  0  0  0  0  0  0  0  0  0  0  0
    7.1458   -7.9670    0.0000 O   0  0  0  0  0  0  0  0  0  0  0  0
   10.0739   -6.9844    0.0000 O   0  0  0  0  0  0  0  0  0  0  0  0
   10.5588   -6.3170    0.0000 C   0  0  0  0  0  0  0  0  0  0  0  0
   10.0739   -5.6495    0.0000 O   0  0  0  0  0  0  0  0  0  0  0  0
    7.1458   -5.4920    0.0000 O   0  0  0  0  0  0  0  0  0  0  0  0
    7.8603   -5.9045    0.0000 C   0  0  0  0  0  0  0  0  0  0  0  0
    8.5748   -5.4920    0.0000 C   0  0  0  0  0  0  0  0  0  0  0  0
    9.2893   -5.9045    0.0000 C   0  0  0  0  0  0  0  0  0  0  0  0
    9.2893   -6.7295    0.0000 C   0  0  0  0  0  0  0  0  0  0  0  0
    8.5748   -7.1420    0.0000 C   0  0  0  0  0  0  0  0  0  0  0  0
    7.8603   -6.7295    0.0000 C   0  0  0  0  0  0  0  0  0  0  0  0
    7.1458   -7.1420    0.0000 C   0  0  0  0  0  0  0  0  0  0  0  0
    6.4314   -6.7295    0.0000 C   0  0  0  0  0  0  0  0  0  0  0  0
    6.4314   -5.9045    0.0000 C   0  0  0  0  0  0  0  0  0  0  0  0
 20  2  1  0  0  0  0
  2  1  1  0  0  0  0
 23 10  1  0  0  0  0
  9  4  1  0  0  0  0
  4  3  1  0  0  0  0
 10  5  2  0  0  0  0
  6  5  1  0  0  0  0
  7  6  2  0  0  0  0
  8  7  1  0  0  0  0
  9  8  2  0  0  0  0
 10  9  1  0  0  0  0
 22 11  2  0  0  0  0
 14 18  1  0  0  0  0
 12 19  1  0  0  0  0
 13 12  1  0  0  0  0
 14 13  1  0  0  0  0
 24 15  1  0  0  0  0
 16 15  1  0  0  0  0
 21 16  1  0  0  0  0
 17 16  2  0  0  0  0
 18 17  1  0  0  0  0
 19 18  2  0  0  0  0
 20 19  1  0  0  0  0
 21 20  2  0  0  0  0
 22 21  1  0  0  0  0
 23 22  1  0  0  0  0
 24 23  2  0  0  0  0
M  END
>  <cdx:fragmentId>
5

$$$$
