302611.cdx
  Mrv1902 05222410192D          

 16 16  0  0  0  0            999 V2000
    4.7166   -7.2927    0.0000 C   0  0  0  0  0  0  0  0  0  0  0  0
    5.4311   -7.7052    0.0000 C   0  0  0  0  0  0  0  0  0  0  0  0
    6.1455   -7.2927    0.0000 C   0  0  0  0  0  0  0  0  0  0  0  0
    6.8600   -7.7052    0.0000 C   0  0  0  0  0  0  0  0  0  0  0  0
    7.5745   -7.2927    0.0000 C   0  0  0  0  0  0  0  0  0  0  0  0
    8.2890   -7.7052    0.0000 C   0  0  0  0  0  0  0  0  0  0  0  0
    8.2890   -8.5302    0.0000 C   0  0  0  0  0  0  0  0  0  0  0  0
    4.0021   -7.7052    0.0000 O   0  0  0  0  0  0  0  0  0  0  0  0
    9.0034   -7.2927    0.0000 C   0  0  0  0  0  0  0  0  0  0  0  0
    9.0034   -6.4677    0.0000 C   0  0  0  0  0  0  0  0  0  0  0  0
    9.7179   -6.0552    0.0000 C   0  0  0  0  0  0  0  0  0  0  0  0
   10.4324   -6.4677    0.0000 C   0  0  0  0  0  0  0  0  0  0  0  0
   10.4324   -7.2927    0.0000 C   0  0  0  0  0  0  0  0  0  0  0  0
    9.7179   -7.7052    0.0000 C   0  0  0  0  0  0  0  0  0  0  0  0
   11.1468   -6.0552    0.0000 C   0  0  0  0  0  0  0  0  0  0  0  0
    5.4311   -8.5302    0.0000 C   0  0  0  0  0  0  0  0  0  0  0  0
  1  2  1  0  0  0  0
  2  3  2  0  0  0  0
  3  4  1  0  0  0  0
  4  5  1  0  0  0  0
  5  6  1  0  0  0  0
  6  7  1  0  0  0  0
  1  8  1  0  0  0  0
  9 10  1  0  0  0  0
 10 11  2  0  0  0  0
 11 12  1  0  0  0  0
 12 13  2  0  0  0  0
 13 14  1  0  0  0  0
  9 14  2  0  0  0  0
 12 15  1  0  0  0  0
  6  9  1  0  0  0  0
  2 16  1  0  0  0  0
M  END
>  <cdx:groupId>
50

>  <cdx:fragmentId>
5

$$$$
