302694.cdx
  Mrv1902 05222410252D          

 46 52  0  0  0  0            999 V2000
    3.7283   -9.6582    0.0000 C   0  0  0  0  0  0  0  0  0  0  0  0
    3.0140  -10.0710    0.0000 C   0  0  0  0  0  0  0  0  0  0  0  0
    2.2990   -8.8337    0.0000 C   0  0  0  0  0  0  0  0  0  0  0  0
    3.7280   -8.8332    0.0000 O   0  0  0  0  0  0  0  0  0  0  0  0
    4.4429  -10.0705    0.0000 O   0  0  0  0  0  0  0  0  0  0  0  0
    6.5862  -10.4822    0.0000 H   0  0  0  0  0  0  0  0  0  0  0  0
    8.5982   -9.4151    0.0000 H   0  0  0  0  0  0  0  0  0  0  0  0
   10.5665   -5.6090    0.0000 H   0  0  0  0  0  0  0  0  0  0  0  0
    8.0063   -6.5629    0.0000 H   0  0  0  0  0  0  0  0  0  0  0  0
    7.7725   -6.8849    0.0000 O   0  0  0  0  0  0  0  0  0  0  0  0
   10.7962   -6.6891    0.0000 O   0  0  0  0  0  0  0  0  0  0  0  0
   10.4176   -7.0302    0.0000 O   0  0  0  0  0  0  0  0  0  0  0  0
   10.7534   -7.7837    0.0000 O   0  0  0  0  0  0  0  0  0  0  0  0
    9.0402   -8.9939    0.0000 O   0  0  0  0  0  0  0  0  0  0  0  0
    5.8787  -10.8949    0.0000 O   0  0  0  0  0  0  0  0  0  0  0  0
    8.7385   -3.2624    0.0000 C   0  0  0  0  0  0  0  0  0  0  0  0
   10.7962   -5.8641    0.0000 C   0  0  0  0  0  0  0  0  0  0  0  0
    6.5856   -8.0072    0.0000 C   0  0  0  0  0  0  0  0  0  0  0  0
    7.4714   -7.6124    0.0000 C   0  0  0  0  0  0  0  0  0  0  0  0
    7.3002   -8.4194    0.0000 C   0  0  2  0  0  0  0  0  0  0  0  0
    5.9344   -8.7839    0.0000 O   0  0  0  0  0  0  0  0  0  0  0  0
    5.8718  -10.0700    0.0000 C   0  0  1  0  0  0  0  0  0  0  0  0
    5.1572   -9.6577    0.0000 C   0  0  2  0  0  0  0  0  0  0  0  0
    5.1569   -8.8327    0.0000 C   0  0  0  0  0  0  0  0  0  0  0  0
    5.8713   -8.4200    0.0000 C   0  0  0  0  0  0  0  0  0  0  0  0
    6.5859   -8.8322    0.0000 C   0  0  2  0  0  0  0  0  0  0  0  0
    6.5862   -9.6572    0.0000 C   0  0  2  0  0  0  0  0  0  0  0  0
    7.3008  -10.0694    0.0000 C   0  0  0  0  0  0  0  0  0  0  0  0
    8.0151   -9.6567    0.0000 C   0  0  0  0  0  0  0  0  0  0  0  0
    8.0148   -8.8317    0.0000 C   0  0  1  0  0  0  0  0  0  0  0  0
    8.6277   -8.2794    0.0000 C   0  0  1  0  0  0  0  0  0  0  0  0
    9.4482   -8.3654    0.0000 C   0  0  0  0  0  0  0  0  0  0  0  0
    9.9329   -7.6978    0.0000 C   0  0  1  0  0  0  0  0  0  0  0  0
    9.5971   -6.9442    0.0000 C   0  0  1  0  0  0  0  0  0  0  0  0
   10.0818   -6.2766    0.0000 C   0  0  1  0  0  0  0  0  0  0  0  0
    9.7459   -5.5231    0.0000 C   0  0  2  0  0  0  0  0  0  0  0  0
   10.2306   -4.8554    0.0000 C   0  0  0  0  0  0  0  0  0  0  0  0
    9.8948   -4.1019    0.0000 C   0  0  0  0  0  0  0  0  0  0  0  0
    9.0743   -4.0159    0.0000 C   0  0  1  0  0  0  0  0  0  0  0  0
    8.5896   -4.6836    0.0000 C   0  0  0  0  0  0  0  0  0  0  0  0
    8.9254   -5.4371    0.0000 N   0  0  0  0  0  0  0  0  0  0  0  0
    8.4407   -6.1047    0.0000 C   0  0  0  0  0  0  0  0  0  0  0  0
    8.7766   -6.8583    0.0000 C   0  0  1  0  0  0  0  0  0  0  0  0
    8.2919   -7.5259    0.0000 C   0  0  1  0  0  0  0  0  0  0  0  0
    3.0142  -10.8960    0.0000 C   0  0  0  0  0  0  0  0  0  0  0  0
    2.2993   -9.6587    0.0000 C   0  0  0  0  0  0  0  0  0  0  0  0
 27  6  1  1  0  0  0
 30  7  1  1  0  0  0
 36  8  1  6  0  0  0
 43  9  1  1  0  0  0
 23  5  1  1  0  0  0
 44 10  1  6  0  0  0
 35 11  1  1  0  0  0
 34 12  1  6  0  0  0
 33 13  1  1  0  0  0
 31 14  1  6  0  0  0
 22 15  1  6  0  0  0
 39 16  1  1  0  0  0
 35 17  1  6  0  0  0
 26 18  1  1  0  0  0
 41 36  1  0  0  0  0
 43 34  1  0  0  0  0
 27 22  1  0  0  0  0
 30 20  1  0  0  0  0
 26 20  1  0  0  0  0
 44 31  1  0  0  0  0
 44 19  1  0  0  0  0
 20 19  1  1  0  0  0
 20 21  1  0  0  0  0
 22 21  1  0  0  0  0
 23 22  1  0  0  0  0
 24 23  1  0  0  0  0
 25 24  1  0  0  0  0
 26 25  1  0  0  0  0
 27 26  1  0  0  0  0
 28 27  1  0  0  0  0
 29 28  1  0  0  0  0
 30 29  1  0  0  0  0
 31 30  1  0  0  0  0
 32 31  1  0  0  0  0
 33 32  1  0  0  0  0
 34 33  1  0  0  0  0
 35 34  1  0  0  0  0
 36 35  1  0  0  0  0
 37 36  1  0  0  0  0
 38 37  1  0  0  0  0
 39 38  1  0  0  0  0
 40 39  1  0  0  0  0
 41 40  1  0  0  0  0
 42 41  1  0  0  0  0
 43 42  1  0  0  0  0
 44 43  1  0  0  0  0
 46  3  1  0  0  0  0
  1  2  1  0  0  0  0
  2 46  2  0  0  0  0
  1  4  2  0  0  0  0
  1  5  1  0  0  0  0
  2 45  1  0  0  0  0
M  END
>  <cdx:groupId>
146

>  <cdx:fragmentId>
19

$$$$
