302683.cdx
  Mrv1902 05222410252D          

 53 54  0  0  0  0            999 V2000
   10.4215   -6.4646    0.0000 O   0  0  0  0  0  0  0  0  0  0  0  0
   11.1409   -6.0607    0.0000 C   0  0  0  0  0  0  0  0  0  0  0  0
    5.4691   -9.3521    0.0000 O   0  0  0  0  0  0  0  0  0  0  0  0
    4.7481   -8.9510    0.0000 C   0  0  0  0  0  0  0  0  0  0  0  0
    4.0403   -9.3749    0.0000 C   0  0  0  0  0  0  0  0  0  0  0  0
    4.7349   -8.1261    0.0000 O   0  0  0  0  0  0  0  0  0  0  0  0
    8.9902  -11.4187    0.0000 C   0  0  0  0  0  0  0  0  0  0  0  0
    8.9854  -12.2437    0.0000 C   0  0  0  0  0  0  0  0  0  0  0  0
    9.6975  -12.6603    0.0000 C   0  0  0  0  0  0  0  0  0  0  0  0
   10.4143  -12.2519    0.0000 C   0  0  0  0  0  0  0  0  0  0  0  0
    9.7070  -11.0103    0.0000 O   0  0  0  0  0  0  0  0  0  0  0  0
    8.2781  -11.0021    0.0000 O   0  0  0  0  0  0  0  0  0  0  0  0
    7.5636  -10.5896    0.0000 H   0  0  0  0  0  0  0  0  0  0  0  0
    7.5636   -8.1146    0.0000 O   0  0  0  0  0  0  0  0  0  0  0  0
   11.8504   -6.4818    0.0000 C   0  0  0  0  0  0  0  0  0  0  0  0
   11.1509   -5.2358    0.0000 O   0  0  0  0  0  0  0  0  0  0  0  0
    8.2781   -7.7021    0.0000 C   0  0  0  0  0  0  0  0  0  0  0  0
    6.1957  -10.6029    0.0000 C   0  0  0  0  0  0  0  0  0  0  0  0
    6.7790  -10.0195    0.0000 C   0  0  1  0  0  0  0  0  0  0  0  0
    6.2941   -9.3521    0.0000 C   0  0  2  0  0  0  0  0  0  0  0  0
    6.7790   -8.6846    0.0000 C   0  0  0  0  0  0  0  0  0  0  0  0
    8.9926   -9.7646    0.0000 O   0  0  0  0  0  0  0  0  0  0  0  0
    8.9926   -8.9396    0.0000 C   0  0  0  0  0  0  0  0  0  0  0  0
    8.2781   -8.5271    0.0000 C   0  0  0  0  0  0  0  0  0  0  0  0
    7.5636   -8.9396    0.0000 C   0  0  1  0  0  0  0  0  0  0  0  0
    7.5636   -9.7646    0.0000 C   0  0  2  0  0  0  0  0  0  0  0  0
    8.2781  -10.1771    0.0000 C   0  0  2  0  0  0  0  0  0  0  0  0
    9.6927  -13.4853    0.0000 C   0  0  0  0  0  0  0  0  0  0  0  0
    6.9925  -10.8164    0.0000 O   0  0  0  0  0  0  0  0  0  0  0  0
    5.3707  -10.6029    0.0000 O   0  0  0  0  0  0  0  0  0  0  0  0
    4.9582  -11.3173    0.0000 C   0  0  0  0  0  0  0  0  0  0  0  0
    4.1332  -11.3173    0.0000 C   0  0  1  0  0  0  0  0  0  0  0  0
    5.3707  -12.0318    0.0000 O   0  0  0  0  0  0  0  0  0  0  0  0
   12.5698   -6.0779    0.0000 C   0  0  0  0  0  0  0  0  0  0  0  0
   13.2792   -6.4990    0.0000 C   0  0  0  0  0  0  0  0  0  0  0  0
   12.5797   -5.2530    0.0000 C   0  0  0  0  0  0  0  0  0  0  0  0
   11.8505   -7.2896    0.0000 C   0  0  0  0  0  0  0  0  0  0  0  0
   11.1360   -8.5271    0.0000 C   0  0  0  0  0  0  0  0  0  0  0  0
   11.1360   -7.7021    0.0000 C   0  0  0  0  0  0  0  0  0  0  0  0
    8.9926   -7.2896    0.0000 O   0  0  0  0  0  0  0  0  0  0  0  0
    9.7071   -7.7021    0.0000 C   0  0  0  0  0  0  0  0  0  0  0  0
    9.7071   -8.5271    0.0000 O   0  0  0  0  0  0  0  0  0  0  0  0
   10.4215   -7.2896    0.0000 C   0  0  2  0  0  0  0  0  0  0  0  0
    3.7207  -12.0318    0.0000 C   0  0  0  0  0  0  0  0  0  0  0  0
    2.8957  -12.0318    0.0000 C   0  0  0  0  0  0  0  0  0  0  0  0
    4.1332  -12.7463    0.0000 C   0  0  0  0  0  0  0  0  0  0  0  0
    1.2268  -11.9986    0.0000 C   0  0  0  0  0  0  0  0  0  0  0  0
    1.2459  -10.5698    0.0000 C   0  0  0  0  0  0  0  0  0  0  0  0
    1.6488  -11.2897    0.0000 C   0  0  0  0  0  0  0  0  0  0  0  0
    2.8957  -10.5918    0.0000 C   0  0  0  0  0  0  0  0  0  0  0  0
    2.4737  -11.3007    0.0000 C   0  0  0  0  0  0  0  0  0  0  0  0
    2.4928   -9.8719    0.0000 O   0  0  0  0  0  0  0  0  0  0  0  0
    3.7207  -10.6029    0.0000 O   0  0  0  0  0  0  0  0  0  0  0  0
 26 13  1  1  0  0  0
 25 14  1  1  0  0  0
 27 12  1  1  0  0  0
 24 17  1  0  0  0  0
 17 40  1  0  0  0  0
  1  2  1  0  0  0  0
 20  3  1  1  0  0  0
 19 18  1  1  0  0  0
 25 21  1  0  0  0  0
 26 19  1  0  0  0  0
 20 19  1  0  0  0  0
 21 20  1  0  0  0  0
 27 22  1  0  0  0  0
 23 22  1  0  0  0  0
 24 23  2  0  0  0  0
 25 24  1  0  0  0  0
 26 25  1  0  0  0  0
 27 26  1  0  0  0  0
  2 15  1  0  0  0  0
  2 16  2  0  0  0  0
  4  5  1  0  0  0  0
  4  6  2  0  0  0  0
  3  4  1  0  0  0  0
  7  8  1  0  0  0  0
  8  9  1  0  0  0  0
  9 10  1  0  0  0  0
  7 11  2  0  0  0  0
  7 12  1  0  0  0  0
  9 28  1  0  0  0  0
 19 29  1  6  0  0  0
 18 30  1  0  0  0  0
 30 31  1  0  0  0  0
 31 32  1  0  0  0  0
 31 33  2  0  0  0  0
 15 34  1  0  0  0  0
 34 35  1  0  0  0  0
 43  1  1  6  0  0  0
 34 36  1  0  0  0  0
 39 37  1  0  0  0  0
 39 38  1  0  0  0  0
 43 39  1  0  0  0  0
 41 42  2  0  0  0  0
 41 43  1  0  0  0  0
 40 41  1  0  0  0  0
 32 44  1  0  0  0  0
 44 45  1  0  0  0  0
 44 46  1  0  0  0  0
 49 47  1  0  0  0  0
 32 53  1  1  0  0  0
 49 48  1  0  0  0  0
 51 49  1  0  0  0  0
 50 51  1  0  0  0  0
 53 50  1  0  0  0  0
 50 52  2  0  0  0  0
M  END
>  <cdx:fragmentId>
7704

$$$$
