302672.cdx
  Mrv1902 05222410212D          

 15 14  0  0  0  0            999 V2000
    9.9256   -7.4987    0.0000 C   0  0  0  0  0  0  0  0  0  0  0  0
    9.2112   -7.9112    0.0000 C   0  0  0  0  0  0  0  0  0  0  0  0
    8.4967   -7.4987    0.0000 C   0  0  0  0  0  0  0  0  0  0  0  0
    7.7822   -7.9112    0.0000 C   0  0  0  0  0  0  0  0  0  0  0  0
    7.0678   -7.4987    0.0000 C   0  0  0  0  0  0  0  0  0  0  0  0
    6.3533   -7.9112    0.0000 C   0  0  0  0  0  0  0  0  0  0  0  0
    5.6388   -7.4987    0.0000 C   0  0  0  0  0  0  0  0  0  0  0  0
    4.9244   -7.9112    0.0000 C   0  0  0  0  0  0  0  0  0  0  0  0
    4.2099   -7.4987    0.0000 C   0  0  0  0  0  0  0  0  0  0  0  0
    3.4954   -7.9112    0.0000 C   0  0  0  0  0  0  0  0  0  0  0  0
    2.7809   -7.4987    0.0000 C   0  0  0  0  0  0  0  0  0  0  0  0
    9.9256   -6.6737    0.0000 O   0  0  0  0  0  0  0  0  0  0  0  0
   10.6401   -7.9112    0.0000 O   0  0  0  0  0  0  0  0  0  0  0  0
   11.3546   -7.4987    0.0000 C   0  0  0  0  0  0  0  0  0  0  0  0
   12.0691   -7.9112    0.0000 C   0  0  0  0  0  0  0  0  0  0  0  0
  1  2  1  0  0  0  0
  2  3  1  0  0  0  0
  3  4  1  0  0  0  0
  4  5  1  0  0  0  0
  5  6  1  0  0  0  0
  6  7  1  0  0  0  0
  7  8  1  0  0  0  0
  8  9  1  0  0  0  0
  9 10  1  0  0  0  0
 10 11  1  0  0  0  0
  1 12  2  0  0  0  0
  1 13  1  0  0  0  0
 14 15  1  0  0  0  0
 13 14  1  0  0  0  0
M  END
>  <cdx:groupId>
46

>  <cdx:fragmentId>
5

$$$$
