302648.cdx
  Mrv1902 05222410232D          

 32 36  0  0  0  0            999 V2000
    6.2633   -6.7075    0.0000 C   0  0  1  0  0  0  0  0  0  0  0  0
    5.5569   -7.1337    0.0000 C   0  0  2  0  0  0  0  0  0  0  0  0
    5.5727   -7.9585    0.0000 C   0  0  1  0  0  0  0  0  0  0  0  0
    6.2950   -8.3572    0.0000 C   0  0  2  0  0  0  0  0  0  0  0  0
    7.0014   -7.9311    0.0000 C   0  0  0  0  0  0  0  0  0  0  0  0
    6.9855   -7.1062    0.0000 C   0  0  0  0  0  0  0  0  0  0  0  0
    7.7908   -8.1709    0.0000 N   0  0  0  0  0  0  0  0  0  0  0  0
    8.2628   -7.4943    0.0000 C   0  0  1  0  0  0  0  0  0  0  0  0
    7.7651   -6.8363    0.0000 C   0  0  0  0  0  0  0  0  0  0  0  0
    6.0763   -5.9040    0.0000 C   0  0  1  0  0  0  0  0  0  0  0  0
    5.2543   -5.8336    0.0000 C   0  0  0  0  0  0  0  0  0  0  0  0
    4.9333   -6.5936    0.0000 O   0  0  0  0  0  0  0  0  0  0  0  0
    6.2636   -9.2217    0.0000 C   0  0  0  0  0  0  0  0  0  0  0  0
    6.8707   -9.7802    0.0000 C   0  0  0  0  0  0  0  0  0  0  0  0
    7.6860   -9.6538    0.0000 C   0  0  0  0  0  0  0  0  0  0  0  0
    8.0955   -8.9376    0.0000 C   0  0  0  0  0  0  0  0  0  0  0  0
   11.0415   -8.3384    0.0000 O   0  0  0  0  0  0  0  0  0  0  0  0
   11.0070   -6.5439    0.0000 C   0  0  0  0  0  0  0  0  0  0  0  0
    9.5853   -8.1364    0.0000 O   0  0  0  0  0  0  0  0  0  0  0  0
    6.6164   -5.2804    0.0000 C   0  0  0  0  0  0  0  0  0  0  0  0
    4.8663   -8.3847    0.0000 C   0  0  0  0  0  0  0  0  0  0  0  0
    5.5886   -8.7834    0.0000 O   0  0  0  0  0  0  0  0  0  0  0  0
   10.3649   -7.8664    0.0000 C   0  0  0  0  0  0  0  0  0  0  0  0
   10.3490   -7.0416    0.0000 C   0  0  2  0  0  0  0  0  0  0  0  0
    4.8281   -5.1272    0.0000 O   0  0  0  0  0  0  0  0  0  0  0  0
    9.5596   -6.8018    0.0000 C   0  0  0  0  0  0  0  0  0  0  0  0
    9.0876   -7.4784    0.0000 C   0  0  1  0  0  0  0  0  0  0  0  0
    4.1440   -7.9860    0.0000 C   0  0  0  0  0  0  0  0  0  0  0  0
    6.9778   -6.2950    0.0000 H   0  0  0  0  0  0  0  0  0  0  0  0
    4.8424   -7.5462    0.0000 H   0  0  0  0  0  0  0  0  0  0  0  0
    8.4763   -8.2912    0.0000 H   0  0  0  0  0  0  0  0  0  0  0  0
    8.8741   -8.2753    0.0000 H   0  0  0  0  0  0  0  0  0  0  0  0
  1  2  1  0  0  0  0
  2  3  1  0  0  0  0
  3  4  1  0  0  0  0
  4  5  1  0  0  0  0
  5  6  2  0  0  0  0
  6  1  1  0  0  0  0
  5  7  1  0  0  0  0
  7  8  1  0  0  0  0
  8  9  1  0  0  0  0
  9  6  1  0  0  0  0
  1 10  1  0  0  0  0
 10 11  1  0  0  0  0
 11 12  1  0  0  0  0
 12  2  1  0  0  0  0
  4 13  1  0  0  0  0
 13 14  1  0  0  0  0
 14 15  1  0  0  0  0
 15 16  1  0  0  0  0
 16  7  1  0  0  0  0
 23 17  2  0  0  0  0
  8 27  1  0  0  0  0
 24 18  1  6  0  0  0
 19 27  1  0  0  0  0
 23 19  1  0  0  0  0
 24 23  1  0  0  0  0
 26 24  1  0  0  0  0
 27 26  1  0  0  0  0
 10 20  1  1  0  0  0
  3 21  1  1  0  0  0
  4 22  1  1  0  0  0
 11 25  2  0  0  0  0
 21 28  1  0  0  0  0
  1 29  1  1  0  0  0
  2 30  1  1  0  0  0
  8 31  1  6  0  0  0
 27 32  1  1  0  0  0
M  END
>  <cdx:fragmentId>
20

$$$$
