302600.cdx
  Mrv1902 05222410192D          

 20 21  0  0  0  0            999 V2000
   10.6401   -6.8799    0.0000 C   0  0  0  0  0  0  0  0  0  0  0  0
    9.9256   -7.2924    0.0000 C   0  0  2  0  0  0  0  0  0  0  0  0
    9.2112   -6.8799    0.0000 C   0  0  0  0  0  0  0  0  0  0  0  0
   10.6401   -6.0549    0.0000 O   0  0  0  0  0  0  0  0  0  0  0  0
   11.3546   -7.2924    0.0000 O   0  0  0  0  0  0  0  0  0  0  0  0
    8.4967   -7.2924    0.0000 C   0  0  0  0  0  0  0  0  0  0  0  0
    8.4967   -8.1174    0.0000 C   0  0  0  0  0  0  0  0  0  0  0  0
    7.7822   -8.5299    0.0000 C   0  0  0  0  0  0  0  0  0  0  0  0
    7.0678   -8.1174    0.0000 C   0  0  0  0  0  0  0  0  0  0  0  0
    7.0678   -7.2924    0.0000 C   0  0  0  0  0  0  0  0  0  0  0  0
    7.7822   -6.8799    0.0000 C   0  0  0  0  0  0  0  0  0  0  0  0
    6.3533   -8.5299    0.0000 O   0  0  0  0  0  0  0  0  0  0  0  0
    5.6388   -8.1174    0.0000 C   0  0  0  0  0  0  0  0  0  0  0  0
    4.9244   -8.5299    0.0000 C   0  0  0  0  0  0  0  0  0  0  0  0
    4.2099   -8.1174    0.0000 C   0  0  0  0  0  0  0  0  0  0  0  0
    4.2099   -7.2924    0.0000 C   0  0  0  0  0  0  0  0  0  0  0  0
    4.9244   -6.8799    0.0000 C   0  0  0  0  0  0  0  0  0  0  0  0
    5.6388   -7.2924    0.0000 C   0  0  0  0  0  0  0  0  0  0  0  0
    3.4954   -6.8799    0.0000 O   0  0  0  0  0  0  0  0  0  0  0  0
    9.9256   -8.1174    0.0000 N   0  0  0  0  0  0  0  0  0  0  0  0
  1  2  1  0  0  0  0
  2  3  1  0  0  0  0
  1  4  2  0  0  0  0
  1  5  1  0  0  0  0
  6  7  1  0  0  0  0
  7  8  2  0  0  0  0
  8  9  1  0  0  0  0
  9 10  2  0  0  0  0
 10 11  1  0  0  0  0
  6 11  2  0  0  0  0
 13 14  1  0  0  0  0
 14 15  2  0  0  0  0
 15 16  1  0  0  0  0
 16 17  2  0  0  0  0
 17 18  1  0  0  0  0
 13 18  2  0  0  0  0
 12 13  1  0  0  0  0
 16 19  1  0  0  0  0
  9 12  1  0  0  0  0
  3  6  1  0  0  0  0
  2 20  1  1  0  0  0
M  END
>  <cdx:groupId>
63

>  <cdx:fragmentId>
29

$$$$
