302668.cdx
  Mrv1902 05222410252D          

 54 56  0  0  0  0            999 V2000
    5.0738  -12.4141    0.0000 N   0  3  0  0  0  0  0  0  0  0  0  0
    5.7883  -12.8266    0.0000 C   0  0  0  0  0  0  0  0  0  0  0  0
    4.3594  -12.8266    0.0000 C   0  0  0  0  0  0  0  0  0  0  0  0
    5.0738   -9.9391    0.0000 O   0  0  0  0  0  0  0  0  0  0  0  0
    5.7883  -10.3516    0.0000 C   0  0  2  0  0  0  0  0  0  0  0  0
    5.7883  -11.1766    0.0000 C   0  0  1  0  0  0  0  0  0  0  0  0
    5.0738  -11.5891    0.0000 C   0  0  2  0  0  0  0  0  0  0  0  0
    4.3594  -11.1766    0.0000 C   0  0  1  0  0  0  0  0  0  0  0  0
    4.3594  -10.3516    0.0000 C   0  0  1  0  0  0  0  0  0  0  0  0
    3.6449   -9.9391    0.0000 C   0  0  0  0  0  0  0  0  0  0  0  0
    3.6449  -11.5891    0.0000 O   0  0  0  0  0  0  0  0  0  0  0  0
    6.5028  -11.5891    0.0000 O   0  0  0  0  0  0  0  0  0  0  0  0
    6.5028   -9.9391    0.0000 O   0  0  0  0  0  0  0  0  0  0  0  0
    9.3607   -7.4641    0.0000 O   0  0  0  0  0  0  0  0  0  0  0  0
    8.6462   -7.8766    0.0000 C   0  0  0  0  0  0  0  0  0  0  0  0
    8.6462   -8.7016    0.0000 C   0  0  0  0  0  0  0  0  0  0  0  0
    7.9317   -9.1141    0.0000 C   0  0  2  0  0  0  0  0  0  0  0  0
    7.2172   -8.7016    0.0000 C   0  0  1  0  0  0  0  0  0  0  0  0
    6.5028   -9.1141    0.0000 C   0  0  2  0  0  0  0  0  0  0  0  0
    5.7883   -8.7016    0.0000 C   0  0  2  0  0  0  0  0  0  0  0  0
    5.7883   -7.8766    0.0000 C   0  0  0  0  0  0  0  0  0  0  0  0
    5.0738   -7.4641    0.0000 C   0  0  2  0  0  0  0  0  0  0  0  0
    5.0738   -6.6391    0.0000 C   0  0  0  0  0  0  0  0  0  0  0  0
    5.7883   -6.2266    0.0000 C   0  0  0  0  0  0  0  0  0  0  0  0
    6.5028   -6.6391    0.0000 C   0  0  0  0  0  0  0  0  0  0  0  0
    7.2172   -6.2266    0.0000 C   0  0  0  0  0  0  0  0  0  0  0  0
    7.9317   -6.6391    0.0000 C   0  0  0  0  0  0  0  0  0  0  0  0
    8.6462   -6.2266    0.0000 C   0  0  1  0  0  0  0  0  0  0  0  0
    9.3607   -6.6391    0.0000 C   0  0  1  0  0  0  0  0  0  0  0  0
    5.0738   -9.1141    0.0000 C   0  0  0  0  0  0  0  0  0  0  0  0
    4.3594   -8.7016    0.0000 C   0  0  0  0  0  0  0  0  0  0  0  0
    3.6449   -9.1141    0.0000 O   0  0  0  0  0  0  0  0  0  0  0  0
    4.3594   -6.2266    0.0000 O   0  0  0  0  0  0  0  0  0  0  0  0
    7.9317   -7.4641    0.0000 O   0  0  0  0  0  0  0  0  0  0  0  0
    7.2172   -5.4016    0.0000 C   0  0  0  0  0  0  0  0  0  0  0  0
    4.3594   -7.8766    0.0000 C   0  0  0  0  0  0  0  0  0  0  0  0
    7.2172   -7.8766    0.0000 C   0  0  0  0  0  0  0  0  0  0  0  0
    8.6462   -5.4016    0.0000 C   0  0  0  0  0  0  0  0  0  0  0  0
    9.3607   -4.9891    0.0000 O   0  0  0  0  0  0  0  0  0  0  0  0
    8.6462   -3.7516    0.0000 O   0  0  0  0  0  0  0  0  0  0  0  0
    9.3607   -4.1641    0.0000 C   0  0  2  0  0  0  0  0  0  0  0  0
   10.0751   -3.7516    0.0000 C   0  0  1  0  0  0  0  0  0  0  0  0
   10.0751   -2.9266    0.0000 C   0  0  1  0  0  0  0  0  0  0  0  0
    9.3607   -2.5141    0.0000 C   0  0  1  0  0  0  0  0  0  0  0  0
    8.6462   -2.9266    0.0000 C   0  0  1  0  0  0  0  0  0  0  0  0
    7.9317   -2.5141    0.0000 C   0  0  0  0  0  0  0  0  0  0  0  0
   10.7896   -2.5141    0.0000 O   0  0  0  0  0  0  0  0  0  0  0  0
   11.5041   -2.9266    0.0000 C   0  0  0  0  0  0  0  0  0  0  0  0
   10.7896   -4.1641    0.0000 O   0  0  0  0  0  0  0  0  0  0  0  0
   11.5041   -3.7516    0.0000 C   0  0  0  0  0  0  0  0  0  0  0  0
    9.3607   -1.6891    0.0000 O   0  0  0  0  0  0  0  0  0  0  0  0
    7.9317   -9.9391    0.0000 O   0  0  0  0  0  0  0  0  0  0  0  0
   10.0751   -6.2266    0.0000 C   0  0  0  0  0  0  0  0  0  0  0  0
   10.7896   -6.6391    0.0000 C   0  0  0  0  0  0  0  0  0  0  0  0
  1  2  1  0  0  0  0
  1  3  1  0  0  0  0
  4  5  1  0  0  0  0
  5  6  1  0  0  0  0
  6  7  1  0  0  0  0
  7  8  1  0  0  0  0
  8  9  1  0  0  0  0
  4  9  1  0  0  0  0
  9 10  1  1  0  0  0
  8 11  1  6  0  0  0
  6 12  1  6  0  0  0
 14 15  1  0  0  0  0
 15 16  1  0  0  0  0
 16 17  1  0  0  0  0
 17 18  1  0  0  0  0
 18 19  1  0  0  0  0
 19 20  1  0  0  0  0
 20 21  1  0  0  0  0
 21 22  1  0  0  0  0
 22 23  1  0  0  0  0
 23 24  1  0  0  0  0
 24 25  2  0  0  0  0
 25 26  1  0  0  0  0
 26 27  2  0  0  0  0
 27 28  1  0  0  0  0
 28 29  1  0  0  0  0
 14 29  1  0  0  0  0
 30 31  1  0  0  0  0
 31 32  2  0  0  0  0
 20 30  1  1  0  0  0
 23 33  2  0  0  0  0
 15 34  2  0  0  0  0
 26 35  1  0  0  0  0
 22 36  1  1  0  0  0
 18 37  1  1  0  0  0
 40 41  1  0  0  0  0
 41 42  1  0  0  0  0
 42 43  1  0  0  0  0
 43 44  1  0  0  0  0
 44 45  1  0  0  0  0
 40 45  1  0  0  0  0
 45 46  1  6  0  0  0
 47 48  1  0  0  0  0
 43 47  1  1  0  0  0
 49 50  1  0  0  0  0
 42 49  1  1  0  0  0
 44 51  1  1  0  0  0
 41 39  1  6  0  0  0
 38 39  1  0  0  0  0
 28 38  1  6  0  0  0
 17 52  1  1  0  0  0
 53 54  1  0  0  0  0
 29 53  1  1  0  0  0
 19 13  1  1  0  0  0
  5 13  1  1  0  0  0
  7  1  1  1  0  0  0
M  CHG  1   1   1
M  END
>  <cdx:groupId>
166

>  <cdx:fragmentId>
31

$$$$
