302690.cdx
  Mrv1902 05222410242D          

 19 20  0  0  0  0            999 V2000
    9.3774   -7.4580    0.0000 C   0  0  0  0  0  0  0  0  0  0  0  0
    9.7899   -6.7435    0.0000 O   0  0  0  0  0  0  0  0  0  0  0  0
    5.9605   -8.1254    0.0000 C   0  0  0  0  0  0  0  0  0  0  0  0
    5.4756   -7.4580    0.0000 C   0  0  0  0  0  0  0  0  0  0  0  0
    5.9605   -6.7905    0.0000 C   0  0  0  0  0  0  0  0  0  0  0  0
    6.7451   -7.0455    0.0000 C   0  0  2  0  0  0  0  0  0  0  0  0
    7.3901   -6.5311    0.0000 C   0  0  2  0  0  0  0  0  0  0  0  0
    8.1945   -6.7147    0.0000 C   0  0  0  0  0  0  0  0  0  0  0  0
    8.5524   -7.4580    0.0000 C   0  0  0  0  0  0  0  0  0  0  0  0
    8.1945   -8.2013    0.0000 C   0  0  0  0  0  0  0  0  0  0  0  0
    7.3901   -8.3849    0.0000 C   0  0  0  0  0  0  0  0  0  0  0  0
    6.7451   -7.8705    0.0000 C   0  0  2  0  0  0  0  0  0  0  0  0
    7.2066   -5.7268    0.0000 C   0  0  0  0  0  0  0  0  0  0  0  0
    4.7611   -7.8705    0.0000 C   0  0  0  0  0  0  0  0  0  0  0  0
    4.7611   -7.0455    0.0000 C   0  0  0  0  0  0  0  0  0  0  0  0
    8.7088   -8.8463    0.0000 C   0  0  0  0  0  0  0  0  0  0  0  0
    9.5246   -8.7233    0.0000 O   0  0  0  0  0  0  0  0  0  0  0  0
    6.5978   -6.2337    0.0000 H   0  0  0  0  0  0  0  0  0  0  0  0
    6.5978   -8.6822    0.0000 H   0  0  0  0  0  0  0  0  0  0  0  0
  1  2  1  0  0  0  0
  3  4  1  0  0  0  0
  4  5  1  0  0  0  0
  5  6  1  0  0  0  0
  6  7  1  0  0  0  0
  7  8  1  0  0  0  0
  8  9  2  0  0  0  0
  9 10  1  0  0  0  0
 10 11  2  0  0  0  0
 11 12  1  0  0  0  0
  3 12  1  0  0  0  0
  6 12  1  0  0  0  0
  7 13  1  1  0  0  0
  4 14  1  0  0  0  0
  4 15  1  0  0  0  0
 16 17  1  0  0  0  0
 10 16  1  0  0  0  0
  1  9  1  0  0  0  0
  6 18  1  1  0  0  0
 12 19  1  1  0  0  0
M  END
>  <cdx:groupId>
60

>  <cdx:fragmentId>
9

$$$$
