302676.cdx
  Mrv1902 05222410222D          

 34 40  0  0  0  0            999 V2000
    6.6429   -6.1258    0.0000 C   0  0  0  0  0  0  0  0  0  0  0  0
    7.5619   -4.9213    0.0000 C   0  0  0  0  0  0  0  0  0  0  0  0
    8.4863   -5.2729    0.0000 C   0  0  0  0  0  0  0  0  0  0  0  0
    6.4665   -3.8607    0.0000 H   0  0  0  0  0  0  0  0  0  0  0  0
    7.9155   -4.1091    0.0000 C   0  0  0  0  0  0  0  0  0  0  0  0
    7.1277   -4.3540    0.0000 C   0  0  1  0  0  0  0  0  0  0  0  0
    7.1173   -5.1790    0.0000 C   0  0  0  0  0  0  0  0  0  0  0  0
    8.1866   -8.5101    0.0000 H   0  0  0  0  0  0  0  0  0  0  0  0
    7.4676   -6.1473    0.0000 O   0  0  0  0  0  0  0  0  0  0  0  0
    3.8495   -9.3572    0.0000 O   0  0  0  0  0  0  0  0  0  0  0  0
    6.0188   -7.3220    0.0000 C   0  0  0  0  0  0  0  0  0  0  0  0
   10.3566   -5.7337    0.0000 C   0  0  0  0  0  0  0  0  0  0  0  0
    6.6967  -10.2183    0.0000 O   0  0  0  0  0  0  0  0  0  0  0  0
    8.3919   -4.7826    0.0000 N   0  0  0  0  0  0  0  0  0  0  0  0
    9.2113   -4.8792    0.0000 C   0  0  0  0  0  0  0  0  0  0  0  0
    9.5372   -5.6371    0.0000 C   0  0  1  0  0  0  0  0  0  0  0  0
    9.0439   -6.2983    0.0000 C   0  0  0  0  0  0  0  0  0  0  0  0
    9.3699   -7.0562    0.0000 C   0  0  0  0  0  0  0  0  0  0  0  0
    8.8766   -7.7174    0.0000 C   0  0  0  0  0  0  0  0  0  0  0  0
    8.0572   -7.6208    0.0000 C   0  0  0  0  0  0  0  0  0  0  0  0
    7.4372   -8.1650    0.0000 C   0  0  2  0  0  0  0  0  0  0  0  0
    7.4268   -8.9900    0.0000 C   0  0  0  0  0  0  0  0  0  0  0  0
    6.7071   -9.3934    0.0000 C   0  0  2  0  0  0  0  0  0  0  0  0
    5.9979   -8.9719    0.0000 C   0  0  0  0  0  0  0  0  0  0  0  0
    5.2783   -9.3753    0.0000 C   0  0  0  0  0  0  0  0  0  0  0  0
    4.5691   -8.9538    0.0000 C   0  0  2  0  0  0  0  0  0  0  0  0
    4.5795   -8.1288    0.0000 C   0  0  0  0  0  0  0  0  0  0  0  0
    5.2992   -7.7254    0.0000 C   0  0  0  0  0  0  0  0  0  0  0  0
    6.0084   -8.1469    0.0000 C   0  0  1  0  0  0  0  0  0  0  0  0
    6.7280   -7.7435    0.0000 C   0  0  0  0  0  0  0  0  0  0  0  0
    6.9097   -6.9388    0.0000 C   0  0  0  0  0  0  0  0  0  0  0  0
    7.7312   -6.8629    0.0000 C   0  0  0  0  0  0  0  0  0  0  0  0
    8.2246   -6.2017    0.0000 C   0  0  0  0  0  0  0  0  0  0  0  0
    7.8986   -5.4438    0.0000 C   0  0  0  0  0  0  0  0  0  0  0  0
  9  1  1  0  0  0  0
  2  6  1  0  0  0  0
  3  2  1  0  0  0  0
 15  3  1  0  0  0  0
  6  4  1  1  0  0  0
  5 14  1  0  0  0  0
  6  5  1  0  0  0  0
  7  6  1  0  0  0  0
 34  7  1  0  0  0  0
 21  8  1  1  0  0  0
 34  9  1  0  0  0  0
 26 10  1  1  0  0  0
 29 11  1  1  0  0  0
 16 12  1  6  0  0  0
 23 13  1  1  0  0  0
 29 24  1  0  0  0  0
 30 21  1  0  0  0  0
 32 20  2  0  0  0  0
 33 17  2  0  0  0  0
 15 14  1  0  0  0  0
 34 14  1  0  0  0  0
 16 15  1  0  0  0  0
 17 16  1  0  0  0  0
 18 17  1  0  0  0  0
 19 18  2  0  0  0  0
 20 19  1  0  0  0  0
 21 20  1  0  0  0  0
 22 21  1  0  0  0  0
 23 22  1  0  0  0  0
 24 23  1  0  0  0  0
 25 24  1  0  0  0  0
 26 25  1  0  0  0  0
 27 26  1  0  0  0  0
 28 27  1  0  0  0  0
 29 28  1  0  0  0  0
 30 29  1  0  0  0  0
 31 30  1  0  0  0  0
 32 31  1  0  0  0  0
 33 32  1  0  0  0  0
 34 33  1  0  0  0  0
M  END
>  <cdx:groupId>
146

>  <cdx:fragmentId>
147

$$$$
