302698.cdx
  Mrv1902 05222410212D          

 21 21  0  0  0  0            999 V2000
    7.3286  -10.5705    0.0000 C   0  0  0  0  0  0  0  0  0  0  0  0
    8.0375  -10.1483    0.0000 C   0  0  0  0  0  0  0  0  0  0  0  0
    9.1796  -11.2599    0.0000 O   0  0  0  0  0  0  0  0  0  0  0  0
    8.7575  -10.5511    0.0000 C   0  0  2  0  0  0  0  0  0  0  0  0
    9.5824  -10.5399    0.0000 C   0  0  1  0  0  0  0  0  0  0  0  0
   10.2912  -10.1177    0.0000 C   0  0  0  0  0  0  0  0  0  0  0  0
   11.0112  -10.5205    0.0000 C   0  0  0  0  0  0  0  0  0  0  0  0
   11.7200  -10.0983    0.0000 C   0  0  0  0  0  0  0  0  0  0  0  0
   12.4400  -10.5011    0.0000 C   0  0  0  0  0  0  0  0  0  0  0  0
   13.1488  -10.0789    0.0000 C   0  0  0  0  0  0  0  0  0  0  0  0
    6.6086  -10.1677    0.0000 C   0  0  0  0  0  0  0  0  0  0  0  0
    6.5974   -9.3428    0.0000 C   0  0  0  0  0  0  0  0  0  0  0  0
    5.8774   -8.9400    0.0000 C   0  0  0  0  0  0  0  0  0  0  0  0
    5.8662   -8.1151    0.0000 C   0  0  0  0  0  0  0  0  0  0  0  0
    5.1462   -7.7123    0.0000 C   0  0  0  0  0  0  0  0  0  0  0  0
    5.1350   -6.8874    0.0000 C   0  0  0  0  0  0  0  0  0  0  0  0
    4.4150   -6.4847    0.0000 C   0  0  0  0  0  0  0  0  0  0  0  0
    4.4038   -5.6597    0.0000 C   0  0  0  0  0  0  0  0  0  0  0  0
    3.6838   -5.2570    0.0000 C   0  0  0  0  0  0  0  0  0  0  0  0
    3.6726   -4.4320    0.0000 O   0  0  0  0  0  0  0  0  0  0  0  0
    2.9750   -5.6791    0.0000 O   0  0  0  0  0  0  0  0  0  0  0  0
  1  2  1  0  0  0  0
  3  4  1  0  0  0  0
  4  5  1  0  0  0  0
  3  5  1  0  0  0  0
  6  7  1  0  0  0  0
  7  8  1  0  0  0  0
  8  9  1  0  0  0  0
  9 10  1  0  0  0  0
  5  6  1  1  0  0  0
  4  2  1  1  0  0  0
  1 11  2  0  0  0  0
 11 12  1  0  0  0  0
 12 13  1  0  0  0  0
 13 14  1  0  0  0  0
 14 15  1  0  0  0  0
 15 16  1  0  0  0  0
 16 17  1  0  0  0  0
 17 18  1  0  0  0  0
 18 19  1  0  0  0  0
 19 20  1  0  0  0  0
 19 21  2  0  0  0  0
M  END
>  <cdx:fragmentId>
5

$$$$
