302678.cdx
  Mrv1902 05222410232D          

 19 21  0  0  0  0            999 V2000
    5.9831   -7.7970    0.0000 C   0  0  2  0  0  0  0  0  0  0  0  0
    6.7038   -8.1985    0.0000 C   0  0  0  0  0  0  0  0  0  0  0  0
    7.4119   -7.7752    0.0000 C   0  0  2  0  0  0  0  0  0  0  0  0
    8.1326   -8.1767    0.0000 C   0  0  0  0  0  0  0  0  0  0  0  0
    8.8407   -7.7533    0.0000 C   0  0  0  0  0  0  0  0  0  0  0  0
    8.8281   -6.9284    0.0000 C   0  0  1  0  0  0  0  0  0  0  0  0
    8.1074   -6.5269    0.0000 C   0  0  1  0  0  0  0  0  0  0  0  0
    7.3993   -6.9502    0.0000 C   0  0  2  0  0  0  0  0  0  0  0  0
    6.6786   -6.5487    0.0000 C   0  0  0  0  0  0  0  0  0  0  0  0
    5.9705   -6.9721    0.0000 C   0  0  2  0  0  0  0  0  0  0  0  0
    7.9200   -7.2600    0.0000 C   0  0  0  0  0  0  0  0  0  0  0  0
    7.4245   -8.6001    0.0000 O   0  0  0  0  0  0  0  0  0  0  0  0
    5.2561   -6.5596    0.0000 O   0  0  0  0  0  0  0  0  0  0  0  0
    7.3993   -6.1252    0.0000 C   0  0  0  0  0  0  0  0  0  0  0  0
    9.5362   -6.5051    0.0000 C   0  0  0  0  0  0  0  0  0  0  0  0
    7.1272   -8.9066    0.0000 C   0  0  0  0  0  0  0  0  0  0  0  0
    6.3023   -8.9192    0.0000 C   0  0  0  0  0  0  0  0  0  0  0  0
    8.0948   -5.7020    0.0000 H   0  0  0  0  0  0  0  0  0  0  0  0
    5.2750   -8.2203    0.0000 H   0  0  0  0  0  0  0  0  0  0  0  0
  1  2  1  0  0  0  0
  2  3  1  0  0  0  0
  3  4  1  0  0  0  0
  4  5  1  0  0  0  0
  5  6  1  0  0  0  0
  6  7  1  0  0  0  0
  7  8  1  0  0  0  0
  8  9  1  0  0  0  0
  9 10  1  0  0  0  0
  1 10  1  0  0  0  0
  1 11  1  0  0  0  0
  7 11  1  0  0  0  0
  3  8  1  0  0  0  0
  3 12  1  6  0  0  0
 10 13  1  1  0  0  0
  8 14  1  6  0  0  0
  6 15  1  1  0  0  0
  2 16  1  0  0  0  0
  2 17  1  0  0  0  0
  7 18  1  1  0  0  0
  1 19  1  1  0  0  0
M  END
>  <cdx:groupId>
61

>  <cdx:fragmentId>
5

$$$$
