302636.cdx
  Mrv1902 05222410282D          

 67 73  0  0  0  0            999 V2000
   12.7835   -6.2612    0.0000 O   0  0  0  0  0  0  0  0  0  0  0  0
   12.7835   -4.6112    0.0000 O   0  0  0  0  0  0  0  0  0  0  0  0
   11.3546   -3.7862    0.0000 O   0  0  0  0  0  0  0  0  0  0  0  0
    9.2112   -5.8487    0.0000 O   0  0  0  0  0  0  0  0  0  0  0  0
    9.9256   -7.0862    0.0000 O   0  0  0  0  0  0  0  0  0  0  0  0
   10.6401   -5.0237    0.0000 C   0  0  0  0  0  0  0  0  0  0  0  0
   11.3546   -4.6112    0.0000 C   0  0  0  0  0  0  0  0  0  0  0  0
   12.0691   -5.0237    0.0000 C   0  0  0  0  0  0  0  0  0  0  0  0
   12.0691   -5.8487    0.0000 C   0  0  0  0  0  0  0  0  0  0  0  0
   11.3546   -6.2612    0.0000 C   0  0  0  0  0  0  0  0  0  0  0  0
   10.6401   -5.8487    0.0000 C   0  0  0  0  0  0  0  0  0  0  0  0
    9.9256   -6.2612    0.0000 C   0  0  0  0  0  0  0  0  0  0  0  0
    7.7822   -8.3237    0.0000 O   0  0  0  0  0  0  0  0  0  0  0  0
    6.3533   -5.8487    0.0000 C   0  0  0  0  0  0  0  0  0  0  0  0
    6.3533   -7.4987    0.0000 O   0  0  0  0  0  0  0  0  0  0  0  0
    9.2112   -7.4987    0.0000 O   0  0  0  0  0  0  0  0  0  0  0  0
    8.4967   -6.2612    0.0000 C   0  0  1  0  0  0  0  0  0  0  0  0
    8.4967   -7.0862    0.0000 C   0  0  1  0  0  0  0  0  0  0  0  0
    7.7822   -7.4987    0.0000 C   0  0  2  0  0  0  0  0  0  0  0  0
    7.0678   -7.0862    0.0000 C   0  0  1  0  0  0  0  0  0  0  0  0
    7.0678   -6.2612    0.0000 C   0  0  2  0  0  0  0  0  0  0  0  0
    7.7822   -5.8487    0.0000 O   0  0  0  0  0  0  0  0  0  0  0  0
    5.6388   -6.2612    0.0000 O   0  0  0  0  0  0  0  0  0  0  0  0
    4.9244   -5.8487    0.0000 C   0  0  0  0  0  0  0  0  0  0  0  0
    4.2099   -6.2612    0.0000 C   0  0  0  0  0  0  0  0  0  0  0  0
    4.9244   -5.0237    0.0000 O   0  0  0  0  0  0  0  0  0  0  0  0
    3.4954   -5.8487    0.0000 C   0  0  0  0  0  0  0  0  0  0  0  0
    2.7809   -6.2612    0.0000 C   0  0  0  0  0  0  0  0  0  0  0  0
    2.7809   -7.0862    0.0000 C   0  0  0  0  0  0  0  0  0  0  0  0
    3.4954   -7.4987    0.0000 C   0  0  0  0  0  0  0  0  0  0  0  0
    4.2099   -7.0862    0.0000 C   0  0  0  0  0  0  0  0  0  0  0  0
    2.0665   -5.8487    0.0000 O   0  0  0  0  0  0  0  0  0  0  0  0
    2.0665   -7.4987    0.0000 O   0  0  0  0  0  0  0  0  0  0  0  0
    3.4954   -8.3237    0.0000 O   0  0  0  0  0  0  0  0  0  0  0  0
    8.1837   -9.0444    0.0000 C   0  0  0  0  0  0  0  0  0  0  0  0
    7.7603   -9.7525    0.0000 C   0  0  0  0  0  0  0  0  0  0  0  0
    9.0086   -9.0571    0.0000 O   0  0  0  0  0  0  0  0  0  0  0  0
    6.9353   -9.7436    0.0000 C   0  0  0  0  0  0  0  0  0  0  0  0
    6.5056  -10.4477    0.0000 C   0  0  0  0  0  0  0  0  0  0  0  0
    6.9008  -11.1608    0.0000 C   0  0  0  0  0  0  0  0  0  0  0  0
    7.7157  -11.1862    0.0000 C   0  0  0  0  0  0  0  0  0  0  0  0
    8.1454  -10.4821    0.0000 C   0  0  0  0  0  0  0  0  0  0  0  0
    5.6808  -10.4305    0.0000 O   0  0  0  0  0  0  0  0  0  0  0  0
    6.4711  -11.8650    0.0000 O   0  0  0  0  0  0  0  0  0  0  0  0
    8.1082  -11.9119    0.0000 O   0  0  0  0  0  0  0  0  0  0  0  0
    9.2112   -8.3237    0.0000 C   0  0  0  0  0  0  0  0  0  0  0  0
    9.9256   -8.7362    0.0000 C   0  0  0  0  0  0  0  0  0  0  0  0
    8.4967   -8.7362    0.0000 O   0  0  0  0  0  0  0  0  0  0  0  0
    9.9256   -9.5612    0.0000 C   0  0  0  0  0  0  0  0  0  0  0  0
   10.6401   -9.9737    0.0000 C   0  0  0  0  0  0  0  0  0  0  0  0
   11.3546   -9.5612    0.0000 C   0  0  0  0  0  0  0  0  0  0  0  0
   11.3546   -8.7362    0.0000 C   0  0  0  0  0  0  0  0  0  0  0  0
   10.6401   -8.3237    0.0000 C   0  0  0  0  0  0  0  0  0  0  0  0
   12.0691   -8.3237    0.0000 O   0  0  0  0  0  0  0  0  0  0  0  0
   12.0691   -9.9737    0.0000 O   0  0  0  0  0  0  0  0  0  0  0  0
   10.6401  -10.7987    0.0000 O   0  0  0  0  0  0  0  0  0  0  0  0
    6.3533   -8.3237    0.0000 C   0  0  0  0  0  0  0  0  0  0  0  0
    5.6388   -8.7362    0.0000 C   0  0  0  0  0  0  0  0  0  0  0  0
    7.0678   -8.7362    0.0000 O   0  0  0  0  0  0  0  0  0  0  0  0
    4.9244   -8.3237    0.0000 C   0  0  0  0  0  0  0  0  0  0  0  0
    4.2099   -8.7362    0.0000 C   0  0  0  0  0  0  0  0  0  0  0  0
    4.2099   -9.5612    0.0000 C   0  0  0  0  0  0  0  0  0  0  0  0
    4.9244   -9.9737    0.0000 C   0  0  0  0  0  0  0  0  0  0  0  0
    5.6388   -9.5612    0.0000 C   0  0  0  0  0  0  0  0  0  0  0  0
    3.4954   -9.9737    0.0000 O   0  0  0  0  0  0  0  0  0  0  0  0
    4.9244  -10.7987    0.0000 O   0  0  0  0  0  0  0  0  0  0  0  0
    4.0788   -8.0820    0.0000 O   0  0  0  0  0  0  0  0  0  0  0  0
 17  4  1  1  0  0  0
  9  1  1  0  0  0  0
  8  2  1  0  0  0  0
  7  3  1  0  0  0  0
 12  4  1  0  0  0  0
 12  5  2  0  0  0  0
 11  6  2  0  0  0  0
  7  6  1  0  0  0  0
  8  7  2  0  0  0  0
  9  8  1  0  0  0  0
 10  9  2  0  0  0  0
 11 10  1  0  0  0  0
 12 11  1  0  0  0  0
 19 13  1  1  0  0  0
 21 14  1  1  0  0  0
 20 15  1  6  0  0  0
 18 16  1  6  0  0  0
 22 17  1  0  0  0  0
 18 17  1  0  0  0  0
 19 18  1  0  0  0  0
 20 19  1  0  0  0  0
 21 20  1  0  0  0  0
 22 21  1  0  0  0  0
 14 23  1  0  0  0  0
 23 24  1  0  0  0  0
 24 25  1  0  0  0  0
 24 26  2  0  0  0  0
 25 27  2  0  0  0  0
 27 28  1  0  0  0  0
 28 29  2  0  0  0  0
 29 30  1  0  0  0  0
 30 31  2  0  0  0  0
 31 25  1  0  0  0  0
 28 32  1  0  0  0  0
 29 33  1  0  0  0  0
 13 35  1  0  0  0  0
 35 36  1  0  0  0  0
 35 37  2  0  0  0  0
 36 38  2  0  0  0  0
 38 39  1  0  0  0  0
 39 40  2  0  0  0  0
 40 41  1  0  0  0  0
 41 42  2  0  0  0  0
 42 36  1  0  0  0  0
 39 43  1  0  0  0  0
 40 44  1  0  0  0  0
 41 45  1  0  0  0  0
 16 46  1  0  0  0  0
 46 47  1  0  0  0  0
 46 48  2  0  0  0  0
 47 49  2  0  0  0  0
 49 50  1  0  0  0  0
 50 51  2  0  0  0  0
 51 52  1  0  0  0  0
 52 53  2  0  0  0  0
 53 47  1  0  0  0  0
 52 54  1  0  0  0  0
 51 55  1  0  0  0  0
 50 56  1  0  0  0  0
 15 57  1  0  0  0  0
 57 58  1  0  0  0  0
 57 59  2  0  0  0  0
 58 60  2  0  0  0  0
 60 61  1  0  0  0  0
 61 62  2  0  0  0  0
 62 63  1  0  0  0  0
 63 64  2  0  0  0  0
 64 58  1  0  0  0  0
 61 34  1  0  0  0  0
 62 65  1  0  0  0  0
 63 66  1  0  0  0  0
 30 67  1  0  0  0  0
 31 38  1  0  0  0  0
M  END
>  <cdx:fragmentId>
1231

$$$$
