302664.cdx
  Mrv1902 05222410202D          

 27 28  0  0  0  0            999 V2000
    9.7785   -3.9720    0.0000 C   0  0  0  0  0  0  0  0  0  0  0  0
    9.6064   -4.7789    0.0000 C   0  0  0  0  0  0  0  0  0  0  0  0
   10.5490   -3.6770    0.0000 O   0  0  0  0  0  0  0  0  0  0  0  0
    9.1378   -3.4524    0.0000 O   0  0  0  0  0  0  0  0  0  0  0  0
   10.2191   -5.3314    0.0000 C   0  0  2  0  0  0  0  0  0  0  0  0
   10.1323   -6.1518    0.0000 C   0  0  2  0  0  0  0  0  0  0  0  0
   10.8857   -6.4879    0.0000 C   0  0  0  0  0  0  0  0  0  0  0  0
   11.4382   -5.8752    0.0000 C   0  0  0  0  0  0  0  0  0  0  0  0
   11.0262   -5.1604    0.0000 C   0  0  0  0  0  0  0  0  0  0  0  0
    9.4175   -6.5638    0.0000 C   0  0  0  0  0  0  0  0  0  0  0  0
    8.7033   -6.1507    0.0000 C   0  0  0  0  0  0  0  0  0  0  0  0
    7.9886   -6.5627    0.0000 C   0  0  0  0  0  0  0  0  0  0  0  0
    7.9879   -7.3877    0.0000 C   0  0  0  0  0  0  0  0  0  0  0  0
    7.2732   -7.7997    0.0000 C   0  0  0  0  0  0  0  0  0  0  0  0
    7.2726   -8.6247    0.0000 O   0  0  0  0  0  0  0  0  0  0  0  0
    5.8436   -8.6236    0.0000 O   0  0  0  0  0  0  0  0  0  0  0  0
    6.5578   -9.0367    0.0000 C   0  0  2  0  0  0  0  0  0  0  0  0
    6.5572   -9.8617    0.0000 C   0  0  1  0  0  0  0  0  0  0  0  0
    5.8424  -10.2736    0.0000 C   0  0  2  0  0  0  0  0  0  0  0  0
    5.1283   -9.8606    0.0000 C   0  0  1  0  0  0  0  0  0  0  0  0
    5.1289   -9.0356    0.0000 C   0  0  1  0  0  0  0  0  0  0  0  0
    4.4147   -8.6226    0.0000 C   0  0  0  0  0  0  0  0  0  0  0  0
    3.6999   -9.0346    0.0000 O   0  0  0  0  0  0  0  0  0  0  0  0
    4.4135  -10.2726    0.0000 O   0  0  0  0  0  0  0  0  0  0  0  0
    5.8418  -11.0986    0.0000 O   0  0  0  0  0  0  0  0  0  0  0  0
    7.2714  -10.2747    0.0000 O   0  0  0  0  0  0  0  0  0  0  0  0
   11.0566   -7.2950    0.0000 O   0  0  0  0  0  0  0  0  0  0  0  0
  1  2  1  0  0  0  0
  1  3  2  0  0  0  0
  1  4  1  0  0  0  0
  5  6  1  0  0  0  0
  6  7  1  0  0  0  0
  7  8  1  0  0  0  0
  8  9  1  0  0  0  0
  5  9  1  0  0  0  0
 10 11  1  0  0  0  0
 11 12  2  0  0  0  0
 12 13  1  0  0  0  0
 13 14  1  0  0  0  0
 16 17  1  0  0  0  0
 17 18  1  0  0  0  0
 18 19  1  0  0  0  0
 19 20  1  0  0  0  0
 20 21  1  0  0  0  0
 16 21  1  0  0  0  0
 22 23  1  0  0  0  0
 21 22  1  1  0  0  0
 20 24  1  6  0  0  0
 19 25  1  1  0  0  0
 18 26  1  6  0  0  0
 17 15  1  1  0  0  0
 14 15  1  0  0  0  0
  6 10  1  6  0  0  0
  7 27  2  0  0  0  0
  5  2  1  1  0  0  0
M  END
>  <cdx:fragmentId>
35

$$$$
