302682.cdx
  Mrv1902 05222410252D          

 33 34  0  0  0  0            999 V2000
    8.6346   -9.1487    0.0000 O   0  0  0  0  0  0  0  0  0  0  0  0
    9.3421   -9.5731    0.0000 C   0  0  0  0  0  0  0  0  0  0  0  0
    9.3283  -10.3979    0.0000 C   0  0  0  0  0  0  0  0  0  0  0  0
   10.0358  -10.8223    0.0000 C   0  0  0  0  0  0  0  0  0  0  0  0
   10.0220  -11.6472    0.0000 C   0  0  0  0  0  0  0  0  0  0  0  0
   10.0634   -9.1726    0.0000 O   0  0  0  0  0  0  0  0  0  0  0  0
    7.9202   -8.7362    0.0000 H   0  0  0  0  0  0  0  0  0  0  0  0
   10.0636   -4.1987    0.0000 C   0  0  0  0  0  0  0  0  0  0  0  0
    8.6346   -4.1987    0.0000 O   0  0  0  0  0  0  0  0  0  0  0  0
    9.3491   -4.6112    0.0000 C   0  0  0  0  0  0  0  0  0  0  0  0
    9.3491   -5.4362    0.0000 O   0  0  0  0  0  0  0  0  0  0  0  0
    8.6346   -5.8487    0.0000 C   0  0  0  0  0  0  0  0  0  0  0  0
    7.3071   -8.9731    0.0000 O   0  0  0  0  0  0  0  0  0  0  0  0
    5.1545   -9.0466    0.0000 C   0  0  0  0  0  0  0  0  0  0  0  0
    5.7378   -8.4632    0.0000 O   0  0  0  0  0  0  0  0  0  0  0  0
    6.5224   -8.7181    0.0000 C   0  0  0  0  0  0  0  0  0  0  0  0
   10.7571  -10.4218    0.0000 C   0  0  0  0  0  0  0  0  0  0  0  0
    7.1355   -8.1661    0.0000 C   0  0  2  0  0  0  0  0  0  0  0  0
    6.6506   -7.4987    0.0000 C   0  0  2  0  0  0  0  0  0  0  0  0
    7.1355   -6.8312    0.0000 C   0  0  0  0  0  0  0  0  0  0  0  0
    9.3491   -7.9112    0.0000 O   0  0  0  0  0  0  0  0  0  0  0  0
    9.3491   -7.0862    0.0000 C   0  0  0  0  0  0  0  0  0  0  0  0
    8.6346   -6.6737    0.0000 C   0  0  0  0  0  0  0  0  0  0  0  0
    7.9202   -7.0862    0.0000 C   0  0  0  0  0  0  0  0  0  0  0  0
    7.9202   -7.9112    0.0000 C   0  0  2  0  0  0  0  0  0  0  0  0
    8.6346   -8.3237    0.0000 C   0  0  2  0  0  0  0  0  0  0  0  0
    2.9680   -7.4588    0.0000 C   0  0  0  0  0  0  0  0  0  0  0  0
    5.8256   -7.4987    0.0000 O   0  0  0  0  0  0  0  0  0  0  0  0
    5.1285   -6.2513    0.0000 O   0  0  0  0  0  0  0  0  0  0  0  0
    3.6997   -6.2314    0.0000 C   0  0  0  0  0  0  0  0  0  0  0  0
    3.6882   -7.0563    0.0000 C   0  0  0  0  0  0  0  0  0  0  0  0
    4.3968   -7.4787    0.0000 C   0  0  0  0  0  0  0  0  0  0  0  0
    5.1170   -7.0762    0.0000 C   0  0  0  0  0  0  0  0  0  0  0  0
 25  7  1  1  0  0  0
 19 28  1  1  0  0  0
 23 12  1  0  0  0  0
 12 11  1  0  0  0  0
 11 10  1  0  0  0  0
 10  8  1  0  0  0  0
 10  9  2  0  0  0  0
 18 13  1  6  0  0  0
 18 16  1  1  0  0  0
 16 15  1  0  0  0  0
 15 14  1  0  0  0  0
 26  1  1  1  0  0  0
 20 24  2  0  0  0  0
 18 25  1  0  0  0  0
 19 18  1  0  0  0  0
 20 19  1  0  0  0  0
 26 21  1  0  0  0  0
 22 21  1  0  0  0  0
 23 22  2  0  0  0  0
 24 23  1  0  0  0  0
 25 24  1  0  0  0  0
 26 25  1  0  0  0  0
 31 27  1  0  0  0  0
 33 28  1  0  0  0  0
 33 29  2  0  0  0  0
 31 30  1  0  0  0  0
 32 31  1  0  0  0  0
 33 32  1  0  0  0  0
  2  3  1  0  0  0  0
  3  4  1  0  0  0  0
  4  5  1  0  0  0  0
  2  6  2  0  0  0  0
  1  2  1  0  0  0  0
  4 17  1  0  0  0  0
M  END
>  <cdx:groupId>
102

>  <cdx:fragmentId>
19

$$$$
