302612.cdx
  Mrv1902 05222410182D          

 12 13  0  0  0  0            999 V2000
    7.8301   -6.6240    0.0000 C   0  0  0  0  0  0  0  0  0  0  0  0
    8.3150   -7.2914    0.0000 C   0  0  0  0  0  0  0  0  0  0  0  0
    7.8301   -7.9588    0.0000 C   0  0  0  0  0  0  0  0  0  0  0  0
    7.0454   -7.7039    0.0000 C   0  0  1  0  0  0  0  0  0  0  0  0
    6.3310   -8.1164    0.0000 C   0  0  0  0  0  0  0  0  0  0  0  0
    5.6165   -7.7039    0.0000 C   0  0  0  0  0  0  0  0  0  0  0  0
    5.6165   -6.8789    0.0000 C   0  0  0  0  0  0  0  0  0  0  0  0
    6.3310   -6.4664    0.0000 C   0  0  0  0  0  0  0  0  0  0  0  0
    7.0454   -6.8789    0.0000 C   0  0  2  0  0  0  0  0  0  0  0  0
    9.1400   -7.2914    0.0000 O   0  0  0  0  0  0  0  0  0  0  0  0
    7.1317   -8.5244    0.0000 H   0  0  0  0  0  0  0  0  0  0  0  0
    7.1317   -6.0584    0.0000 H   0  0  0  0  0  0  0  0  0  0  0  0
  1  2  1  0  0  0  0
  2  3  1  0  0  0  0
  3  4  1  0  0  0  0
  4  5  1  0  0  0  0
  5  6  1  0  0  0  0
  6  7  1  0  0  0  0
  7  8  1  0  0  0  0
  8  9  1  0  0  0  0
  1  9  1  0  0  0  0
  4  9  1  0  0  0  0
  2 10  2  0  0  0  0
  4 11  1  6  0  0  0
  9 12  1  1  0  0  0
M  END
>  <cdx:groupId>
39

>  <cdx:fragmentId>
5

$$$$
