302632.cdx
  Mrv1902 05222410262D          

 35 38  0  0  0  0            999 V2000
    6.8815   -5.9225    0.0000 C   0  0  0  0  0  0  0  0  0  0  0  0
    6.8815   -5.0975    0.0000 C   0  0  0  0  0  0  0  0  0  0  0  0
    6.1670   -4.6850    0.0000 C   0  0  0  0  0  0  0  0  0  0  0  0
    5.4525   -5.0975    0.0000 C   0  0  0  0  0  0  0  0  0  0  0  0
    4.7381   -4.6850    0.0000 C   0  0  0  0  0  0  0  0  0  0  0  0
    4.0236   -5.0975    0.0000 C   0  0  0  0  0  0  0  0  0  0  0  0
    4.0236   -5.9225    0.0000 C   0  0  0  0  0  0  0  0  0  0  0  0
    4.7381   -6.3350    0.0000 C   0  0  0  0  0  0  0  0  0  0  0  0
    5.4525   -5.9225    0.0000 C   0  0  0  0  0  0  0  0  0  0  0  0
    6.1670   -6.3350    0.0000 O   0  0  0  0  0  0  0  0  0  0  0  0
    6.1670   -3.8600    0.0000 O   0  0  0  0  0  0  0  0  0  0  0  0
    7.5960   -6.3350    0.0000 C   0  0  0  0  0  0  0  0  0  0  0  0
    7.5960   -7.1600    0.0000 C   0  0  0  0  0  0  0  0  0  0  0  0
    8.3104   -7.5725    0.0000 C   0  0  0  0  0  0  0  0  0  0  0  0
    9.0249   -7.1600    0.0000 C   0  0  0  0  0  0  0  0  0  0  0  0
    9.0249   -6.3350    0.0000 C   0  0  0  0  0  0  0  0  0  0  0  0
    8.3104   -5.9225    0.0000 C   0  0  0  0  0  0  0  0  0  0  0  0
    9.7394   -5.9225    0.0000 O   0  0  0  0  0  0  0  0  0  0  0  0
   10.4538   -6.3350    0.0000 C   0  0  0  0  0  0  0  0  0  0  0  0
    8.3104   -8.3975    0.0000 O   0  0  0  0  0  0  0  0  0  0  0  0
    9.0249   -8.8100    0.0000 C   0  0  0  0  0  0  0  0  0  0  0  0
    9.7394   -7.5725    0.0000 O   0  0  0  0  0  0  0  0  0  0  0  0
    3.3091   -6.3350    0.0000 O   0  0  0  0  0  0  0  0  0  0  0  0
    4.7381   -3.8600    0.0000 O   0  0  0  0  0  0  0  0  0  0  0  0
    7.5960   -4.6850    0.0000 O   0  0  0  0  0  0  0  0  0  0  0  0
    7.5960   -3.8600    0.0000 C   0  0  2  0  0  0  0  0  0  0  0  0
    8.3104   -3.4475    0.0000 O   0  0  0  0  0  0  0  0  0  0  0  0
    8.3104   -2.6225    0.0000 C   0  0  2  0  0  0  0  0  0  0  0  0
    7.5960   -2.2100    0.0000 C   0  0  1  0  0  0  0  0  0  0  0  0
    6.8815   -2.6225    0.0000 C   0  0  2  0  0  0  0  0  0  0  0  0
    6.8815   -3.4475    0.0000 C   0  0  1  0  0  0  0  0  0  0  0  0
    6.0565   -3.4475    0.0000 O   0  0  0  0  0  0  0  0  0  0  0  0
    6.0565   -2.6225    0.0000 O   0  0  0  0  0  0  0  0  0  0  0  0
    7.5960   -1.3850    0.0000 O   0  0  0  0  0  0  0  0  0  0  0  0
    9.0249   -2.2100    0.0000 C   0  0  0  0  0  0  0  0  0  0  0  0
  1  2  2  0  0  0  0
  2  3  1  0  0  0  0
  3  4  1  0  0  0  0
  4  5  1  0  0  0  0
  5  6  2  0  0  0  0
  6  7  1  0  0  0  0
  7  8  2  0  0  0  0
  8  9  1  0  0  0  0
  4  9  2  0  0  0  0
  9 10  1  0  0  0  0
  1 10  1  0  0  0  0
  3 11  2  0  0  0  0
 12 13  1  0  0  0  0
 13 14  2  0  0  0  0
 14 15  1  0  0  0  0
 15 16  2  0  0  0  0
 16 17  1  0  0  0  0
 12 17  2  0  0  0  0
 18 19  1  0  0  0  0
 16 18  1  0  0  0  0
 20 21  1  0  0  0  0
 14 20  1  0  0  0  0
 15 22  1  0  0  0  0
  1 12  1  0  0  0  0
  7 23  1  0  0  0  0
  5 24  1  0  0  0  0
 26 25  1  1  0  0  0
 26 27  1  0  0  0  0
 27 28  1  0  0  0  0
 28 29  1  0  0  0  0
 29 30  1  0  0  0  0
 30 31  1  0  0  0  0
 31 26  1  0  0  0  0
  2 25  1  0  0  0  0
 31 32  1  6  0  0  0
 30 33  1  6  0  0  0
 29 34  1  1  0  0  0
 28 35  1  6  0  0  0
M  END
>  <cdx:groupId>
113

>  <cdx:fragmentId>
42

$$$$
