302669.cdx
  Mrv1902 05222410252D          

 96102  0  0  0  0            999 V2000
    3.0699   -9.1331    0.0000 C   0  0  0  0  0  0  0  0  0  0  0  0
    3.7844   -8.7206    0.0000 C   0  0  0  0  0  0  0  0  0  0  0  0
    4.4988   -9.1331    0.0000 C   0  0  0  0  0  0  0  0  0  0  0  0
    3.0699   -9.9581    0.0000 O   0  0  0  0  0  0  0  0  0  0  0  0
    2.3554   -8.7206    0.0000 N   0  0  0  0  0  0  0  0  0  0  0  0
   11.6435   -6.6581    0.0000 N   0  0  0  0  0  0  0  0  0  0  0  0
   10.9291   -6.2456    0.0000 C   0  0  0  0  0  0  0  0  0  0  0  0
   10.9291   -5.4206    0.0000 C   0  0  2  0  0  0  0  0  0  0  0  0
   10.2146   -5.0081    0.0000 N   0  0  0  0  0  0  0  0  0  0  0  0
   10.2146   -4.1831    0.0000 C   0  0  0  0  0  0  0  0  0  0  0  0
    9.5001   -3.7706    0.0000 C   0  0  1  0  0  0  0  0  0  0  0  0
    8.7856   -4.1831    0.0000 N   0  0  0  0  0  0  0  0  0  0  0  0
    8.0712   -3.7706    0.0000 C   0  0  0  0  0  0  0  0  0  0  0  0
    7.3567   -4.1831    0.0000 C   0  0  1  0  0  0  0  0  0  0  0  0
    6.6422   -3.7706    0.0000 N   0  0  0  0  0  0  0  0  0  0  0  0
    5.9278   -4.1831    0.0000 C   0  0  0  0  0  0  0  0  0  0  0  0
    5.9278   -5.0081    0.0000 C   0  0  1  0  0  0  0  0  0  0  0  0
    5.2133   -5.4206    0.0000 N   0  0  0  0  0  0  0  0  0  0  0  0
    5.2133   -6.2456    0.0000 C   0  0  0  0  0  0  0  0  0  0  0  0
    4.4988   -6.6581    0.0000 C   0  0  1  0  0  0  0  0  0  0  0  0
    4.4988   -7.4831    0.0000 N   0  0  0  0  0  0  0  0  0  0  0  0
    5.2133   -7.8956    0.0000 C   0  0  0  0  0  0  0  0  0  0  0  0
    5.2133   -8.7206    0.0000 C   0  0  1  0  0  0  0  0  0  0  0  0
    5.9278   -9.1331    0.0000 N   0  0  0  0  0  0  0  0  0  0  0  0
    5.9278   -9.9581    0.0000 C   0  0  0  0  0  0  0  0  0  0  0  0
    6.6422  -10.3706    0.0000 C   0  0  1  0  0  0  0  0  0  0  0  0
    7.3567   -9.9581    0.0000 N   0  0  0  0  0  0  0  0  0  0  0  0
    8.0712  -10.3706    0.0000 C   0  0  0  0  0  0  0  0  0  0  0  0
    8.7856   -9.9581    0.0000 C   0  0  2  0  0  0  0  0  0  0  0  0
    8.7856   -9.1331    0.0000 N   0  0  0  0  0  0  0  0  0  0  0  0
    9.5001   -8.7206    0.0000 C   0  0  0  0  0  0  0  0  0  0  0  0
   10.2146   -9.1331    0.0000 C   0  0  1  0  0  0  0  0  0  0  0  0
   10.9291   -8.7206    0.0000 N   0  0  0  0  0  0  0  0  0  0  0  0
   10.9291   -7.8956    0.0000 C   0  0  0  0  0  0  0  0  0  0  0  0
   11.6435   -7.4831    0.0000 C   0  0  2  0  0  0  0  0  0  0  0  0
   12.4282   -7.7380    0.0000 C   0  0  0  0  0  0  0  0  0  0  0  0
   12.9131   -7.0706    0.0000 C   0  0  0  0  0  0  0  0  0  0  0  0
   12.4282   -6.4031    0.0000 C   0  0  0  0  0  0  0  0  0  0  0  0
    6.4523   -6.2875    0.0000 C   0  0  0  0  0  0  0  0  0  0  0  0
    6.5956   -5.4750    0.0000 C   0  0  0  0  0  0  0  0  0  0  0  0
    7.3925   -5.2615    0.0000 C   0  0  0  0  0  0  0  0  0  0  0  0
   10.2146   -7.4831    0.0000 O   0  0  0  0  0  0  0  0  0  0  0  0
    9.5001   -7.8956    0.0000 O   0  0  0  0  0  0  0  0  0  0  0  0
    8.0712  -11.1956    0.0000 O   0  0  0  0  0  0  0  0  0  0  0  0
    5.2133  -10.3706    0.0000 O   0  0  0  0  0  0  0  0  0  0  0  0
    5.9278   -7.4831    0.0000 O   0  0  0  0  0  0  0  0  0  0  0  0
    5.9278   -6.6581    0.0000 O   0  0  0  0  0  0  0  0  0  0  0  0
    5.2133   -3.7706    0.0000 O   0  0  0  0  0  0  0  0  0  0  0  0
    8.0712   -2.9456    0.0000 O   0  0  0  0  0  0  0  0  0  0  0  0
   10.9291   -3.7706    0.0000 O   0  0  0  0  0  0  0  0  0  0  0  0
   10.2146   -6.6581    0.0000 O   0  0  0  0  0  0  0  0  0  0  0  0
    9.5001   -2.9456    0.0000 C   0  0  0  0  0  0  0  0  0  0  0  0
   10.2146   -2.5331    0.0000 C   0  0  0  0  0  0  0  0  0  0  0  0
   10.9291   -2.9456    0.0000 C   0  0  0  0  0  0  0  0  0  0  0  0
   10.2146   -1.7081    0.0000 C   0  0  0  0  0  0  0  0  0  0  0  0
   10.2146   -9.9581    0.0000 C   0  0  0  0  0  0  0  0  0  0  0  0
   11.8223  -11.3626    0.0000 N   0  0  0  0  0  0  0  0  0  0  0  0
   11.0153  -11.1910    0.0000 C   0  0  0  0  0  0  0  0  0  0  0  0
   10.9291  -10.3706    0.0000 C   0  0  0  0  0  0  0  0  0  0  0  0
   11.6827  -10.0350    0.0000 C   0  0  0  0  0  0  0  0  0  0  0  0
   11.9377   -9.2504    0.0000 C   0  0  0  0  0  0  0  0  0  0  0  0
   12.7446   -9.0789    0.0000 C   0  0  0  0  0  0  0  0  0  0  0  0
   13.2967   -9.6919    0.0000 C   0  0  0  0  0  0  0  0  0  0  0  0
   13.0417  -10.4766    0.0000 C   0  0  0  0  0  0  0  0  0  0  0  0
   12.2348  -10.6481    0.0000 C   0  0  0  0  0  0  0  0  0  0  0  0
    3.7844   -6.2456    0.0000 C   0  0  0  0  0  0  0  0  0  0  0  0
    3.0699   -6.6581    0.0000 C   0  0  0  0  0  0  0  0  0  0  0  0
    3.0699   -7.4831    0.0000 C   0  0  0  0  0  0  0  0  0  0  0  0
    2.3554   -7.8956    0.0000 C   0  0  0  0  0  0  0  0  0  0  0  0
    1.6409   -7.4831    0.0000 C   0  0  0  0  0  0  0  0  0  0  0  0
    1.6409   -6.6581    0.0000 C   0  0  0  0  0  0  0  0  0  0  0  0
    2.3554   -6.2456    0.0000 C   0  0  0  0  0  0  0  0  0  0  0  0
    0.9265   -7.8956    0.0000 O   0  0  0  0  0  0  0  0  0  0  0  0
    9.5001  -10.3706    0.0000 C   0  0  0  0  0  0  0  0  0  0  0  0
    9.5001  -11.1956    0.0000 C   0  0  0  0  0  0  0  0  0  0  0  0
   10.2146  -11.6081    0.0000 C   0  0  0  0  0  0  0  0  0  0  0  0
   10.2146  -12.4331    0.0000 C   0  0  0  0  0  0  0  0  0  0  0  0
    9.5001  -12.8456    0.0000 C   0  0  0  0  0  0  0  0  0  0  0  0
    8.7856  -12.4331    0.0000 C   0  0  0  0  0  0  0  0  0  0  0  0
    8.7856  -11.6081    0.0000 C   0  0  0  0  0  0  0  0  0  0  0  0
   12.0722   -4.7606    0.0000 C   0  0  0  0  0  0  0  0  0  0  0  0
   12.7867   -5.1731    0.0000 C   0  0  0  0  0  0  0  0  0  0  0  0
   13.5012   -4.7606    0.0000 C   0  0  0  0  0  0  0  0  0  0  0  0
   14.2156   -5.1731    0.0000 C   0  0  0  0  0  0  0  0  0  0  0  0
   14.2156   -5.9981    0.0000 C   0  0  0  0  0  0  0  0  0  0  0  0
   13.5012   -6.4106    0.0000 C   0  0  0  0  0  0  0  0  0  0  0  0
   12.7867   -5.9981    0.0000 C   0  0  0  0  0  0  0  0  0  0  0  0
    7.3625   -4.9955    0.0000 C   0  0  0  0  0  0  0  0  0  0  0  0
    8.1377   -5.2777    0.0000 C   0  0  0  0  0  0  0  0  0  0  0  0
    8.2810   -6.0902    0.0000 C   0  0  0  0  0  0  0  0  0  0  0  0
    9.0562   -6.3723    0.0000 N   0  0  0  0  0  0  0  0  0  0  0  0
    6.6422  -11.1956    0.0000 C   0  0  0  0  0  0  0  0  0  0  0  0
    5.9278  -11.6081    0.0000 C   0  0  0  0  0  0  0  0  0  0  0  0
    5.9278  -12.4331    0.0000 O   0  0  0  0  0  0  0  0  0  0  0  0
    5.2133  -11.1956    0.0000 N   0  0  0  0  0  0  0  0  0  0  0  0
   11.7298   -8.3035    0.0000 H   0  0  0  0  0  0  0  0  0  0  0  0
  1  2  1  0  0  0  0
  2  3  1  0  0  0  0
  1  4  2  0  0  0  0
  1  5  1  0  0  0  0
  6  7  1  0  0  0  0
  7  8  1  0  0  0  0
  8  9  1  0  0  0  0
  9 10  1  0  0  0  0
 10 11  1  0  0  0  0
 11 12  1  0  0  0  0
 12 13  1  0  0  0  0
 13 14  1  0  0  0  0
 14 15  1  0  0  0  0
 15 16  1  0  0  0  0
 16 17  1  0  0  0  0
 17 18  1  0  0  0  0
 18 19  1  0  0  0  0
 19 20  1  0  0  0  0
 20 21  1  0  0  0  0
 21 22  1  0  0  0  0
 22 23  1  0  0  0  0
 23 24  1  0  0  0  0
 24 25  1  0  0  0  0
 25 26  1  0  0  0  0
 26 27  1  0  0  0  0
 27 28  1  0  0  0  0
 28 29  1  0  0  0  0
 29 30  1  0  0  0  0
 30 31  1  0  0  0  0
 31 32  1  0  0  0  0
 32 33  1  0  0  0  0
 33 34  1  0  0  0  0
 34 35  1  0  0  0  0
 35 36  1  0  0  0  0
 36 37  1  0  0  0  0
 37 38  1  0  0  0  0
  6 38  1  0  0  0  0
  6 35  1  0  0  0  0
 39 40  1  0  0  0  0
 40 41  1  0  0  0  0
 17 40  1  6  0  0  0
 34 42  2  0  0  0  0
 31 43  2  0  0  0  0
 28 44  2  0  0  0  0
 25 45  2  0  0  0  0
 22 46  2  0  0  0  0
 19 47  2  0  0  0  0
 16 48  2  0  0  0  0
 13 49  2  0  0  0  0
 10 50  2  0  0  0  0
  7 51  2  0  0  0  0
 52 53  1  0  0  0  0
 53 54  1  0  0  0  0
 53 55  1  0  0  0  0
 11 52  1  1  0  0  0
 57 58  1  0  0  0  0
 58 59  2  0  0  0  0
 59 60  1  0  0  0  0
 60 61  1  0  0  0  0
 61 62  2  0  0  0  0
 62 63  1  0  0  0  0
 63 64  2  0  0  0  0
 64 65  1  0  0  0  0
 57 65  1  0  0  0  0
 60 65  2  0  0  0  0
 56 59  1  0  0  0  0
 32 56  1  1  0  0  0
 67 68  1  0  0  0  0
 68 69  2  0  0  0  0
 69 70  1  0  0  0  0
 70 71  2  0  0  0  0
 71 72  1  0  0  0  0
 67 72  2  0  0  0  0
 70 73  1  0  0  0  0
 66 67  1  0  0  0  0
 20 66  1  1  0  0  0
 74 75  1  0  0  0  0
 75 76  1  0  0  0  0
 76 77  2  0  0  0  0
 77 78  1  0  0  0  0
 78 79  2  0  0  0  0
 79 80  1  0  0  0  0
 75 80  2  0  0  0  0
 29 74  1  6  0  0  0
 81 82  1  0  0  0  0
 82 83  1  0  0  0  0
 83 84  2  0  0  0  0
 84 85  1  0  0  0  0
 85 86  2  0  0  0  0
 86 87  1  0  0  0  0
 82 87  2  0  0  0  0
  8 81  1  6  0  0  0
 88 89  1  0  0  0  0
 89 90  1  0  0  0  0
 90 91  1  0  0  0  0
 14 88  1  6  0  0  0
 92 93  1  0  0  0  0
 93 94  2  0  0  0  0
 93 95  1  0  0  0  0
 26 92  1  1  0  0  0
 23  3  1  1  0  0  0
 35 96  1  6  0  0  0
M  END
>  <cdx:fragmentId>
15

$$$$
