302680.cdx
  Mrv1902 05222410252D          

 35 36  0  0  0  0            999 V2000
    6.1182   -8.6580    0.0000 C   0  0  1  0  0  0  0  0  0  0  0  0
    5.3948   -8.2614    0.0000 C   0  0  0  0  0  0  0  0  0  0  0  0
    4.6896   -8.6895    0.0000 C   0  0  0  0  0  0  0  0  0  0  0  0
    6.1364   -9.4828    0.0000 O   0  0  0  0  0  0  0  0  0  0  0  0
    6.8513   -9.8945    0.0000 C   0  0  0  0  0  0  0  0  0  0  0  0
    7.5654   -9.4813    0.0000 C   0  0  0  0  0  0  0  0  0  0  0  0
    8.2803   -9.8930    0.0000 C   0  0  0  0  0  0  0  0  0  0  0  0
    8.2811  -10.7180    0.0000 C   0  0  0  0  0  0  0  0  0  0  0  0
    6.8522  -10.7195    0.0000 O   0  0  0  0  0  0  0  0  0  0  0  0
    8.9943   -9.4798    0.0000 C   0  0  0  0  0  0  0  0  0  0  0  0
    5.3766   -7.4366    0.0000 C   0  0  0  0  0  0  0  0  0  0  0  0
    8.3718   -8.6189    0.0000 C   0  0  0  0  0  0  0  0  0  0  0  0
   10.4776   -8.1914    0.0000 C   0  0  1  0  0  0  0  0  0  0  0  0
    9.7567   -7.7902    0.0000 C   0  0  1  0  0  0  0  0  0  0  0  0
    9.7438   -6.9653    0.0000 C   0  0  0  0  0  0  0  0  0  0  0  0
   10.4518   -6.5416    0.0000 C   0  0  0  0  0  0  0  0  0  0  0  0
   11.1726   -6.9429    0.0000 C   0  0  1  0  0  0  0  0  0  0  0  0
   11.1855   -7.7678    0.0000 O   0  0  0  0  0  0  0  0  0  0  0  0
    8.9553   -6.7226    0.0000 C   0  0  0  0  0  0  0  0  0  0  0  0
    8.4809   -7.3975    0.0000 C   0  0  0  0  0  0  0  0  0  0  0  0
    8.9762   -8.0573    0.0000 C   0  0  2  0  0  0  0  0  0  0  0  0
   11.8805   -6.5193    0.0000 O   0  0  0  0  0  0  0  0  0  0  0  0
   12.5794   -6.9578    0.0000 C   0  0  0  0  0  0  0  0  0  0  0  0
   10.4904   -9.0163    0.0000 O   0  0  0  0  0  0  0  0  0  0  0  0
   11.2049   -9.4288    0.0000 C   0  0  0  0  0  0  0  0  0  0  0  0
    9.1603   -8.8615    0.0000 O   0  0  0  0  0  0  0  0  0  0  0  0
   10.4389   -5.7167    0.0000 C   0  0  0  0  0  0  0  0  0  0  0  0
   11.1468   -5.2931    0.0000 O   0  0  0  0  0  0  0  0  0  0  0  0
   11.1339   -4.4682    0.0000 C   0  0  0  0  0  0  0  0  0  0  0  0
   10.4351   -4.0298    0.0000 O   0  0  0  0  0  0  0  0  0  0  0  0
   11.8631   -4.0822    0.0000 C   0  0  0  0  0  0  0  0  0  0  0  0
    9.7567   -8.6152    0.0000 H   0  0  0  0  0  0  0  0  0  0  0  0
    7.5468   -8.6264    0.0000 O   0  0  0  0  0  0  0  0  0  0  0  0
    6.8052   -7.4050    0.0000 O   0  0  0  0  0  0  0  0  0  0  0  0
    6.8234   -8.2298    0.0000 C   0  0  0  0  0  0  0  0  0  0  0  0
 35 33  1  0  0  0  0
 35 34  2  0  0  0  0
 35  1  1  0  0  0  0
  1  2  1  0  0  0  0
  2  3  1  0  0  0  0
  5  6  1  0  0  0  0
  6  7  1  0  0  0  0
  7  8  1  0  0  0  0
  5  9  2  0  0  0  0
  4  5  1  0  0  0  0
  7 10  1  0  0  0  0
  1  4  1  6  0  0  0
  2 11  1  0  0  0  0
 13 14  1  0  0  0  0
 14 15  1  0  0  0  0
 15 16  2  0  0  0  0
 16 17  1  0  0  0  0
 17 18  1  0  0  0  0
 13 18  1  0  0  0  0
 19 20  2  0  0  0  0
 20 21  1  0  0  0  0
 21 14  1  0  0  0  0
 19 15  1  0  0  0  0
 22 23  1  0  0  0  0
 17 22  1  6  0  0  0
 24 25  1  0  0  0  0
 13 24  1  1  0  0  0
 21 26  1  6  0  0  0
 29 30  2  0  0  0  0
 29 31  1  0  0  0  0
 28 29  1  0  0  0  0
 27 28  1  0  0  0  0
 16 27  1  0  0  0  0
 21 12  1  1  0  0  0
 33 12  1  0  0  0  0
 14 32  1  1  0  0  0
M  END
>  <cdx:groupId>
108

>  <cdx:fragmentId>
35

$$$$
