302657.cdx
  Mrv1902 05222410242D          

 19 19  0  0  0  0            999 V2000
    8.4967   -6.8799    0.0000 C   0  0  0  0  0  0  0  0  0  0  0  0
    7.7822   -7.2924    0.0000 C   0  0  0  0  0  0  0  0  0  0  0  0
    7.0678   -6.8799    0.0000 C   0  0  0  0  0  0  0  0  0  0  0  0
    6.3533   -7.2924    0.0000 C   0  0  0  0  0  0  0  0  0  0  0  0
    6.3533   -8.1174    0.0000 C   0  0  0  0  0  0  0  0  0  0  0  0
    7.0678   -8.5299    0.0000 C   0  0  0  0  0  0  0  0  0  0  0  0
    7.7822   -8.1174    0.0000 C   0  0  0  0  0  0  0  0  0  0  0  0
    8.4967   -6.0549    0.0000 O   0  0  0  0  0  0  0  0  0  0  0  0
    9.2112   -7.2924    0.0000 O   0  0  0  0  0  0  0  0  0  0  0  0
    5.6388   -8.5299    0.0000 O   0  0  0  0  0  0  0  0  0  0  0  0
    4.9244   -8.1174    0.0000 Si  0  0  0  0  0  0  0  0  0  0  0  0
    4.9244   -7.2924    0.0000 C   0  0  0  0  0  0  0  0  0  0  0  0
    4.2099   -7.7049    0.0000 C   0  0  0  0  0  0  0  0  0  0  0  0
    4.2099   -8.5299    0.0000 C   0  0  0  0  0  0  0  0  0  0  0  0
    5.6388   -6.8799    0.0000 C   0  0  0  0  0  0  0  0  0  0  0  0
    9.9256   -6.8799    0.0000 Si  0  0  0  0  0  0  0  0  0  0  0  0
   10.6401   -6.4674    0.0000 C   0  0  0  0  0  0  0  0  0  0  0  0
    9.9256   -6.0549    0.0000 C   0  0  0  0  0  0  0  0  0  0  0  0
   10.6401   -7.2924    0.0000 C   0  0  0  0  0  0  0  0  0  0  0  0
  1  2  1  0  0  0  0
  2  3  1  0  0  0  0
  3  4  2  0  0  0  0
  4  5  1  0  0  0  0
  5  6  2  0  0  0  0
  6  7  1  0  0  0  0
  2  7  2  0  0  0  0
  1  8  2  0  0  0  0
  1  9  1  0  0  0  0
 11 12  1  0  0  0  0
 11 13  1  0  0  0  0
 11 14  1  0  0  0  0
 10 11  1  0  0  0  0
  5 10  1  0  0  0  0
  4 15  1  0  0  0  0
 16 17  1  0  0  0  0
 16 18  1  0  0  0  0
 16 19  1  0  0  0  0
  9 16  1  0  0  0  0
M  END
>  <cdx:groupId>
59

>  <cdx:fragmentId>
5

$$$$
