302641.cdx
  Mrv1902 05222410252D          

 22 24  0  0  0  0            999 V2000
    8.1846   -7.5390    0.0000 O   0  0  0  0  0  0  0  0  0  0  0  0
    8.7680   -6.9557    0.0000 O   0  0  0  0  0  0  0  0  0  0  0  0
    5.8229   -7.9713    0.0000 O   0  0  0  0  0  0  0  0  0  0  0  0
    7.2518   -7.9769    0.0000 O   0  0  0  0  0  0  0  0  0  0  0  0
    7.2614   -5.5019    0.0000 O   0  0  0  0  0  0  0  0  0  0  0  0
    6.5454   -5.9116    0.0000 C   0  0  0  0  0  0  0  0  0  0  0  0
    5.8325   -5.4963    0.0000 C   0  0  0  0  0  0  0  0  0  0  0  0
    5.1164   -5.9060    0.0000 C   0  0  0  0  0  0  0  0  0  0  0  0
    5.1132   -6.7310    0.0000 C   0  0  0  0  0  0  0  0  0  0  0  0
    5.8261   -7.1463    0.0000 C   0  0  0  0  0  0  0  0  0  0  0  0
    6.5422   -6.7366    0.0000 C   0  0  0  0  0  0  0  0  0  0  0  0
    7.2550   -7.1519    0.0000 C   0  0  0  0  0  0  0  0  0  0  0  0
    7.9711   -6.7422    0.0000 C   0  0  0  0  0  0  0  0  0  0  0  0
    7.9743   -5.9172    0.0000 C   0  0  0  0  0  0  0  0  0  0  0  0
    8.6904   -5.5074    0.0000 C   0  0  0  0  0  0  0  0  0  0  0  0
    9.4016   -5.9255    0.0000 C   0  0  0  0  0  0  0  0  0  0  0  0
   10.1193   -5.5074    0.0000 C   0  0  0  0  0  0  0  0  0  0  0  0
   10.1193   -4.6825    0.0000 C   0  0  0  0  0  0  0  0  0  0  0  0
    9.4016   -4.2644    0.0000 C   0  0  0  0  0  0  0  0  0  0  0  0
    8.6904   -4.6825    0.0000 C   0  0  0  0  0  0  0  0  0  0  0  0
    7.9775   -5.0922    0.0000 O   0  0  0  0  0  0  0  0  0  0  0  0
    7.2646   -4.6769    0.0000 C   0  0  0  0  0  0  0  0  0  0  0  0
 13  1  1  0  0  0  0
 13  2  1  0  0  0  0
 10  3  1  0  0  0  0
 12  4  2  0  0  0  0
 14  5  1  0  0  0  0
  6  5  1  0  0  0  0
 11  6  2  0  0  0  0
  7  6  1  0  0  0  0
  8  7  2  0  0  0  0
  9  8  1  0  0  0  0
 10  9  2  0  0  0  0
 11 10  1  0  0  0  0
 12 11  1  0  0  0  0
 13 12  1  0  0  0  0
 14 13  1  0  0  0  0
 14 15  1  0  0  0  0
 15 16  2  0  0  0  0
 16 17  1  0  0  0  0
 17 18  2  0  0  0  0
 18 19  1  0  0  0  0
 19 20  2  0  0  0  0
 20 15  1  0  0  0  0
 14 21  1  0  0  0  0
 21 22  1  0  0  0  0
M  END
>  <cdx:fragmentId>
5

$$$$
