302695.cdx
  Mrv1902 05222410252D          

 43 48  0  0  0  0            999 V2000
   11.3102   -5.8287    0.0000 C   0  0  2  0  0  0  0  0  0  0  0  0
   12.1316   -5.9060    0.0000 C   0  0  0  0  0  0  0  0  0  0  0  0
    8.5513   -8.8257    0.0000 H   0  0  0  0  0  0  0  0  0  0  0  0
    9.9847   -8.8179    0.0000 H   0  0  0  0  0  0  0  0  0  0  0  0
   12.3345   -4.5352    0.0000 O   0  0  0  0  0  0  0  0  0  0  0  0
   10.0941   -2.7609    0.0000 C   0  0  0  0  0  0  0  0  0  0  0  0
    9.8859   -4.1746    0.0000 C   0  0  0  0  0  0  0  0  0  0  0  0
   10.3981   -3.5279    0.0000 C   0  0  2  0  0  0  0  0  0  0  0  0
   11.2143   -3.6480    0.0000 C   0  0  0  0  0  0  0  0  0  0  0  0
   11.5183   -4.4150    0.0000 C   0  0  2  0  0  0  0  0  0  0  0  0
   11.0062   -5.0617    0.0000 C   0  0  1  0  0  0  0  0  0  0  0  0
   10.1900   -4.9416    0.0000 N   0  0  0  0  0  0  0  0  0  0  0  0
    9.6674   -5.6741    0.0000 C   0  0  0  0  0  0  0  0  0  0  0  0
    7.8414   -7.5959    0.0000 C   0  0  0  0  0  0  0  0  0  0  0  0
    7.1225   -8.0162    0.0000 C   0  0  0  0  0  0  0  0  0  0  0  0
    6.4125   -8.4365    0.0000 C   0  0  0  0  0  0  0  0  0  0  0  0
    6.4215   -9.2614    0.0000 C   0  0  1  0  0  0  0  0  0  0  0  0
    7.1404   -9.6661    0.0000 C   0  0  0  0  0  0  0  0  0  0  0  0
    9.5336   -7.0967    0.0000 C   0  0  0  0  0  0  0  0  0  0  0  0
   10.0112   -6.4241    0.0000 C   0  0  0  0  0  0  0  0  0  0  0  0
   10.8326   -6.5014    0.0000 C   0  0  0  0  0  0  0  0  0  0  0  0
   11.1763   -7.2513    0.0000 C   0  0  0  0  0  0  0  0  0  0  0  0
   10.6987   -7.9240    0.0000 C   0  0  0  0  0  0  0  0  0  0  0  0
    9.8773   -7.8467    0.0000 C   0  0  0  0  0  0  0  0  0  0  0  0
    9.2702   -8.4054    0.0000 C   0  0  2  0  0  0  0  0  0  0  0  0
    9.2792   -9.2303    0.0000 C   0  0  0  0  0  0  0  0  0  0  0  0
    8.5693   -9.6506    0.0000 C   0  0  0  0  0  0  0  0  0  0  0  0
    7.8504   -9.2459    0.0000 C   0  0  0  0  0  0  0  0  0  0  0  0
    7.8414   -8.4209    0.0000 C   0  0  2  0  0  0  0  0  0  0  0  0
    8.5513   -8.0007    0.0000 C   0  0  1  0  0  0  0  0  0  0  0  0
    8.7141   -7.1919    0.0000 C   0  0  0  0  0  0  0  0  0  0  0  0
    5.7116   -9.6817    0.0000 O   0  0  0  0  0  0  0  0  0  0  0  0
    3.6024   -6.7691    0.0000 O   0  0  0  0  0  0  0  0  0  0  0  0
    4.3120   -7.1900    0.0000 C   0  0  0  0  0  0  0  0  0  0  0  0
    2.8734   -7.9980    0.0000 O   0  0  0  0  0  0  0  0  0  0  0  0
    2.8539   -9.6479    0.0000 O   0  0  0  0  0  0  0  0  0  0  0  0
    4.2730  -10.4897    0.0000 O   0  0  0  0  0  0  0  0  0  0  0  0
    4.3022   -8.0149    0.0000 C   0  0  2  0  0  0  0  0  0  0  0  0
    3.5829   -8.4189    0.0000 C   0  0  2  0  0  0  0  0  0  0  0  0
    3.5732   -9.2439    0.0000 C   0  0  1  0  0  0  0  0  0  0  0  0
    4.2827   -9.6648    0.0000 C   0  0  2  0  0  0  0  0  0  0  0  0
    5.0020   -9.2608    0.0000 C   0  0  1  0  0  0  0  0  0  0  0  0
    5.0118   -8.4358    0.0000 O   0  0  0  0  0  0  0  0  0  0  0  0
 30  3  1  6  0  0  0
 25  4  1  1  0  0  0
 42 32  1  1  0  0  0
 17 32  1  1  0  0  0
 21  1  1  0  0  0  0
 10  5  1  1  0  0  0
  8  6  1  1  0  0  0
 12  7  1  0  0  0  0
  8  7  1  0  0  0  0
  9  8  1  0  0  0  0
 10  9  1  0  0  0  0
 11 10  1  0  0  0  0
 11 12  1  6  0  0  0
 20 13  1  0  0  0  0
 29 14  1  1  0  0  0
 18 28  1  0  0  0  0
 15 29  1  0  0  0  0
 16 15  1  0  0  0  0
 17 16  1  0  0  0  0
 18 17  1  0  0  0  0
 31 19  1  0  0  0  0
 24 19  2  0  0  0  0
 20 19  1  0  0  0  0
 21 20  2  0  0  0  0
 22 21  1  0  0  0  0
 23 22  2  0  0  0  0
 24 23  1  0  0  0  0
 25 24  1  0  0  0  0
 30 25  1  0  0  0  0
 26 25  1  0  0  0  0
 27 26  1  0  0  0  0
 28 27  2  0  0  0  0
 29 28  1  0  0  0  0
 30 29  1  0  0  0  0
 31 30  1  0  0  0  0
 38 34  1  1  0  0  0
 34 33  1  0  0  0  0
 39 35  1  6  0  0  0
 40 36  1  1  0  0  0
 41 37  1  6  0  0  0
 43 38  1  0  0  0  0
 39 38  1  0  0  0  0
 40 39  1  0  0  0  0
 41 40  1  0  0  0  0
 42 41  1  0  0  0  0
 43 42  1  0  0  0  0
  1  2  1  1  0  0  0
  1 11  1  0  0  0  0
M  END
>  <cdx:groupId>
136

>  <cdx:fragmentId>
29

$$$$
