302640.cdx
  Mrv1902 05222410252D          

 48 54  0  0  0  0            999 V2000
    4.3981   -7.4937    0.0000 C   0  0  0  0  0  0  0  0  0  0  0  0
    4.3981   -8.3187    0.0000 C   0  0  1  0  0  0  0  0  0  0  0  0
    5.1125   -8.7313    0.0000 C   0  0  0  0  0  0  0  0  0  0  0  0
    5.8270   -8.3187    0.0000 C   0  0  1  0  0  0  0  0  0  0  0  0
    5.8270   -7.4937    0.0000 C   0  0  2  0  0  0  0  0  0  0  0  0
    5.1125   -7.0812    0.0000 C   0  0  0  0  0  0  0  0  0  0  0  0
    6.5415   -8.7313    0.0000 C   0  0  2  0  0  0  0  0  0  0  0  0
    7.2559   -8.3187    0.0000 C   0  0  0  0  0  0  0  0  0  0  0  0
    7.2559   -7.4937    0.0000 C   0  0  2  0  0  0  0  0  0  0  0  0
    6.5415   -7.0812    0.0000 C   0  0  1  0  0  0  0  0  0  0  0  0
    7.9704   -7.0812    0.0000 C   0  0  1  0  0  0  0  0  0  0  0  0
    7.9704   -6.2563    0.0000 C   0  0  2  0  0  0  0  0  0  0  0  0
    7.2559   -5.8438    0.0000 C   0  0  0  0  0  0  0  0  0  0  0  0
    6.5415   -6.2563    0.0000 C   0  0  0  0  0  0  0  0  0  0  0  0
    8.7550   -7.3362    0.0000 C   0  0  0  0  0  0  0  0  0  0  0  0
    9.2400   -6.6688    0.0000 C   0  0  1  0  0  0  0  0  0  0  0  0
    8.7550   -6.0013    0.0000 C   0  0  2  0  0  0  0  0  0  0  0  0
    8.9686   -5.2044    0.0000 C   0  0  2  0  0  0  0  0  0  0  0  0
    9.6374   -4.7215    0.0000 O   0  0  0  0  0  0  0  0  0  0  0  0
    9.3849   -3.9361    0.0000 C   0  0  1  0  0  0  0  0  0  0  0  0
    8.5599   -3.9336    0.0000 C   0  0  0  0  0  0  0  0  0  0  0  0
    8.3026   -4.7175    0.0000 C   0  0  0  0  0  0  0  0  0  0  0  0
    4.7000   -9.4457    0.0000 C   0  0  0  0  0  0  0  0  0  0  0  0
    5.5250   -9.4457    0.0000 C   0  0  0  0  0  0  0  0  0  0  0  0
    3.6836   -8.7313    0.0000 O   0  0  0  0  0  0  0  0  0  0  0  0
    5.8270   -6.6688    0.0000 C   0  0  0  0  0  0  0  0  0  0  0  0
    7.2559   -6.6688    0.0000 H   0  0  0  0  0  0  0  0  0  0  0  0
    7.9704   -5.4313    0.0000 C   0  0  0  0  0  0  0  0  0  0  0  0
   10.0650   -6.6688    0.0000 O   0  0  0  0  0  0  0  0  0  0  0  0
    9.7759   -5.3740    0.0000 C   0  0  0  0  0  0  0  0  0  0  0  0
    5.8270   -9.1438    0.0000 H   0  0  0  0  0  0  0  0  0  0  0  0
    6.5415   -9.5563    0.0000 O   0  0  0  0  0  0  0  0  0  0  0  0
    7.9704   -7.9063    0.0000 C   0  0  0  0  0  0  0  0  0  0  0  0
    9.5800   -6.0013    0.0000 H   0  0  0  0  0  0  0  0  0  0  0  0
    6.9889  -10.2494    0.0000 C   0  0  2  0  0  0  0  0  0  0  0  0
    6.6124  -10.9834    0.0000 O   0  0  0  0  0  0  0  0  0  0  0  0
    7.0598  -11.6765    0.0000 C   0  0  0  0  0  0  0  0  0  0  0  0
    7.8838  -11.6356    0.0000 C   0  0  2  0  0  0  0  0  0  0  0  0
    8.2604  -10.9015    0.0000 C   0  0  1  0  0  0  0  0  0  0  0  0
    7.8129  -10.2084    0.0000 C   0  0  1  0  0  0  0  0  0  0  0  0
    9.0843  -10.8606    0.0000 O   0  0  0  0  0  0  0  0  0  0  0  0
    8.1894   -9.4744    0.0000 O   0  0  0  0  0  0  0  0  0  0  0  0
    8.3313  -12.3287    0.0000 O   0  0  0  0  0  0  0  0  0  0  0  0
   10.1923   -4.1057    0.0000 H   0  0  0  0  0  0  0  0  0  0  0  0
    9.7974   -3.2217    0.0000 C   0  0  0  0  0  0  0  0  0  0  0  0
    9.0829   -2.8092    0.0000 C   0  0  0  0  0  0  0  0  0  0  0  0
   10.5118   -3.6342    0.0000 C   0  0  0  0  0  0  0  0  0  0  0  0
   10.2099   -2.5072    0.0000 O   0  0  0  0  0  0  0  0  0  0  0  0
  1  2  1  0  0  0  0
  2  3  1  0  0  0  0
  3  4  1  0  0  0  0
  4  5  1  0  0  0  0
  5  6  1  0  0  0  0
  6  1  1  0  0  0  0
  4  7  1  0  0  0  0
  7  8  1  0  0  0  0
  8  9  1  0  0  0  0
  9 10  1  0  0  0  0
 10  5  1  0  0  0  0
  9 11  1  0  0  0  0
 11 12  1  0  0  0  0
 12 13  1  0  0  0  0
 13 14  1  0  0  0  0
 14 10  1  0  0  0  0
 11 15  1  0  0  0  0
 15 16  1  0  0  0  0
 16 17  1  0  0  0  0
 17 12  1  0  0  0  0
 17 18  1  0  0  0  0
 18 19  1  0  0  0  0
 19 20  1  0  0  0  0
 20 21  1  0  0  0  0
 21 22  1  0  0  0  0
 22 18  1  0  0  0  0
  3 23  1  0  0  0  0
  3 24  1  0  0  0  0
  2 25  1  1  0  0  0
  5 26  1  1  0  0  0
 10 26  1  1  0  0  0
  9 27  1  1  0  0  0
 12 28  1  1  0  0  0
 16 29  1  1  0  0  0
 18 30  1  6  0  0  0
  4 31  1  6  0  0  0
  7 32  1  6  0  0  0
 11 33  1  6  0  0  0
 17 34  1  6  0  0  0
 35 32  1  1  0  0  0
 35 36  1  0  0  0  0
 36 37  1  0  0  0  0
 37 38  1  0  0  0  0
 38 39  1  0  0  0  0
 39 40  1  0  0  0  0
 40 35  1  0  0  0  0
 39 41  1  1  0  0  0
 40 42  1  6  0  0  0
 38 43  1  6  0  0  0
 20 44  1  6  0  0  0
 20 45  1  0  0  0  0
 45 46  1  0  0  0  0
 45 47  1  0  0  0  0
 45 48  1  0  0  0  0
M  END
>  <cdx:fragmentId>
5

$$$$
