302627.cdx
  Mrv1902 05222410262D          

 17 16  0  0  0  0            999 V2000
    2.4237   -7.4518    0.0000 C   0  0  0  0  0  0  0  0  0  0  0  0
   12.4263   -7.4518    0.0000 C   0  0  0  0  0  0  0  0  0  0  0  0
    3.1382   -7.0393    0.0000 O   0  0  0  0  0  0  0  0  0  0  0  0
    3.8526   -8.2768    0.0000 O   0  0  0  0  0  0  0  0  0  0  0  0
   11.7118   -6.2143    0.0000 C   0  0  0  0  0  0  0  0  0  0  0  0
   11.7118   -7.0393    0.0000 C   0  0  0  0  0  0  0  0  0  0  0  0
   10.9974   -7.4518    0.0000 C   0  0  0  0  0  0  0  0  0  0  0  0
   10.2829   -7.0393    0.0000 C   0  0  0  0  0  0  0  0  0  0  0  0
    9.5684   -7.4518    0.0000 C   0  0  0  0  0  0  0  0  0  0  0  0
    8.8539   -7.0393    0.0000 C   0  0  0  0  0  0  0  0  0  0  0  0
    8.1395   -7.4518    0.0000 C   0  0  0  0  0  0  0  0  0  0  0  0
    7.4250   -7.0393    0.0000 C   0  0  0  0  0  0  0  0  0  0  0  0
    6.7105   -7.4518    0.0000 C   0  0  0  0  0  0  0  0  0  0  0  0
    5.9961   -7.0393    0.0000 C   0  0  0  0  0  0  0  0  0  0  0  0
    5.2816   -7.4518    0.0000 C   0  0  0  0  0  0  0  0  0  0  0  0
    4.5671   -7.0393    0.0000 C   0  0  0  0  0  0  0  0  0  0  0  0
    3.8526   -7.4518    0.0000 C   0  0  0  0  0  0  0  0  0  0  0  0
  3  1  1  0  0  0  0
  6  2  1  0  0  0  0
 17  3  1  0  0  0  0
 17  4  2  0  0  0  0
  6  5  1  0  0  0  0
  7  6  1  0  0  0  0
  8  7  1  0  0  0  0
  9  8  1  0  0  0  0
 10  9  1  0  0  0  0
 11 10  1  0  0  0  0
 12 11  1  0  0  0  0
 13 12  1  0  0  0  0
 14 13  1  0  0  0  0
 15 14  1  0  0  0  0
 16 15  1  0  0  0  0
 17 16  1  0  0  0  0
M  END
>  <cdx:fragmentId>
5

$$$$
