302645.cdx
  Mrv1902 05222410232D          

 33 35  0  0  0  0            999 V2000
    6.7915   -5.7980    0.0000 O   0  0  0  0  0  0  0  0  0  0  0  0
    7.5005   -6.2199    0.0000 C   0  0  2  0  0  0  0  0  0  0  0  0
    7.4896   -7.0449    0.0000 C   0  0  1  0  0  0  0  0  0  0  0  0
    6.7697   -7.4479    0.0000 C   0  0  2  0  0  0  0  0  0  0  0  0
    6.0608   -7.0260    0.0000 C   0  0  2  0  0  0  0  0  0  0  0  0
    6.0717   -6.2011    0.0000 C   0  0  1  0  0  0  0  0  0  0  0  0
    5.3627   -5.7792    0.0000 C   0  0  0  0  0  0  0  0  0  0  0  0
    4.6429   -6.1822    0.0000 O   0  0  0  0  0  0  0  0  0  0  0  0
    5.3409   -7.4290    0.0000 O   0  0  0  0  0  0  0  0  0  0  0  0
    8.2203   -5.8169    0.0000 O   0  0  0  0  0  0  0  0  0  0  0  0
    8.2558   -7.4282    0.0000 O   0  0  0  0  0  0  0  0  0  0  0  0
    9.6952   -4.8644    0.0000 C   0  0  0  0  0  0  0  0  0  0  0  0
   11.1294   -5.6801    0.0000 O   0  0  0  0  0  0  0  0  0  0  0  0
   11.1401   -7.3301    0.0000 O   0  0  0  0  0  0  0  0  0  0  0  0
    9.7165   -8.1643    0.0000 O   0  0  0  0  0  0  0  0  0  0  0  0
    9.7005   -5.6894    0.0000 C   0  0  1  0  0  0  0  0  0  0  0  0
   10.4176   -6.0973    0.0000 C   0  0  2  0  0  0  0  0  0  0  0  0
   10.4230   -6.9222    0.0000 C   0  0  2  0  0  0  0  0  0  0  0  0
    9.7112   -7.3394    0.0000 C   0  0  1  0  0  0  0  0  0  0  0  0
    8.9941   -6.9315    0.0000 C   0  0  1  0  0  0  0  0  0  0  0  0
    6.7371   -9.9227    0.0000 O   0  0  0  0  0  0  0  0  0  0  0  0
    5.2974  -10.7287    0.0000 O   0  0  0  0  0  0  0  0  0  0  0  0
    3.8794   -9.8849    0.0000 O   0  0  0  0  0  0  0  0  0  0  0  0
    3.1814   -8.6381    0.0000 O   0  0  0  0  0  0  0  0  0  0  0  0
    3.9012   -8.2351    0.0000 C   0  0  0  0  0  0  0  0  0  0  0  0
    4.6102   -8.6570    0.0000 C   0  0  2  0  0  0  0  0  0  0  0  0
    4.5993   -9.4819    0.0000 C   0  0  1  0  0  0  0  0  0  0  0  0
    5.3082   -9.9038    0.0000 C   0  0  1  0  0  0  0  0  0  0  0  0
    6.0281   -9.5008    0.0000 C   0  0  2  0  0  0  0  0  0  0  0  0
    6.0390   -8.6758    0.0000 C   0  0  2  0  0  0  0  0  0  0  0  0
    5.3300   -8.2539    0.0000 O   0  0  0  0  0  0  0  0  0  0  0  0
    6.7588   -8.2728    0.0000 O   0  0  0  0  0  0  0  0  0  0  0  0
    8.9887   -6.1065    0.0000 O   0  0  0  0  0  0  0  0  0  0  0  0
 20 11  1  6  0  0  0
 16 12  1  1  0  0  0
 17 13  1  1  0  0  0
 18 14  1  1  0  0  0
 19 15  1  6  0  0  0
 33 16  1  0  0  0  0
 17 16  1  0  0  0  0
 18 17  1  0  0  0  0
 19 18  1  0  0  0  0
 20 19  1  0  0  0  0
 33 20  1  0  0  0  0
 30 32  1  6  0  0  0
 29 21  1  6  0  0  0
 28 22  1  1  0  0  0
 27 23  1  1  0  0  0
 26 25  1  1  0  0  0
 25 24  1  0  0  0  0
 31 26  1  0  0  0  0
 27 26  1  0  0  0  0
 28 27  1  0  0  0  0
 29 28  1  0  0  0  0
 30 29  1  0  0  0  0
 31 30  1  0  0  0  0
  1  2  1  0  0  0  0
  2  3  1  0  0  0  0
  3  4  1  0  0  0  0
  4  5  1  0  0  0  0
  5  6  1  0  0  0  0
  1  6  1  0  0  0  0
  4 32  1  1  0  0  0
  7  8  1  0  0  0  0
  6  7  1  1  0  0  0
  5  9  1  1  0  0  0
  2 10  1  1  0  0  0
  3 11  1  6  0  0  0
M  END
>  <cdx:groupId>
252

>  <cdx:fragmentId>
190

$$$$
