302619.cdx
  Mrv1902 05222410262D          

 22 24  0  0  0  0            999 V2000
    7.9896   -5.9299    0.0000 C   0  0  0  0  0  0  0  0  0  0  0  0
    7.9896   -6.7549    0.0000 C   0  0  0  0  0  0  0  0  0  0  0  0
    7.2751   -7.1674    0.0000 C   0  0  0  0  0  0  0  0  0  0  0  0
    7.2751   -7.9924    0.0000 O   0  0  0  0  0  0  0  0  0  0  0  0
    6.5607   -6.7549    0.0000 C   0  0  0  0  0  0  0  0  0  0  0  0
    5.8462   -7.1674    0.0000 C   0  0  0  0  0  0  0  0  0  0  0  0
    5.1317   -6.7549    0.0000 C   0  0  0  0  0  0  0  0  0  0  0  0
    5.1317   -5.9299    0.0000 C   0  0  0  0  0  0  0  0  0  0  0  0
    5.8462   -5.5174    0.0000 C   0  0  0  0  0  0  0  0  0  0  0  0
    6.5607   -5.9299    0.0000 C   0  0  0  0  0  0  0  0  0  0  0  0
    7.2751   -5.5174    0.0000 O   0  0  0  0  0  0  0  0  0  0  0  0
    8.7041   -5.5174    0.0000 C   0  0  0  0  0  0  0  0  0  0  0  0
    8.7041   -4.6924    0.0000 C   0  0  0  0  0  0  0  0  0  0  0  0
    9.4186   -4.2799    0.0000 C   0  0  0  0  0  0  0  0  0  0  0  0
   10.1331   -4.6924    0.0000 C   0  0  0  0  0  0  0  0  0  0  0  0
   10.1331   -5.5174    0.0000 C   0  0  0  0  0  0  0  0  0  0  0  0
    9.4187   -5.9299    0.0000 C   0  0  0  0  0  0  0  0  0  0  0  0
   10.8476   -5.9299    0.0000 O   0  0  0  0  0  0  0  0  0  0  0  0
   10.8476   -4.2799    0.0000 O   0  0  0  0  0  0  0  0  0  0  0  0
    9.4186   -3.4548    0.0000 O   0  0  0  0  0  0  0  0  0  0  0  0
    4.4172   -5.5174    0.0000 O   0  0  0  0  0  0  0  0  0  0  0  0
    5.8462   -7.9924    0.0000 O   0  0  0  0  0  0  0  0  0  0  0  0
  1  2  2  0  0  0  0
  2  3  1  0  0  0  0
  3  4  2  0  0  0  0
  3  5  1  0  0  0  0
  5  6  1  0  0  0  0
  6  7  2  0  0  0  0
  7  8  1  0  0  0  0
  8  9  2  0  0  0  0
  9 10  1  0  0  0  0
  5 10  2  0  0  0  0
 10 11  1  0  0  0  0
  1 11  1  0  0  0  0
  1 12  1  0  0  0  0
 12 13  1  0  0  0  0
 13 14  2  0  0  0  0
 14 15  1  0  0  0  0
 15 16  2  0  0  0  0
 16 17  1  0  0  0  0
 12 17  2  0  0  0  0
 16 18  1  0  0  0  0
 15 19  1  0  0  0  0
 14 20  1  0  0  0  0
  8 21  1  0  0  0  0
  6 22  1  0  0  0  0
M  END
>  <cdx:fragmentId>
3

$$$$
