302691.cdx
  Mrv1902 05222410242D          

 36 41  0  0  0  0            999 V2000
    7.5026   -7.6835    0.0000 C   0  0  1  0  0  0  0  0  0  0  0  0
    6.7882   -8.0960    0.0000 C   0  0  2  0  0  0  0  0  0  0  0  0
    6.7882   -8.9210    0.0000 C   0  0  0  0  0  0  0  0  0  0  0  0
    6.0737   -9.3335    0.0000 C   0  0  0  0  0  0  0  0  0  0  0  0
    5.3592   -8.9210    0.0000 C   0  0  0  0  0  0  0  0  0  0  0  0
    4.6447   -9.3335    0.0000 C   0  0  0  0  0  0  0  0  0  0  0  0
    3.9303   -8.9210    0.0000 C   0  0  0  0  0  0  0  0  0  0  0  0
    3.9303   -8.0960    0.0000 C   0  0  0  0  0  0  0  0  0  0  0  0
    4.6447   -7.6835    0.0000 C   0  0  0  0  0  0  0  0  0  0  0  0
    5.3592   -8.0960    0.0000 C   0  0  2  0  0  0  0  0  0  0  0  0
    6.0737   -7.6835    0.0000 C   0  0  1  0  0  0  0  0  0  0  0  0
    6.0737   -6.8585    0.0000 C   0  0  0  0  0  0  0  0  0  0  0  0
    6.7882   -6.4460    0.0000 C   0  0  0  0  0  0  0  0  0  0  0  0
    7.5026   -6.8585    0.0000 C   0  0  2  0  0  0  0  0  0  0  0  0
    8.2872   -6.6036    0.0000 C   0  0  1  0  0  0  0  0  0  0  0  0
    8.7722   -5.9361    0.0000 C   0  0  1  0  0  0  0  0  0  0  0  0
    9.5568   -6.1911    0.0000 C   0  0  1  0  0  0  0  0  0  0  0  0
   10.2713   -5.7786    0.0000 C   0  0  0  0  0  0  0  0  0  0  0  0
   10.9857   -6.1911    0.0000 C   0  0  0  0  0  0  0  0  0  0  0  0
   10.9857   -7.0161    0.0000 C   0  0  1  0  0  0  0  0  0  0  0  0
   10.2713   -7.4286    0.0000 C   0  0  0  0  0  0  0  0  0  0  0  0
    9.5568   -7.0161    0.0000 N   0  0  0  0  0  0  0  0  0  0  0  0
    8.7722   -7.2710    0.0000 C   0  0  1  0  0  0  0  0  0  0  0  0
    8.2872   -7.9384    0.0000 C   0  0  0  0  0  0  0  0  0  0  0  0
    3.2158   -9.3335    0.0000 O   0  0  0  0  0  0  0  0  0  0  0  0
   11.7002   -7.4286    0.0000 C   0  0  0  0  0  0  0  0  0  0  0  0
    8.5172   -5.1515    0.0000 C   0  0  0  0  0  0  0  0  0  0  0  0
    5.3592   -7.2710    0.0000 C   0  0  0  0  0  0  0  0  0  0  0  0
    7.5026   -6.0335    0.0000 C   0  0  0  0  0  0  0  0  0  0  0  0
    6.7882   -5.6210    0.0000 O   0  0  0  0  0  0  0  0  0  0  0  0
    7.5026   -8.5085    0.0000 H   0  0  0  0  0  0  0  0  0  0  0  0
    6.7882   -7.2710    0.0000 H   0  0  0  0  0  0  0  0  0  0  0  0
    6.0737   -8.5085    0.0000 H   0  0  0  0  0  0  0  0  0  0  0  0
    7.9236   -6.1030    0.0000 H   0  0  0  0  0  0  0  0  0  0  0  0
    9.4706   -5.3706    0.0000 H   0  0  0  0  0  0  0  0  0  0  0  0
    9.2571   -7.9384    0.0000 H   0  0  0  0  0  0  0  0  0  0  0  0
  1  2  1  0  0  0  0
  2  3  1  0  0  0  0
  3  4  1  0  0  0  0
  4  5  1  0  0  0  0
  5  6  2  0  0  0  0
  6  7  1  0  0  0  0
  7  8  1  0  0  0  0
  8  9  1  0  0  0  0
  9 10  1  0  0  0  0
 10 11  1  0  0  0  0
 11 12  1  0  0  0  0
 12 13  1  0  0  0  0
 13 14  1  0  0  0  0
 14 15  1  0  0  0  0
 15 16  1  0  0  0  0
 16 17  1  0  0  0  0
 17 18  1  0  0  0  0
 18 19  1  0  0  0  0
 19 20  1  0  0  0  0
 20 21  1  0  0  0  0
 21 22  1  0  0  0  0
 22 23  1  0  0  0  0
 23 24  1  0  0  0  0
  1 24  1  0  0  0  0
  1 14  1  0  0  0  0
 15 23  1  0  0  0  0
 17 22  1  0  0  0  0
  2 11  1  0  0  0  0
  5 10  1  0  0  0  0
  7 25  2  0  0  0  0
 20 26  1  6  0  0  0
 16 27  1  6  0  0  0
 10 28  1  1  0  0  0
 29 30  1  0  0  0  0
 14 29  1  1  0  0  0
  1 31  1  6  0  0  0
  2 32  1  1  0  0  0
 11 33  1  6  0  0  0
 15 34  1  6  0  0  0
 17 35  1  6  0  0  0
 23 36  1  6  0  0  0
M  END
>  <cdx:groupId>
115

>  <cdx:fragmentId>
5

$$$$
