302622.cdx
  Mrv1902 05222410282D          

 33 35  0  0  0  0            999 V2000
    5.6305   -6.9100    0.0000 C   0  0  2  0  0  0  0  0  0  0  0  0
    4.9075   -6.5126    0.0000 C   0  0  0  0  0  0  0  0  0  0  0  0
    4.8901   -5.6878    0.0000 C   0  0  0  0  0  0  0  0  0  0  0  0
    5.5958   -5.2603    0.0000 C   0  0  0  0  0  0  0  0  0  0  0  0
    5.5784   -4.4355    0.0000 C   0  0  0  0  0  0  0  0  0  0  0  0
    4.8554   -4.0382    0.0000 C   0  0  0  0  0  0  0  0  0  0  0  0
    4.1498   -4.4656    0.0000 C   0  0  0  0  0  0  0  0  0  0  0  0
    4.1671   -5.2905    0.0000 C   0  0  0  0  0  0  0  0  0  0  0  0
    4.9423   -8.1623    0.0000 C   0  0  0  0  0  0  0  0  0  0  0  0
    4.9597   -8.9871    0.0000 C   0  0  0  0  0  0  0  0  0  0  0  0
    5.6827   -9.3844    0.0000 C   0  0  0  0  0  0  0  0  0  0  0  0
    5.7001  -10.2092    0.0000 C   0  0  0  0  0  0  0  0  0  0  0  0
    4.9944  -10.6367    0.0000 C   0  0  0  0  0  0  0  0  0  0  0  0
    4.2714  -10.2394    0.0000 C   0  0  0  0  0  0  0  0  0  0  0  0
    4.2541   -9.4145    0.0000 C   0  0  0  0  0  0  0  0  0  0  0  0
    4.2193   -7.7649    0.0000 O   0  0  0  0  0  0  0  0  0  0  0  0
    5.6479   -7.7348    0.0000 N   0  0  0  0  0  0  0  0  0  0  0  0
    8.5052   -7.6746    0.0000 O   0  0  0  0  0  0  0  0  0  0  0  0
   12.0506   -6.3621    0.0000 C   0  0  0  0  0  0  0  0  0  0  0  0
   12.7737   -6.7594    0.0000 C   0  0  0  0  0  0  0  0  0  0  0  0
   12.7910   -7.5843    0.0000 C   0  0  0  0  0  0  0  0  0  0  0  0
   12.0854   -8.0117    0.0000 C   0  0  0  0  0  0  0  0  0  0  0  0
   11.3624   -7.6144    0.0000 C   0  0  0  0  0  0  0  0  0  0  0  0
   11.3450   -6.7895    0.0000 C   0  0  0  0  0  0  0  0  0  0  0  0
   10.6046   -5.5674    0.0000 C   0  0  0  0  0  0  0  0  0  0  0  0
   10.6220   -6.3922    0.0000 C   0  0  0  0  0  0  0  0  0  0  0  0
    9.9164   -6.8197    0.0000 N   0  0  0  0  0  0  0  0  0  0  0  0
    9.1934   -6.4223    0.0000 C   0  0  0  0  0  0  0  0  0  0  0  0
    8.4878   -6.8498    0.0000 C   0  0  0  0  0  0  0  0  0  0  0  0
    7.7648   -6.4524    0.0000 C   0  0  0  0  0  0  0  0  0  0  0  0
    7.0592   -6.8799    0.0000 O   0  0  0  0  0  0  0  0  0  0  0  0
    6.3188   -5.6577    0.0000 O   0  0  0  0  0  0  0  0  0  0  0  0
    6.3361   -6.4825    0.0000 C   0  0  0  0  0  0  0  0  0  0  0  0
 31 30  1  0  0  0  0
 29 18  1  0  0  0  0
 28 27  1  0  0  0  0
 27 26  2  0  0  0  0
 26 24  1  0  0  0  0
 24 19  2  0  0  0  0
 20 19  1  0  0  0  0
 21 20  2  0  0  0  0
 22 21  1  0  0  0  0
 23 22  2  0  0  0  0
 24 23  1  0  0  0  0
 26 25  1  0  0  0  0
 29 28  1  0  0  0  0
 30 29  1  0  0  0  0
 33 31  1  0  0  0  0
 33 32  2  0  0  0  0
  1  2  1  0  0  0  0
 33  1  1  0  0  0  0
  3  4  1  0  0  0  0
  4  5  2  0  0  0  0
  5  6  1  0  0  0  0
  6  7  2  0  0  0  0
  7  8  1  0  0  0  0
  3  8  2  0  0  0  0
  2  3  1  0  0  0  0
  9 10  1  0  0  0  0
 10 11  1  0  0  0  0
 11 12  2  0  0  0  0
 12 13  1  0  0  0  0
 13 14  2  0  0  0  0
 14 15  1  0  0  0  0
 10 15  2  0  0  0  0
  9 16  2  0  0  0  0
  9 17  1  0  0  0  0
  1 17  1  1  0  0  0
M  END
>  <cdx:fragmentId>
15

$$$$
