302652.cdx
  Mrv1902 05222410242D          

 24 23  0  0  0  0            999 V2000
   14.5290   -7.8287    0.0000 C   0  0  0  0  0  0  0  0  0  0  0  0
   13.8145   -8.2412    0.0000 C   0  0  0  0  0  0  0  0  0  0  0  0
   13.1000   -7.8287    0.0000 C   0  0  0  0  0  0  0  0  0  0  0  0
   12.3856   -8.2412    0.0000 C   0  0  0  0  0  0  0  0  0  0  0  0
   11.6711   -7.8287    0.0000 C   0  0  0  0  0  0  0  0  0  0  0  0
   10.9566   -8.2412    0.0000 C   0  0  0  0  0  0  0  0  0  0  0  0
   10.2422   -7.8287    0.0000 C   0  0  0  0  0  0  0  0  0  0  0  0
    9.5277   -8.2412    0.0000 C   0  0  0  0  0  0  0  0  0  0  0  0
    8.8132   -7.8287    0.0000 C   0  0  0  0  0  0  0  0  0  0  0  0
    8.0987   -8.2412    0.0000 C   0  0  0  0  0  0  0  0  0  0  0  0
    7.3843   -7.8287    0.0000 C   0  0  0  0  0  0  0  0  0  0  0  0
    6.6698   -8.2412    0.0000 C   0  0  0  0  0  0  0  0  0  0  0  0
    5.9553   -7.8287    0.0000 C   0  0  0  0  0  0  0  0  0  0  0  0
    5.2409   -8.2412    0.0000 C   0  0  0  0  0  0  0  0  0  0  0  0
    4.5264   -7.8287    0.0000 C   0  0  0  0  0  0  0  0  0  0  0  0
    3.8119   -8.2412    0.0000 C   0  0  0  0  0  0  0  0  0  0  0  0
    3.0975   -7.8287    0.0000 C   0  0  0  0  0  0  0  0  0  0  0  0
    2.3830   -8.2412    0.0000 C   0  0  0  0  0  0  0  0  0  0  0  0
    1.6685   -7.8287    0.0000 C   0  0  0  0  0  0  0  0  0  0  0  0
   14.5290   -7.0037    0.0000 O   0  0  0  0  0  0  0  0  0  0  0  0
   15.2435   -8.2412    0.0000 O   0  0  0  0  0  0  0  0  0  0  0  0
    1.2560   -8.5431    0.0000 O   0  0  0  0  0  0  0  0  0  0  0  0
    2.0810   -7.1142    0.0000 O   0  0  0  0  0  0  0  0  0  0  0  0
    0.9540   -7.4162    0.0000 O   0  0  0  0  0  0  0  0  0  0  0  0
  1  2  1  0  0  0  0
  2  3  2  3  0  0  0
  3  4  1  0  0  0  0
  4  5  1  0  0  0  0
  5  6  1  0  0  0  0
  6  7  1  0  0  0  0
  7  8  1  0  0  0  0
  8  9  1  0  0  0  0
  9 10  1  0  0  0  0
 10 11  1  0  0  0  0
 11 12  1  0  0  0  0
 12 13  1  0  0  0  0
 13 14  1  0  0  0  0
 14 15  1  0  0  0  0
 15 16  1  0  0  0  0
 16 17  1  0  0  0  0
 17 18  1  0  0  0  0
 18 19  1  0  0  0  0
  1 20  2  0  0  0  0
  1 21  1  0  0  0  0
 19 22  1  0  0  0  0
 19 23  1  0  0  0  0
 19 24  1  0  0  0  0
M  END
>  <cdx:fragmentId>
5

$$$$
