302697.cdx
  Mrv1902 05222410252D          

 33 37  0  0  0  0            999 V2000
    5.0313   -8.9758    0.0000 C   0  0  0  0  0  0  0  0  0  0  0  0
    4.3168   -9.3883    0.0000 C   0  0  0  0  0  0  0  0  0  0  0  0
    4.3168  -10.2133    0.0000 C   0  0  1  0  0  0  0  0  0  0  0  0
    5.0313  -10.6258    0.0000 C   0  0  0  0  0  0  0  0  0  0  0  0
    5.7457  -10.2133    0.0000 C   0  0  0  0  0  0  0  0  0  0  0  0
    6.4602  -10.6258    0.0000 C   0  0  0  0  0  0  0  0  0  0  0  0
    7.1747  -10.2133    0.0000 C   0  0  0  0  0  0  0  0  0  0  0  0
    7.1747   -9.3883    0.0000 C   0  0  1  0  0  0  0  0  0  0  0  0
    7.8891   -8.9758    0.0000 C   0  0  2  0  0  0  0  0  0  0  0  0
    8.6738   -9.2308    0.0000 C   0  0  0  0  0  0  0  0  0  0  0  0
    9.1587   -8.5633    0.0000 C   0  0  0  0  0  0  0  0  0  0  0  0
    8.6738   -7.8959    0.0000 C   0  0  1  0  0  0  0  0  0  0  0  0
    7.8891   -8.1508    0.0000 C   0  0  1  0  0  0  0  0  0  0  0  0
    7.1747   -7.7383    0.0000 C   0  0  0  0  0  0  0  0  0  0  0  0
    6.4602   -8.1508    0.0000 C   0  0  0  0  0  0  0  0  0  0  0  0
    6.4602   -8.9758    0.0000 C   0  0  2  0  0  0  0  0  0  0  0  0
    5.7457   -9.3883    0.0000 C   0  0  1  0  0  0  0  0  0  0  0  0
    3.6023  -10.6258    0.0000 O   0  0  0  0  0  0  0  0  0  0  0  0
   10.7976   -5.9836    0.0000 C   0  0  0  0  0  0  0  0  0  0  0  0
   11.3496   -6.5967    0.0000 C   0  0  2  0  0  0  0  0  0  0  0  0
   11.0947   -7.3813    0.0000 C   0  0  0  0  0  0  0  0  0  0  0  0
   10.2877   -7.5528    0.0000 C   0  0  0  0  0  0  0  0  0  0  0  0
    9.7357   -6.9397    0.0000 C   0  0  0  0  0  0  0  0  0  0  0  0
    9.9906   -6.1551    0.0000 N   0  0  0  0  0  0  0  0  0  0  0  0
   12.1566   -6.4252    0.0000 C   0  0  0  0  0  0  0  0  0  0  0  0
    7.8891   -7.3258    0.0000 C   0  0  0  0  0  0  0  0  0  0  0  0
    5.7457   -8.5633    0.0000 C   0  0  0  0  0  0  0  0  0  0  0  0
    7.1747   -8.5633    0.0000 H   0  0  0  0  0  0  0  0  0  0  0  0
    6.4602   -9.8008    0.0000 H   0  0  0  0  0  0  0  0  0  0  0  0
    7.8891   -9.8008    0.0000 H   0  0  0  0  0  0  0  0  0  0  0  0
    8.3767   -6.4982    0.0000 C   0  0  0  0  0  0  0  0  0  0  0  0
    8.9287   -7.1113    0.0000 C   0  0  1  0  0  0  0  0  0  0  0  0
    9.4584   -7.6409    0.0000 H   0  0  0  0  0  0  0  0  0  0  0  0
 32 23  1  0  0  0  0
 32 31  1  6  0  0  0
  1  2  1  0  0  0  0
  2  3  1  0  0  0  0
  3  4  1  0  0  0  0
  4  5  1  0  0  0  0
  5  6  2  0  0  0  0
  6  7  1  0  0  0  0
  7  8  1  0  0  0  0
  8  9  1  0  0  0  0
  9 10  1  0  0  0  0
 10 11  1  0  0  0  0
 12 11  1  0  0  0  0
 12 13  1  0  0  0  0
  9 13  1  0  0  0  0
 13 14  1  0  0  0  0
 14 15  1  0  0  0  0
 15 16  1  0  0  0  0
  8 16  1  0  0  0  0
 16 17  1  0  0  0  0
  5 17  1  0  0  0  0
  1 17  1  0  0  0  0
  3 18  1  1  0  0  0
 19 20  1  0  0  0  0
 20 21  1  0  0  0  0
 21 22  1  0  0  0  0
 22 23  1  0  0  0  0
 23 24  2  0  0  0  0
 19 24  1  0  0  0  0
 20 25  1  1  0  0  0
 12 32  1  0  0  0  0
 13 26  1  1  0  0  0
 17 27  1  1  0  0  0
  8 28  1  1  0  0  0
 16 29  1  6  0  0  0
  9 30  1  6  0  0  0
 12 33  1  6  0  0  0
M  END
>  <cdx:fragmentId>
5

$$$$
