302677.cdx
  Mrv1902 05222410222D          

 43 44  0  0  0  0            999 V2000
    4.9086  -11.1817    0.0000 C   0  0  1  0  0  0  0  0  0  0  0  0
    4.1852  -10.7850    0.0000 C   0  0  0  0  0  0  0  0  0  0  0  0
    3.4800  -11.2132    0.0000 C   0  0  0  0  0  0  0  0  0  0  0  0
    4.9269  -12.0065    0.0000 O   0  0  0  0  0  0  0  0  0  0  0  0
    5.6418  -12.4182    0.0000 C   0  0  0  0  0  0  0  0  0  0  0  0
    6.3558  -12.0050    0.0000 C   0  0  0  0  0  0  0  0  0  0  0  0
    7.0707  -12.4167    0.0000 C   0  0  0  0  0  0  0  0  0  0  0  0
    7.0716  -13.2417    0.0000 C   0  0  0  0  0  0  0  0  0  0  0  0
    5.6426  -13.2432    0.0000 O   0  0  0  0  0  0  0  0  0  0  0  0
    7.7847  -12.0035    0.0000 C   0  0  0  0  0  0  0  0  0  0  0  0
    4.1670   -9.9602    0.0000 C   0  0  0  0  0  0  0  0  0  0  0  0
    7.1622  -11.1425    0.0000 C   0  0  0  0  0  0  0  0  0  0  0  0
    9.2680  -10.7151    0.0000 C   0  0  1  0  0  0  0  0  0  0  0  0
    8.5471  -10.3138    0.0000 C   0  0  1  0  0  0  0  0  0  0  0  0
    8.5342   -9.4889    0.0000 C   0  0  0  0  0  0  0  0  0  0  0  0
    9.2422   -9.0653    0.0000 C   0  0  0  0  0  0  0  0  0  0  0  0
    9.9630   -9.4666    0.0000 C   0  0  1  0  0  0  0  0  0  0  0  0
    9.9759  -10.2915    0.0000 O   0  0  0  0  0  0  0  0  0  0  0  0
    7.7457   -9.2463    0.0000 C   0  0  0  0  0  0  0  0  0  0  0  0
    7.2713   -9.9212    0.0000 C   0  0  0  0  0  0  0  0  0  0  0  0
    7.7666  -10.5810    0.0000 C   0  0  2  0  0  0  0  0  0  0  0  0
   10.6709   -9.0430    0.0000 O   0  0  0  0  0  0  0  0  0  0  0  0
   11.3698   -9.4814    0.0000 C   0  0  0  0  0  0  0  0  0  0  0  0
    9.2809  -11.5400    0.0000 O   0  0  0  0  0  0  0  0  0  0  0  0
    9.9953  -11.9525    0.0000 C   0  0  0  0  0  0  0  0  0  0  0  0
    7.9507  -11.3852    0.0000 O   0  0  0  0  0  0  0  0  0  0  0  0
    9.2293   -8.2404    0.0000 C   0  0  0  0  0  0  0  0  0  0  0  0
    9.9372   -7.8168    0.0000 O   0  0  0  0  0  0  0  0  0  0  0  0
    9.9243   -6.9919    0.0000 C   0  0  0  0  0  0  0  0  0  0  0  0
    9.2255   -6.5534    0.0000 O   0  0  0  0  0  0  0  0  0  0  0  0
   10.6535   -6.6059    0.0000 C   0  0  0  0  0  0  0  0  0  0  0  0
    8.5471  -11.1388    0.0000 H   0  0  0  0  0  0  0  0  0  0  0  0
    6.3372  -11.1501    0.0000 O   0  0  0  0  0  0  0  0  0  0  0  0
    5.5956   -9.9287    0.0000 O   0  0  0  0  0  0  0  0  0  0  0  0
    5.6138  -10.7535    0.0000 C   0  0  0  0  0  0  0  0  0  0  0  0
   10.6838   -5.7815    0.0000 C   0  0  0  0  0  0  0  0  0  0  0  0
    9.9849   -5.3430    0.0000 C   0  0  0  0  0  0  0  0  0  0  0  0
   11.4129   -5.3955    0.0000 C   0  0  0  0  0  0  0  0  0  0  0  0
    9.9953  -12.7775    0.0000 C   0  0  0  0  0  0  0  0  0  0  0  0
   10.7098  -11.5400    0.0000 O   0  0  0  0  0  0  0  0  0  0  0  0
   10.7098  -13.1900    0.0000 C   0  0  0  0  0  0  0  0  0  0  0  0
   10.7098  -14.0150    0.0000 C   0  0  0  0  0  0  0  0  0  0  0  0
   11.4243  -12.7775    0.0000 C   0  0  0  0  0  0  0  0  0  0  0  0
 35 33  1  0  0  0  0
 35 34  2  0  0  0  0
 35  1  1  0  0  0  0
  1  2  1  0  0  0  0
  2  3  1  0  0  0  0
  5  6  1  0  0  0  0
  6  7  1  0  0  0  0
  7  8  1  0  0  0  0
  5  9  2  0  0  0  0
  4  5  1  0  0  0  0
  7 10  1  0  0  0  0
  1  4  1  6  0  0  0
  2 11  1  0  0  0  0
 13 14  1  0  0  0  0
 14 15  1  0  0  0  0
 15 16  2  0  0  0  0
 16 17  1  0  0  0  0
 17 18  1  0  0  0  0
 13 18  1  0  0  0  0
 19 20  2  0  0  0  0
 20 21  1  0  0  0  0
 21 14  1  0  0  0  0
 19 15  1  0  0  0  0
 22 23  1  0  0  0  0
 17 22  1  6  0  0  0
 24 25  1  0  0  0  0
 13 24  1  1  0  0  0
 21 26  1  6  0  0  0
 29 30  2  0  0  0  0
 29 31  1  0  0  0  0
 28 29  1  0  0  0  0
 27 28  1  0  0  0  0
 16 27  1  0  0  0  0
 21 12  1  1  0  0  0
 33 12  1  0  0  0  0
 14 32  1  1  0  0  0
 31 36  1  0  0  0  0
 36 37  1  0  0  0  0
 36 38  1  0  0  0  0
 25 39  1  0  0  0  0
 25 40  2  0  0  0  0
 39 41  1  0  0  0  0
 41 42  1  0  0  0  0
 41 43  1  0  0  0  0
M  END
>  <cdx:groupId>
139

>  <cdx:fragmentId>
35

$$$$
