302615.cdx
  Mrv1902 05222410192D          

 14 15  0  0  0  0            999 V2000
    8.3507   -8.1174    0.0000 C   0  0  0  0  0  0  0  0  0  0  0  0
    8.3507   -7.2924    0.0000 C   0  0  0  0  0  0  0  0  0  0  0  0
    7.6362   -6.8799    0.0000 C   0  0  0  0  0  0  0  0  0  0  0  0
    6.9217   -7.2924    0.0000 C   0  0  0  0  0  0  0  0  0  0  0  0
    6.2072   -6.8799    0.0000 C   0  0  0  0  0  0  0  0  0  0  0  0
    5.4928   -7.2924    0.0000 C   0  0  0  0  0  0  0  0  0  0  0  0
    5.4928   -8.1174    0.0000 C   0  0  0  0  0  0  0  0  0  0  0  0
    6.2072   -8.5299    0.0000 C   0  0  0  0  0  0  0  0  0  0  0  0
    6.9217   -8.1174    0.0000 C   0  0  0  0  0  0  0  0  0  0  0  0
    7.6362   -8.5299    0.0000 O   0  0  0  0  0  0  0  0  0  0  0  0
    9.0651   -8.5299    0.0000 O   0  0  0  0  0  0  0  0  0  0  0  0
    6.2072   -6.0549    0.0000 O   0  0  0  0  0  0  0  0  0  0  0  0
    7.6362   -6.0549    0.0000 O   0  0  0  0  0  0  0  0  0  0  0  0
    9.0651   -6.8799    0.0000 O   0  0  0  0  0  0  0  0  0  0  0  0
  1  2  1  0  0  0  0
  2  3  2  0  0  0  0
  3  4  1  0  0  0  0
  4  5  1  0  0  0  0
  5  6  2  0  0  0  0
  6  7  1  0  0  0  0
  7  8  2  0  0  0  0
  8  9  1  0  0  0  0
  4  9  2  0  0  0  0
  9 10  1  0  0  0  0
  1 10  1  0  0  0  0
  1 11  2  0  0  0  0
  5 12  1  0  0  0  0
  3 13  1  0  0  0  0
  2 14  1  0  0  0  0
M  END
>  <cdx:groupId>
45

>  <cdx:fragmentId>
5

$$$$
