302613.cdx
  Mrv1902 05222410182D          

 11 11  0  0  0  0            999 V2000
    8.7045   -8.5143    0.0000 C   0  0  0  0  0  0  0  0  0  0  0  0
    9.4189   -8.1018    0.0000 O   0  0  0  0  0  0  0  0  0  0  0  0
    7.9900   -8.1018    0.0000 C   0  0  0  0  0  0  0  0  0  0  0  0
    7.2755   -8.5143    0.0000 C   0  0  0  0  0  0  0  0  0  0  0  0
    6.5610   -8.1018    0.0000 C   0  0  0  0  0  0  0  0  0  0  0  0
    6.5610   -7.2768    0.0000 C   0  0  0  0  0  0  0  0  0  0  0  0
    7.2755   -6.8643    0.0000 C   0  0  0  0  0  0  0  0  0  0  0  0
    7.9900   -7.2768    0.0000 C   0  0  0  0  0  0  0  0  0  0  0  0
    5.8466   -6.0393    0.0000 C   0  0  0  0  0  0  0  0  0  0  0  0
    5.8466   -6.8643    0.0000 C   0  0  0  0  0  0  0  0  0  0  0  0
    5.1321   -7.2768    0.0000 C   0  0  0  0  0  0  0  0  0  0  0  0
  1  2  1  0  0  0  0
  3  4  1  0  0  0  0
  4  5  1  0  0  0  0
  5  6  1  0  0  0  0
  6  7  1  0  0  0  0
  7  8  1  0  0  0  0
  3  8  1  0  0  0  0
  9 10  2  0  0  0  0
 10 11  1  0  0  0  0
  6 10  1  0  0  0  0
  1  3  1  0  0  0  0
M  END
>  <cdx:groupId>
35

>  <cdx:fragmentId>
9

$$$$
