302715.cdx
  Mrv1902 05222410222D          

 39 44  0  0  0  0            999 V2000
    7.3424   -9.6070    0.0000 C   0  0  2  0  0  0  0  0  0  0  0  0
    7.3424  -10.4320    0.0000 C   0  0  2  0  0  0  0  0  0  0  0  0
    7.3424  -11.2570    0.0000 O   0  0  0  0  0  0  0  0  0  0  0  0
    6.6279  -10.8445    0.0000 C   0  0  2  0  0  0  0  0  0  0  0  0
    5.9134  -10.4320    0.0000 C   0  0  1  0  0  0  0  0  0  0  0  0
    5.1990  -10.8445    0.0000 C   0  0  0  0  0  0  0  0  0  0  0  0
    4.4845  -10.4320    0.0000 C   0  0  0  0  0  0  0  0  0  0  0  0
    4.4845   -9.6070    0.0000 C   0  0  0  0  0  0  0  0  0  0  0  0
    5.1990   -9.1945    0.0000 C   0  0  0  0  0  0  0  0  0  0  0  0
    5.9134   -9.6070    0.0000 C   0  0  2  0  0  0  0  0  0  0  0  0
    6.6279   -9.1945    0.0000 C   0  0  1  0  0  0  0  0  0  0  0  0
    6.6279   -8.3695    0.0000 C   0  0  0  0  0  0  0  0  0  0  0  0
    7.3424   -7.9570    0.0000 C   0  0  0  0  0  0  0  0  0  0  0  0
    8.0569   -8.3695    0.0000 C   0  0  2  0  0  0  0  0  0  0  0  0
    8.8415   -8.1146    0.0000 C   0  0  2  0  0  0  0  0  0  0  0  0
    9.3264   -8.7820    0.0000 C   0  0  0  0  0  0  0  0  0  0  0  0
    8.8415   -9.4494    0.0000 C   0  0  0  0  0  0  0  0  0  0  0  0
    8.0569   -9.1945    0.0000 C   0  0  1  0  0  0  0  0  0  0  0  0
    5.1990   -8.3695    0.0000 O   0  0  0  0  0  0  0  0  0  0  0  0
    8.1431   -7.5490    0.0000 C   0  0  0  0  0  0  0  0  0  0  0  0
    5.9134   -8.7820    0.0000 C   0  0  0  0  0  0  0  0  0  0  0  0
    5.9134  -11.2570    0.0000 O   0  0  0  0  0  0  0  0  0  0  0  0
    9.0964   -7.3299    0.0000 C   0  0  2  0  0  0  0  0  0  0  0  0
    9.9034   -7.1584    0.0000 C   0  0  0  0  0  0  0  0  0  0  0  0
    8.5444   -6.7168    0.0000 C   0  0  1  0  0  0  0  0  0  0  0  0
    7.7374   -6.8884    0.0000 C   0  0  0  0  0  0  0  0  0  0  0  0
    7.1854   -6.2753    0.0000 C   0  0  0  0  0  0  0  0  0  0  0  0
    7.4403   -5.4906    0.0000 C   0  0  0  0  0  0  0  0  0  0  0  0
    8.2473   -5.3191    0.0000 C   0  0  0  0  0  0  0  0  0  0  0  0
    8.7993   -5.9322    0.0000 O   0  0  0  0  0  0  0  0  0  0  0  0
    8.5022   -4.5345    0.0000 O   0  0  0  0  0  0  0  0  0  0  0  0
    6.8883   -4.8776    0.0000 C   0  0  0  0  0  0  0  0  0  0  0  0
    6.3784   -6.4468    0.0000 C   0  0  0  0  0  0  0  0  0  0  0  0
    7.3424   -8.7820    0.0000 H   0  0  0  0  0  0  0  0  0  0  0  0
    8.1674  -10.4320    0.0000 H   0  0  0  0  0  0  0  0  0  0  0  0
    6.2154  -11.5590    0.0000 H   0  0  0  0  0  0  0  0  0  0  0  0
    6.6279  -10.0195    0.0000 H   0  0  0  0  0  0  0  0  0  0  0  0
    8.0569  -10.0195    0.0000 H   0  0  0  0  0  0  0  0  0  0  0  0
    9.6563   -7.9855    0.0000 H   0  0  0  0  0  0  0  0  0  0  0  0
  1  2  1  0  0  0  0
  2  3  1  0  0  0  0
  3  4  1  0  0  0  0
  4  5  1  0  0  0  0
  5  6  1  0  0  0  0
  6  7  1  0  0  0  0
  7  8  2  0  0  0  0
  8  9  1  0  0  0  0
  9 10  1  0  0  0  0
 10 11  1  0  0  0  0
 11 12  1  0  0  0  0
 12 13  1  0  0  0  0
 13 14  1  0  0  0  0
 14 15  1  0  0  0  0
 15 16  1  0  0  0  0
 16 17  1  0  0  0  0
 17 18  1  0  0  0  0
  1 18  1  0  0  0  0
  1 11  1  0  0  0  0
  5 10  1  0  0  0  0
  2  4  1  0  0  0  0
 14 18  1  0  0  0  0
  9 19  2  0  0  0  0
 14 20  1  1  0  0  0
 10 21  1  1  0  0  0
  5 22  1  6  0  0  0
 23 24  1  1  0  0  0
 25 26  1  0  0  0  0
 26 27  1  0  0  0  0
 27 28  2  0  0  0  0
 28 29  1  0  0  0  0
 29 30  1  0  0  0  0
 25 30  1  1  0  0  0
 29 31  2  0  0  0  0
 28 32  1  0  0  0  0
 27 33  1  0  0  0  0
 23 25  1  0  0  0  0
 15 23  1  0  0  0  0
  1 34  1  1  0  0  0
  2 35  1  1  0  0  0
  4 36  1  1  0  0  0
 11 37  1  6  0  0  0
 18 38  1  6  0  0  0
 15 39  1  6  0  0  0
M  END
>  <cdx:fragmentId>
5

$$$$
