302798.cdx
  Mrv1902 05222410182D          

 10  9  0  0  0  0            999 V2000
    9.9002   -6.9270    0.0000 C   0  0  0  0  0  0  0  0  0  0  0  0
    9.1857   -7.3395    0.0000 C   0  0  0  0  0  0  0  0  0  0  0  0
    9.1857   -8.1645    0.0000 C   0  0  0  0  0  0  0  0  0  0  0  0
    8.4713   -8.5770    0.0000 C   0  0  0  0  0  0  0  0  0  0  0  0
    7.7568   -8.1645    0.0000 C   0  0  0  0  0  0  0  0  0  0  0  0
    7.0423   -8.5770    0.0000 C   0  0  0  0  0  0  0  0  0  0  0  0
    6.3279   -8.1645    0.0000 C   0  0  0  0  0  0  0  0  0  0  0  0
    5.6134   -8.5770    0.0000 C   0  0  0  0  0  0  0  0  0  0  0  0
    4.8989   -8.1645    0.0000 C   0  0  0  0  0  0  0  0  0  0  0  0
    9.9002   -6.1020    0.0000 O   0  0  0  0  0  0  0  0  0  0  0  0
  1  2  1  0  0  0  0
  2  3  1  0  0  0  0
  3  4  2  0  0  0  0
  4  5  1  0  0  0  0
  5  6  1  0  0  0  0
  6  7  1  0  0  0  0
  7  8  1  0  0  0  0
  8  9  1  0  0  0  0
  1 10  2  0  0  0  0
M  END
>  <cdx:groupId>
31

>  <cdx:fragmentId>
5

$$$$
