302751.cdx
  Mrv1902 05222410262D          

 32 38  0  0  0  0            999 V2000
    3.6333   -5.0655    0.0000 C   0  0  0  0  0  0  0  0  0  0  0  0
    3.6333   -5.8905    0.0000 C   0  0  0  0  0  0  0  0  0  0  0  0
    4.3477   -6.3030    0.0000 C   0  0  0  0  0  0  0  0  0  0  0  0
    5.0622   -5.8905    0.0000 C   0  0  0  0  0  0  0  0  0  0  0  0
    5.0622   -5.0655    0.0000 C   0  0  0  0  0  0  0  0  0  0  0  0
    4.3477   -4.6530    0.0000 C   0  0  0  0  0  0  0  0  0  0  0  0
    5.7767   -6.3030    0.0000 N   0  0  0  0  0  0  0  0  0  0  0  0
    6.4912   -5.8905    0.0000 C   0  0  2  0  0  0  0  0  0  0  0  0
    6.4912   -5.0655    0.0000 C   0  0  1  0  0  0  0  0  0  0  0  0
    5.7767   -7.1280    0.0000 C   0  0  0  0  0  0  0  0  0  0  0  0
    6.4912   -7.5405    0.0000 C   0  0  0  0  0  0  0  0  0  0  0  0
    7.2056   -7.1280    0.0000 C   0  0  1  0  0  0  0  0  0  0  0  0
    7.2056   -6.3030    0.0000 C   0  0  2  0  0  0  0  0  0  0  0  0
    7.9201   -5.8905    0.0000 C   0  0  1  0  0  0  0  0  0  0  0  0
    7.9201   -5.0655    0.0000 C   0  0  0  0  0  0  0  0  0  0  0  0
    7.2056   -4.6530    0.0000 C   0  0  2  0  0  0  0  0  0  0  0  0
    7.0341   -3.8460    0.0000 N   0  0  0  0  0  0  0  0  0  0  0  0
    6.2136   -3.7598    0.0000 C   0  0  0  0  0  0  0  0  0  0  0  0
    5.8781   -4.5135    0.0000 C   0  0  0  0  0  0  0  0  0  0  0  0
    5.0622   -7.5405    0.0000 O   0  0  0  0  0  0  0  0  0  0  0  0
    8.7170   -6.1040    0.0000 C   0  0  0  0  0  0  0  0  0  0  0  0
    8.9305   -6.9009    0.0000 C   0  0  0  0  0  0  0  0  0  0  0  0
    8.3472   -7.4843    0.0000 C   0  0  0  0  0  0  0  0  0  0  0  0
    7.9201   -7.5405    0.0000 O   0  0  0  0  0  0  0  0  0  0  0  0
    7.8310   -4.0596    0.0000 C   0  0  0  0  0  0  0  0  0  0  0  0
    2.9188   -6.3030    0.0000 O   0  0  0  0  0  0  0  0  0  0  0  0
    2.2043   -5.8905    0.0000 C   0  0  0  0  0  0  0  0  0  0  0  0
    7.2056   -7.9530    0.0000 H   0  0  0  0  0  0  0  0  0  0  0  0
    8.6346   -5.4780    0.0000 H   0  0  0  0  0  0  0  0  0  0  0  0
    7.9201   -4.2405    0.0000 H   0  0  0  0  0  0  0  0  0  0  0  0
    7.9201   -6.7155    0.0000 H   0  0  0  0  0  0  0  0  0  0  0  0
    6.4912   -6.7155    0.0000 H   0  0  0  0  0  0  0  0  0  0  0  0
  1  2  2  0  0  0  0
  2  3  1  0  0  0  0
  3  4  2  0  0  0  0
  4  5  1  0  0  0  0
  5  6  2  0  0  0  0
  6  1  1  0  0  0  0
  4  7  1  0  0  0  0
  7  8  1  0  0  0  0
  8  9  1  0  0  0  0
  9  5  1  6  0  0  0
  7 10  1  0  0  0  0
 10 11  1  0  0  0  0
 11 12  1  0  0  0  0
 12 13  1  0  0  0  0
 13  8  1  0  0  0  0
 13 14  1  0  0  0  0
 14 15  1  0  0  0  0
 15 16  1  0  0  0  0
 16  9  1  0  0  0  0
 16 17  1  0  0  0  0
 17 18  1  0  0  0  0
 18 19  1  0  0  0  0
 19  9  1  0  0  0  0
 10 20  2  0  0  0  0
 14 21  1  0  0  0  0
 21 22  2  0  0  0  0
 22 23  1  0  0  0  0
 12 24  1  0  0  0  0
 24 23  1  0  0  0  0
 17 25  1  0  0  0  0
 25 21  1  0  0  0  0
  2 26  1  0  0  0  0
 26 27  1  0  0  0  0
 12 28  1  6  0  0  0
 14 29  1  6  0  0  0
 16 30  1  6  0  0  0
 13 31  1  6  0  0  0
  8 32  1  1  0  0  0
M  END
>  <cdx:fragmentId>
5

$$$$
