30272.cdx
  Mrv1902 05222410272D          

  9  9  0  0  0  0            999 V2000
    5.7548   -9.1014    0.0000 C   0  0  0  0  0  0  0  0  0  0  0  0
    5.7548   -9.9264    0.0000 C   0  0  0  0  0  0  0  0  0  0  0  0
    6.5394  -10.1813    0.0000 C   0  0  0  0  0  0  0  0  0  0  0  0
    7.0243   -9.5139    0.0000 C   0  0  0  0  0  0  0  0  0  0  0  0
    6.5394   -8.8465    0.0000 C   0  0  0  0  0  0  0  0  0  0  0  0
    5.0873   -8.6165    0.0000 C   0  0  0  0  0  0  0  0  0  0  0  0
    6.7943   -8.0618    0.0000 C   0  0  0  0  0  0  0  0  0  0  0  0
    7.5912   -7.8483    0.0000 C   0  0  0  0  0  0  0  0  0  0  0  0
    7.8047   -7.0514    0.0000 C   0  0  0  0  0  0  0  0  0  0  0  0
  1  2  1  0  0  0  0
  2  3  1  0  0  0  0
  3  4  1  0  0  0  0
  4  5  1  0  0  0  0
  5  1  1  0  0  0  0
  1  6  1  0  0  0  0
  5  7  1  0  0  0  0
  7  8  1  0  0  0  0
  8  9  1  0  0  0  0
M  END
>  <cdx:fragmentId>
5

$$$$
