302748.cdx
  Mrv1902 05222410192D          

 15 15  0  0  0  0            999 V2000
    7.7788   -6.9270    0.0000 C   0  0  0  0  0  0  0  0  0  0  0  0
    7.7788   -7.7520    0.0000 C   0  0  0  0  0  0  0  0  0  0  0  0
    7.0643   -8.1645    0.0000 C   0  0  0  0  0  0  0  0  0  0  0  0
    6.3499   -7.7520    0.0000 C   0  0  0  0  0  0  0  0  0  0  0  0
    5.6354   -8.1645    0.0000 C   0  0  0  0  0  0  0  0  0  0  0  0
    4.9209   -7.7520    0.0000 C   0  0  0  0  0  0  0  0  0  0  0  0
    4.2064   -8.1645    0.0000 C   0  0  0  0  0  0  0  0  0  0  0  0
    7.0643   -6.5145    0.0000 O   0  0  0  0  0  0  0  0  0  0  0  0
    8.4933   -8.1645    0.0000 C   0  0  0  0  0  0  0  0  0  0  0  0
    9.2077   -7.7520    0.0000 C   0  0  0  0  0  0  0  0  0  0  0  0
    9.2077   -6.9270    0.0000 C   0  0  0  0  0  0  0  0  0  0  0  0
    9.9222   -6.5145    0.0000 C   0  0  0  0  0  0  0  0  0  0  0  0
   10.6367   -6.9270    0.0000 C   0  0  0  0  0  0  0  0  0  0  0  0
   10.6367   -7.7520    0.0000 C   0  0  0  0  0  0  0  0  0  0  0  0
    9.9222   -8.1645    0.0000 C   0  0  0  0  0  0  0  0  0  0  0  0
  1  2  1  0  0  0  0
  2  3  1  0  0  0  0
  3  4  1  0  0  0  0
  4  5  1  0  0  0  0
  5  6  1  0  0  0  0
  6  7  1  0  0  0  0
  1  8  1  0  0  0  0
  9 10  1  0  0  0  0
 10 11  1  0  0  0  0
 11 12  2  0  0  0  0
 12 13  1  0  0  0  0
 13 14  2  0  0  0  0
 14 15  1  0  0  0  0
 10 15  2  0  0  0  0
  2  9  2  0  0  0  0
M  END
>  <cdx:fragmentId>
5

$$$$
