302742.cdx
  Mrv1902 05222410282D          

 20 22  0  0  0  0            999 V2000
    7.7355   -8.4645    0.0000 N   0  0  0  0  0  0  0  0  0  0  0  0
    8.4500   -8.0520    0.0000 C   0  0  0  0  0  0  0  0  0  0  0  0
    8.4500   -7.2270    0.0000 C   0  0  0  0  0  0  0  0  0  0  0  0
    7.7355   -6.8145    0.0000 C   0  0  0  0  0  0  0  0  0  0  0  0
    7.0210   -7.2270    0.0000 C   0  0  0  0  0  0  0  0  0  0  0  0
    6.3065   -6.8145    0.0000 C   0  0  0  0  0  0  0  0  0  0  0  0
    5.5921   -7.2270    0.0000 C   0  0  0  0  0  0  0  0  0  0  0  0
    5.5921   -8.0520    0.0000 C   0  0  0  0  0  0  0  0  0  0  0  0
    6.3065   -8.4645    0.0000 C   0  0  0  0  0  0  0  0  0  0  0  0
    7.0210   -8.0520    0.0000 C   0  0  0  0  0  0  0  0  0  0  0  0
    9.1644   -6.8145    0.0000 C   0  0  0  0  0  0  0  0  0  0  0  0
    9.1644   -5.9895    0.0000 C   0  0  0  0  0  0  0  0  0  0  0  0
    8.4500   -5.5770    0.0000 C   0  0  0  0  0  0  0  0  0  0  0  0
    7.7355   -5.9895    0.0000 O   0  0  0  0  0  0  0  0  0  0  0  0
    9.1644   -8.4645    0.0000 O   0  0  0  0  0  0  0  0  0  0  0  0
    7.7355   -9.2895    0.0000 C   0  0  0  0  0  0  0  0  0  0  0  0
    8.0375   -4.8625    0.0000 C   0  0  0  0  0  0  0  0  0  0  0  0
    8.8625   -4.8625    0.0000 C   0  0  0  0  0  0  0  0  0  0  0  0
    6.3065   -9.2895    0.0000 O   0  0  0  0  0  0  0  0  0  0  0  0
    5.5921   -9.7020    0.0000 C   0  0  0  0  0  0  0  0  0  0  0  0
  1  2  1  0  0  0  0
  2  3  1  0  0  0  0
  3  4  2  0  0  0  0
  4  5  1  0  0  0  0
  5  6  1  0  0  0  0
  6  7  2  0  0  0  0
  7  8  1  0  0  0  0
  8  9  2  0  0  0  0
  9 10  1  0  0  0  0
  1 10  1  0  0  0  0
  5 10  2  0  0  0  0
 11 12  2  0  0  0  0
 12 13  1  0  0  0  0
 13 14  1  0  0  0  0
 11  3  1  0  0  0  0
 14  4  1  0  0  0  0
  2 15  2  0  0  0  0
  1 16  1  0  0  0  0
 13 17  1  0  0  0  0
 13 18  1  0  0  0  0
 19 20  1  0  0  0  0
  9 19  1  0  0  0  0
M  END
>  <cdx:groupId>
64

>  <cdx:fragmentId>
5

$$$$
