302758.cdx
  Mrv1902 05222410182D          

 30 32  0  0  0  0            999 V2000
    6.7105   -7.6482    0.0000 C   0  0  0  0  0  0  0  0  0  0  0  0
    7.4250   -8.0607    0.0000 C   0  0  0  0  0  0  0  0  0  0  0  0
    8.1395   -7.6482    0.0000 C   0  0  0  0  0  0  0  0  0  0  0  0
    8.8539   -8.0607    0.0000 C   0  0  0  0  0  0  0  0  0  0  0  0
    8.8539   -8.8857    0.0000 C   0  0  0  0  0  0  0  0  0  0  0  0
    8.1395   -9.2982    0.0000 C   0  0  0  0  0  0  0  0  0  0  0  0
    7.4250   -8.8857    0.0000 C   0  0  0  0  0  0  0  0  0  0  0  0
    6.7105   -9.2982    0.0000 O   0  0  0  0  0  0  0  0  0  0  0  0
    5.9961   -8.8857    0.0000 C   0  0  0  0  0  0  0  0  0  0  0  0
    5.2816   -9.2982    0.0000 C   0  0  0  0  0  0  0  0  0  0  0  0
    4.5671   -8.8857    0.0000 C   0  0  0  0  0  0  0  0  0  0  0  0
    4.5671   -8.0607    0.0000 C   0  0  0  0  0  0  0  0  0  0  0  0
    5.2816   -7.6482    0.0000 C   0  0  0  0  0  0  0  0  0  0  0  0
    5.9961   -8.0607    0.0000 C   0  0  0  0  0  0  0  0  0  0  0  0
    6.7105   -6.8232    0.0000 O   0  0  0  0  0  0  0  0  0  0  0  0
    5.2816   -6.8232    0.0000 C   0  0  0  0  0  0  0  0  0  0  0  0
    4.5671   -6.4107    0.0000 C   0  0  0  0  0  0  0  0  0  0  0  0
    4.5671   -5.5857    0.0000 C   0  0  0  0  0  0  0  0  0  0  0  0
    5.2816   -5.1732    0.0000 C   0  0  0  0  0  0  0  0  0  0  0  0
    3.8526   -5.1732    0.0000 C   0  0  0  0  0  0  0  0  0  0  0  0
    9.5684   -7.6482    0.0000 C   0  0  0  0  0  0  0  0  0  0  0  0
   10.2829   -8.0607    0.0000 C   0  0  0  0  0  0  0  0  0  0  0  0
   10.9974   -7.6482    0.0000 C   0  0  0  0  0  0  0  0  0  0  0  0
   10.9974   -6.8232    0.0000 C   0  0  0  0  0  0  0  0  0  0  0  0
   11.7118   -8.0607    0.0000 C   0  0  0  0  0  0  0  0  0  0  0  0
    3.8526   -7.6482    0.0000 O   0  0  0  0  0  0  0  0  0  0  0  0
    3.1382   -8.0607    0.0000 C   0  0  0  0  0  0  0  0  0  0  0  0
    3.8526   -9.2982    0.0000 O   0  0  0  0  0  0  0  0  0  0  0  0
    9.5684   -9.2982    0.0000 O   0  0  0  0  0  0  0  0  0  0  0  0
    8.1395   -6.8232    0.0000 O   0  0  0  0  0  0  0  0  0  0  0  0
  1  2  1  0  0  0  0
  2  3  1  0  0  0  0
  3  4  2  0  0  0  0
  4  5  1  0  0  0  0
  5  6  2  0  0  0  0
  6  7  1  0  0  0  0
  2  7  2  0  0  0  0
  7  8  1  0  0  0  0
  8  9  1  0  0  0  0
  9 10  1  0  0  0  0
 10 11  2  0  0  0  0
 11 12  1  0  0  0  0
 12 13  2  0  0  0  0
 13 14  1  0  0  0  0
  9 14  2  0  0  0  0
  1 14  1  0  0  0  0
  1 15  2  0  0  0  0
 16 17  1  0  0  0  0
 17 18  2  0  0  0  0
 18 19  1  0  0  0  0
 18 20  1  0  0  0  0
 13 16  1  0  0  0  0
 21 22  1  0  0  0  0
 22 23  2  0  0  0  0
 23 24  1  0  0  0  0
 23 25  1  0  0  0  0
  4 21  1  0  0  0  0
 26 27  1  0  0  0  0
 12 26  1  0  0  0  0
 11 28  1  0  0  0  0
  5 29  1  0  0  0  0
  3 30  1  0  0  0  0
M  END
>  <cdx:groupId>
94

>  <cdx:fragmentId>
5

$$$$
