302738.cdx
  Mrv1902 05222410202D          

 16 15  0  0  0  0            999 V2000
    2.0665   -7.1194    0.0000 C   0  0  0  0  0  0  0  0  0  0  0  0
    2.7809   -6.7069    0.0000 C   0  0  0  0  0  0  0  0  0  0  0  0
    3.4954   -7.1194    0.0000 C   0  0  0  0  0  0  0  0  0  0  0  0
    4.2099   -6.7069    0.0000 C   0  0  0  0  0  0  0  0  0  0  0  0
    4.9244   -7.1194    0.0000 C   0  0  0  0  0  0  0  0  0  0  0  0
    5.6388   -6.7069    0.0000 C   0  0  0  0  0  0  0  0  0  0  0  0
    6.3533   -7.1194    0.0000 C   0  0  0  0  0  0  0  0  0  0  0  0
    7.0678   -7.5319    0.0000 C   0  0  0  0  0  0  0  0  0  0  0  0
    7.7822   -7.9444    0.0000 C   0  0  0  0  0  0  0  0  0  0  0  0
    8.4967   -7.5319    0.0000 C   0  0  0  0  0  0  0  0  0  0  0  0
    9.2112   -7.9444    0.0000 C   0  0  0  0  0  0  0  0  0  0  0  0
    9.9256   -7.5319    0.0000 C   0  0  0  0  0  0  0  0  0  0  0  0
   10.6401   -7.9444    0.0000 C   0  0  0  0  0  0  0  0  0  0  0  0
   11.3546   -7.5319    0.0000 C   0  0  0  0  0  0  0  0  0  0  0  0
   12.0691   -7.9444    0.0000 C   0  0  0  0  0  0  0  0  0  0  0  0
   12.7835   -7.5319    0.0000 C   0  0  0  0  0  0  0  0  0  0  0  0
  1  2  1  0  0  0  0
  2  3  1  0  0  0  0
  3  4  2  0  0  0  0
  4  5  1  0  0  0  0
  5  6  1  0  0  0  0
  6  7  1  0  0  0  0
  7  8  3  0  0  0  0
  8  9  1  0  0  0  0
  9 10  1  0  0  0  0
 10 11  1  0  0  0  0
 11 12  1  0  0  0  0
 12 13  1  0  0  0  0
 13 14  1  0  0  0  0
 14 15  1  0  0  0  0
 15 16  1  0  0  0  0
M  END
>  <cdx:groupId>
49

>  <cdx:fragmentId>
5

$$$$
