302756.cdx
  Mrv1902 05222410282D          

 14 13  0  0  0  0            999 V2000
    6.4012   -6.0549    0.0000 O   0  0  0  0  0  0  0  0  0  0  0  0
    7.1156   -6.4674    0.0000 C   0  0  2  0  0  0  0  0  0  0  0  0
    7.1156   -7.2924    0.0000 C   0  0  1  0  0  0  0  0  0  0  0  0
    6.4012   -7.7049    0.0000 C   0  0  1  0  0  0  0  0  0  0  0  0
    5.6867   -7.2924    0.0000 C   0  0  2  0  0  0  0  0  0  0  0  0
    5.6867   -6.4674    0.0000 C   0  0  2  0  0  0  0  0  0  0  0  0
    7.8301   -6.0549    0.0000 O   0  0  0  0  0  0  0  0  0  0  0  0
    7.8301   -7.7049    0.0000 O   0  0  0  0  0  0  0  0  0  0  0  0
    6.4012   -8.5299    0.0000 O   0  0  0  0  0  0  0  0  0  0  0  0
    4.9722   -7.7049    0.0000 O   0  0  0  0  0  0  0  0  0  0  0  0
    4.9722   -6.0549    0.0000 C   0  0  0  0  0  0  0  0  0  0  0  0
    8.6551   -6.9212    0.0000 H   0  0  0  0  0  0  0  0  0  0  0  0
    9.3696   -6.5087    0.0000 O   0  0  0  0  0  0  0  0  0  0  0  0
   10.0840   -6.9212    0.0000 H   0  0  0  0  0  0  0  0  0  0  0  0
  1  2  1  0  0  0  0
  2  3  1  0  0  0  0
  3  4  1  0  0  0  0
  4  5  1  0  0  0  0
  5  6  1  0  0  0  0
  1  6  1  0  0  0  0
  2  7  1  1  0  0  0
  3  8  1  6  0  0  0
  4  9  1  6  0  0  0
  5 10  1  1  0  0  0
  6 11  1  6  0  0  0
 12 13  1  0  0  0  0
 13 14  1  0  0  0  0
M  END
>  <cdx:groupId>
43

>  <cdx:fragmentId>
27

$$$$
