302757.cdx
  Mrv1902 05222410282D          

 18 20  0  0  0  0            999 V2000
    9.1628   -6.8799    0.0000 C   0  0  0  0  0  0  0  0  0  0  0  0
    9.1628   -7.7049    0.0000 C   0  0  0  0  0  0  0  0  0  0  0  0
    8.4483   -8.1174    0.0000 C   0  0  0  0  0  0  0  0  0  0  0  0
    7.7338   -7.7049    0.0000 C   0  0  0  0  0  0  0  0  0  0  0  0
    7.0194   -8.1174    0.0000 C   0  0  0  0  0  0  0  0  0  0  0  0
    6.3049   -7.7049    0.0000 C   0  0  0  0  0  0  0  0  0  0  0  0
    6.3049   -6.8799    0.0000 C   0  0  0  0  0  0  0  0  0  0  0  0
    7.0194   -6.4674    0.0000 C   0  0  0  0  0  0  0  0  0  0  0  0
    7.7338   -6.8799    0.0000 C   0  0  0  0  0  0  0  0  0  0  0  0
    8.4483   -6.4674    0.0000 O   0  0  0  0  0  0  0  0  0  0  0  0
    5.5904   -6.4674    0.0000 C   0  0  0  0  0  0  0  0  0  0  0  0
    4.8760   -6.8799    0.0000 C   0  0  0  0  0  0  0  0  0  0  0  0
    4.8760   -7.7049    0.0000 C   0  0  0  0  0  0  0  0  0  0  0  0
    5.5904   -8.1174    0.0000 C   0  0  0  0  0  0  0  0  0  0  0  0
    7.0194   -8.9424    0.0000 O   0  0  0  0  0  0  0  0  0  0  0  0
    7.0194   -5.6424    0.0000 O   0  0  0  0  0  0  0  0  0  0  0  0
    9.5753   -6.1655    0.0000 C   0  0  0  0  0  0  0  0  0  0  0  0
    9.9878   -6.8799    0.0000 C   0  0  0  0  0  0  0  0  0  0  0  0
  1  2  1  0  0  0  0
  2  3  1  0  0  0  0
  3  4  1  0  0  0  0
  4  5  1  0  0  0  0
  5  6  1  0  0  0  0
  6  7  1  0  0  0  0
  7  8  1  0  0  0  0
  8  9  1  0  0  0  0
  4  9  2  0  0  0  0
  9 10  1  0  0  0  0
  1 10  1  0  0  0  0
 11 12  1  0  0  0  0
 12 13  2  0  0  0  0
 13 14  1  0  0  0  0
 14  6  2  0  0  0  0
 11  7  2  0  0  0  0
  5 15  2  0  0  0  0
  8 16  2  0  0  0  0
  1 17  1  0  0  0  0
  1 18  1  0  0  0  0
M  END
>  <cdx:groupId>
58

>  <cdx:fragmentId>
5

$$$$
