302720.cdx
  Mrv1902 05222410252D          

 27 29  0  0  0  0            999 V2000
    5.9433   -5.4120    0.0000 C   0  0  0  0  0  0  0  0  0  0  0  0
    5.9433   -6.2370    0.0000 C   0  0  0  0  0  0  0  0  0  0  0  0
    6.6577   -6.6495    0.0000 C   0  0  0  0  0  0  0  0  0  0  0  0
    7.3722   -6.2370    0.0000 C   0  0  0  0  0  0  0  0  0  0  0  0
    7.3722   -5.4120    0.0000 C   0  0  0  0  0  0  0  0  0  0  0  0
    6.6577   -4.9995    0.0000 C   0  0  0  0  0  0  0  0  0  0  0  0
    8.0867   -6.6495    0.0000 S   0  0  0  0  0  0  0  0  0  0  0  0
    8.8012   -6.2370    0.0000 C   0  0  0  0  0  0  0  0  0  0  0  0
    8.8012   -5.4120    0.0000 C   0  0  0  0  0  0  0  0  0  0  0  0
    8.0867   -4.9995    0.0000 N   0  0  0  0  0  0  0  0  0  0  0  0
    6.6577   -4.1745    0.0000 O   0  0  0  0  0  0  0  0  0  0  0  0
    9.5156   -4.9995    0.0000 O   0  0  0  0  0  0  0  0  0  0  0  0
    5.2288   -6.6495    0.0000 C   0  0  0  0  0  0  0  0  0  0  0  0
    6.2452   -7.3640    0.0000 C   0  0  0  0  0  0  0  0  0  0  0  0
    7.0702   -7.3640    0.0000 C   0  0  0  0  0  0  0  0  0  0  0  0
    4.5143   -6.2370    0.0000 O   0  0  0  0  0  0  0  0  0  0  0  0
    3.7999   -6.6495    0.0000 C   0  0  1  0  0  0  0  0  0  0  0  0
    3.0854   -6.2370    0.0000 O   0  0  0  0  0  0  0  0  0  0  0  0
    2.3709   -6.6495    0.0000 C   0  0  2  0  0  0  0  0  0  0  0  0
    2.3709   -7.4745    0.0000 C   0  0  1  0  0  0  0  0  0  0  0  0
    3.0854   -7.8870    0.0000 C   0  0  2  0  0  0  0  0  0  0  0  0
    3.7999   -7.4745    0.0000 C   0  0  2  0  0  0  0  0  0  0  0  0
    1.6565   -6.2370    0.0000 C   0  0  0  0  0  0  0  0  0  0  0  0
    3.0854   -8.7120    0.0000 O   0  0  0  0  0  0  0  0  0  0  0  0
    1.6565   -7.8870    0.0000 O   0  0  0  0  0  0  0  0  0  0  0  0
    4.5143   -7.8870    0.0000 O   0  0  0  0  0  0  0  0  0  0  0  0
    1.6565   -5.4120    0.0000 O   0  0  0  0  0  0  0  0  0  0  0  0
  1  2  2  0  0  0  0
  2  3  1  0  0  0  0
  3  4  1  0  0  0  0
  4  5  2  0  0  0  0
  5  6  1  0  0  0  0
  6  1  1  0  0  0  0
  4  7  1  0  0  0  0
  7  8  1  0  0  0  0
  8  9  1  0  0  0  0
  9 10  1  0  0  0  0
 10  5  1  0  0  0  0
  6 11  2  0  0  0  0
  9 12  2  0  0  0  0
  2 13  1  0  0  0  0
  3 14  1  0  0  0  0
  3 15  1  0  0  0  0
 13 16  1  0  0  0  0
 17 16  1  6  0  0  0
 17 18  1  0  0  0  0
 18 19  1  0  0  0  0
 19 20  1  0  0  0  0
 20 21  1  0  0  0  0
 21 22  1  0  0  0  0
 22 17  1  0  0  0  0
 19 23  1  6  0  0  0
 21 24  1  6  0  0  0
 20 25  1  1  0  0  0
 22 26  1  1  0  0  0
 23 27  1  0  0  0  0
M  END
>  <cdx:fragmentId>
5

$$$$
