302797.cdx
  Mrv1902 05222410272D          

 15 15  0  0  0  0            999 V2000
    6.7071   -8.2670    0.0000 C   0  0  0  0  0  0  0  0  0  0  0  0
    6.7071   -7.4420    0.0000 C   0  0  0  0  0  0  0  0  0  0  0  0
    7.4216   -7.0295    0.0000 C   0  0  0  0  0  0  0  0  0  0  0  0
    8.1360   -7.4420    0.0000 C   0  0  0  0  0  0  0  0  0  0  0  0
    8.1360   -8.2670    0.0000 C   0  0  0  0  0  0  0  0  0  0  0  0
    7.4216   -8.6795    0.0000 C   0  0  0  0  0  0  0  0  0  0  0  0
    8.8505   -8.6795    0.0000 C   0  0  0  0  0  0  0  0  0  0  0  0
    9.5650   -8.2670    0.0000 C   0  0  0  0  0  0  0  0  0  0  0  0
    9.5650   -7.4420    0.0000 C   0  0  0  0  0  0  0  0  0  0  0  0
    7.4216   -6.2045    0.0000 O   0  0  0  0  0  0  0  0  0  0  0  0
    8.1360   -5.7920    0.0000 C   0  0  0  0  0  0  0  0  0  0  0  0
    5.9926   -7.0295    0.0000 O   0  0  0  0  0  0  0  0  0  0  0  0
    5.2781   -7.4420    0.0000 C   0  0  0  0  0  0  0  0  0  0  0  0
    5.9926   -8.6795    0.0000 O   0  0  0  0  0  0  0  0  0  0  0  0
    5.2781   -8.2670    0.0000 C   0  0  0  0  0  0  0  0  0  0  0  0
  1  2  1  0  0  0  0
  2  3  2  0  0  0  0
  3  4  1  0  0  0  0
  4  5  2  0  0  0  0
  5  6  1  0  0  0  0
  1  6  2  0  0  0  0
  7  8  2  0  0  0  0
  8  9  1  0  0  0  0
  5  7  1  0  0  0  0
 10 11  1  0  0  0  0
  3 10  1  0  0  0  0
 12 13  1  0  0  0  0
  2 12  1  0  0  0  0
 14 15  1  0  0  0  0
  1 14  1  0  0  0  0
M  END
>  <cdx:groupId>
51

>  <cdx:fragmentId>
9

$$$$
