302734.cdx
  Mrv1902 05222410252D          

 25 26  0  0  0  0            999 V2000
    5.8030   -4.6200    0.0000 C   0  0  0  0  0  0  0  0  0  0  0  0
    5.8030   -5.4450    0.0000 C   0  0  0  0  0  0  0  0  0  0  0  0
    7.2320   -5.4450    0.0000 C   0  0  0  0  0  0  0  0  0  0  0  0
    7.2320   -4.6200    0.0000 C   0  0  0  0  0  0  0  0  0  0  0  0
    6.5175   -4.2075    0.0000 C   0  0  1  0  0  0  0  0  0  0  0  0
    4.9780   -5.4450    0.0000 C   0  0  0  0  0  0  0  0  0  0  0  0
    8.0570   -5.4450    0.0000 C   0  0  2  0  0  0  0  0  0  0  0  0
    4.5655   -6.1595    0.0000 C   0  0  0  0  0  0  0  0  0  0  0  0
    4.9780   -6.8739    0.0000 C   0  0  0  0  0  0  0  0  0  0  0  0
    5.8030   -6.8739    0.0000 C   0  0  0  0  0  0  0  0  0  0  0  0
    7.2320   -6.8739    0.0000 C   0  0  0  0  0  0  0  0  0  0  0  0
    8.0570   -6.8739    0.0000 C   0  0  0  0  0  0  0  0  0  0  0  0
    8.4695   -6.1595    0.0000 C   0  0  1  0  0  0  0  0  0  0  0  0
    6.4900   -7.2600    0.0000 C   0  0  0  0  0  0  0  0  0  0  0  0
    6.4767   -8.0849    0.0000 C   0  0  0  0  0  0  0  0  0  0  0  0
    4.5655   -4.7305    0.0000 C   0  0  0  0  0  0  0  0  0  0  0  0
    7.9464   -4.2075    0.0000 C   0  0  0  0  0  0  0  0  0  0  0  0
    7.9464   -3.3825    0.0000 O   0  0  0  0  0  0  0  0  0  0  0  0
    6.5175   -3.3825    0.0000 O   0  0  0  0  0  0  0  0  0  0  0  0
    8.8820   -5.4450    0.0000 C   0  0  2  0  0  0  0  0  0  0  0  0
    9.2945   -4.7305    0.0000 C   0  0  0  0  0  0  0  0  0  0  0  0
    9.7070   -5.4450    0.0000 C   0  0  0  0  0  0  0  0  0  0  0  0
    8.2705   -4.6481    0.0000 H   0  0  0  0  0  0  0  0  0  0  0  0
    9.1839   -6.5720    0.0000 H   0  0  0  0  0  0  0  0  0  0  0  0
    8.6609   -4.6200    0.0000 O   0  0  0  0  0  0  0  0  0  0  0  0
  1  2  1  0  0  0  0
  3  4  2  0  0  0  0
  4  5  1  0  0  0  0
  5  1  1  0  0  0  0
  2  6  2  0  0  0  0
  3  7  1  0  0  0  0
  6  8  1  0  0  0  0
  8  9  1  0  0  0  0
  9 10  1  0  0  0  0
 11 12  1  0  0  0  0
 12 13  1  0  0  0  0
 13  7  1  0  0  0  0
 10 14  2  0  0  0  0
 14 11  1  0  0  0  0
 14 15  1  0  0  0  0
  6 16  1  0  0  0  0
  4 17  1  0  0  0  0
 17 18  2  0  0  0  0
  5 19  1  6  0  0  0
 13 20  1  0  0  0  0
 20  7  1  0  0  0  0
 20 21  1  1  0  0  0
 20 22  1  6  0  0  0
  7 23  1  6  0  0  0
 13 24  1  1  0  0  0
 17 25  1  0  0  0  0
M  END
>  <cdx:fragmentId>
104

$$$$
