302711.cdx
  Mrv1902 05222410212D          

 76 79  0  0  0  0            999 V2000
    9.9683   -7.4473    0.0000 C   0  0  0  0  0  0  0  0  0  0  0  0
    9.1433   -7.4473    0.0000 C   0  0  0  0  0  0  0  0  0  0  0  0
    8.7308   -6.7328    0.0000 C   0  0  0  0  0  0  0  0  0  0  0  0
    7.9058   -6.7328    0.0000 C   0  0  0  0  0  0  0  0  0  0  0  0
    7.4933   -6.0183    0.0000 C   0  0  0  0  0  0  0  0  0  0  0  0
    6.6683   -6.0183    0.0000 C   0  0  0  0  0  0  0  0  0  0  0  0
    6.2558   -5.3039    0.0000 C   0  0  0  0  0  0  0  0  0  0  0  0
    5.4308   -5.3039    0.0000 C   0  0  0  0  0  0  0  0  0  0  0  0
    5.0183   -4.5894    0.0000 C   0  0  0  0  0  0  0  0  0  0  0  0
    4.1933   -4.5894    0.0000 C   0  0  0  0  0  0  0  0  0  0  0  0
    3.7808   -3.8749    0.0000 C   0  0  0  0  0  0  0  0  0  0  0  0
    2.9558   -3.8749    0.0000 C   0  0  0  0  0  0  0  0  0  0  0  0
    2.5433   -3.1604    0.0000 C   0  0  0  0  0  0  0  0  0  0  0  0
    1.7183   -3.1604    0.0000 C   0  0  0  0  0  0  0  0  0  0  0  0
    1.3058   -2.4460    0.0000 C   0  0  0  0  0  0  0  0  0  0  0  0
    0.4808   -2.4460    0.0000 C   0  0  0  0  0  0  0  0  0  0  0  0
   10.3808   -6.7328    0.0000 O   0  0  0  0  0  0  0  0  0  0  0  0
   10.3808   -8.1617    0.0000 O   0  0  0  0  0  0  0  0  0  0  0  0
   12.4433   -8.8762    0.0000 C   0  0  2  0  0  0  0  0  0  0  0  0
   11.6183   -8.8762    0.0000 C   0  0  0  0  0  0  0  0  0  0  0  0
   11.2058   -8.1617    0.0000 C   0  0  2  0  0  0  0  0  0  0  0  0
   11.6183   -7.4473    0.0000 C   0  0  0  0  0  0  0  0  0  0  0  0
   12.4433   -7.4473    0.0000 C   0  0  0  0  0  0  0  0  0  0  0  0
   12.8558   -8.1617    0.0000 C   0  0  2  0  0  0  0  0  0  0  0  0
   13.2683   -8.8762    0.0000 O   0  0  0  0  0  0  0  0  0  0  0  0
   13.5702   -7.7492    0.0000 C   0  0  0  0  0  0  0  0  0  0  0  0
   14.2847   -8.1617    0.0000 C   0  0  0  0  0  0  0  0  0  0  0  0
   14.9992   -7.7492    0.0000 C   0  0  0  0  0  0  0  0  0  0  0  0
   15.7137   -8.1617    0.0000 C   0  0  0  0  0  0  0  0  0  0  0  0
   16.4281   -7.7492    0.0000 C   0  0  0  0  0  0  0  0  0  0  0  0
   17.1426   -8.1617    0.0000 C   0  0  0  0  0  0  0  0  0  0  0  0
   17.8571   -7.7492    0.0000 C   0  0  0  0  0  0  0  0  0  0  0  0
   18.5715   -8.1617    0.0000 C   0  0  0  0  0  0  0  0  0  0  0  0
   19.2860   -7.7492    0.0000 C   0  0  0  0  0  0  0  0  0  0  0  0
   20.0005   -8.1617    0.0000 C   0  0  0  0  0  0  0  0  0  0  0  0
   20.7150   -7.7492    0.0000 C   0  0  0  0  0  0  0  0  0  0  0  0
   21.4294   -8.1617    0.0000 C   0  0  0  0  0  0  0  0  0  0  0  0
   22.1439   -7.7492    0.0000 C   0  0  0  0  0  0  0  0  0  0  0  0
   22.8584   -8.1617    0.0000 C   0  0  0  0  0  0  0  0  0  0  0  0
   23.5728   -7.7492    0.0000 C   0  0  0  0  0  0  0  0  0  0  0  0
   24.2873   -8.1617    0.0000 C   0  0  0  0  0  0  0  0  0  0  0  0
   25.0018   -7.7492    0.0000 C   0  0  0  0  0  0  0  0  0  0  0  0
   25.7163   -8.1617    0.0000 C   0  0  0  0  0  0  0  0  0  0  0  0
   26.4307   -7.7492    0.0000 C   0  0  2  0  0  0  0  0  0  0  0  0
   26.8432   -8.4637    0.0000 C   0  0  0  0  0  0  0  0  0  0  0  0
   27.6682   -8.4637    0.0000 C   0  0  0  0  0  0  0  0  0  0  0  0
   28.0807   -7.7492    0.0000 C   0  0  1  0  0  0  0  0  0  0  0  0
   27.6682   -7.0348    0.0000 C   0  0  0  0  0  0  0  0  0  0  0  0
   26.8432   -7.0348    0.0000 C   0  0  1  0  0  0  0  0  0  0  0  0
   26.0182   -7.0348    0.0000 O   0  0  0  0  0  0  0  0  0  0  0  0
   28.9057   -7.7492    0.0000 O   0  0  0  0  0  0  0  0  0  0  0  0
   29.3182   -8.4637    0.0000 C   0  0  0  0  0  0  0  0  0  0  0  0
   30.1432   -8.4637    0.0000 C   0  0  0  0  0  0  0  0  0  0  0  0
   30.5557   -9.1782    0.0000 C   0  0  0  0  0  0  0  0  0  0  0  0
   31.3807   -9.1782    0.0000 C   0  0  0  0  0  0  0  0  0  0  0  0
   31.7932   -9.8926    0.0000 C   0  0  0  0  0  0  0  0  0  0  0  0
   32.6182   -9.8926    0.0000 C   0  0  0  0  0  0  0  0  0  0  0  0
   33.0307  -10.6071    0.0000 C   0  0  0  0  0  0  0  0  0  0  0  0
   33.8557  -10.6071    0.0000 C   0  0  0  0  0  0  0  0  0  0  0  0
   34.2682  -11.3216    0.0000 C   0  0  0  0  0  0  0  0  0  0  0  0
   35.0932  -11.3216    0.0000 C   0  0  0  0  0  0  0  0  0  0  0  0
   35.5057  -12.0361    0.0000 C   0  0  0  0  0  0  0  0  0  0  0  0
   36.3307  -12.0361    0.0000 C   0  0  0  0  0  0  0  0  0  0  0  0
   36.7432  -12.7505    0.0000 C   0  0  0  0  0  0  0  0  0  0  0  0
   37.5682  -12.7505    0.0000 C   0  0  0  0  0  0  0  0  0  0  0  0
   28.9057   -9.1782    0.0000 O   0  0  0  0  0  0  0  0  0  0  0  0
   26.8432   -6.2098    0.0000 C   0  0  0  0  0  0  0  0  0  0  0  0
   26.8432   -9.2887    0.0000 C   0  0  0  0  0  0  0  0  0  0  0  0
   26.1288   -8.8762    0.0000 C   0  0  0  0  0  0  0  0  0  0  0  0
   24.2873   -8.9867    0.0000 C   0  0  0  0  0  0  0  0  0  0  0  0
   21.4294   -8.9867    0.0000 C   0  0  0  0  0  0  0  0  0  0  0  0
   17.8571   -6.9242    0.0000 C   0  0  0  0  0  0  0  0  0  0  0  0
   14.9992   -6.9242    0.0000 C   0  0  0  0  0  0  0  0  0  0  0  0
   12.4433   -6.6223    0.0000 C   0  0  0  0  0  0  0  0  0  0  0  0
   13.1577   -7.0348    0.0000 C   0  0  0  0  0  0  0  0  0  0  0  0
   12.4433   -9.7012    0.0000 C   0  0  0  0  0  0  0  0  0  0  0  0
  1  2  1  0  0  0  0
  2  3  1  0  0  0  0
  3  4  1  0  0  0  0
  4  5  1  0  0  0  0
  5  6  1  0  0  0  0
  6  7  1  0  0  0  0
  7  8  1  0  0  0  0
  8  9  1  0  0  0  0
  9 10  1  0  0  0  0
 10 11  1  0  0  0  0
 11 12  1  0  0  0  0
 12 13  1  0  0  0  0
 13 14  1  0  0  0  0
 14 15  1  0  0  0  0
 15 16  1  0  0  0  0
  1 17  2  0  0  0  0
  1 18  1  0  0  0  0
 19 20  1  0  0  0  0
 20 21  1  0  0  0  0
 21 22  1  0  0  0  0
 22 23  1  0  0  0  0
 23 24  1  0  0  0  0
 24 25  1  0  0  0  0
 19 25  1  0  0  0  0
 19 24  1  0  0  0  0
 26 27  2  0  0  0  0
 27 28  1  0  0  0  0
 28 29  2  0  0  0  0
 29 30  1  0  0  0  0
 30 31  2  0  0  0  0
 31 32  1  0  0  0  0
 32 33  2  0  0  0  0
 33 34  1  0  0  0  0
 34 35  2  0  0  0  0
 35 36  1  0  0  0  0
 36 37  2  0  0  0  0
 37 38  1  0  0  0  0
 38 39  2  0  0  0  0
 39 40  1  0  0  0  0
 40 41  2  0  0  0  0
 41 42  1  0  0  0  0
 42 43  2  0  0  0  0
 44 45  1  0  0  0  0
 45 46  1  0  0  0  0
 46 47  1  0  0  0  0
 47 48  1  0  0  0  0
 48 49  1  0  0  0  0
 49 50  1  0  0  0  0
 44 50  1  0  0  0  0
 44 49  1  0  0  0  0
 52 53  1  0  0  0  0
 53 54  1  0  0  0  0
 54 55  1  0  0  0  0
 55 56  1  0  0  0  0
 56 57  1  0  0  0  0
 57 58  1  0  0  0  0
 58 59  1  0  0  0  0
 59 60  1  0  0  0  0
 60 61  1  0  0  0  0
 61 62  1  0  0  0  0
 62 63  1  0  0  0  0
 63 64  1  0  0  0  0
 64 65  1  0  0  0  0
 52 66  2  0  0  0  0
 51 52  1  0  0  0  0
 47 51  1  1  0  0  0
 49 67  1  1  0  0  0
 45 68  1  0  0  0  0
 45 69  1  0  0  0  0
 44 43  1  1  0  0  0
 41 70  1  0  0  0  0
 37 71  1  0  0  0  0
 32 72  1  0  0  0  0
 28 73  1  0  0  0  0
 24 26  1  1  0  0  0
 23 74  1  0  0  0  0
 23 75  1  0  0  0  0
 19 76  1  1  0  0  0
 21 18  1  1  0  0  0
M  END
>  <cdx:groupId>
233

>  <cdx:fragmentId>
107

$$$$
