302726.cdx
  Mrv1902 05222410242D          

 32 35  0  0  0  0            999 V2000
    6.1709   -7.2847    0.0000 O   0  0  0  0  0  0  0  0  0  0  0  0
    6.6558   -6.6173    0.0000 C   0  0  0  0  0  0  0  0  0  0  0  0
    7.4404   -6.8722    0.0000 C   0  0  0  0  0  0  0  0  0  0  0  0
    7.4404   -7.6972    0.0000 C   0  0  0  0  0  0  0  0  0  0  0  0
    6.6558   -7.9522    0.0000 C   0  0  1  0  0  0  0  0  0  0  0  0
    8.7100   -7.2847    0.0000 O   0  0  0  0  0  0  0  0  0  0  0  0
    8.2250   -6.6173    0.0000 C   0  0  2  0  0  0  0  0  0  0  0  0
    8.2250   -7.9522    0.0000 C   0  0  0  0  0  0  0  0  0  0  0  0
    8.4800   -5.8327    0.0000 C   0  0  0  0  0  0  0  0  0  0  0  0
    9.2869   -5.6612    0.0000 C   0  0  0  0  0  0  0  0  0  0  0  0
    9.5419   -4.8765    0.0000 C   0  0  0  0  0  0  0  0  0  0  0  0
    8.9899   -4.2634    0.0000 C   0  0  0  0  0  0  0  0  0  0  0  0
    8.1829   -4.4350    0.0000 C   0  0  0  0  0  0  0  0  0  0  0  0
    7.9279   -5.2196    0.0000 C   0  0  0  0  0  0  0  0  0  0  0  0
    7.6309   -3.8219    0.0000 O   0  0  0  0  0  0  0  0  0  0  0  0
    6.8239   -3.9934    0.0000 C   0  0  0  0  0  0  0  0  0  0  0  0
    9.2448   -3.4788    0.0000 O   0  0  0  0  0  0  0  0  0  0  0  0
   10.0518   -3.3073    0.0000 C   0  0  0  0  0  0  0  0  0  0  0  0
   10.3489   -4.7050    0.0000 O   0  0  0  0  0  0  0  0  0  0  0  0
   10.9009   -5.3181    0.0000 C   0  0  0  0  0  0  0  0  0  0  0  0
    6.4009   -8.7368    0.0000 C   0  0  0  0  0  0  0  0  0  0  0  0
    5.5939   -8.9083    0.0000 C   0  0  0  0  0  0  0  0  0  0  0  0
    5.3389   -9.6930    0.0000 C   0  0  0  0  0  0  0  0  0  0  0  0
    5.8910  -10.3061    0.0000 C   0  0  0  0  0  0  0  0  0  0  0  0
    6.6980  -10.1345    0.0000 C   0  0  0  0  0  0  0  0  0  0  0  0
    6.9529   -9.3499    0.0000 C   0  0  0  0  0  0  0  0  0  0  0  0
    7.2500  -10.7476    0.0000 O   0  0  0  0  0  0  0  0  0  0  0  0
    8.0570  -10.5761    0.0000 C   0  0  0  0  0  0  0  0  0  0  0  0
    5.6360  -11.0907    0.0000 O   0  0  0  0  0  0  0  0  0  0  0  0
    4.8291  -11.2622    0.0000 C   0  0  0  0  0  0  0  0  0  0  0  0
    4.5320   -9.8645    0.0000 O   0  0  0  0  0  0  0  0  0  0  0  0
    3.9486   -9.2811    0.0000 C   0  0  0  0  0  0  0  0  0  0  0  0
  1  2  1  0  0  0  0
  2  3  1  0  0  0  0
  3  4  1  0  0  0  0
  4  5  1  0  0  0  0
  1  5  1  0  0  0  0
  6  7  1  0  0  0  0
  6  8  1  0  0  0  0
  7  3  1  0  0  0  0
  8  4  1  0  0  0  0
  9 10  1  0  0  0  0
 10 11  2  0  0  0  0
 11 12  1  0  0  0  0
 12 13  2  0  0  0  0
 13 14  1  0  0  0  0
  9 14  2  0  0  0  0
 15 16  1  0  0  0  0
 13 15  1  0  0  0  0
 17 18  1  0  0  0  0
 12 17  1  0  0  0  0
 19 20  1  0  0  0  0
 11 19  1  0  0  0  0
  7  9  1  1  0  0  0
 21 22  1  0  0  0  0
 22 23  2  0  0  0  0
 23 24  1  0  0  0  0
 24 25  2  0  0  0  0
 25 26  1  0  0  0  0
 21 26  2  0  0  0  0
 27 28  1  0  0  0  0
 25 27  1  0  0  0  0
 29 30  1  0  0  0  0
 24 29  1  0  0  0  0
 31 32  1  0  0  0  0
 23 31  1  0  0  0  0
  5 21  1  1  0  0  0
M  END
>  <cdx:groupId>
101

>  <cdx:fragmentId>
21

$$$$
