302702.cdx
  Mrv1902 05222410222D          

 68 74  0  0  0  0            999 V2000
   16.2494   -6.9856    0.0000 O   0  0  0  0  0  0  0  0  0  0  0  0
   16.2491   -6.1606    0.0000 C   0  0  0  0  0  0  0  0  0  0  0  0
   15.5344   -5.7484    0.0000 C   0  0  2  0  0  0  0  0  0  0  0  0
   14.8201   -6.1612    0.0000 C   0  0  1  0  0  0  0  0  0  0  0  0
   14.8205   -6.9862    0.0000 C   0  0  2  0  0  0  0  0  0  0  0  0
   15.5352   -7.3984    0.0000 C   0  0  2  0  0  0  0  0  0  0  0  0
   14.1062   -7.3990    0.0000 O   0  0  0  0  0  0  0  0  0  0  0  0
   14.1055   -5.7490    0.0000 O   0  0  0  0  0  0  0  0  0  0  0  0
   15.5341   -4.9234    0.0000 O   0  0  0  0  0  0  0  0  0  0  0  0
   15.5511   -8.2232    0.0000 O   0  0  0  0  0  0  0  0  0  0  0  0
   16.1179   -8.8072    0.0000 C   0  0  2  0  0  0  0  0  0  0  0  0
   12.2204  -10.6718    0.0000 C   0  0  0  0  0  0  0  0  0  0  0  0
   11.5060  -11.0843    0.0000 C   0  0  0  0  0  0  0  0  0  0  0  0
   11.5060  -11.9093    0.0000 C   0  0  1  0  0  0  0  0  0  0  0  0
   12.2204  -12.3218    0.0000 C   0  0  0  0  0  0  0  0  0  0  0  0
   12.9349  -11.9093    0.0000 C   0  0  2  0  0  0  0  0  0  0  0  0
   13.6494  -12.3218    0.0000 C   0  0  0  0  0  0  0  0  0  0  0  0
   14.3638  -11.9093    0.0000 C   0  0  0  0  0  0  0  0  0  0  0  0
   14.3638  -11.0843    0.0000 C   0  0  1  0  0  0  0  0  0  0  0  0
   15.0783  -10.6718    0.0000 C   0  0  2  0  0  0  0  0  0  0  0  0
   15.8629  -10.9267    0.0000 C   0  0  0  0  0  0  0  0  0  0  0  0
   16.3479  -10.2593    0.0000 C   0  0  0  0  0  0  0  0  0  0  0  0
   15.8629   -9.5919    0.0000 C   0  0  1  0  0  0  0  0  0  0  0  0
   15.0783   -9.8468    0.0000 C   0  0  1  0  0  0  0  0  0  0  0  0
   14.3638   -9.4343    0.0000 C   0  0  1  0  0  0  0  0  0  0  0  0
   13.6494   -9.8468    0.0000 C   0  0  0  0  0  0  0  0  0  0  0  0
   13.6494  -10.6718    0.0000 C   0  0  2  0  0  0  0  0  0  0  0  0
   12.9349  -11.0843    0.0000 C   0  0  1  0  0  0  0  0  0  0  0  0
   15.0783  -11.4968    0.0000 C   0  0  0  0  0  0  0  0  0  0  0  0
   12.9349  -10.2593    0.0000 C   0  0  0  0  0  0  0  0  0  0  0  0
   14.3638  -10.2593    0.0000 C   0  0  0  0  0  0  0  0  0  0  0  0
   12.6329  -13.0363    0.0000 C   0  0  0  0  0  0  0  0  0  0  0  0
   11.8079  -13.0363    0.0000 C   0  0  0  0  0  0  0  0  0  0  0  0
   14.3638   -8.6093    0.0000 O   0  0  0  0  0  0  0  0  0  0  0  0
   10.7915  -12.3218    0.0000 O   0  0  0  0  0  0  0  0  0  0  0  0
   10.0786  -11.0834    0.0000 O   0  0  0  0  0  0  0  0  0  0  0  0
   10.0775  -11.9084    0.0000 C   0  0  2  0  0  0  0  0  0  0  0  0
    9.3626  -12.3200    0.0000 C   0  0  1  0  0  0  0  0  0  0  0  0
    8.6486  -11.9066    0.0000 C   0  0  2  0  0  0  0  0  0  0  0  0
    8.6496  -11.0816    0.0000 C   0  0  1  0  0  0  0  0  0  0  0  0
    9.3646  -10.6700    0.0000 C   0  0  1  0  0  0  0  0  0  0  0  0
    9.3615  -13.1450    0.0000 O   0  0  0  0  0  0  0  0  0  0  0  0
    9.3657   -9.8450    0.0000 C   0  0  0  0  0  0  0  0  0  0  0  0
    8.6517   -9.4316    0.0000 O   0  0  0  0  0  0  0  0  0  0  0  0
    7.9357  -10.6682    0.0000 O   0  0  0  0  0  0  0  0  0  0  0  0
    7.9336  -12.3182    0.0000 O   0  0  0  0  0  0  0  0  0  0  0  0
   12.9349  -12.7343    0.0000 H   0  0  0  0  0  0  0  0  0  0  0  0
   13.6494  -11.4968    0.0000 H   0  0  0  0  0  0  0  0  0  0  0  0
   15.1646   -9.0263    0.0000 H   0  0  0  0  0  0  0  0  0  0  0  0
   16.6778   -9.4628    0.0000 H   0  0  0  0  0  0  0  0  0  0  0  0
   16.9249   -8.6357    0.0000 C   0  0  0  0  0  0  0  0  0  0  0  0
   17.4769   -9.2488    0.0000 C   0  0  0  0  0  0  0  0  0  0  0  0
   18.2839   -9.0773    0.0000 C   0  0  0  0  0  0  0  0  0  0  0  0
   18.8359   -9.6904    0.0000 C   0  0  0  0  0  0  0  0  0  0  0  0
   19.6429   -9.5189    0.0000 C   0  0  0  0  0  0  0  0  0  0  0  0
   18.5810  -10.4750    0.0000 C   0  0  0  0  0  0  0  0  0  0  0  0
   16.3728   -8.0226    0.0000 C   0  0  0  0  0  0  0  0  0  0  0  0
    8.6465  -13.5566    0.0000 C   0  0  2  0  0  0  0  0  0  0  0  0
    7.9331  -13.1423    0.0000 O   0  0  0  0  0  0  0  0  0  0  0  0
    7.2176  -13.5566    0.0000 C   0  0  1  0  0  0  0  0  0  0  0  0
    7.2176  -14.3816    0.0000 C   0  0  2  0  0  0  0  0  0  0  0  0
    7.9331  -14.7959    0.0000 C   0  0  1  0  0  0  0  0  0  0  0  0
    8.6465  -14.3816    0.0000 C   0  0  1  0  0  0  0  0  0  0  0  0
    7.9336  -15.6209    0.0000 O   0  0  0  0  0  0  0  0  0  0  0  0
    6.5029  -14.7937    0.0000 O   0  0  0  0  0  0  0  0  0  0  0  0
    9.3615  -14.7932    0.0000 O   0  0  0  0  0  0  0  0  0  0  0  0
    6.5029  -13.1446    0.0000 C   0  0  0  0  0  0  0  0  0  0  0  0
    5.7887  -13.5575    0.0000 O   0  0  0  0  0  0  0  0  0  0  0  0
  1  2  1  0  0  0  0
  2  3  1  0  0  0  0
  3  4  1  0  0  0  0
  4  5  1  0  0  0  0
  5  6  1  0  0  0  0
  1  6  1  0  0  0  0
  5  7  1  6  0  0  0
  4  8  1  1  0  0  0
  3  9  1  6  0  0  0
 12 13  1  0  0  0  0
 13 14  1  0  0  0  0
 14 15  1  0  0  0  0
 15 16  1  0  0  0  0
 16 17  1  0  0  0  0
 17 18  1  0  0  0  0
 18 19  1  0  0  0  0
 19 20  1  0  0  0  0
 20 21  1  0  0  0  0
 21 22  1  0  0  0  0
 23 22  1  0  0  0  0
 23 24  1  0  0  0  0
 20 24  1  0  0  0  0
 24 25  1  0  0  0  0
 25 26  1  0  0  0  0
 26 27  1  0  0  0  0
 19 27  1  0  0  0  0
 27 28  1  0  0  0  0
 16 28  1  0  0  0  0
 12 28  1  0  0  0  0
 20 29  1  6  0  0  0
 28 30  1  1  0  0  0
 19 31  1  1  0  0  0
 15 32  1  0  0  0  0
 15 33  1  0  0  0  0
 25 34  1  1  0  0  0
 36 37  1  0  0  0  0
 37 38  1  0  0  0  0
 38 39  1  0  0  0  0
 39 40  1  0  0  0  0
 40 41  1  0  0  0  0
 36 41  1  0  0  0  0
 38 42  1  6  0  0  0
 43 44  1  0  0  0  0
 41 43  1  1  0  0  0
 40 45  1  6  0  0  0
 39 46  1  1  0  0  0
 37 35  1  1  0  0  0
 14 35  1  1  0  0  0
 11 23  1  0  0  0  0
  6 10  1  1  0  0  0
 16 47  1  6  0  0  0
 27 48  1  6  0  0  0
 24 49  1  1  0  0  0
 23 50  1  6  0  0  0
 11 51  1  0  0  0  0
 51 52  1  0  0  0  0
 52 53  1  0  0  0  0
 53 54  2  0  0  0  0
 54 55  1  0  0  0  0
 54 56  1  0  0  0  0
 11 57  1  6  0  0  0
 11 10  1  1  0  0  0
 58 42  1  1  0  0  0
 58 59  1  0  0  0  0
 59 60  1  0  0  0  0
 60 61  1  0  0  0  0
 61 62  1  0  0  0  0
 62 63  1  0  0  0  0
 63 58  1  0  0  0  0
 62 64  1  1  0  0  0
 61 65  1  6  0  0  0
 63 66  1  6  0  0  0
 60 67  1  1  0  0  0
 67 68  1  0  0  0  0
M  END
>  <cdx:fragmentId>
31943

$$$$
