302716.cdx
  Mrv1902 05222410222D          

 23 24  0  0  0  0            999 V2000
    5.1823   -6.1985    0.0000 C   0  0  0  0  0  0  0  0  0  0  0  0
    5.1823   -7.0235    0.0000 C   0  0  0  0  0  0  0  0  0  0  0  0
    5.8968   -7.4360    0.0000 C   0  0  0  0  0  0  0  0  0  0  0  0
    5.8968   -8.2610    0.0000 C   0  0  0  0  0  0  0  0  0  0  0  0
    5.1823   -8.6735    0.0000 C   0  0  0  0  0  0  0  0  0  0  0  0
    4.4678   -8.2610    0.0000 C   0  0  0  0  0  0  0  0  0  0  0  0
    4.4678   -7.4360    0.0000 C   0  0  0  0  0  0  0  0  0  0  0  0
    5.8968   -5.7860    0.0000 O   0  0  0  0  0  0  0  0  0  0  0  0
    4.4678   -5.7860    0.0000 O   0  0  0  0  0  0  0  0  0  0  0  0
    6.6112   -8.6735    0.0000 O   0  0  0  0  0  0  0  0  0  0  0  0
    8.0402   -8.6735    0.0000 O   0  0  0  0  0  0  0  0  0  0  0  0
    7.3257   -8.2610    0.0000 C   0  0  2  0  0  0  0  0  0  0  0  0
    7.3257   -7.4360    0.0000 C   0  0  1  0  0  0  0  0  0  0  0  0
    8.0402   -7.0235    0.0000 C   0  0  2  0  0  0  0  0  0  0  0  0
    8.7546   -7.4360    0.0000 C   0  0  1  0  0  0  0  0  0  0  0  0
    8.7546   -8.2610    0.0000 C   0  0  1  0  0  0  0  0  0  0  0  0
    9.4691   -8.6735    0.0000 C   0  0  0  0  0  0  0  0  0  0  0  0
   10.1836   -8.2610    0.0000 O   0  0  0  0  0  0  0  0  0  0  0  0
    9.4691   -7.0235    0.0000 O   0  0  0  0  0  0  0  0  0  0  0  0
    8.0402   -6.1985    0.0000 O   0  0  0  0  0  0  0  0  0  0  0  0
    6.6112   -7.0235    0.0000 O   0  0  0  0  0  0  0  0  0  0  0  0
    5.1823   -9.4985    0.0000 O   0  0  0  0  0  0  0  0  0  0  0  0
    4.4678   -4.9610    0.0000 C   0  0  0  0  0  0  0  0  0  0  0  0
  1  2  1  0  0  0  0
  2  3  1  0  0  0  0
  3  4  2  0  0  0  0
  4  5  1  0  0  0  0
  5  6  2  0  0  0  0
  6  7  1  0  0  0  0
  2  7  2  0  0  0  0
  1  8  2  0  0  0  0
  1  9  1  0  0  0  0
 11 12  1  0  0  0  0
 12 13  1  0  0  0  0
 13 14  1  0  0  0  0
 14 15  1  0  0  0  0
 15 16  1  0  0  0  0
 11 16  1  0  0  0  0
 17 18  1  0  0  0  0
 16 17  1  1  0  0  0
 15 19  1  6  0  0  0
 14 20  1  1  0  0  0
 13 21  1  6  0  0  0
 12 10  1  1  0  0  0
  4 10  1  0  0  0  0
  5 22  1  0  0  0  0
  9 23  1  0  0  0  0
M  END
>  <cdx:groupId>
72

>  <cdx:fragmentId>
25

$$$$
