302719.cdx
  Mrv1902 05222410232D          

 16 17  0  0  0  0            999 V2000
    5.9433   -5.4120    0.0000 C   0  0  0  0  0  0  0  0  0  0  0  0
    5.9433   -6.2370    0.0000 C   0  0  0  0  0  0  0  0  0  0  0  0
    6.6577   -6.6495    0.0000 C   0  0  0  0  0  0  0  0  0  0  0  0
    7.3722   -6.2370    0.0000 C   0  0  0  0  0  0  0  0  0  0  0  0
    7.3722   -5.4120    0.0000 C   0  0  0  0  0  0  0  0  0  0  0  0
    6.6577   -4.9995    0.0000 C   0  0  0  0  0  0  0  0  0  0  0  0
    8.0867   -6.6495    0.0000 S   0  0  0  0  0  0  0  0  0  0  0  0
    8.8012   -6.2370    0.0000 C   0  0  0  0  0  0  0  0  0  0  0  0
    8.8012   -5.4120    0.0000 C   0  0  0  0  0  0  0  0  0  0  0  0
    8.0867   -4.9995    0.0000 N   0  0  0  0  0  0  0  0  0  0  0  0
    6.6577   -4.1745    0.0000 O   0  0  0  0  0  0  0  0  0  0  0  0
    9.5156   -4.9995    0.0000 O   0  0  0  0  0  0  0  0  0  0  0  0
    5.2288   -6.6495    0.0000 C   0  0  0  0  0  0  0  0  0  0  0  0
    6.2452   -7.3640    0.0000 C   0  0  0  0  0  0  0  0  0  0  0  0
    7.0702   -7.3640    0.0000 C   0  0  0  0  0  0  0  0  0  0  0  0
    4.5143   -6.2370    0.0000 O   0  0  0  0  0  0  0  0  0  0  0  0
  1  2  2  0  0  0  0
  2  3  1  0  0  0  0
  3  4  1  0  0  0  0
  4  5  2  0  0  0  0
  5  6  1  0  0  0  0
  6  1  1  0  0  0  0
  4  7  1  0  0  0  0
  7  8  1  0  0  0  0
  8  9  1  0  0  0  0
  9 10  1  0  0  0  0
 10  5  1  0  0  0  0
  6 11  2  0  0  0  0
  9 12  2  0  0  0  0
  2 13  1  0  0  0  0
  3 14  1  0  0  0  0
  3 15  1  0  0  0  0
 13 16  1  0  0  0  0
M  END
>  <cdx:fragmentId>
5

$$$$
