302774.cdx
  Mrv1902 05222410192D          

 16 18  0  0  0  0            999 V2000
    5.7041   -5.4636    0.0000 O   0  0  0  0  0  0  0  0  0  0  0  0
    6.2185   -6.1087    0.0000 C   0  0  0  0  0  0  0  0  0  0  0  0
    5.4027   -6.2316    0.0000 C   0  0  0  0  0  0  0  0  0  0  0  0
    7.0343   -5.9857    0.0000 C   0  0  0  0  0  0  0  0  0  0  0  0
    8.9668   -8.1644    0.0000 C   0  0  0  0  0  0  0  0  0  0  0  0
    9.4518   -7.4970    0.0000 C   0  0  0  0  0  0  0  0  0  0  0  0
    8.9668   -6.8295    0.0000 C   0  0  0  0  0  0  0  0  0  0  0  0
    8.1822   -7.0845    0.0000 C   0  0  0  0  0  0  0  0  0  0  0  0
    7.5372   -6.5701    0.0000 C   0  0  0  0  0  0  0  0  0  0  0  0
    6.7329   -6.7537    0.0000 C   0  0  0  0  0  0  0  0  0  0  0  0
    6.3749   -7.4970    0.0000 C   0  0  0  0  0  0  0  0  0  0  0  0
    6.7329   -8.2403    0.0000 C   0  0  0  0  0  0  0  0  0  0  0  0
    7.5372   -8.4238    0.0000 C   0  0  0  0  0  0  0  0  0  0  0  0
    8.1822   -7.9095    0.0000 C   0  0  0  0  0  0  0  0  0  0  0  0
    7.7208   -9.2282    0.0000 C   0  0  0  0  0  0  0  0  0  0  0  0
    9.2218   -6.0449    0.0000 C   0  0  0  0  0  0  0  0  0  0  0  0
  1  2  1  0  0  0  0
  2  3  1  0  0  0  0
  1  3  1  0  0  0  0
  2  4  1  0  0  0  0
  5  6  1  0  0  0  0
  6  7  1  0  0  0  0
  7  8  1  0  0  0  0
  8  9  2  0  0  0  0
  9 10  1  0  0  0  0
 10 11  1  0  0  0  0
 11 12  1  0  0  0  0
 12 13  1  0  0  0  0
 13 14  1  0  0  0  0
  5 14  1  0  0  0  0
  8 14  1  0  0  0  0
 13 15  1  0  0  0  0
  7 16  1  0  0  0  0
  2 10  1  0  0  0  0
M  END
>  <cdx:groupId>
52

>  <cdx:fragmentId>
13

$$$$
