302772.cdx
  Mrv1902 05222410182D          

 19 20  0  0  0  0            999 V2000
    7.0678   -7.0785    0.0000 C   0  0  0  0  0  0  0  0  0  0  0  0
    6.3533   -7.4910    0.0000 C   0  0  0  0  0  0  0  0  0  0  0  0
    5.6388   -7.0785    0.0000 C   0  0  0  0  0  0  0  0  0  0  0  0
    7.0678   -6.2535    0.0000 O   0  0  0  0  0  0  0  0  0  0  0  0
    7.7822   -7.4910    0.0000 O   0  0  0  0  0  0  0  0  0  0  0  0
    4.9244   -7.4910    0.0000 C   0  0  0  0  0  0  0  0  0  0  0  0
    4.9244   -8.3160    0.0000 C   0  0  0  0  0  0  0  0  0  0  0  0
    4.2099   -8.7285    0.0000 C   0  0  0  0  0  0  0  0  0  0  0  0
    3.4954   -8.3160    0.0000 C   0  0  0  0  0  0  0  0  0  0  0  0
    3.4954   -7.4910    0.0000 C   0  0  0  0  0  0  0  0  0  0  0  0
    4.2099   -7.0785    0.0000 C   0  0  0  0  0  0  0  0  0  0  0  0
    8.4967   -7.0785    0.0000 C   0  0  0  0  0  0  0  0  0  0  0  0
    9.2112   -7.4910    0.0000 C   0  0  0  0  0  0  0  0  0  0  0  0
    9.9256   -7.0785    0.0000 C   0  0  0  0  0  0  0  0  0  0  0  0
    9.9256   -6.2535    0.0000 C   0  0  0  0  0  0  0  0  0  0  0  0
   10.6401   -5.8410    0.0000 C   0  0  0  0  0  0  0  0  0  0  0  0
   11.3546   -6.2535    0.0000 C   0  0  0  0  0  0  0  0  0  0  0  0
   11.3546   -7.0785    0.0000 C   0  0  0  0  0  0  0  0  0  0  0  0
   10.6401   -7.4910    0.0000 C   0  0  0  0  0  0  0  0  0  0  0  0
  1  2  1  0  0  0  0
  2  3  2  0  0  0  0
  1  4  2  0  0  0  0
  1  5  1  0  0  0  0
  6  7  1  0  0  0  0
  7  8  2  0  0  0  0
  8  9  1  0  0  0  0
  9 10  2  0  0  0  0
 10 11  1  0  0  0  0
  6 11  2  0  0  0  0
  3  6  1  0  0  0  0
 12 13  1  0  0  0  0
 14 15  1  0  0  0  0
 15 16  2  0  0  0  0
 16 17  1  0  0  0  0
 17 18  2  0  0  0  0
 18 19  1  0  0  0  0
 14 19  2  0  0  0  0
 13 14  1  0  0  0  0
  5 12  1  0  0  0  0
M  END
>  <cdx:groupId>
60

>  <cdx:fragmentId>
15

$$$$
