302712.cdx
  Mrv1902 05222410212D          

 98103  0  0  0  0            999 V2000
    6.6836   -6.7259    0.0000 C   0  0  0  0  0  0  0  0  0  0  0  0
    7.3933   -6.3053    0.0000 C   0  0  0  0  0  0  0  0  0  0  0  0
    8.1031   -6.7259    0.0000 C   0  0  0  0  0  0  0  0  0  0  0  0
    8.3659   -7.4884    0.0000 N   0  0  0  0  0  0  0  0  0  0  0  0
    9.1809   -7.4884    0.0000 C   0  0  0  0  0  0  0  0  0  0  0  0
    9.4439   -6.7259    0.0000 C   0  0  2  0  0  0  0  0  0  0  0  0
    8.7604   -6.2265    0.0000 C   0  0  2  0  0  0  0  0  0  0  0  0
    6.0263   -6.2265    0.0000 C   0  0  2  0  0  0  0  0  0  0  0  0
    5.3428   -6.7259    0.0000 C   0  0  1  0  0  0  0  0  0  0  0  0
    5.6057   -7.4884    0.0000 C   0  0  1  0  0  0  0  0  0  0  0  0
    6.4206   -7.4884    0.0000 N   0  5  0  0  0  0  0  0  0  0  0  0
    7.3933   -5.4641    0.0000 C   0  0  0  0  0  0  0  0  0  0  0  0
    5.6057   -8.9343    0.0000 C   0  0  2  0  0  0  0  0  0  0  0  0
    6.4206   -8.9343    0.0000 N   0  0  0  0  0  0  0  0  0  0  0  0
    5.3428   -9.7229    0.0000 C   0  0  1  0  0  0  0  0  0  0  0  0
    6.0263  -10.1961    0.0000 C   0  0  1  0  0  0  0  0  0  0  0  0
    8.3659   -8.9343    0.0000 N   0  0  0  0  0  0  0  0  0  0  0  0
    9.2073   -8.9343    0.0000 C   0  0  0  0  0  0  0  0  0  0  0  0
    9.6016   -8.2244    0.0000 C   0  0  0  0  0  0  0  0  0  0  0  0
    6.6836   -9.7229    0.0000 C   0  0  0  0  0  0  0  0  0  0  0  0
    8.1294   -9.7229    0.0000 C   0  0  0  0  0  0  0  0  0  0  0  0
    8.7866  -10.1961    0.0000 C   0  0  2  0  0  0  0  0  0  0  0  0
    9.4439   -9.7229    0.0000 C   0  0  0  0  0  0  0  0  0  0  0  0
    7.3933  -10.1172    0.0000 C   0  0  0  0  0  0  0  0  0  0  0  0
   10.1537   -6.3053    0.0000 C   0  0  0  0  0  0  0  0  0  0  0  0
   10.8635   -6.7259    0.0000 C   0  0  0  0  0  0  0  0  0  0  0  0
    3.9232   -6.7259    0.0000 C   0  0  0  0  0  0  0  0  0  0  0  0
    6.0263   -5.3852    0.0000 C   0  0  0  0  0  0  0  0  0  0  0  0
    5.3165   -4.9909    0.0000 C   0  0  0  0  0  0  0  0  0  0  0  0
    4.6329   -6.3053    0.0000 C   0  0  0  0  0  0  0  0  0  0  0  0
    4.5804   -9.9858    0.0000 C   0  0  0  0  0  0  0  0  0  0  0  0
    3.2134   -6.3053    0.0000 N   0  0  0  0  0  0  0  0  0  0  0  0
    5.3165   -4.1496    0.0000 C   0  0  0  0  0  0  0  0  0  0  0  0
    6.4470  -10.9059    0.0000 C   0  0  0  0  0  0  0  0  0  0  0  0
    4.6066   -3.7554    0.0000 O   0  0  0  0  0  0  0  0  0  0  0  0
    6.0263   -3.7554    0.0000 N   0  0  0  0  0  0  0  0  0  0  0  0
    5.5269  -10.8533    0.0000 C   0  0  0  0  0  0  0  0  0  0  0  0
    5.5269  -11.6946    0.0000 C   0  0  0  0  0  0  0  0  0  0  0  0
    4.8169  -12.0889    0.0000 C   0  0  0  0  0  0  0  0  0  0  0  0
    4.1072  -11.6946    0.0000 O   0  0  0  0  0  0  0  0  0  0  0  0
   11.5732   -6.3053    0.0000 C   0  0  0  0  0  0  0  0  0  0  0  0
   12.2831   -6.7259    0.0000 N   0  0  0  0  0  0  0  0  0  0  0  0
    9.4439   -5.7532    0.0000 C   0  0  0  0  0  0  0  0  0  0  0  0
    9.4439   -4.9384    0.0000 C   0  0  0  0  0  0  0  0  0  0  0  0
   10.1800   -4.5703    0.0000 N   0  0  0  0  0  0  0  0  0  0  0  0
    8.7078   -4.5703    0.0000 O   0  0  0  0  0  0  0  0  0  0  0  0
    8.3398   -5.5430    0.0000 C   0  0  0  0  0  0  0  0  0  0  0  0
   11.5732   -5.4641    0.0000 O   0  0  0  0  0  0  0  0  0  0  0  0
    3.9232   -7.5409    0.0000 O   0  0  0  0  0  0  0  0  0  0  0  0
    9.9959  -10.3275    0.0000 C   0  0  0  0  0  0  0  0  0  0  0  0
   10.2589   -9.5389    0.0000 C   0  0  0  0  0  0  0  0  0  0  0  0
    8.7866  -11.0110    0.0000 C   0  0  0  0  0  0  0  0  0  0  0  0
    9.4964  -11.4317    0.0000 C   0  0  0  0  0  0  0  0  0  0  0  0
   10.2062  -11.0110    0.0000 C   0  0  0  0  0  0  0  0  0  0  0  0
   10.9160  -11.4317    0.0000 O   0  0  0  0  0  0  0  0  0  0  0  0
    8.5501  -13.5873    0.0000 C   0  0  0  0  0  0  0  0  0  0  0  0
    4.8433   -8.6188    0.0000 H   0  0  0  0  0  0  0  0  0  0  0  0
    3.8706   -9.5652    0.0000 C   0  0  0  0  0  0  0  0  0  0  0  0
    3.1609   -9.9858    0.0000 N   0  0  0  0  0  0  0  0  0  0  0  0
    4.8433   -7.8038    0.0000 C   0  0  0  0  0  0  0  0  0  0  0  0
    4.5804   -6.9888    0.0000 C   0  0  0  0  0  0  0  0  0  0  0  0
    3.8706   -8.7502    0.0000 O   0  0  0  0  0  0  0  0  0  0  0  0
    4.8433  -12.9301    0.0000 N   0  0  0  0  0  0  0  0  0  0  0  0
    7.3933  -10.9585    0.0000 C   0  0  0  0  0  0  0  0  0  0  0  0
    4.1335  -13.3244    0.0000 C   0  0  0  0  0  0  0  0  0  0  0  0
    4.1335  -14.1658    0.0000 C   0  0  2  0  0  0  0  0  0  0  0  0
    4.8433  -14.5601    0.0000 O   0  0  0  0  0  0  0  0  0  0  0  0
    3.3975  -14.5601    0.0000 C   0  0  0  0  0  0  0  0  0  0  0  0
    4.8433  -15.4013    0.0000 P   0  0  1  0  0  0  0  0  0  0  0  0
    5.5531  -15.7956    0.0000 O   0  0  0  0  0  0  0  0  0  0  0  0
    6.2629  -15.4013    0.0000 C   0  0  2  0  0  0  0  0  0  0  0  0
    4.5015  -16.1374    0.0000 O   0  0  0  0  0  0  0  0  0  0  0  0
    4.0021  -15.4013    0.0000 O   0  5  0  0  0  0  0  0  0  0  0  0
    7.0517  -15.6379    0.0000 C   0  0  2  0  0  0  0  0  0  0  0  0
    7.5248  -14.9806    0.0000 O   0  0  0  0  0  0  0  0  0  0  0  0
    7.0517  -14.3235    0.0000 C   0  0  1  0  0  0  0  0  0  0  0  0
    6.2629  -14.5601    0.0000 C   0  0  2  0  0  0  0  0  0  0  0  0
    7.0253  -13.4033    0.0000 N   0  0  0  0  0  0  0  0  0  0  0  0
    7.8402  -13.1667    0.0000 C   0  0  0  0  0  0  0  0  0  0  0  0
    7.8402  -12.3518    0.0000 C   0  0  0  0  0  0  0  0  0  0  0  0
    7.0253  -12.0626    0.0000 N   0  0  0  0  0  0  0  0  0  0  0  0
    6.5258  -12.7198    0.0000 C   0  0  0  0  0  0  0  0  0  0  0  0
    9.2598  -13.1667    0.0000 C   0  0  0  0  0  0  0  0  0  0  0  0
    9.2598  -12.3518    0.0000 C   0  0  0  0  0  0  0  0  0  0  0  0
    8.5501  -11.9312    0.0000 C   0  0  0  0  0  0  0  0  0  0  0  0
    9.9697  -11.9312    0.0000 C   0  0  0  0  0  0  0  0  0  0  0  0
    9.9697  -13.5873    0.0000 C   0  0  0  0  0  0  0  0  0  0  0  0
    5.6057  -14.0868    0.0000 O   0  0  0  0  0  0  0  0  0  0  0  0
    7.8402  -14.1132    0.0000 H   0  0  0  0  0  0  0  0  0  0  0  0
    7.0517  -16.4791    0.0000 C   0  0  0  0  0  0  0  0  0  0  0  0
    7.7088  -16.1374    0.0000 H   0  0  0  0  0  0  0  0  0  0  0  0
   10.4691  -10.2486    0.0000 N   0  0  0  0  0  0  0  0  0  0  0  0
    6.2629  -16.2163    0.0000 H   0  0  0  0  0  0  0  0  0  0  0  0
    6.2629  -13.7451    0.0000 H   0  0  0  0  0  0  0  0  0  0  0  0
    7.7614  -16.8997    0.0000 O   0  0  0  0  0  0  0  0  0  0  0  0
    8.2500   -8.1675    0.0000 C   0  5  0  0  0  0  0  0  0  0  0  0
    9.0750   -8.1675    0.0000 N   0  0  0  0  0  0  0  0  0  0  0  0
    6.8750   -8.1400    0.0000 Co  0  1  0  0  0  0  0  0  0  0  0  0
  1  2  2  0  0  0  0
  1  8  1  0  0  0  0
  3  4  2  0  0  0  0
  9 10  1  0  0  0  0
  5  6  1  0  0  0  0
  8  9  1  0  0  0  0
  3  7  1  0  0  0  0
  2  3  1  0  0  0  0
  6  7  1  0  0  0  0
  4  5  1  0  0  0  0
 10 11  1  0  0  0  0
  1 11  1  0  0  0  0
 10 13  1  0  0  0  0
 18 23  1  0  0  0  0
 21 22  1  0  0  0  0
 13 15  1  0  0  0  0
 15 16  1  0  0  0  0
 16 20  1  0  0  0  0
 14 20  2  0  0  0  0
 17 18  2  0  0  0  0
 18 19  1  0  0  0  0
  5 19  2  0  0  0  0
 17 21  1  0  0  0  0
 21 24  2  0  0  0  0
 13 14  1  0  0  0  0
  2 12  1  0  0  0  0
 22 23  1  0  0  0  0
  6 25  1  6  0  0  0
 25 26  1  0  0  0  0
 27 30  1  0  0  0  0
  8 28  1  6  0  0  0
 28 29  1  0  0  0  0
  9 30  1  1  0  0  0
 15 31  1  1  0  0  0
 23 50  1  0  0  0  0
 27 32  1  0  0  0  0
 29 33  1  0  0  0  0
 33 35  2  0  0  0  0
 16 34  1  1  0  0  0
 33 36  1  0  0  0  0
 26 41  1  0  0  0  0
 16 37  1  6  0  0  0
 37 38  1  0  0  0  0
 38 39  1  0  0  0  0
 39 40  2  0  0  0  0
 41 42  1  0  0  0  0
  7 43  1  1  0  0  0
 43 44  1  0  0  0  0
 44 45  1  0  0  0  0
 44 46  2  0  0  0  0
  7 47  1  6  0  0  0
 41 48  2  0  0  0  0
 27 49  2  0  0  0  0
 22 52  1  6  0  0  0
 23 51  1  0  0  0  0
 52 53  1  0  0  0  0
 53 54  1  0  0  0  0
 54 55  2  0  0  0  0
 56 79  1  0  0  0  0
 13 57  1  1  0  0  0
 31 58  1  0  0  0  0
 58 59  1  0  0  0  0
 10 60  1  6  0  0  0
  9 61  1  6  0  0  0
 58 62  2  0  0  0  0
 39 63  1  0  0  0  0
 24 64  1  0  0  0  0
 63 65  1  0  0  0  0
 65 66  1  0  0  0  0
 66 67  1  0  0  0  0
 66 68  1  6  0  0  0
 67 69  1  0  0  0  0
 69 70  1  0  0  0  0
 70 71  1  0  0  0  0
 69 72  2  0  0  0  0
 69 73  1  6  0  0  0
 71 74  1  0  0  0  0
 74 75  1  0  0  0  0
 75 76  1  0  0  0  0
 76 77  1  0  0  0  0
 71 77  1  0  0  0  0
 76 78  1  1  0  0  0
 78 79  1  0  0  0  0
 79 80  2  0  0  0  0
 80 81  1  0  0  0  0
 81 82  2  0  0  0  0
 78 82  1  0  0  0  0
 56 83  2  0  0  0  0
 83 84  1  0  0  0  0
 84 85  2  0  0  0  0
 80 85  1  0  0  0  0
 84 86  1  0  0  0  0
 83 87  1  0  0  0  0
 77 88  1  1  0  0  0
 76 89  1  6  0  0  0
 74 90  1  6  0  0  0
 74 91  1  1  0  0  0
 20 24  1  0  0  0  0
 54 92  1  0  0  0  0
 71 93  1  6  0  0  0
 77 94  1  6  0  0  0
 90 95  1  0  0  0  0
 96 97  3  0  0  0  0
M  CHG  4  11  -1  73  -1  96  -1  98   3
M  END
>  <cdx:fragmentId>
826

$$$$
