302721.cdx
  Mrv1902 05222410262D          

 21 23  0  0  0  0            999 V2000
    7.9044   -6.9577    0.0000 C   0  0  2  0  0  0  0  0  0  0  0  0
    7.7208   -7.7620    0.0000 C   0  0  0  0  0  0  0  0  0  0  0  0
    6.2342   -7.7620    0.0000 C   0  0  1  0  0  0  0  0  0  0  0  0
    6.9775   -8.1200    0.0000 C   0  0  1  0  0  0  0  0  0  0  0  0
    7.3900   -6.3127    0.0000 C   0  0  2  0  0  0  0  0  0  0  0  0
    6.5650   -6.3127    0.0000 C   0  0  0  0  0  0  0  0  0  0  0  0
    6.0506   -6.9577    0.0000 C   0  0  0  0  0  0  0  0  0  0  0  0
    8.6768   -6.6678    0.0000 C   0  0  0  0  0  0  0  0  0  0  0  0
    8.6398   -5.8437    0.0000 C   0  0  0  0  0  0  0  0  0  0  0  0
    7.8445   -5.6242    0.0000 C   0  0  0  0  0  0  0  0  0  0  0  0
    5.6641   -8.3583    0.0000 O   0  0  0  0  0  0  0  0  0  0  0  0
    6.0550   -9.0848    0.0000 C   0  0  0  0  0  0  0  0  0  0  0  0
    6.8668   -8.9375    0.0000 C   0  0  2  0  0  0  0  0  0  0  0  0
    9.3653   -7.1223    0.0000 C   0  0  0  0  0  0  0  0  0  0  0  0
    6.1525   -5.5982    0.0000 C   0  0  0  0  0  0  0  0  0  0  0  0
    5.6425   -9.7993    0.0000 O   0  0  0  0  0  0  0  0  0  0  0  0
    7.4501   -9.5209    0.0000 C   0  0  0  0  0  0  0  0  0  0  0  0
    5.5197   -7.3495    0.0000 H   0  0  0  0  0  0  0  0  0  0  0  0
    7.6920   -8.5325    0.0000 H   0  0  0  0  0  0  0  0  0  0  0  0
    6.9775   -5.5982    0.0000 H   0  0  0  0  0  0  0  0  0  0  0  0
    8.4877   -7.5411    0.0000 H   0  0  0  0  0  0  0  0  0  0  0  0
  1  2  1  0  0  0  0
  3  4  1  0  0  0  0
  5  6  1  0  0  0  0
  6  7  1  0  0  0  0
  3  7  1  0  0  0  0
  5  1  1  0  0  0  0
  4  2  1  0  0  0  0
  1  8  1  0  0  0  0
  8  9  2  0  0  0  0
  9 10  1  0  0  0  0
 10  5  1  0  0  0  0
  3 11  1  0  0  0  0
 11 12  1  0  0  0  0
 12 13  1  0  0  0  0
 13  4  1  0  0  0  0
  8 14  1  0  0  0  0
  6 15  2  0  0  0  0
 12 16  2  0  0  0  0
 13 17  1  1  0  0  0
  3 18  1  1  0  0  0
  4 19  1  1  0  0  0
  5 20  1  1  0  0  0
  1 21  1  1  0  0  0
M  END
>  <cdx:groupId>
61

>  <cdx:fragmentId>
15

$$$$
