302717.cdx
  Mrv1902 05222410222D          

 38 41  0  0  0  0            999 V2000
    5.0372   -7.1066    0.0000 O   0  0  0  0  0  0  0  0  0  0  0  0
    5.7354   -5.8599    0.0000 O   0  0  0  0  0  0  0  0  0  0  0  0
    5.0264   -6.2817    0.0000 C   0  0  2  0  0  0  0  0  0  0  0  0
    4.3066   -5.8786    0.0000 C   0  0  1  0  0  0  0  0  0  0  0  0
    4.2958   -5.0536    0.0000 C   0  0  2  0  0  0  0  0  0  0  0  0
    5.0048   -4.6318    0.0000 C   0  0  1  0  0  0  0  0  0  0  0  0
    5.7246   -5.0349    0.0000 C   0  0  1  0  0  0  0  0  0  0  0  0
    6.4337   -4.6131    0.0000 C   0  0  0  0  0  0  0  0  0  0  0  0
    6.4229   -3.7882    0.0000 O   0  0  0  0  0  0  0  0  0  0  0  0
    4.9940   -3.8069    0.0000 O   0  0  0  0  0  0  0  0  0  0  0  0
    3.5760   -4.6505    0.0000 O   0  0  0  0  0  0  0  0  0  0  0  0
    3.5976   -6.3004    0.0000 O   0  0  0  0  0  0  0  0  0  0  0  0
   11.4642   -7.5669    0.0000 O   0  0  0  0  0  0  0  0  0  0  0  0
   10.0537   -5.0813    0.0000 O   0  0  0  0  0  0  0  0  0  0  0  0
   12.1879   -6.3347    0.0000 C   0  0  0  0  0  0  0  0  0  0  0  0
   11.4765   -5.9169    0.0000 O   0  0  0  0  0  0  0  0  0  0  0  0
    9.3301   -6.3135    0.0000 C   0  0  0  0  0  0  0  0  0  0  0  0
   10.0476   -5.9063    0.0000 C   0  0  0  0  0  0  0  0  0  0  0  0
   10.7590   -6.3241    0.0000 C   0  0  0  0  0  0  0  0  0  0  0  0
   10.7528   -7.1491    0.0000 C   0  0  0  0  0  0  0  0  0  0  0  0
   10.0353   -7.5563    0.0000 C   0  0  0  0  0  0  0  0  0  0  0  0
    9.3239   -7.1385    0.0000 C   0  0  0  0  0  0  0  0  0  0  0  0
    4.2952  -10.8137    0.0000 C   0  0  0  0  0  0  0  0  0  0  0  0
    3.5899   -9.5709    0.0000 C   0  0  0  0  0  0  0  0  0  0  0  0
    4.3013   -9.9887    0.0000 C   0  0  0  0  0  0  0  0  0  0  0  0
    5.0188   -9.5815    0.0000 C   0  0  0  0  0  0  0  0  0  0  0  0
    5.0250   -8.7566    0.0000 C   0  0  0  0  0  0  0  0  0  0  0  0
    7.8766   -9.6028    0.0000 O   0  0  0  0  0  0  0  0  0  0  0  0
    7.8950   -7.1279    0.0000 O   0  0  0  0  0  0  0  0  0  0  0  0
    7.1775   -7.5350    0.0000 C   0  0  0  0  0  0  0  0  0  0  0  0
    6.4661   -7.1172    0.0000 C   0  0  0  0  0  0  0  0  0  0  0  0
    5.7486   -7.5244    0.0000 C   0  0  0  0  0  0  0  0  0  0  0  0
    5.7425   -8.3494    0.0000 C   0  0  0  0  0  0  0  0  0  0  0  0
    6.4539   -8.7672    0.0000 C   0  0  0  0  0  0  0  0  0  0  0  0
    7.1714   -8.3600    0.0000 C   0  0  0  0  0  0  0  0  0  0  0  0
    7.8828   -8.7778    0.0000 C   0  0  0  0  0  0  0  0  0  0  0  0
    8.6003   -8.3706    0.0000 C   0  0  0  0  0  0  0  0  0  0  0  0
    8.6064   -7.5457    0.0000 C   0  0  0  0  0  0  0  0  0  0  0  0
 38 22  1  0  0  0  0
 20 13  1  0  0  0  0
 18 14  1  0  0  0  0
 19 16  1  0  0  0  0
 16 15  1  0  0  0  0
 22 17  2  0  0  0  0
 18 17  1  0  0  0  0
 19 18  2  0  0  0  0
 20 19  1  0  0  0  0
 21 20  2  0  0  0  0
 22 21  1  0  0  0  0
 33 27  1  0  0  0  0
 25 23  1  0  0  0  0
 25 24  1  0  0  0  0
 26 25  2  0  0  0  0
 27 26  1  0  0  0  0
 32  1  1  0  0  0  0
 36 28  2  0  0  0  0
 38 29  1  0  0  0  0
 30 29  1  0  0  0  0
 35 30  2  0  0  0  0
 31 30  1  0  0  0  0
 32 31  2  0  0  0  0
 33 32  1  0  0  0  0
 34 33  2  0  0  0  0
 35 34  1  0  0  0  0
 36 35  1  0  0  0  0
 37 36  1  0  0  0  0
 38 37  2  0  0  0  0
  2  3  1  0  0  0  0
  3  4  1  0  0  0  0
  4  5  1  0  0  0  0
  5  6  1  0  0  0  0
  6  7  1  0  0  0  0
  2  7  1  0  0  0  0
  8  9  1  0  0  0  0
  7  8  1  1  0  0  0
  6 10  1  6  0  0  0
  5 11  1  1  0  0  0
  4 12  1  6  0  0  0
  3  1  1  1  0  0  0
M  END
>  <cdx:groupId>
119

>  <cdx:fragmentId>
29

$$$$
