302733.cdx
  Mrv1902 05222410242D          

 22 23  0  0  0  0            999 V2000
    4.5842   -5.3556    0.0000 C   0  0  0  0  0  0  0  0  0  0  0  0
    5.2998   -5.7663    0.0000 C   0  0  0  0  0  0  0  0  0  0  0  0
    5.3019   -6.5913    0.0000 O   0  0  0  0  0  0  0  0  0  0  0  0
    5.3062   -8.2413    0.0000 O   0  0  0  0  0  0  0  0  0  0  0  0
    6.4281   -6.2864    0.0000 C   0  0  0  0  0  0  0  0  0  0  0  0
    6.8425   -6.9998    0.0000 C   0  0  0  0  0  0  0  0  0  0  0  0
    6.0175   -7.0019    0.0000 C   0  0  0  0  0  0  0  0  0  0  0  0
    6.0196   -7.8269    0.0000 C   0  0  0  0  0  0  0  0  0  0  0  0
    6.7351   -8.2375    0.0000 C   0  0  0  0  0  0  0  0  0  0  0  0
    4.5950   -9.4806    0.0000 C   0  0  0  0  0  0  0  0  0  0  0  0
    5.3084   -9.0663    0.0000 O   0  0  0  0  0  0  0  0  0  0  0  0
    9.5952   -9.0551    0.0000 O   0  0  0  0  0  0  0  0  0  0  0  0
    8.1662   -9.0588    0.0000 O   0  0  0  0  0  0  0  0  0  0  0  0
    7.4528   -9.4732    0.0000 C   0  0  0  0  0  0  0  0  0  0  0  0
    6.7373   -9.0625    0.0000 C   0  0  0  0  0  0  0  0  0  0  0  0
    6.0239   -9.4769    0.0000 C   0  0  0  0  0  0  0  0  0  0  0  0
    6.0261  -10.3019    0.0000 C   0  0  0  0  0  0  0  0  0  0  0  0
    6.7416  -10.7125    0.0000 C   0  0  0  0  0  0  0  0  0  0  0  0
    7.4550  -10.2982    0.0000 C   0  0  0  0  0  0  0  0  0  0  0  0
    8.1705  -10.7088    0.0000 C   0  0  0  0  0  0  0  0  0  0  0  0
    8.8839  -10.2944    0.0000 C   0  0  0  0  0  0  0  0  0  0  0  0
    8.8818   -9.4694    0.0000 C   0  0  0  0  0  0  0  0  0  0  0  0
 15  9  1  0  0  0  0
  7  3  1  0  0  0  0
  3  2  1  0  0  0  0
  2  1  1  0  0  0  0
  8  4  1  0  0  0  0
  7  5  1  0  0  0  0
  7  6  1  0  0  0  0
  8  7  1  0  0  0  0
  9  8  1  0  0  0  0
 16 11  1  0  0  0  0
 11 10  1  0  0  0  0
 22 12  2  0  0  0  0
 22 13  1  0  0  0  0
 14 13  1  0  0  0  0
 19 14  2  0  0  0  0
 15 14  1  0  0  0  0
 16 15  2  0  0  0  0
 17 16  1  0  0  0  0
 18 17  2  0  0  0  0
 19 18  1  0  0  0  0
 20 19  1  0  0  0  0
 21 20  2  0  0  0  0
 22 21  1  0  0  0  0
M  END
>  <cdx:fragmentId>
5

$$$$
