302752.cdx
  Mrv1902 05222410262D          

 12 12  0  0  0  0            999 V2000
    7.7911   -6.0609    0.0000 O   0  0  0  0  0  0  0  0  0  0  0  0
    8.5026   -6.4786    0.0000 C   0  0  1  0  0  0  0  0  0  0  0  0
    8.4965   -7.3036    0.0000 C   0  0  2  0  0  0  0  0  0  0  0  0
    7.7791   -7.7109    0.0000 C   0  0  2  0  0  0  0  0  0  0  0  0
    7.0676   -7.2932    0.0000 C   0  0  2  0  0  0  0  0  0  0  0  0
    7.0737   -6.4682    0.0000 C   0  0  1  0  0  0  0  0  0  0  0  0
    9.2200   -6.0714    0.0000 O   0  0  0  0  0  0  0  0  0  0  0  0
    9.2080   -7.7213    0.0000 O   0  0  0  0  0  0  0  0  0  0  0  0
    7.7730   -8.5359    0.0000 O   0  0  0  0  0  0  0  0  0  0  0  0
    6.3502   -7.7004    0.0000 O   0  0  0  0  0  0  0  0  0  0  0  0
    6.3622   -6.0505    0.0000 C   0  0  0  0  0  0  0  0  0  0  0  0
    5.6448   -6.4578    0.0000 O   0  0  0  0  0  0  0  0  0  0  0  0
  1  2  1  0  0  0  0
  2  3  1  0  0  0  0
  3  4  1  0  0  0  0
  4  5  1  0  0  0  0
  5  6  1  0  0  0  0
  1  6  1  0  0  0  0
  2  7  1  6  0  0  0
  3  8  1  1  0  0  0
  4  9  1  1  0  0  0
  5 10  1  1  0  0  0
 11 12  1  0  0  0  0
  6 11  1  1  0  0  0
M  END
>  <cdx:fragmentId>
7

$$$$
