302732.cdx
  Mrv1902 05222410242D          

 46 51  0  0  0  0            999 V2000
    4.5257   -5.3029    0.0000 C   0  0  0  0  0  0  0  0  0  0  0  0
    3.9423   -5.8863    0.0000 C   0  0  0  0  0  0  0  0  0  0  0  0
    3.1454   -5.6727    0.0000 C   0  0  0  0  0  0  0  0  0  0  0  0
    4.2825   -4.5145    0.0000 O   0  0  0  0  0  0  0  0  0  0  0  0
    5.3300   -5.4865    0.0000 O   0  0  0  0  0  0  0  0  0  0  0  0
    5.2552   -7.6679    0.0000 C   0  0  2  0  0  0  0  0  0  0  0  0
    4.6102   -8.1823    0.0000 C   0  0  2  0  0  0  0  0  0  0  0  0
    3.8256   -7.9274    0.0000 C   0  0  0  0  0  0  0  0  0  0  0  0
    3.3407   -8.5948    0.0000 C   0  0  0  0  0  0  0  0  0  0  0  0
    3.8256   -9.2623    0.0000 C   0  0  0  0  0  0  0  0  0  0  0  0
    4.6102   -9.0073    0.0000 C   0  0  1  0  0  0  0  0  0  0  0  0
    5.2552   -9.5217    0.0000 C   0  0  1  0  0  0  0  0  0  0  0  0
    6.0595   -9.3381    0.0000 C   0  0  1  0  0  0  0  0  0  0  0  0
    6.8822   -9.2765    0.0000 O   0  0  0  0  0  0  0  0  0  0  0  0
    6.4175   -8.5948    0.0000 C   0  0  1  0  0  0  0  0  0  0  0  0
    6.0595   -7.8515    0.0000 C   0  0  1  0  0  0  0  0  0  0  0  0
    6.6207   -7.2467    0.0000 C   0  0  1  0  0  0  0  0  0  0  0  0
    7.4456   -7.2591    0.0000 O   0  0  0  0  0  0  0  0  0  0  0  0
    7.7122   -6.4784    0.0000 C   0  0  0  0  0  0  0  0  0  0  0  0
    7.0521   -5.9835    0.0000 O   0  0  0  0  0  0  0  0  0  0  0  0
    6.3775   -6.4584    0.0000 C   0  0  1  0  0  0  0  0  0  0  0  0
    5.5732   -6.2748    0.0000 C   0  0  1  0  0  0  0  0  0  0  0  0
    5.0120   -6.8796    0.0000 C   0  0  1  0  0  0  0  0  0  0  0  0
    5.8025   -6.9850    0.0000 O   0  0  0  0  0  0  0  0  0  0  0  0
    3.5706  -10.0469    0.0000 O   0  0  0  0  0  0  0  0  0  0  0  0
    4.2077   -6.6960    0.0000 C   0  0  0  0  0  0  0  0  0  0  0  0
    2.5157   -8.5948    0.0000 C   0  0  0  0  0  0  0  0  0  0  0  0
    6.1825  -10.1539    0.0000 C   0  0  0  0  0  0  0  0  0  0  0  0
    6.9505  -10.4553    0.0000 O   0  0  0  0  0  0  0  0  0  0  0  0
    5.0716  -10.3260    0.0000 O   0  0  0  0  0  0  0  0  0  0  0  0
    4.4629   -9.8191    0.0000 O   0  0  0  0  0  0  0  0  0  0  0  0
    4.4629   -7.3706    0.0000 H   0  0  0  0  0  0  0  0  0  0  0  0
    6.8564   -8.0650    0.0000 H   0  0  0  0  0  0  0  0  0  0  0  0
    2.5621   -6.2561    0.0000 C   0  0  0  0  0  0  0  0  0  0  0  0
    6.3775   -5.6334    0.0000 C   0  0  0  0  0  0  0  0  0  0  0  0
    5.6630   -5.2209    0.0000 C   0  0  0  0  0  0  0  0  0  0  0  0
    7.0920   -5.2209    0.0000 C   0  0  0  0  0  0  0  0  0  0  0  0
    8.5006   -6.2352    0.0000 C   0  0  0  0  0  0  0  0  0  0  0  0
    9.1053   -6.7963    0.0000 C   0  0  0  0  0  0  0  0  0  0  0  0
    9.8937   -6.5532    0.0000 C   0  0  0  0  0  0  0  0  0  0  0  0
   10.4985   -7.1143    0.0000 C   0  0  0  0  0  0  0  0  0  0  0  0
   11.2868   -6.8711    0.0000 C   0  0  0  0  0  0  0  0  0  0  0  0
   11.8916   -7.4323    0.0000 C   0  0  0  0  0  0  0  0  0  0  0  0
   12.6799   -7.1891    0.0000 C   0  0  0  0  0  0  0  0  0  0  0  0
   13.2847   -7.7502    0.0000 C   0  0  0  0  0  0  0  0  0  0  0  0
   14.0730   -7.5071    0.0000 C   0  0  0  0  0  0  0  0  0  0  0  0
  1  2  1  0  0  0  0
  2  3  1  0  0  0  0
  1  4  2  0  0  0  0
  1  5  1  0  0  0  0
  6  7  1  0  0  0  0
  7  8  1  0  0  0  0
  8  9  2  0  0  0  0
  9 10  1  0  0  0  0
 10 11  1  0  0  0  0
 11 12  1  0  0  0  0
 12 13  1  0  0  0  0
 13 14  1  6  0  0  0
 15 14  1  6  0  0  0
 15 16  1  0  0  0  0
 16 17  1  0  0  0  0
 17 18  1  6  0  0  0
 19 18  1  0  0  0  0
 19 20  1  0  0  0  0
 21 20  1  6  0  0  0
 21 22  1  0  0  0  0
 22 23  1  0  0  0  0
  6 23  1  0  0  0  0
  6 24  1  6  0  0  0
 24 19  1  0  0  0  0
 17 21  1  0  0  0  0
  6 16  1  0  0  0  0
 13 15  1  0  0  0  0
  7 11  1  0  0  0  0
 10 25  2  0  0  0  0
 23 26  1  6  0  0  0
  9 27  1  0  0  0  0
 28 29  1  0  0  0  0
 13 28  1  0  0  0  0
 12 30  1  1  0  0  0
 11 31  1  1  0  0  0
 22  5  1  1  0  0  0
  7 32  1  6  0  0  0
 16 33  1  1  0  0  0
  3 34  1  0  0  0  0
 21 35  1  0  0  0  0
 35 36  1  0  0  0  0
 35 37  2  0  0  0  0
 19 38  1  0  0  0  0
 38 39  2  0  0  0  0
 39 40  1  0  0  0  0
 40 41  2  0  0  0  0
 41 42  1  0  0  0  0
 42 43  1  0  0  0  0
 43 44  1  0  0  0  0
 44 45  1  0  0  0  0
 45 46  1  0  0  0  0
M  END
>  <cdx:fragmentId>
17

$$$$
