302744.cdx
  Mrv1902 05222410272D          

 20 22  0  0  0  0            999 V2000
    9.0022   -6.6250    0.0000 O   0  0  0  0  0  0  0  0  0  0  0  0
    9.4871   -7.2924    0.0000 C   0  0  0  0  0  0  0  0  0  0  0  0
    9.0022   -7.9599    0.0000 C   0  0  0  0  0  0  0  0  0  0  0  0
    8.2175   -7.7049    0.0000 C   0  0  0  0  0  0  0  0  0  0  0  0
    7.5031   -8.1174    0.0000 C   0  0  0  0  0  0  0  0  0  0  0  0
    6.7886   -7.7049    0.0000 C   0  0  1  0  0  0  0  0  0  0  0  0
    6.7886   -6.8799    0.0000 C   0  0  2  0  0  0  0  0  0  0  0  0
    7.5031   -6.4674    0.0000 C   0  0  0  0  0  0  0  0  0  0  0  0
    8.2175   -6.8799    0.0000 C   0  0  0  0  0  0  0  0  0  0  0  0
    6.0741   -6.4674    0.0000 C   0  0  2  0  0  0  0  0  0  0  0  0
    5.3597   -6.8799    0.0000 C   0  0  0  0  0  0  0  0  0  0  0  0
    5.3597   -7.7049    0.0000 C   0  0  0  0  0  0  0  0  0  0  0  0
    6.0741   -8.1174    0.0000 C   0  0  2  0  0  0  0  0  0  0  0  0
    7.5031   -8.9424    0.0000 O   0  0  0  0  0  0  0  0  0  0  0  0
    6.7886   -6.0549    0.0000 C   0  0  0  0  0  0  0  0  0  0  0  0
    5.6616   -8.8319    0.0000 C   0  0  0  0  0  0  0  0  0  0  0  0
    9.2571   -8.7445    0.0000 C   0  0  0  0  0  0  0  0  0  0  0  0
    6.0741   -5.6424    0.0000 O   0  0  0  0  0  0  0  0  0  0  0  0
    6.4866   -8.8319    0.0000 O   0  0  0  0  0  0  0  0  0  0  0  0
    6.7886   -8.5299    0.0000 H   0  0  0  0  0  0  0  0  0  0  0  0
  1  2  1  0  0  0  0
  2  3  2  0  0  0  0
  3  4  1  0  0  0  0
  4  5  1  0  0  0  0
  5  6  1  0  0  0  0
  6  7  1  0  0  0  0
  7  8  1  0  0  0  0
  8  9  1  0  0  0  0
  4  9  2  0  0  0  0
  1  9  1  0  0  0  0
 10 11  1  0  0  0  0
 11 12  1  0  0  0  0
 12 13  1  0  0  0  0
 13  6  1  0  0  0  0
 10  7  1  0  0  0  0
  5 14  2  0  0  0  0
  7 15  1  6  0  0  0
 13 16  1  1  0  0  0
  3 17  1  0  0  0  0
 10 18  1  6  0  0  0
 13 19  1  6  0  0  0
  6 20  1  1  0  0  0
M  END
>  <cdx:groupId>
64

>  <cdx:fragmentId>
5

$$$$
