302729.cdx
  Mrv1902 05222410222D          

 31 33  0  0  0  0            999 V2000
    8.3284   -5.8432    0.0000 C   0  0  0  0  0  0  0  0  0  0  0  0
    7.6182   -5.4235    0.0000 C   0  0  0  0  0  0  0  0  0  0  0  0
    7.6265   -4.5986    0.0000 C   0  0  0  0  0  0  0  0  0  0  0  0
    8.3451   -4.1933    0.0000 C   0  0  0  0  0  0  0  0  0  0  0  0
    6.9163   -4.1788    0.0000 C   0  0  0  0  0  0  0  0  0  0  0  0
    9.7322   -8.3326    0.0000 C   0  0  0  0  0  0  0  0  0  0  0  0
    9.7239   -9.1575    0.0000 C   0  0  0  0  0  0  0  0  0  0  0  0
   10.4341   -9.5772    0.0000 C   0  0  0  0  0  0  0  0  0  0  0  0
   11.1527   -9.1720    0.0000 C   0  0  0  0  0  0  0  0  0  0  0  0
    4.7103  -10.3443    0.0000 O   0  0  0  0  0  0  0  0  0  0  0  0
    3.3065   -7.8550    0.0000 O   0  0  0  0  0  0  0  0  0  0  0  0
    9.7489   -6.6827    0.0000 O   0  0  0  0  0  0  0  0  0  0  0  0
    6.8995   -5.8288    0.0000 O   0  0  0  0  0  0  0  0  0  0  0  0
   10.4258  -10.4022    0.0000 C   0  0  0  0  0  0  0  0  0  0  0  0
    8.3034   -8.3181    0.0000 C   0  0  0  0  0  0  0  0  0  0  0  0
    9.0220   -7.9129    0.0000 C   0  0  0  0  0  0  0  0  0  0  0  0
    9.0303   -7.0879    0.0000 C   0  0  0  0  0  0  0  0  0  0  0  0
    8.3201   -6.6682    0.0000 C   0  0  0  0  0  0  0  0  0  0  0  0
    7.6015   -7.0734    0.0000 C   0  0  0  0  0  0  0  0  0  0  0  0
    7.5931   -7.8984    0.0000 C   0  0  0  0  0  0  0  0  0  0  0  0
    6.1392  -10.3588    0.0000 O   0  0  0  0  0  0  0  0  0  0  0  0
    6.1642   -7.8839    0.0000 O   0  0  0  0  0  0  0  0  0  0  0  0
    5.4456   -8.2892    0.0000 C   0  0  0  0  0  0  0  0  0  0  0  0
    4.7354   -7.8694    0.0000 C   0  0  0  0  0  0  0  0  0  0  0  0
    4.0167   -8.2747    0.0000 C   0  0  0  0  0  0  0  0  0  0  0  0
    4.0084   -9.0996    0.0000 C   0  0  0  0  0  0  0  0  0  0  0  0
    4.7186   -9.5194    0.0000 C   0  0  0  0  0  0  0  0  0  0  0  0
    5.4373   -9.1141    0.0000 C   0  0  0  0  0  0  0  0  0  0  0  0
    6.1475   -9.5338    0.0000 C   0  0  0  0  0  0  0  0  0  0  0  0
    6.8661   -9.1286    0.0000 C   0  0  0  0  0  0  0  0  0  0  0  0
    6.8745   -8.3036    0.0000 C   0  0  0  0  0  0  0  0  0  0  0  0
 27 10  1  0  0  0  0
 25 11  1  0  0  0  0
 31 20  1  0  0  0  0
 17 12  1  0  0  0  0
 18  1  1  0  0  0  0
 16  6  1  0  0  0  0
 20 15  2  0  0  0  0
 16 15  1  0  0  0  0
 17 16  2  0  0  0  0
 18 17  1  0  0  0  0
 19 18  2  0  0  0  0
 20 19  1  0  0  0  0
 29 21  2  0  0  0  0
 31 22  1  0  0  0  0
 23 22  1  0  0  0  0
 28 23  2  0  0  0  0
 24 23  1  0  0  0  0
 25 24  2  0  0  0  0
 26 25  1  0  0  0  0
 27 26  2  0  0  0  0
 28 27  1  0  0  0  0
 29 28  1  0  0  0  0
 30 29  1  0  0  0  0
 31 30  2  0  0  0  0
  1  2  1  0  0  0  0
  2  3  1  0  0  0  0
  3  4  2  0  0  0  0
  3  5  1  0  0  0  0
  2 13  1  0  0  0  0
  6  7  1  0  0  0  0
  7  8  2  0  0  0  0
  8  9  1  0  0  0  0
  8 14  1  0  0  0  0
M  END
>  <cdx:groupId>
97

>  <cdx:fragmentId>
27

$$$$
