302776.cdx
  Mrv1902 05222410202D          

 30 31  0  0  0  0            999 V2000
    4.6942   -8.1724    0.0000 C   0  0  0  0  0  0  0  0  0  0  0  0
    1.1219   -7.7599    0.0000 C   0  0  0  0  0  0  0  0  0  0  0  0
    2.5508   -8.5849    0.0000 C   0  0  0  0  0  0  0  0  0  0  0  0
    7.5521   -6.5224    0.0000 C   0  0  0  0  0  0  0  0  0  0  0  0
   10.4100   -6.5224    0.0000 C   0  0  0  0  0  0  0  0  0  0  0  0
   13.2679   -6.5224    0.0000 C   0  0  0  0  0  0  0  0  0  0  0  0
   13.9823   -7.7599    0.0000 C   0  0  0  0  0  0  0  0  0  0  0  0
   13.2679   -7.3474    0.0000 C   0  0  0  0  0  0  0  0  0  0  0  0
   12.5534   -7.7599    0.0000 C   0  0  0  0  0  0  0  0  0  0  0  0
   11.8389   -7.3474    0.0000 C   0  0  0  0  0  0  0  0  0  0  0  0
   11.1245   -7.7599    0.0000 C   0  0  0  0  0  0  0  0  0  0  0  0
   10.4100   -7.3474    0.0000 C   0  0  0  0  0  0  0  0  0  0  0  0
    9.6955   -7.7599    0.0000 C   0  0  0  0  0  0  0  0  0  0  0  0
    8.9810   -7.3474    0.0000 C   0  0  0  0  0  0  0  0  0  0  0  0
    8.2666   -7.7599    0.0000 C   0  0  0  0  0  0  0  0  0  0  0  0
    7.5521   -7.3474    0.0000 C   0  0  0  0  0  0  0  0  0  0  0  0
    6.8376   -7.7599    0.0000 C   0  0  0  0  0  0  0  0  0  0  0  0
    6.1232   -7.3474    0.0000 C   0  0  0  0  0  0  0  0  0  0  0  0
    5.4087   -7.7599    0.0000 C   0  0  0  0  0  0  0  0  0  0  0  0
    1.1219   -6.1099    0.0000 O   0  0  0  0  0  0  0  0  0  0  0  0
    3.9797   -7.7599    0.0000 O   0  0  0  0  0  0  0  0  0  0  0  0
    3.2653   -7.3474    0.0000 C   0  0  0  0  0  0  0  0  0  0  0  0
    2.5508   -7.7599    0.0000 C   0  0  0  0  0  0  0  0  0  0  0  0
    1.8363   -7.3474    0.0000 C   0  0  0  0  0  0  0  0  0  0  0  0
    1.8363   -6.5224    0.0000 C   0  0  0  0  0  0  0  0  0  0  0  0
    2.5508   -6.1099    0.0000 C   0  0  0  0  0  0  0  0  0  0  0  0
    3.2653   -6.5224    0.0000 C   0  0  0  0  0  0  0  0  0  0  0  0
    3.9797   -6.1099    0.0000 C   0  0  0  0  0  0  0  0  0  0  0  0
    4.6942   -6.5224    0.0000 C   0  0  0  0  0  0  0  0  0  0  0  0
    4.6942   -7.3474    0.0000 C   0  0  2  0  0  0  0  0  0  0  0  0
 30  1  1  6  0  0  0
 24  2  1  0  0  0  0
 23  3  1  0  0  0  0
 30 19  1  0  0  0  0
 16  4  1  0  0  0  0
 12  5  1  0  0  0  0
  8  6  1  0  0  0  0
  8  7  1  0  0  0  0
  9  8  2  0  0  0  0
 10  9  1  0  0  0  0
 11 10  1  0  0  0  0
 12 11  1  0  0  0  0
 13 12  2  0  0  0  0
 14 13  1  0  0  0  0
 15 14  1  0  0  0  0
 16 15  1  0  0  0  0
 17 16  2  0  0  0  0
 18 17  1  0  0  0  0
 19 18  1  0  0  0  0
 25 20  1  0  0  0  0
 30 21  1  0  0  0  0
 22 21  1  0  0  0  0
 27 22  2  0  0  0  0
 23 22  1  0  0  0  0
 24 23  2  0  0  0  0
 25 24  1  0  0  0  0
 26 25  2  0  0  0  0
 27 26  1  0  0  0  0
 28 27  1  0  0  0  0
 29 28  1  0  0  0  0
 30 29  1  0  0  0  0
M  END
>  <cdx:groupId>
93

>  <cdx:fragmentId>
27

$$$$
