302759.cdx
  Mrv1902 05222410192D          

 36 39  0  0  0  0            999 V2000
   12.7470   -6.4048    0.0000 O   0  0  0  0  0  0  0  0  0  0  0  0
   11.9220   -6.4048    0.0000 C   0  0  0  0  0  0  0  0  0  0  0  0
   11.5095   -7.1192    0.0000 C   0  0  0  0  0  0  0  0  0  0  0  0
   10.6845   -7.1192    0.0000 C   0  0  0  0  0  0  0  0  0  0  0  0
   10.2720   -6.4048    0.0000 C   0  0  0  0  0  0  0  0  0  0  0  0
   10.6845   -5.6903    0.0000 C   0  0  0  0  0  0  0  0  0  0  0  0
   11.5095   -5.6903    0.0000 C   0  0  0  0  0  0  0  0  0  0  0  0
   11.9220   -7.8337    0.0000 O   0  0  0  0  0  0  0  0  0  0  0  0
   12.7470   -7.8337    0.0000 C   0  0  0  0  0  0  0  0  0  0  0  0
    8.9621   -7.0722    0.0000 O   0  0  0  0  0  0  0  0  0  0  0  0
    9.4470   -6.4048    0.0000 C   0  0  2  0  0  0  0  0  0  0  0  0
    8.9621   -5.7373    0.0000 C   0  0  1  0  0  0  0  0  0  0  0  0
    8.1775   -5.9923    0.0000 C   0  0  0  0  0  0  0  0  0  0  0  0
    7.4630   -5.5798    0.0000 C   0  0  0  0  0  0  0  0  0  0  0  0
    6.7485   -5.9923    0.0000 C   0  0  0  0  0  0  0  0  0  0  0  0
    6.7485   -6.8173    0.0000 C   0  0  0  0  0  0  0  0  0  0  0  0
    7.4630   -7.2298    0.0000 C   0  0  0  0  0  0  0  0  0  0  0  0
    8.1775   -6.8173    0.0000 C   0  0  0  0  0  0  0  0  0  0  0  0
    6.0340   -5.5798    0.0000 C   0  0  0  0  0  0  0  0  0  0  0  0
    5.3196   -5.9923    0.0000 C   0  0  0  0  0  0  0  0  0  0  0  0
    4.6051   -5.5798    0.0000 C   0  0  0  0  0  0  0  0  0  0  0  0
    3.8906   -5.9923    0.0000 O   0  0  0  0  0  0  0  0  0  0  0  0
    9.2170   -4.9527    0.0000 C   0  0  0  0  0  0  0  0  0  0  0  0
    8.6337   -4.3693    0.0000 O   0  0  0  0  0  0  0  0  0  0  0  0
    7.4630   -8.0548    0.0000 O   0  0  0  0  0  0  0  0  0  0  0  0
    8.1775   -8.4673    0.0000 C   0  0  0  0  0  0  0  0  0  0  0  0
    3.1762   -5.5798    0.0000 C   0  0  2  0  0  0  0  0  0  0  0  0
    3.1762   -4.7548    0.0000 O   0  0  0  0  0  0  0  0  0  0  0  0
    2.4617   -4.3423    0.0000 C   0  0  2  0  0  0  0  0  0  0  0  0
    1.7472   -4.7548    0.0000 C   0  0  1  0  0  0  0  0  0  0  0  0
    1.7472   -5.5798    0.0000 C   0  0  2  0  0  0  0  0  0  0  0  0
    2.4617   -5.9923    0.0000 C   0  0  1  0  0  0  0  0  0  0  0  0
    1.0327   -4.3423    0.0000 O   0  0  0  0  0  0  0  0  0  0  0  0
    2.4617   -3.5173    0.0000 C   0  0  0  0  0  0  0  0  0  0  0  0
    2.4617   -6.8173    0.0000 O   0  0  0  0  0  0  0  0  0  0  0  0
    1.0327   -5.9923    0.0000 O   0  0  0  0  0  0  0  0  0  0  0  0
  2  3  1  0  0  0  0
  3  4  2  0  0  0  0
  4  5  1  0  0  0  0
  5  6  2  0  0  0  0
  6  7  1  0  0  0  0
  2  7  2  0  0  0  0
  1  2  1  0  0  0  0
  8  9  1  0  0  0  0
  3  8  1  0  0  0  0
 10 11  1  0  0  0  0
 11 12  1  0  0  0  0
 12 13  1  0  0  0  0
 13 14  1  0  0  0  0
 14 15  2  0  0  0  0
 15 16  1  0  0  0  0
 16 17  2  0  0  0  0
 17 18  1  0  0  0  0
 13 18  2  0  0  0  0
 10 18  1  0  0  0  0
 19 20  1  0  0  0  0
 20 21  1  0  0  0  0
 21 22  1  0  0  0  0
 15 19  1  0  0  0  0
 23 24  1  0  0  0  0
 12 23  1  1  0  0  0
 17 25  1  0  0  0  0
 11  5  1  6  0  0  0
 25 26  1  0  0  0  0
 27 22  1  1  0  0  0
 27 28  1  0  0  0  0
 28 29  1  0  0  0  0
 29 30  1  0  0  0  0
 30 31  1  0  0  0  0
 31 32  1  0  0  0  0
 32 27  1  0  0  0  0
 30 33  1  1  0  0  0
 29 34  1  6  0  0  0
 32 35  1  6  0  0  0
 31 36  1  6  0  0  0
M  END
>  <cdx:fragmentId>
270

$$$$
