302743.cdx
  Mrv1902 05222410282D          

 22 24  0  0  0  0            999 V2000
    7.2790   -8.4645    0.0000 N   0  0  0  0  0  0  0  0  0  0  0  0
    7.9934   -8.0520    0.0000 C   0  0  0  0  0  0  0  0  0  0  0  0
    7.9934   -7.2270    0.0000 C   0  0  0  0  0  0  0  0  0  0  0  0
    7.2790   -6.8145    0.0000 C   0  0  0  0  0  0  0  0  0  0  0  0
    6.5645   -7.2270    0.0000 C   0  0  0  0  0  0  0  0  0  0  0  0
    5.8500   -6.8145    0.0000 C   0  0  0  0  0  0  0  0  0  0  0  0
    5.1355   -7.2270    0.0000 C   0  0  0  0  0  0  0  0  0  0  0  0
    5.1355   -8.0520    0.0000 C   0  0  0  0  0  0  0  0  0  0  0  0
    5.8500   -8.4645    0.0000 C   0  0  0  0  0  0  0  0  0  0  0  0
    6.5645   -8.0520    0.0000 C   0  0  0  0  0  0  0  0  0  0  0  0
    8.7079   -6.8145    0.0000 C   0  0  0  0  0  0  0  0  0  0  0  0
    8.7079   -5.9895    0.0000 C   0  0  0  0  0  0  0  0  0  0  0  0
    7.9934   -5.5770    0.0000 C   0  0  0  0  0  0  0  0  0  0  0  0
    7.2790   -5.9895    0.0000 O   0  0  0  0  0  0  0  0  0  0  0  0
    8.7079   -8.4645    0.0000 O   0  0  0  0  0  0  0  0  0  0  0  0
    7.2790   -9.2895    0.0000 C   0  0  0  0  0  0  0  0  0  0  0  0
    7.5809   -4.8625    0.0000 C   0  0  0  0  0  0  0  0  0  0  0  0
    8.4059   -4.8625    0.0000 C   0  0  0  0  0  0  0  0  0  0  0  0
    5.8500   -9.2895    0.0000 O   0  0  0  0  0  0  0  0  0  0  0  0
    5.1355   -9.7020    0.0000 C   0  0  0  0  0  0  0  0  0  0  0  0
    9.4224   -7.2270    0.0000 O   0  0  0  0  0  0  0  0  0  0  0  0
    9.4224   -5.5770    0.0000 O   0  0  0  0  0  0  0  0  0  0  0  0
  1  2  1  0  0  0  0
  2  3  1  0  0  0  0
  3  4  2  0  0  0  0
  4  5  1  0  0  0  0
  5  6  1  0  0  0  0
  6  7  2  0  0  0  0
  7  8  1  0  0  0  0
  8  9  2  0  0  0  0
  9 10  1  0  0  0  0
  1 10  1  0  0  0  0
  5 10  2  0  0  0  0
 11 12  1  0  0  0  0
 12 13  1  0  0  0  0
 13 14  1  0  0  0  0
 11  3  1  0  0  0  0
 14  4  1  0  0  0  0
  2 15  2  0  0  0  0
  1 16  1  0  0  0  0
 13 17  1  0  0  0  0
 13 18  1  0  0  0  0
 19 20  1  0  0  0  0
  9 19  1  0  0  0  0
 11 21  1  0  0  0  0
 12 22  1  0  0  0  0
M  END
>  <cdx:groupId>
70

>  <cdx:fragmentId>
5

$$$$
