302737.cdx
  Mrv1902 05222410242D          

 41 44  0  0  0  0            999 V2000
    3.8775   -6.0775    0.0000 C   0  0  1  0  0  0  0  0  0  0  0  0
    4.0910   -6.7919    0.0000 C   0  0  0  0  0  0  0  0  0  0  0  0
    4.8879   -6.5784    0.0000 C   0  0  1  0  0  0  0  0  0  0  0  0
    5.6024   -6.9909    0.0000 C   0  0  0  0  0  0  0  0  0  0  0  0
    6.0149   -6.2764    0.0000 C   0  0  0  0  0  0  0  0  0  0  0  0
    5.3900   -5.7475    0.0000 C   0  0  2  0  0  0  0  0  0  0  0  0
    3.6888   -7.5122    0.0000 O   0  0  0  0  0  0  0  0  0  0  0  0
    3.1630   -5.6650    0.0000 O   0  0  0  0  0  0  0  0  0  0  0  0
    4.6744   -7.3753    0.0000 H   0  0  0  0  0  0  0  0  0  0  0  0
    5.8025   -5.0330    0.0000 H   0  0  0  0  0  0  0  0  0  0  0  0
    4.3450   -5.3350    0.0000 C   0  0  1  0  0  0  0  0  0  0  0  0
    5.0050   -4.8125    0.0000 C   0  0  1  0  0  0  0  0  0  0  0  0
    5.1836   -4.0071    0.0000 C   0  0  0  0  0  0  0  0  0  0  0  0
    5.9704   -3.7590    0.0000 C   0  0  0  0  0  0  0  0  0  0  0  0
    6.1490   -2.9536    0.0000 C   0  0  0  0  0  0  0  0  0  0  0  0
    5.5408   -2.3962    0.0000 C   0  0  0  0  0  0  0  0  0  0  0  0
    4.7540   -2.6442    0.0000 C   0  0  0  0  0  0  0  0  0  0  0  0
    4.5754   -3.4497    0.0000 C   0  0  0  0  0  0  0  0  0  0  0  0
    5.7194   -1.5908    0.0000 O   0  0  0  0  0  0  0  0  0  0  0  0
    6.9359   -2.7055    0.0000 O   0  0  0  0  0  0  0  0  0  0  0  0
    3.6305   -4.9225    0.0000 C   0  0  0  0  0  0  0  0  0  0  0  0
    2.9161   -5.3350    0.0000 O   0  0  0  0  0  0  0  0  0  0  0  0
    3.6305   -4.0975    0.0000 O   0  0  0  0  0  0  0  0  0  0  0  0
    5.8159   -7.7878    0.0000 C   0  0  0  0  0  0  0  0  0  0  0  0
    6.6128   -8.0013    0.0000 C   0  0  0  0  0  0  0  0  0  0  0  0
    6.8263   -8.7982    0.0000 C   0  0  0  0  0  0  0  0  0  0  0  0
    6.2430   -9.3815    0.0000 O   0  0  0  0  0  0  0  0  0  0  0  0
    7.6232   -9.0117    0.0000 O   0  0  0  0  0  0  0  0  0  0  0  0
    8.0357   -9.7262    0.0000 C   0  0  2  0  0  0  0  0  0  0  0  0
    8.8607   -9.7262    0.0000 C   0  0  0  0  0  0  0  0  0  0  0  0
    7.6232  -10.4406    0.0000 C   0  0  0  0  0  0  0  0  0  0  0  0
    8.0357  -11.1551    0.0000 O   0  0  0  0  0  0  0  0  0  0  0  0
    6.7982  -10.4406    0.0000 O   0  0  0  0  0  0  0  0  0  0  0  0
    9.2732  -10.4406    0.0000 C   0  0  0  0  0  0  0  0  0  0  0  0
    8.8607  -11.1551    0.0000 C   0  0  0  0  0  0  0  0  0  0  0  0
    9.2732  -11.8696    0.0000 C   0  0  0  0  0  0  0  0  0  0  0  0
   10.0982  -11.8696    0.0000 C   0  0  0  0  0  0  0  0  0  0  0  0
   10.5107  -11.1551    0.0000 C   0  0  0  0  0  0  0  0  0  0  0  0
   10.0982  -10.4406    0.0000 C   0  0  0  0  0  0  0  0  0  0  0  0
    8.8607  -12.5840    0.0000 O   0  0  0  0  0  0  0  0  0  0  0  0
   10.5107  -12.5840    0.0000 O   0  0  0  0  0  0  0  0  0  0  0  0
  1  2  1  0  0  0  0
  2  3  1  0  0  0  0
  3  4  1  0  0  0  0
  4  5  2  0  0  0  0
  5  6  1  0  0  0  0
  6  1  1  0  0  0  0
  2  7  2  0  0  0  0
  1  8  1  6  0  0  0
  3  9  1  1  0  0  0
  6 10  1  6  0  0  0
  3 11  1  0  0  0  0
  6 12  1  0  0  0  0
 11 12  1  0  0  0  0
 12 13  1  1  0  0  0
 13 14  2  0  0  0  0
 14 15  1  0  0  0  0
 15 16  2  0  0  0  0
 16 17  1  0  0  0  0
 17 18  2  0  0  0  0
 18 13  1  0  0  0  0
 16 19  1  0  0  0  0
 15 20  1  0  0  0  0
 11 21  1  6  0  0  0
 21 22  1  0  0  0  0
 21 23  2  0  0  0  0
  4 24  1  0  0  0  0
 24 25  2  0  0  0  0
 25 26  1  0  0  0  0
 26 27  2  0  0  0  0
 26 28  1  0  0  0  0
 29 28  1  6  0  0  0
 29 30  1  0  0  0  0
 29 31  1  0  0  0  0
 31 32  1  0  0  0  0
 31 33  2  0  0  0  0
 30 34  1  0  0  0  0
 34 35  2  0  0  0  0
 35 36  1  0  0  0  0
 36 37  2  0  0  0  0
 37 38  1  0  0  0  0
 38 39  2  0  0  0  0
 39 34  1  0  0  0  0
 36 40  1  0  0  0  0
 37 41  1  0  0  0  0
M  END
>  <cdx:fragmentId>
172

$$$$
