302766.cdx
  Mrv1902 05222410182D          

 11 11  0  0  0  0            999 V2000
    7.0482   -8.2832    0.0000 C   0  0  0  0  0  0  0  0  0  0  0  0
    6.3356   -7.8676    0.0000 C   0  0  0  0  0  0  0  0  0  0  0  0
    6.3391   -7.0426    0.0000 C   0  0  0  0  0  0  0  0  0  0  0  0
    7.0554   -6.6332    0.0000 C   0  0  0  0  0  0  0  0  0  0  0  0
    7.7681   -7.0488    0.0000 C   0  0  0  0  0  0  0  0  0  0  0  0
    7.7645   -7.8738    0.0000 C   0  0  0  0  0  0  0  0  0  0  0  0
    7.0447   -9.1082    0.0000 C   0  0  0  0  0  0  0  0  0  0  0  0
    7.7573   -9.5238    0.0000 O   0  0  0  0  0  0  0  0  0  0  0  0
    7.7752   -5.3988    0.0000 C   0  0  0  0  0  0  0  0  0  0  0  0
    7.0590   -5.8082    0.0000 C   0  0  0  0  0  0  0  0  0  0  0  0
    6.3463   -5.3926    0.0000 C   0  0  0  0  0  0  0  0  0  0  0  0
  1  2  2  0  0  0  0
  2  3  1  0  0  0  0
  3  4  2  0  0  0  0
  4  5  1  0  0  0  0
  5  6  1  0  0  0  0
  1  6  1  0  0  0  0
  7  8  2  0  0  0  0
  1  7  1  0  0  0  0
  9 10  1  0  0  0  0
 10 11  1  0  0  0  0
  4 10  1  0  0  0  0
M  END
>  <cdx:fragmentId>
5

$$$$
