302779.cdx
  Mrv1902 05222410262D          

 17 18  0  0  0  0            999 V2000
    5.7181   -6.6676    0.0000 C   0  0  0  0  0  0  0  0  0  0  0  0
    5.7181   -7.4926    0.0000 C   0  0  0  0  0  0  0  0  0  0  0  0
    6.4325   -7.9051    0.0000 C   0  0  2  0  0  0  0  0  0  0  0  0
    7.1470   -7.4926    0.0000 C   0  0  1  0  0  0  0  0  0  0  0  0
    7.1470   -6.6676    0.0000 C   0  0  1  0  0  0  0  0  0  0  0  0
    6.4325   -6.2551    0.0000 C   0  0  0  0  0  0  0  0  0  0  0  0
    7.8615   -7.9051    0.0000 C   0  0  0  0  0  0  0  0  0  0  0  0
    8.5759   -7.4926    0.0000 C   0  0  0  0  0  0  0  0  0  0  0  0
    8.5759   -6.6676    0.0000 C   0  0  0  0  0  0  0  0  0  0  0  0
    7.8615   -6.2551    0.0000 C   0  0  0  0  0  0  0  0  0  0  0  0
    6.4325   -5.4301    0.0000 C   0  0  0  0  0  0  0  0  0  0  0  0
    9.2904   -7.9051    0.0000 C   0  0  0  0  0  0  0  0  0  0  0  0
    6.4325   -8.7301    0.0000 C   0  0  0  0  0  0  0  0  0  0  0  0
    7.1470   -9.1426    0.0000 C   0  0  0  0  0  0  0  0  0  0  0  0
    5.7181   -9.1426    0.0000 C   0  0  0  0  0  0  0  0  0  0  0  0
    7.1470   -8.3176    0.0000 H   0  0  0  0  0  0  0  0  0  0  0  0
    7.1470   -5.8426    0.0000 H   0  0  0  0  0  0  0  0  0  0  0  0
  1  2  1  0  0  0  0
  2  3  1  0  0  0  0
  3  4  1  0  0  0  0
  4  5  1  0  0  0  0
  5  6  1  0  0  0  0
  6  1  1  0  0  0  0
  4  7  1  0  0  0  0
  7  8  1  0  0  0  0
  8  9  1  0  0  0  0
  9 10  1  0  0  0  0
 10  5  1  0  0  0  0
  6 11  2  0  0  0  0
  8 12  2  0  0  0  0
  3 13  1  6  0  0  0
 13 14  1  0  0  0  0
 13 15  1  0  0  0  0
  4 16  1  6  0  0  0
  5 17  1  6  0  0  0
M  END
>  <cdx:fragmentId>
73

$$$$
