302769.cdx
  Mrv1902 05222410272D          

 16 17  0  0  0  0            999 V2000
    8.2508   -9.1632    0.0000 C   0  0  0  0  0  0  0  0  0  0  0  0
    5.5459   -7.7112    0.0000 C   0  0  0  0  0  0  0  0  0  0  0  0
    7.6084   -8.4256    0.0000 C   0  0  0  0  0  0  0  0  0  0  0  0
    6.7834   -8.4256    0.0000 C   0  0  0  0  0  0  0  0  0  0  0  0
    6.3709   -7.7112    0.0000 C   0  0  0  0  0  0  0  0  0  0  0  0
    6.7834   -6.9967    0.0000 C   0  0  0  0  0  0  0  0  0  0  0  0
    7.6084   -6.9967    0.0000 C   0  0  0  0  0  0  0  0  0  0  0  0
    8.0209   -7.7112    0.0000 C   0  0  0  0  0  0  0  0  0  0  0  0
    8.5058   -7.0437    0.0000 C   0  0  0  0  0  0  0  0  0  0  0  0
    9.2904   -7.2987    0.0000 C   0  0  0  0  0  0  0  0  0  0  0  0
    9.2904   -8.1237    0.0000 C   0  0  0  0  0  0  0  0  0  0  0  0
    8.5058   -8.3786    0.0000 C   0  0  2  0  0  0  0  0  0  0  0  0
    7.9959   -5.4745    0.0000 O   0  0  0  0  0  0  0  0  0  0  0  0
    7.4439   -6.0876    0.0000 C   0  0  0  0  0  0  0  0  0  0  0  0
    8.2508   -6.2591    0.0000 C   0  0  0  0  0  0  0  0  0  0  0  0
    8.8029   -5.6460    0.0000 C   0  0  0  0  0  0  0  0  0  0  0  0
  9 15  1  0  0  0  0
 12  1  1  6  0  0  0
  5  2  2  0  0  0  0
  8  3  1  0  0  0  0
 12  8  1  0  0  0  0
  4  3  1  0  0  0  0
  5  4  1  0  0  0  0
  6  5  1  0  0  0  0
  7  6  1  0  0  0  0
  8  7  1  0  0  0  0
  9  8  1  0  0  0  0
 10  9  1  0  0  0  0
 11 10  1  0  0  0  0
 12 11  1  0  0  0  0
 15 13  1  0  0  0  0
 15 14  1  0  0  0  0
 16 15  1  0  0  0  0
M  END
>  <cdx:fragmentId>
13

$$$$
