302749.cdx
  Mrv1902 05222410192D          

 18 17  0  0  0  0            999 V2000
    5.6961   -4.8519    0.0000 N   0  0  0  0  0  0  0  0  0  0  0  0
    6.4179   -5.2515    0.0000 C   0  0  0  0  0  0  0  0  0  0  0  0
    7.1248   -4.8262    0.0000 C   0  0  2  0  0  0  0  0  0  0  0  0
    7.8466   -5.2258    0.0000 C   0  0  0  0  0  0  0  0  0  0  0  0
    6.4327   -6.0764    0.0000 O   0  0  0  0  0  0  0  0  0  0  0  0
    8.5535   -4.8005    0.0000 C   0  0  0  0  0  0  0  0  0  0  0  0
    8.5387   -3.9757    0.0000 O   0  0  0  0  0  0  0  0  0  0  0  0
    9.2753   -5.2001    0.0000 O   0  0  0  0  0  0  0  0  0  0  0  0
    7.1100   -4.0013    0.0000 N   0  0  0  0  0  0  0  0  0  0  0  0
    3.6198   -8.6023    0.0000 N   0  0  0  0  0  0  0  0  0  0  0  0
    3.5604   -5.3029    0.0000 O   0  0  0  0  0  0  0  0  0  0  0  0
    4.2525   -4.0527    0.0000 O   0  0  0  0  0  0  0  0  0  0  0  0
    3.6049   -7.7775    0.0000 C   0  0  0  0  0  0  0  0  0  0  0  0
    4.3119   -7.3522    0.0000 C   0  0  0  0  0  0  0  0  0  0  0  0
    4.2970   -6.5273    0.0000 C   0  0  0  0  0  0  0  0  0  0  0  0
    5.0040   -6.1021    0.0000 C   0  0  0  0  0  0  0  0  0  0  0  0
    4.9891   -5.2772    0.0000 C   0  0  1  0  0  0  0  0  0  0  0  0
    4.2674   -4.8776    0.0000 C   0  0  0  0  0  0  0  0  0  0  0  0
 13 10  1  0  0  0  0
 18 11  1  0  0  0  0
 18 12  2  0  0  0  0
 14 13  1  0  0  0  0
 15 14  1  0  0  0  0
 16 15  1  0  0  0  0
 17 16  1  0  0  0  0
 17 18  1  0  0  0  0
  2  3  1  0  0  0  0
  3  4  1  0  0  0  0
  2  5  2  0  0  0  0
  6  7  2  0  0  0  0
  6  8  1  0  0  0  0
  4  6  1  0  0  0  0
  3  9  1  1  0  0  0
  1  2  1  0  0  0  0
 17  1  1  1  0  0  0
M  END
>  <cdx:groupId>
55

>  <cdx:fragmentId>
23

$$$$
