302746.cdx
  Mrv1902 05222410262D          

 78 87  0  0  0  0            999 V2000
    8.7281   -6.3272    0.0000 O   0  0  0  0  0  0  0  0  0  0  0  0
    9.4426   -6.7397    0.0000 C   0  0  2  0  0  0  0  0  0  0  0  0
   10.1571   -6.3272    0.0000 C   0  0  1  0  0  0  0  0  0  0  0  0
   10.1571   -5.5022    0.0000 C   0  0  1  0  0  0  0  0  0  0  0  0
    9.4426   -5.0897    0.0000 C   0  0  2  0  0  0  0  0  0  0  0  0
    8.7281   -5.5022    0.0000 C   0  0  2  0  0  0  0  0  0  0  0  0
   10.8715   -6.7397    0.0000 O   0  0  0  0  0  0  0  0  0  0  0  0
   10.8715   -5.0897    0.0000 O   0  0  0  0  0  0  0  0  0  0  0  0
    9.4426   -4.2647    0.0000 O   0  0  0  0  0  0  0  0  0  0  0  0
    8.0137   -5.0897    0.0000 C   0  0  0  0  0  0  0  0  0  0  0  0
    9.4426   -7.5647    0.0000 O   0  0  0  0  0  0  0  0  0  0  0  0
    8.0137   -9.2147    0.0000 O   0  0  0  0  0  0  0  0  0  0  0  0
    8.7281   -8.8022    0.0000 C   0  0  2  0  0  0  0  0  0  0  0  0
    8.7281   -7.9772    0.0000 C   0  0  1  0  0  0  0  0  0  0  0  0
    8.0137   -7.5647    0.0000 C   0  0  2  0  0  0  0  0  0  0  0  0
    7.2992   -7.9772    0.0000 C   0  0  1  0  0  0  0  0  0  0  0  0
    7.2992   -8.8022    0.0000 C   0  0  1  0  0  0  0  0  0  0  0  0
    9.4426   -9.2147    0.0000 O   0  0  0  0  0  0  0  0  0  0  0  0
   13.0150   -7.9772    0.0000 C   0  0  1  0  0  0  0  0  0  0  0  0
   13.7294   -7.5647    0.0000 C   0  0  2  0  0  0  0  0  0  0  0  0
   14.5140   -7.8196    0.0000 C   0  0  0  0  0  0  0  0  0  0  0  0
   14.9990   -7.1522    0.0000 C   0  0  2  0  0  0  0  0  0  0  0  0
   15.7836   -6.8972    0.0000 O   0  0  0  0  0  0  0  0  0  0  0  0
   15.7836   -6.0722    0.0000 C   0  0  2  0  0  0  0  0  0  0  0  0
   14.9990   -5.8173    0.0000 C   0  0  2  0  0  0  0  0  0  0  0  0
   14.5140   -6.4847    0.0000 C   0  0  2  0  0  0  0  0  0  0  0  0
   13.7294   -6.7397    0.0000 C   0  0  1  0  0  0  0  0  0  0  0  0
   13.0150   -6.3272    0.0000 C   0  0  0  0  0  0  0  0  0  0  0  0
   12.3005   -6.7397    0.0000 C   0  0  0  0  0  0  0  0  0  0  0  0
   12.3005   -7.5647    0.0000 C   0  0  2  0  0  0  0  0  0  0  0  0
   11.5860   -7.9772    0.0000 C   0  0  1  0  0  0  0  0  0  0  0  0
   10.8715   -7.5647    0.0000 C   0  0  0  0  0  0  0  0  0  0  0  0
   10.1571   -7.9772    0.0000 C   0  0  0  0  0  0  0  0  0  0  0  0
   10.1571   -8.8022    0.0000 C   0  0  1  0  0  0  0  0  0  0  0  0
   10.8715   -9.2147    0.0000 C   0  0  0  0  0  0  0  0  0  0  0  0
   11.5860   -8.8022    0.0000 C   0  0  0  0  0  0  0  0  0  0  0  0
   12.3005   -9.2147    0.0000 C   0  0  0  0  0  0  0  0  0  0  0  0
   13.0150   -8.8022    0.0000 C   0  0  0  0  0  0  0  0  0  0  0  0
   15.6974   -5.2518    0.0000 O   0  0  0  0  0  0  0  0  0  0  0  0
   16.5373   -6.4078    0.0000 C   0  0  0  0  0  0  0  0  0  0  0  0
   17.2047   -5.9229    0.0000 C   0  0  0  0  0  0  0  0  0  0  0  0
   17.1185   -5.1024    0.0000 C   0  0  2  0  0  0  0  0  0  0  0  0
   16.3648   -4.7668    0.0000 C   0  0  0  0  0  0  0  0  0  0  0  0
   11.5860   -7.1522    0.0000 C   0  0  0  0  0  0  0  0  0  0  0  0
   13.5862   -5.9272    0.0000 C   0  0  0  0  0  0  0  0  0  0  0  0
   14.7440   -5.0327    0.0000 C   0  0  0  0  0  0  0  0  0  0  0  0
   17.7859   -4.6175    0.0000 C   0  0  0  0  0  0  0  0  0  0  0  0
    6.5847   -9.2147    0.0000 C   0  0  0  0  0  0  0  0  0  0  0  0
    6.5847  -10.0397    0.0000 O   0  0  0  0  0  0  0  0  0  0  0  0
    8.0137   -6.7397    0.0000 O   0  0  0  0  0  0  0  0  0  0  0  0
    6.5847   -7.5647    0.0000 O   0  0  0  0  0  0  0  0  0  0  0  0
    5.8702   -8.8022    0.0000 O   0  0  0  0  0  0  0  0  0  0  0  0
    5.8702   -7.9772    0.0000 C   0  0  2  0  0  0  0  0  0  0  0  0
    5.1558   -7.5647    0.0000 C   0  0  1  0  0  0  0  0  0  0  0  0
    4.4413   -7.9772    0.0000 C   0  0  2  0  0  0  0  0  0  0  0  0
    4.4413   -8.8022    0.0000 C   0  0  1  0  0  0  0  0  0  0  0  0
    5.1558   -9.2147    0.0000 C   0  0  1  0  0  0  0  0  0  0  0  0
    3.7268   -7.5647    0.0000 O   0  0  0  0  0  0  0  0  0  0  0  0
    3.0124   -8.8022    0.0000 O   0  0  0  0  0  0  0  0  0  0  0  0
    3.0124   -7.9772    0.0000 C   0  0  2  0  0  0  0  0  0  0  0  0
    2.2979   -7.5647    0.0000 C   0  0  1  0  0  0  0  0  0  0  0  0
    1.5834   -7.9772    0.0000 C   0  0  2  0  0  0  0  0  0  0  0  0
    1.5834   -8.8022    0.0000 C   0  0  1  0  0  0  0  0  0  0  0  0
    2.2979   -9.2147    0.0000 C   0  0  1  0  0  0  0  0  0  0  0  0
    2.2979  -10.0397    0.0000 C   0  0  0  0  0  0  0  0  0  0  0  0
    1.5834  -10.4522    0.0000 O   0  0  0  0  0  0  0  0  0  0  0  0
    0.8689   -9.2147    0.0000 O   0  0  0  0  0  0  0  0  0  0  0  0
    0.8689   -7.5647    0.0000 O   0  0  0  0  0  0  0  0  0  0  0  0
    2.2979   -6.7397    0.0000 O   0  0  0  0  0  0  0  0  0  0  0  0
    5.1558  -10.0397    0.0000 C   0  0  0  0  0  0  0  0  0  0  0  0
    4.4413  -10.4522    0.0000 O   0  0  0  0  0  0  0  0  0  0  0  0
    3.7268   -9.2147    0.0000 O   0  0  0  0  0  0  0  0  0  0  0  0
    5.1558   -6.7397    0.0000 O   0  0  0  0  0  0  0  0  0  0  0  0
   13.0150   -7.1522    0.0000 H   0  0  0  0  0  0  0  0  0  0  0  0
   13.7294   -8.3897    0.0000 H   0  0  0  0  0  0  0  0  0  0  0  0
   15.4839   -7.8196    0.0000 H   0  0  0  0  0  0  0  0  0  0  0  0
   14.1524   -5.7432    0.0000 H   0  0  0  0  0  0  0  0  0  0  0  0
   12.3005   -8.3897    0.0000 H   0  0  0  0  0  0  0  0  0  0  0  0
  1  2  1  0  0  0  0
  2  3  1  0  0  0  0
  3  4  1  0  0  0  0
  4  5  1  0  0  0  0
  5  6  1  0  0  0  0
  1  6  1  0  0  0  0
  3  7  1  1  0  0  0
  4  8  1  1  0  0  0
  5  9  1  6  0  0  0
  6 10  1  1  0  0  0
 12 13  1  0  0  0  0
 13 14  1  0  0  0  0
 14 15  1  0  0  0  0
 15 16  1  0  0  0  0
 16 17  1  0  0  0  0
 12 17  1  0  0  0  0
 19 20  1  0  0  0  0
 20 21  1  0  0  0  0
 21 22  1  0  0  0  0
 22 23  1  0  0  0  0
 23 24  1  0  0  0  0
 24 25  1  0  0  0  0
 25 26  1  0  0  0  0
 26 27  1  0  0  0  0
 27 28  1  0  0  0  0
 28 29  1  0  0  0  0
 29 30  1  0  0  0  0
 30 31  1  0  0  0  0
 31 32  1  0  0  0  0
 32 33  1  0  0  0  0
 33 34  1  0  0  0  0
 34 35  1  0  0  0  0
 35 36  1  0  0  0  0
 36 37  2  0  0  0  0
 37 38  1  0  0  0  0
 19 38  1  0  0  0  0
 19 30  1  0  0  0  0
 31 36  1  0  0  0  0
 20 27  1  0  0  0  0
 22 26  1  0  0  0  0
 40 41  1  0  0  0  0
 41 42  1  0  0  0  0
 42 43  1  0  0  0  0
 39 43  1  0  0  0  0
 24 39  1  6  0  0  0
 24 40  1  1  0  0  0
 31 44  1  1  0  0  0
 27 45  1  1  0  0  0
 25 46  1  6  0  0  0
 42 47  1  6  0  0  0
 34 18  1  1  0  0  0
 13 18  1  6  0  0  0
 48 49  1  0  0  0  0
 17 48  1  6  0  0  0
 15 50  1  6  0  0  0
 52 53  1  0  0  0  0
 53 54  1  0  0  0  0
 54 55  1  0  0  0  0
 55 56  1  0  0  0  0
 56 57  1  0  0  0  0
 52 57  1  0  0  0  0
 59 60  1  0  0  0  0
 60 61  1  0  0  0  0
 61 62  1  0  0  0  0
 62 63  1  0  0  0  0
 63 64  1  0  0  0  0
 59 64  1  0  0  0  0
 65 66  1  0  0  0  0
 64 65  1  6  0  0  0
 63 67  1  1  0  0  0
 62 68  1  6  0  0  0
 61 69  1  1  0  0  0
 60 58  1  6  0  0  0
 55 58  1  6  0  0  0
 70 71  1  0  0  0  0
 57 70  1  6  0  0  0
 56 72  1  1  0  0  0
 54 73  1  1  0  0  0
 53 51  1  6  0  0  0
 16 51  1  1  0  0  0
 14 11  1  1  0  0  0
  2 11  1  6  0  0  0
 19 74  1  1  0  0  0
 20 75  1  6  0  0  0
 22 76  1  6  0  0  0
 26 77  1  6  0  0  0
 30 78  1  6  0  0  0
M  END
>  <cdx:groupId>
245

>  <cdx:fragmentId>
41

$$$$
