302739.cdx
  Mrv1902 05222410212D          

 16 15  0  0  0  0            999 V2000
    3.4855   -7.5812    0.0000 O   0  0  0  0  0  0  0  0  0  0  0  0
    4.2000   -8.8187    0.0000 O   0  0  0  0  0  0  0  0  0  0  0  0
    8.4868   -7.9937    0.0000 C   0  0  0  0  0  0  0  0  0  0  0  0
    7.7724   -7.5812    0.0000 C   0  0  0  0  0  0  0  0  0  0  0  0
    7.0579   -7.9937    0.0000 C   0  0  0  0  0  0  0  0  0  0  0  0
    6.3434   -7.5812    0.0000 C   0  0  0  0  0  0  0  0  0  0  0  0
    5.6289   -7.9937    0.0000 C   0  0  0  0  0  0  0  0  0  0  0  0
    4.9145   -7.5812    0.0000 C   0  0  0  0  0  0  0  0  0  0  0  0
    4.2000   -7.9937    0.0000 C   0  0  0  0  0  0  0  0  0  0  0  0
    9.2013   -7.5812    0.0000 C   0  0  0  0  0  0  0  0  0  0  0  0
    9.2013   -6.7562    0.0000 C   0  0  0  0  0  0  0  0  0  0  0  0
    9.9158   -6.3437    0.0000 C   0  0  0  0  0  0  0  0  0  0  0  0
    9.9158   -5.5187    0.0000 C   0  0  0  0  0  0  0  0  0  0  0  0
   10.6302   -5.1062    0.0000 C   0  0  0  0  0  0  0  0  0  0  0  0
   10.6302   -4.2812    0.0000 C   0  0  0  0  0  0  0  0  0  0  0  0
   11.3447   -3.8687    0.0000 C   0  0  0  0  0  0  0  0  0  0  0  0
  9  1  1  0  0  0  0
  9  2  2  0  0  0  0
  4  3  1  0  0  0  0
  5  4  1  0  0  0  0
  6  5  1  0  0  0  0
  7  6  1  0  0  0  0
  8  7  1  0  0  0  0
  9  8  1  0  0  0  0
  3 10  2  0  0  0  0
 10 11  1  0  0  0  0
 11 12  1  0  0  0  0
 12 13  1  0  0  0  0
 13 14  1  0  0  0  0
 14 15  1  0  0  0  0
 15 16  1  0  0  0  0
M  END
>  <cdx:fragmentId>
5

$$$$
