30279.cdx
  Mrv1902 05222410202D          

 24 25  0  0  0  0            999 V2000
    6.4151   -7.4514    0.0000 C   0  0  0  0  0  0  0  0  0  0  0  0
    5.7006   -7.0389    0.0000 C   0  0  2  0  0  0  0  0  0  0  0  0
    4.9861   -7.4514    0.0000 C   0  0  0  0  0  0  0  0  0  0  0  0
    4.2717   -7.0389    0.0000 C   0  0  0  0  0  0  0  0  0  0  0  0
    3.5572   -7.4514    0.0000 C   0  0  0  0  0  0  0  0  0  0  0  0
    2.8427   -7.0389    0.0000 O   0  0  0  0  0  0  0  0  0  0  0  0
    2.1282   -7.4514    0.0000 C   0  0  0  0  0  0  0  0  0  0  0  0
    1.4138   -7.0389    0.0000 C   0  0  0  0  0  0  0  0  0  0  0  0
    6.4151   -8.2764    0.0000 C   0  0  0  0  0  0  0  0  0  0  0  0
    5.7006   -8.6889    0.0000 C   0  0  0  0  0  0  0  0  0  0  0  0
    7.1295   -8.6889    0.0000 C   0  0  0  0  0  0  0  0  0  0  0  0
    7.8440   -8.2764    0.0000 C   0  0  2  0  0  0  0  0  0  0  0  0
    7.8440   -7.4514    0.0000 C   0  0  2  0  0  0  0  0  0  0  0  0
    7.1295   -7.0389    0.0000 C   0  0  2  0  0  0  0  0  0  0  0  0
    8.6286   -8.5313    0.0000 O   0  0  0  0  0  0  0  0  0  0  0  0
    9.1136   -7.8639    0.0000 C   0  0  0  0  0  0  0  0  0  0  0  0
    8.6286   -7.1965    0.0000 C   0  0  0  0  0  0  0  0  0  0  0  0
    8.8836   -6.4118    0.0000 C   0  0  0  0  0  0  0  0  0  0  0  0
    9.9386   -7.8639    0.0000 O   0  0  0  0  0  0  0  0  0  0  0  0
    2.1282   -8.2764    0.0000 O   0  0  0  0  0  0  0  0  0  0  0  0
    7.1295   -6.2139    0.0000 O   0  0  0  0  0  0  0  0  0  0  0  0
    7.9302   -6.6309    0.0000 H   0  0  0  0  0  0  0  0  0  0  0  0
    7.9302   -9.0969    0.0000 H   0  0  0  0  0  0  0  0  0  0  0  0
    5.7006   -6.2139    0.0000 C   0  0  0  0  0  0  0  0  0  0  0  0
  2  1  1  0  0  0  0
  3  2  1  0  0  0  0
  4  3  1  0  0  0  0
  5  4  1  0  0  0  0
  6  5  1  0  0  0  0
  7  6  1  0  0  0  0
  8  7  1  0  0  0  0
  1  9  2  0  0  0  0
  9 10  1  0  0  0  0
  9 11  1  0  0  0  0
 11 12  1  0  0  0  0
 12 13  1  0  0  0  0
 13 14  1  0  0  0  0
 14  1  1  0  0  0  0
 12 15  1  0  0  0  0
 15 16  1  0  0  0  0
 16 17  1  0  0  0  0
 17 13  1  0  0  0  0
 17 18  2  0  0  0  0
 16 19  2  0  0  0  0
  7 20  2  0  0  0  0
 14 21  1  1  0  0  0
 13 22  1  1  0  0  0
 12 23  1  1  0  0  0
  2 24  1  6  0  0  0
M  END
>  <cdx:fragmentId>
3

$$$$
