302753.cdx
  Mrv1902 05222410262D          

 12 12  0  0  0  0            999 V2000
    7.7820   -6.0583    0.0000 O   0  0  0  0  0  0  0  0  0  0  0  0
    8.4965   -6.4707    0.0000 C   0  0  1  0  0  0  0  0  0  0  0  0
    8.4966   -7.2957    0.0000 C   0  0  2  0  0  0  0  0  0  0  0  0
    7.7821   -7.7083    0.0000 C   0  0  2  0  0  0  0  0  0  0  0  0
    7.0676   -7.2958    0.0000 C   0  0  1  0  0  0  0  0  0  0  0  0
    7.0676   -6.4708    0.0000 C   0  0  1  0  0  0  0  0  0  0  0  0
    9.2109   -6.0581    0.0000 O   0  0  0  0  0  0  0  0  0  0  0  0
    9.2111   -7.7081    0.0000 O   0  0  0  0  0  0  0  0  0  0  0  0
    7.7822   -8.5333    0.0000 O   0  0  0  0  0  0  0  0  0  0  0  0
    6.3532   -7.7084    0.0000 O   0  0  0  0  0  0  0  0  0  0  0  0
    6.3531   -6.0584    0.0000 C   0  0  0  0  0  0  0  0  0  0  0  0
    5.6386   -6.4709    0.0000 O   0  0  0  0  0  0  0  0  0  0  0  0
  1  2  1  0  0  0  0
  2  3  1  0  0  0  0
  3  4  1  0  0  0  0
  4  5  1  0  0  0  0
  5  6  1  0  0  0  0
  1  6  1  0  0  0  0
  2  7  1  6  0  0  0
  3  8  1  1  0  0  0
  4  9  1  1  0  0  0
  5 10  1  6  0  0  0
 11 12  1  0  0  0  0
  6 11  1  1  0  0  0
M  END
>  <cdx:groupId>
38

>  <cdx:fragmentId>
5

$$$$
