302718.cdx
  Mrv1902 05222410232D          

 23 26  0  0  0  0            999 V2000
    6.2376   -7.7755    0.0000 N   0  0  0  0  0  0  0  0  0  0  0  0
    6.8916   -7.2725    0.0000 C   0  0  0  0  0  0  0  0  0  0  0  0
    6.6154   -6.4951    0.0000 C   0  0  0  0  0  0  0  0  0  0  0  0
    5.7907   -6.5176    0.0000 C   0  0  0  0  0  0  0  0  0  0  0  0
    5.2221   -5.9198    0.0000 C   0  0  0  0  0  0  0  0  0  0  0  0
    4.4201   -6.1133    0.0000 C   0  0  0  0  0  0  0  0  0  0  0  0
    4.1867   -6.9046    0.0000 C   0  0  0  0  0  0  0  0  0  0  0  0
    4.7552   -7.5024    0.0000 C   0  0  0  0  0  0  0  0  0  0  0  0
    5.5572   -7.3089    0.0000 C   0  0  0  0  0  0  0  0  0  0  0  0
    7.0819   -5.8147    0.0000 C   0  0  0  0  0  0  0  0  0  0  0  0
    6.7259   -5.0705    0.0000 O   0  0  0  0  0  0  0  0  0  0  0  0
    7.9044   -5.8786    0.0000 O   0  0  0  0  0  0  0  0  0  0  0  0
    9.6698   -6.6023    0.0000 O   0  0  0  0  0  0  0  0  0  0  0  0
    8.6676   -8.5414    0.0000 C   0  0  0  0  0  0  0  0  0  0  0  0
    8.8611   -9.3434    0.0000 C   0  0  0  0  0  0  0  0  0  0  0  0
    9.6524   -9.5768    0.0000 C   0  0  0  0  0  0  0  0  0  0  0  0
   10.2502   -9.0083    0.0000 C   0  0  0  0  0  0  0  0  0  0  0  0
   10.0567   -8.2063    0.0000 C   0  0  0  0  0  0  0  0  0  0  0  0
    9.2654   -7.9729    0.0000 C   0  0  0  0  0  0  0  0  0  0  0  0
    9.0720   -7.1709    0.0000 C   0  0  0  0  0  0  0  0  0  0  0  0
    8.2807   -6.9374    0.0000 N   0  0  0  0  0  0  0  0  0  0  0  0
    7.6829   -7.5060    0.0000 C   0  0  0  0  0  0  0  0  0  0  0  0
    7.8763   -8.3080    0.0000 N   0  0  0  0  0  0  0  0  0  0  0  0
 20 13  2  0  0  0  0
 19 14  2  0  0  0  0
 23 14  1  0  0  0  0
 15 14  1  0  0  0  0
 16 15  2  0  0  0  0
 17 16  1  0  0  0  0
 18 17  2  0  0  0  0
 19 18  1  0  0  0  0
 20 19  1  0  0  0  0
 21 20  1  0  0  0  0
 22 21  1  0  0  0  0
  1  2  1  0  0  0  0
  2  3  2  0  0  0  0
  3  4  1  0  0  0  0
  4  5  1  0  0  0  0
  5  6  2  0  0  0  0
  6  7  1  0  0  0  0
  7  8  2  0  0  0  0
  8  9  1  0  0  0  0
  1  9  1  0  0  0  0
  4  9  2  0  0  0  0
 10 11  2  0  0  0  0
 10 12  1  0  0  0  0
  3 10  1  0  0  0  0
 23 22  2  0  0  0  0
  2 22  1  0  0  0  0
M  END
>  <cdx:groupId>
74

>  <cdx:fragmentId>
5

$$$$
