302710.cdx
  Mrv1902 05222410202D          

 78 81  0  0  0  0            999 V2000
   29.8875   -8.5355    0.0000 C   0  0  0  0  0  0  0  0  0  0  0  0
   30.7125   -8.5355    0.0000 C   0  0  0  0  0  0  0  0  0  0  0  0
   31.1250   -9.2499    0.0000 C   0  0  0  0  0  0  0  0  0  0  0  0
   31.9500   -9.2499    0.0000 C   0  0  0  0  0  0  0  0  0  0  0  0
   32.3625   -9.9644    0.0000 C   0  0  0  0  0  0  0  0  0  0  0  0
   33.1875   -9.9644    0.0000 C   0  0  0  0  0  0  0  0  0  0  0  0
   33.6000  -10.6789    0.0000 C   0  0  0  0  0  0  0  0  0  0  0  0
   34.4250  -10.6789    0.0000 C   0  0  0  0  0  0  0  0  0  0  0  0
   34.8375  -11.3934    0.0000 C   0  0  0  0  0  0  0  0  0  0  0  0
   35.6625  -11.3934    0.0000 C   0  0  0  0  0  0  0  0  0  0  0  0
   36.0750  -12.1078    0.0000 C   0  0  0  0  0  0  0  0  0  0  0  0
   36.9000  -12.1078    0.0000 C   0  0  0  0  0  0  0  0  0  0  0  0
   37.3125  -12.8223    0.0000 C   0  0  0  0  0  0  0  0  0  0  0  0
   38.1375  -12.8223    0.0000 C   0  0  0  0  0  0  0  0  0  0  0  0
   38.5500  -13.5368    0.0000 C   0  0  0  0  0  0  0  0  0  0  0  0
   39.3750  -13.5368    0.0000 C   0  0  0  0  0  0  0  0  0  0  0  0
   29.4750   -9.2499    0.0000 O   0  0  0  0  0  0  0  0  0  0  0  0
   29.4750   -7.8210    0.0000 O   0  0  0  0  0  0  0  0  0  0  0  0
   27.4125   -7.1065    0.0000 C   0  0  2  0  0  0  0  0  0  0  0  0
   28.2375   -7.1065    0.0000 C   0  0  0  0  0  0  0  0  0  0  0  0
   28.6500   -7.8210    0.0000 C   0  0  2  0  0  0  0  0  0  0  0  0
   28.2375   -8.5355    0.0000 C   0  0  0  0  0  0  0  0  0  0  0  0
   27.4125   -8.5355    0.0000 C   0  0  0  0  0  0  0  0  0  0  0  0
   27.0000   -7.8210    0.0000 C   0  0  2  0  0  0  0  0  0  0  0  0
   26.5875   -7.1065    0.0000 O   0  0  0  0  0  0  0  0  0  0  0  0
   27.4125   -9.3605    0.0000 C   0  0  0  0  0  0  0  0  0  0  0  0
   26.6980   -8.9480    0.0000 C   0  0  0  0  0  0  0  0  0  0  0  0
   27.4125   -6.2815    0.0000 C   0  0  0  0  0  0  0  0  0  0  0  0
   26.2855   -8.2335    0.0000 C   0  0  0  0  0  0  0  0  0  0  0  0
   25.5710   -7.8210    0.0000 C   0  0  0  0  0  0  0  0  0  0  0  0
   24.8566   -8.2335    0.0000 C   0  0  0  0  0  0  0  0  0  0  0  0
   24.1421   -7.8210    0.0000 C   0  0  0  0  0  0  0  0  0  0  0  0
   23.4276   -8.2335    0.0000 C   0  0  0  0  0  0  0  0  0  0  0  0
   22.7131   -7.8210    0.0000 C   0  0  0  0  0  0  0  0  0  0  0  0
   21.9987   -8.2335    0.0000 C   0  0  0  0  0  0  0  0  0  0  0  0
   21.2842   -7.8210    0.0000 C   0  0  0  0  0  0  0  0  0  0  0  0
   20.5697   -8.2335    0.0000 C   0  0  0  0  0  0  0  0  0  0  0  0
   19.8553   -7.8210    0.0000 C   0  0  0  0  0  0  0  0  0  0  0  0
   19.1408   -8.2335    0.0000 C   0  0  0  0  0  0  0  0  0  0  0  0
   18.4263   -7.8210    0.0000 C   0  0  0  0  0  0  0  0  0  0  0  0
   17.7119   -8.2335    0.0000 C   0  0  0  0  0  0  0  0  0  0  0  0
   16.9974   -7.8210    0.0000 C   0  0  0  0  0  0  0  0  0  0  0  0
   16.2829   -8.2335    0.0000 C   0  0  0  0  0  0  0  0  0  0  0  0
   15.5684   -7.8210    0.0000 C   0  0  0  0  0  0  0  0  0  0  0  0
   14.8540   -8.2335    0.0000 C   0  0  0  0  0  0  0  0  0  0  0  0
   14.1395   -7.8210    0.0000 C   0  0  0  0  0  0  0  0  0  0  0  0
   15.5684   -6.9960    0.0000 C   0  0  0  0  0  0  0  0  0  0  0  0
   18.4263   -6.9960    0.0000 C   0  0  0  0  0  0  0  0  0  0  0  0
   21.9987   -9.0585    0.0000 C   0  0  0  0  0  0  0  0  0  0  0  0
   24.8566   -9.0585    0.0000 C   0  0  0  0  0  0  0  0  0  0  0  0
   13.4250   -8.2335    0.0000 C   0  0  2  0  0  0  0  0  0  0  0  0
   13.0125   -7.5190    0.0000 C   0  0  0  0  0  0  0  0  0  0  0  0
   12.1875   -7.5190    0.0000 C   0  0  0  0  0  0  0  0  0  0  0  0
   11.7750   -8.2335    0.0000 C   0  0  1  0  0  0  0  0  0  0  0  0
   12.1875   -8.9480    0.0000 C   0  0  0  0  0  0  0  0  0  0  0  0
   13.0125   -8.9480    0.0000 C   0  0  1  0  0  0  0  0  0  0  0  0
   13.8375   -8.9480    0.0000 O   0  0  0  0  0  0  0  0  0  0  0  0
   13.0125   -9.7730    0.0000 C   0  0  0  0  0  0  0  0  0  0  0  0
   13.0125   -6.6940    0.0000 C   0  0  0  0  0  0  0  0  0  0  0  0
   13.7270   -7.1065    0.0000 C   0  0  0  0  0  0  0  0  0  0  0  0
   10.9500   -8.2335    0.0000 O   0  0  0  0  0  0  0  0  0  0  0  0
   10.5375   -7.5190    0.0000 C   0  0  0  0  0  0  0  0  0  0  0  0
    9.7125   -7.5190    0.0000 C   0  0  0  0  0  0  0  0  0  0  0  0
    9.3000   -6.8046    0.0000 C   0  0  0  0  0  0  0  0  0  0  0  0
    8.4750   -6.8046    0.0000 C   0  0  0  0  0  0  0  0  0  0  0  0
    8.0625   -6.0901    0.0000 C   0  0  0  0  0  0  0  0  0  0  0  0
    7.2375   -6.0901    0.0000 C   0  0  0  0  0  0  0  0  0  0  0  0
    6.8250   -5.3756    0.0000 C   0  0  0  0  0  0  0  0  0  0  0  0
    6.0000   -5.3756    0.0000 C   0  0  0  0  0  0  0  0  0  0  0  0
    5.5875   -4.6611    0.0000 C   0  0  0  0  0  0  0  0  0  0  0  0
    4.7625   -4.6611    0.0000 C   0  0  0  0  0  0  0  0  0  0  0  0
    4.3500   -3.9467    0.0000 C   0  0  0  0  0  0  0  0  0  0  0  0
    3.5250   -3.9467    0.0000 C   0  0  0  0  0  0  0  0  0  0  0  0
    3.1125   -3.2322    0.0000 C   0  0  0  0  0  0  0  0  0  0  0  0
    2.2875   -3.2322    0.0000 C   0  0  0  0  0  0  0  0  0  0  0  0
    1.8750   -2.5177    0.0000 C   0  0  0  0  0  0  0  0  0  0  0  0
    1.0500   -2.5177    0.0000 C   0  0  0  0  0  0  0  0  0  0  0  0
   10.9500   -6.8046    0.0000 O   0  0  0  0  0  0  0  0  0  0  0  0
  1  2  1  0  0  0  0
  2  3  1  0  0  0  0
  3  4  1  0  0  0  0
  4  5  1  0  0  0  0
  5  6  1  0  0  0  0
  6  7  1  0  0  0  0
  7  8  1  0  0  0  0
  8  9  1  0  0  0  0
  9 10  1  0  0  0  0
 10 11  1  0  0  0  0
 11 12  1  0  0  0  0
 12 13  1  0  0  0  0
 13 14  1  0  0  0  0
 14 15  1  0  0  0  0
 15 16  1  0  0  0  0
  1 17  2  0  0  0  0
  1 18  1  0  0  0  0
 19 20  1  0  0  0  0
 20 21  1  0  0  0  0
 21 22  1  0  0  0  0
 22 23  1  0  0  0  0
 23 24  1  0  0  0  0
 24 25  1  0  0  0  0
 19 25  1  0  0  0  0
 19 24  1  0  0  0  0
 23 26  1  0  0  0  0
 23 27  1  0  0  0  0
 19 28  1  1  0  0  0
 29 30  2  0  0  0  0
 30 31  1  0  0  0  0
 31 32  2  0  0  0  0
 32 33  1  0  0  0  0
 33 34  2  0  0  0  0
 34 35  1  0  0  0  0
 35 36  2  0  0  0  0
 36 37  1  0  0  0  0
 37 38  2  0  0  0  0
 38 39  1  0  0  0  0
 39 40  2  0  0  0  0
 40 41  1  0  0  0  0
 41 42  2  0  0  0  0
 42 43  1  0  0  0  0
 43 44  2  0  0  0  0
 44 45  1  0  0  0  0
 45 46  2  0  0  0  0
 44 47  1  0  0  0  0
 40 48  1  0  0  0  0
 35 49  1  0  0  0  0
 31 50  1  0  0  0  0
 51 52  1  0  0  0  0
 52 53  1  0  0  0  0
 53 54  1  0  0  0  0
 54 55  1  0  0  0  0
 55 56  1  0  0  0  0
 56 57  1  0  0  0  0
 51 57  1  0  0  0  0
 51 56  1  0  0  0  0
 56 58  1  1  0  0  0
 52 59  1  0  0  0  0
 52 60  1  0  0  0  0
 62 63  1  0  0  0  0
 63 64  1  0  0  0  0
 64 65  1  0  0  0  0
 65 66  1  0  0  0  0
 66 67  1  0  0  0  0
 67 68  1  0  0  0  0
 68 69  1  0  0  0  0
 69 70  1  0  0  0  0
 70 71  1  0  0  0  0
 71 72  1  0  0  0  0
 72 73  1  0  0  0  0
 73 74  1  0  0  0  0
 74 75  1  0  0  0  0
 75 76  1  0  0  0  0
 76 77  1  0  0  0  0
 62 78  2  0  0  0  0
 61 62  1  0  0  0  0
 54 61  1  1  0  0  0
 51 46  1  1  0  0  0
 24 29  1  1  0  0  0
 21 18  1  1  0  0  0
M  END
>  <cdx:groupId>
239

>  <cdx:fragmentId>
127

$$$$
