302714.cdx
  Mrv1902 05222410232D          

 18 20  0  0  0  0            999 V2000
    6.6745   -8.1188    0.0000 C   0  0  1  0  0  0  0  0  0  0  0  0
    7.3890   -7.7063    0.0000 C   0  0  0  0  0  0  0  0  0  0  0  0
    8.0340   -8.2207    0.0000 C   0  0  0  0  0  0  0  0  0  0  0  0
    8.8383   -8.0371    0.0000 C   0  0  0  0  0  0  0  0  0  0  0  0
    9.1963   -7.2938    0.0000 C   0  0  0  0  0  0  0  0  0  0  0  0
    8.8383   -6.5505    0.0000 C   0  0  0  0  0  0  0  0  0  0  0  0
    8.0340   -6.3669    0.0000 C   0  0  0  0  0  0  0  0  0  0  0  0
    7.3890   -6.8813    0.0000 C   0  0  2  0  0  0  0  0  0  0  0  0
    6.6745   -6.4688    0.0000 C   0  0  0  0  0  0  0  0  0  0  0  0
    5.9600   -6.8813    0.0000 C   0  0  0  0  0  0  0  0  0  0  0  0
    5.9600   -7.7063    0.0000 C   0  0  0  0  0  0  0  0  0  0  0  0
    6.6745   -5.6438    0.0000 O   0  0  0  0  0  0  0  0  0  0  0  0
    5.2456   -8.1188    0.0000 C   0  0  0  0  0  0  0  0  0  0  0  0
    8.9613   -5.7347    0.0000 C   0  0  0  0  0  0  0  0  0  0  0  0
    9.6063   -6.2491    0.0000 C   0  0  0  0  0  0  0  0  0  0  0  0
    7.3890   -8.5313    0.0000 C   0  0  0  0  0  0  0  0  0  0  0  0
    6.6745   -8.9438    0.0000 H   0  0  0  0  0  0  0  0  0  0  0  0
    7.3890   -6.0563    0.0000 H   0  0  0  0  0  0  0  0  0  0  0  0
  1  2  1  0  0  0  0
  2  3  1  0  0  0  0
  3  4  1  0  0  0  0
  4  5  1  0  0  0  0
  5  6  1  0  0  0  0
  6  7  1  0  0  0  0
  7  8  1  0  0  0  0
  8  9  1  0  0  0  0
  9 10  1  0  0  0  0
 10 11  2  0  0  0  0
  1 11  1  0  0  0  0
  1  7  1  0  0  0  0
  2  8  1  0  0  0  0
  9 12  2  0  0  0  0
 11 13  1  0  0  0  0
  6 14  1  0  0  0  0
  6 15  1  0  0  0  0
  2 16  1  0  0  0  0
  1 17  1  1  0  0  0
  8 18  1  6  0  0  0
M  END
>  <cdx:groupId>
58

>  <cdx:fragmentId>
5

$$$$
