30277.cdx
  Mrv1902 05222410262D          

 19 18  0  0  0  0            999 V2000
    1.8538   -7.3139    0.0000 C   0  0  0  0  0  0  0  0  0  0  0  0
    2.5682   -7.7264    0.0000 C   0  0  0  0  0  0  0  0  0  0  0  0
    3.2827   -7.3139    0.0000 C   0  0  0  0  0  0  0  0  0  0  0  0
    3.9972   -7.7264    0.0000 C   0  0  0  0  0  0  0  0  0  0  0  0
    4.7117   -7.3139    0.0000 C   0  0  0  0  0  0  0  0  0  0  0  0
    5.4261   -7.7264    0.0000 C   0  0  0  0  0  0  0  0  0  0  0  0
    6.1406   -7.3139    0.0000 C   0  0  0  0  0  0  0  0  0  0  0  0
    6.8551   -7.7264    0.0000 C   0  0  0  0  0  0  0  0  0  0  0  0
    7.5695   -7.3139    0.0000 C   0  0  0  0  0  0  0  0  0  0  0  0
    8.2840   -7.7264    0.0000 C   0  0  0  0  0  0  0  0  0  0  0  0
    8.9985   -7.3139    0.0000 C   0  0  0  0  0  0  0  0  0  0  0  0
    9.7130   -7.7264    0.0000 C   0  0  0  0  0  0  0  0  0  0  0  0
   10.4274   -7.3139    0.0000 O   0  0  0  0  0  0  0  0  0  0  0  0
   11.1419   -7.7264    0.0000 C   0  0  0  0  0  0  0  0  0  0  0  0
   11.8564   -7.3139    0.0000 C   0  0  0  0  0  0  0  0  0  0  0  0
   12.5708   -7.7264    0.0000 C   0  0  0  0  0  0  0  0  0  0  0  0
   13.2853   -7.3139    0.0000 C   0  0  0  0  0  0  0  0  0  0  0  0
   11.1419   -8.5514    0.0000 O   0  0  0  0  0  0  0  0  0  0  0  0
    9.7130   -8.5514    0.0000 C   0  0  0  0  0  0  0  0  0  0  0  0
  1  2  1  0  0  0  0
  2  3  1  0  0  0  0
  3  4  1  0  0  0  0
  4  5  1  0  0  0  0
  5  6  1  0  0  0  0
  6  7  1  0  0  0  0
  7  8  1  0  0  0  0
  8  9  1  0  0  0  0
  9 10  1  0  0  0  0
 10 11  1  0  0  0  0
 11 12  1  0  0  0  0
 12 13  1  0  0  0  0
 13 14  1  0  0  0  0
 14 15  1  0  0  0  0
 15 16  1  0  0  0  0
 16 17  1  0  0  0  0
 14 18  2  0  0  0  0
 12 19  1  0  0  0  0
M  END
>  <cdx:fragmentId>
3

$$$$
