302767.cdx
  Mrv1902 05222410182D          

 32 33  0  0  0  0            999 V2000
   10.3713   -7.3736    0.0000 C   0  0  0  0  0  0  0  0  0  0  0  0
    5.0025   -8.4838    0.0000 O   0  0  0  0  0  0  0  0  0  0  0  0
    6.4315   -8.4838    0.0000 O   0  0  0  0  0  0  0  0  0  0  0  0
    5.0025   -5.1837    0.0000 O   0  0  0  0  0  0  0  0  0  0  0  0
    6.4315   -5.1837    0.0000 O   0  0  0  0  0  0  0  0  0  0  0  0
    9.1526   -8.1196    0.0000 C   0  0  0  0  0  0  0  0  0  0  0  0
    9.5466   -7.3948    0.0000 C   0  0  0  0  0  0  0  0  0  0  0  0
    9.1159   -6.6912    0.0000 C   0  0  0  0  0  0  0  0  0  0  0  0
    8.2912   -6.7124    0.0000 C   0  0  0  0  0  0  0  0  0  0  0  0
    7.8604   -6.0088    0.0000 C   0  0  0  0  0  0  0  0  0  0  0  0
    6.4315   -7.6587    0.0000 C   0  0  0  0  0  0  0  0  0  0  0  0
    7.1459   -7.2462    0.0000 C   0  0  0  0  0  0  0  0  0  0  0  0
    7.1459   -6.4213    0.0000 C   0  0  0  0  0  0  0  0  0  0  0  0
    6.4315   -6.0088    0.0000 C   0  0  0  0  0  0  0  0  0  0  0  0
    5.0025   -7.6587    0.0000 C   0  0  0  0  0  0  0  0  0  0  0  0
    5.7170   -7.2462    0.0000 C   0  0  0  0  0  0  0  0  0  0  0  0
    5.7170   -6.4213    0.0000 C   0  0  0  0  0  0  0  0  0  0  0  0
    5.0025   -6.0088    0.0000 C   0  0  0  0  0  0  0  0  0  0  0  0
    4.2881   -6.4213    0.0000 C   0  0  0  0  0  0  0  0  0  0  0  0
    4.2881   -7.2462    0.0000 C   0  0  0  0  0  0  0  0  0  0  0  0
    8.5749   -5.5962    0.0000 O   0  0  0  0  0  0  0  0  0  0  0  0
    8.5749   -4.7713    0.0000 C   0  0  0  0  0  0  0  0  0  0  0  0
    7.4479   -5.2943    0.0000 O   0  0  0  0  0  0  0  0  0  0  0  0
    9.2894   -4.3587    0.0000 C   0  0  0  0  0  0  0  0  0  0  0  0
    7.8604   -4.3587    0.0000 O   0  0  0  0  0  0  0  0  0  0  0  0
    9.2894   -3.5337    0.0000 C   0  0  0  0  0  0  0  0  0  0  0  0
    8.4644   -3.5337    0.0000 C   0  0  0  0  0  0  0  0  0  0  0  0
   10.1144   -3.5337    0.0000 C   0  0  0  0  0  0  0  0  0  0  0  0
    9.2894   -2.7088    0.0000 O   0  0  0  0  0  0  0  0  0  0  0  0
    8.5749   -2.2963    0.0000 C   0  0  0  0  0  0  0  0  0  0  0  0
    8.5749   -1.4712    0.0000 O   0  0  0  0  0  0  0  0  0  0  0  0
    7.8604   -2.7087    0.0000 C   0  0  0  0  0  0  0  0  0  0  0  0
  7  1  1  0  0  0  0
  2 15  1  0  0  0  0
 11  3  2  0  0  0  0
 18  4  1  0  0  0  0
 14  5  2  0  0  0  0
  7  6  1  0  0  0  0
  8  7  2  0  0  0  0
  9  8  1  0  0  0  0
 10  9  1  0  0  0  0
 13 10  1  0  0  0  0
 11 16  1  0  0  0  0
 12 11  1  0  0  0  0
 13 12  2  0  0  0  0
 14 13  1  0  0  0  0
 17 14  1  0  0  0  0
 15 20  2  0  0  0  0
 16 15  1  0  0  0  0
 17 16  2  0  0  0  0
 18 17  1  0  0  0  0
 19 18  2  0  0  0  0
 20 19  1  0  0  0  0
 10 21  1  0  0  0  0
 21 22  1  0  0  0  0
 10 23  1  6  0  0  0
 22 24  1  0  0  0  0
 22 25  2  0  0  0  0
 24 26  1  0  0  0  0
 26 27  1  0  0  0  0
 26 28  1  0  0  0  0
 26 29  1  0  0  0  0
 29 30  1  0  0  0  0
 30 31  2  0  0  0  0
 30 32  1  0  0  0  0
M  END
>  <cdx:fragmentId>
5

$$$$
