302763.cdx
  Mrv1902 05222410202D          

 31 35  0  0  0  0            999 V2000
    9.7132   -7.8625    0.0000 O   0  0  0  0  0  0  0  0  0  0  0  0
   10.1981   -8.5299    0.0000 C   0  0  0  0  0  0  0  0  0  0  0  0
    9.7132   -9.1974    0.0000 O   0  0  0  0  0  0  0  0  0  0  0  0
    8.9286   -8.9424    0.0000 C   0  0  0  0  0  0  0  0  0  0  0  0
    8.9286   -8.1174    0.0000 C   0  0  0  0  0  0  0  0  0  0  0  0
    8.2141   -9.3549    0.0000 C   0  0  0  0  0  0  0  0  0  0  0  0
    7.4996   -8.9424    0.0000 C   0  0  0  0  0  0  0  0  0  0  0  0
    7.4996   -8.1174    0.0000 C   0  0  0  0  0  0  0  0  0  0  0  0
    8.2141   -7.7049    0.0000 C   0  0  0  0  0  0  0  0  0  0  0  0
    4.8012   -8.5299    0.0000 O   0  0  0  0  0  0  0  0  0  0  0  0
    5.2861   -7.8625    0.0000 C   0  0  0  0  0  0  0  0  0  0  0  0
    6.0707   -8.1174    0.0000 C   0  0  1  0  0  0  0  0  0  0  0  0
    6.0707   -8.9424    0.0000 C   0  0  2  0  0  0  0  0  0  0  0  0
    5.2861   -9.1974    0.0000 C   0  0  0  0  0  0  0  0  0  0  0  0
    6.7852   -9.3549    0.0000 C   0  0  0  0  0  0  0  0  0  0  0  0
    6.7852   -7.7049    0.0000 C   0  0  2  0  0  0  0  0  0  0  0  0
    5.0311   -7.0779    0.0000 O   0  0  0  0  0  0  0  0  0  0  0  0
    6.7852   -6.8799    0.0000 C   0  0  0  0  0  0  0  0  0  0  0  0
    6.0707   -6.4674    0.0000 C   0  0  0  0  0  0  0  0  0  0  0  0
    6.0707   -5.6424    0.0000 C   0  0  0  0  0  0  0  0  0  0  0  0
    6.7852   -5.2299    0.0000 C   0  0  0  0  0  0  0  0  0  0  0  0
    7.4996   -5.6424    0.0000 C   0  0  0  0  0  0  0  0  0  0  0  0
    7.4996   -6.4674    0.0000 C   0  0  0  0  0  0  0  0  0  0  0  0
    8.2141   -5.2299    0.0000 O   0  0  0  0  0  0  0  0  0  0  0  0
    8.9286   -5.6424    0.0000 C   0  0  0  0  0  0  0  0  0  0  0  0
    5.3562   -5.2299    0.0000 O   0  0  0  0  0  0  0  0  0  0  0  0
    4.6418   -5.6424    0.0000 C   0  0  0  0  0  0  0  0  0  0  0  0
    6.7852   -4.4049    0.0000 O   0  0  0  0  0  0  0  0  0  0  0  0
    8.2141  -10.1799    0.0000 O   0  0  0  0  0  0  0  0  0  0  0  0
    5.9845   -9.7629    0.0000 H   0  0  0  0  0  0  0  0  0  0  0  0
    5.9845   -7.2969    0.0000 H   0  0  0  0  0  0  0  0  0  0  0  0
  1  2  1  0  0  0  0
  2  3  1  0  0  0  0
  3  4  1  0  0  0  0
  4  5  1  0  0  0  0
  1  5  1  0  0  0  0
  6  7  1  0  0  0  0
  7  8  2  0  0  0  0
  8  9  1  0  0  0  0
  9  5  2  0  0  0  0
  6  4  2  0  0  0  0
 10 11  1  0  0  0  0
 11 12  1  0  0  0  0
 12 13  1  0  0  0  0
 13 14  1  0  0  0  0
 10 14  1  0  0  0  0
 16 12  1  0  0  0  0
 15 13  1  0  0  0  0
 15  7  1  0  0  0  0
 16  8  1  0  0  0  0
 11 17  2  0  0  0  0
 18 19  1  0  0  0  0
 19 20  2  0  0  0  0
 20 21  1  0  0  0  0
 21 22  2  0  0  0  0
 22 23  1  0  0  0  0
 18 23  2  0  0  0  0
 24 25  1  0  0  0  0
 22 24  1  0  0  0  0
 26 27  1  0  0  0  0
 20 26  1  0  0  0  0
 21 28  1  0  0  0  0
 16 18  1  6  0  0  0
  6 29  1  0  0  0  0
 13 30  1  6  0  0  0
 12 31  1  1  0  0  0
M  END
>  <cdx:groupId>
99

>  <cdx:fragmentId>
5

$$$$
