302713.cdx
  Mrv1902 05222410212D          

 43 47  0  0  0  0            999 V2000
    8.1458   -6.4764    0.0000 O   0  0  0  0  0  0  0  0  0  0  0  0
    7.4281   -6.8833    0.0000 C   0  0  2  0  0  0  0  0  0  0  0  0
    6.7169   -6.4652    0.0000 C   0  0  1  0  0  0  0  0  0  0  0  0
    6.7234   -5.6402    0.0000 C   0  0  2  0  0  0  0  0  0  0  0  0
    7.4410   -5.2333    0.0000 C   0  0  1  0  0  0  0  0  0  0  0  0
    8.1523   -5.6514    0.0000 C   0  0  1  0  0  0  0  0  0  0  0  0
    8.8699   -5.2446    0.0000 C   0  0  0  0  0  0  0  0  0  0  0  0
    8.8699   -4.4196    0.0000 O   0  0  0  0  0  0  0  0  0  0  0  0
    7.4475   -4.4084    0.0000 O   0  0  0  0  0  0  0  0  0  0  0  0
    6.0121   -5.2221    0.0000 O   0  0  0  0  0  0  0  0  0  0  0  0
    5.9992   -6.8721    0.0000 O   0  0  0  0  0  0  0  0  0  0  0  0
    7.4022  -10.1832    0.0000 O   0  0  0  0  0  0  0  0  0  0  0  0
   12.4325   -6.5101    0.0000 O   0  0  0  0  0  0  0  0  0  0  0  0
   10.2859   -6.9057    0.0000 C   0  0  0  0  0  0  0  0  0  0  0  0
   11.0036   -6.4989    0.0000 C   0  0  0  0  0  0  0  0  0  0  0  0
   11.7148   -6.9169    0.0000 C   0  0  0  0  0  0  0  0  0  0  0  0
   11.7083   -7.7419    0.0000 C   0  0  0  0  0  0  0  0  0  0  0  0
   10.9906   -8.1488    0.0000 C   0  0  0  0  0  0  0  0  0  0  0  0
   10.2794   -7.7307    0.0000 C   0  0  0  0  0  0  0  0  0  0  0  0
    5.9798   -9.3470    0.0000 O   0  0  0  0  0  0  0  0  0  0  0  0
    4.5444  -10.1608    0.0000 O   0  0  0  0  0  0  0  0  0  0  0  0
    3.1220   -9.3246    0.0000 O   0  0  0  0  0  0  0  0  0  0  0  0
    2.4172   -8.0815    0.0000 O   0  0  0  0  0  0  0  0  0  0  0  0
    3.1349   -7.6746    0.0000 C   0  0  0  0  0  0  0  0  0  0  0  0
    3.8461   -8.0927    0.0000 C   0  0  2  0  0  0  0  0  0  0  0  0
    3.8397   -8.9177    0.0000 C   0  0  2  0  0  0  0  0  0  0  0  0
    4.5509   -9.3358    0.0000 C   0  0  1  0  0  0  0  0  0  0  0  0
    5.2686   -8.9289    0.0000 C   0  0  2  0  0  0  0  0  0  0  0  0
    5.2750   -8.1039    0.0000 C   0  0  1  0  0  0  0  0  0  0  0  0
    4.5638   -7.6858    0.0000 O   0  0  0  0  0  0  0  0  0  0  0  0
    5.9927   -7.6971    0.0000 O   0  0  0  0  0  0  0  0  0  0  0  0
    8.8311  -10.1944    0.0000 O   0  0  0  0  0  0  0  0  0  0  0  0
    8.8505   -7.7195    0.0000 O   0  0  0  0  0  0  0  0  0  0  0  0
    8.1328   -8.1264    0.0000 C   0  0  0  0  0  0  0  0  0  0  0  0
    7.4216   -7.7083    0.0000 C   0  0  0  0  0  0  0  0  0  0  0  0
    6.7039   -8.1151    0.0000 C   0  0  0  0  0  0  0  0  0  0  0  0
    6.6974   -8.9401    0.0000 C   0  0  0  0  0  0  0  0  0  0  0  0
    7.4087   -9.3582    0.0000 C   0  0  0  0  0  0  0  0  0  0  0  0
    8.1263   -8.9513    0.0000 C   0  0  0  0  0  0  0  0  0  0  0  0
    8.8376   -9.3694    0.0000 C   0  0  0  0  0  0  0  0  0  0  0  0
    9.5552   -8.9626    0.0000 C   0  0  0  0  0  0  0  0  0  0  0  0
    9.5617   -8.1376    0.0000 C   0  0  0  0  0  0  0  0  0  0  0  0
    8.1426   -7.2958    0.0000 H   0  0  0  0  0  0  0  0  0  0  0  0
 38 12  1  0  0  0  0
 42 19  1  0  0  0  0
 16 13  1  0  0  0  0
 19 14  2  0  0  0  0
 15 14  1  0  0  0  0
 16 15  2  0  0  0  0
 17 16  1  0  0  0  0
 18 17  2  0  0  0  0
 19 18  1  0  0  0  0
  2 35  1  0  0  0  0
 36 31  1  0  0  0  0
 29 31  1  1  0  0  0
 28 20  1  6  0  0  0
 27 21  1  1  0  0  0
 26 22  1  6  0  0  0
 25 24  1  1  0  0  0
 24 23  1  0  0  0  0
 30 25  1  0  0  0  0
 26 25  1  0  0  0  0
 27 26  1  0  0  0  0
 28 27  1  0  0  0  0
 29 28  1  0  0  0  0
 30 29  1  0  0  0  0
 40 32  2  0  0  0  0
 42 33  1  0  0  0  0
 34 33  1  0  0  0  0
 39 34  2  0  0  0  0
 35 34  1  0  0  0  0
 36 35  2  0  0  0  0
 37 36  1  0  0  0  0
 38 37  2  0  0  0  0
 39 38  1  0  0  0  0
 40 39  1  0  0  0  0
 41 40  1  0  0  0  0
 42 41  2  0  0  0  0
  1  2  1  0  0  0  0
  2  3  1  0  0  0  0
  3  4  1  0  0  0  0
  4  5  1  0  0  0  0
  5  6  1  0  0  0  0
  1  6  1  0  0  0  0
  7  8  1  0  0  0  0
  6  7  1  1  0  0  0
  5  9  1  6  0  0  0
  4 10  1  1  0  0  0
  3 11  1  6  0  0  0
  2 43  1  6  0  0  0
M  END
>  <cdx:groupId>
132

>  <cdx:fragmentId>
29

$$$$
