30271.cdx
  Mrv1902 05222410282D          

 27 28  0  0  0  0            999 V2000
    0.3006   -9.1151    0.0000 C   0  0  0  0  0  0  0  0  0  0  0  0
    0.3006   -9.9401    0.0000 C   0  0  0  0  0  0  0  0  0  0  0  0
    1.0150  -10.3526    0.0000 C   0  0  0  0  0  0  0  0  0  0  0  0
    1.7295   -9.9401    0.0000 C   0  0  0  0  0  0  0  0  0  0  0  0
    1.7295   -9.1151    0.0000 C   0  0  0  0  0  0  0  0  0  0  0  0
    1.0150   -8.7026    0.0000 C   0  0  0  0  0  0  0  0  0  0  0  0
    2.4440  -10.3526    0.0000 N   0  0  0  0  0  0  0  0  0  0  0  0
    3.1584   -9.9401    0.0000 C   0  0  0  0  0  0  0  0  0  0  0  0
    3.1584   -9.1151    0.0000 C   0  0  0  0  0  0  0  0  0  0  0  0
    2.4440   -8.7026    0.0000 C   0  0  0  0  0  0  0  0  0  0  0  0
    2.4440   -7.8776    0.0000 O   0  0  0  0  0  0  0  0  0  0  0  0
    2.4440  -11.1776    0.0000 C   0  0  0  0  0  0  0  0  0  0  0  0
    3.8470  -10.3389    0.0000 C   0  0  0  0  0  0  0  0  0  0  0  0
    4.5615   -9.9264    0.0000 C   0  0  0  0  0  0  0  0  0  0  0  0
    5.2759  -10.3389    0.0000 C   0  0  0  0  0  0  0  0  0  0  0  0
    5.9904   -9.9264    0.0000 C   0  0  0  0  0  0  0  0  0  0  0  0
    6.7049  -10.3389    0.0000 C   0  0  0  0  0  0  0  0  0  0  0  0
    7.4194   -9.9264    0.0000 C   0  0  0  0  0  0  0  0  0  0  0  0
    8.1338  -10.3389    0.0000 C   0  0  0  0  0  0  0  0  0  0  0  0
    8.8483   -9.9264    0.0000 C   0  0  0  0  0  0  0  0  0  0  0  0
    9.5628  -10.3389    0.0000 C   0  0  0  0  0  0  0  0  0  0  0  0
   10.2772   -9.9264    0.0000 C   0  0  0  0  0  0  0  0  0  0  0  0
   10.9917  -10.3389    0.0000 C   0  0  0  0  0  0  0  0  0  0  0  0
   11.7062   -9.9264    0.0000 C   0  0  0  0  0  0  0  0  0  0  0  0
   12.4206  -10.3389    0.0000 C   0  0  0  0  0  0  0  0  0  0  0  0
   13.1351   -9.9264    0.0000 C   0  0  0  0  0  0  0  0  0  0  0  0
   13.8496  -10.3389    0.0000 C   0  0  0  0  0  0  0  0  0  0  0  0
  1  2  2  0  0  0  0
  2  3  1  0  0  0  0
  3  4  2  0  0  0  0
  4  5  1  0  0  0  0
  5  6  2  0  0  0  0
  6  1  1  0  0  0  0
  4  7  1  0  0  0  0
  7  8  1  0  0  0  0
  8  9  2  0  0  0  0
  9 10  1  0  0  0  0
 10  5  1  0  0  0  0
 10 11  2  0  0  0  0
  7 12  1  0  0  0  0
 14 13  1  0  0  0  0
 15 14  1  0  0  0  0
 16 15  1  0  0  0  0
 17 16  1  0  0  0  0
 18 17  1  0  0  0  0
 19 18  1  0  0  0  0
 20 19  1  0  0  0  0
 21 20  1  0  0  0  0
 22 21  1  0  0  0  0
 23 22  1  0  0  0  0
 24 23  1  0  0  0  0
 25 24  1  0  0  0  0
 26 25  1  0  0  0  0
 27 26  1  0  0  0  0
 13  8  1  0  0  0  0
M  END
>  <cdx:fragmentId>
38

$$$$
