302727.cdx
  Mrv1902 05222410242D          

 85 94  0  0  0  0            999 V2000
    9.3150   -6.5660    0.0000 C   0  0  0  0  0  0  0  0  0  0  0  0
   10.0295   -6.1535    0.0000 C   0  0  0  0  0  0  0  0  0  0  0  0
   10.7440   -6.5660    0.0000 C   0  0  0  0  0  0  0  0  0  0  0  0
   10.7440   -7.3910    0.0000 C   0  0  0  0  0  0  0  0  0  0  0  0
   10.0295   -7.8035    0.0000 C   0  0  2  0  0  0  0  0  0  0  0  0
   10.0295   -8.6285    0.0000 C   0  0  0  0  0  0  0  0  0  0  0  0
    9.3150   -9.0410    0.0000 C   0  0  0  0  0  0  0  0  0  0  0  0
    8.6006   -8.6285    0.0000 C   0  0  2  0  0  0  0  0  0  0  0  0
    7.8861   -9.0410    0.0000 C   0  0  1  0  0  0  0  0  0  0  0  0
    7.8861   -9.8660    0.0000 C   0  0  0  0  0  0  0  0  0  0  0  0
    7.1716  -10.2785    0.0000 C   0  0  0  0  0  0  0  0  0  0  0  0
    6.4572   -9.8660    0.0000 C   0  0  1  0  0  0  0  0  0  0  0  0
    5.7427  -10.2785    0.0000 C   0  0  0  0  0  0  0  0  0  0  0  0
    5.0282   -9.8660    0.0000 C   0  0  2  0  0  0  0  0  0  0  0  0
    5.0282   -9.0410    0.0000 C   0  0  0  0  0  0  0  0  0  0  0  0
    5.7427   -8.6285    0.0000 C   0  0  0  0  0  0  0  0  0  0  0  0
    6.4572   -9.0410    0.0000 C   0  0  1  0  0  0  0  0  0  0  0  0
    7.1716   -8.6285    0.0000 C   0  0  0  0  0  0  0  0  0  0  0  0
    7.1716   -7.8035    0.0000 C   0  0  0  0  0  0  0  0  0  0  0  0
    7.8861   -7.3910    0.0000 C   0  0  0  0  0  0  0  0  0  0  0  0
    8.6006   -7.8035    0.0000 C   0  0  0  0  0  0  0  0  0  0  0  0
    9.3150   -7.3910    0.0000 C   0  0  2  0  0  0  0  0  0  0  0  0
   10.7440   -8.2160    0.0000 C   0  0  0  0  0  0  0  0  0  0  0  0
   10.7440   -9.0410    0.0000 O   0  0  0  0  0  0  0  0  0  0  0  0
   11.4585   -7.8035    0.0000 O   0  0  0  0  0  0  0  0  0  0  0  0
   10.0295   -5.3285    0.0000 C   0  0  0  0  0  0  0  0  0  0  0  0
    6.4572   -8.2160    0.0000 C   0  0  0  0  0  0  0  0  0  0  0  0
    6.1552  -10.9930    0.0000 C   0  0  0  0  0  0  0  0  0  0  0  0
    5.3302  -10.9930    0.0000 C   0  0  0  0  0  0  0  0  0  0  0  0
    8.6006   -9.4535    0.0000 C   0  0  0  0  0  0  0  0  0  0  0  0
    4.3137  -10.2785    0.0000 O   0  0  0  0  0  0  0  0  0  0  0  0
    2.8848  -10.2785    0.0000 O   0  0  0  0  0  0  0  0  0  0  0  0
    3.5993   -9.8660    0.0000 C   0  0  2  0  0  0  0  0  0  0  0  0
    3.5993   -9.0410    0.0000 C   0  0  1  0  0  0  0  0  0  0  0  0
    2.8848   -8.6285    0.0000 C   0  0  2  0  0  0  0  0  0  0  0  0
    2.1703   -9.0410    0.0000 C   0  0  2  0  0  0  0  0  0  0  0  0
    2.1703   -9.8660    0.0000 C   0  0  0  0  0  0  0  0  0  0  0  0
    4.3137   -8.6285    0.0000 O   0  0  0  0  0  0  0  0  0  0  0  0
    3.5993   -7.3910    0.0000 O   0  0  0  0  0  0  0  0  0  0  0  0
    4.3137   -7.8035    0.0000 C   0  0  2  0  0  0  0  0  0  0  0  0
    5.0282   -7.3910    0.0000 C   0  0  1  0  0  0  0  0  0  0  0  0
    5.0282   -6.5660    0.0000 C   0  0  1  0  0  0  0  0  0  0  0  0
    4.3137   -6.1535    0.0000 C   0  0  2  0  0  0  0  0  0  0  0  0
    3.5993   -6.5660    0.0000 C   0  0  2  0  0  0  0  0  0  0  0  0
    2.8848   -6.1535    0.0000 C   0  0  0  0  0  0  0  0  0  0  0  0
    4.3137   -5.3285    0.0000 O   0  0  0  0  0  0  0  0  0  0  0  0
    5.7427   -6.1535    0.0000 O   0  0  0  0  0  0  0  0  0  0  0  0
    5.7427   -7.8035    0.0000 O   0  0  0  0  0  0  0  0  0  0  0  0
    1.4559   -8.6285    0.0000 O   0  0  0  0  0  0  0  0  0  0  0  0
    2.8848   -7.8035    0.0000 O   0  0  0  0  0  0  0  0  0  0  0  0
    6.4572  -10.6910    0.0000 H   0  0  0  0  0  0  0  0  0  0  0  0
    9.3150   -8.2160    0.0000 H   0  0  0  0  0  0  0  0  0  0  0  0
   12.8874   -7.8035    0.0000 O   0  0  0  0  0  0  0  0  0  0  0  0
   12.1729   -8.2160    0.0000 C   0  0  2  0  0  0  0  0  0  0  0  0
   12.1729   -9.0410    0.0000 C   0  0  1  0  0  0  0  0  0  0  0  0
   12.8874   -9.4535    0.0000 C   0  0  2  0  0  0  0  0  0  0  0  0
   13.6019   -9.0410    0.0000 C   0  0  1  0  0  0  0  0  0  0  0  0
   13.6019   -8.2160    0.0000 C   0  0  1  0  0  0  0  0  0  0  0  0
   14.3163   -9.4535    0.0000 O   0  0  0  0  0  0  0  0  0  0  0  0
   12.8874  -10.2785    0.0000 O   0  0  0  0  0  0  0  0  0  0  0  0
   11.4585   -9.4535    0.0000 O   0  0  0  0  0  0  0  0  0  0  0  0
   14.3163   -7.8035    0.0000 C   0  0  0  0  0  0  0  0  0  0  0  0
   15.0308   -8.2160    0.0000 O   0  0  0  0  0  0  0  0  0  0  0  0
   16.4598   -8.2160    0.0000 O   0  0  0  0  0  0  0  0  0  0  0  0
   15.7453   -7.8035    0.0000 C   0  0  2  0  0  0  0  0  0  0  0  0
   15.7453   -6.9785    0.0000 C   0  0  1  0  0  0  0  0  0  0  0  0
   16.4598   -6.5660    0.0000 C   0  0  2  0  0  0  0  0  0  0  0  0
   17.1742   -6.9785    0.0000 C   0  0  1  0  0  0  0  0  0  0  0  0
   17.1742   -7.8035    0.0000 C   0  0  1  0  0  0  0  0  0  0  0  0
   17.8887   -6.5660    0.0000 O   0  0  0  0  0  0  0  0  0  0  0  0
   17.1742   -5.3285    0.0000 O   0  0  0  0  0  0  0  0  0  0  0  0
   17.8887   -5.7410    0.0000 C   0  0  2  0  0  0  0  0  0  0  0  0
   18.6032   -5.3285    0.0000 C   0  0  1  0  0  0  0  0  0  0  0  0
   18.6032   -4.5035    0.0000 C   0  0  1  0  0  0  0  0  0  0  0  0
   17.8887   -4.0910    0.0000 C   0  0  2  0  0  0  0  0  0  0  0  0
   17.1742   -4.5035    0.0000 C   0  0  2  0  0  0  0  0  0  0  0  0
   16.4598   -4.0910    0.0000 C   0  0  0  0  0  0  0  0  0  0  0  0
   17.8887   -3.2660    0.0000 O   0  0  0  0  0  0  0  0  0  0  0  0
   19.3176   -4.0910    0.0000 O   0  0  0  0  0  0  0  0  0  0  0  0
   19.3176   -5.7410    0.0000 O   0  0  0  0  0  0  0  0  0  0  0  0
   17.8887   -8.2160    0.0000 C   0  0  0  0  0  0  0  0  0  0  0  0
   18.6032   -7.8035    0.0000 O   0  0  0  0  0  0  0  0  0  0  0  0
   16.4598   -5.7410    0.0000 O   0  0  0  0  0  0  0  0  0  0  0  0
   15.0308   -6.5660    0.0000 O   0  0  0  0  0  0  0  0  0  0  0  0
    7.8861   -8.2160    0.0000 C   0  0  0  0  0  0  0  0  0  0  0  0
  1  2  1  0  0  0  0
  2  3  1  0  0  0  0
  3  4  1  0  0  0  0
  4  5  1  0  0  0  0
  5  6  1  0  0  0  0
  6  7  1  0  0  0  0
  7  8  1  0  0  0  0
  8  9  1  0  0  0  0
  9 10  1  0  0  0  0
 10 11  1  0  0  0  0
 11 12  1  0  0  0  0
 12 13  1  0  0  0  0
 13 14  1  0  0  0  0
 14 15  1  0  0  0  0
 15 16  1  0  0  0  0
 16 17  1  0  0  0  0
 12 17  1  0  0  0  0
 17 18  1  0  0  0  0
  9 18  1  0  0  0  0
 18 19  1  0  0  0  0
 19 20  1  0  0  0  0
 20 21  2  0  0  0  0
  8 21  1  0  0  0  0
 21 22  1  0  0  0  0
  5 22  1  0  0  0  0
  1 22  1  0  0  0  0
 23 24  2  0  0  0  0
 23 25  1  0  0  0  0
  5 23  1  1  0  0  0
  2 26  2  0  0  0  0
 17 27  1  6  0  0  0
 13 28  1  0  0  0  0
 13 29  1  0  0  0  0
  8 30  1  1  0  0  0
 32 33  1  0  0  0  0
 33 34  1  0  0  0  0
 34 35  1  0  0  0  0
 35 36  1  0  0  0  0
 36 37  1  0  0  0  0
 32 37  1  0  0  0  0
 39 40  1  0  0  0  0
 40 41  1  0  0  0  0
 41 42  1  0  0  0  0
 42 43  1  0  0  0  0
 43 44  1  0  0  0  0
 39 44  1  0  0  0  0
 44 45  1  1  0  0  0
 43 46  1  6  0  0  0
 42 47  1  1  0  0  0
 41 48  1  1  0  0  0
 40 38  1  6  0  0  0
 34 38  1  1  0  0  0
 36 49  1  6  0  0  0
 35 50  1  6  0  0  0
 33 31  1  6  0  0  0
 14 31  1  1  0  0  0
 12 51  1  6  0  0  0
 22 52  1  1  0  0  0
 53 54  1  0  0  0  0
 54 55  1  0  0  0  0
 55 56  1  0  0  0  0
 56 57  1  0  0  0  0
 57 58  1  0  0  0  0
 53 58  1  0  0  0  0
 57 59  1  1  0  0  0
 56 60  1  6  0  0  0
 55 61  1  1  0  0  0
 64 65  1  0  0  0  0
 65 66  1  0  0  0  0
 66 67  1  0  0  0  0
 67 68  1  0  0  0  0
 68 69  1  0  0  0  0
 64 69  1  0  0  0  0
 71 72  1  0  0  0  0
 72 73  1  0  0  0  0
 73 74  1  0  0  0  0
 74 75  1  0  0  0  0
 75 76  1  0  0  0  0
 71 76  1  0  0  0  0
 76 77  1  1  0  0  0
 75 78  1  6  0  0  0
 74 79  1  1  0  0  0
 73 80  1  1  0  0  0
 72 70  1  6  0  0  0
 68 70  1  6  0  0  0
 81 82  1  0  0  0  0
 69 81  1  1  0  0  0
 67 83  1  1  0  0  0
 66 84  1  6  0  0  0
 65 63  1  1  0  0  0
 62 63  1  0  0  0  0
 58 62  1  6  0  0  0
 54 25  1  6  0  0  0
  9 85  1  6  0  0  0
M  END
>  <cdx:groupId>
266

>  <cdx:fragmentId>
5

$$$$
