302760.cdx
  Mrv1902 05222410192D          

 26 27  0  0  0  0            999 V2000
    6.6966   -8.5111    0.0000 C   0  0  0  0  0  0  0  0  0  0  0  0
    7.4111   -8.0986    0.0000 C   0  0  0  0  0  0  0  0  0  0  0  0
    7.4111   -7.2736    0.0000 C   0  0  0  0  0  0  0  0  0  0  0  0
    6.6966   -6.8611    0.0000 C   0  0  0  0  0  0  0  0  0  0  0  0
    5.9822   -7.2736    0.0000 C   0  0  0  0  0  0  0  0  0  0  0  0
    5.2677   -6.8611    0.0000 C   0  0  0  0  0  0  0  0  0  0  0  0
    4.5532   -7.2736    0.0000 C   0  0  0  0  0  0  0  0  0  0  0  0
    4.5532   -8.0986    0.0000 C   0  0  0  0  0  0  0  0  0  0  0  0
    5.2677   -8.5111    0.0000 C   0  0  0  0  0  0  0  0  0  0  0  0
    5.9822   -8.0986    0.0000 C   0  0  0  0  0  0  0  0  0  0  0  0
    6.6966   -9.3361    0.0000 O   0  0  0  0  0  0  0  0  0  0  0  0
    6.6966   -6.0361    0.0000 O   0  0  0  0  0  0  0  0  0  0  0  0
    8.1256   -8.5111    0.0000 C   0  0  0  0  0  0  0  0  0  0  0  0
    7.8236   -6.5592    0.0000 C   0  0  1  0  0  0  0  0  0  0  0  0
    8.6486   -6.5592    0.0000 C   0  0  0  0  0  0  0  0  0  0  0  0
    9.0611   -5.8447    0.0000 C   0  0  0  0  0  0  0  0  0  0  0  0
    9.8861   -5.8447    0.0000 C   0  0  0  0  0  0  0  0  0  0  0  0
   10.2986   -5.1302    0.0000 C   0  0  0  0  0  0  0  0  0  0  0  0
   10.2986   -6.5592    0.0000 C   0  0  0  0  0  0  0  0  0  0  0  0
    7.4111   -5.8447    0.0000 O   0  0  0  0  0  0  0  0  0  0  0  0
    5.2677   -9.3361    0.0000 O   0  0  0  0  0  0  0  0  0  0  0  0
    5.2677   -6.0361    0.0000 O   0  0  0  0  0  0  0  0  0  0  0  0
    8.2361   -7.2736    0.0000 C   0  0  0  0  0  0  0  0  0  0  0  0
    8.6486   -7.9881    0.0000 C   0  0  0  0  0  0  0  0  0  0  0  0
    9.4736   -7.9881    0.0000 C   0  0  0  0  0  0  0  0  0  0  0  0
    9.8861   -8.7026    0.0000 C   0  0  0  0  0  0  0  0  0  0  0  0
  1  2  1  0  0  0  0
  2  3  1  0  0  0  0
  3  4  1  0  0  0  0
  4  5  1  0  0  0  0
  5  6  1  0  0  0  0
  6  7  2  0  0  0  0
  7  8  1  0  0  0  0
  8  9  2  0  0  0  0
  9 10  1  0  0  0  0
  1 10  1  0  0  0  0
  5 10  2  0  0  0  0
  1 11  2  0  0  0  0
  4 12  2  0  0  0  0
  2 13  1  0  0  0  0
 14 15  1  0  0  0  0
 15 16  1  0  0  0  0
 16 17  2  0  0  0  0
 17 18  1  0  0  0  0
 17 19  1  0  0  0  0
 14 20  1  6  0  0  0
  3 14  1  0  0  0  0
  9 21  1  0  0  0  0
  6 22  1  0  0  0  0
 23 24  1  0  0  0  0
 24 25  1  0  0  0  0
 25 26  1  0  0  0  0
  3 23  1  0  0  0  0
M  END
>  <cdx:fragmentId>
5

$$$$
