302725.cdx
  Mrv1902 05222410232D          

 19 20  0  0  0  0            999 V2000
    8.6290   -9.1487    0.0000 O   0  0  0  0  0  0  0  0  0  0  0  0
    9.3435   -8.7362    0.0000 C   0  0  1  0  0  0  0  0  0  0  0  0
    9.3435   -7.9112    0.0000 C   0  0  0  0  0  0  0  0  0  0  0  0
    8.6290   -7.4987    0.0000 C   0  0  0  0  0  0  0  0  0  0  0  0
    8.6290   -6.6737    0.0000 C   0  0  0  0  0  0  0  0  0  0  0  0
    7.9145   -6.2612    0.0000 C   0  0  0  0  0  0  0  0  0  0  0  0
    7.2001   -6.6737    0.0000 C   0  0  0  0  0  0  0  0  0  0  0  0
    7.2001   -7.4987    0.0000 C   0  0  0  0  0  0  0  0  0  0  0  0
    7.9145   -7.9112    0.0000 C   0  0  0  0  0  0  0  0  0  0  0  0
    7.9145   -8.7362    0.0000 C   0  0  0  0  0  0  0  0  0  0  0  0
    6.4856   -7.9112    0.0000 C   0  0  0  0  0  0  0  0  0  0  0  0
    5.7711   -7.4987    0.0000 C   0  0  0  0  0  0  0  0  0  0  0  0
    5.7711   -6.6737    0.0000 C   0  0  0  0  0  0  0  0  0  0  0  0
    6.4856   -6.2612    0.0000 C   0  0  0  0  0  0  0  0  0  0  0  0
    7.2001   -9.1487    0.0000 O   0  0  0  0  0  0  0  0  0  0  0  0
    7.9145   -5.4362    0.0000 O   0  0  0  0  0  0  0  0  0  0  0  0
   10.0579   -9.1487    0.0000 C   0  0  0  0  0  0  0  0  0  0  0  0
    5.0566   -7.9112    0.0000 O   0  0  0  0  0  0  0  0  0  0  0  0
    6.4856   -5.4362    0.0000 O   0  0  0  0  0  0  0  0  0  0  0  0
  1  2  1  0  0  0  0
  2  3  1  0  0  0  0
  3  4  1  0  0  0  0
  4  5  1  0  0  0  0
  5  6  1  0  0  0  0
  6  7  1  0  0  0  0
  7  8  1  0  0  0  0
  8  9  1  0  0  0  0
  9 10  1  0  0  0  0
  1 10  1  0  0  0  0
 11 12  1  0  0  0  0
 12 13  2  0  0  0  0
 13 14  1  0  0  0  0
 14  7  2  0  0  0  0
 11  8  2  0  0  0  0
 10 15  2  0  0  0  0
  6 16  2  0  0  0  0
  2 17  1  1  0  0  0
 12 18  1  0  0  0  0
 14 19  1  0  0  0  0
M  END
>  <cdx:groupId>
60

>  <cdx:fragmentId>
5

$$$$
