302773.cdx
  Mrv1902 05222410182D          

 15 16  0  0  0  0            999 V2000
    8.9616   -6.8384    0.0000 C   0  0  2  0  0  0  0  0  0  0  0  0
    9.4399   -7.5106    0.0000 C   0  0  0  0  0  0  0  0  0  0  0  0
    8.9484   -8.1732    0.0000 C   0  0  0  0  0  0  0  0  0  0  0  0
    8.1663   -7.9105    0.0000 C   0  0  0  0  0  0  0  0  0  0  0  0
    7.5163   -8.4185    0.0000 C   0  0  1  0  0  0  0  0  0  0  0  0
    6.7138   -8.2269    0.0000 C   0  0  0  0  0  0  0  0  0  0  0  0
    6.3632   -7.4801    0.0000 C   0  0  0  0  0  0  0  0  0  0  0  0
    6.7285   -6.7404    0.0000 C   0  0  0  0  0  0  0  0  0  0  0  0
    7.5346   -6.5648    0.0000 C   0  0  0  0  0  0  0  0  0  0  0  0
    8.1745   -7.0855    0.0000 C   0  0  0  0  0  0  0  0  0  0  0  0
    6.5296   -5.3254    0.0000 C   0  0  0  0  0  0  0  0  0  0  0  0
    6.2206   -6.0903    0.0000 C   0  0  0  0  0  0  0  0  0  0  0  0
    5.4036   -6.2052    0.0000 C   0  0  0  0  0  0  0  0  0  0  0  0
    7.6919   -9.2246    0.0000 C   0  0  0  0  0  0  0  0  0  0  0  0
    9.2243   -6.0563    0.0000 C   0  0  0  0  0  0  0  0  0  0  0  0
  1  2  1  0  0  0  0
  2  3  1  0  0  0  0
  3  4  1  0  0  0  0
  4  5  1  0  0  0  0
  5  6  1  0  0  0  0
  6  7  1  0  0  0  0
  7  8  1  0  0  0  0
  8  9  2  0  0  0  0
  9 10  1  0  0  0  0
  1 10  1  0  0  0  0
  4 10  2  0  0  0  0
 11 12  1  0  0  0  0
 12 13  1  0  0  0  0
  8 12  1  0  0  0  0
  5 14  1  6  0  0  0
  1 15  1  6  0  0  0
M  END
>  <cdx:fragmentId>
5

$$$$
