302754.cdx
  Mrv1902 05222410272D          

 16 16  0  0  0  0            999 V2000
    7.4216   -7.8975    0.0000 C   0  0  0  0  0  0  0  0  0  0  0  0
    6.7071   -7.4850    0.0000 C   0  0  0  0  0  0  0  0  0  0  0  0
    5.9926   -7.8975    0.0000 C   0  0  0  0  0  0  0  0  0  0  0  0
    5.2781   -7.4850    0.0000 C   0  0  0  0  0  0  0  0  0  0  0  0
    6.2946   -6.7706    0.0000 O   0  0  0  0  0  0  0  0  0  0  0  0
    8.1360   -7.4850    0.0000 C   0  0  0  0  0  0  0  0  0  0  0  0
    8.1360   -6.6600    0.0000 C   0  0  0  0  0  0  0  0  0  0  0  0
    8.8505   -6.2475    0.0000 C   0  0  0  0  0  0  0  0  0  0  0  0
    9.5650   -6.6600    0.0000 C   0  0  0  0  0  0  0  0  0  0  0  0
    9.5650   -7.4850    0.0000 C   0  0  0  0  0  0  0  0  0  0  0  0
    8.8505   -7.8975    0.0000 C   0  0  0  0  0  0  0  0  0  0  0  0
    9.5650   -9.1350    0.0000 C   0  0  0  0  0  0  0  0  0  0  0  0
    8.8505   -8.7225    0.0000 C   0  0  0  0  0  0  0  0  0  0  0  0
    8.1360   -9.1350    0.0000 C   0  0  0  0  0  0  0  0  0  0  0  0
    8.8505   -5.4225    0.0000 C   0  0  0  0  0  0  0  0  0  0  0  0
    7.1196   -6.7706    0.0000 C   0  0  0  0  0  0  0  0  0  0  0  0
  1  2  1  0  0  0  0
  2  3  1  0  0  0  0
  3  4  2  0  0  0  0
  2  5  1  0  0  0  0
  6  7  1  0  0  0  0
  7  8  1  0  0  0  0
  8  9  2  0  0  0  0
  9 10  1  0  0  0  0
 10 11  1  0  0  0  0
  6 11  1  0  0  0  0
 12 13  1  0  0  0  0
 13 14  1  0  0  0  0
 11 13  2  0  0  0  0
  8 15  1  0  0  0  0
  1  6  1  0  0  0  0
  2 16  1  0  0  0  0
M  END
>  <cdx:groupId>
50

>  <cdx:fragmentId>
15

$$$$
