302781.cdx
  Mrv1902 05222410282D          

 14 14  0  0  0  0            999 V2000
    7.8734   -8.6876    0.0000 C   0  0  2  0  0  0  0  0  0  0  0  0
    7.8722   -7.8626    0.0000 C   0  0  0  0  0  0  0  0  0  0  0  0
    7.1571   -7.4511    0.0000 C   0  0  0  0  0  0  0  0  0  0  0  0
    7.1560   -6.6261    0.0000 C   0  0  0  0  0  0  0  0  0  0  0  0
    6.4409   -6.2146    0.0000 C   0  0  0  0  0  0  0  0  0  0  0  0
    9.3023   -8.6856    0.0000 O   0  0  0  0  0  0  0  0  0  0  0  0
    6.4397   -5.3896    0.0000 N   0  0  0  0  0  0  0  0  0  0  0  0
    5.7716   -4.9057    0.0000 C   0  0  0  0  0  0  0  0  0  0  0  0
    6.0254   -4.1207    0.0000 C   0  0  0  0  0  0  0  0  0  0  0  0
    6.8504   -4.1195    0.0000 C   0  0  0  0  0  0  0  0  0  0  0  0
    7.1065   -4.9038    0.0000 C   0  0  0  0  0  0  0  0  0  0  0  0
    7.1595   -9.1011    0.0000 N   0  0  0  0  0  0  0  0  0  0  0  0
    8.5896   -9.9241    0.0000 O   0  0  0  0  0  0  0  0  0  0  0  0
    8.5884   -9.0991    0.0000 C   0  0  0  0  0  0  0  0  0  0  0  0
 14  6  1  0  0  0  0
 14 13  2  0  0  0  0
 14  1  1  0  0  0  0
  1  2  1  0  0  0  0
  2  3  1  0  0  0  0
  3  4  1  0  0  0  0
  4  5  1  0  0  0  0
  7  8  1  0  0  0  0
  8  9  2  0  0  0  0
  9 10  1  0  0  0  0
 10 11  2  0  0  0  0
  7 11  1  0  0  0  0
  5  7  1  0  0  0  0
  1 12  1  1  0  0  0
M  END
>  <cdx:groupId>
44

>  <cdx:fragmentId>
5

$$$$
