302701.cdx
  Mrv1902 05222410222D          

 25 27  0  0  0  0            999 V2000
   10.0451   -6.3364    0.0000 C   0  0  0  0  0  0  0  0  0  0  0  0
    9.8953   -7.1477    0.0000 C   0  0  0  0  0  0  0  0  0  0  0  0
    9.1178   -7.4236    0.0000 C   0  0  0  0  0  0  0  0  0  0  0  0
    8.4901   -6.8882    0.0000 C   0  0  0  0  0  0  0  0  0  0  0  0
    8.6399   -6.0769    0.0000 C   0  0  0  0  0  0  0  0  0  0  0  0
    9.4174   -5.8010    0.0000 C   0  0  0  0  0  0  0  0  0  0  0  0
   10.8226   -6.0605    0.0000 O   0  0  0  0  0  0  0  0  0  0  0  0
   10.5230   -7.6830    0.0000 O   0  0  0  0  0  0  0  0  0  0  0  0
   11.3005   -7.4071    0.0000 C   0  0  0  0  0  0  0  0  0  0  0  0
    7.0324   -6.6973    0.0000 O   0  0  0  0  0  0  0  0  0  0  0  0
    7.7126   -7.1641    0.0000 C   0  0  1  0  0  0  0  0  0  0  0  0
    7.4788   -7.9553    0.0000 C   0  0  2  0  0  0  0  0  0  0  0  0
    6.6541   -7.9774    0.0000 C   0  0  1  0  0  0  0  0  0  0  0  0
    6.3782   -7.1999    0.0000 C   0  0  2  0  0  0  0  0  0  0  0  0
    6.1873   -8.6577    0.0000 C   0  0  0  0  0  0  0  0  0  0  0  0
    7.9815   -8.6095    0.0000 C   0  0  0  0  0  0  0  0  0  0  0  0
    3.2135   -6.2648    0.0000 O   0  0  0  0  0  0  0  0  0  0  0  0
    3.6184   -4.8944    0.0000 C   0  0  0  0  0  0  0  0  0  0  0  0
    4.4096   -5.1282    0.0000 O   0  0  0  0  0  0  0  0  0  0  0  0
    4.9890   -7.5345    0.0000 C   0  0  0  0  0  0  0  0  0  0  0  0
    4.1978   -7.3007    0.0000 C   0  0  0  0  0  0  0  0  0  0  0  0
    4.0046   -6.4986    0.0000 C   0  0  0  0  0  0  0  0  0  0  0  0
    4.6027   -5.9303    0.0000 C   0  0  0  0  0  0  0  0  0  0  0  0
    5.3939   -6.1641    0.0000 C   0  0  0  0  0  0  0  0  0  0  0  0
    5.5870   -6.9662    0.0000 C   0  0  0  0  0  0  0  0  0  0  0  0
 22 17  1  0  0  0  0
 23 19  1  0  0  0  0
 19 18  1  0  0  0  0
 25 20  2  0  0  0  0
 21 20  1  0  0  0  0
 22 21  2  0  0  0  0
 23 22  1  0  0  0  0
 24 23  2  0  0  0  0
 25 24  1  0  0  0  0
  1  2  1  0  0  0  0
  2  3  2  0  0  0  0
  3  4  1  0  0  0  0
  4  5  2  0  0  0  0
  5  6  1  0  0  0  0
  1  6  2  0  0  0  0
  1  7  1  0  0  0  0
  8  9  1  0  0  0  0
  2  8  1  0  0  0  0
 10 11  1  0  0  0  0
 11 12  1  0  0  0  0
 12 13  1  0  0  0  0
 13 14  1  0  0  0  0
 10 14  1  0  0  0  0
 13 15  1  6  0  0  0
 12 16  1  1  0  0  0
 14 25  1  6  0  0  0
 11  4  1  6  0  0  0
M  END
>  <cdx:fragmentId>
37

$$$$
