30276.cdx
  Mrv1902 05222410272D          

 10 10  0  0  0  0            999 V2000
    6.7906   -5.9526    0.0000 C   0  0  0  0  0  0  0  0  0  0  0  0
    6.7906   -6.7776    0.0000 C   0  0  0  0  0  0  0  0  0  0  0  0
    7.5050   -7.1901    0.0000 C   0  0  0  0  0  0  0  0  0  0  0  0
    8.2195   -6.7776    0.0000 C   0  0  0  0  0  0  0  0  0  0  0  0
    8.2195   -5.9526    0.0000 C   0  0  0  0  0  0  0  0  0  0  0  0
    7.5050   -5.5401    0.0000 C   0  0  0  0  0  0  0  0  0  0  0  0
    6.0761   -7.1901    0.0000 C   0  0  0  0  0  0  0  0  0  0  0  0
    7.5050   -4.7151    0.0000 C   0  0  0  0  0  0  0  0  0  0  0  0
    6.7906   -4.3026    0.0000 C   0  0  0  0  0  0  0  0  0  0  0  0
    8.2195   -4.3026    0.0000 C   0  0  0  0  0  0  0  0  0  0  0  0
  1  2  1  0  0  0  0
  2  3  2  0  0  0  0
  3  4  1  0  0  0  0
  4  5  1  0  0  0  0
  5  6  1  0  0  0  0
  6  1  1  0  0  0  0
  2  7  1  0  0  0  0
  6  8  1  0  0  0  0
  8  9  2  0  0  0  0
  8 10  1  0  0  0  0
M  END
>  <cdx:fragmentId>
5

$$$$
