302750.cdx
  Mrv1902 05222410272D          

 11 10  0  0  0  0            999 V2000
    5.3194   -7.1468    0.0000 C   0  0  0  0  0  0  0  0  0  0  0  0
    6.0339   -6.7343    0.0000 C   0  0  0  0  0  0  0  0  0  0  0  0
    6.7483   -7.1468    0.0000 C   0  0  0  0  0  0  0  0  0  0  0  0
    7.4628   -6.7343    0.0000 C   0  0  0  0  0  0  0  0  0  0  0  0
    8.1773   -7.1468    0.0000 C   0  0  0  0  0  0  0  0  0  0  0  0
    8.8918   -6.7343    0.0000 C   0  0  0  0  0  0  0  0  0  0  0  0
    9.6062   -7.1468    0.0000 C   0  0  0  0  0  0  0  0  0  0  0  0
    9.6062   -7.9718    0.0000 C   0  0  0  0  0  0  0  0  0  0  0  0
    4.6049   -6.7343    0.0000 O   0  0  0  0  0  0  0  0  0  0  0  0
   10.3207   -6.7343    0.0000 C   0  0  0  0  0  0  0  0  0  0  0  0
    6.7483   -7.9718    0.0000 C   0  0  0  0  0  0  0  0  0  0  0  0
  1  2  1  0  0  0  0
  2  3  1  0  0  0  0
  3  4  1  0  0  0  0
  4  5  1  0  0  0  0
  5  6  1  0  0  0  0
  6  7  1  0  0  0  0
  7  8  2  0  0  0  0
  1  9  2  0  0  0  0
  7 10  1  0  0  0  0
  3 11  1  0  0  0  0
M  END
>  <cdx:fragmentId>
5

$$$$
