30278.cdx
  Mrv1902 05222410202D          

 15 17  0  0  0  0            999 V2000
    4.1918   -9.8026    0.0000 C   0  0  0  0  0  0  0  0  0  0  0  0
    4.1918  -10.6276    0.0000 C   0  0  0  0  0  0  0  0  0  0  0  0
    4.9063  -11.0401    0.0000 C   0  0  0  0  0  0  0  0  0  0  0  0
    5.6207  -10.6276    0.0000 C   0  0  0  0  0  0  0  0  0  0  0  0
    5.6207   -9.8026    0.0000 C   0  0  0  0  0  0  0  0  0  0  0  0
    4.9063   -9.3901    0.0000 C   0  0  0  0  0  0  0  0  0  0  0  0
    6.3352  -11.0401    0.0000 C   0  0  0  0  0  0  0  0  0  0  0  0
    7.0497  -10.6276    0.0000 C   0  0  0  0  0  0  0  0  0  0  0  0
    7.0497   -9.8026    0.0000 C   0  0  0  0  0  0  0  0  0  0  0  0
    6.3352   -9.3901    0.0000 C   0  0  0  0  0  0  0  0  0  0  0  0
    7.7642   -9.3901    0.0000 C   0  0  0  0  0  0  0  0  0  0  0  0
    7.7642   -8.5651    0.0000 C   0  0  0  0  0  0  0  0  0  0  0  0
    7.0497   -8.1526    0.0000 C   0  0  0  0  0  0  0  0  0  0  0  0
    6.3352   -8.5651    0.0000 C   0  0  0  0  0  0  0  0  0  0  0  0
    4.9063  -11.8651    0.0000 C   0  0  0  0  0  0  0  0  0  0  0  0
  1  2  2  0  0  0  0
  2  3  1  0  0  0  0
  3  4  2  0  0  0  0
  4  5  1  0  0  0  0
  5  6  2  0  0  0  0
  6  1  1  0  0  0  0
  4  7  1  0  0  0  0
  7  8  2  0  0  0  0
  8  9  1  0  0  0  0
  9 10  2  0  0  0  0
 10  5  1  0  0  0  0
  9 11  1  0  0  0  0
 11 12  2  0  0  0  0
 12 13  1  0  0  0  0
 13 14  2  0  0  0  0
 14 10  1  0  0  0  0
  3 15  1  0  0  0  0
M  END
>  <cdx:fragmentId>
5

$$$$
