302745.cdx
  Mrv1902 05222410262D          

 37 41  0  0  0  0            999 V2000
    7.9516   -5.8275    0.0000 C   0  0  1  0  0  0  0  0  0  0  0  0
    8.6661   -6.2400    0.0000 C   0  0  1  0  0  0  0  0  0  0  0  0
    8.6661   -7.0650    0.0000 C   0  0  0  0  0  0  0  0  0  0  0  0
    7.9516   -7.4775    0.0000 C   0  0  0  0  0  0  0  0  0  0  0  0
    7.2371   -7.0650    0.0000 C   0  0  1  0  0  0  0  0  0  0  0  0
    6.5227   -7.4775    0.0000 C   0  0  2  0  0  0  0  0  0  0  0  0
    6.5227   -8.3025    0.0000 C   0  0  0  0  0  0  0  0  0  0  0  0
    5.8082   -8.7150    0.0000 C   0  0  1  0  0  0  0  0  0  0  0  0
    5.0937   -8.3025    0.0000 C   0  0  1  0  0  0  0  0  0  0  0  0
    4.3793   -8.7150    0.0000 C   0  0  0  0  0  0  0  0  0  0  0  0
    3.6648   -8.3025    0.0000 C   0  0  0  0  0  0  0  0  0  0  0  0
    3.6648   -7.4775    0.0000 C   0  0  0  0  0  0  0  0  0  0  0  0
    4.3793   -7.0650    0.0000 C   0  0  0  0  0  0  0  0  0  0  0  0
    5.0937   -7.4775    0.0000 C   0  0  2  0  0  0  0  0  0  0  0  0
    5.8082   -7.0650    0.0000 C   0  0  1  0  0  0  0  0  0  0  0  0
    5.8082   -6.2400    0.0000 C   0  0  0  0  0  0  0  0  0  0  0  0
    6.5227   -5.8275    0.0000 C   0  0  0  0  0  0  0  0  0  0  0  0
    7.2371   -6.2400    0.0000 C   0  0  2  0  0  0  0  0  0  0  0  0
    9.2792   -5.6879    0.0000 C   0  0  2  0  0  0  0  0  0  0  0  0
    8.9436   -4.9343    0.0000 C   0  0  0  0  0  0  0  0  0  0  0  0
    8.1231   -5.0205    0.0000 C   0  0  0  0  0  0  0  0  0  0  0  0
    5.8082   -9.5400    0.0000 O   0  0  0  0  0  0  0  0  0  0  0  0
    7.9516   -6.6525    0.0000 C   0  0  0  0  0  0  0  0  0  0  0  0
    5.0937   -6.6525    0.0000 C   0  0  0  0  0  0  0  0  0  0  0  0
    4.7918   -9.4294    0.0000 C   0  0  0  0  0  0  0  0  0  0  0  0
    3.9668   -9.4294    0.0000 C   0  0  0  0  0  0  0  0  0  0  0  0
    6.5227   -6.6525    0.0000 C   0  0  0  0  0  0  0  0  0  0  0  0
    7.2371   -7.8900    0.0000 C   0  0  0  0  0  0  0  0  0  0  0  0
    9.8726   -6.6563    0.0000 C   0  0  0  0  0  0  0  0  0  0  0  0
   10.0861   -5.8595    0.0000 C   0  0  0  0  0  0  0  0  0  0  0  0
   10.2997   -5.0626    0.0000 C   0  0  0  0  0  0  0  0  0  0  0  0
   10.8931   -6.0310    0.0000 O   0  0  0  0  0  0  0  0  0  0  0  0
    9.4198   -6.5755    0.0000 H   0  0  0  0  0  0  0  0  0  0  0  0
    5.0937   -9.1275    0.0000 H   0  0  0  0  0  0  0  0  0  0  0  0
    5.8082   -7.8900    0.0000 H   0  0  0  0  0  0  0  0  0  0  0  0
    7.2371   -5.4150    0.0000 H   0  0  0  0  0  0  0  0  0  0  0  0
    9.8625   -5.1046    0.0000 H   0  0  0  0  0  0  0  0  0  0  0  0
  1  2  1  0  0  0  0
  2  3  1  0  0  0  0
  3  4  1  0  0  0  0
  4  5  1  0  0  0  0
  5  6  1  0  0  0  0
  6  7  1  0  0  0  0
  7  8  1  0  0  0  0
  8  9  1  0  0  0  0
  9 10  1  0  0  0  0
 10 11  1  0  0  0  0
 11 12  1  0  0  0  0
 12 13  1  0  0  0  0
 13 14  1  0  0  0  0
  9 14  1  0  0  0  0
 14 15  1  0  0  0  0
  6 15  1  0  0  0  0
 15 16  1  0  0  0  0
 16 17  1  0  0  0  0
 17 18  1  0  0  0  0
  5 18  1  0  0  0  0
  1 18  1  0  0  0  0
 19 20  1  0  0  0  0
 20 21  1  0  0  0  0
 21  1  1  0  0  0  0
 19  2  1  0  0  0  0
  8 22  1  6  0  0  0
  1 23  1  6  0  0  0
 14 24  1  1  0  0  0
 10 25  1  0  0  0  0
 10 26  1  0  0  0  0
  6 27  1  1  0  0  0
  5 28  1  6  0  0  0
 29 30  1  0  0  0  0
 30 31  1  0  0  0  0
 30 32  1  0  0  0  0
 19 30  1  0  0  0  0
  2 33  1  1  0  0  0
  9 34  1  6  0  0  0
 15 35  1  6  0  0  0
 18 36  1  1  0  0  0
 19 37  1  1  0  0  0
M  END
>  <cdx:fragmentId>
5

$$$$
