30273.cdx
  Mrv1902 05222410272D          

 11 11  0  0  0  0            999 V2000
    6.6663   -9.0326    0.0000 C   0  0  0  0  0  0  0  0  0  0  0  0
    6.6663   -9.8576    0.0000 C   0  0  0  0  0  0  0  0  0  0  0  0
    7.3807  -10.2701    0.0000 C   0  0  2  0  0  0  0  0  0  0  0  0
    8.0952   -9.8576    0.0000 C   0  0  0  0  0  0  0  0  0  0  0  0
    8.0952   -9.0326    0.0000 C   0  0  0  0  0  0  0  0  0  0  0  0
    7.3807   -8.6201    0.0000 C   0  0  1  0  0  0  0  0  0  0  0  0
    6.9682   -7.9057    0.0000 C   0  0  0  0  0  0  0  0  0  0  0  0
    7.7932   -7.9057    0.0000 O   0  0  0  0  0  0  0  0  0  0  0  0
    7.3807  -11.0951    0.0000 C   0  0  0  0  0  0  0  0  0  0  0  0
    6.6663  -11.5076    0.0000 C   0  0  0  0  0  0  0  0  0  0  0  0
    8.0952  -11.5076    0.0000 C   0  0  0  0  0  0  0  0  0  0  0  0
  1  2  1  0  0  0  0
  2  3  1  0  0  0  0
  3  4  1  0  0  0  0
  4  5  2  0  0  0  0
  5  6  1  0  0  0  0
  6  1  1  0  0  0  0
  6  7  1  0  0  0  0
  6  8  1  1  0  0  0
  3  9  1  6  0  0  0
  9 10  1  0  0  0  0
  9 11  1  0  0  0  0
M  END
>  <cdx:fragmentId>
5

$$$$
