302777.cdx
  Mrv1902 05222410202D          

  8  8  0  0  0  0            999 V2000
    7.3748   -6.5145    0.0000 O   0  0  0  0  0  0  0  0  0  0  0  0
    8.0893   -6.9270    0.0000 C   0  0  0  0  0  0  0  0  0  0  0  0
    8.0893   -7.7520    0.0000 C   0  0  0  0  0  0  0  0  0  0  0  0
    7.3748   -8.1645    0.0000 C   0  0  0  0  0  0  0  0  0  0  0  0
    6.6603   -7.7520    0.0000 C   0  0  0  0  0  0  0  0  0  0  0  0
    6.6603   -6.9270    0.0000 C   0  0  0  0  0  0  0  0  0  0  0  0
    8.8038   -6.5145    0.0000 O   0  0  0  0  0  0  0  0  0  0  0  0
    5.9459   -6.5145    0.0000 C   0  0  0  0  0  0  0  0  0  0  0  0
  1  2  1  0  0  0  0
  2  3  1  0  0  0  0
  3  4  1  0  0  0  0
  4  5  1  0  0  0  0
  5  6  1  0  0  0  0
  1  6  1  0  0  0  0
  2  7  2  0  0  0  0
  6  8  1  0  0  0  0
M  END
>  <cdx:groupId>
26

>  <cdx:fragmentId>
5

$$$$
