302869.cdx
  Mrv1902 05222410212D          

 41 44  0  0  0  0            999 V2000
    7.5905   -6.2975    0.0000 C   0  0  2  0  0  0  0  0  0  0  0  0
    7.5905   -7.1225    0.0000 C   0  0  2  0  0  0  0  0  0  0  0  0
    8.3050   -7.5350    0.0000 C   0  0  1  0  0  0  0  0  0  0  0  0
    9.0195   -7.1225    0.0000 C   0  0  2  0  0  0  0  0  0  0  0  0
    9.0195   -6.2975    0.0000 C   0  0  1  0  0  0  0  0  0  0  0  0
    8.3050   -5.8850    0.0000 O   0  0  0  0  0  0  0  0  0  0  0  0
    9.7339   -5.8850    0.0000 O   0  0  0  0  0  0  0  0  0  0  0  0
    6.8761   -5.8850    0.0000 C   0  0  0  0  0  0  0  0  0  0  0  0
    8.3050   -8.3600    0.0000 O   0  0  0  0  0  0  0  0  0  0  0  0
    9.7339   -7.5350    0.0000 O   0  0  0  0  0  0  0  0  0  0  0  0
    6.8761   -7.5350    0.0000 O   0  0  0  0  0  0  0  0  0  0  0  0
    6.1616   -6.2975    0.0000 O   0  0  0  0  0  0  0  0  0  0  0  0
    5.4471   -5.8850    0.0000 C   0  0  0  0  0  0  0  0  0  0  0  0
    4.7326   -6.2975    0.0000 C   0  0  0  0  0  0  0  0  0  0  0  0
    5.4471   -5.0600    0.0000 O   0  0  0  0  0  0  0  0  0  0  0  0
    4.0182   -5.8850    0.0000 C   0  0  0  0  0  0  0  0  0  0  0  0
    3.3037   -6.2975    0.0000 C   0  0  0  0  0  0  0  0  0  0  0  0
    3.3037   -7.1225    0.0000 C   0  0  0  0  0  0  0  0  0  0  0  0
    4.0182   -7.5350    0.0000 C   0  0  0  0  0  0  0  0  0  0  0  0
    4.7326   -7.1225    0.0000 C   0  0  0  0  0  0  0  0  0  0  0  0
    2.5892   -5.8850    0.0000 O   0  0  0  0  0  0  0  0  0  0  0  0
    2.5892   -7.5350    0.0000 O   0  0  0  0  0  0  0  0  0  0  0  0
    4.0182   -8.3600    0.0000 O   0  0  0  0  0  0  0  0  0  0  0  0
   10.5589   -5.8822    0.0000 C   0  0  0  0  0  0  0  0  0  0  0  0
   10.9738   -6.5953    0.0000 C   0  0  0  0  0  0  0  0  0  0  0  0
   11.7988   -6.5926    0.0000 C   0  0  0  0  0  0  0  0  0  0  0  0
   12.2089   -5.8767    0.0000 C   0  0  0  0  0  0  0  0  0  0  0  0
   11.7940   -5.1637    0.0000 O   0  0  0  0  0  0  0  0  0  0  0  0
   10.9691   -5.1664    0.0000 C   0  0  0  0  0  0  0  0  0  0  0  0
   10.5637   -7.3112    0.0000 O   0  0  0  0  0  0  0  0  0  0  0  0
    9.7339   -8.3600    0.0000 C   0  0  0  0  0  0  0  0  0  0  0  0
   10.4484   -8.7725    0.0000 C   0  0  0  0  0  0  0  0  0  0  0  0
    9.0195   -8.7725    0.0000 O   0  0  0  0  0  0  0  0  0  0  0  0
   10.4484   -9.5975    0.0000 C   0  0  0  0  0  0  0  0  0  0  0  0
   11.1629  -10.0100    0.0000 C   0  0  0  0  0  0  0  0  0  0  0  0
   11.8774   -9.5975    0.0000 C   0  0  0  0  0  0  0  0  0  0  0  0
   11.8774   -8.7725    0.0000 C   0  0  0  0  0  0  0  0  0  0  0  0
   11.1629   -8.3600    0.0000 C   0  0  0  0  0  0  0  0  0  0  0  0
   11.1629  -10.8350    0.0000 O   0  0  0  0  0  0  0  0  0  0  0  0
   12.5918  -10.0100    0.0000 O   0  0  0  0  0  0  0  0  0  0  0  0
   12.5918   -8.3600    0.0000 O   0  0  0  0  0  0  0  0  0  0  0  0
  1  2  1  0  0  0  0
  2  3  1  0  0  0  0
  3  4  1  0  0  0  0
  4  5  1  0  0  0  0
  5  6  1  0  0  0  0
  6  1  1  0  0  0  0
  5  7  1  1  0  0  0
  1  8  1  1  0  0  0
  3  9  1  1  0  0  0
  4 10  1  6  0  0  0
  2 11  1  6  0  0  0
  8 12  1  0  0  0  0
 12 13  1  0  0  0  0
 13 14  1  0  0  0  0
 13 15  2  0  0  0  0
 14 16  2  0  0  0  0
 16 17  1  0  0  0  0
 17 18  2  0  0  0  0
 18 19  1  0  0  0  0
 19 20  2  0  0  0  0
 20 14  1  0  0  0  0
 17 21  1  0  0  0  0
 18 22  1  0  0  0  0
 19 23  1  0  0  0  0
  7 24  1  0  0  0  0
 24 25  1  0  0  0  0
 25 26  1  0  0  0  0
 26 27  2  0  0  0  0
 27 28  1  0  0  0  0
 28 29  1  0  0  0  0
 29 24  2  0  0  0  0
 25 30  2  0  0  0  0
 10 31  1  0  0  0  0
 31 32  1  0  0  0  0
 31 33  2  0  0  0  0
 32 34  2  0  0  0  0
 34 35  1  0  0  0  0
 35 36  2  0  0  0  0
 36 37  1  0  0  0  0
 37 38  2  0  0  0  0
 38 32  1  0  0  0  0
 35 39  1  0  0  0  0
 36 40  1  0  0  0  0
 37 41  1  0  0  0  0
M  END
>  <cdx:fragmentId>
265

$$$$
