302848.cdx
  Mrv1902 05222410242D          

 18 20  0  0  0  0            999 V2000
    8.7535   -6.8696    0.0000 C   0  0  0  0  0  0  0  0  0  0  0  0
    9.3056   -7.4827    0.0000 N   0  0  0  0  0  0  0  0  0  0  0  0
    9.0506   -8.2673    0.0000 C   0  0  0  0  0  0  0  0  0  0  0  0
    8.2436   -8.4389    0.0000 C   0  0  0  0  0  0  0  0  0  0  0  0
    7.6916   -7.8258    0.0000 C   0  0  0  0  0  0  0  0  0  0  0  0
    6.8666   -7.8258    0.0000 C   0  0  0  0  0  0  0  0  0  0  0  0
    6.3146   -8.4389    0.0000 C   0  0  0  0  0  0  0  0  0  0  0  0
    5.5076   -8.2673    0.0000 C   0  0  0  0  0  0  0  0  0  0  0  0
    5.2527   -7.4827    0.0000 C   0  0  0  0  0  0  0  0  0  0  0  0
    5.8047   -6.8696    0.0000 C   0  0  0  0  0  0  0  0  0  0  0  0
    6.6117   -7.0411    0.0000 C   0  0  0  0  0  0  0  0  0  0  0  0
    7.2791   -6.5562    0.0000 N   0  0  0  0  0  0  0  0  0  0  0  0
    7.9465   -7.0411    0.0000 C   0  0  0  0  0  0  0  0  0  0  0  0
    9.0085   -6.0850    0.0000 C   0  0  0  0  0  0  0  0  0  0  0  0
    9.8154   -5.9135    0.0000 C   0  0  0  0  0  0  0  0  0  0  0  0
   10.0704   -5.1288    0.0000 C   0  0  0  0  0  0  0  0  0  0  0  0
   10.8773   -4.9573    0.0000 O   0  0  0  0  0  0  0  0  0  0  0  0
    9.5183   -4.5157    0.0000 O   0  0  0  0  0  0  0  0  0  0  0  0
  1  2  1  0  0  0  0
  2  3  1  0  0  0  0
  3  4  2  0  0  0  0
  4  5  1  0  0  0  0
  5  6  1  0  0  0  0
  6  7  1  0  0  0  0
  7  8  2  0  0  0  0
  8  9  1  0  0  0  0
  9 10  2  0  0  0  0
 10 11  1  0  0  0  0
  6 11  2  0  0  0  0
 11 12  1  0  0  0  0
 12 13  1  0  0  0  0
  5 13  2  0  0  0  0
  1 13  1  0  0  0  0
  1 14  1  0  0  0  0
 14 15  1  0  0  0  0
 15 16  1  0  0  0  0
 16 17  1  0  0  0  0
 16 18  2  0  0  0  0
M  END
>  <cdx:fragmentId>
50

$$$$
