302832.cdx
  Mrv1902 05222410192D          

 31 32  0  0  0  0            999 V2000
   10.5533   -5.7888    0.0000 C   0  0  0  0  0  0  0  0  0  0  0  0
    4.8375   -8.2637    0.0000 O   0  0  0  0  0  0  0  0  0  0  0  0
    6.2665   -8.2637    0.0000 O   0  0  0  0  0  0  0  0  0  0  0  0
    4.8375   -4.9637    0.0000 O   0  0  0  0  0  0  0  0  0  0  0  0
    7.6954   -4.9637    0.0000 O   0  0  0  0  0  0  0  0  0  0  0  0
    6.2665   -4.9637    0.0000 O   0  0  0  0  0  0  0  0  0  0  0  0
    9.8388   -7.0263    0.0000 C   0  0  0  0  0  0  0  0  0  0  0  0
    9.8388   -6.2012    0.0000 C   0  0  0  0  0  0  0  0  0  0  0  0
    9.1244   -5.7888    0.0000 C   0  0  0  0  0  0  0  0  0  0  0  0
    8.4099   -6.2012    0.0000 C   0  0  0  0  0  0  0  0  0  0  0  0
    7.6954   -5.7888    0.0000 C   0  0  2  0  0  0  0  0  0  0  0  0
    6.2665   -7.4387    0.0000 C   0  0  0  0  0  0  0  0  0  0  0  0
    6.9809   -7.0263    0.0000 C   0  0  0  0  0  0  0  0  0  0  0  0
    6.9809   -6.2012    0.0000 C   0  0  0  0  0  0  0  0  0  0  0  0
    6.2665   -5.7888    0.0000 C   0  0  0  0  0  0  0  0  0  0  0  0
    4.8375   -7.4387    0.0000 C   0  0  0  0  0  0  0  0  0  0  0  0
    5.5520   -7.0263    0.0000 C   0  0  0  0  0  0  0  0  0  0  0  0
    5.5520   -6.2012    0.0000 C   0  0  0  0  0  0  0  0  0  0  0  0
    4.8375   -5.7888    0.0000 C   0  0  0  0  0  0  0  0  0  0  0  0
    4.1231   -6.2012    0.0000 C   0  0  0  0  0  0  0  0  0  0  0  0
    4.1231   -7.0263    0.0000 C   0  0  0  0  0  0  0  0  0  0  0  0
    8.4099   -4.5512    0.0000 C   0  0  0  0  0  0  0  0  0  0  0  0
    8.4099   -3.7262    0.0000 C   0  0  0  0  0  0  0  0  0  0  0  0
    9.1244   -4.9637    0.0000 O   0  0  0  0  0  0  0  0  0  0  0  0
    7.6954   -3.3138    0.0000 C   0  0  0  0  0  0  0  0  0  0  0  0
    9.1244   -3.3137    0.0000 C   0  0  0  0  0  0  0  0  0  0  0  0
    7.6954   -2.4888    0.0000 C   0  0  0  0  0  0  0  0  0  0  0  0
    6.9809   -3.7262    0.0000 O   0  0  0  0  0  0  0  0  0  0  0  0
    6.2665   -3.3138    0.0000 C   0  0  0  0  0  0  0  0  0  0  0  0
    5.5520   -3.7262    0.0000 C   0  0  0  0  0  0  0  0  0  0  0  0
    6.2665   -2.4888    0.0000 O   0  0  0  0  0  0  0  0  0  0  0  0
  8  1  1  0  0  0  0
  2 16  1  0  0  0  0
 12  3  2  0  0  0  0
 19  4  1  0  0  0  0
 11  5  1  6  0  0  0
 15  6  2  0  0  0  0
  8  7  1  0  0  0  0
  9  8  2  0  0  0  0
 10  9  1  0  0  0  0
 11 10  1  0  0  0  0
 14 11  1  0  0  0  0
 12 17  1  0  0  0  0
 13 12  1  0  0  0  0
 14 13  2  0  0  0  0
 15 14  1  0  0  0  0
 18 15  1  0  0  0  0
 16 21  2  0  0  0  0
 17 16  1  0  0  0  0
 18 17  2  0  0  0  0
 19 18  1  0  0  0  0
 20 19  2  0  0  0  0
 21 20  1  0  0  0  0
  5 22  1  0  0  0  0
 22 23  1  0  0  0  0
 22 24  2  0  0  0  0
 23 25  1  0  0  0  0
 23 26  1  0  0  0  0
 25 27  1  0  0  0  0
 25 28  1  0  0  0  0
 28 29  1  0  0  0  0
 29 30  1  0  0  0  0
 29 31  2  0  0  0  0
M  END
>  <cdx:fragmentId>
244

$$$$
