302828.cdx
  Mrv1902 05222410262D          

 27 26  0  0  0  0            999 V2000
   17.6014   -7.1027    0.0000 C   0  0  0  0  0  0  0  0  0  0  0  0
   16.8870   -7.5152    0.0000 C   0  0  0  0  0  0  0  0  0  0  0  0
   16.1725   -7.1027    0.0000 C   0  0  0  0  0  0  0  0  0  0  0  0
   15.4580   -7.5152    0.0000 C   0  0  0  0  0  0  0  0  0  0  0  0
   14.7436   -7.1027    0.0000 C   0  0  0  0  0  0  0  0  0  0  0  0
   14.0291   -7.5152    0.0000 C   0  0  0  0  0  0  0  0  0  0  0  0
   13.3146   -7.1027    0.0000 C   0  0  0  0  0  0  0  0  0  0  0  0
   12.6001   -7.5152    0.0000 C   0  0  0  0  0  0  0  0  0  0  0  0
   11.8857   -7.1027    0.0000 C   0  0  0  0  0  0  0  0  0  0  0  0
   11.1712   -7.5152    0.0000 C   0  0  0  0  0  0  0  0  0  0  0  0
   10.4567   -7.1027    0.0000 C   0  0  0  0  0  0  0  0  0  0  0  0
    9.7423   -7.5152    0.0000 C   0  0  0  0  0  0  0  0  0  0  0  0
    9.0278   -7.1027    0.0000 C   0  0  0  0  0  0  0  0  0  0  0  0
    8.3133   -7.5152    0.0000 C   0  0  0  0  0  0  0  0  0  0  0  0
    7.5989   -7.1027    0.0000 C   0  0  0  0  0  0  0  0  0  0  0  0
    6.8844   -7.5152    0.0000 C   0  0  0  0  0  0  0  0  0  0  0  0
    6.1699   -7.1027    0.0000 C   0  0  0  0  0  0  0  0  0  0  0  0
    5.4554   -7.5152    0.0000 C   0  0  0  0  0  0  0  0  0  0  0  0
    4.7410   -7.1027    0.0000 C   0  0  0  0  0  0  0  0  0  0  0  0
    4.0265   -7.5152    0.0000 C   0  0  0  0  0  0  0  0  0  0  0  0
    3.3120   -7.1027    0.0000 C   0  0  0  0  0  0  0  0  0  0  0  0
    2.5976   -7.5152    0.0000 C   0  0  0  0  0  0  0  0  0  0  0  0
    1.8831   -7.1027    0.0000 C   0  0  0  0  0  0  0  0  0  0  0  0
    1.1686   -7.5152    0.0000 C   0  0  0  0  0  0  0  0  0  0  0  0
   17.6014   -6.2777    0.0000 O   0  0  0  0  0  0  0  0  0  0  0  0
   18.3159   -7.5152    0.0000 O   0  0  0  0  0  0  0  0  0  0  0  0
   16.8870   -8.3402    0.0000 O   0  0  0  0  0  0  0  0  0  0  0  0
  1  2  1  0  0  0  0
  2  3  1  0  0  0  0
  3  4  1  0  0  0  0
  4  5  1  0  0  0  0
  5  6  1  0  0  0  0
  6  7  1  0  0  0  0
  7  8  1  0  0  0  0
  8  9  1  0  0  0  0
  9 10  1  0  0  0  0
 10 11  1  0  0  0  0
 11 12  1  0  0  0  0
 12 13  1  0  0  0  0
 13 14  1  0  0  0  0
 14 15  1  0  0  0  0
 15 16  1  0  0  0  0
 16 17  1  0  0  0  0
 17 18  1  0  0  0  0
 18 19  1  0  0  0  0
 19 20  1  0  0  0  0
 20 21  1  0  0  0  0
 21 22  1  0  0  0  0
 22 23  1  0  0  0  0
 23 24  1  0  0  0  0
  1 25  2  0  0  0  0
  1 26  1  0  0  0  0
  2 27  1  0  0  0  0
M  END
>  <cdx:groupId>
86

>  <cdx:fragmentId>
9

$$$$
