302847.cdx
  Mrv1902 05222410232D          

 19 21  0  0  0  0            999 V2000
    7.7519   -5.8994    0.0000 C   0  0  0  0  0  0  0  0  0  0  0  0
    8.3039   -6.5125    0.0000 N   0  0  0  0  0  0  0  0  0  0  0  0
    8.0490   -7.2972    0.0000 C   0  0  0  0  0  0  0  0  0  0  0  0
    7.2420   -7.4687    0.0000 C   0  0  0  0  0  0  0  0  0  0  0  0
    6.6900   -6.8556    0.0000 C   0  0  0  0  0  0  0  0  0  0  0  0
    5.8650   -6.8556    0.0000 C   0  0  0  0  0  0  0  0  0  0  0  0
    5.3129   -7.4687    0.0000 C   0  0  0  0  0  0  0  0  0  0  0  0
    4.5060   -7.2972    0.0000 C   0  0  0  0  0  0  0  0  0  0  0  0
    4.2510   -6.5125    0.0000 C   0  0  0  0  0  0  0  0  0  0  0  0
    4.8031   -5.8994    0.0000 C   0  0  0  0  0  0  0  0  0  0  0  0
    5.6100   -6.0710    0.0000 C   0  0  0  0  0  0  0  0  0  0  0  0
    6.2775   -5.5860    0.0000 N   0  0  0  0  0  0  0  0  0  0  0  0
    6.9449   -6.0710    0.0000 C   0  0  0  0  0  0  0  0  0  0  0  0
    8.0068   -5.1148    0.0000 C   0  0  0  0  0  0  0  0  0  0  0  0
    8.8138   -4.9433    0.0000 C   0  0  0  0  0  0  0  0  0  0  0  0
    9.3658   -5.5564    0.0000 O   0  0  0  0  0  0  0  0  0  0  0  0
    9.0687   -4.1587    0.0000 C   0  0  0  0  0  0  0  0  0  0  0  0
    8.5167   -3.5456    0.0000 O   0  0  0  0  0  0  0  0  0  0  0  0
    9.8757   -3.9871    0.0000 O   0  0  0  0  0  0  0  0  0  0  0  0
  1  2  2  0  0  0  0
  2  3  1  0  0  0  0
  3  4  2  0  0  0  0
  4  5  1  0  0  0  0
  5  6  1  0  0  0  0
  6  7  1  0  0  0  0
  7  8  2  0  0  0  0
  8  9  1  0  0  0  0
  9 10  2  0  0  0  0
 10 11  1  0  0  0  0
  6 11  2  0  0  0  0
 11 12  1  0  0  0  0
 12 13  1  0  0  0  0
  5 13  2  0  0  0  0
  1 13  1  0  0  0  0
  1 14  1  0  0  0  0
 14 15  1  0  0  0  0
 15 16  1  0  0  0  0
 15 17  1  0  0  0  0
 17 18  2  0  0  0  0
 17 19  1  0  0  0  0
M  END
>  <cdx:fragmentId>
91

$$$$
