302827.cdx
  Mrv1902 05222410192D          

 16 16  0  0  0  0            999 V2000
   10.4324   -6.8799    0.0000 C   0  0  0  0  0  0  0  0  0  0  0  0
    9.7179   -6.4674    0.0000 C   0  0  0  0  0  0  0  0  0  0  0  0
    9.7179   -5.6424    0.0000 O   0  0  0  0  0  0  0  0  0  0  0  0
    9.0034   -6.8799    0.0000 C   0  0  0  0  0  0  0  0  0  0  0  0
    8.2890   -6.4674    0.0000 O   0  0  0  0  0  0  0  0  0  0  0  0
    7.5745   -6.8799    0.0000 C   0  0  1  0  0  0  0  0  0  0  0  0
    7.5745   -7.7049    0.0000 C   0  0  2  0  0  0  0  0  0  0  0  0
    8.2890   -8.1174    0.0000 O   0  0  0  0  0  0  0  0  0  0  0  0
    6.8600   -8.1174    0.0000 C   0  0  1  0  0  0  0  0  0  0  0  0
    6.8600   -8.9424    0.0000 O   0  0  0  0  0  0  0  0  0  0  0  0
    6.1455   -7.7049    0.0000 C   0  0  2  0  0  0  0  0  0  0  0  0
    5.4311   -8.1174    0.0000 O   0  0  0  0  0  0  0  0  0  0  0  0
    6.1455   -6.8799    0.0000 C   0  0  2  0  0  0  0  0  0  0  0  0
    6.8600   -6.4674    0.0000 O   0  0  0  0  0  0  0  0  0  0  0  0
    5.4311   -6.4674    0.0000 C   0  0  0  0  0  0  0  0  0  0  0  0
    4.7166   -6.8799    0.0000 O   0  0  0  0  0  0  0  0  0  0  0  0
  1  2  1  0  0  0  0
  2  3  2  0  0  0  0
  2  4  1  0  0  0  0
  6  5  1  1  0  0  0
  6  7  1  0  0  0  0
  7  8  1  6  0  0  0
  7  9  1  0  0  0  0
  9 10  1  1  0  0  0
  9 11  1  0  0  0  0
 11 12  1  6  0  0  0
 11 13  1  0  0  0  0
 13 14  1  0  0  0  0
 13 15  1  1  0  0  0
 15 16  1  0  0  0  0
  6 14  1  0  0  0  0
  4  5  1  0  0  0  0
M  END
>  <cdx:groupId>
50

>  <cdx:fragmentId>
13

$$$$
