302802.cdx
  Mrv1902 05222410272D          

 23 24  0  0  0  0            999 V2000
    3.3143   -5.5000    0.0000 C   0  0  0  0  0  0  0  0  0  0  0  0
    3.3143   -6.3250    0.0000 C   0  0  0  0  0  0  0  0  0  0  0  0
    4.0287   -6.7375    0.0000 C   0  0  0  0  0  0  0  0  0  0  0  0
    4.7432   -6.3250    0.0000 C   0  0  0  0  0  0  0  0  0  0  0  0
    4.7432   -5.5000    0.0000 C   0  0  0  0  0  0  0  0  0  0  0  0
    4.0287   -5.0875    0.0000 C   0  0  0  0  0  0  0  0  0  0  0  0
    5.4577   -5.0875    0.0000 C   0  0  0  0  0  0  0  0  0  0  0  0
    6.1722   -5.5000    0.0000 C   0  0  0  0  0  0  0  0  0  0  0  0
    6.8866   -5.0875    0.0000 C   0  0  0  0  0  0  0  0  0  0  0  0
    7.6011   -5.5000    0.0000 N   0  0  0  0  0  0  0  0  0  0  0  0
    6.8866   -4.2625    0.0000 O   0  0  0  0  0  0  0  0  0  0  0  0
    8.3156   -5.0875    0.0000 C   0  0  0  0  0  0  0  0  0  0  0  0
    9.0300   -5.5000    0.0000 C   0  0  0  0  0  0  0  0  0  0  0  0
    9.7445   -5.0875    0.0000 C   0  0  0  0  0  0  0  0  0  0  0  0
   10.4590   -5.5000    0.0000 C   0  0  0  0  0  0  0  0  0  0  0  0
   11.1735   -5.0875    0.0000 C   0  0  0  0  0  0  0  0  0  0  0  0
   11.1735   -4.2625    0.0000 C   0  0  0  0  0  0  0  0  0  0  0  0
   10.4590   -3.8500    0.0000 C   0  0  0  0  0  0  0  0  0  0  0  0
    9.7445   -4.2625    0.0000 C   0  0  0  0  0  0  0  0  0  0  0  0
   11.8879   -3.8500    0.0000 O   0  0  0  0  0  0  0  0  0  0  0  0
   12.6024   -4.2625    0.0000 C   0  0  0  0  0  0  0  0  0  0  0  0
    2.5998   -6.7375    0.0000 O   0  0  0  0  0  0  0  0  0  0  0  0
    4.0287   -7.5625    0.0000 O   0  0  0  0  0  0  0  0  0  0  0  0
  1  2  2  0  0  0  0
  2  3  1  0  0  0  0
  3  4  2  0  0  0  0
  4  5  1  0  0  0  0
  5  6  2  0  0  0  0
  6  1  1  0  0  0  0
  5  7  1  0  0  0  0
  7  8  2  0  0  0  0
  8  9  1  0  0  0  0
  9 10  1  0  0  0  0
  9 11  2  0  0  0  0
 10 12  1  0  0  0  0
 12 13  1  0  0  0  0
 13 14  1  0  0  0  0
 14 15  2  0  0  0  0
 15 16  1  0  0  0  0
 16 17  2  0  0  0  0
 17 18  1  0  0  0  0
 18 19  2  0  0  0  0
 19 14  1  0  0  0  0
 17 20  1  0  0  0  0
 20 21  1  0  0  0  0
  2 22  1  0  0  0  0
  3 23  1  0  0  0  0
M  END
>  <cdx:fragmentId>
99

$$$$
