302899.cdx
  Mrv1902 05222410252D          

 42 46  0  0  0  0            999 V2000
    9.2112   -5.8487    0.0000 C   0  0  0  0  0  0  0  0  0  0  0  0
    9.2112   -6.6737    0.0000 C   0  0  0  0  0  0  0  0  0  0  0  0
    8.4967   -7.0862    0.0000 C   0  0  0  0  0  0  0  0  0  0  0  0
    7.7822   -6.6737    0.0000 C   0  0  0  0  0  0  0  0  0  0  0  0
    7.0678   -7.0862    0.0000 C   0  0  0  0  0  0  0  0  0  0  0  0
    6.3533   -6.6737    0.0000 C   0  0  0  0  0  0  0  0  0  0  0  0
    6.3533   -5.8487    0.0000 C   0  0  0  0  0  0  0  0  0  0  0  0
    7.0678   -5.4362    0.0000 C   0  0  0  0  0  0  0  0  0  0  0  0
    7.7822   -5.8487    0.0000 C   0  0  0  0  0  0  0  0  0  0  0  0
    8.4967   -5.4362    0.0000 O   0  0  0  0  0  0  0  0  0  0  0  0
    8.4967   -7.9112    0.0000 O   0  0  0  0  0  0  0  0  0  0  0  0
    2.0614   -5.8018    0.0000 O   0  0  0  0  0  0  0  0  0  0  0  0
    2.7812   -5.3987    0.0000 C   0  0  0  0  0  0  0  0  0  0  0  0
    9.9256   -7.0862    0.0000 O   0  0  0  0  0  0  0  0  0  0  0  0
    9.2112   -8.3237    0.0000 O   0  0  0  0  0  0  0  0  0  0  0  0
    9.9256   -7.9112    0.0000 C   0  0  2  0  0  0  0  0  0  0  0  0
   10.6401   -8.3237    0.0000 C   0  0  1  0  0  0  0  0  0  0  0  0
   10.6401   -9.1487    0.0000 C   0  0  2  0  0  0  0  0  0  0  0  0
    9.9256   -9.5612    0.0000 C   0  0  1  0  0  0  0  0  0  0  0  0
    9.2112   -9.1487    0.0000 C   0  0  0  0  0  0  0  0  0  0  0  0
    9.9256  -10.3862    0.0000 O   0  0  0  0  0  0  0  0  0  0  0  0
   11.3546   -9.5612    0.0000 O   0  0  0  0  0  0  0  0  0  0  0  0
   11.3546   -7.9112    0.0000 O   0  0  0  0  0  0  0  0  0  0  0  0
    7.0678   -7.9112    0.0000 O   0  0  0  0  0  0  0  0  0  0  0  0
    9.9256   -5.4362    0.0000 C   0  0  0  0  0  0  0  0  0  0  0  0
   10.6401   -5.8487    0.0000 C   0  0  0  0  0  0  0  0  0  0  0  0
   11.3546   -5.4362    0.0000 C   0  0  0  0  0  0  0  0  0  0  0  0
   11.3546   -4.6112    0.0000 C   0  0  0  0  0  0  0  0  0  0  0  0
   10.6401   -4.1987    0.0000 C   0  0  0  0  0  0  0  0  0  0  0  0
    9.9256   -4.6112    0.0000 C   0  0  0  0  0  0  0  0  0  0  0  0
   12.0691   -4.1987    0.0000 O   0  0  0  0  0  0  0  0  0  0  0  0
   12.0691   -5.8487    0.0000 O   0  0  0  0  0  0  0  0  0  0  0  0
    5.6172   -7.0860    0.0000 O   0  0  0  0  0  0  0  0  0  0  0  0
    4.1775   -7.8922    0.0000 O   0  0  0  0  0  0  0  0  0  0  0  0
    2.7595   -7.0485    0.0000 O   0  0  0  0  0  0  0  0  0  0  0  0
    3.4902   -5.8205    0.0000 C   0  0  2  0  0  0  0  0  0  0  0  0
    3.4794   -6.6454    0.0000 C   0  0  2  0  0  0  0  0  0  0  0  0
    4.1883   -7.0673    0.0000 C   0  0  1  0  0  0  0  0  0  0  0  0
    4.9082   -6.6642    0.0000 C   0  0  2  0  0  0  0  0  0  0  0  0
    4.9190   -5.8393    0.0000 C   0  0  1  0  0  0  0  0  0  0  0  0
    4.2100   -5.4174    0.0000 O   0  0  0  0  0  0  0  0  0  0  0  0
    5.6388   -5.4362    0.0000 O   0  0  0  0  0  0  0  0  0  0  0  0
 13 12  1  0  0  0  0
 36 13  1  1  0  0  0
 40 42  1  1  0  0  0
 39 33  1  6  0  0  0
 38 34  1  1  0  0  0
 37 35  1  6  0  0  0
 41 36  1  0  0  0  0
 37 36  1  0  0  0  0
  1  2  2  0  0  0  0
  2  3  1  0  0  0  0
  3  4  1  0  0  0  0
  4  5  1  0  0  0  0
  5  6  2  0  0  0  0
  6  7  1  0  0  0  0
  7  8  2  0  0  0  0
  8  9  1  0  0  0  0
  4  9  2  0  0  0  0
  9 10  1  0  0  0  0
  1 10  1  0  0  0  0
  3 11  2  0  0  0  0
 38 37  1  0  0  0  0
 39 38  1  0  0  0  0
 40 39  1  0  0  0  0
 41 40  1  0  0  0  0
  7 42  1  0  0  0  0
 15 16  1  0  0  0  0
 16 17  1  0  0  0  0
 17 18  1  0  0  0  0
 18 19  1  0  0  0  0
 19 20  1  0  0  0  0
 15 20  1  0  0  0  0
 19 21  1  6  0  0  0
 18 22  1  1  0  0  0
 17 23  1  6  0  0  0
 16 14  1  1  0  0  0
  2 14  1  0  0  0  0
  5 24  1  0  0  0  0
 25 26  1  0  0  0  0
 26 27  2  0  0  0  0
 27 28  1  0  0  0  0
 28 29  2  0  0  0  0
 29 30  1  0  0  0  0
 25 30  2  0  0  0  0
 28 31  1  0  0  0  0
 27 32  1  0  0  0  0
  1 25  1  0  0  0  0
M  END
>  <cdx:fragmentId>
5

$$$$
