302867.cdx
  Mrv1902 05222410252D          

  8  8  0  0  0  0            999 V2000
    8.1395   -7.1439    0.0000 C   0  0  0  0  0  0  0  0  0  0  0  0
    8.1395   -7.9689    0.0000 C   0  0  0  0  0  0  0  0  0  0  0  0
    7.4250   -8.3814    0.0000 C   0  0  0  0  0  0  0  0  0  0  0  0
    6.7105   -7.9689    0.0000 C   0  0  0  0  0  0  0  0  0  0  0  0
    6.7105   -7.1439    0.0000 C   0  0  0  0  0  0  0  0  0  0  0  0
    5.9961   -8.3814    0.0000 O   0  0  0  0  0  0  0  0  0  0  0  0
    8.8539   -6.7314    0.0000 O   0  0  0  0  0  0  0  0  0  0  0  0
    7.4250   -6.7314    0.0000 O   0  0  0  0  0  0  0  0  0  0  0  0
  1  2  1  0  0  0  0
  2  3  1  0  0  0  0
  3  4  1  0  0  0  0
  4  5  1  0  0  0  0
  4  6  2  0  0  0  0
  1  7  2  0  0  0  0
  1  8  1  0  0  0  0
  5  8  1  0  0  0  0
M  END
>  <cdx:groupId>
26

>  <cdx:fragmentId>
5

$$$$
