302835.cdx
  Mrv1902 05222410182D          

 42 47  0  0  0  0            999 V2000
    9.8627   -6.7745    0.0000 O   0  0  0  0  0  0  0  0  0  0  0  0
   10.3476   -7.4420    0.0000 C   0  0  0  0  0  0  0  0  0  0  0  0
    9.8627   -8.1094    0.0000 O   0  0  0  0  0  0  0  0  0  0  0  0
    9.0781   -7.8545    0.0000 C   0  0  0  0  0  0  0  0  0  0  0  0
    9.0781   -7.0295    0.0000 C   0  0  0  0  0  0  0  0  0  0  0  0
    8.3636   -8.2670    0.0000 C   0  0  0  0  0  0  0  0  0  0  0  0
    7.6491   -7.8545    0.0000 C   0  0  0  0  0  0  0  0  0  0  0  0
    7.6491   -7.0295    0.0000 C   0  0  0  0  0  0  0  0  0  0  0  0
    8.3636   -6.6170    0.0000 C   0  0  0  0  0  0  0  0  0  0  0  0
    4.9506   -7.4420    0.0000 O   0  0  0  0  0  0  0  0  0  0  0  0
    5.4356   -8.1094    0.0000 C   0  0  0  0  0  0  0  0  0  0  0  0
    6.2202   -7.8545    0.0000 C   0  0  1  0  0  0  0  0  0  0  0  0
    6.2202   -7.0295    0.0000 C   0  0  2  0  0  0  0  0  0  0  0  0
    5.4356   -6.7745    0.0000 C   0  0  0  0  0  0  0  0  0  0  0  0
    6.9347   -6.6170    0.0000 C   0  0  2  0  0  0  0  0  0  0  0  0
    6.9347   -8.2670    0.0000 C   0  0  0  0  0  0  0  0  0  0  0  0
    5.1806   -5.9899    0.0000 O   0  0  0  0  0  0  0  0  0  0  0  0
    6.9347   -5.7920    0.0000 C   0  0  0  0  0  0  0  0  0  0  0  0
    6.2202   -5.3795    0.0000 C   0  0  0  0  0  0  0  0  0  0  0  0
    6.2202   -4.5545    0.0000 C   0  0  0  0  0  0  0  0  0  0  0  0
    6.9347   -4.1420    0.0000 C   0  0  0  0  0  0  0  0  0  0  0  0
    7.6491   -4.5545    0.0000 C   0  0  0  0  0  0  0  0  0  0  0  0
    7.6491   -5.3795    0.0000 C   0  0  0  0  0  0  0  0  0  0  0  0
    8.3636   -4.1420    0.0000 O   0  0  0  0  0  0  0  0  0  0  0  0
    9.0781   -4.5545    0.0000 C   0  0  0  0  0  0  0  0  0  0  0  0
    6.9347   -3.3170    0.0000 O   0  0  0  0  0  0  0  0  0  0  0  0
    5.5057   -4.1420    0.0000 O   0  0  0  0  0  0  0  0  0  0  0  0
    4.7912   -4.5545    0.0000 C   0  0  0  0  0  0  0  0  0  0  0  0
    8.3636   -9.0920    0.0000 O   0  0  0  0  0  0  0  0  0  0  0  0
    6.9347   -9.0920    0.0000 O   0  0  0  0  0  0  0  0  0  0  0  0
    7.6491   -9.5045    0.0000 C   0  0  2  0  0  0  0  0  0  0  0  0
    7.6491  -10.3295    0.0000 C   0  0  1  0  0  0  0  0  0  0  0  0
    6.9347  -10.7420    0.0000 C   0  0  2  0  0  0  0  0  0  0  0  0
    6.2202  -10.3295    0.0000 C   0  0  1  0  0  0  0  0  0  0  0  0
    6.2202   -9.5045    0.0000 C   0  0  1  0  0  0  0  0  0  0  0  0
    5.5057   -9.0920    0.0000 C   0  0  0  0  0  0  0  0  0  0  0  0
    4.7912   -9.5045    0.0000 O   0  0  0  0  0  0  0  0  0  0  0  0
    5.5057  -10.7420    0.0000 O   0  0  0  0  0  0  0  0  0  0  0  0
    6.9347  -11.5670    0.0000 O   0  0  0  0  0  0  0  0  0  0  0  0
    8.3636  -10.7420    0.0000 O   0  0  0  0  0  0  0  0  0  0  0  0
    6.1339   -8.6749    0.0000 H   0  0  0  0  0  0  0  0  0  0  0  0
    6.1339   -6.2090    0.0000 H   0  0  0  0  0  0  0  0  0  0  0  0
  1  2  1  0  0  0  0
  2  3  1  0  0  0  0
  3  4  1  0  0  0  0
  4  5  1  0  0  0  0
  1  5  1  0  0  0  0
  6  7  1  0  0  0  0
  7  8  2  0  0  0  0
  8  9  1  0  0  0  0
  9  5  2  0  0  0  0
  6  4  2  0  0  0  0
 10 11  1  0  0  0  0
 11 12  1  0  0  0  0
 12 13  1  0  0  0  0
 13 14  1  0  0  0  0
 10 14  1  0  0  0  0
 16 12  1  0  0  0  0
 15 13  1  0  0  0  0
 16  7  1  0  0  0  0
 15  8  1  0  0  0  0
 14 17  2  0  0  0  0
 18 19  1  0  0  0  0
 19 20  2  0  0  0  0
 20 21  1  0  0  0  0
 21 22  2  0  0  0  0
 22 23  1  0  0  0  0
 18 23  2  0  0  0  0
 24 25  1  0  0  0  0
 22 24  1  0  0  0  0
 21 26  1  0  0  0  0
 27 28  1  0  0  0  0
 20 27  1  0  0  0  0
 15 18  1  6  0  0  0
 30 31  1  0  0  0  0
 31 32  1  0  0  0  0
 32 33  1  0  0  0  0
 33 34  1  0  0  0  0
 34 35  1  0  0  0  0
 30 35  1  0  0  0  0
 36 37  1  0  0  0  0
 35 36  1  1  0  0  0
 34 38  1  6  0  0  0
 33 39  1  1  0  0  0
 32 40  1  6  0  0  0
 31 29  1  1  0  0  0
  6 29  1  0  0  0  0
 12 41  1  6  0  0  0
 13 42  1  1  0  0  0
M  END
>  <cdx:groupId>
136

>  <cdx:fragmentId>
5

$$$$
