302819.cdx
  Mrv1902 05222410202D          

 21 20  0  0  0  0            999 V2000
    1.2952   -6.1875    0.0000 C   0  0  0  0  0  0  0  0  0  0  0  0
    2.0097   -5.7750    0.0000 C   0  0  2  0  0  0  0  0  0  0  0  0
    2.7242   -6.1875    0.0000 C   0  0  0  0  0  0  0  0  0  0  0  0
    3.4387   -5.7750    0.0000 C   0  0  0  0  0  0  0  0  0  0  0  0
    4.1531   -6.1875    0.0000 C   0  0  0  0  0  0  0  0  0  0  0  0
    4.8676   -5.7750    0.0000 C   0  0  0  0  0  0  0  0  0  0  0  0
    5.5821   -6.1875    0.0000 C   0  0  0  0  0  0  0  0  0  0  0  0
    6.2965   -5.7750    0.0000 C   0  0  0  0  0  0  0  0  0  0  0  0
    7.0110   -6.1875    0.0000 C   0  0  0  0  0  0  0  0  0  0  0  0
    7.7255   -5.7750    0.0000 C   0  0  0  0  0  0  0  0  0  0  0  0
    8.4400   -6.1875    0.0000 C   0  0  0  0  0  0  0  0  0  0  0  0
    9.1544   -5.7750    0.0000 C   0  0  0  0  0  0  0  0  0  0  0  0
    2.0097   -4.9500    0.0000 O   0  0  0  0  0  0  0  0  0  0  0  0
    9.1544   -4.9500    0.0000 O   0  0  0  0  0  0  0  0  0  0  0  0
    9.8689   -6.1875    0.0000 N   0  0  0  0  0  0  0  0  0  0  0  0
   10.5834   -5.7750    0.0000 C   0  0  0  0  0  0  0  0  0  0  0  0
   11.2978   -6.1875    0.0000 C   0  0  0  0  0  0  0  0  0  0  0  0
   11.2978   -7.0125    0.0000 C   0  0  0  0  0  0  0  0  0  0  0  0
   12.0123   -5.7750    0.0000 C   0  0  0  0  0  0  0  0  0  0  0  0
   12.0123   -6.6000    0.0000 O   0  0  0  0  0  0  0  0  0  0  0  0
    5.5821   -7.0125    0.0000 O   0  0  0  0  0  0  0  0  0  0  0  0
  1  2  1  0  0  0  0
  2  3  1  0  0  0  0
  3  4  2  0  0  0  0
  4  5  1  0  0  0  0
  5  6  2  0  0  0  0
  6  7  1  0  0  0  0
  7  8  1  0  0  0  0
  8  9  1  0  0  0  0
  9 10  1  0  0  0  0
 10 11  2  0  0  0  0
 11 12  1  0  0  0  0
  2 13  1  1  0  0  0
 12 14  2  0  0  0  0
 12 15  1  0  0  0  0
 15 16  1  0  0  0  0
 16 17  1  0  0  0  0
 17 18  1  0  0  0  0
 17 19  1  0  0  0  0
 17 20  1  0  0  0  0
  7 21  1  0  0  0  0
M  END
>  <cdx:fragmentId>
14

$$$$
