302852.cdx
  Mrv1902 05222410222D          

 10 10  0  0  0  0            999 V2000
    7.7211   -6.0692    0.0000 C   0  0  1  0  0  0  0  0  0  0  0  0
    7.9852   -5.2876    0.0000 C   0  0  1  0  0  0  0  0  0  0  0  0
    7.3235   -4.7949    0.0000 O   0  0  0  0  0  0  0  0  0  0  0  0
    6.6504   -5.2720    0.0000 C   0  0  1  0  0  0  0  0  0  0  0  0
    6.8961   -6.0595    0.0000 C   0  0  1  0  0  0  0  0  0  0  0  0
    8.7890   -5.1018    0.0000 O   0  0  0  0  0  0  0  0  0  0  0  0
    6.2929   -6.6224    0.0000 O   0  0  0  0  0  0  0  0  0  0  0  0
    8.2839   -6.6724    0.0000 O   0  0  0  0  0  0  0  0  0  0  0  0
    5.8688   -5.0078    0.0000 C   0  0  0  0  0  0  0  0  0  0  0  0
    5.2493   -5.5526    0.0000 O   0  0  0  0  0  0  0  0  0  0  0  0
  1  2  1  0  0  0  0
  2  3  1  0  0  0  0
  3  4  1  0  0  0  0
  4  5  1  0  0  0  0
  5  1  1  0  0  0  0
  2  6  1  1  0  0  0
  5  7  1  6  0  0  0
  1  8  1  6  0  0  0
  4  9  1  1  0  0  0
  9 10  1  0  0  0  0
M  END
>  <cdx:fragmentId>
5

$$$$
