30289.cdx
  Mrv1902 05222410272D          

  9  8  0  0  0  0            999 V2000
    7.6119   -8.3176    0.0000 C   0  0  0  0  0  0  0  0  0  0  0  0
    6.8974   -8.7301    0.0000 C   0  0  0  0  0  0  0  0  0  0  0  0
    6.1829   -8.3176    0.0000 C   0  0  0  0  0  0  0  0  0  0  0  0
    5.4684   -8.7301    0.0000 S   0  0  0  0  0  0  0  0  0  0  0  0
    4.7540   -8.3176    0.0000 C   0  0  0  0  0  0  0  0  0  0  0  0
    4.0395   -8.7301    0.0000 C   0  0  0  0  0  0  0  0  0  0  0  0
    3.3250   -8.3176    0.0000 C   0  0  0  0  0  0  0  0  0  0  0  0
    4.0395   -9.5551    0.0000 H   0  0  0  0  0  0  0  0  0  0  0  0
    4.7540   -7.4926    0.0000 H   0  0  0  0  0  0  0  0  0  0  0  0
  2  1  1  0  0  0  0
  3  2  1  0  0  0  0
  4  3  1  0  0  0  0
  5  4  1  0  0  0  0
  6  5  2  0  0  0  0
  7  6  1  0  0  0  0
  6  8  1  0  0  0  0
  5  9  1  0  0  0  0
M  END
>  <cdx:fragmentId>
3

$$$$
