302822.cdx
  Mrv1902 05222410192D          

 27 27  0  0  0  0            999 V2000
    4.4494   -3.8439    0.0000 O   0  0  0  0  0  0  0  0  0  0  0  0
    3.7350   -4.2564    0.0000 C   0  0  2  0  0  0  0  0  0  0  0  0
    3.7350   -5.0814    0.0000 C   0  0  1  0  0  0  0  0  0  0  0  0
    4.4494   -5.4939    0.0000 O   0  0  0  0  0  0  0  0  0  0  0  0
    3.0205   -5.4939    0.0000 C   0  0  1  0  0  0  0  0  0  0  0  0
    3.0205   -6.3189    0.0000 O   0  0  0  0  0  0  0  0  0  0  0  0
    2.3060   -5.0814    0.0000 C   0  0  2  0  0  0  0  0  0  0  0  0
    1.5915   -5.4939    0.0000 O   0  0  0  0  0  0  0  0  0  0  0  0
    2.3060   -4.2564    0.0000 C   0  0  2  0  0  0  0  0  0  0  0  0
    3.0205   -3.8439    0.0000 O   0  0  0  0  0  0  0  0  0  0  0  0
    1.5915   -3.8439    0.0000 C   0  0  0  0  0  0  0  0  0  0  0  0
    0.8771   -4.2564    0.0000 O   0  0  0  0  0  0  0  0  0  0  0  0
    5.1639   -4.2564    0.0000 C   0  0  0  0  0  0  0  0  0  0  0  0
    5.8784   -3.8439    0.0000 C   0  0  0  0  0  0  0  0  0  0  0  0
    6.5928   -4.2564    0.0000 C   0  0  0  0  0  0  0  0  0  0  0  0
    7.3073   -3.8439    0.0000 C   0  0  0  0  0  0  0  0  0  0  0  0
    6.5928   -5.0814    0.0000 C   0  0  0  0  0  0  0  0  0  0  0  0
    8.0218   -4.2564    0.0000 C   0  0  0  0  0  0  0  0  0  0  0  0
    8.7363   -3.8439    0.0000 C   0  0  0  0  0  0  0  0  0  0  0  0
    9.4507   -4.2564    0.0000 C   0  0  0  0  0  0  0  0  0  0  0  0
    9.4507   -5.0814    0.0000 C   0  0  0  0  0  0  0  0  0  0  0  0
   10.1652   -3.8439    0.0000 C   0  0  0  0  0  0  0  0  0  0  0  0
   10.8797   -4.2564    0.0000 C   0  0  0  0  0  0  0  0  0  0  0  0
   11.5941   -3.8439    0.0000 C   0  0  0  0  0  0  0  0  0  0  0  0
   12.3086   -4.2564    0.0000 C   0  0  0  0  0  0  0  0  0  0  0  0
   12.3086   -5.0814    0.0000 C   0  0  0  0  0  0  0  0  0  0  0  0
   13.0231   -3.8439    0.0000 C   0  0  0  0  0  0  0  0  0  0  0  0
  2  1  1  6  0  0  0
  2  3  1  0  0  0  0
  3  4  1  1  0  0  0
  3  5  1  0  0  0  0
  5  6  1  1  0  0  0
  5  7  1  0  0  0  0
  7  8  1  6  0  0  0
  7  9  1  0  0  0  0
  9 10  1  0  0  0  0
  9 11  1  1  0  0  0
 11 12  1  0  0  0  0
  2 10  1  0  0  0  0
  1 13  1  0  0  0  0
 13 14  1  0  0  0  0
 14 15  2  0  0  0  0
 15 16  1  0  0  0  0
 15 17  1  0  0  0  0
 16 18  1  0  0  0  0
 18 19  1  0  0  0  0
 19 20  2  0  0  0  0
 20 21  1  0  0  0  0
 20 22  1  0  0  0  0
 22 23  1  0  0  0  0
 23 24  1  0  0  0  0
 24 25  2  0  0  0  0
 25 26  1  0  0  0  0
 25 27  1  0  0  0  0
M  END
>  <cdx:groupId>
41

>  <cdx:fragmentId>
5

$$$$
