302845.cdx
  Mrv1902 05222410222D          

 35 39  0  0  0  0            999 V2000
    5.0698   -8.4493    0.0000 C   0  0  0  0  0  0  0  0  0  0  0  0
    5.0698   -9.2738    0.0000 C   0  0  1  0  0  0  0  0  0  0  0  0
    5.7844   -9.6861    0.0000 C   0  0  0  0  0  0  0  0  0  0  0  0
    6.4716   -9.2738    0.0000 C   0  0  1  0  0  0  0  0  0  0  0  0
    6.4716   -8.4493    0.0000 C   0  0  2  0  0  0  0  0  0  0  0  0
    5.7844   -8.0370    0.0000 C   0  0  0  0  0  0  0  0  0  0  0  0
    7.1863   -9.6861    0.0000 C   0  0  0  0  0  0  0  0  0  0  0  0
    7.9009   -9.2738    0.0000 C   0  0  0  0  0  0  0  0  0  0  0  0
    7.9009   -8.4493    0.0000 C   0  0  2  0  0  0  0  0  0  0  0  0
    7.1863   -8.0370    0.0000 C   0  0  2  0  0  0  0  0  0  0  0  0
    8.6155   -8.0370    0.0000 C   0  0  1  0  0  0  0  0  0  0  0  0
    8.6155   -7.2123    0.0000 C   0  0  0  0  0  0  0  0  0  0  0  0
    7.9009   -6.8000    0.0000 C   0  0  0  0  0  0  0  0  0  0  0  0
    7.1863   -7.2123    0.0000 C   0  0  0  0  0  0  0  0  0  0  0  0
    9.3301   -8.4493    0.0000 C   0  0  0  0  0  0  0  0  0  0  0  0
   10.0448   -8.0370    0.0000 C   0  0  0  0  0  0  0  0  0  0  0  0
   10.0448   -7.2123    0.0000 C   0  0  2  0  0  0  0  0  0  0  0  0
    9.3301   -6.8000    0.0000 C   0  0  1  0  0  0  0  0  0  0  0  0
   10.7594   -6.8000    0.0000 C   0  0  0  0  0  0  0  0  0  0  0  0
   10.7594   -5.9755    0.0000 C   0  0  0  0  0  0  0  0  0  0  0  0
   10.0448   -5.5632    0.0000 C   0  0  0  0  0  0  0  0  0  0  0  0
    9.3301   -5.9755    0.0000 C   0  0  0  0  0  0  0  0  0  0  0  0
   10.7594   -7.6246    0.0000 C   0  0  0  0  0  0  0  0  0  0  0  0
    9.3301   -7.6246    0.0000 H   0  0  0  0  0  0  0  0  0  0  0  0
    7.9009   -7.6246    0.0000 C   0  0  0  0  0  0  0  0  0  0  0  0
    6.4716   -7.6246    0.0000 C   0  0  0  0  0  0  0  0  0  0  0  0
    4.3552   -9.6861    0.0000 O   0  0  0  0  0  0  0  0  0  0  0  0
    9.6325   -4.8485    0.0000 C   0  0  0  0  0  0  0  0  0  0  0  0
    8.6155   -8.8615    0.0000 C   0  0  0  0  0  0  0  0  0  0  0  0
    7.1863   -8.8615    0.0000 H   0  0  0  0  0  0  0  0  0  0  0  0
    6.4716  -10.0984    0.0000 H   0  0  0  0  0  0  0  0  0  0  0  0
    6.1969  -10.4005    0.0000 C   0  0  0  0  0  0  0  0  0  0  0  0
    5.3719  -10.4005    0.0000 C   0  0  0  0  0  0  0  0  0  0  0  0
   10.4570   -4.8485    0.0000 C   0  0  0  0  0  0  0  0  0  0  0  0
    6.4718   -6.7998    0.0000 O   0  0  0  0  0  0  0  0  0  0  0  0
  1  2  1  0  0  0  0
  2  3  1  0  0  0  0
  3  4  1  0  0  0  0
  4  5  1  0  0  0  0
  5  6  1  0  0  0  0
  1  6  1  0  0  0  0
  4  7  1  0  0  0  0
  7  8  1  0  0  0  0
  8  9  1  0  0  0  0
  9 10  1  0  0  0  0
  5 10  1  0  0  0  0
  9 11  1  0  0  0  0
 11 12  1  0  0  0  0
 12 13  2  0  0  0  0
 13 14  1  0  0  0  0
 10 14  1  0  0  0  0
 11 15  1  0  0  0  0
 15 16  1  0  0  0  0
 16 17  1  0  0  0  0
 17 18  1  0  0  0  0
 12 18  1  0  0  0  0
 17 19  1  0  0  0  0
 19 20  1  0  0  0  0
 20 21  1  0  0  0  0
 21 22  1  0  0  0  0
 18 22  1  0  0  0  0
 17 23  1  1  0  0  0
 18 24  1  1  0  0  0
  9 25  1  1  0  0  0
  5 26  1  1  0  0  0
  2 27  1  1  0  0  0
 21 28  1  0  0  0  0
 11 29  1  6  0  0  0
 10 30  1  6  0  0  0
  4 31  1  6  0  0  0
  3 32  1  0  0  0  0
  3 33  1  0  0  0  0
 21 34  1  0  0  0  0
 14 35  2  0  0  0  0
M  END
>  <cdx:fragmentId>
3

$$$$
