302825.cdx
  Mrv1902 05222410202D          

 15 15  0  0  0  0            999 V2000
    9.7621   -3.2976    0.0000 C   0  0  0  0  0  0  0  0  0  0  0  0
    9.7621   -4.7266    0.0000 C   0  0  0  0  0  0  0  0  0  0  0  0
    5.6371   -3.2976    0.0000 C   0  0  0  0  0  0  0  0  0  0  0  0
    4.8121   -4.7266    0.0000 C   0  0  0  0  0  0  0  0  0  0  0  0
    7.2871   -6.1555    0.0000 C   0  0  0  0  0  0  0  0  0  0  0  0
    9.3496   -4.0121    0.0000 C   0  0  0  0  0  0  0  0  0  0  0  0
    8.5246   -4.0121    0.0000 C   0  0  0  0  0  0  0  0  0  0  0  0
    8.5246   -5.4410    0.0000 O   0  0  0  0  0  0  0  0  0  0  0  0
    6.8746   -5.4410    0.0000 C   0  0  0  0  0  0  0  0  0  0  0  0
    6.0496   -5.4410    0.0000 C   0  0  0  0  0  0  0  0  0  0  0  0
    5.6371   -4.7266    0.0000 C   0  0  0  0  0  0  0  0  0  0  0  0
    6.0496   -4.0121    0.0000 C   0  0  0  0  0  0  0  0  0  0  0  0
    6.8746   -4.0121    0.0000 C   0  0  0  0  0  0  0  0  0  0  0  0
    7.2871   -4.7266    0.0000 C   0  0  0  0  0  0  0  0  0  0  0  0
    8.1121   -4.7266    0.0000 C   0  0  0  0  0  0  0  0  0  0  0  0
  6  1  1  0  0  0  0
  6  2  1  0  0  0  0
 12  3  1  0  0  0  0
 11  4  1  0  0  0  0
  9  5  1  0  0  0  0
  7  6  1  0  0  0  0
 15  7  1  0  0  0  0
 15  8  1  0  0  0  0
 14  9  2  0  0  0  0
 10  9  1  0  0  0  0
 11 10  2  0  0  0  0
 12 11  1  0  0  0  0
 13 12  2  0  0  0  0
 14 13  1  0  0  0  0
 15 14  1  0  0  0  0
M  END
>  <cdx:groupId>
78

>  <cdx:fragmentId>
57

$$$$
