30283.cdx
  Mrv1902 05222410182D          

 42 41  0  0  0  0            999 V2000
    2.0170  -18.5650    0.0000 C   0  0  0  0  0  0  0  0  0  0  0  0
    2.2890  -17.7861    0.0000 C   0  0  0  0  0  0  0  0  0  0  0  0
    3.0995  -17.6322    0.0000 C   0  0  0  0  0  0  0  0  0  0  0  0
    3.3714  -16.8533    0.0000 C   0  0  0  0  0  0  0  0  0  0  0  0
    4.1820  -16.6994    0.0000 C   0  0  0  0  0  0  0  0  0  0  0  0
    4.4539  -15.9205    0.0000 C   0  0  0  0  0  0  0  0  0  0  0  0
    5.2644  -15.7666    0.0000 C   0  0  0  0  0  0  0  0  0  0  0  0
    5.5364  -14.9877    0.0000 C   0  0  0  0  0  0  0  0  0  0  0  0
    6.3469  -14.8338    0.0000 C   0  0  0  0  0  0  0  0  0  0  0  0
    6.6189  -14.0549    0.0000 C   0  0  0  0  0  0  0  0  0  0  0  0
    7.4294  -13.9010    0.0000 C   0  0  0  0  0  0  0  0  0  0  0  0
    7.7014  -13.1221    0.0000 C   0  0  0  0  0  0  0  0  0  0  0  0
    8.5119  -12.9682    0.0000 C   0  0  0  0  0  0  0  0  0  0  0  0
    8.7838  -12.1893    0.0000 C   0  0  0  0  0  0  0  0  0  0  0  0
    9.5944  -12.0354    0.0000 C   0  0  0  0  0  0  0  0  0  0  0  0
    9.8663  -11.2565    0.0000 C   0  0  0  0  0  0  0  0  0  0  0  0
   10.6768  -11.1026    0.0000 O   0  0  0  0  0  0  0  0  0  0  0  0
   10.9488  -10.3237    0.0000 C   0  0  0  0  0  0  0  0  0  0  0  0
   11.7593  -10.1698    0.0000 C   0  0  0  0  0  0  0  0  0  0  0  0
   12.0313   -9.3909    0.0000 O   0  0  0  0  0  0  0  0  0  0  0  0
   12.8418   -9.2370    0.0000 C   0  0  0  0  0  0  0  0  0  0  0  0
   13.1138   -8.4581    0.0000 C   0  0  0  0  0  0  0  0  0  0  0  0
   13.9243   -8.3042    0.0000 C   0  0  0  0  0  0  0  0  0  0  0  0
   14.1962   -7.5253    0.0000 C   0  0  0  0  0  0  0  0  0  0  0  0
   15.0068   -7.3714    0.0000 C   0  0  0  0  0  0  0  0  0  0  0  0
   15.2787   -6.5925    0.0000 C   0  0  0  0  0  0  0  0  0  0  0  0
   16.0892   -6.4386    0.0000 C   0  0  0  0  0  0  0  0  0  0  0  0
   16.3612   -5.6597    0.0000 C   0  0  0  0  0  0  0  0  0  0  0  0
   17.1717   -5.5058    0.0000 C   0  0  0  0  0  0  0  0  0  0  0  0
   17.1999   -4.6094    0.0000 C   0  0  0  0  0  0  0  0  0  0  0  0
    9.3523  -10.6780    0.0000 O   0  0  0  0  0  0  0  0  0  0  0  0
   12.2340  -10.7090    0.0000 C   0  0  0  0  0  0  0  0  0  0  0  0
   12.1598  -11.3306    0.0000 O   0  0  0  0  0  0  0  0  0  0  0  0
   13.3558   -9.8155    0.0000 O   0  0  0  0  0  0  0  0  0  0  0  0
   16.6165   -4.0260    0.0000 C   0  0  0  0  0  0  0  0  0  0  0  0
   16.8300   -3.2292    0.0000 C   0  0  0  0  0  0  0  0  0  0  0  0
   16.2467   -2.6458    0.0000 C   0  0  0  0  0  0  0  0  0  0  0  0
   15.4498   -2.8593    0.0000 C   0  0  0  0  0  0  0  0  0  0  0  0
   14.8664   -2.2760    0.0000 C   0  0  0  0  0  0  0  0  0  0  0  0
   14.0695   -2.4895    0.0000 C   0  0  0  0  0  0  0  0  0  0  0  0
   13.4861   -1.9061    0.0000 C   0  0  0  0  0  0  0  0  0  0  0  0
   12.6893   -2.1196    0.0000 C   0  0  0  0  0  0  0  0  0  0  0  0
  1  2  1  0  0  0  0
  2  3  1  0  0  0  0
  3  4  1  0  0  0  0
  4  5  1  0  0  0  0
  5  6  1  0  0  0  0
  6  7  1  0  0  0  0
  7  8  1  0  0  0  0
  8  9  1  0  0  0  0
  9 10  1  0  0  0  0
 10 11  1  0  0  0  0
 11 12  1  0  0  0  0
 12 13  1  0  0  0  0
 13 14  1  0  0  0  0
 14 15  1  0  0  0  0
 15 16  1  0  0  0  0
 16 17  1  0  0  0  0
 17 18  1  0  0  0  0
 18 19  1  0  0  0  0
 19 20  1  0  0  0  0
 20 21  1  0  0  0  0
 21 22  1  0  0  0  0
 22 23  1  0  0  0  0
 23 24  1  0  0  0  0
 24 25  1  0  0  0  0
 25 26  1  0  0  0  0
 26 27  1  0  0  0  0
 27 28  1  0  0  0  0
 28 29  1  0  0  0  0
 29 30  2  0  0  0  0
 16 31  2  0  0  0  0
 19 32  1  0  0  0  0
 32 33  1  0  0  0  0
 21 34  2  0  0  0  0
 30 35  1  0  0  0  0
 35 36  1  0  0  0  0
 36 37  2  0  0  0  0
 37 38  1  0  0  0  0
 38 39  1  0  0  0  0
 39 40  1  0  0  0  0
 40 41  1  0  0  0  0
 41 42  1  0  0  0  0
M  END
>  <cdx:fragmentId>
166

$$$$
