30282.cdx
  Mrv1902 05222410182D          

  9  8  0  0  0  0            999 V2000
    5.1675   -9.5139    0.0000 C   0  0  0  0  0  0  0  0  0  0  0  0
    5.8820   -9.1014    0.0000 C   0  0  0  0  0  0  0  0  0  0  0  0
    6.5965   -9.5139    0.0000 C   0  0  0  0  0  0  0  0  0  0  0  0
    7.3109   -9.1014    0.0000 C   0  0  0  0  0  0  0  0  0  0  0  0
    8.0254   -9.5139    0.0000 C   0  0  0  0  0  0  0  0  0  0  0  0
    8.7399   -9.1014    0.0000 C   0  0  0  0  0  0  0  0  0  0  0  0
    9.4544   -9.5139    0.0000 C   0  0  0  0  0  0  0  0  0  0  0  0
   10.1688   -9.1014    0.0000 C   0  0  0  0  0  0  0  0  0  0  0  0
    6.5965  -10.3389    0.0000 O   0  0  0  0  0  0  0  0  0  0  0  0
  1  2  2  0  0  0  0
  2  3  1  0  0  0  0
  3  4  1  0  0  0  0
  4  5  1  0  0  0  0
  5  6  1  0  0  0  0
  6  7  1  0  0  0  0
  7  8  1  0  0  0  0
  3  9  2  0  0  0  0
M  END
>  <cdx:fragmentId>
3

$$$$
