302898.cdx
  Mrv1902 05222410252D          

 53 58  0  0  0  0            999 V2000
   12.0454   -5.2045    0.0000 O   0  0  0  0  0  0  0  0  0  0  0  0
   12.0320   -3.5546    0.0000 O   0  0  0  0  0  0  0  0  0  0  0  0
    9.8920   -3.9844    0.0000 C   0  0  0  0  0  0  0  0  0  0  0  0
   10.6032   -3.5662    0.0000 C   0  0  0  0  0  0  0  0  0  0  0  0
   11.3209   -3.9729    0.0000 C   0  0  0  0  0  0  0  0  0  0  0  0
   11.3276   -4.7978    0.0000 C   0  0  0  0  0  0  0  0  0  0  0  0
   10.6165   -5.2161    0.0000 C   0  0  0  0  0  0  0  0  0  0  0  0
    9.8987   -4.8094    0.0000 C   0  0  0  0  0  0  0  0  0  0  0  0
    7.0610   -7.3075    0.0000 O   0  0  0  0  0  0  0  0  0  0  0  0
    5.6254   -6.4941    0.0000 O   0  0  0  0  0  0  0  0  0  0  0  0
    4.2032   -7.3306    0.0000 O   0  0  0  0  0  0  0  0  0  0  0  0
    2.7676   -6.5172    0.0000 O   0  0  0  0  0  0  0  0  0  0  0  0
    2.7542   -4.8672    0.0000 C   0  0  0  0  0  0  0  0  0  0  0  0
    3.4720   -5.2739    0.0000 C   0  0  1  0  0  0  0  0  0  0  0  0
    3.4787   -6.0989    0.0000 C   0  0  1  0  0  0  0  0  0  0  0  0
    4.1965   -6.5056    0.0000 C   0  0  2  0  0  0  0  0  0  0  0  0
    4.9076   -6.0873    0.0000 C   0  0  2  0  0  0  0  0  0  0  0  0
    4.9009   -5.2624    0.0000 C   0  0  1  0  0  0  0  0  0  0  0  0
    4.1831   -4.8557    0.0000 O   0  0  0  0  0  0  0  0  0  0  0  0
    5.6120   -4.8441    0.0000 O   0  0  0  0  0  0  0  0  0  0  0  0
   11.3477   -7.2728    0.0000 O   0  0  0  0  0  0  0  0  0  0  0  0
   11.3610   -8.9227    0.0000 O   0  0  0  0  0  0  0  0  0  0  0  0
    9.9388   -9.7592    0.0000 O   0  0  0  0  0  0  0  0  0  0  0  0
    7.7988  -10.1891    0.0000 O   0  0  0  0  0  0  0  0  0  0  0  0
    6.3766  -11.0256    0.0000 O   0  0  0  0  0  0  0  0  0  0  0  0
    4.9410  -10.2122    0.0000 O   0  0  0  0  0  0  0  0  0  0  0  0
    4.9276   -8.5623    0.0000 C   0  0  0  0  0  0  0  0  0  0  0  0
    5.6454   -8.9690    0.0000 C   0  0  1  0  0  0  0  0  0  0  0  0
    5.6521   -9.7939    0.0000 C   0  0  1  0  0  0  0  0  0  0  0  0
    6.3699  -10.2006    0.0000 C   0  0  2  0  0  0  0  0  0  0  0  0
    7.0810   -9.7824    0.0000 C   0  0  2  0  0  0  0  0  0  0  0  0
    7.0743   -8.9574    0.0000 C   0  0  1  0  0  0  0  0  0  0  0  0
    6.3565   -8.5507    0.0000 O   0  0  0  0  0  0  0  0  0  0  0  0
    7.7854   -8.5391    0.0000 O   0  0  0  0  0  0  0  0  0  0  0  0
    8.5032   -8.9458    0.0000 C   0  0  0  0  0  0  0  0  0  0  0  0
    9.2143   -8.5276    0.0000 C   0  0  2  0  0  0  0  0  0  0  0  0
    9.9321   -8.9343    0.0000 C   0  0  2  0  0  0  0  0  0  0  0  0
   10.6432   -8.5160    0.0000 C   0  0  1  0  0  0  0  0  0  0  0  0
   10.6365   -7.6910    0.0000 C   0  0  2  0  0  0  0  0  0  0  0  0
    9.9188   -7.2843    0.0000 C   0  0  1  0  0  0  0  0  0  0  0  0
    9.2077   -7.7026    0.0000 O   0  0  0  0  0  0  0  0  0  0  0  0
    9.9121   -6.4593    0.0000 O   0  0  0  0  0  0  0  0  0  0  0  0
    8.4899   -7.2959    0.0000 O   0  0  0  0  0  0  0  0  0  0  0  0
    8.4698   -4.8210    0.0000 O   0  0  0  0  0  0  0  0  0  0  0  0
    7.7587   -5.2392    0.0000 C   0  0  0  0  0  0  0  0  0  0  0  0
    7.0409   -4.8325    0.0000 C   0  0  0  0  0  0  0  0  0  0  0  0
    6.3298   -5.2508    0.0000 C   0  0  0  0  0  0  0  0  0  0  0  0
    6.3365   -6.0758    0.0000 C   0  0  0  0  0  0  0  0  0  0  0  0
    7.0543   -6.4825    0.0000 C   0  0  0  0  0  0  0  0  0  0  0  0
    7.7654   -6.0642    0.0000 C   0  0  0  0  0  0  0  0  0  0  0  0
    8.4832   -6.4709    0.0000 C   0  0  0  0  0  0  0  0  0  0  0  0
    9.1943   -6.0526    0.0000 C   0  0  0  0  0  0  0  0  0  0  0  0
    9.1876   -5.2277    0.0000 C   0  0  0  0  0  0  0  0  0  0  0  0
 53  8  1  0  0  0  0
  6  1  1  0  0  0  0
  5  2  1  0  0  0  0
  8  3  2  0  0  0  0
  4  3  1  0  0  0  0
  5  4  2  0  0  0  0
  6  5  1  0  0  0  0
  7  6  2  0  0  0  0
  8  7  1  0  0  0  0
 49  9  1  0  0  0  0
 47 20  1  0  0  0  0
 18 20  1  1  0  0  0
 17 10  1  6  0  0  0
 16 11  1  6  0  0  0
 15 12  1  1  0  0  0
 14 13  1  6  0  0  0
 19 14  1  0  0  0  0
 15 14  1  0  0  0  0
 16 15  1  0  0  0  0
 17 16  1  0  0  0  0
 18 17  1  0  0  0  0
 19 18  1  0  0  0  0
 52 42  1  0  0  0  0
 40 42  1  1  0  0  0
 39 21  1  6  0  0  0
 38 22  1  1  0  0  0
 37 23  1  6  0  0  0
 36 35  1  1  0  0  0
 35 34  1  0  0  0  0
 32 34  1  1  0  0  0
 31 24  1  6  0  0  0
 30 25  1  6  0  0  0
 29 26  1  1  0  0  0
 28 27  1  6  0  0  0
 33 28  1  0  0  0  0
 29 28  1  0  0  0  0
 30 29  1  0  0  0  0
 31 30  1  0  0  0  0
 32 31  1  0  0  0  0
 33 32  1  0  0  0  0
 41 36  1  0  0  0  0
 37 36  1  0  0  0  0
 38 37  1  0  0  0  0
 39 38  1  0  0  0  0
 40 39  1  0  0  0  0
 41 40  1  0  0  0  0
 51 43  2  0  0  0  0
 53 44  1  0  0  0  0
 45 44  1  0  0  0  0
 50 45  2  0  0  0  0
 46 45  1  0  0  0  0
 47 46  2  0  0  0  0
 48 47  1  0  0  0  0
 49 48  2  0  0  0  0
 50 49  1  0  0  0  0
 51 50  1  0  0  0  0
 52 51  1  0  0  0  0
 53 52  2  0  0  0  0
M  END
>  <cdx:fragmentId>
45

$$$$
