302841.cdx
  Mrv1902 05222410212D          

 16 16  0  0  0  0            999 V2000
    7.1479   -6.8772    0.0000 O   0  0  0  0  0  0  0  0  0  0  0  0
    6.3229   -7.7022    0.0000 C   0  0  0  0  0  0  0  0  0  0  0  0
    7.1479   -7.7022    0.0000 C   0  0  0  0  0  0  0  0  0  0  0  0
    7.9729   -7.7037    0.0000 C   0  0  0  0  0  0  0  0  0  0  0  0
    7.1464   -8.5272    0.0000 C   0  0  0  0  0  0  0  0  0  0  0  0
    7.8601   -8.9410    0.0000 C   0  0  0  0  0  0  0  0  0  0  0  0
    7.8586   -9.7660    0.0000 C   0  0  0  0  0  0  0  0  0  0  0  0
    7.1433  -10.1772    0.0000 C   0  0  0  0  0  0  0  0  0  0  0  0
    6.4296   -9.7634    0.0000 C   0  0  0  0  0  0  0  0  0  0  0  0
    6.4311   -8.9384    0.0000 C   0  0  0  0  0  0  0  0  0  0  0  0
    7.1418  -11.0022    0.0000 C   0  0  0  0  0  0  0  0  0  0  0  0
    7.8623   -6.4647    0.0000 C   0  0  0  0  0  0  0  0  0  0  0  0
    7.8623   -5.6397    0.0000 C   0  0  0  0  0  0  0  0  0  0  0  0
    8.5768   -6.8772    0.0000 O   0  0  0  0  0  0  0  0  0  0  0  0
    7.1479   -5.2272    0.0000 C   0  0  0  0  0  0  0  0  0  0  0  0
    8.5768   -5.2272    0.0000 C   0  0  0  0  0  0  0  0  0  0  0  0
  2  3  1  0  0  0  0
  3  4  1  0  0  0  0
  5  6  1  0  0  0  0
  6  7  1  0  0  0  0
  7  8  2  0  0  0  0
  8  9  1  0  0  0  0
  9 10  1  0  0  0  0
  5 10  1  0  0  0  0
  8 11  1  0  0  0  0
  3  5  1  0  0  0  0
  1  3  1  0  0  0  0
  1 12  1  0  0  0  0
 12 13  1  0  0  0  0
 12 14  2  0  0  0  0
 13 15  1  0  0  0  0
 13 16  1  0  0  0  0
M  END
>  <cdx:fragmentId>
51

$$$$
