302850.cdx
  Mrv1902 05222410222D          

 12 12  0  0  0  0            999 V2000
    9.0932   -6.1009    0.0000 O   0  0  0  0  0  0  0  0  0  0  0  0
    7.1353   -6.4135    0.0000 O   0  0  0  0  0  0  0  0  0  0  0  0
    7.7980   -6.9048    0.0000 C   0  0  2  0  0  0  0  0  0  0  0  0
    7.5355   -7.6869    0.0000 C   0  0  2  0  0  0  0  0  0  0  0  0
    6.7106   -7.6790    0.0000 C   0  0  1  0  0  0  0  0  0  0  0  0
    6.4632   -6.8919    0.0000 C   0  0  1  0  0  0  0  0  0  0  0  0
    8.6190   -6.9863    0.0000 O   0  0  0  0  0  0  0  0  0  0  0  0
    8.0140   -8.3590    0.0000 O   0  0  0  0  0  0  0  0  0  0  0  0
    6.2192   -8.3417    0.0000 O   0  0  0  0  0  0  0  0  0  0  0  0
    5.6811   -6.6295    0.0000 C   0  0  0  0  0  0  0  0  0  0  0  0
    5.0627   -7.1756    0.0000 O   0  0  0  0  0  0  0  0  0  0  0  0
    8.2791   -6.2346    0.0000 C   0  0  0  0  0  0  0  0  0  0  0  0
 12  1  1  0  0  0  0
  2  3  1  0  0  0  0
  3  4  1  0  0  0  0
  4  5  1  0  0  0  0
  5  6  1  0  0  0  0
  2  6  1  0  0  0  0
  3  7  1  1  0  0  0
  4  8  1  1  0  0  0
  5  9  1  6  0  0  0
 10 11  1  0  0  0  0
  6 10  1  1  0  0  0
  3 12  1  0  0  0  0
M  END
>  <cdx:fragmentId>
7

$$$$
