302856.cdx
  Mrv1902 05222410212D          

 12 12  0  0  0  0            999 V2000
    6.4286   -2.8053    0.0000 C   0  0  2  0  0  0  0  0  0  0  0  0
    6.4163   -3.6302    0.0000 C   0  0  2  0  0  0  0  0  0  0  0  0
    7.1246   -4.0533    0.0000 C   0  0  1  0  0  0  0  0  0  0  0  0
    7.8451   -3.6514    0.0000 C   0  0  2  0  0  0  0  0  0  0  0  0
    7.8574   -2.8265    0.0000 C   0  0  1  0  0  0  0  0  0  0  0  0
    7.1491   -2.4034    0.0000 O   0  0  0  0  0  0  0  0  0  0  0  0
    8.5779   -2.4246    0.0000 O   0  0  0  0  0  0  0  0  0  0  0  0
    7.1124   -4.8782    0.0000 O   0  0  0  0  0  0  0  0  0  0  0  0
    5.7203   -2.3822    0.0000 C   0  0  0  0  0  0  0  0  0  0  0  0
    5.6958   -4.0321    0.0000 O   0  0  0  0  0  0  0  0  0  0  0  0
    8.5534   -4.0745    0.0000 O   0  0  0  0  0  0  0  0  0  0  0  0
    4.9998   -2.7841    0.0000 O   0  0  0  0  0  0  0  0  0  0  0  0
  1  2  1  0  0  0  0
  2  3  1  0  0  0  0
  3  4  1  0  0  0  0
  4  5  1  0  0  0  0
  5  6  1  0  0  0  0
  6  1  1  0  0  0  0
  5  7  1  1  0  0  0
  3  8  1  1  0  0  0
  1  9  1  1  0  0  0
  2 10  1  6  0  0  0
  4 11  1  6  0  0  0
  9 12  1  0  0  0  0
M  END
>  <cdx:fragmentId>
5

$$$$
