302849.cdx
  Mrv1902 05222410242D          

 36 38  0  0  0  0            999 V2000
    5.5401   -8.1741    0.0000 C   0  0  1  0  0  0  0  0  0  0  0  0
    5.8098   -8.9538    0.0000 C   0  0  2  0  0  0  0  0  0  0  0  0
    6.6347   -8.9382    0.0000 C   0  0  1  0  0  0  0  0  0  0  0  0
    6.8748   -8.1489    0.0000 C   0  0  2  0  0  0  0  0  0  0  0  0
    6.1983   -7.6767    0.0000 O   0  0  0  0  0  0  0  0  0  0  0  0
    7.0472   -9.6527    0.0000 O   0  0  0  0  0  0  0  0  0  0  0  0
    5.3973   -9.6683    0.0000 O   0  0  0  0  0  0  0  0  0  0  0  0
    7.6544   -7.8792    0.0000 C   0  0  0  0  0  0  0  0  0  0  0  0
    4.7432   -8.3876    0.0000 O   0  0  0  0  0  0  0  0  0  0  0  0
    4.9568   -7.5908    0.0000 C   0  0  0  0  0  0  0  0  0  0  0  0
    5.1703   -6.7939    0.0000 O   0  0  0  0  0  0  0  0  0  0  0  0
    4.1599   -7.8043    0.0000 C   0  0  1  0  0  0  0  0  0  0  0  0
    4.3734   -7.0074    0.0000 O   0  0  0  0  0  0  0  0  0  0  0  0
    3.7900   -6.4240    0.0000 C   0  0  1  0  0  0  0  0  0  0  0  0
    2.9931   -6.6376    0.0000 C   0  0  2  0  0  0  0  0  0  0  0  0
    2.7796   -7.4344    0.0000 C   0  0  1  0  0  0  0  0  0  0  0  0
    3.3630   -8.0178    0.0000 C   0  0  1  0  0  0  0  0  0  0  0  0
    4.0036   -5.6271    0.0000 C   0  0  0  0  0  0  0  0  0  0  0  0
    1.9827   -7.6480    0.0000 O   0  0  0  0  0  0  0  0  0  0  0  0
    3.1495   -8.8147    0.0000 O   0  0  0  0  0  0  0  0  0  0  0  0
    2.4098   -6.0542    0.0000 O   0  0  0  0  0  0  0  0  0  0  0  0
    3.4202   -5.0438    0.0000 O   0  0  0  0  0  0  0  0  0  0  0  0
    8.2778   -8.4196    0.0000 O   0  0  0  0  0  0  0  0  0  0  0  0
    9.0575   -8.1499    0.0000 C   0  0  0  0  0  0  0  0  0  0  0  0
    9.6809   -8.6902    0.0000 C   0  0  0  0  0  0  0  0  0  0  0  0
    9.2138   -7.3398    0.0000 O   0  0  0  0  0  0  0  0  0  0  0  0
   10.4606   -8.4205    0.0000 C   0  0  0  0  0  0  0  0  0  0  0  0
   11.0840   -8.9609    0.0000 C   0  0  0  0  0  0  0  0  0  0  0  0
   10.9277   -9.7710    0.0000 C   0  0  0  0  0  0  0  0  0  0  0  0
   11.5511  -10.3113    0.0000 C   0  0  0  0  0  0  0  0  0  0  0  0
   12.3308  -10.0416    0.0000 C   0  0  0  0  0  0  0  0  0  0  0  0
   12.4871   -9.2316    0.0000 C   0  0  0  0  0  0  0  0  0  0  0  0
   11.8637   -8.6912    0.0000 C   0  0  0  0  0  0  0  0  0  0  0  0
   12.9542  -10.5820    0.0000 O   0  0  0  0  0  0  0  0  0  0  0  0
   13.2667   -8.9618    0.0000 O   0  0  0  0  0  0  0  0  0  0  0  0
   13.8901   -9.5022    0.0000 C   0  0  0  0  0  0  0  0  0  0  0  0
  1  2  1  0  0  0  0
  2  3  1  0  0  0  0
  3  4  1  0  0  0  0
  4  5  1  0  0  0  0
  5  1  1  0  0  0  0
  3  6  1  1  0  0  0
  2  7  1  6  0  0  0
  4  8  1  6  0  0  0
  1  9  1  6  0  0  0
  1 10  1  1  0  0  0
 10 11  1  0  0  0  0
 12  9  1  6  0  0  0
 12 13  1  0  0  0  0
 13 14  1  0  0  0  0
 14 15  1  0  0  0  0
 15 16  1  0  0  0  0
 16 17  1  0  0  0  0
 17 12  1  0  0  0  0
 14 18  1  1  0  0  0
 16 19  1  1  0  0  0
 17 20  1  6  0  0  0
 15 21  1  6  0  0  0
 18 22  1  0  0  0  0
  8 23  1  0  0  0  0
 23 24  1  0  0  0  0
 24 25  1  0  0  0  0
 24 26  2  0  0  0  0
 25 27  2  0  0  0  0
 27 28  1  0  0  0  0
 28 29  2  0  0  0  0
 29 30  1  0  0  0  0
 30 31  2  0  0  0  0
 31 32  1  0  0  0  0
 32 33  2  0  0  0  0
 33 28  1  0  0  0  0
 31 34  1  0  0  0  0
 32 35  1  0  0  0  0
 35 36  1  0  0  0  0
M  END
>  <cdx:fragmentId>
5

$$$$
