302817.cdx
  Mrv1902 05222410272D          

 21 20  0  0  0  0            999 V2000
    4.8676   -3.3000    0.0000 O   0  0  0  0  0  0  0  0  0  0  0  0
    2.7242   -3.7125    0.0000 O   0  0  0  0  0  0  0  0  0  0  0  0
    4.8676   -5.7750    0.0000 C   0  0  0  0  0  0  0  0  0  0  0  0
    4.8676   -4.9500    0.0000 C   0  0  0  0  0  0  0  0  0  0  0  0
    4.1531   -4.5375    0.0000 C   0  0  0  0  0  0  0  0  0  0  0  0
    5.5821   -6.1875    0.0000 C   0  0  0  0  0  0  0  0  0  0  0  0
    6.2965   -5.7750    0.0000 C   0  0  0  0  0  0  0  0  0  0  0  0
    7.0110   -6.1875    0.0000 C   0  0  0  0  0  0  0  0  0  0  0  0
    7.7255   -5.7750    0.0000 C   0  0  0  0  0  0  0  0  0  0  0  0
    8.4400   -6.1875    0.0000 C   0  0  0  0  0  0  0  0  0  0  0  0
    9.1544   -5.7750    0.0000 C   0  0  0  0  0  0  0  0  0  0  0  0
    4.1531   -3.7125    0.0000 C   0  0  2  0  0  0  0  0  0  0  0  0
    9.1544   -4.9500    0.0000 O   0  0  0  0  0  0  0  0  0  0  0  0
    9.8689   -6.1875    0.0000 N   0  0  0  0  0  0  0  0  0  0  0  0
   10.5834   -5.7750    0.0000 C   0  0  0  0  0  0  0  0  0  0  0  0
   11.2978   -6.1875    0.0000 C   0  0  0  0  0  0  0  0  0  0  0  0
   11.2978   -7.0125    0.0000 C   0  0  0  0  0  0  0  0  0  0  0  0
   12.0123   -5.7750    0.0000 C   0  0  0  0  0  0  0  0  0  0  0  0
   12.0123   -6.6000    0.0000 O   0  0  0  0  0  0  0  0  0  0  0  0
    3.4387   -3.3000    0.0000 C   0  0  2  0  0  0  0  0  0  0  0  0
    3.4387   -2.4750    0.0000 C   0  0  0  0  0  0  0  0  0  0  0  0
 12  1  1  6  0  0  0
 20  2  1  1  0  0  0
  4  3  1  0  0  0  0
  5  4  2  0  0  0  0
 12  5  1  0  0  0  0
 20 12  1  0  0  0  0
  3  6  2  0  0  0  0
  6  7  1  0  0  0  0
  7  8  1  0  0  0  0
  8  9  1  0  0  0  0
  9 10  2  0  0  0  0
 10 11  1  0  0  0  0
 21 20  1  0  0  0  0
 11 13  2  0  0  0  0
 11 14  1  0  0  0  0
 14 15  1  0  0  0  0
 15 16  1  0  0  0  0
 16 17  1  0  0  0  0
 16 18  1  0  0  0  0
 16 19  1  0  0  0  0
M  END
>  <cdx:fragmentId>
14

$$$$
