302863.cdx
  Mrv1902 05222410232D          

 19 18  0  0  0  0            999 V2000
    8.4811   -5.1167    0.0000 N   0  0  0  0  0  0  0  0  0  0  0  0
    7.7666   -5.5292    0.0000 C   0  0  0  0  0  0  0  0  0  0  0  0
    7.0521   -5.1167    0.0000 C   0  0  0  0  0  0  0  0  0  0  0  0
    6.3377   -5.5292    0.0000 C   0  0  0  0  0  0  0  0  0  0  0  0
    5.6232   -5.1167    0.0000 C   0  0  1  0  0  0  0  0  0  0  0  0
    4.9087   -5.5292    0.0000 C   0  0  0  0  0  0  0  0  0  0  0  0
    4.9087   -6.3542    0.0000 O   0  0  0  0  0  0  0  0  0  0  0  0
    4.1943   -5.1167    0.0000 O   0  0  0  0  0  0  0  0  0  0  0  0
    5.6232   -4.2917    0.0000 N   0  0  0  0  0  0  0  0  0  0  0  0
    7.7666   -6.3542    0.0000 O   0  0  0  0  0  0  0  0  0  0  0  0
    9.1956   -5.5292    0.0000 C   0  0  2  0  0  0  0  0  0  0  0  0
    9.9100   -5.1167    0.0000 C   0  0  0  0  0  0  0  0  0  0  0  0
   10.6245   -5.5292    0.0000 O   0  0  0  0  0  0  0  0  0  0  0  0
    9.9100   -4.2917    0.0000 O   0  0  0  0  0  0  0  0  0  0  0  0
    9.1956   -6.3542    0.0000 C   0  0  0  0  0  0  0  0  0  0  0  0
    9.9100   -6.7667    0.0000 S   0  0  0  0  0  0  0  0  0  0  0  0
    9.9100   -7.5917    0.0000 C   0  0  0  0  0  0  0  0  0  0  0  0
   10.6245   -8.0042    0.0000 C   0  0  0  0  0  0  0  0  0  0  0  0
   10.6245   -8.8292    0.0000 C   0  0  0  0  0  0  0  0  0  0  0  0
  1  2  1  0  0  0  0
  2  3  1  0  0  0  0
  3  4  1  0  0  0  0
  4  5  1  0  0  0  0
  5  6  1  0  0  0  0
  6  7  2  0  0  0  0
  6  8  1  0  0  0  0
  5  9  1  1  0  0  0
  2 10  2  0  0  0  0
 11  1  1  6  0  0  0
 11 12  1  0  0  0  0
 12 13  1  0  0  0  0
 12 14  2  0  0  0  0
 11 15  1  0  0  0  0
 15 16  1  0  0  0  0
 16 17  1  0  0  0  0
 17 18  1  0  0  0  0
 18 19  2  0  0  0  0
M  END
>  <cdx:fragmentId>
3

$$$$
