302823.cdx
  Mrv1902 05222410192D          

 12 12  0  0  0  0            999 V2000
    9.2112   -6.0549    0.0000 O   0  0  0  0  0  0  0  0  0  0  0  0
    8.4967   -6.4674    0.0000 C   0  0  2  0  0  0  0  0  0  0  0  0
    8.4967   -7.2924    0.0000 C   0  0  2  0  0  0  0  0  0  0  0  0
    9.2112   -7.7049    0.0000 O   0  0  0  0  0  0  0  0  0  0  0  0
    7.7822   -7.7049    0.0000 C   0  0  1  0  0  0  0  0  0  0  0  0
    7.7822   -8.5299    0.0000 O   0  0  0  0  0  0  0  0  0  0  0  0
    7.0678   -7.2924    0.0000 C   0  0  1  0  0  0  0  0  0  0  0  0
    6.3533   -7.7049    0.0000 O   0  0  0  0  0  0  0  0  0  0  0  0
    7.0678   -6.4674    0.0000 C   0  0  2  0  0  0  0  0  0  0  0  0
    7.7822   -6.0549    0.0000 O   0  0  0  0  0  0  0  0  0  0  0  0
    6.3533   -6.0549    0.0000 C   0  0  0  0  0  0  0  0  0  0  0  0
    5.6388   -6.4674    0.0000 O   0  0  0  0  0  0  0  0  0  0  0  0
  2  1  1  6  0  0  0
  2  3  1  0  0  0  0
  3  4  1  6  0  0  0
  3  5  1  0  0  0  0
  5  6  1  1  0  0  0
  5  7  1  0  0  0  0
  7  8  1  1  0  0  0
  7  9  1  0  0  0  0
  9 10  1  0  0  0  0
  9 11  1  1  0  0  0
 11 12  1  0  0  0  0
  2 10  1  0  0  0  0
M  END
>  <cdx:groupId>
38

>  <cdx:fragmentId>
5

$$$$
