302843.cdx
  Mrv1902 05222410202D          

 16 17  0  0  0  0            999 V2000
    5.9995   -8.2670    0.0000 C   0  0  0  0  0  0  0  0  0  0  0  0
    5.2850   -7.8545    0.0000 C   0  0  0  0  0  0  0  0  0  0  0  0
    5.2850   -7.0295    0.0000 C   0  0  0  0  0  0  0  0  0  0  0  0
    5.9995   -6.6170    0.0000 C   0  0  0  0  0  0  0  0  0  0  0  0
    6.7140   -7.0295    0.0000 C   0  0  0  0  0  0  0  0  0  0  0  0
    7.4284   -6.6170    0.0000 C   0  0  0  0  0  0  0  0  0  0  0  0
    8.1429   -7.0295    0.0000 C   0  0  0  0  0  0  0  0  0  0  0  0
    8.1429   -7.8545    0.0000 C   0  0  0  0  0  0  0  0  0  0  0  0
    7.4284   -8.2670    0.0000 C   0  0  0  0  0  0  0  0  0  0  0  0
    6.7140   -7.8545    0.0000 C   0  0  0  0  0  0  0  0  0  0  0  0
    5.9995   -9.0920    0.0000 O   0  0  0  0  0  0  0  0  0  0  0  0
    8.8574   -6.6170    0.0000 O   0  0  0  0  0  0  0  0  0  0  0  0
    9.5719   -7.0295    0.0000 C   0  0  0  0  0  0  0  0  0  0  0  0
    7.4284   -5.7920    0.0000 O   0  0  0  0  0  0  0  0  0  0  0  0
    8.1429   -5.3795    0.0000 C   0  0  0  0  0  0  0  0  0  0  0  0
    7.4284   -9.0920    0.0000 F   0  0  0  0  0  0  0  0  0  0  0  0
  1  2  1  0  0  0  0
  2  3  1  0  0  0  0
  3  4  1  0  0  0  0
  4  5  1  0  0  0  0
  5  6  1  0  0  0  0
  6  7  2  0  0  0  0
  7  8  1  0  0  0  0
  8  9  2  0  0  0  0
  9 10  1  0  0  0  0
  1 10  1  0  0  0  0
  5 10  2  0  0  0  0
  1 11  2  0  0  0  0
 12 13  1  0  0  0  0
  7 12  1  0  0  0  0
 14 15  1  0  0  0  0
  6 14  1  0  0  0  0
  9 16  1  0  0  0  0
M  END
>  <cdx:groupId>
104

>  <cdx:fragmentId>
58

$$$$
