302826.cdx
  Mrv1902 05222410192D          

 10 10  0  0  0  0            999 V2000
    8.3481   -6.7196    0.0000 O   0  0  0  0  0  0  0  0  0  0  0  0
    6.5535   -6.6875    0.0000 O   0  0  0  0  0  0  0  0  0  0  0  0
    6.8094   -5.2398    0.0000 C   0  0  2  0  0  0  0  0  0  0  0  0
    7.0503   -6.0289    0.0000 C   0  0  2  0  0  0  0  0  0  0  0  0
    7.8752   -6.0436    0.0000 C   0  0  2  0  0  0  0  0  0  0  0  0
    8.1441   -5.2637    0.0000 C   0  0  2  0  0  0  0  0  0  0  0  0
    7.4854   -4.7669    0.0000 O   0  0  0  0  0  0  0  0  0  0  0  0
    6.0295   -4.9709    0.0000 C   0  0  0  0  0  0  0  0  0  0  0  0
    5.4066   -5.5118    0.0000 O   0  0  0  0  0  0  0  0  0  0  0  0
    8.9332   -5.0228    0.0000 O   0  0  0  0  0  0  0  0  0  0  0  0
  5  1  1  6  0  0  0
  4  2  1  6  0  0  0
  7  3  1  0  0  0  0
  4  3  1  0  0  0  0
  5  4  1  0  0  0  0
  6  5  1  0  0  0  0
  7  6  1  0  0  0  0
  3  8  1  1  0  0  0
  8  9  1  0  0  0  0
  6 10  1  6  0  0  0
M  END
>  <cdx:fragmentId>
5

$$$$
