30285.cdx
  Mrv1902 05222410192D          

 42 41  0  0  0  0            999 V2000
    2.4596  -17.9735    0.0000 C   0  0  0  0  0  0  0  0  0  0  0  0
    2.7316  -17.1946    0.0000 C   0  0  0  0  0  0  0  0  0  0  0  0
    3.5421  -17.0407    0.0000 C   0  0  0  0  0  0  0  0  0  0  0  0
    3.8140  -16.2618    0.0000 C   0  0  0  0  0  0  0  0  0  0  0  0
    4.6245  -16.1079    0.0000 C   0  0  0  0  0  0  0  0  0  0  0  0
    4.8965  -15.3290    0.0000 C   0  0  0  0  0  0  0  0  0  0  0  0
    5.7070  -15.1751    0.0000 C   0  0  0  0  0  0  0  0  0  0  0  0
    5.9790  -14.3962    0.0000 C   0  0  0  0  0  0  0  0  0  0  0  0
    6.7895  -14.2423    0.0000 C   0  0  0  0  0  0  0  0  0  0  0  0
    7.0615  -13.4634    0.0000 C   0  0  0  0  0  0  0  0  0  0  0  0
    7.8720  -13.3095    0.0000 C   0  0  0  0  0  0  0  0  0  0  0  0
    8.1440  -12.5306    0.0000 C   0  0  0  0  0  0  0  0  0  0  0  0
    8.9545  -12.3767    0.0000 C   0  0  0  0  0  0  0  0  0  0  0  0
    9.2264  -11.5978    0.0000 C   0  0  0  0  0  0  0  0  0  0  0  0
   10.0369  -11.4439    0.0000 C   0  0  0  0  0  0  0  0  0  0  0  0
   10.3089  -10.6650    0.0000 O   0  0  0  0  0  0  0  0  0  0  0  0
   11.1194  -10.5111    0.0000 C   0  0  0  0  0  0  0  0  0  0  0  0
   11.3914   -9.7322    0.0000 C   0  0  0  0  0  0  0  0  0  0  0  0
   12.2019   -9.5783    0.0000 C   0  0  0  0  0  0  0  0  0  0  0  0
   12.4739   -8.7994    0.0000 O   0  0  0  0  0  0  0  0  0  0  0  0
   13.2844   -8.6455    0.0000 C   0  0  0  0  0  0  0  0  0  0  0  0
   13.5564   -7.8666    0.0000 C   0  0  0  0  0  0  0  0  0  0  0  0
   14.3669   -7.7127    0.0000 C   0  0  0  0  0  0  0  0  0  0  0  0
   14.6388   -6.9338    0.0000 C   0  0  0  0  0  0  0  0  0  0  0  0
   15.4493   -6.7799    0.0000 C   0  0  0  0  0  0  0  0  0  0  0  0
   15.7213   -6.0010    0.0000 C   0  0  0  0  0  0  0  0  0  0  0  0
   16.5318   -5.8471    0.0000 C   0  0  0  0  0  0  0  0  0  0  0  0
   16.8038   -5.0683    0.0000 C   0  0  0  0  0  0  0  0  0  0  0  0
   17.6143   -4.9143    0.0000 C   0  0  0  0  0  0  0  0  0  0  0  0
   17.6424   -4.0180    0.0000 C   0  0  0  0  0  0  0  0  0  0  0  0
   13.7984   -9.2241    0.0000 O   0  0  0  0  0  0  0  0  0  0  0  0
   17.0591   -3.4346    0.0000 C   0  0  0  0  0  0  0  0  0  0  0  0
   17.2726   -2.6377    0.0000 C   0  0  0  0  0  0  0  0  0  0  0  0
   16.6892   -2.0544    0.0000 C   0  0  0  0  0  0  0  0  0  0  0  0
   15.8924   -2.2679    0.0000 C   0  0  0  0  0  0  0  0  0  0  0  0
   15.3090   -1.6845    0.0000 C   0  0  0  0  0  0  0  0  0  0  0  0
   14.5121   -1.8980    0.0000 C   0  0  0  0  0  0  0  0  0  0  0  0
   13.9287   -1.3147    0.0000 C   0  0  0  0  0  0  0  0  0  0  0  0
   13.1319   -1.5282    0.0000 C   0  0  0  0  0  0  0  0  0  0  0  0
   10.9609   -9.2326    0.0000 O   0  0  0  0  0  0  0  0  0  0  0  0
   10.4675  -11.9435    0.0000 O   0  0  0  0  0  0  0  0  0  0  0  0
    1.8117  -18.0966    0.0000 C   0  0  0  0  0  0  0  0  0  0  0  0
  1  2  1  0  0  0  0
  2  3  1  0  0  0  0
  3  4  1  0  0  0  0
  4  5  1  0  0  0  0
  5  6  1  0  0  0  0
  6  7  1  0  0  0  0
  7  8  1  0  0  0  0
  8  9  1  0  0  0  0
  9 10  1  0  0  0  0
 10 11  1  0  0  0  0
 11 12  1  0  0  0  0
 12 13  1  0  0  0  0
 13 14  1  0  0  0  0
 14 15  1  0  0  0  0
 15 16  1  0  0  0  0
 16 17  1  0  0  0  0
 17 18  1  0  0  0  0
 18 19  1  0  0  0  0
 19 20  1  0  0  0  0
 20 21  1  0  0  0  0
 21 22  1  0  0  0  0
 22 23  1  0  0  0  0
 23 24  1  0  0  0  0
 24 25  1  0  0  0  0
 25 26  1  0  0  0  0
 26 27  1  0  0  0  0
 27 28  1  0  0  0  0
 28 29  1  0  0  0  0
 29 30  2  0  0  0  0
 21 31  2  0  0  0  0
 30 32  1  0  0  0  0
 32 33  1  0  0  0  0
 33 34  2  0  0  0  0
 34 35  1  0  0  0  0
 35 36  1  0  0  0  0
 36 37  1  0  0  0  0
 37 38  1  0  0  0  0
 38 39  1  0  0  0  0
 18 40  1  0  0  0  0
 15 41  2  0  0  0  0
  1 42  1  0  0  0  0
M  END
>  <cdx:fragmentId>
166

$$$$
