302855.cdx
  Mrv1902 05222410212D          

 16 18  0  0  0  0            999 V2000
    8.6444   -4.6272    0.0000 C   0  0  0  0  0  0  0  0  0  0  0  0
    5.7182   -5.0558    0.0000 C   0  0  0  0  0  0  0  0  0  0  0  0
    5.9726   -4.2710    0.0000 C   0  0  0  0  0  0  0  0  0  0  0  0
    7.1921   -4.3983    0.0000 C   0  0  0  0  0  0  0  0  0  0  0  0
    6.5250   -4.8837    0.0000 C   0  0  0  0  0  0  0  0  0  0  0  0
    6.7806   -5.6682    0.0000 C   0  0  1  0  0  0  0  0  0  0  0  0
    7.6056   -5.6676    0.0000 C   0  0  1  0  0  0  0  0  0  0  0  0
    7.8599   -4.8827    0.0000 C   0  0  0  0  0  0  0  0  0  0  0  0
    6.5262   -6.4530    0.0000 C   0  0  0  0  0  0  0  0  0  0  0  0
    7.1940   -6.9374    0.0000 C   0  0  0  0  0  0  0  0  0  0  0  0
    7.8611   -6.4530    0.0000 C   0  0  0  0  0  0  0  0  0  0  0  0
    5.9400   -6.6275    0.0000 C   0  0  0  0  0  0  0  0  0  0  0  0
    8.4425   -6.6550    0.0000 C   0  0  1  0  0  0  0  0  0  0  0  0
    7.2050   -7.6725    0.0000 C   0  0  0  0  0  0  0  0  0  0  0  0
    9.0259   -7.2384    0.0000 O   0  0  0  0  0  0  0  0  0  0  0  0
    9.1570   -6.2425    0.0000 C   0  0  0  0  0  0  0  0  0  0  0  0
  8  1  1  0  0  0  0
  5  2  1  0  0  0  0
  5  3  1  0  0  0  0
  4  8  2  0  0  0  0
  5  4  1  0  0  0  0
  6  5  1  0  0  0  0
  7  6  1  0  0  0  0
  8  7  1  0  0  0  0
  6  9  1  0  0  0  0
  9 10  1  0  0  0  0
 10 11  1  0  0  0  0
  7 11  1  1  0  0  0
  6 12  1  6  0  0  0
  7 13  1  0  0  0  0
 12 14  1  0  0  0  0
 14 13  1  0  0  0  0
 13 15  1  6  0  0  0
 13 16  1  0  0  0  0
M  END
>  <cdx:fragmentId>
5

$$$$
