302874.cdx
  Mrv1902 05222410242D          

 22 24  0  0  0  0            999 V2000
    7.4429   -8.3814    0.0000 C   0  0  0  0  0  0  0  0  0  0  0  0
    8.1574   -8.7939    0.0000 O   0  0  0  0  0  0  0  0  0  0  0  0
    9.5863   -8.7939    0.0000 C   0  0  0  0  0  0  0  0  0  0  0  0
    8.8719   -8.3814    0.0000 C   0  0  0  0  0  0  0  0  0  0  0  0
    8.8719   -7.5564    0.0000 C   0  0  0  0  0  0  0  0  0  0  0  0
    9.5863   -7.1439    0.0000 C   0  0  0  0  0  0  0  0  0  0  0  0
   10.3008   -8.3814    0.0000 C   0  0  0  0  0  0  0  0  0  0  0  0
   10.3008   -7.5564    0.0000 C   0  0  0  0  0  0  0  0  0  0  0  0
   11.0854   -7.3015    0.0000 O   0  0  0  0  0  0  0  0  0  0  0  0
   11.5704   -7.9689    0.0000 C   0  0  0  0  0  0  0  0  0  0  0  0
   11.0854   -8.6364    0.0000 O   0  0  0  0  0  0  0  0  0  0  0  0
    3.8314   -7.2209    0.0000 C   0  0  0  0  0  0  0  0  0  0  0  0
    3.2793   -7.8340    0.0000 C   0  0  0  0  0  0  0  0  0  0  0  0
    3.6918   -8.5484    0.0000 C   0  0  0  0  0  0  0  0  0  0  0  0
    4.4988   -8.3769    0.0000 C   0  0  0  0  0  0  0  0  0  0  0  0
    4.5850   -7.5564    0.0000 N   0  0  0  0  0  0  0  0  0  0  0  0
    5.2995   -6.3189    0.0000 O   0  0  0  0  0  0  0  0  0  0  0  0
    8.1574   -7.1439    0.0000 C   0  0  0  0  0  0  0  0  0  0  0  0
    7.4429   -7.5564    0.0000 C   0  0  0  0  0  0  0  0  0  0  0  0
    6.7285   -7.1439    0.0000 C   0  0  0  0  0  0  0  0  0  0  0  0
    6.0140   -7.5564    0.0000 C   0  0  0  0  0  0  0  0  0  0  0  0
    5.2995   -7.1439    0.0000 C   0  0  0  0  0  0  0  0  0  0  0  0
 18  5  1  0  0  0  0
  4  2  1  0  0  0  0
  2  1  1  0  0  0  0
  6  8  2  0  0  0  0
  3  7  2  0  0  0  0
  4  3  1  0  0  0  0
  5  4  2  0  0  0  0
  6  5  1  0  0  0  0
 11  7  1  0  0  0  0
  8  7  1  0  0  0  0
  9  8  1  0  0  0  0
 10  9  1  0  0  0  0
 11 10  1  0  0  0  0
 22 16  1  0  0  0  0
 16 12  1  0  0  0  0
 13 12  1  0  0  0  0
 14 13  1  0  0  0  0
 15 14  1  0  0  0  0
 16 15  1  0  0  0  0
 22 17  2  0  0  0  0
 19 18  1  0  0  0  0
 20 19  1  0  0  0  0
 21 20  2  0  0  0  0
 22 21  1  0  0  0  0
M  END
>  <cdx:groupId>
74

>  <cdx:fragmentId>
31

$$$$
