30297.cdx
  Mrv1902 05222410182D          

 15 15  0  0  0  0            999 V2000
   10.9329   -8.3184    0.0000 C   0  0  0  0  0  0  0  0  0  0  0  0
   10.3155   -7.7712    0.0000 C   0  0  0  0  0  0  0  0  0  0  0  0
    9.5329   -8.0324    0.0000 C   0  0  0  0  0  0  0  0  0  0  0  0
    8.7503   -8.2935    0.0000 C   0  0  0  0  0  0  0  0  0  0  0  0
   11.7155   -8.0572    0.0000 O   0  0  0  0  0  0  0  0  0  0  0  0
    7.9677   -8.5547    0.0000 C   0  0  0  0  0  0  0  0  0  0  0  0
    7.7190   -9.3413    0.0000 C   0  0  0  0  0  0  0  0  0  0  0  0
    6.8941   -9.3478    0.0000 C   0  0  0  0  0  0  0  0  0  0  0  0
    6.6329   -8.5652    0.0000 C   0  0  0  0  0  0  0  0  0  0  0  0
    7.2965   -8.0751    0.0000 S   0  0  0  0  0  0  0  0  0  0  0  0
    5.8463   -8.3165    0.0000 C   0  0  0  0  0  0  0  0  0  0  0  0
    5.0597   -8.0678    0.0000 C   0  0  0  0  0  0  0  0  0  0  0  0
    4.2731   -7.8191    0.0000 C   0  0  0  0  0  0  0  0  0  0  0  0
    3.4864   -7.5704    0.0000 C   0  0  0  0  0  0  0  0  0  0  0  0
    2.6998   -7.3217    0.0000 C   0  0  0  0  0  0  0  0  0  0  0  0
  1  2  1  0  0  0  0
  2  3  1  0  0  0  0
  3  4  3  0  0  0  0
  1  5  1  0  0  0  0
  6  7  2  0  0  0  0
  7  8  1  0  0  0  0
  8  9  2  0  0  0  0
  9 10  1  0  0  0  0
  6 10  1  0  0  0  0
 11 12  3  0  0  0  0
 12 13  1  0  0  0  0
 13 14  3  0  0  0  0
 14 15  1  0  0  0  0
  9 11  1  0  0  0  0
  4  6  1  0  0  0  0
M  END
>  <cdx:fragmentId>
15

$$$$
