302909.cdx
  Mrv1902 05222410212D          

 55 60  0  0  0  0            999 V2000
    8.4967   -8.9424    0.0000 C   0  0  0  0  0  0  0  0  0  0  0  0
    8.4967   -8.1174    0.0000 C   0  0  0  0  0  0  0  0  0  0  0  0
    7.7822   -7.7049    0.0000 C   0  0  0  0  0  0  0  0  0  0  0  0
    7.0678   -8.1174    0.0000 C   0  0  0  0  0  0  0  0  0  0  0  0
    6.3533   -7.7049    0.0000 C   0  0  0  0  0  0  0  0  0  0  0  0
    5.6388   -8.1174    0.0000 C   0  0  0  0  0  0  0  0  0  0  0  0
    5.6388   -8.9424    0.0000 C   0  0  0  0  0  0  0  0  0  0  0  0
    6.3533   -9.3549    0.0000 C   0  0  0  0  0  0  0  0  0  0  0  0
    7.0678   -8.9424    0.0000 C   0  0  0  0  0  0  0  0  0  0  0  0
    7.7822   -9.3549    0.0000 O   0  0  0  0  0  0  0  0  0  0  0  0
    7.7822   -6.8799    0.0000 O   0  0  0  0  0  0  0  0  0  0  0  0
    4.9244   -9.3549    0.0000 O   0  0  0  0  0  0  0  0  0  0  0  0
    3.4954   -9.3549    0.0000 O   0  0  0  0  0  0  0  0  0  0  0  0
    4.2099   -8.9424    0.0000 C   0  0  2  0  0  0  0  0  0  0  0  0
    4.2099   -8.1174    0.0000 C   0  0  0  0  0  0  0  0  0  0  0  0
    3.4954   -7.7049    0.0000 C   0  0  2  0  0  0  0  0  0  0  0  0
    2.7809   -8.1174    0.0000 C   0  0  1  0  0  0  0  0  0  0  0  0
    2.7809   -8.9424    0.0000 C   0  0  0  0  0  0  0  0  0  0  0  0
    2.0665   -9.3549    0.0000 C   0  0  0  0  0  0  0  0  0  0  0  0
    1.3520   -8.9424    0.0000 O   0  0  0  0  0  0  0  0  0  0  0  0
    2.0665   -7.7049    0.0000 O   0  0  0  0  0  0  0  0  0  0  0  0
    3.4954   -6.8799    0.0000 O   0  0  0  0  0  0  0  0  0  0  0  0
    4.9244   -7.7049    0.0000 O   0  0  0  0  0  0  0  0  0  0  0  0
    6.3533   -6.8799    0.0000 O   0  0  0  0  0  0  0  0  0  0  0  0
    9.2112   -9.3549    0.0000 C   0  0  0  0  0  0  0  0  0  0  0  0
    9.9256   -8.9424    0.0000 C   0  0  0  0  0  0  0  0  0  0  0  0
   10.6401   -9.3549    0.0000 C   0  0  0  0  0  0  0  0  0  0  0  0
   10.6401  -10.1799    0.0000 C   0  0  0  0  0  0  0  0  0  0  0  0
    9.9256  -10.5924    0.0000 C   0  0  0  0  0  0  0  0  0  0  0  0
    9.2112  -10.1799    0.0000 C   0  0  0  0  0  0  0  0  0  0  0  0
   11.3546  -10.5924    0.0000 O   0  0  0  0  0  0  0  0  0  0  0  0
   11.3546   -8.9424    0.0000 O   0  0  0  0  0  0  0  0  0  0  0  0
    9.2112   -7.7049    0.0000 O   0  0  0  0  0  0  0  0  0  0  0  0
    8.4967   -6.4674    0.0000 O   0  0  0  0  0  0  0  0  0  0  0  0
    9.2112   -6.8799    0.0000 C   0  0  2  0  0  0  0  0  0  0  0  0
    9.9256   -6.4674    0.0000 C   0  0  0  0  0  0  0  0  0  0  0  0
    9.9256   -5.6424    0.0000 C   0  0  0  0  0  0  0  0  0  0  0  0
    9.2112   -5.2299    0.0000 C   0  0  1  0  0  0  0  0  0  0  0  0
    8.4967   -5.6424    0.0000 C   0  0  0  0  0  0  0  0  0  0  0  0
   10.6401   -6.8799    0.0000 O   0  0  0  0  0  0  0  0  0  0  0  0
   11.3546   -5.6424    0.0000 O   0  0  0  0  0  0  0  0  0  0  0  0
   11.3546   -6.4674    0.0000 C   0  0  2  0  0  0  0  0  0  0  0  0
   12.0691   -6.8799    0.0000 C   0  0  1  0  0  0  0  0  0  0  0  0
   12.7835   -6.4674    0.0000 C   0  0  0  0  0  0  0  0  0  0  0  0
   12.7835   -5.6424    0.0000 C   0  0  1  0  0  0  0  0  0  0  0  0
   12.0691   -5.2299    0.0000 C   0  0  0  0  0  0  0  0  0  0  0  0
   12.0691   -4.4049    0.0000 C   0  0  0  0  0  0  0  0  0  0  0  0
   12.7835   -3.9924    0.0000 O   0  0  0  0  0  0  0  0  0  0  0  0
   13.4980   -5.2299    0.0000 O   0  0  0  0  0  0  0  0  0  0  0  0
   13.4980   -6.8799    0.0000 O   0  0  0  0  0  0  0  0  0  0  0  0
   12.0691   -7.7049    0.0000 O   0  0  0  0  0  0  0  0  0  0  0  0
    7.7822   -5.2299    0.0000 C   0  0  0  0  0  0  0  0  0  0  0  0
    7.0678   -5.6424    0.0000 O   0  0  0  0  0  0  0  0  0  0  0  0
    9.2112   -4.4049    0.0000 O   0  0  0  0  0  0  0  0  0  0  0  0
   10.6401   -5.2299    0.0000 O   0  0  0  0  0  0  0  0  0  0  0  0
  1  2  2  0  0  0  0
  2  3  1  0  0  0  0
  3  4  1  0  0  0  0
  4  5  1  0  0  0  0
  5  6  2  0  0  0  0
  6  7  1  0  0  0  0
  7  8  2  0  0  0  0
  8  9  1  0  0  0  0
  4  9  2  0  0  0  0
  9 10  1  0  0  0  0
  1 10  1  0  0  0  0
  3 11  2  0  0  0  0
 13 14  1  0  0  0  0
 14 15  1  0  0  0  0
 15 16  1  0  0  0  0
 16 17  1  0  0  0  0
 17 18  1  0  0  0  0
 13 18  1  0  0  0  0
 19 20  1  0  0  0  0
 18 19  1  0  0  0  0
 17 21  1  1  0  0  0
 16 22  1  6  0  0  0
 15 23  1  0  0  0  0
 14 12  1  6  0  0  0
  7 12  1  0  0  0  0
  5 24  1  0  0  0  0
 25 26  1  0  0  0  0
 26 27  2  0  0  0  0
 27 28  1  0  0  0  0
 28 29  2  0  0  0  0
 29 30  1  0  0  0  0
 25 30  2  0  0  0  0
 28 31  1  0  0  0  0
 27 32  1  0  0  0  0
  1 25  1  0  0  0  0
 34 35  1  0  0  0  0
 35 36  1  0  0  0  0
 36 37  1  0  0  0  0
 37 38  1  0  0  0  0
 38 39  1  0  0  0  0
 34 39  1  0  0  0  0
 41 42  1  0  0  0  0
 42 43  1  0  0  0  0
 43 44  1  0  0  0  0
 44 45  1  0  0  0  0
 45 46  1  0  0  0  0
 41 46  1  0  0  0  0
 47 48  1  0  0  0  0
 46 47  1  0  0  0  0
 45 49  1  1  0  0  0
 44 50  1  0  0  0  0
 43 51  1  1  0  0  0
 42 40  1  6  0  0  0
 36 40  1  0  0  0  0
 52 53  1  0  0  0  0
 39 52  1  0  0  0  0
 38 54  1  1  0  0  0
 37 55  1  0  0  0  0
 35 33  1  6  0  0  0
  2 33  1  0  0  0  0
M  END
>  <cdx:groupId>
172

>  <cdx:fragmentId>
29

$$$$
