302925.cdx
  Mrv1902 05222410222D          

 13 14  0  0  0  0            999 V2000
    7.7857   -8.5313    0.0000 N   0  0  0  0  0  0  0  0  0  0  0  0
    8.5001   -8.1188    0.0000 C   0  0  0  0  0  0  0  0  0  0  0  0
    8.5001   -7.2938    0.0000 N   0  0  0  0  0  0  0  0  0  0  0  0
    7.7857   -6.8813    0.0000 C   0  0  0  0  0  0  0  0  0  0  0  0
    7.0712   -7.2938    0.0000 C   0  0  0  0  0  0  0  0  0  0  0  0
    6.3567   -6.8813    0.0000 C   0  0  0  0  0  0  0  0  0  0  0  0
    5.6423   -7.2938    0.0000 C   0  0  0  0  0  0  0  0  0  0  0  0
    5.6423   -8.1188    0.0000 C   0  0  0  0  0  0  0  0  0  0  0  0
    6.3567   -8.5313    0.0000 C   0  0  0  0  0  0  0  0  0  0  0  0
    7.0712   -8.1188    0.0000 C   0  0  0  0  0  0  0  0  0  0  0  0
    7.7857   -6.0563    0.0000 O   0  0  0  0  0  0  0  0  0  0  0  0
    9.2146   -6.8813    0.0000 C   0  0  0  0  0  0  0  0  0  0  0  0
    9.2146   -8.5313    0.0000 C   0  0  0  0  0  0  0  0  0  0  0  0
  1  2  2  0  0  0  0
  2  3  1  0  0  0  0
  3  4  1  0  0  0  0
  4  5  1  0  0  0  0
  5  6  1  0  0  0  0
  6  7  2  0  0  0  0
  7  8  1  0  0  0  0
  8  9  2  0  0  0  0
  9 10  1  0  0  0  0
  1 10  1  0  0  0  0
  5 10  2  0  0  0  0
  4 11  2  0  0  0  0
  3 12  1  0  0  0  0
  2 13  1  0  0  0  0
M  END
>  <cdx:groupId>
42

>  <cdx:fragmentId>
5

$$$$
