302959.cdx
  Mrv1902 05222410282D          

  8  8  0  0  0  0            999 V2000
    7.9405   -6.8012    0.0000 O   0  0  0  0  0  0  0  0  0  0  0  0
    8.2710   -7.5571    0.0000 C   0  0  0  0  0  0  0  0  0  0  0  0
    7.6543   -8.1051    0.0000 N   0  0  0  0  0  0  0  0  0  0  0  0
    6.9426   -7.6878    0.0000 C   0  0  0  0  0  0  0  0  0  0  0  0
    7.1195   -6.8820    0.0000 C   0  0  2  0  0  0  0  0  0  0  0  0
    9.0769   -7.7340    0.0000 S   0  0  0  0  0  0  0  0  0  0  0  0
    6.5715   -6.2653    0.0000 C   0  0  0  0  0  0  0  0  0  0  0  0
    6.9840   -5.5508    0.0000 C   0  0  0  0  0  0  0  0  0  0  0  0
  1  2  1  0  0  0  0
  2  3  1  0  0  0  0
  3  4  1  0  0  0  0
  4  5  1  0  0  0  0
  1  5  1  0  0  0  0
  2  6  2  0  0  0  0
  7  8  2  0  0  0  0
  5  7  1  6  0  0  0
M  END
>  <cdx:groupId>
26

>  <cdx:fragmentId>
5

$$$$
