30298.cdx
  Mrv1902 05222410272D          

 11 10  0  0  0  0            999 V2000
    6.7604   -6.2964    0.0000 C   0  0  0  0  0  0  0  0  0  0  0  0
    6.0459   -6.7089    0.0000 C   0  0  0  0  0  0  0  0  0  0  0  0
    5.3315   -6.2964    0.0000 C   0  0  0  0  0  0  0  0  0  0  0  0
    4.6170   -6.7089    0.0000 C   0  0  0  0  0  0  0  0  0  0  0  0
    3.9025   -6.2964    0.0000 C   0  0  0  0  0  0  0  0  0  0  0  0
    4.6170   -7.5339    0.0000 C   0  0  0  0  0  0  0  0  0  0  0  0
    5.3315   -5.4714    0.0000 O   0  0  0  0  0  0  0  0  0  0  0  0
    6.0459   -7.5339    0.0000 O   0  0  0  0  0  0  0  0  0  0  0  0
    6.3479   -5.5819    0.0000 C   0  0  0  0  0  0  0  0  0  0  0  0
    7.1729   -7.0109    0.0000 C   0  0  0  0  0  0  0  0  0  0  0  0
    7.4749   -5.8839    0.0000 C   0  0  0  0  0  0  0  0  0  0  0  0
  2  1  1  0  0  0  0
  3  2  1  0  0  0  0
  4  3  1  0  0  0  0
  5  4  1  0  0  0  0
  4  6  1  0  0  0  0
  3  7  2  0  0  0  0
  2  8  2  0  0  0  0
  1  9  1  0  0  0  0
  1 10  1  0  0  0  0
  1 11  1  0  0  0  0
M  END
>  <cdx:fragmentId>
3

$$$$
