302923.cdx
  Mrv1902 05222410202D          

 42 46  0  0  0  0            999 V2000
    8.1256   -5.8149    0.0000 C   0  0  0  0  0  0  0  0  0  0  0  0
    8.1256   -6.6399    0.0000 C   0  0  0  0  0  0  0  0  0  0  0  0
    7.4111   -7.0524    0.0000 C   0  0  0  0  0  0  0  0  0  0  0  0
    7.4111   -7.8774    0.0000 O   0  0  0  0  0  0  0  0  0  0  0  0
    6.6966   -6.6399    0.0000 C   0  0  0  0  0  0  0  0  0  0  0  0
    5.9822   -7.0524    0.0000 C   0  0  0  0  0  0  0  0  0  0  0  0
    5.9822   -7.8774    0.0000 O   0  0  0  0  0  0  0  0  0  0  0  0
    5.2677   -6.6399    0.0000 C   0  0  0  0  0  0  0  0  0  0  0  0
    5.2677   -5.8149    0.0000 C   0  0  0  0  0  0  0  0  0  0  0  0
    4.5532   -5.4024    0.0000 O   0  0  0  0  0  0  0  0  0  0  0  0
    5.9822   -5.4024    0.0000 C   0  0  0  0  0  0  0  0  0  0  0  0
    6.6966   -5.8149    0.0000 C   0  0  0  0  0  0  0  0  0  0  0  0
    7.4111   -5.4024    0.0000 O   0  0  0  0  0  0  0  0  0  0  0  0
    8.8401   -5.4024    0.0000 C   0  0  0  0  0  0  0  0  0  0  0  0
    9.5545   -5.8149    0.0000 C   0  0  0  0  0  0  0  0  0  0  0  0
   10.2690   -5.4024    0.0000 C   0  0  0  0  0  0  0  0  0  0  0  0
   10.9835   -5.8149    0.0000 O   0  0  0  0  0  0  0  0  0  0  0  0
   10.2690   -4.5774    0.0000 C   0  0  0  0  0  0  0  0  0  0  0  0
   10.9835   -4.1649    0.0000 O   0  0  0  0  0  0  0  0  0  0  0  0
    9.5545   -4.1649    0.0000 C   0  0  0  0  0  0  0  0  0  0  0  0
    8.8401   -4.5774    0.0000 C   0  0  0  0  0  0  0  0  0  0  0  0
    8.8401   -7.0524    0.0000 O   0  0  0  0  0  0  0  0  0  0  0  0
    8.8401   -7.8774    0.0000 C   0  0  2  0  0  0  0  0  0  0  0  0
    8.1256   -8.2899    0.0000 O   0  0  0  0  0  0  0  0  0  0  0  0
    8.1256   -9.1149    0.0000 C   0  0  1  0  0  0  0  0  0  0  0  0
    8.8401   -9.5274    0.0000 C   0  0  2  0  0  0  0  0  0  0  0  0
    9.5545   -9.1149    0.0000 C   0  0  1  0  0  0  0  0  0  0  0  0
    9.5545   -8.2899    0.0000 C   0  0  1  0  0  0  0  0  0  0  0  0
   10.2690   -7.8774    0.0000 O   0  0  0  0  0  0  0  0  0  0  0  0
    8.8401  -10.3524    0.0000 O   0  0  0  0  0  0  0  0  0  0  0  0
    7.4111   -9.5274    0.0000 C   0  0  0  0  0  0  0  0  0  0  0  0
   10.2690   -9.5274    0.0000 O   0  0  0  0  0  0  0  0  0  0  0  0
    7.4111  -10.3524    0.0000 O   0  0  0  0  0  0  0  0  0  0  0  0
    6.6966  -10.7649    0.0000 C   0  0  0  0  0  0  0  0  0  0  0  0
    5.9430  -10.4293    0.0000 O   0  0  0  0  0  0  0  0  0  0  0  0
    5.3909  -11.0424    0.0000 C   0  0  1  0  0  0  0  0  0  0  0  0
    5.8034  -11.7569    0.0000 C   0  0  1  0  0  0  0  0  0  0  0  0
    6.6104  -11.5854    0.0000 C   0  0  1  0  0  0  0  0  0  0  0  0
    7.2235  -12.1374    0.0000 O   0  0  0  0  0  0  0  0  0  0  0  0
    4.5705  -10.9562    0.0000 C   0  0  0  0  0  0  0  0  0  0  0  0
    5.4679  -12.5106    0.0000 O   0  0  0  0  0  0  0  0  0  0  0  0
    4.0855  -11.6236    0.0000 O   0  0  0  0  0  0  0  0  0  0  0  0
  1  2  2  0  0  0  0
  2  3  1  0  0  0  0
  3  4  2  0  0  0  0
  3  5  1  0  0  0  0
  5  6  1  0  0  0  0
  6  7  1  0  0  0  0
  6  8  2  0  0  0  0
  8  9  1  0  0  0  0
  9 10  1  0  0  0  0
  9 11  2  0  0  0  0
 11 12  1  0  0  0  0
  5 12  2  0  0  0  0
 12 13  1  0  0  0  0
  1 13  1  0  0  0  0
  1 14  1  0  0  0  0
 14 15  1  0  0  0  0
 15 16  2  0  0  0  0
 16 17  1  0  0  0  0
 16 18  1  0  0  0  0
 18 19  1  0  0  0  0
 18 20  2  0  0  0  0
 20 21  1  0  0  0  0
 14 21  2  0  0  0  0
  2 22  1  0  0  0  0
 23 22  1  1  0  0  0
 23 24  1  0  0  0  0
 24 25  1  0  0  0  0
 25 26  1  0  0  0  0
 26 27  1  0  0  0  0
 27 28  1  0  0  0  0
 28 23  1  0  0  0  0
 28 29  1  6  0  0  0
 26 30  1  6  0  0  0
 25 31  1  1  0  0  0
 27 32  1  1  0  0  0
 31 33  1  0  0  0  0
 33 34  1  1  0  0  0
 34 35  1  0  0  0  0
 35 36  1  0  0  0  0
 36 37  1  0  0  0  0
 37 38  1  0  0  0  0
 38 34  1  0  0  0  0
 38 39  1  6  0  0  0
 36 40  1  1  0  0  0
 37 41  1  1  0  0  0
 40 42  1  0  0  0  0
M  END
>  <cdx:fragmentId>
313

$$$$
