30291.cdx
  Mrv1902 05222410192D          

 15 16  0  0  0  0            999 V2000
    5.9106   -5.6914    0.0000 C   0  0  0  0  0  0  0  0  0  0  0  0
    5.9106   -6.5164    0.0000 C   0  0  0  0  0  0  0  0  0  0  0  0
    6.6250   -6.9289    0.0000 C   0  0  0  0  0  0  0  0  0  0  0  0
    7.3395   -6.5164    0.0000 C   0  0  0  0  0  0  0  0  0  0  0  0
    7.3395   -5.6914    0.0000 C   0  0  0  0  0  0  0  0  0  0  0  0
    6.6250   -5.2789    0.0000 C   0  0  0  0  0  0  0  0  0  0  0  0
    8.0540   -6.9289    0.0000 C   0  0  0  0  0  0  0  0  0  0  0  0
    8.7684   -6.5164    0.0000 C   0  0  0  0  0  0  0  0  0  0  0  0
    8.7684   -5.6914    0.0000 C   0  0  0  0  0  0  0  0  0  0  0  0
    8.0540   -5.2789    0.0000 C   0  0  0  0  0  0  0  0  0  0  0  0
    5.1961   -6.9289    0.0000 O   0  0  0  0  0  0  0  0  0  0  0  0
    7.3395   -4.8664    0.0000 C   0  0  0  0  0  0  0  0  0  0  0  0
    9.4829   -6.9289    0.0000 C   0  0  0  0  0  0  0  0  0  0  0  0
   10.1974   -6.5164    0.0000 C   0  0  0  0  0  0  0  0  0  0  0  0
    9.4829   -7.7539    0.0000 C   0  0  0  0  0  0  0  0  0  0  0  0
  1  2  1  0  0  0  0
  2  3  1  0  0  0  0
  3  4  1  0  0  0  0
  4  5  1  0  0  0  0
  5  6  1  0  0  0  0
  6  1  1  0  0  0  0
  4  7  1  0  0  0  0
  7  8  1  0  0  0  0
  8  9  1  0  0  0  0
  9 10  1  0  0  0  0
 10  5  1  0  0  0  0
  2 11  2  0  0  0  0
  5 12  1  0  0  0  0
  8 13  1  0  0  0  0
 13 14  1  0  0  0  0
 13 15  1  0  0  0  0
M  END
>  <cdx:fragmentId>
5

$$$$
