302914.cdx
  Mrv1902 05222410242D          

 55 60  0  0  0  0            999 V2000
    1.9761   -9.4642    0.0000 C   0  0  1  0  0  0  0  0  0  0  0  0
    2.6886   -9.8802    0.0000 C   0  0  1  0  0  0  0  0  0  0  0  0
    3.4050   -9.4712    0.0000 C   0  0  2  0  0  0  0  0  0  0  0  0
    3.4091   -8.6463    0.0000 C   0  0  1  0  0  0  0  0  0  0  0  0
    2.6966   -8.2303    0.0000 O   0  0  0  0  0  0  0  0  0  0  0  0
    1.9802   -8.6393    0.0000 C   0  0  2  0  0  0  0  0  0  0  0  0
    4.1175   -9.8872    0.0000 O   0  0  0  0  0  0  0  0  0  0  0  0
    4.8340   -9.4782    0.0000 C   0  0  0  0  0  0  0  0  0  0  0  0
    4.8380   -8.6533    0.0000 C   0  0  0  0  0  0  0  0  0  0  0  0
    4.1256   -8.2373    0.0000 O   0  0  0  0  0  0  0  0  0  0  0  0
    5.5464   -9.8942    0.0000 C   0  0  0  0  0  0  0  0  0  0  0  0
    6.2629   -9.4853    0.0000 C   0  0  0  0  0  0  0  0  0  0  0  0
    6.2669   -8.6603    0.0000 C   0  0  0  0  0  0  0  0  0  0  0  0
    5.5545   -8.2443    0.0000 C   0  0  0  0  0  0  0  0  0  0  0  0
    6.9753   -9.9012    0.0000 C   0  0  0  0  0  0  0  0  0  0  0  0
    7.6918   -9.4923    0.0000 C   0  0  0  0  0  0  0  0  0  0  0  0
    7.6959   -8.6673    0.0000 C   0  0  0  0  0  0  0  0  0  0  0  0
    6.9834   -8.2513    0.0000 O   0  0  0  0  0  0  0  0  0  0  0  0
    8.4043   -9.9083    0.0000 O   0  0  0  0  0  0  0  0  0  0  0  0
    9.1248   -8.6743    0.0000 C   0  0  0  0  0  0  0  0  0  0  0  0
    8.4123   -8.2583    0.0000 C   0  0  0  0  0  0  0  0  0  0  0  0
    9.8413   -8.2653    0.0000 C   0  0  0  0  0  0  0  0  0  0  0  0
    9.8453   -7.4403    0.0000 C   0  0  0  0  0  0  0  0  0  0  0  0
    9.1329   -7.0243    0.0000 C   0  0  0  0  0  0  0  0  0  0  0  0
    8.4164   -7.4333    0.0000 C   0  0  0  0  0  0  0  0  0  0  0  0
    6.9713  -10.7262    0.0000 O   0  0  0  0  0  0  0  0  0  0  0  0
    7.6837  -11.1422    0.0000 O   0  0  0  0  0  0  0  0  0  0  0  0
    8.4002  -10.7332    0.0000 C   0  0  2  0  0  0  0  0  0  0  0  0
    7.6797  -11.9672    0.0000 C   0  0  1  0  0  0  0  0  0  0  0  0
    8.3921  -12.3832    0.0000 C   0  0  2  0  0  0  0  0  0  0  0  0
    9.1086  -11.9742    0.0000 C   0  0  1  0  0  0  0  0  0  0  0  0
    9.1127  -11.1492    0.0000 C   0  0  1  0  0  0  0  0  0  0  0  0
    9.8210  -12.3902    0.0000 O   0  0  0  0  0  0  0  0  0  0  0  0
   10.5375  -11.9812    0.0000 O   0  0  0  0  0  0  0  0  0  0  0  0
   10.5416  -11.1562    0.0000 C   0  0  1  0  0  0  0  0  0  0  0  0
    9.8291  -10.7402    0.0000 O   0  0  0  0  0  0  0  0  0  0  0  0
   11.2500  -12.3972    0.0000 C   0  0  1  0  0  0  0  0  0  0  0  0
   11.9665  -11.9882    0.0000 C   0  0  2  0  0  0  0  0  0  0  0  0
   11.9705  -11.1632    0.0000 C   0  0  1  0  0  0  0  0  0  0  0  0
   11.2581  -10.7472    0.0000 C   0  0  1  0  0  0  0  0  0  0  0  0
   11.9604  -13.6347    0.0000 O   0  0  0  0  0  0  0  0  0  0  0  0
   11.2459  -13.2222    0.0000 C   0  0  0  0  0  0  0  0  0  0  0  0
    6.9632  -12.3762    0.0000 C   0  0  0  0  0  0  0  0  0  0  0  0
    6.9592  -13.2012    0.0000 O   0  0  0  0  0  0  0  0  0  0  0  0
    8.3881  -13.2082    0.0000 O   0  0  0  0  0  0  0  0  0  0  0  0
    1.2677   -8.2233    0.0000 C   0  0  0  0  0  0  0  0  0  0  0  0
    5.5424  -10.7192    0.0000 O   0  0  0  0  0  0  0  0  0  0  0  0
    9.1369   -6.1993    0.0000 O   0  0  0  0  0  0  0  0  0  0  0  0
   10.5618   -7.0313    0.0000 O   0  0  0  0  0  0  0  0  0  0  0  0
    1.2596   -9.8732    0.0000 O   0  0  0  0  0  0  0  0  0  0  0  0
    2.6845  -10.7052    0.0000 O   0  0  0  0  0  0  0  0  0  0  0  0
   12.6870  -10.7542    0.0000 O   0  0  0  0  0  0  0  0  0  0  0  0
   11.2621   -9.9223    0.0000 O   0  0  0  0  0  0  0  0  0  0  0  0
   12.6789  -12.4042    0.0000 O   0  0  0  0  0  0  0  0  0  0  0  0
    0.5512   -8.6322    0.0000 O   0  0  0  0  0  0  0  0  0  0  0  0
  1  2  1  0  0  0  0
  2  3  1  0  0  0  0
  3  4  1  0  0  0  0
  4  5  1  0  0  0  0
  5  6  1  0  0  0  0
  6  1  1  0  0  0  0
  3  7  1  6  0  0  0
  8  9  2  0  0  0  0
  9 10  1  0  0  0  0
  4 10  1  1  0  0  0
  8 11  1  0  0  0  0
 11 12  2  0  0  0  0
 12 13  1  0  0  0  0
 13 14  2  0  0  0  0
 14  9  1  0  0  0  0
 12 15  1  0  0  0  0
 15 16  1  0  0  0  0
 16 17  2  0  0  0  0
 17 18  1  0  0  0  0
 18 13  1  0  0  0  0
 16 19  1  0  0  0  0
 20 21  1  0  0  0  0
 21 17  1  0  0  0  0
 20 22  2  0  0  0  0
 22 23  1  0  0  0  0
 23 24  2  0  0  0  0
 24 25  1  0  0  0  0
 25 21  2  0  0  0  0
 15 26  2  0  0  0  0
 27 28  1  0  0  0  0
 28 19  1  1  0  0  0
 27 29  1  0  0  0  0
 29 30  1  0  0  0  0
 30 31  1  0  0  0  0
 31 32  1  0  0  0  0
 32 28  1  0  0  0  0
 31 33  1  1  0  0  0
 34 35  1  0  0  0  0
 35 36  1  1  0  0  0
 32 36  1  6  0  0  0
 34 37  1  0  0  0  0
 37 38  1  0  0  0  0
 38 39  1  0  0  0  0
 39 40  1  0  0  0  0
 40 35  1  0  0  0  0
 41 42  1  0  0  0  0
 37 42  1  1  0  0  0
 29 43  1  1  0  0  0
 43 44  1  0  0  0  0
 30 45  1  6  0  0  0
  6 46  1  1  0  0  0
 11 47  1  0  0  0  0
 24 48  1  0  0  0  0
 23 49  1  0  0  0  0
  1 50  1  6  0  0  0
  2 51  1  1  0  0  0
 39 52  1  1  0  0  0
 40 53  1  6  0  0  0
 38 54  1  6  0  0  0
 46 55  1  0  0  0  0
M  END
>  <cdx:fragmentId>
5

$$$$
