30293.cdx
  Mrv1902 05222410202D          

 16 18  0  0  0  0            999 V2000
    2.7343   -8.4826    0.0000 C   0  0  0  0  0  0  0  0  0  0  0  0
    2.7343   -9.3076    0.0000 C   0  0  0  0  0  0  0  0  0  0  0  0
    3.4488   -9.7201    0.0000 C   0  0  0  0  0  0  0  0  0  0  0  0
    4.1632   -9.3076    0.0000 C   0  0  0  0  0  0  0  0  0  0  0  0
    4.1632   -8.4826    0.0000 C   0  0  0  0  0  0  0  0  0  0  0  0
    3.4488   -8.0701    0.0000 C   0  0  0  0  0  0  0  0  0  0  0  0
    4.9479   -9.5626    0.0000 N   0  0  0  0  0  0  0  0  0  0  0  0
    5.4328   -8.8951    0.0000 C   0  0  0  0  0  0  0  0  0  0  0  0
    4.9479   -8.2277    0.0000 C   0  0  0  0  0  0  0  0  0  0  0  0
    6.2578   -8.8951    0.0000 C   0  0  0  0  0  0  0  0  0  0  0  0
    6.6703   -9.6096    0.0000 C   0  0  0  0  0  0  0  0  0  0  0  0
    7.4953   -9.6096    0.0000 C   0  0  0  0  0  0  0  0  0  0  0  0
    7.9078   -8.8951    0.0000 C   0  0  0  0  0  0  0  0  0  0  0  0
    7.4953   -8.1807    0.0000 C   0  0  0  0  0  0  0  0  0  0  0  0
    6.6703   -8.1807    0.0000 C   0  0  0  0  0  0  0  0  0  0  0  0
    6.2578  -10.3241    0.0000 Cl  0  0  0  0  0  0  0  0  0  0  0  0
  1  2  2  0  0  0  0
  2  3  1  0  0  0  0
  3  4  2  0  0  0  0
  4  5  1  0  0  0  0
  5  6  2  0  0  0  0
  6  1  1  0  0  0  0
  4  7  1  0  0  0  0
  7  8  1  0  0  0  0
  8  9  2  0  0  0  0
  9  5  1  0  0  0  0
  8 10  1  0  0  0  0
 10 11  2  0  0  0  0
 11 12  1  0  0  0  0
 12 13  2  0  0  0  0
 13 14  1  0  0  0  0
 14 15  2  0  0  0  0
 15 10  1  0  0  0  0
 11 16  1  0  0  0  0
M  END
>  <cdx:fragmentId>
5

$$$$
