302963.cdx
  Mrv1902 05222410272D          

 11 10  0  0  0  0            999 V2000
    6.3533   -7.1412    0.0000 C   0  0  0  0  0  0  0  0  0  0  0  0
    5.6388   -7.5537    0.0000 C   0  0  0  0  0  0  0  0  0  0  0  0
    5.6388   -8.3787    0.0000 C   0  0  0  0  0  0  0  0  0  0  0  0
    6.3533   -6.3162    0.0000 O   0  0  0  0  0  0  0  0  0  0  0  0
    7.0678   -7.5537    0.0000 S   0  0  0  0  0  0  0  0  0  0  0  0
    4.9244   -7.1412    0.0000 C   0  0  0  0  0  0  0  0  0  0  0  0
    7.7822   -7.1412    0.0000 C   0  0  0  0  0  0  0  0  0  0  0  0
    8.4967   -7.5537    0.0000 C   0  0  0  0  0  0  0  0  0  0  0  0
    9.2112   -7.1412    0.0000 C   0  0  0  0  0  0  0  0  0  0  0  0
    9.2112   -6.3162    0.0000 C   0  0  0  0  0  0  0  0  0  0  0  0
    9.9256   -7.5537    0.0000 C   0  0  0  0  0  0  0  0  0  0  0  0
  1  2  1  0  0  0  0
  2  3  1  0  0  0  0
  1  4  2  0  0  0  0
  1  5  1  0  0  0  0
  2  6  1  0  0  0  0
  7  8  1  0  0  0  0
  8  9  2  0  0  0  0
  9 10  1  0  0  0  0
  9 11  1  0  0  0  0
  5  7  1  0  0  0  0
M  END
>  <cdx:fragmentId>
5

$$$$
