302915.cdx
  Mrv1902 05222410242D          

 42 46  0  0  0  0            999 V2000
    6.5718   -5.0586    0.0000 C   0  0  0  0  0  0  0  0  0  0  0  0
    6.5718   -5.8836    0.0000 C   0  0  0  0  0  0  0  0  0  0  0  0
    5.8574   -6.2961    0.0000 C   0  0  0  0  0  0  0  0  0  0  0  0
    5.8574   -7.1211    0.0000 O   0  0  0  0  0  0  0  0  0  0  0  0
    5.1429   -5.8836    0.0000 C   0  0  0  0  0  0  0  0  0  0  0  0
    4.4284   -6.2961    0.0000 C   0  0  0  0  0  0  0  0  0  0  0  0
    4.4284   -7.1211    0.0000 O   0  0  0  0  0  0  0  0  0  0  0  0
    3.7140   -5.8836    0.0000 C   0  0  0  0  0  0  0  0  0  0  0  0
    3.7140   -5.0586    0.0000 C   0  0  0  0  0  0  0  0  0  0  0  0
    2.9995   -4.6461    0.0000 O   0  0  0  0  0  0  0  0  0  0  0  0
    4.4284   -4.6461    0.0000 C   0  0  0  0  0  0  0  0  0  0  0  0
    5.1429   -5.0586    0.0000 C   0  0  0  0  0  0  0  0  0  0  0  0
    5.8574   -4.6461    0.0000 O   0  0  0  0  0  0  0  0  0  0  0  0
    7.2863   -4.6461    0.0000 C   0  0  0  0  0  0  0  0  0  0  0  0
    8.0008   -5.0586    0.0000 C   0  0  0  0  0  0  0  0  0  0  0  0
    8.7152   -4.6461    0.0000 C   0  0  0  0  0  0  0  0  0  0  0  0
    9.4297   -5.0586    0.0000 O   0  0  0  0  0  0  0  0  0  0  0  0
    8.7152   -3.8211    0.0000 C   0  0  0  0  0  0  0  0  0  0  0  0
    9.4297   -3.4086    0.0000 O   0  0  0  0  0  0  0  0  0  0  0  0
    8.0008   -3.4086    0.0000 C   0  0  0  0  0  0  0  0  0  0  0  0
    7.2863   -3.8211    0.0000 C   0  0  0  0  0  0  0  0  0  0  0  0
    7.2863   -6.2961    0.0000 O   0  0  0  0  0  0  0  0  0  0  0  0
    7.2863   -7.1211    0.0000 C   0  0  0  0  0  0  0  0  0  0  0  0
    7.9537   -7.6061    0.0000 C   0  0  2  0  0  0  0  0  0  0  0  0
    8.7384   -7.3511    0.0000 O   0  0  0  0  0  0  0  0  0  0  0  0
    7.6988   -8.3907    0.0000 C   0  0  1  0  0  0  0  0  0  0  0  0
    8.1837   -9.0581    0.0000 O   0  0  0  0  0  0  0  0  0  0  0  0
    6.8738   -8.3907    0.0000 C   0  0  2  0  0  0  0  0  0  0  0  0
    6.6189   -7.6061    0.0000 O   0  0  0  0  0  0  0  0  0  0  0  0
    6.3889   -9.0581    0.0000 C   0  0  0  0  0  0  0  0  0  0  0  0
    6.7244   -9.8118    0.0000 O   0  0  0  0  0  0  0  0  0  0  0  0
    9.0042   -8.9719    0.0000 C   0  0  0  0  0  0  0  0  0  0  0  0
    9.4891   -9.6393    0.0000 C   0  0  2  0  0  0  0  0  0  0  0  0
    9.1536  -10.3930    0.0000 O   0  0  0  0  0  0  0  0  0  0  0  0
   10.3096   -9.5531    0.0000 C   0  0  1  0  0  0  0  0  0  0  0  0
   10.7945  -10.2205    0.0000 O   0  0  0  0  0  0  0  0  0  0  0  0
   10.6452   -8.7994    0.0000 C   0  0  2  0  0  0  0  0  0  0  0  0
   11.4657   -8.7132    0.0000 O   0  0  0  0  0  0  0  0  0  0  0  0
   10.1602   -8.1320    0.0000 C   0  0  2  0  0  0  0  0  0  0  0  0
    9.3398   -8.2182    0.0000 O   0  0  0  0  0  0  0  0  0  0  0  0
   10.4958   -7.3783    0.0000 C   0  0  0  0  0  0  0  0  0  0  0  0
   10.0109   -6.7109    0.0000 O   0  0  0  0  0  0  0  0  0  0  0  0
  1  2  2  0  0  0  0
  2  3  1  0  0  0  0
  3  4  2  0  0  0  0
  3  5  1  0  0  0  0
  5  6  1  0  0  0  0
  6  7  1  0  0  0  0
  6  8  2  0  0  0  0
  8  9  1  0  0  0  0
  9 10  1  0  0  0  0
  9 11  2  0  0  0  0
 11 12  1  0  0  0  0
  5 12  2  0  0  0  0
 12 13  1  0  0  0  0
  1 13  1  0  0  0  0
  1 14  1  0  0  0  0
 14 15  1  0  0  0  0
 15 16  2  0  0  0  0
 16 17  1  0  0  0  0
 16 18  1  0  0  0  0
 18 19  1  0  0  0  0
 18 20  2  0  0  0  0
 20 21  1  0  0  0  0
 14 21  2  0  0  0  0
 22 23  1  0  0  0  0
 23 24  1  0  0  0  0
 24 25  1  6  0  0  0
 24 26  1  0  0  0  0
 26 27  1  1  0  0  0
 26 28  1  0  0  0  0
 28 29  1  0  0  0  0
 28 30  1  1  0  0  0
 30 31  1  0  0  0  0
 23 29  1  0  0  0  0
 32 33  1  0  0  0  0
 33 34  1  1  0  0  0
 33 35  1  0  0  0  0
 35 36  1  6  0  0  0
 35 37  1  0  0  0  0
 37 38  1  1  0  0  0
 37 39  1  0  0  0  0
 39 40  1  0  0  0  0
 39 41  1  6  0  0  0
 41 42  1  0  0  0  0
 32 40  1  0  0  0  0
 27 32  1  0  0  0  0
  2 22  1  0  0  0  0
M  END
>  <cdx:fragmentId>
502

$$$$
