30290.cdx
  Mrv1902 05222410192D          

 18 17  0  0  0  0            999 V2000
    9.2878   -7.7126    0.0000 C   0  0  0  0  0  0  0  0  0  0  0  0
    8.5733   -7.3001    0.0000 C   0  0  0  0  0  0  0  0  0  0  0  0
    7.8588   -7.7126    0.0000 C   0  0  0  0  0  0  0  0  0  0  0  0
    7.1444   -7.3001    0.0000 C   0  0  0  0  0  0  0  0  0  0  0  0
    6.4299   -7.7126    0.0000 C   0  0  0  0  0  0  0  0  0  0  0  0
    5.7154   -7.3001    0.0000 C   0  0  0  0  0  0  0  0  0  0  0  0
    5.0009   -7.7126    0.0000 C   0  0  0  0  0  0  0  0  0  0  0  0
    4.2865   -7.3001    0.0000 C   0  0  0  0  0  0  0  0  0  0  0  0
    3.5720   -7.7126    0.0000 C   0  0  0  0  0  0  0  0  0  0  0  0
    2.8575   -7.3001    0.0000 C   0  0  0  0  0  0  0  0  0  0  0  0
    3.5720   -8.5376    0.0000 C   0  0  0  0  0  0  0  0  0  0  0  0
    5.7154   -6.4751    0.0000 O   0  0  0  0  0  0  0  0  0  0  0  0
    7.1444   -6.4751    0.0000 O   0  0  0  0  0  0  0  0  0  0  0  0
    6.4299   -8.5376    0.0000 C   0  0  0  0  0  0  0  0  0  0  0  0
    7.1444   -8.9501    0.0000 O   0  0  0  0  0  0  0  0  0  0  0  0
    5.7154   -8.9501    0.0000 O   0  0  0  0  0  0  0  0  0  0  0  0
    7.8588   -8.5376    0.0000 H   0  0  0  0  0  0  0  0  0  0  0  0
    8.5733   -6.4751    0.0000 O   0  0  0  0  0  0  0  0  0  0  0  0
  2  1  1  0  0  0  0
  3  2  1  0  0  0  0
  4  3  2  0  0  0  0
  5  4  1  0  0  0  0
  6  5  2  0  0  0  0
  7  6  1  0  0  0  0
  8  7  1  0  0  0  0
  9  8  1  0  0  0  0
 10  9  1  0  0  0  0
  9 11  1  0  0  0  0
  6 12  1  0  0  0  0
  4 13  1  0  0  0  0
  5 14  1  0  0  0  0
 14 15  2  0  0  0  0
 14 16  1  0  0  0  0
  3 17  1  0  0  0  0
  2 18  2  0  0  0  0
M  END
>  <cdx:fragmentId>
3

$$$$
