302916.cdx
  Mrv1902 05222410232D          

 53 58  0  0  0  0            999 V2000
    9.6833  -11.0041    0.0000 O   0  0  0  0  0  0  0  0  0  0  0  0
    8.2544  -11.8291    0.0000 O   0  0  0  0  0  0  0  0  0  0  0  0
    6.8255  -11.0041    0.0000 C   0  0  0  0  0  0  0  0  0  0  0  0
   11.1123   -8.5291    0.0000 O   0  0  0  0  0  0  0  0  0  0  0  0
   12.5412   -9.3541    0.0000 O   0  0  0  0  0  0  0  0  0  0  0  0
   12.5412  -11.0041    0.0000 O   0  0  0  0  0  0  0  0  0  0  0  0
   11.8268  -12.2416    0.0000 O   0  0  0  0  0  0  0  0  0  0  0  0
   11.1123  -11.8291    0.0000 C   0  0  0  0  0  0  0  0  0  0  0  0
   11.1123  -11.0041    0.0000 C   0  0  2  0  0  0  0  0  0  0  0  0
   11.8268  -10.5916    0.0000 C   0  0  2  0  0  0  0  0  0  0  0  0
   11.8268   -9.7666    0.0000 C   0  0  1  0  0  0  0  0  0  0  0  0
   11.1123   -9.3541    0.0000 C   0  0  2  0  0  0  0  0  0  0  0  0
   10.3978   -9.7666    0.0000 C   0  0  1  0  0  0  0  0  0  0  0  0
   10.3978  -10.5916    0.0000 O   0  0  0  0  0  0  0  0  0  0  0  0
    9.6833   -9.3541    0.0000 O   0  0  0  0  0  0  0  0  0  0  0  0
    7.5399  -10.5916    0.0000 C   0  0  1  0  0  0  0  0  0  0  0  0
    8.2544  -11.0041    0.0000 C   0  0  1  0  0  0  0  0  0  0  0  0
    8.9689  -10.5916    0.0000 C   0  0  2  0  0  0  0  0  0  0  0  0
    8.9689   -9.7666    0.0000 C   0  0  2  0  0  0  0  0  0  0  0  0
    8.2544   -9.3541    0.0000 C   0  0  1  0  0  0  0  0  0  0  0  0
    7.5399   -9.7666    0.0000 O   0  0  0  0  0  0  0  0  0  0  0  0
    8.2544   -8.5291    0.0000 O   0  0  0  0  0  0  0  0  0  0  0  0
   10.3978   -7.2916    0.0000 O   0  0  0  0  0  0  0  0  0  0  0  0
   10.3978   -5.6416    0.0000 O   0  0  0  0  0  0  0  0  0  0  0  0
    8.2544   -6.0541    0.0000 C   0  0  0  0  0  0  0  0  0  0  0  0
    8.9689   -5.6416    0.0000 C   0  0  0  0  0  0  0  0  0  0  0  0
    9.6833   -6.0541    0.0000 C   0  0  0  0  0  0  0  0  0  0  0  0
    9.6833   -6.8791    0.0000 C   0  0  0  0  0  0  0  0  0  0  0  0
    8.9689   -7.2916    0.0000 C   0  0  0  0  0  0  0  0  0  0  0  0
    8.2544   -6.8791    0.0000 C   0  0  0  0  0  0  0  0  0  0  0  0
    5.3965   -9.3541    0.0000 O   0  0  0  0  0  0  0  0  0  0  0  0
    3.9676   -6.8791    0.0000 O   0  0  0  0  0  0  0  0  0  0  0  0
    6.8255   -9.3541    0.0000 O   0  0  0  0  0  0  0  0  0  0  0  0
    6.8255   -6.8791    0.0000 O   0  0  0  0  0  0  0  0  0  0  0  0
    6.1110   -7.2916    0.0000 C   0  0  0  0  0  0  0  0  0  0  0  0
    5.3965   -6.8791    0.0000 C   0  0  0  0  0  0  0  0  0  0  0  0
    4.6820   -7.2916    0.0000 C   0  0  0  0  0  0  0  0  0  0  0  0
    4.6820   -8.1166    0.0000 C   0  0  0  0  0  0  0  0  0  0  0  0
    5.3965   -8.5291    0.0000 C   0  0  0  0  0  0  0  0  0  0  0  0
    6.1110   -8.1166    0.0000 C   0  0  0  0  0  0  0  0  0  0  0  0
    6.8255   -8.5291    0.0000 C   0  0  0  0  0  0  0  0  0  0  0  0
    7.5399   -8.1166    0.0000 C   0  0  0  0  0  0  0  0  0  0  0  0
    7.5399   -7.2916    0.0000 C   0  0  0  0  0  0  0  0  0  0  0  0
    2.5432   -9.3635    0.0000 O   0  0  0  0  0  0  0  0  0  0  0  0
    1.1144   -8.5382    0.0000 O   0  0  0  0  0  0  0  0  0  0  0  0
    1.1147   -6.8882    0.0000 C   0  0  0  0  0  0  0  0  0  0  0  0
    3.9723   -8.5388    0.0000 O   0  0  0  0  0  0  0  0  0  0  0  0
    1.8291   -7.3009    0.0000 C   0  0  1  0  0  0  0  0  0  0  0  0
    1.8290   -8.1259    0.0000 C   0  0  1  0  0  0  0  0  0  0  0  0
    2.5433   -8.5385    0.0000 C   0  0  2  0  0  0  0  0  0  0  0  0
    3.2579   -8.1262    0.0000 C   0  0  2  0  0  0  0  0  0  0  0  0
    3.2581   -7.3012    0.0000 C   0  0  1  0  0  0  0  0  0  0  0  0
    2.5437   -6.8885    0.0000 O   0  0  0  0  0  0  0  0  0  0  0  0
 42 22  1  0  0  0  0
 20 22  1  1  0  0  0
 18  1  1  6  0  0  0
 17  2  1  1  0  0  0
 16  3  1  6  0  0  0
 19 15  1  6  0  0  0
 13 15  1  1  0  0  0
 12  4  1  6  0  0  0
 11  5  1  1  0  0  0
 10  6  1  6  0  0  0
  9  8  1  1  0  0  0
  8  7  1  0  0  0  0
 14  9  1  0  0  0  0
 10  9  1  0  0  0  0
 11 10  1  0  0  0  0
 12 11  1  0  0  0  0
 13 12  1  0  0  0  0
 14 13  1  0  0  0  0
 21 16  1  0  0  0  0
 17 16  1  0  0  0  0
 18 17  1  0  0  0  0
 19 18  1  0  0  0  0
 20 19  1  0  0  0  0
 21 20  1  0  0  0  0
 43 30  1  0  0  0  0
 28 23  1  0  0  0  0
 27 24  1  0  0  0  0
 30 25  2  0  0  0  0
 26 25  1  0  0  0  0
 27 26  2  0  0  0  0
 28 27  1  0  0  0  0
 29 28  2  0  0  0  0
 30 29  1  0  0  0  0
 39 31  1  0  0  0  0
 37 32  1  0  0  0  0
 41 33  2  0  0  0  0
 43 34  1  0  0  0  0
 35 34  1  0  0  0  0
 40 35  2  0  0  0  0
 36 35  1  0  0  0  0
 37 36  2  0  0  0  0
 38 37  1  0  0  0  0
 39 38  2  0  0  0  0
 40 39  1  0  0  0  0
 41 40  1  0  0  0  0
 42 41  1  0  0  0  0
 43 42  2  0  0  0  0
 50 44  1  6  0  0  0
 49 45  1  1  0  0  0
 48 46  1  6  0  0  0
 51 47  1  6  0  0  0
 53 48  1  0  0  0  0
 49 48  1  0  0  0  0
 50 49  1  0  0  0  0
 51 50  1  0  0  0  0
 52 51  1  0  0  0  0
 53 52  1  0  0  0  0
 52 32  1  1  0  0  0
M  END
>  <cdx:fragmentId>
63

$$$$
