30299.cdx
  Mrv1902 05222410272D          

 14 15  0  0  0  0            999 V2000
    4.2881   -7.6026    0.0000 C   0  0  0  0  0  0  0  0  0  0  0  0
    4.2881   -8.4276    0.0000 C   0  0  0  0  0  0  0  0  0  0  0  0
    5.0025   -8.8401    0.0000 C   0  0  0  0  0  0  0  0  0  0  0  0
    5.7170   -8.4276    0.0000 C   0  0  0  0  0  0  0  0  0  0  0  0
    5.7170   -7.6026    0.0000 C   0  0  0  0  0  0  0  0  0  0  0  0
    5.0025   -7.1901    0.0000 C   0  0  0  0  0  0  0  0  0  0  0  0
    6.5016   -8.6826    0.0000 C   0  0  0  0  0  0  0  0  0  0  0  0
    6.9865   -8.0151    0.0000 C   0  0  0  0  0  0  0  0  0  0  0  0
    6.5016   -7.3477    0.0000 C   0  0  0  0  0  0  0  0  0  0  0  0
    4.5900   -9.5546    0.0000 C   0  0  0  0  0  0  0  0  0  0  0  0
    5.4150   -9.5546    0.0000 C   0  0  0  0  0  0  0  0  0  0  0  0
    5.7170   -6.7776    0.0000 C   0  0  0  0  0  0  0  0  0  0  0  0
    7.8115   -8.0151    0.0000 O   0  0  0  0  0  0  0  0  0  0  0  0
    6.7566   -6.5631    0.0000 C   0  0  0  0  0  0  0  0  0  0  0  0
  1  2  1  0  0  0  0
  2  3  1  0  0  0  0
  3  4  1  0  0  0  0
  4  5  1  0  0  0  0
  5  6  1  0  0  0  0
  6  1  2  0  0  0  0
  4  7  2  0  0  0  0
  7  8  1  0  0  0  0
  8  9  1  0  0  0  0
  9  5  1  0  0  0  0
  3 10  1  0  0  0  0
  3 11  1  0  0  0  0
  5 12  1  0  0  0  0
  8 13  1  0  0  0  0
  9 14  1  0  0  0  0
M  END
>  <cdx:fragmentId>
5

$$$$
