30294.cdx
  Mrv1902 05222410192D          

 10  9  0  0  0  0            999 V2000
    9.9758   -5.8426    0.0000 O   0  0  0  0  0  0  0  0  0  0  0  0
    9.2613   -6.2551    0.0000 C   0  0  0  0  0  0  0  0  0  0  0  0
    8.5469   -5.8426    0.0000 C   0  0  0  0  0  0  0  0  0  0  0  0
    7.8324   -6.2551    0.0000 O   0  0  0  0  0  0  0  0  0  0  0  0
    7.1179   -5.8426    0.0000 C   0  0  0  0  0  0  0  0  0  0  0  0
    6.4034   -6.2551    0.0000 C   0  0  0  0  0  0  0  0  0  0  0  0
    5.6890   -5.8426    0.0000 O   0  0  0  0  0  0  0  0  0  0  0  0
    4.9745   -6.2551    0.0000 C   0  0  0  0  0  0  0  0  0  0  0  0
    4.2600   -5.8426    0.0000 C   0  0  0  0  0  0  0  0  0  0  0  0
    4.9745   -7.0801    0.0000 O   0  0  0  0  0  0  0  0  0  0  0  0
  2  1  1  0  0  0  0
  3  2  1  0  0  0  0
  4  3  1  0  0  0  0
  5  4  1  0  0  0  0
  6  5  1  0  0  0  0
  7  6  1  0  0  0  0
  8  7  1  0  0  0  0
  9  8  1  0  0  0  0
  8 10  2  0  0  0  0
M  END
>  <cdx:fragmentId>
3

$$$$
