302921.cdx
  Mrv1902 05222410212D          

 33 36  0  0  0  0            999 V2000
    8.8539   -8.7362    0.0000 C   0  0  0  0  0  0  0  0  0  0  0  0
    8.8539   -7.9112    0.0000 C   0  0  0  0  0  0  0  0  0  0  0  0
    8.1395   -7.4987    0.0000 C   0  0  0  0  0  0  0  0  0  0  0  0
    7.4250   -7.9112    0.0000 C   0  0  0  0  0  0  0  0  0  0  0  0
    6.7105   -7.4987    0.0000 C   0  0  0  0  0  0  0  0  0  0  0  0
    5.9961   -7.9112    0.0000 C   0  0  0  0  0  0  0  0  0  0  0  0
    5.9961   -8.7362    0.0000 C   0  0  0  0  0  0  0  0  0  0  0  0
    6.7105   -9.1487    0.0000 C   0  0  0  0  0  0  0  0  0  0  0  0
    7.4250   -8.7362    0.0000 C   0  0  0  0  0  0  0  0  0  0  0  0
    8.1395   -9.1487    0.0000 O   0  0  0  0  0  0  0  0  0  0  0  0
    8.1395   -6.6737    0.0000 O   0  0  0  0  0  0  0  0  0  0  0  0
    6.7105   -6.6737    0.0000 O   0  0  0  0  0  0  0  0  0  0  0  0
    5.2816   -6.6737    0.0000 O   0  0  0  0  0  0  0  0  0  0  0  0
    5.9961   -6.2612    0.0000 C   0  0  2  0  0  0  0  0  0  0  0  0
    5.9961   -5.4362    0.0000 C   0  0  0  0  0  0  0  0  0  0  0  0
    5.2816   -5.0237    0.0000 C   0  0  2  0  0  0  0  0  0  0  0  0
    4.5671   -5.4362    0.0000 C   0  0  1  0  0  0  0  0  0  0  0  0
    4.5671   -6.2612    0.0000 C   0  0  0  0  0  0  0  0  0  0  0  0
    3.8526   -6.6737    0.0000 C   0  0  0  0  0  0  0  0  0  0  0  0
    3.1382   -6.2612    0.0000 O   0  0  0  0  0  0  0  0  0  0  0  0
    3.8526   -5.0237    0.0000 O   0  0  0  0  0  0  0  0  0  0  0  0
    5.2816   -4.1987    0.0000 O   0  0  0  0  0  0  0  0  0  0  0  0
    6.7105   -5.0237    0.0000 O   0  0  0  0  0  0  0  0  0  0  0  0
    5.2816   -9.1487    0.0000 O   0  0  0  0  0  0  0  0  0  0  0  0
    9.5684   -7.4987    0.0000 O   0  0  0  0  0  0  0  0  0  0  0  0
    9.5684   -9.1487    0.0000 C   0  0  0  0  0  0  0  0  0  0  0  0
   10.2829   -8.7362    0.0000 C   0  0  0  0  0  0  0  0  0  0  0  0
   10.9974   -9.1487    0.0000 C   0  0  0  0  0  0  0  0  0  0  0  0
   10.9974   -9.9737    0.0000 C   0  0  0  0  0  0  0  0  0  0  0  0
   10.2829  -10.3862    0.0000 C   0  0  0  0  0  0  0  0  0  0  0  0
    9.5684   -9.9737    0.0000 C   0  0  0  0  0  0  0  0  0  0  0  0
   11.7118  -10.3862    0.0000 O   0  0  0  0  0  0  0  0  0  0  0  0
   11.7118   -8.7362    0.0000 O   0  0  0  0  0  0  0  0  0  0  0  0
  1  2  2  0  0  0  0
  2  3  1  0  0  0  0
  3  4  1  0  0  0  0
  4  5  1  0  0  0  0
  5  6  2  0  0  0  0
  6  7  1  0  0  0  0
  7  8  2  0  0  0  0
  8  9  1  0  0  0  0
  4  9  2  0  0  0  0
  9 10  1  0  0  0  0
  1 10  1  0  0  0  0
  3 11  2  0  0  0  0
 13 14  1  0  0  0  0
 14 15  1  0  0  0  0
 15 16  1  0  0  0  0
 16 17  1  0  0  0  0
 17 18  1  0  0  0  0
 13 18  1  0  0  0  0
 19 20  1  0  0  0  0
 18 19  1  0  0  0  0
 17 21  1  1  0  0  0
 16 22  1  6  0  0  0
 15 23  1  0  0  0  0
 14 12  1  6  0  0  0
  5 12  1  0  0  0  0
  7 24  1  0  0  0  0
  2 25  1  0  0  0  0
 26 27  1  0  0  0  0
 27 28  2  0  0  0  0
 28 29  1  0  0  0  0
 29 30  2  0  0  0  0
 30 31  1  0  0  0  0
 26 31  2  0  0  0  0
 29 32  1  0  0  0  0
 28 33  1  0  0  0  0
  1 26  1  0  0  0  0
M  END
>  <cdx:groupId>
104

>  <cdx:fragmentId>
29

$$$$
