302927.cdx
  Mrv1902 05222410232D          

 14 14  0  0  0  0            999 V2000
    6.5718   -5.2249    0.0000 C   0  0  0  0  0  0  0  0  0  0  0  0
    7.2824   -5.6441    0.0000 C   0  0  0  0  0  0  0  0  0  0  0  0
    7.2747   -6.4690    0.0000 C   0  0  2  0  0  0  0  0  0  0  0  0
    6.5565   -6.8749    0.0000 C   0  0  0  0  0  0  0  0  0  0  0  0
    5.8459   -6.4557    0.0000 C   0  0  1  0  0  0  0  0  0  0  0  0
    5.8536   -5.6307    0.0000 C   0  0  0  0  0  0  0  0  0  0  0  0
    6.9843   -4.5105    0.0000 C   0  0  0  0  0  0  0  0  0  0  0  0
    5.1276   -6.8615    0.0000 O   0  0  0  0  0  0  0  0  0  0  0  0
    6.5488   -7.6998    0.0000 O   0  0  0  0  0  0  0  0  0  0  0  0
    7.9853   -6.8882    0.0000 O   0  0  0  0  0  0  0  0  0  0  0  0
    6.1593   -4.5105    0.0000 O   0  0  0  0  0  0  0  0  0  0  0  0
    6.5718   -3.7960    0.0000 O   0  0  0  0  0  0  0  0  0  0  0  0
    7.8093   -4.5105    0.0000 O   0  0  0  0  0  0  0  0  0  0  0  0
    8.2218   -3.7960    0.0000 C   0  0  0  0  0  0  0  0  0  0  0  0
  1  2  1  0  0  0  0
  2  3  1  0  0  0  0
  3  4  1  0  0  0  0
  4  5  1  0  0  0  0
  5  6  1  0  0  0  0
  1  6  1  0  0  0  0
  1  7  1  0  0  0  0
  5  8  1  6  0  0  0
  4  9  1  0  0  0  0
  3 10  1  1  0  0  0
  1 11  1  0  0  0  0
  7 12  2  0  0  0  0
  7 13  1  0  0  0  0
 13 14  1  0  0  0  0
M  END
>  <cdx:fragmentId>
5

$$$$
