30295.cdx
  Mrv1902 05222410182D          

 15 16  0  0  0  0            999 V2000
    3.0231   -7.0526    0.0000 C   0  0  0  0  0  0  0  0  0  0  0  0
    3.0231   -7.8776    0.0000 C   0  0  0  0  0  0  0  0  0  0  0  0
    3.7375   -8.2901    0.0000 C   0  0  0  0  0  0  0  0  0  0  0  0
    4.4520   -7.8776    0.0000 C   0  0  0  0  0  0  0  0  0  0  0  0
    4.4520   -7.0526    0.0000 C   0  0  0  0  0  0  0  0  0  0  0  0
    3.7375   -6.6401    0.0000 C   0  0  0  0  0  0  0  0  0  0  0  0
    5.2366   -8.1326    0.0000 C   0  0  0  0  0  0  0  0  0  0  0  0
    5.7215   -7.4651    0.0000 C   0  0  0  0  0  0  0  0  0  0  0  0
    5.2366   -6.7977    0.0000 N   0  0  0  0  0  0  0  0  0  0  0  0
    6.5465   -7.4651    0.0000 O   0  0  0  0  0  0  0  0  0  0  0  0
    5.0231   -8.9295    0.0000 O   0  0  0  0  0  0  0  0  0  0  0  0
    5.9511   -8.5451    0.0000 C   0  0  0  0  0  0  0  0  0  0  0  0
    5.9511   -9.3701    0.0000 C   0  0  0  0  0  0  0  0  0  0  0  0
    6.6656   -9.7826    0.0000 O   0  0  0  0  0  0  0  0  0  0  0  0
    5.2366   -9.7826    0.0000 O   0  0  0  0  0  0  0  0  0  0  0  0
  1  2  2  0  0  0  0
  2  3  1  0  0  0  0
  3  4  2  0  0  0  0
  4  5  1  0  0  0  0
  5  6  2  0  0  0  0
  6  1  1  0  0  0  0
  4  7  1  0  0  0  0
  7  8  1  0  0  0  0
  8  9  1  0  0  0  0
  9  5  1  0  0  0  0
  8 10  2  0  0  0  0
  7 11  1  0  0  0  0
  7 12  1  0  0  0  0
 12 13  1  0  0  0  0
 13 14  1  0  0  0  0
 13 15  2  0  0  0  0
M  END
>  <cdx:fragmentId>
5

$$$$
