303046.cdx
  Mrv1902 05222410192D          

 70 78  0  0  0  0            999 V2000
   15.0940  -11.5494    0.0000 C   0  0  1  0  0  0  0  0  0  0  0  0
   15.8084  -11.1369    0.0000 C   0  0  2  0  0  0  0  0  0  0  0  0
   16.5930  -11.3919    0.0000 C   0  0  0  0  0  0  0  0  0  0  0  0
   17.0780  -10.7244    0.0000 C   0  0  2  0  0  0  0  0  0  0  0  0
   17.8626  -10.4695    0.0000 O   0  0  0  0  0  0  0  0  0  0  0  0
   17.8626   -9.6445    0.0000 C   0  0  2  0  0  0  0  0  0  0  0  0
   17.0780   -9.3895    0.0000 C   0  0  2  0  0  0  0  0  0  0  0  0
   16.5930  -10.0570    0.0000 C   0  0  2  0  0  0  0  0  0  0  0  0
   15.8084  -10.3119    0.0000 C   0  0  1  0  0  0  0  0  0  0  0  0
   15.0940   -9.8994    0.0000 C   0  0  0  0  0  0  0  0  0  0  0  0
   14.3795  -10.3119    0.0000 C   0  0  0  0  0  0  0  0  0  0  0  0
   14.3795  -11.1369    0.0000 C   0  0  2  0  0  0  0  0  0  0  0  0
   13.6650  -11.5494    0.0000 C   0  0  1  0  0  0  0  0  0  0  0  0
   12.9505  -11.1369    0.0000 C   0  0  0  0  0  0  0  0  0  0  0  0
   12.2361  -11.5494    0.0000 C   0  0  0  0  0  0  0  0  0  0  0  0
   12.2361  -12.3744    0.0000 C   0  0  1  0  0  0  0  0  0  0  0  0
   12.9505  -12.7869    0.0000 C   0  0  0  0  0  0  0  0  0  0  0  0
   13.6650  -12.3744    0.0000 C   0  0  2  0  0  0  0  0  0  0  0  0
   14.3795  -12.7869    0.0000 C   0  0  0  0  0  0  0  0  0  0  0  0
   15.0940  -12.3744    0.0000 C   0  0  0  0  0  0  0  0  0  0  0  0
   17.7764   -8.8240    0.0000 O   0  0  0  0  0  0  0  0  0  0  0  0
   18.6163   -9.9800    0.0000 C   0  0  0  0  0  0  0  0  0  0  0  0
   19.2837   -9.4951    0.0000 C   0  0  0  0  0  0  0  0  0  0  0  0
   19.1975   -8.6746    0.0000 C   0  0  3  0  0  0  0  0  0  0  0  0
   18.4438   -8.3391    0.0000 C   0  0  0  0  0  0  0  0  0  0  0  0
   13.6650  -10.7244    0.0000 C   0  0  0  0  0  0  0  0  0  0  0  0
   15.8084   -9.4869    0.0000 C   0  0  0  0  0  0  0  0  0  0  0  0
   16.8230   -8.6049    0.0000 C   0  0  0  0  0  0  0  0  0  0  0  0
   19.8649   -8.1897    0.0000 C   0  0  0  0  0  0  0  0  0  0  0  0
   15.0940  -10.7244    0.0000 H   0  0  0  0  0  0  0  0  0  0  0  0
   15.8084  -11.9619    0.0000 H   0  0  0  0  0  0  0  0  0  0  0  0
   17.5629  -11.3919    0.0000 H   0  0  0  0  0  0  0  0  0  0  0  0
   16.2314   -9.3155    0.0000 H   0  0  0  0  0  0  0  0  0  0  0  0
   14.3795  -11.9619    0.0000 H   0  0  0  0  0  0  0  0  0  0  0  0
    8.6639  -12.7580    0.0000 O   0  0  0  0  0  0  0  0  0  0  0  0
    8.6805  -11.1081    0.0000 O   0  0  0  0  0  0  0  0  0  0  0  0
   10.1177  -10.2976    0.0000 C   0  0  0  0  0  0  0  0  0  0  0  0
   11.5216  -12.7869    0.0000 O   0  0  0  0  0  0  0  0  0  0  0  0
   10.1094  -11.1226    0.0000 C   0  0  2  0  0  0  0  0  0  0  0  0
    9.3908  -11.5278    0.0000 C   0  0  1  0  0  0  0  0  0  0  0  0
    9.3825  -12.3528    0.0000 C   0  0  1  0  0  0  0  0  0  0  0  0
   10.0927  -12.7725    0.0000 C   0  0  2  0  0  0  0  0  0  0  0  0
   10.8113  -12.3672    0.0000 C   0  0  1  0  0  0  0  0  0  0  0  0
   10.8197  -11.5423    0.0000 O   0  0  0  0  0  0  0  0  0  0  0  0
   10.0844  -13.5974    0.0000 O   0  0  0  0  0  0  0  0  0  0  0  0
   13.6650  -13.1994    0.0000 H   0  0  0  0  0  0  0  0  0  0  0  0
    9.4075   -9.8779    0.0000 O   0  0  0  0  0  0  0  0  0  0  0  0
    8.2804  -10.3866    0.0000 C   0  0  2  0  0  0  0  0  0  0  0  0
    8.7123   -9.6837    0.0000 O   0  0  0  0  0  0  0  0  0  0  0  0
    8.3195   -8.9582    0.0000 C   0  0  1  0  0  0  0  0  0  0  0  0
    7.4947   -8.9524    0.0000 C   0  0  2  0  0  0  0  0  0  0  0  0
    7.0627   -9.6719    0.0000 C   0  0  1  0  0  0  0  0  0  0  0  0
    7.4556  -10.3808    0.0000 C   0  0  1  0  0  0  0  0  0  0  0  0
    8.7443   -8.2510    0.0000 C   0  0  0  0  0  0  0  0  0  0  0  0
    6.2378   -9.6577    0.0000 O   0  0  0  0  0  0  0  0  0  0  0  0
    7.0909   -8.2329    0.0000 O   0  0  0  0  0  0  0  0  0  0  0  0
    8.3441   -7.5295    0.0000 O   0  0  0  0  0  0  0  0  0  0  0  0
    7.0344  -11.0901    0.0000 O   0  0  0  0  0  0  0  0  0  0  0  0
   15.0940   -9.0744    0.0000 O   0  0  0  0  0  0  0  0  0  0  0  0
    6.2094  -11.0800    0.0000 C   0  0  2  0  0  0  0  0  0  0  0  0
    5.8100  -10.3581    0.0000 O   0  0  0  0  0  0  0  0  0  0  0  0
    4.9851  -10.3581    0.0000 C   0  0  1  0  0  0  0  0  0  0  0  0
    4.5597  -11.0800    0.0000 C   0  0  1  0  0  0  0  0  0  0  0  0
    4.9851  -11.8018    0.0000 C   0  0  1  0  0  0  0  0  0  0  0  0
    5.8100  -11.8018    0.0000 C   0  0  1  0  0  0  0  0  0  0  0  0
    4.5759   -9.6418    0.0000 C   0  0  0  0  0  0  0  0  0  0  0  0
    3.7509   -9.6381    0.0000 O   0  0  0  0  0  0  0  0  0  0  0  0
    4.5759  -12.5182    0.0000 O   0  0  0  0  0  0  0  0  0  0  0  0
    3.7347  -11.0800    0.0000 O   0  0  0  0  0  0  0  0  0  0  0  0
    6.2290  -12.5125    0.0000 O   0  0  0  0  0  0  0  0  0  0  0  0
 42 45  1  6  0  0  0
 41 35  1  1  0  0  0
 40 36  1  1  0  0  0
 39 37  1  1  0  0  0
 43 38  1  1  0  0  0
 44 39  1  0  0  0  0
 40 39  1  0  0  0  0
 41 40  1  0  0  0  0
 42 41  1  0  0  0  0
 43 42  1  0  0  0  0
 44 43  1  0  0  0  0
  1  2  1  0  0  0  0
  2  3  1  0  0  0  0
  3  4  1  0  0  0  0
  4  5  1  0  0  0  0
  6  5  1  6  0  0  0
  6  7  1  0  0  0  0
  7  8  1  0  0  0  0
  8  9  1  0  0  0  0
  9 10  1  0  0  0  0
 10 11  1  0  0  0  0
 11 12  1  0  0  0  0
 12 13  1  0  0  0  0
 13 14  1  0  0  0  0
 14 15  1  0  0  0  0
 15 16  1  0  0  0  0
 16 17  1  0  0  0  0
 17 18  1  0  0  0  0
 18 19  1  0  0  0  0
 19 20  1  0  0  0  0
  1 20  1  0  0  0  0
  1 12  1  0  0  0  0
 13 18  1  0  0  0  0
  2  9  1  0  0  0  0
  4  8  1  0  0  0  0
 22 23  1  0  0  0  0
 23 24  1  0  0  0  0
 24 25  1  0  0  0  0
 21 25  1  0  0  0  0
  6 21  1  0  0  0  0
  6 22  1  0  0  0  0
 13 26  1  1  0  0  0
  9 27  1  1  0  0  0
  7 28  1  6  0  0  0
 24 29  1  4  0  0  0
 16 38  1  1  0  0  0
  1 30  1  1  0  0  0
  2 31  1  6  0  0  0
  4 32  1  6  0  0  0
  8 33  1  6  0  0  0
 12 34  1  6  0  0  0
 18 46  1  6  0  0  0
 37 47  1  0  0  0  0
 48 36  1  1  0  0  0
 48 49  1  0  0  0  0
 49 50  1  0  0  0  0
 50 51  1  0  0  0  0
 51 52  1  0  0  0  0
 52 53  1  0  0  0  0
 53 48  1  0  0  0  0
 50 54  1  1  0  0  0
 52 55  1  1  0  0  0
 51 56  1  6  0  0  0
 54 57  1  0  0  0  0
 53 58  1  6  0  0  0
 10 59  2  0  0  0  0
 60 58  1  1  0  0  0
 60 61  1  0  0  0  0
 61 62  1  0  0  0  0
 62 63  1  0  0  0  0
 63 64  1  0  0  0  0
 64 65  1  0  0  0  0
 65 60  1  0  0  0  0
 62 66  1  1  0  0  0
 66 67  1  0  0  0  0
 64 68  1  1  0  0  0
 63 69  1  1  0  0  0
 65 70  1  6  0  0  0
M  END
>  <cdx:fragmentId>
198565

$$$$
