30301.cdx
  Mrv1902 05222410262D          

 15 15  0  0  0  0            999 V2000
    6.0893   -9.6514    0.0000 C   0  0  0  0  0  0  0  0  0  0  0  0
    6.0893  -10.4764    0.0000 C   0  0  0  0  0  0  0  0  0  0  0  0
    6.8038  -10.8889    0.0000 C   0  0  0  0  0  0  0  0  0  0  0  0
    7.5182  -10.4764    0.0000 C   0  0  0  0  0  0  0  0  0  0  0  0
    7.5182   -9.6514    0.0000 C   0  0  0  0  0  0  0  0  0  0  0  0
    6.8038   -9.2389    0.0000 C   0  0  0  0  0  0  0  0  0  0  0  0
    6.8038  -11.7139    0.0000 C   0  0  0  0  0  0  0  0  0  0  0  0
    5.3748   -9.2389    0.0000 C   0  0  0  0  0  0  0  0  0  0  0  0
    8.2327   -9.2389    0.0000 C   0  0  0  0  0  0  0  0  0  0  0  0
    6.8038   -8.4139    0.0000 C   0  0  0  0  0  0  0  0  0  0  0  0
    6.0893   -8.0014    0.0000 O   0  0  0  0  0  0  0  0  0  0  0  0
    7.5182   -8.0014    0.0000 C   0  0  0  0  0  0  0  0  0  0  0  0
    7.1057   -7.2869    0.0000 C   0  0  0  0  0  0  0  0  0  0  0  0
    7.9307   -8.7159    0.0000 C   0  0  0  0  0  0  0  0  0  0  0  0
    8.2327   -7.5889    0.0000 C   0  0  0  0  0  0  0  0  0  0  0  0
  1  2  2  0  0  0  0
  2  3  1  0  0  0  0
  3  4  2  0  0  0  0
  4  5  1  0  0  0  0
  5  6  2  0  0  0  0
  6  1  1  0  0  0  0
  3  7  1  0  0  0  0
  1  8  1  0  0  0  0
  5  9  1  0  0  0  0
  6 10  1  0  0  0  0
 10 11  2  0  0  0  0
 10 12  1  0  0  0  0
 12 13  1  0  0  0  0
 12 14  1  0  0  0  0
 12 15  1  0  0  0  0
M  END
>  <cdx:fragmentId>
5

$$$$
