30304.cdx
  Mrv1902 05222410282D          

 25 26  0  0  0  0            999 V2000
    5.9236   -5.2042    0.0000 C   0  0  0  0  0  0  0  0  0  0  0  0
    5.2056   -5.6105    0.0000 C   0  0  0  0  0  0  0  0  0  0  0  0
    5.1984   -6.4355    0.0000 C   0  0  0  0  0  0  0  0  0  0  0  0
    5.9092   -6.8542    0.0000 C   0  0  0  0  0  0  0  0  0  0  0  0
    6.6273   -6.4479    0.0000 C   0  0  0  0  0  0  0  0  0  0  0  0
    6.6345   -5.6229    0.0000 C   0  0  0  0  0  0  0  0  0  0  0  0
    8.0562   -6.4603    0.0000 C   0  0  0  0  0  0  0  0  0  0  0  0
    8.0633   -5.6354    0.0000 C   0  0  0  0  0  0  0  0  0  0  0  0
    7.3525   -5.2167    0.0000 C   0  0  0  0  0  0  0  0  0  0  0  0
    8.7670   -6.8790    0.0000 C   0  0  0  0  0  0  0  0  0  0  0  0
    9.4850   -6.4728    0.0000 C   0  0  0  0  0  0  0  0  0  0  0  0
    9.4922   -5.6478    0.0000 C   0  0  0  0  0  0  0  0  0  0  0  0
    8.7814   -5.2291    0.0000 C   0  0  0  0  0  0  0  0  0  0  0  0
    5.9308   -4.3793    0.0000 O   0  0  0  0  0  0  0  0  0  0  0  0
    5.9021   -7.6792    0.0000 C   0  0  0  0  0  0  0  0  0  0  0  0
    8.7885   -4.4041    0.0000 O   0  0  0  0  0  0  0  0  0  0  0  0
    8.7598   -7.7040    0.0000 C   0  0  0  0  0  0  0  0  0  0  0  0
   10.2103   -5.2415    0.0000 C   0  0  0  0  0  0  0  0  0  0  0  0
   10.9283   -4.8353    0.0000 C   0  0  0  0  0  0  0  0  0  0  0  0
   10.6165   -5.9596    0.0000 C   0  0  0  0  0  0  0  0  0  0  0  0
    9.8040   -4.5235    0.0000 C   0  0  0  0  0  0  0  0  0  0  0  0
    4.4947   -5.1918    0.0000 C   0  0  0  0  0  0  0  0  0  0  0  0
    3.7839   -4.7731    0.0000 C   0  0  0  0  0  0  0  0  0  0  0  0
    4.9134   -4.4810    0.0000 C   0  0  0  0  0  0  0  0  0  0  0  0
    4.0760   -5.9027    0.0000 C   0  0  0  0  0  0  0  0  0  0  0  0
  1  2  2  0  0  0  0
  2  3  1  0  0  0  0
  3  4  2  0  0  0  0
  4  5  1  0  0  0  0
  5  6  2  0  0  0  0
  6  1  1  0  0  0  0
  7  8  2  0  0  0  0
  8  9  1  0  0  0  0
  9  6  1  0  0  0  0
  7 10  1  0  0  0  0
 10 11  2  0  0  0  0
 11 12  1  0  0  0  0
 12 13  2  0  0  0  0
 13  8  1  0  0  0  0
  1 14  1  0  0  0  0
  4 15  1  0  0  0  0
 13 16  1  0  0  0  0
 10 17  1  0  0  0  0
 12 18  1  0  0  0  0
 18 19  1  0  0  0  0
 18 20  1  0  0  0  0
 18 21  1  0  0  0  0
  2 22  1  0  0  0  0
 22 23  1  0  0  0  0
 22 24  1  0  0  0  0
 22 25  1  0  0  0  0
M  END
>  <cdx:fragmentId>
5

$$$$
