303075.cdx
  Mrv1902 05222410262D          

 40 43  0  0  0  0            999 V2000
   12.2185   -8.1174    0.0000 C   0  0  0  0  0  0  0  0  0  0  0  0
   12.9330   -8.5299    0.0000 C   0  0  0  0  0  0  0  0  0  0  0  0
   10.7896   -8.1174    0.0000 C   0  0  0  0  0  0  0  0  0  0  0  0
   11.5041   -8.5299    0.0000 C   0  0  0  0  0  0  0  0  0  0  0  0
   11.5041   -9.3549    0.0000 C   0  0  0  0  0  0  0  0  0  0  0  0
   10.7896   -9.7674    0.0000 C   0  0  0  0  0  0  0  0  0  0  0  0
   10.0751   -9.3549    0.0000 C   0  0  0  0  0  0  0  0  0  0  0  0
    9.3607   -9.7674    0.0000 C   0  0  0  0  0  0  0  0  0  0  0  0
    8.6462   -9.3549    0.0000 C   0  0  0  0  0  0  0  0  0  0  0  0
    8.6462   -8.5299    0.0000 C   0  0  0  0  0  0  0  0  0  0  0  0
    9.3607   -8.1174    0.0000 C   0  0  0  0  0  0  0  0  0  0  0  0
   10.0751   -8.5299    0.0000 C   0  0  0  0  0  0  0  0  0  0  0  0
    9.3607   -7.2924    0.0000 O   0  0  0  0  0  0  0  0  0  0  0  0
    7.9317   -7.2924    0.0000 O   0  0  0  0  0  0  0  0  0  0  0  0
    8.6462   -6.8799    0.0000 C   0  0  2  0  0  0  0  0  0  0  0  0
    8.6462   -6.0549    0.0000 C   0  0  1  0  0  0  0  0  0  0  0  0
    7.9317   -5.6424    0.0000 C   0  0  2  0  0  0  0  0  0  0  0  0
    7.2172   -6.0549    0.0000 C   0  0  1  0  0  0  0  0  0  0  0  0
    7.2172   -6.8799    0.0000 C   0  0  1  0  0  0  0  0  0  0  0  0
    6.5028   -7.2924    0.0000 C   0  0  0  0  0  0  0  0  0  0  0  0
    5.7883   -6.8799    0.0000 O   0  0  0  0  0  0  0  0  0  0  0  0
    4.3594   -6.8799    0.0000 O   0  0  0  0  0  0  0  0  0  0  0  0
    5.0738   -7.2924    0.0000 C   0  0  2  0  0  0  0  0  0  0  0  0
    5.0738   -8.1174    0.0000 C   0  0  1  0  0  0  0  0  0  0  0  0
    4.3594   -8.5299    0.0000 C   0  0  2  0  0  0  0  0  0  0  0  0
    3.6449   -8.1174    0.0000 C   0  0  1  0  0  0  0  0  0  0  0  0
    3.6449   -7.2924    0.0000 C   0  0  1  0  0  0  0  0  0  0  0  0
    2.9304   -6.8799    0.0000 C   0  0  0  0  0  0  0  0  0  0  0  0
    2.2160   -7.2924    0.0000 O   0  0  0  0  0  0  0  0  0  0  0  0
    2.9304   -8.5299    0.0000 O   0  0  0  0  0  0  0  0  0  0  0  0
    4.3594   -9.3549    0.0000 O   0  0  0  0  0  0  0  0  0  0  0  0
    5.7883   -8.5299    0.0000 O   0  0  0  0  0  0  0  0  0  0  0  0
    6.5028   -5.6424    0.0000 O   0  0  0  0  0  0  0  0  0  0  0  0
    7.9317   -4.8174    0.0000 O   0  0  0  0  0  0  0  0  0  0  0  0
    9.3607   -5.6424    0.0000 O   0  0  0  0  0  0  0  0  0  0  0  0
   12.2185   -9.7674    0.0000 C   0  0  0  0  0  0  0  0  0  0  0  0
    7.9317   -9.7674    0.0000 O   0  0  0  0  0  0  0  0  0  0  0  0
    7.2172   -9.3549    0.0000 C   0  0  0  0  0  0  0  0  0  0  0  0
   10.7896   -7.2924    0.0000 O   0  0  0  0  0  0  0  0  0  0  0  0
   12.2185   -7.2924    0.0000 O   0  0  0  0  0  0  0  0  0  0  0  0
  1  2  1  0  0  0  0
  3  4  1  0  0  0  0
  4  5  2  0  0  0  0
  5  6  1  0  0  0  0
  6  7  2  0  0  0  0
  7  8  1  0  0  0  0
  8  9  2  0  0  0  0
  9 10  1  0  0  0  0
 10 11  2  0  0  0  0
 11 12  1  0  0  0  0
  3 12  2  0  0  0  0
  7 12  1  0  0  0  0
 14 15  1  0  0  0  0
 15 16  1  0  0  0  0
 16 17  1  0  0  0  0
 17 18  1  0  0  0  0
 18 19  1  0  0  0  0
 14 19  1  0  0  0  0
 22 23  1  0  0  0  0
 23 24  1  0  0  0  0
 24 25  1  0  0  0  0
 25 26  1  0  0  0  0
 26 27  1  0  0  0  0
 22 27  1  0  0  0  0
 28 29  1  0  0  0  0
 27 28  1  1  0  0  0
 26 30  1  6  0  0  0
 25 31  1  1  0  0  0
 24 32  1  6  0  0  0
 23 21  1  1  0  0  0
 20 21  1  0  0  0  0
 19 20  1  6  0  0  0
 18 33  1  1  0  0  0
 17 34  1  6  0  0  0
 16 35  1  1  0  0  0
 15 13  1  6  0  0  0
 11 13  1  0  0  0  0
  5 36  1  0  0  0  0
 37 38  1  0  0  0  0
  9 37  1  0  0  0  0
  3 39  1  0  0  0  0
  1  4  1  0  0  0  0
  1 40  2  0  0  0  0
M  END
>  <cdx:groupId>
393

>  <cdx:fragmentId>
315

$$$$
