303031.cdx
  Mrv1902 05222410222D          

 45 49  0  0  0  0            999 V2000
    6.6272  -10.4192    0.0000 C   0  0  2  0  0  0  0  0  0  0  0  0
    6.6272   -9.5942    0.0000 C   0  0  2  0  0  0  0  0  0  0  0  0
    5.9128   -9.1817    0.0000 C   0  0  0  0  0  0  0  0  0  0  0  0
    5.1983   -9.5942    0.0000 C   0  0  0  0  0  0  0  0  0  0  0  0
    4.4838   -9.1817    0.0000 C   0  0  0  0  0  0  0  0  0  0  0  0
    3.7694   -9.5942    0.0000 C   0  0  0  0  0  0  0  0  0  0  0  0
    3.7694  -10.4192    0.0000 C   0  0  0  0  0  0  0  0  0  0  0  0
    4.4838  -10.8317    0.0000 C   0  0  0  0  0  0  0  0  0  0  0  0
    5.1983  -10.4192    0.0000 C   0  0  0  0  0  0  0  0  0  0  0  0
    5.9128  -10.8317    0.0000 O   0  0  0  0  0  0  0  0  0  0  0  0
    5.9128   -8.3567    0.0000 O   0  0  0  0  0  0  0  0  0  0  0  0
    3.0549  -10.8317    0.0000 O   0  0  0  0  0  0  0  0  0  0  0  0
    4.4838   -8.3567    0.0000 O   0  0  0  0  0  0  0  0  0  0  0  0
    7.3417   -9.1817    0.0000 O   0  0  0  0  0  0  0  0  0  0  0  0
    7.3417  -10.8317    0.0000 C   0  0  0  0  0  0  0  0  0  0  0  0
    8.0562  -10.4192    0.0000 C   0  0  0  0  0  0  0  0  0  0  0  0
    8.7706  -10.8317    0.0000 C   0  0  0  0  0  0  0  0  0  0  0  0
    8.7706  -11.6567    0.0000 C   0  0  0  0  0  0  0  0  0  0  0  0
    8.0562  -12.0692    0.0000 C   0  0  0  0  0  0  0  0  0  0  0  0
    7.3417  -11.6567    0.0000 C   0  0  0  0  0  0  0  0  0  0  0  0
    9.4851  -12.0692    0.0000 O   0  0  0  0  0  0  0  0  0  0  0  0
    9.4851  -10.4192    0.0000 O   0  0  0  0  0  0  0  0  0  0  0  0
    7.3417   -8.3567    0.0000 C   0  0  2  0  0  0  0  0  0  0  0  0
    8.0562   -7.9442    0.0000 O   0  0  0  0  0  0  0  0  0  0  0  0
    8.0562   -7.1192    0.0000 C   0  0  0  0  0  0  0  0  0  0  0  0
    7.3417   -6.7067    0.0000 C   0  0  2  0  0  0  0  0  0  0  0  0
    6.6272   -7.1192    0.0000 C   0  0  1  0  0  0  0  0  0  0  0  0
    6.6272   -7.9442    0.0000 C   0  0  2  0  0  0  0  0  0  0  0  0
    5.8303   -7.7307    0.0000 O   0  0  0  0  0  0  0  0  0  0  0  0
    5.9128   -6.7067    0.0000 O   0  0  0  0  0  0  0  0  0  0  0  0
    7.3417   -5.8817    0.0000 O   0  0  0  0  0  0  0  0  0  0  0  0
    8.0562   -5.4692    0.0000 C   0  0  1  0  0  0  0  0  0  0  0  0
    8.7706   -5.8817    0.0000 C   0  0  2  0  0  0  0  0  0  0  0  0
    9.4851   -5.4692    0.0000 C   0  0  2  0  0  0  0  0  0  0  0  0
    9.4851   -4.6442    0.0000 C   0  0  2  0  0  0  0  0  0  0  0  0
    8.7706   -4.2317    0.0000 C   0  0  2  0  0  0  0  0  0  0  0  0
    8.0562   -4.6442    0.0000 C   0  0  0  0  0  0  0  0  0  0  0  0
    8.7706   -6.7067    0.0000 O   0  0  0  0  0  0  0  0  0  0  0  0
   10.1996   -5.8817    0.0000 O   0  0  0  0  0  0  0  0  0  0  0  0
   10.1996   -4.2317    0.0000 O   0  0  0  0  0  0  0  0  0  0  0  0
    8.7706   -3.4067    0.0000 O   0  0  0  0  0  0  0  0  0  0  0  0
    7.3417   -4.2317    0.0000 C   0  0  0  0  0  0  0  0  0  0  0  0
    6.6272   -4.6442    0.0000 O   0  0  0  0  0  0  0  0  0  0  0  0
    8.8531   -7.3327    0.0000 C   0  0  0  0  0  0  0  0  0  0  0  0
    9.5675   -6.9202    0.0000 O   0  0  0  0  0  0  0  0  0  0  0  0
  1  2  1  0  0  0  0
  2  3  1  0  0  0  0
  3  4  1  0  0  0  0
  4  5  1  0  0  0  0
  5  6  2  0  0  0  0
  6  7  1  0  0  0  0
  7  8  2  0  0  0  0
  8  9  1  0  0  0  0
  4  9  2  0  0  0  0
  9 10  1  0  0  0  0
  1 10  1  0  0  0  0
  3 11  2  0  0  0  0
  7 12  1  0  0  0  0
  5 13  1  0  0  0  0
  2 14  1  6  0  0  0
 15 16  1  0  0  0  0
 16 17  2  0  0  0  0
 17 18  1  0  0  0  0
 18 19  2  0  0  0  0
 19 20  1  0  0  0  0
 15 20  2  0  0  0  0
 18 21  1  0  0  0  0
 17 22  1  0  0  0  0
  1 15  1  1  0  0  0
 23 14  1  1  0  0  0
 23 24  1  0  0  0  0
 24 25  1  0  0  0  0
 25 26  1  0  0  0  0
 26 27  1  0  0  0  0
 27 28  1  0  0  0  0
 28 23  1  0  0  0  0
 28 29  1  1  0  0  0
 27 30  1  1  0  0  0
 26 31  1  6  0  0  0
 32 31  1  6  0  0  0
 32 33  1  0  0  0  0
 33 34  1  0  0  0  0
 34 35  1  0  0  0  0
 35 36  1  0  0  0  0
 36 37  1  0  0  0  0
 37 32  1  0  0  0  0
 33 38  1  6  0  0  0
 34 39  1  6  0  0  0
 35 40  1  6  0  0  0
 36 41  1  6  0  0  0
 37 42  1  0  0  0  0
 42 43  1  0  0  0  0
 25 44  1  0  0  0  0
 44 45  1  0  0  0  0
M  END
>  <cdx:groupId>
70

>  <cdx:fragmentId>
5

$$$$
