303092.cdx
  Mrv1902 05222410202D          

 38 41  0  0  0  0            999 V2000
    1.6368   -5.7090    0.0000 C   0  0  0  0  0  0  0  0  0  0  0  0
    1.6368   -6.5340    0.0000 C   0  0  0  0  0  0  0  0  0  0  0  0
    2.3512   -6.9465    0.0000 C   0  0  0  0  0  0  0  0  0  0  0  0
    3.0657   -6.5340    0.0000 C   0  0  0  0  0  0  0  0  0  0  0  0
    3.0657   -5.7090    0.0000 C   0  0  0  0  0  0  0  0  0  0  0  0
    2.3512   -5.2965    0.0000 C   0  0  0  0  0  0  0  0  0  0  0  0
    3.7802   -6.9465    0.0000 C   0  0  0  0  0  0  0  0  0  0  0  0
    4.4947   -6.5340    0.0000 C   0  0  0  0  0  0  0  0  0  0  0  0
    4.4947   -5.7090    0.0000 C   0  0  0  0  0  0  0  0  0  0  0  0
    3.7802   -5.2965    0.0000 O   0  0  0  0  0  0  0  0  0  0  0  0
    5.2091   -5.2965    0.0000 C   0  0  0  0  0  0  0  0  0  0  0  0
    5.9236   -5.7090    0.0000 C   0  0  0  0  0  0  0  0  0  0  0  0
    6.6381   -5.2965    0.0000 C   0  0  0  0  0  0  0  0  0  0  0  0
    6.6381   -4.4715    0.0000 C   0  0  0  0  0  0  0  0  0  0  0  0
    5.9236   -4.0590    0.0000 C   0  0  0  0  0  0  0  0  0  0  0  0
    5.2091   -4.4715    0.0000 C   0  0  0  0  0  0  0  0  0  0  0  0
    5.9236   -3.2340    0.0000 O   0  0  0  0  0  0  0  0  0  0  0  0
    5.2091   -2.8215    0.0000 C   0  0  0  0  0  0  0  0  0  0  0  0
    7.3525   -5.7090    0.0000 O   0  0  0  0  0  0  0  0  0  0  0  0
    8.0670   -5.2965    0.0000 C   0  0  0  0  0  0  0  0  0  0  0  0
    7.3525   -4.0590    0.0000 C   0  0  0  0  0  0  0  0  0  0  0  0
    7.3525   -3.2340    0.0000 C   0  0  1  0  0  0  0  0  0  0  0  0
    8.0670   -2.8215    0.0000 C   0  0  1  0  0  0  0  0  0  0  0  0
    6.6381   -2.8215    0.0000 C   0  0  0  0  0  0  0  0  0  0  0  0
    6.6381   -1.9965    0.0000 O   0  0  0  0  0  0  0  0  0  0  0  0
    8.0670   -1.9965    0.0000 O   0  0  0  0  0  0  0  0  0  0  0  0
    8.7815   -3.2340    0.0000 C   0  0  0  0  0  0  0  0  0  0  0  0
    8.7815   -4.0590    0.0000 C   0  0  0  0  0  0  0  0  0  0  0  0
    9.4960   -4.4715    0.0000 C   0  0  0  0  0  0  0  0  0  0  0  0
   10.2104   -4.0590    0.0000 C   0  0  0  0  0  0  0  0  0  0  0  0
   10.2104   -3.2340    0.0000 C   0  0  0  0  0  0  0  0  0  0  0  0
    9.4960   -2.8215    0.0000 C   0  0  0  0  0  0  0  0  0  0  0  0
    0.9223   -5.2965    0.0000 O   0  0  0  0  0  0  0  0  0  0  0  0
    2.3512   -7.7715    0.0000 O   0  0  0  0  0  0  0  0  0  0  0  0
   10.9249   -4.4715    0.0000 O   0  0  0  0  0  0  0  0  0  0  0  0
   10.9249   -2.8215    0.0000 O   0  0  0  0  0  0  0  0  0  0  0  0
   11.6394   -3.2340    0.0000 C   0  0  0  0  0  0  0  0  0  0  0  0
    3.7802   -7.7715    0.0000 O   0  0  0  0  0  0  0  0  0  0  0  0
  1  2  2  0  0  0  0
  2  3  1  0  0  0  0
  3  4  2  0  0  0  0
  4  5  1  0  0  0  0
  5  6  2  0  0  0  0
  6  1  1  0  0  0  0
  4  7  1  0  0  0  0
  7  8  1  0  0  0  0
  8  9  2  0  0  0  0
  9 10  1  0  0  0  0
 10  5  1  0  0  0  0
  9 11  1  0  0  0  0
 11 12  2  0  0  0  0
 12 13  1  0  0  0  0
 13 14  2  0  0  0  0
 14 15  1  0  0  0  0
 15 16  2  0  0  0  0
 16 11  1  0  0  0  0
 15 17  1  0  0  0  0
 17 18  1  0  0  0  0
 13 19  1  0  0  0  0
 19 20  1  0  0  0  0
 14 21  1  0  0  0  0
 21 22  1  0  0  0  0
 22 23  1  0  0  0  0
 22 24  1  6  0  0  0
 24 25  1  0  0  0  0
 23 26  1  1  0  0  0
 23 27  1  0  0  0  0
 27 28  2  0  0  0  0
 28 29  1  0  0  0  0
 29 30  2  0  0  0  0
 30 31  1  0  0  0  0
 31 32  2  0  0  0  0
 32 27  1  0  0  0  0
  1 33  1  0  0  0  0
  3 34  1  0  0  0  0
 30 35  1  0  0  0  0
 31 36  1  0  0  0  0
 36 37  1  0  0  0  0
  7 38  2  0  0  0  0
M  END
>  <cdx:fragmentId>
44

$$$$
