303079.cdx
  Mrv1902 05222410202D          

 79 83  0  0  0  0            999 V2000
    5.5256   -5.0039    0.0000 C   0  0  2  0  0  0  0  0  0  0  0  0
    5.5256   -5.8289    0.0000 C   0  0  2  0  0  0  0  0  0  0  0  0
    6.2400   -6.2414    0.0000 C   0  0  1  0  0  0  0  0  0  0  0  0
    6.9545   -5.8289    0.0000 C   0  0  2  0  0  0  0  0  0  0  0  0
    6.9545   -5.0039    0.0000 C   0  0  1  0  0  0  0  0  0  0  0  0
    6.2400   -4.5914    0.0000 O   0  0  0  0  0  0  0  0  0  0  0  0
    7.6690   -4.5914    0.0000 O   0  0  0  0  0  0  0  0  0  0  0  0
    8.3840   -4.9764    0.0000 C   0  0  0  0  0  0  0  0  0  0  0  0
    9.0984   -4.5639    0.0000 C   0  0  2  0  0  0  0  0  0  0  0  0
    9.0984   -3.7389    0.0000 C   0  0  1  0  0  0  0  0  0  0  0  0
    8.3840   -3.3264    0.0000 O   0  0  0  0  0  0  0  0  0  0  0  0
    9.8129   -4.9764    0.0000 O   0  0  0  0  0  0  0  0  0  0  0  0
   10.5274   -4.5639    0.0000 C   0  0  2  0  0  0  0  0  0  0  0  0
   10.5274   -3.7389    0.0000 C   0  0  1  0  0  0  0  0  0  0  0  0
    9.8129   -3.3264    0.0000 C   0  0  1  0  0  0  0  0  0  0  0  0
   10.5274   -6.2139    0.0000 O   0  0  0  0  0  0  0  0  0  0  0  0
   11.2419   -5.8014    0.0000 C   0  0  0  0  0  0  0  0  0  0  0  0
   11.2419   -4.9764    0.0000 O   0  0  0  0  0  0  0  0  0  0  0  0
    4.8111   -4.5914    0.0000 C   0  0  0  0  0  0  0  0  0  0  0  0
    4.0966   -5.0039    0.0000 O   0  0  0  0  0  0  0  0  0  0  0  0
   11.9563   -6.2139    0.0000 C   0  0  0  0  0  0  0  0  0  0  0  0
   12.6708   -5.8014    0.0000 C   0  0  0  0  0  0  0  0  0  0  0  0
   11.9563   -7.0389    0.0000 C   0  0  0  0  0  0  0  0  0  0  0  0
   12.6708   -7.4514    0.0000 C   0  0  0  0  0  0  0  0  0  0  0  0
   12.6708   -8.2764    0.0000 C   0  0  0  0  0  0  0  0  0  0  0  0
   13.3853   -8.6889    0.0000 C   0  0  0  0  0  0  0  0  0  0  0  0
   13.3853   -9.5139    0.0000 C   0  0  0  0  0  0  0  0  0  0  0  0
   14.0997   -8.2764    0.0000 C   0  0  0  0  0  0  0  0  0  0  0  0
   12.6708   -9.9264    0.0000 C   0  0  0  0  0  0  0  0  0  0  0  0
   12.6708  -10.7514    0.0000 C   0  0  0  0  0  0  0  0  0  0  0  0
   11.9563  -11.1639    0.0000 C   0  0  0  0  0  0  0  0  0  0  0  0
   11.9563  -11.9889    0.0000 C   0  0  0  0  0  0  0  0  0  0  0  0
   11.2419  -12.4014    0.0000 C   0  0  0  0  0  0  0  0  0  0  0  0
   12.6708  -12.4014    0.0000 C   0  0  0  0  0  0  0  0  0  0  0  0
   11.2419  -13.2264    0.0000 C   0  0  0  0  0  0  0  0  0  0  0  0
    9.8124  -14.8901    0.0000 C   0  0  0  0  0  0  0  0  0  0  0  0
    9.8124  -15.7151    0.0000 O   0  0  0  0  0  0  0  0  0  0  0  0
    9.0979  -14.4776    0.0000 O   0  0  0  0  0  0  0  0  0  0  0  0
    9.0979  -16.1276    0.0000 C   0  0  2  0  0  0  0  0  0  0  0  0
    8.3834  -15.7151    0.0000 O   0  0  0  0  0  0  0  0  0  0  0  0
    7.6690  -16.1276    0.0000 C   0  0  1  0  0  0  0  0  0  0  0  0
    7.6690  -16.9526    0.0000 C   0  0  2  0  0  0  0  0  0  0  0  0
    8.3834  -17.3651    0.0000 C   0  0  1  0  0  0  0  0  0  0  0  0
    9.0979  -16.9526    0.0000 C   0  0  1  0  0  0  0  0  0  0  0  0
    6.9545  -15.7151    0.0000 C   0  0  0  0  0  0  0  0  0  0  0  0
    6.2400  -16.1276    0.0000 O   0  0  0  0  0  0  0  0  0  0  0  0
    6.9545  -17.3651    0.0000 O   0  0  0  0  0  0  0  0  0  0  0  0
    6.2400  -14.4776    0.0000 O   0  0  0  0  0  0  0  0  0  0  0  0
    5.5256  -14.8901    0.0000 C   0  0  1  0  0  0  0  0  0  0  0  0
    5.5256  -15.7151    0.0000 C   0  0  1  0  0  0  0  0  0  0  0  0
    4.8111  -14.4776    0.0000 C   0  0  2  0  0  0  0  0  0  0  0  0
    4.0966  -14.8901    0.0000 C   0  0  1  0  0  0  0  0  0  0  0  0
    4.0966  -15.7151    0.0000 C   0  0  2  0  0  0  0  0  0  0  0  0
    4.8111  -16.1276    0.0000 O   0  0  0  0  0  0  0  0  0  0  0  0
   10.5274  -13.6389    0.0000 C   0  0  0  0  0  0  0  0  0  0  0  0
   10.5274  -14.4639    0.0000 C   0  0  0  0  0  0  0  0  0  0  0  0
   11.2419  -14.8764    0.0000 C   0  0  0  0  0  0  0  0  0  0  0  0
    6.2400   -7.0664    0.0000 O   0  0  0  0  0  0  0  0  0  0  0  0
   11.2419   -3.3264    0.0000 O   0  0  0  0  0  0  0  0  0  0  0  0
    8.3834  -18.1901    0.0000 O   0  0  0  0  0  0  0  0  0  0  0  0
    3.3821  -14.4776    0.0000 O   0  0  0  0  0  0  0  0  0  0  0  0
    3.3821  -16.1276    0.0000 C   0  0  0  0  0  0  0  0  0  0  0  0
    9.8124  -17.3651    0.0000 O   0  0  0  0  0  0  0  0  0  0  0  0
    4.8111   -6.2414    0.0000 O   0  0  0  0  0  0  0  0  0  0  0  0
    7.6690   -6.2414    0.0000 O   0  0  0  0  0  0  0  0  0  0  0  0
    9.8129   -2.5014    0.0000 O   0  0  0  0  0  0  0  0  0  0  0  0
    2.6677  -15.7151    0.0000 O   0  0  0  0  0  0  0  0  0  0  0  0
    4.8111  -13.6526    0.0000 O   0  0  0  0  0  0  0  0  0  0  0  0
    3.3821   -4.5914    0.0000 C   0  0  1  0  0  0  0  0  0  0  0  0
    3.3821   -3.7664    0.0000 C   0  0  1  0  0  0  0  0  0  0  0  0
    2.6677   -3.3539    0.0000 C   0  0  2  0  0  0  0  0  0  0  0  0
    1.9532   -3.7664    0.0000 C   0  0  1  0  0  0  0  0  0  0  0  0
    1.9532   -4.5914    0.0000 C   0  0  2  0  0  0  0  0  0  0  0  0
    2.6677   -5.0039    0.0000 O   0  0  0  0  0  0  0  0  0  0  0  0
    1.2387   -5.0039    0.0000 C   0  0  0  0  0  0  0  0  0  0  0  0
    2.6677   -2.5289    0.0000 O   0  0  0  0  0  0  0  0  0  0  0  0
    4.0966   -3.3539    0.0000 O   0  0  0  0  0  0  0  0  0  0  0  0
    1.2387   -3.3539    0.0000 O   0  0  0  0  0  0  0  0  0  0  0  0
    0.5243   -4.5914    0.0000 O   0  0  0  0  0  0  0  0  0  0  0  0
  1  2  1  0  0  0  0
  2  3  1  0  0  0  0
  3  4  1  0  0  0  0
  4  5  1  0  0  0  0
  5  6  1  0  0  0  0
  6  1  1  0  0  0  0
  5  7  1  1  0  0  0
  9  8  1  6  0  0  0
  9 10  1  0  0  0  0
 10 11  1  1  0  0  0
  9 12  1  0  0  0  0
 12 13  1  0  0  0  0
 13 14  1  0  0  0  0
 14 15  1  0  0  0  0
 15 10  1  0  0  0  0
 16 17  2  0  0  0  0
 17 18  1  0  0  0  0
 13 18  1  6  0  0  0
  1 19  1  1  0  0  0
 19 20  1  0  0  0  0
 17 21  1  0  0  0  0
 21 22  1  0  0  0  0
 21 23  2  0  0  0  0
 23 24  1  0  0  0  0
 24 25  2  0  0  0  0
 25 26  1  0  0  0  0
 26 27  2  0  0  0  0
 26 28  1  0  0  0  0
 27 29  1  0  0  0  0
 29 30  2  0  0  0  0
 30 31  1  0  0  0  0
 31 32  2  0  0  0  0
 32 33  1  0  0  0  0
 32 34  1  0  0  0  0
 33 35  2  0  0  0  0
 36 37  1  0  0  0  0
 36 38  2  0  0  0  0
 39 37  1  1  0  0  0
 39 40  1  0  0  0  0
 40 41  1  0  0  0  0
 41 42  1  0  0  0  0
 42 43  1  0  0  0  0
 43 44  1  0  0  0  0
 44 39  1  0  0  0  0
 41 45  1  1  0  0  0
 45 46  1  0  0  0  0
 42 47  1  6  0  0  0
 49 48  1  1  0  0  0
 49 50  1  0  0  0  0
 50 46  1  6  0  0  0
 49 51  1  0  0  0  0
 51 52  1  0  0  0  0
 52 53  1  0  0  0  0
 53 54  1  0  0  0  0
 54 50  1  0  0  0  0
 35 55  1  0  0  0  0
 55 56  2  0  0  0  0
 56 57  1  0  0  0  0
 56 36  1  0  0  0  0
  3 58  1  1  0  0  0
 14 59  1  1  0  0  0
 43 60  1  1  0  0  0
 52 61  1  1  0  0  0
 53 62  1  6  0  0  0
 44 63  1  6  0  0  0
  2 64  1  6  0  0  0
  4 65  1  6  0  0  0
 15 66  1  6  0  0  0
 62 67  1  0  0  0  0
 51 68  1  6  0  0  0
  7  8  1  0  0  0  0
 69 20  1  6  0  0  0
 69 70  1  0  0  0  0
 70 71  1  0  0  0  0
 71 72  1  0  0  0  0
 72 73  1  0  0  0  0
 73 74  1  0  0  0  0
 74 69  1  0  0  0  0
 73 75  1  6  0  0  0
 71 76  1  6  0  0  0
 70 77  1  1  0  0  0
 72 78  1  1  0  0  0
 75 79  1  0  0  0  0
M  END
>  <cdx:fragmentId>
5

$$$$
