30305.cdx
  Mrv1902 05222410282D          

 12 14  0  0  0  0            999 V2000
    8.6143   -8.8608    0.0000 C   0  0  0  0  0  0  0  0  0  0  0  0
    7.8998   -8.4483    0.0000 C   0  0  0  0  0  0  0  0  0  0  0  0
    7.1853   -8.0358    0.0000 C   0  0  0  0  0  0  0  0  0  0  0  0
    6.4709   -8.4483    0.0000 C   0  0  0  0  0  0  0  0  0  0  0  0
    6.4709   -9.2733    0.0000 C   0  0  0  0  0  0  0  0  0  0  0  0
    7.1853   -9.6858    0.0000 C   0  0  0  0  0  0  0  0  0  0  0  0
    7.8998   -9.2733    0.0000 C   0  0  0  0  0  0  0  0  0  0  0  0
    6.9683   -8.6780    0.0000 C   0  0  0  0  0  0  0  0  0  0  0  0
    5.7564   -9.6858    0.0000 C   0  0  0  0  0  0  0  0  0  0  0  0
    5.7564   -8.0358    0.0000 C   0  0  0  0  0  0  0  0  0  0  0  0
    7.1853   -7.2108    0.0000 C   0  0  0  0  0  0  0  0  0  0  0  0
    8.3123   -7.7338    0.0000 C   0  0  0  0  0  0  0  0  0  0  0  0
  1  2  1  0  0  0  0
  2  3  1  0  0  0  0
  3  4  2  0  0  0  0
  4  5  1  0  0  0  0
  5  6  1  0  0  0  0
  6  7  1  0  0  0  0
  1  7  1  0  0  0  0
  1  8  1  0  0  0  0
  8  5  1  0  0  0  0
  2  7  1  0  0  0  0
  5  9  1  0  0  0  0
  4 10  1  0  0  0  0
  3 11  1  0  0  0  0
  2 12  1  0  0  0  0
M  END
>  <cdx:fragmentId>
5

$$$$
