303083.cdx
  Mrv1902 05222410182D          

 16 18  0  0  0  0            999 V2000
    7.9283   -7.0785    0.0000 C   0  0  0  0  0  0  0  0  0  0  0  0
    8.6428   -6.6660    0.0000 C   0  0  0  0  0  0  0  0  0  0  0  0
    9.3572   -7.0785    0.0000 C   0  0  0  0  0  0  0  0  0  0  0  0
    9.3572   -7.9035    0.0000 C   0  0  0  0  0  0  0  0  0  0  0  0
    8.6428   -8.3160    0.0000 C   0  0  0  0  0  0  0  0  0  0  0  0
    7.9283   -7.9035    0.0000 C   0  0  0  0  0  0  0  0  0  0  0  0
    7.2138   -8.3160    0.0000 C   0  0  0  0  0  0  0  0  0  0  0  0
    6.4993   -7.9035    0.0000 C   0  0  0  0  0  0  0  0  0  0  0  0
    6.4993   -7.0785    0.0000 C   0  0  0  0  0  0  0  0  0  0  0  0
    7.2138   -6.6660    0.0000 C   0  0  0  0  0  0  0  0  0  0  0  0
    7.3964   -7.5966    0.0000 C   0  0  0  0  0  0  0  0  0  0  0  0
    5.7849   -6.6660    0.0000 O   0  0  0  0  0  0  0  0  0  0  0  0
    7.2138   -5.8410    0.0000 C   0  0  0  0  0  0  0  0  0  0  0  0
    7.9283   -8.7285    0.0000 C   0  0  0  0  0  0  0  0  0  0  0  0
    8.2303   -5.9515    0.0000 C   0  0  0  0  0  0  0  0  0  0  0  0
    9.0553   -5.9515    0.0000 C   0  0  0  0  0  0  0  0  0  0  0  0
  1  2  1  0  0  0  0
  2  3  1  0  0  0  0
  3  4  1  0  0  0  0
  4  5  1  0  0  0  0
  5  6  1  0  0  0  0
  6  7  1  0  0  0  0
  7  8  1  0  0  0  0
  8  9  1  0  0  0  0
  9 10  1  0  0  0  0
  1 10  1  0  0  0  0
  1 11  1  0  0  0  0
 11  7  1  0  0  0  0
  1  6  1  0  0  0  0
  9 12  1  0  0  0  0
 10 13  2  0  0  0  0
  6 14  1  0  0  0  0
  2 15  1  0  0  0  0
  2 16  1  0  0  0  0
M  END
>  <cdx:groupId>
52

>  <cdx:fragmentId>
5

$$$$
