303082.cdx
  Mrv1902 05222410182D          

 24 25  0  0  0  0            999 V2000
    5.6707   -3.8188    0.0000 O   0  0  0  0  0  0  0  0  0  0  0  0
    6.3823   -4.2363    0.0000 C   0  0  1  0  0  0  0  0  0  0  0  0
    6.3766   -5.0613    0.0000 C   0  0  1  0  0  0  0  0  0  0  0  0
    5.6592   -5.4688    0.0000 C   0  0  0  0  0  0  0  0  0  0  0  0
    4.9477   -5.0513    0.0000 C   0  0  0  0  0  0  0  0  0  0  0  0
    4.9534   -4.2263    0.0000 C   0  0  2  0  0  0  0  0  0  0  0  0
    7.0881   -5.4787    0.0000 O   0  0  0  0  0  0  0  0  0  0  0  0
    4.1284   -4.2206    0.0000 C   0  0  0  0  0  0  0  0  0  0  0  0
    6.9657   -3.6529    0.0000 C   0  0  0  0  0  0  0  0  0  0  0  0
    7.2073   -4.2363    0.0000 C   0  0  0  0  0  0  0  0  0  0  0  0
    4.5459   -3.5090    0.0000 C   0  0  0  0  0  0  0  0  0  0  0  0
    3.7209   -3.5033    0.0000 C   0  0  0  0  0  0  0  0  0  0  0  0
    7.1012   -6.3036    0.0000 C   0  0  1  0  0  0  0  0  0  0  0  0
    7.8221   -6.7048    0.0000 C   0  0  1  0  0  0  0  0  0  0  0  0
    7.8351   -7.5297    0.0000 C   0  0  2  0  0  0  0  0  0  0  0  0
    7.1272   -7.9534    0.0000 C   0  0  1  0  0  0  0  0  0  0  0  0
    6.4063   -7.5522    0.0000 C   0  0  2  0  0  0  0  0  0  0  0  0
    6.3933   -6.7273    0.0000 O   0  0  0  0  0  0  0  0  0  0  0  0
    5.6985   -7.9760    0.0000 C   0  0  0  0  0  0  0  0  0  0  0  0
    7.1403   -8.7783    0.0000 O   0  0  0  0  0  0  0  0  0  0  0  0
    8.5560   -7.9308    0.0000 O   0  0  0  0  0  0  0  0  0  0  0  0
    8.5299   -6.2810    0.0000 O   0  0  0  0  0  0  0  0  0  0  0  0
    5.7115   -8.8009    0.0000 O   0  0  0  0  0  0  0  0  0  0  0  0
    7.1735   -4.8477    0.0000 H   0  0  0  0  0  0  0  0  0  0  0  0
  1  2  1  0  0  0  0
  2  3  1  0  0  0  0
  3  4  1  0  0  0  0
  4  5  1  0  0  0  0
  5  6  1  0  0  0  0
  1  6  1  0  0  0  0
  3  7  1  6  0  0  0
  6  8  1  6  0  0  0
  2  9  1  6  0  0  0
  2 10  1  1  0  0  0
 11 12  2  0  0  0  0
  6 11  1  1  0  0  0
 13  7  1  1  0  0  0
 13 14  1  0  0  0  0
 14 15  1  0  0  0  0
 15 16  1  0  0  0  0
 16 17  1  0  0  0  0
 17 18  1  0  0  0  0
 18 13  1  0  0  0  0
 17 19  1  1  0  0  0
 16 20  1  6  0  0  0
 15 21  1  1  0  0  0
 14 22  1  6  0  0  0
 19 23  1  0  0  0  0
  3 24  1  1  0  0  0
M  END
>  <cdx:fragmentId>
74

$$$$
