30309.cdx
  Mrv1902 05222410182D          

 10 11  0  0  0  0            999 V2000
    6.4048   -8.9926    0.0000 C   0  0  0  0  0  0  0  0  0  0  0  0
    7.2457   -9.4713    0.0000 C   0  0  0  0  0  0  0  0  0  0  0  0
    6.9041   -8.2073    0.0000 C   0  0  0  0  0  0  0  0  0  0  0  0
    7.3976   -7.3146    0.0000 C   0  0  0  0  0  0  0  0  0  0  0  0
    8.1154   -7.8810    0.0000 C   0  0  0  0  0  0  0  0  0  0  0  0
    8.9678   -8.1002    0.0000 C   0  0  0  0  0  0  0  0  0  0  0  0
    8.7703   -8.9561    0.0000 C   0  0  0  0  0  0  0  0  0  0  0  0
    8.0026   -8.6546    0.0000 C   0  0  0  0  0  0  0  0  0  0  0  0
    5.6041   -9.1914    0.0000 C   0  0  0  0  0  0  0  0  0  0  0  0
    7.3713  -10.2867    0.0000 C   0  0  0  0  0  0  0  0  0  0  0  0
  2  1  1  0  0  0  0
  3  1  1  0  0  0  0
  8  2  1  0  0  0  0
  5  3  1  0  0  0  0
  5  4  1  0  0  0  0
  6  5  1  0  0  0  0
  7  6  1  0  0  0  0
  8  7  1  0  0  0  0
  4  8  1  0  0  0  0
  1  9  2  0  0  0  0
  2 10  2  0  0  0  0
M  END
>  <cdx:groupId>
816

>  <cdx:fragmentId>
817

$$$$
