303045.cdx
  Mrv1902 05222410202D          

 98109  0  0  0  0            999 V2000
   15.0940  -11.5494    0.0000 C   0  0  1  0  0  0  0  0  0  0  0  0
   15.8084  -11.1369    0.0000 C   0  0  2  0  0  0  0  0  0  0  0  0
   16.5930  -11.3919    0.0000 C   0  0  0  0  0  0  0  0  0  0  0  0
   17.0780  -10.7244    0.0000 C   0  0  2  0  0  0  0  0  0  0  0  0
   17.8626  -10.4695    0.0000 O   0  0  0  0  0  0  0  0  0  0  0  0
   17.8626   -9.6445    0.0000 C   0  0  2  0  0  0  0  0  0  0  0  0
   17.0780   -9.3895    0.0000 C   0  0  2  0  0  0  0  0  0  0  0  0
   16.5930  -10.0570    0.0000 C   0  0  2  0  0  0  0  0  0  0  0  0
   15.8084  -10.3119    0.0000 C   0  0  1  0  0  0  0  0  0  0  0  0
   15.0940   -9.8994    0.0000 C   0  0  0  0  0  0  0  0  0  0  0  0
   14.3795  -10.3119    0.0000 C   0  0  0  0  0  0  0  0  0  0  0  0
   14.3795  -11.1369    0.0000 C   0  0  2  0  0  0  0  0  0  0  0  0
   13.6650  -11.5494    0.0000 C   0  0  1  0  0  0  0  0  0  0  0  0
   12.9505  -11.1369    0.0000 C   0  0  0  0  0  0  0  0  0  0  0  0
   12.2361  -11.5494    0.0000 C   0  0  0  0  0  0  0  0  0  0  0  0
   12.2361  -12.3744    0.0000 C   0  0  1  0  0  0  0  0  0  0  0  0
   12.9505  -12.7869    0.0000 C   0  0  0  0  0  0  0  0  0  0  0  0
   13.6650  -12.3744    0.0000 C   0  0  2  0  0  0  0  0  0  0  0  0
   14.3795  -12.7869    0.0000 C   0  0  0  0  0  0  0  0  0  0  0  0
   15.0940  -12.3744    0.0000 C   0  0  0  0  0  0  0  0  0  0  0  0
   17.7764   -8.8240    0.0000 O   0  0  0  0  0  0  0  0  0  0  0  0
   18.6163   -9.9800    0.0000 C   0  0  0  0  0  0  0  0  0  0  0  0
   19.2837   -9.4951    0.0000 C   0  0  1  0  0  0  0  0  0  0  0  0
   19.1975   -8.6746    0.0000 C   0  0  2  0  0  0  0  0  0  0  0  0
   18.4438   -8.3391    0.0000 C   0  0  0  0  0  0  0  0  0  0  0  0
   13.6650  -10.7244    0.0000 C   0  0  0  0  0  0  0  0  0  0  0  0
   15.8084   -9.4869    0.0000 C   0  0  0  0  0  0  0  0  0  0  0  0
   16.8230   -8.6049    0.0000 C   0  0  0  0  0  0  0  0  0  0  0  0
   19.8649   -8.1897    0.0000 C   0  0  0  0  0  0  0  0  0  0  0  0
   15.0940  -10.7244    0.0000 H   0  0  0  0  0  0  0  0  0  0  0  0
   15.8084  -11.9619    0.0000 H   0  0  0  0  0  0  0  0  0  0  0  0
   17.5629  -11.3919    0.0000 H   0  0  0  0  0  0  0  0  0  0  0  0
   16.2314   -9.3155    0.0000 H   0  0  0  0  0  0  0  0  0  0  0  0
   14.3795  -11.9619    0.0000 H   0  0  0  0  0  0  0  0  0  0  0  0
    8.6639  -12.7580    0.0000 O   0  0  0  0  0  0  0  0  0  0  0  0
    8.6805  -11.1081    0.0000 O   0  0  0  0  0  0  0  0  0  0  0  0
   10.1177  -10.2976    0.0000 C   0  0  0  0  0  0  0  0  0  0  0  0
   11.5216  -12.7869    0.0000 O   0  0  0  0  0  0  0  0  0  0  0  0
   10.1094  -11.1226    0.0000 C   0  0  2  0  0  0  0  0  0  0  0  0
    9.3908  -11.5278    0.0000 C   0  0  1  0  0  0  0  0  0  0  0  0
    9.3825  -12.3528    0.0000 C   0  0  1  0  0  0  0  0  0  0  0  0
   10.0927  -12.7725    0.0000 C   0  0  2  0  0  0  0  0  0  0  0  0
   10.8113  -12.3672    0.0000 C   0  0  1  0  0  0  0  0  0  0  0  0
   10.8197  -11.5423    0.0000 O   0  0  0  0  0  0  0  0  0  0  0  0
   10.0844  -13.5974    0.0000 O   0  0  0  0  0  0  0  0  0  0  0  0
   13.6650  -13.1994    0.0000 H   0  0  0  0  0  0  0  0  0  0  0  0
    9.4075   -9.8779    0.0000 O   0  0  0  0  0  0  0  0  0  0  0  0
    8.2596  -10.3986    0.0000 C   0  0  2  0  0  0  0  0  0  0  0  0
    8.6708   -9.6834    0.0000 O   0  0  0  0  0  0  0  0  0  0  0  0
    8.2571   -8.9697    0.0000 C   0  0  1  0  0  0  0  0  0  0  0  0
    7.4325   -8.9878    0.0000 C   0  0  2  0  0  0  0  0  0  0  0  0
    7.0216   -9.7196    0.0000 C   0  0  1  0  0  0  0  0  0  0  0  0
    7.4350  -10.4167    0.0000 C   0  0  1  0  0  0  0  0  0  0  0  0
    8.6611   -8.2503    0.0000 C   0  0  0  0  0  0  0  0  0  0  0  0
    6.1966   -9.7294    0.0000 O   0  0  0  0  0  0  0  0  0  0  0  0
    7.0079   -8.2804    0.0000 O   0  0  0  0  0  0  0  0  0  0  0  0
    8.2402   -7.5408    0.0000 O   0  0  0  0  0  0  0  0  0  0  0  0
    7.0345  -11.1380    0.0000 O   0  0  0  0  0  0  0  0  0  0  0  0
   20.0374   -9.8307    0.0000 O   0  0  0  0  0  0  0  0  0  0  0  0
   20.1236  -10.6512    0.0000 C   0  0  2  0  0  0  0  0  0  0  0  0
   19.4562  -11.1361    0.0000 O   0  0  0  0  0  0  0  0  0  0  0  0
   19.5424  -11.9566    0.0000 C   0  0  1  0  0  0  0  0  0  0  0  0
   20.2961  -12.2921    0.0000 C   0  0  2  0  0  0  0  0  0  0  0  0
   20.9635  -11.8072    0.0000 C   0  0  1  0  0  0  0  0  0  0  0  0
   20.8773  -10.9867    0.0000 C   0  0  1  0  0  0  0  0  0  0  0  0
   18.8750  -12.4415    0.0000 C   0  0  0  0  0  0  0  0  0  0  0  0
   21.7172  -12.1428    0.0000 O   0  0  0  0  0  0  0  0  0  0  0  0
   18.9612  -13.2620    0.0000 O   0  0  0  0  0  0  0  0  0  0  0  0
   20.3823  -13.1126    0.0000 O   0  0  0  0  0  0  0  0  0  0  0  0
   21.5447  -10.5018    0.0000 O   0  0  0  0  0  0  0  0  0  0  0  0
    6.3256  -11.5600    0.0000 C   0  0  2  0  0  0  0  0  0  0  0  0
    5.7757   -9.0199    0.0000 C   0  0  2  0  0  0  0  0  0  0  0  0
    6.1712   -8.2958    0.0000 O   0  0  0  0  0  0  0  0  0  0  0  0
    5.7419   -7.5913    0.0000 C   0  0  0  0  0  0  0  0  0  0  0  0
    4.9171   -7.5913    0.0000 C   0  0  2  0  0  0  0  0  0  0  0  0
    4.5216   -8.2958    0.0000 C   0  0  1  0  0  0  0  0  0  0  0  0
    4.9509   -9.0199    0.0000 C   0  0  1  0  0  0  0  0  0  0  0  0
    4.5426   -9.7367    0.0000 O   0  0  0  0  0  0  0  0  0  0  0  0
    3.6967   -8.3056    0.0000 O   0  0  0  0  0  0  0  0  0  0  0  0
    4.5003   -6.8794    0.0000 O   0  0  0  0  0  0  0  0  0  0  0  0
    5.6057  -11.1571    0.0000 O   0  0  0  0  0  0  0  0  0  0  0  0
    4.8968  -11.5791    0.0000 C   0  0  0  0  0  0  0  0  0  0  0  0
    4.9078  -12.4040    0.0000 C   0  0  2  0  0  0  0  0  0  0  0  0
    5.6278  -12.8070    0.0000 C   0  0  1  0  0  0  0  0  0  0  0  0
    6.3367  -12.3849    0.0000 C   0  0  1  0  0  0  0  0  0  0  0  0
    7.0566  -12.7879    0.0000 O   0  0  0  0  0  0  0  0  0  0  0  0
    5.6388  -13.6319    0.0000 O   0  0  0  0  0  0  0  0  0  0  0  0
    4.1990  -12.8260    0.0000 O   0  0  0  0  0  0  0  0  0  0  0  0
    9.3658  -14.0027    0.0000 C   0  0  2  0  0  0  0  0  0  0  0  0
    8.6598  -13.5758    0.0000 O   0  0  0  0  0  0  0  0  0  0  0  0
    7.9371  -13.9738    0.0000 C   0  0  2  0  0  0  0  0  0  0  0  0
    7.9371  -14.7987    0.0000 C   0  0  1  0  0  0  0  0  0  0  0  0
    8.6598  -15.2255    0.0000 C   0  0  2  0  0  0  0  0  0  0  0  0
    9.3658  -14.8275    0.0000 C   0  0  1  0  0  0  0  0  0  0  0  0
    7.2206  -15.2076    0.0000 O   0  0  0  0  0  0  0  0  0  0  0  0
    8.6515  -16.0505    0.0000 O   0  0  0  0  0  0  0  0  0  0  0  0
   10.0781  -15.2437    0.0000 O   0  0  0  0  0  0  0  0  0  0  0  0
    7.2269  -13.5541    0.0000 C   0  0  0  0  0  0  0  0  0  0  0  0
 42 45  1  6  0  0  0
 41 35  1  1  0  0  0
 40 36  1  1  0  0  0
 39 37  1  1  0  0  0
 43 38  1  1  0  0  0
 44 39  1  0  0  0  0
 40 39  1  0  0  0  0
 41 40  1  0  0  0  0
 42 41  1  0  0  0  0
 43 42  1  0  0  0  0
 44 43  1  0  0  0  0
  1  2  1  0  0  0  0
  2  3  1  0  0  0  0
  3  4  1  0  0  0  0
  4  5  1  0  0  0  0
  6  5  1  6  0  0  0
  6  7  1  0  0  0  0
  7  8  1  0  0  0  0
  8  9  1  0  0  0  0
  9 10  1  0  0  0  0
 10 11  1  0  0  0  0
 11 12  1  0  0  0  0
 12 13  1  0  0  0  0
 13 14  1  0  0  0  0
 14 15  1  0  0  0  0
 15 16  1  0  0  0  0
 16 17  1  0  0  0  0
 17 18  1  0  0  0  0
 18 19  1  0  0  0  0
 19 20  1  0  0  0  0
  1 20  1  0  0  0  0
  1 12  1  0  0  0  0
 13 18  1  0  0  0  0
  2  9  1  0  0  0  0
  4  8  1  0  0  0  0
 22 23  1  0  0  0  0
 23 24  1  0  0  0  0
 24 25  1  0  0  0  0
 21 25  1  0  0  0  0
  6 21  1  0  0  0  0
  6 22  1  0  0  0  0
 13 26  1  1  0  0  0
  9 27  1  1  0  0  0
  7 28  1  6  0  0  0
 24 29  1  6  0  0  0
 16 38  1  1  0  0  0
  1 30  1  1  0  0  0
  2 31  1  6  0  0  0
  4 32  1  6  0  0  0
  8 33  1  6  0  0  0
 12 34  1  6  0  0  0
 18 46  1  6  0  0  0
 37 47  1  0  0  0  0
 48 36  1  1  0  0  0
 48 49  1  0  0  0  0
 49 50  1  0  0  0  0
 50 51  1  0  0  0  0
 51 52  1  0  0  0  0
 52 53  1  0  0  0  0
 53 48  1  0  0  0  0
 50 54  1  1  0  0  0
 52 55  1  1  0  0  0
 51 56  1  6  0  0  0
 54 57  1  0  0  0  0
 53 58  1  6  0  0  0
 23 59  1  1  0  0  0
 60 59  1  1  0  0  0
 60 61  1  0  0  0  0
 61 62  1  0  0  0  0
 62 63  1  0  0  0  0
 63 64  1  0  0  0  0
 64 65  1  0  0  0  0
 65 60  1  0  0  0  0
 62 66  1  1  0  0  0
 64 67  1  1  0  0  0
 66 68  1  0  0  0  0
 63 69  1  6  0  0  0
 65 70  1  6  0  0  0
 71 58  1  1  0  0  0
 72 55  1  1  0  0  0
 72 73  1  0  0  0  0
 73 74  1  0  0  0  0
 74 75  1  0  0  0  0
 75 76  1  0  0  0  0
 76 77  1  0  0  0  0
 77 72  1  0  0  0  0
 77 78  1  6  0  0  0
 76 79  1  1  0  0  0
 75 80  1  6  0  0  0
 71 81  1  0  0  0  0
 81 82  1  0  0  0  0
 82 83  1  0  0  0  0
 83 84  1  0  0  0  0
 84 85  1  0  0  0  0
 85 71  1  0  0  0  0
 85 86  1  6  0  0  0
 84 87  1  1  0  0  0
 83 88  1  6  0  0  0
 89 45  1  1  0  0  0
 89 90  1  0  0  0  0
 90 91  1  0  0  0  0
 91 92  1  0  0  0  0
 92 93  1  0  0  0  0
 93 94  1  0  0  0  0
 94 89  1  0  0  0  0
 92 95  1  1  0  0  0
 93 96  1  6  0  0  0
 94 97  1  6  0  0  0
 91 98  1  6  0  0  0
M  END
>  <cdx:fragmentId>
198565

$$$$
