303021.cdx
  Mrv1902 05222410212D          

 23 25  0  0  0  0            999 V2000
    7.9745   -5.0510    0.0000 O   0  0  0  0  0  0  0  0  0  0  0  0
    6.1897   -9.4565    0.0000 C   0  0  0  0  0  0  0  0  0  0  0  0
    5.3648   -9.4465    0.0000 C   0  0  0  0  0  0  0  0  0  0  0  0
    6.5256   -6.6835    0.0000 C   0  0  0  0  0  0  0  0  0  0  0  0
    9.4034   -5.0685    0.0000 C   0  0  0  0  0  0  0  0  0  0  0  0
    9.3933   -5.8934    0.0000 C   0  0  0  0  0  0  0  0  0  0  0  0
   10.1027   -6.3146    0.0000 C   0  0  0  0  0  0  0  0  0  0  0  0
    8.6436   -8.7720    0.0000 O   0  0  0  0  0  0  0  0  0  0  0  0
    6.5054   -8.3333    0.0000 C   0  0  2  0  0  0  0  0  0  0  0  0
    7.2148   -8.7545    0.0000 C   0  0  0  0  0  0  0  0  0  0  0  0
    7.9343   -8.3508    0.0000 C   0  0  0  0  0  0  0  0  0  0  0  0
    7.9443   -7.5258    0.0000 C   0  0  0  0  0  0  0  0  0  0  0  0
    8.6638   -7.1221    0.0000 C   0  0  0  0  0  0  0  0  0  0  0  0
    8.6738   -6.2972    0.0000 C   0  0  0  0  0  0  0  0  0  0  0  0
    7.9645   -5.8760    0.0000 C   0  0  0  0  0  0  0  0  0  0  0  0
    7.2450   -6.2797    0.0000 C   0  0  0  0  0  0  0  0  0  0  0  0
    7.2349   -7.1047    0.0000 C   0  0  0  0  0  0  0  0  0  0  0  0
    6.5155   -7.5084    0.0000 C   0  0  2  0  0  0  0  0  0  0  0  0
    5.8061   -7.0872    0.0000 C   0  0  0  0  0  0  0  0  0  0  0  0
    5.0867   -7.4910    0.0000 C   0  0  0  0  0  0  0  0  0  0  0  0
    5.0766   -8.3159    0.0000 C   0  0  0  0  0  0  0  0  0  0  0  0
    5.7860   -8.7371    0.0000 C   0  0  0  0  0  0  0  0  0  0  0  0
    6.4954   -9.1583    0.0000 H   0  0  0  0  0  0  0  0  0  0  0  0
 15  1  1  0  0  0  0
 22  2  1  0  0  0  0
 22  3  1  0  0  0  0
 18  4  1  1  0  0  0
 14  6  1  0  0  0  0
  6  5  1  0  0  0  0
  7  6  1  0  0  0  0
 11  8  2  0  0  0  0
 18  9  1  0  0  0  0
 22  9  1  0  0  0  0
 10  9  1  0  0  0  0
 11 10  1  0  0  0  0
 12 11  1  0  0  0  0
 17 12  2  0  0  0  0
 13 12  1  0  0  0  0
 14 13  2  0  0  0  0
 15 14  1  0  0  0  0
 16 15  2  0  0  0  0
 17 16  1  0  0  0  0
 18 17  1  0  0  0  0
 19 18  1  0  0  0  0
 20 19  1  0  0  0  0
 21 20  1  0  0  0  0
 22 21  1  0  0  0  0
  9 23  1  6  0  0  0
M  END
>  <cdx:fragmentId>
9

$$$$
