30300.cdx
  Mrv1902 05222410262D          

 15 17  0  0  0  0            999 V2000
    7.5494   -8.3965    0.0000 C   0  0  0  0  0  0  0  0  0  0  0  0
    8.2639   -7.9840    0.0000 C   0  0  0  0  0  0  0  0  0  0  0  0
    8.9784   -8.3965    0.0000 C   0  0  0  0  0  0  0  0  0  0  0  0
    8.9784   -9.2215    0.0000 C   0  0  0  0  0  0  0  0  0  0  0  0
    8.2639   -9.6340    0.0000 C   0  0  0  0  0  0  0  0  0  0  0  0
    7.5494   -9.2215    0.0000 C   0  0  0  0  0  0  0  0  0  0  0  0
    6.8350   -9.6340    0.0000 C   0  0  0  0  0  0  0  0  0  0  0  0
    6.1205   -9.2215    0.0000 C   0  0  0  0  0  0  0  0  0  0  0  0
    6.3960   -8.6684    0.0000 C   0  0  0  0  0  0  0  0  0  0  0  0
    6.9318   -8.3590    0.0000 C   0  0  0  0  0  0  0  0  0  0  0  0
    6.8350   -7.9840    0.0000 C   0  0  0  0  0  0  0  0  0  0  0  0
    6.1205   -8.3965    0.0000 C   0  0  0  0  0  0  0  0  0  0  0  0
    5.4060   -9.6340    0.0000 C   0  0  0  0  0  0  0  0  0  0  0  0
    7.8514   -7.2695    0.0000 C   0  0  0  0  0  0  0  0  0  0  0  0
    8.6764   -7.2695    0.0000 C   0  0  0  0  0  0  0  0  0  0  0  0
  1  2  1  0  0  0  0
  2  3  1  0  0  0  0
  3  4  1  0  0  0  0
  4  5  1  0  0  0  0
  5  6  2  0  0  0  0
  6  7  1  0  0  0  0
  7  8  1  0  0  0  0
  8  9  1  0  0  0  0
  9 10  1  0  0  0  0
 11 12  1  0  0  0  0
  1 10  1  0  0  0  0
  1 11  1  0  0  0  0
 12  8  1  0  0  0  0
  1  6  1  0  0  0  0
  8 13  1  0  0  0  0
  2 14  1  0  0  0  0
  2 15  1  0  0  0  0
M  END
>  <cdx:fragmentId>
5

$$$$
