303033.cdx
  Mrv1902 05222410222D          

 88 94  0  0  0  0            999 V2000
    7.7569   -1.6280    0.0000 O   0  0  0  0  0  0  0  0  0  0  0  0
    6.3280   -1.6280    0.0000 O   0  0  0  0  0  0  0  0  0  0  0  0
    7.0424   -5.3405    0.0000 O   0  0  0  0  0  0  0  0  0  0  0  0
    5.6135   -2.8655    0.0000 O   0  0  0  0  0  0  0  0  0  0  0  0
    5.6135   -4.5155    0.0000 O   0  0  0  0  0  0  0  0  0  0  0  0
    7.0424   -2.0405    0.0000 C   0  0  0  0  0  0  0  0  0  0  0  0
    7.7569   -3.2780    0.0000 O   0  0  0  0  0  0  0  0  0  0  0  0
    7.0424   -2.8655    0.0000 C   0  0  1  0  0  0  0  0  0  0  0  0
    6.3280   -3.2780    0.0000 C   0  0  2  0  0  0  0  0  0  0  0  0
    6.3280   -4.1030    0.0000 C   0  0  1  0  0  0  0  0  0  0  0  0
    7.0424   -4.5155    0.0000 C   0  0  2  0  0  0  0  0  0  0  0  0
    7.7569   -4.1030    0.0000 C   0  0  2  0  0  0  0  0  0  0  0  0
   10.6075   -5.7655    0.0000 C   0  0  0  0  0  0  0  0  0  0  0  0
   10.6123   -4.9405    0.0000 C   0  0  0  0  0  0  0  0  0  0  0  0
    9.9003   -4.5238    0.0000 C   0  0  0  0  0  0  0  0  0  0  0  0
   11.3292   -4.5322    0.0000 C   0  0  0  0  0  0  0  0  0  0  0  0
   11.3340   -3.7072    0.0000 C   0  0  0  0  0  0  0  0  0  0  0  0
   10.6220   -3.2905    0.0000 C   0  0  0  0  0  0  0  0  0  0  0  0
   10.6268   -2.4655    0.0000 C   0  0  0  0  0  0  0  0  0  0  0  0
    9.9147   -2.0489    0.0000 C   0  0  0  0  0  0  0  0  0  0  0  0
   11.3436   -2.0572    0.0000 C   0  0  0  0  0  0  0  0  0  0  0  0
    9.1834   -4.9322    0.0000 C   0  0  0  0  0  0  0  0  0  0  0  0
    8.4714   -4.5155    0.0000 O   0  0  0  0  0  0  0  0  0  0  0  0
    6.2578   -5.5955    0.0000 C   0  0  2  0  0  0  0  0  0  0  0  0
    5.5903   -5.1106    0.0000 O   0  0  0  0  0  0  0  0  0  0  0  0
    4.9230   -5.5956    0.0000 C   0  0  1  0  0  0  0  0  0  0  0  0
    5.1780   -6.3802    0.0000 C   0  0  1  0  0  0  0  0  0  0  0  0
    6.0030   -6.3802    0.0000 C   0  0  1  0  0  0  0  0  0  0  0  0
    4.1383   -5.3408    0.0000 C   0  0  2  0  0  0  0  0  0  0  0  0
    3.5253   -5.8929    0.0000 O   0  0  0  0  0  0  0  0  0  0  0  0
    3.9667   -4.5338    0.0000 C   0  0  0  0  0  0  0  0  0  0  0  0
    3.1821   -4.2789    0.0000 O   0  0  0  0  0  0  0  0  0  0  0  0
    4.8797   -4.7718    0.0000 H   0  0  0  0  0  0  0  0  0  0  0  0
    4.6931   -7.0477    0.0000 O   0  0  0  0  0  0  0  0  0  0  0  0
    6.4879   -7.0476    0.0000 O   0  0  0  0  0  0  0  0  0  0  0  0
    5.9968   -7.7104    0.0000 C   0  0  2  0  0  0  0  0  0  0  0  0
    5.1719   -7.7027    0.0000 O   0  0  0  0  0  0  0  0  0  0  0  0
    4.9096   -8.4850    0.0000 C   0  0  1  0  0  0  0  0  0  0  0  0
    5.5725   -8.9761    0.0000 C   0  0  1  0  0  0  0  0  0  0  0  0
    6.2444   -8.4974    0.0000 C   0  0  1  0  0  0  0  0  0  0  0  0
    4.1227   -8.7326    0.0000 C   0  0  1  0  0  0  0  0  0  0  0  0
    5.5648   -9.8010    0.0000 O   0  0  0  0  0  0  0  0  0  0  0  0
    7.0266   -8.7596    0.0000 O   0  0  0  0  0  0  0  0  0  0  0  0
    3.5147   -8.1748    0.0000 C   0  0  0  0  0  0  0  0  0  0  0  0
    3.9436   -9.5379    0.0000 O   0  0  0  0  0  0  0  0  0  0  0  0
    2.7278   -8.4225    0.0000 O   0  0  0  0  0  0  0  0  0  0  0  0
    4.2733   -7.9598    0.0000 H   0  0  0  0  0  0  0  0  0  0  0  0
    7.0456   -9.5844    0.0000 C   0  0  2  0  0  0  0  0  0  0  0  0
    6.3408  -10.0132    0.0000 O   0  0  0  0  0  0  0  0  0  0  0  0
    6.3597  -10.8380    0.0000 C   0  0  1  0  0  0  0  0  0  0  0  0
    7.0834  -11.2340    0.0000 C   0  0  2  0  0  0  0  0  0  0  0  0
    7.7883  -10.8052    0.0000 C   0  0  1  0  0  0  0  0  0  0  0  0
    7.7693   -9.9804    0.0000 C   0  0  1  0  0  0  0  0  0  0  0  0
    5.6549  -11.2668    0.0000 C   0  0  0  0  0  0  0  0  0  0  0  0
    8.5120  -11.2012    0.0000 O   0  0  0  0  0  0  0  0  0  0  0  0
    5.6738  -12.0916    0.0000 O   0  0  0  0  0  0  0  0  0  0  0  0
    7.1024  -12.0588    0.0000 O   0  0  0  0  0  0  0  0  0  0  0  0
    8.4741   -9.5516    0.0000 O   0  0  0  0  0  0  0  0  0  0  0  0
    9.1924   -9.9574    0.0000 C   0  0  2  0  0  0  0  0  0  0  0  0
    9.2070  -10.7823    0.0000 O   0  0  0  0  0  0  0  0  0  0  0  0
    9.9287  -11.1821    0.0000 C   0  0  1  0  0  0  0  0  0  0  0  0
   10.6357  -10.7570    0.0000 C   0  0  2  0  0  0  0  0  0  0  0  0
   10.6416   -9.9323    0.0000 C   0  0  1  0  0  0  0  0  0  0  0  0
    9.9404   -9.5327    0.0000 C   0  0  1  0  0  0  0  0  0  0  0  0
    9.9433  -12.0070    0.0000 C   0  0  0  0  0  0  0  0  0  0  0  0
   11.3564   -9.5204    0.0000 O   0  0  0  0  0  0  0  0  0  0  0  0
    9.9410   -8.7077    0.0000 O   0  0  0  0  0  0  0  0  0  0  0  0
   11.3524  -11.1658    0.0000 O   0  0  0  0  0  0  0  0  0  0  0  0
   10.6649  -12.4068    0.0000 O   0  0  0  0  0  0  0  0  0  0  0  0
   10.6558   -8.2957    0.0000 C   0  0  2  0  0  0  0  0  0  0  0  0
   11.3696   -8.7093    0.0000 O   0  0  0  0  0  0  0  0  0  0  0  0
   12.0847   -8.2957    0.0000 C   0  0  1  0  0  0  0  0  0  0  0  0
   12.0847   -7.4707    0.0000 C   0  0  2  0  0  0  0  0  0  0  0  0
   11.3696   -7.0571    0.0000 C   0  0  1  0  0  0  0  0  0  0  0  0
   10.6558   -7.4707    0.0000 C   0  0  1  0  0  0  0  0  0  0  0  0
   12.7994   -8.7079    0.0000 C   0  0  0  0  0  0  0  0  0  0  0  0
   11.3693   -6.2321    0.0000 O   0  0  0  0  0  0  0  0  0  0  0  0
    9.9410   -7.0588    0.0000 O   0  0  0  0  0  0  0  0  0  0  0  0
   12.7994   -7.0585    0.0000 O   0  0  0  0  0  0  0  0  0  0  0  0
   13.5137   -8.2952    0.0000 O   0  0  0  0  0  0  0  0  0  0  0  0
    9.2269   -7.4718    0.0000 C   0  0  0  0  0  0  0  0  0  0  0  0
    8.5121   -7.0599    0.0000 C   0  0  0  0  0  0  0  0  0  0  0  0
    9.2275   -8.2968    0.0000 O   0  0  0  0  0  0  0  0  0  0  0  0
    8.5111   -6.2349    0.0000 C   0  0  0  0  0  0  0  0  0  0  0  0
    7.7962   -5.8232    0.0000 C   0  0  0  0  0  0  0  0  0  0  0  0
    7.0822   -6.2349    0.0000 C   0  0  0  0  0  0  0  0  0  0  0  0
    7.0822   -7.0599    0.0000 C   0  0  0  0  0  0  0  0  0  0  0  0
    7.7962   -7.4715    0.0000 C   0  0  0  0  0  0  0  0  0  0  0  0
  6  1  2  0  0  0  0
  6  2  1  0  0  0  0
 11  3  1  6  0  0  0
  9  4  1  6  0  0  0
 10  5  1  1  0  0  0
  8  6  1  1  0  0  0
  7 12  1  0  0  0  0
  8  7  1  0  0  0  0
  9  8  1  0  0  0  0
 10  9  1  0  0  0  0
 11 10  1  0  0  0  0
 12 11  1  0  0  0  0
 12 23  1  1  0  0  0
 13 14  1  0  0  0  0
 14 15  1  0  0  0  0
 14 16  1  0  0  0  0
 16 17  1  0  0  0  0
 17 18  1  0  0  0  0
 18 19  1  0  0  0  0
 19 20  1  0  0  0  0
 19 21  1  0  0  0  0
 15 22  1  0  0  0  0
 22 23  1  0  0  0  0
 24  3  1  1  0  0  0
 24 25  1  0  0  0  0
 25 26  1  0  0  0  0
 26 27  1  0  0  0  0
 27 28  1  0  0  0  0
 28 24  1  0  0  0  0
 26 29  1  0  0  0  0
 29 30  1  6  0  0  0
 29 31  1  0  0  0  0
 31 32  1  0  0  0  0
 26 33  1  6  0  0  0
 27 34  1  1  0  0  0
 28 35  1  6  0  0  0
 36 35  1  1  0  0  0
 36 37  1  0  0  0  0
 37 38  1  0  0  0  0
 38 39  1  0  0  0  0
 39 40  1  0  0  0  0
 40 36  1  0  0  0  0
 38 41  1  0  0  0  0
 39 42  1  1  0  0  0
 40 43  1  6  0  0  0
 41 44  1  0  0  0  0
 41 45  1  6  0  0  0
 44 46  1  0  0  0  0
 38 47  1  6  0  0  0
 48 43  1  1  0  0  0
 48 49  1  0  0  0  0
 49 50  1  0  0  0  0
 50 51  1  0  0  0  0
 51 52  1  0  0  0  0
 52 53  1  0  0  0  0
 53 48  1  0  0  0  0
 50 54  1  1  0  0  0
 52 55  1  1  0  0  0
 54 56  1  0  0  0  0
 51 57  1  6  0  0  0
 53 58  1  6  0  0  0
 59 58  1  1  0  0  0
 59 60  1  0  0  0  0
 60 61  1  0  0  0  0
 61 62  1  0  0  0  0
 62 63  1  0  0  0  0
 63 64  1  0  0  0  0
 64 59  1  0  0  0  0
 61 65  1  1  0  0  0
 63 66  1  1  0  0  0
 64 67  1  6  0  0  0
 62 68  1  6  0  0  0
 65 69  1  0  0  0  0
 70 67  1  1  0  0  0
 70 71  1  0  0  0  0
 71 72  1  0  0  0  0
 72 73  1  0  0  0  0
 73 74  1  0  0  0  0
 74 75  1  0  0  0  0
 75 70  1  0  0  0  0
 72 76  1  1  0  0  0
 74 77  1  1  0  0  0
 75 78  1  6  0  0  0
 73 79  1  6  0  0  0
 76 80  1  0  0  0  0
 78 81  1  0  0  0  0
 81 82  1  0  0  0  0
 81 83  2  0  0  0  0
 82 84  2  0  0  0  0
 84 85  1  0  0  0  0
 85 86  2  0  0  0  0
 86 87  1  0  0  0  0
 87 88  2  0  0  0  0
 88 82  1  0  0  0  0
M  END
>  <cdx:fragmentId>
277

$$$$
