303030.cdx
  Mrv1902 05222410222D          

 38 41  0  0  0  0            999 V2000
    8.7045   -6.5603    0.0000 O   0  0  0  0  0  0  0  0  0  0  0  0
    8.7045   -5.7353    0.0000 C   0  0  2  0  0  0  0  0  0  0  0  0
    9.4189   -5.3228    0.0000 C   0  0  1  0  0  0  0  0  0  0  0  0
   10.1334   -5.7353    0.0000 C   0  0  1  0  0  0  0  0  0  0  0  0
   10.1334   -6.5603    0.0000 C   0  0  1  0  0  0  0  0  0  0  0  0
    9.4189   -6.9728    0.0000 C   0  0  1  0  0  0  0  0  0  0  0  0
    9.4189   -4.4978    0.0000 O   0  0  0  0  0  0  0  0  0  0  0  0
   10.8479   -5.3228    0.0000 O   0  0  0  0  0  0  0  0  0  0  0  0
   10.8479   -6.9728    0.0000 O   0  0  0  0  0  0  0  0  0  0  0  0
    9.4189   -7.7978    0.0000 C   0  0  0  0  0  0  0  0  0  0  0  0
   10.1334   -8.2103    0.0000 O   0  0  0  0  0  0  0  0  0  0  0  0
    7.9900   -5.3228    0.0000 O   0  0  0  0  0  0  0  0  0  0  0  0
    7.2755   -5.7353    0.0000 C   0  0  2  0  0  0  0  0  0  0  0  0
    7.6880   -7.8298    0.0000 O   0  0  0  0  0  0  0  0  0  0  0  0
    7.9430   -7.0452    0.0000 C   0  0  0  0  0  0  0  0  0  0  0  0
    7.2755   -6.5603    0.0000 C   0  0  2  0  0  0  0  0  0  0  0  0
    6.6081   -7.0452    0.0000 C   0  0  1  0  0  0  0  0  0  0  0  0
    6.8630   -7.8298    0.0000 C   0  0  1  0  0  0  0  0  0  0  0  0
    5.8235   -6.7903    0.0000 C   0  0  0  0  0  0  0  0  0  0  0  0
    5.2401   -7.3736    0.0000 O   0  0  0  0  0  0  0  0  0  0  0  0
    6.3781   -8.4973    0.0000 C   0  0  0  0  0  0  0  0  0  0  0  0
    5.5576   -8.4110    0.0000 C   0  0  0  0  0  0  0  0  0  0  0  0
    5.0727   -9.0785    0.0000 C   0  0  0  0  0  0  0  0  0  0  0  0
    5.4082   -9.8321    0.0000 C   0  0  0  0  0  0  0  0  0  0  0  0
    6.2287   -9.9184    0.0000 C   0  0  0  0  0  0  0  0  0  0  0  0
    6.7136   -9.2509    0.0000 C   0  0  0  0  0  0  0  0  0  0  0  0
    4.2522   -8.9922    0.0000 O   0  0  0  0  0  0  0  0  0  0  0  0
    3.7673   -9.6597    0.0000 C   0  0  0  0  0  0  0  0  0  0  0  0
    4.9233  -10.4996    0.0000 O   0  0  0  0  0  0  0  0  0  0  0  0
    6.5610   -5.3228    0.0000 C   0  0  0  0  0  0  0  0  0  0  0  0
    5.8466   -5.7353    0.0000 C   0  0  0  0  0  0  0  0  0  0  0  0
    5.1321   -5.3228    0.0000 C   0  0  0  0  0  0  0  0  0  0  0  0
    5.1321   -4.4978    0.0000 C   0  0  0  0  0  0  0  0  0  0  0  0
    5.8466   -4.0853    0.0000 C   0  0  0  0  0  0  0  0  0  0  0  0
    6.5610   -4.4978    0.0000 C   0  0  0  0  0  0  0  0  0  0  0  0
    4.4176   -5.7353    0.0000 O   0  0  0  0  0  0  0  0  0  0  0  0
    3.7032   -5.3228    0.0000 C   0  0  0  0  0  0  0  0  0  0  0  0
    4.4176   -4.0853    0.0000 O   0  0  0  0  0  0  0  0  0  0  0  0
  1  2  1  0  0  0  0
  2  3  1  0  0  0  0
  3  4  1  0  0  0  0
  4  5  1  0  0  0  0
  5  6  1  0  0  0  0
  1  6  1  0  0  0  0
  3  7  1  6  0  0  0
  4  8  1  6  0  0  0
  5  9  1  6  0  0  0
 10 11  1  0  0  0  0
  6 10  1  1  0  0  0
 13 12  1  6  0  0  0
 14 15  1  0  0  0  0
 16 15  1  6  0  0  0
 16 17  1  0  0  0  0
 17 18  1  0  0  0  0
 14 18  1  0  0  0  0
 19 20  1  0  0  0  0
 17 19  1  1  0  0  0
 21 22  1  0  0  0  0
 22 23  2  0  0  0  0
 23 24  1  0  0  0  0
 24 25  2  0  0  0  0
 25 26  1  0  0  0  0
 21 26  2  0  0  0  0
 27 28  1  0  0  0  0
 23 27  1  0  0  0  0
 24 29  1  0  0  0  0
 18 21  1  6  0  0  0
 13 16  1  0  0  0  0
 30 31  1  0  0  0  0
 31 32  2  0  0  0  0
 32 33  1  0  0  0  0
 33 34  2  0  0  0  0
 34 35  1  0  0  0  0
 30 35  2  0  0  0  0
 36 37  1  0  0  0  0
 32 36  1  0  0  0  0
 33 38  1  0  0  0  0
 13 30  1  0  0  0  0
  2 12  1  1  0  0  0
M  END
>  <cdx:groupId>
119

>  <cdx:fragmentId>
45

$$$$
