303051.cdx
  Mrv1902 05222410202D          

 31 30  0  0  0  0            999 V2000
   17.4545   -7.9607    0.0000 C   0  0  0  0  0  0  0  0  0  0  0  0
   16.7400   -8.3732    0.0000 C   0  0  0  0  0  0  0  0  0  0  0  0
   16.0255   -7.9607    0.0000 C   0  0  0  0  0  0  0  0  0  0  0  0
   15.3110   -8.3732    0.0000 C   0  0  0  0  0  0  0  0  0  0  0  0
   14.5966   -7.9607    0.0000 C   0  0  0  0  0  0  0  0  0  0  0  0
   13.8821   -8.3732    0.0000 C   0  0  0  0  0  0  0  0  0  0  0  0
   13.1676   -7.9607    0.0000 C   0  0  0  0  0  0  0  0  0  0  0  0
   12.4532   -8.3732    0.0000 C   0  0  0  0  0  0  0  0  0  0  0  0
   11.7387   -7.9607    0.0000 C   0  0  0  0  0  0  0  0  0  0  0  0
   11.0242   -8.3732    0.0000 C   0  0  0  0  0  0  0  0  0  0  0  0
   10.3097   -7.9607    0.0000 C   0  0  0  0  0  0  0  0  0  0  0  0
    9.5953   -8.3732    0.0000 C   0  0  0  0  0  0  0  0  0  0  0  0
    8.8808   -7.9607    0.0000 C   0  0  0  0  0  0  0  0  0  0  0  0
    8.1663   -8.3732    0.0000 C   0  0  0  0  0  0  0  0  0  0  0  0
    7.4519   -7.9607    0.0000 C   0  0  0  0  0  0  0  0  0  0  0  0
    6.7374   -8.3732    0.0000 C   0  0  0  0  0  0  0  0  0  0  0  0
    6.0229   -7.9607    0.0000 C   0  0  0  0  0  0  0  0  0  0  0  0
    5.3085   -8.3732    0.0000 C   0  0  0  0  0  0  0  0  0  0  0  0
    4.5940   -7.9607    0.0000 C   0  0  0  0  0  0  0  0  0  0  0  0
    3.8795   -8.3732    0.0000 C   0  0  0  0  0  0  0  0  0  0  0  0
    3.1650   -7.9607    0.0000 C   0  0  0  0  0  0  0  0  0  0  0  0
    2.4506   -8.3732    0.0000 C   0  0  0  0  0  0  0  0  0  0  0  0
    1.7361   -7.9607    0.0000 C   0  0  0  0  0  0  0  0  0  0  0  0
    1.0216   -8.3732    0.0000 C   0  0  0  0  0  0  0  0  0  0  0  0
   17.4545   -7.1357    0.0000 O   0  0  0  0  0  0  0  0  0  0  0  0
   18.1689   -8.3732    0.0000 O   0  0  0  0  0  0  0  0  0  0  0  0
   18.8834   -7.9607    0.0000 C   0  0  0  0  0  0  0  0  0  0  0  0
   19.5979   -8.3732    0.0000 C   0  0  0  0  0  0  0  0  0  0  0  0
   20.3123   -7.9607    0.0000 C   0  0  0  0  0  0  0  0  0  0  0  0
   19.5979   -9.1982    0.0000 O   0  0  0  0  0  0  0  0  0  0  0  0
   21.0268   -8.3732    0.0000 O   0  0  0  0  0  0  0  0  0  0  0  0
  1  2  1  0  0  0  0
  2  3  1  0  0  0  0
  3  4  1  0  0  0  0
  4  5  1  0  0  0  0
  5  6  1  0  0  0  0
  6  7  1  0  0  0  0
  7  8  1  0  0  0  0
  8  9  1  0  0  0  0
  9 10  1  0  0  0  0
 10 11  1  0  0  0  0
 11 12  1  0  0  0  0
 12 13  1  0  0  0  0
 13 14  1  0  0  0  0
 14 15  1  0  0  0  0
 15 16  1  0  0  0  0
 16 17  1  0  0  0  0
 17 18  1  0  0  0  0
 18 19  1  0  0  0  0
 19 20  1  0  0  0  0
 20 21  1  0  0  0  0
 21 22  1  0  0  0  0
 22 23  1  0  0  0  0
 23 24  1  0  0  0  0
  1 25  2  0  0  0  0
  1 26  1  0  0  0  0
 26 27  1  0  0  0  0
 27 28  1  0  0  0  0
 28 29  1  0  0  0  0
 28 30  1  0  0  0  0
 29 31  1  0  0  0  0
M  END
>  <cdx:groupId>
202

>  <cdx:fragmentId>
128

$$$$
