303056.cdx
  Mrv1902 05222410192D          

 25 26  0  0  0  0            999 V2000
    2.8865   -6.4570    0.0000 O   0  0  0  0  0  0  0  0  0  0  0  0
    4.3280   -8.0960    0.0000 C   0  0  0  0  0  0  0  0  0  0  0  0
    3.6104   -7.6890    0.0000 C   0  0  0  0  0  0  0  0  0  0  0  0
    3.6041   -6.8640    0.0000 C   0  0  0  0  0  0  0  0  0  0  0  0
    4.3154   -6.4460    0.0000 C   0  0  0  0  0  0  0  0  0  0  0  0
    5.0330   -6.8531    0.0000 C   0  0  0  0  0  0  0  0  0  0  0  0
    5.0393   -7.6780    0.0000 C   0  0  0  0  0  0  0  0  0  0  0  0
   12.1775   -6.7984    0.0000 O   0  0  0  0  0  0  0  0  0  0  0  0
   11.4599   -6.3914    0.0000 C   0  0  0  0  0  0  0  0  0  0  0  0
   10.7486   -6.8094    0.0000 C   0  0  0  0  0  0  0  0  0  0  0  0
   10.0310   -6.4023    0.0000 C   0  0  0  0  0  0  0  0  0  0  0  0
    7.1668   -5.5992    0.0000 C   0  0  0  0  0  0  0  0  0  0  0  0
    7.1732   -6.4242    0.0000 O   0  0  0  0  0  0  0  0  0  0  0  0
    8.6147   -8.0632    0.0000 C   0  0  0  0  0  0  0  0  0  0  0  0
    9.3260   -7.6453    0.0000 C   0  0  0  0  0  0  0  0  0  0  0  0
    9.3197   -6.8203    0.0000 C   0  0  0  0  0  0  0  0  0  0  0  0
    8.6021   -6.4133    0.0000 C   0  0  0  0  0  0  0  0  0  0  0  0
    7.8908   -6.8312    0.0000 C   0  0  0  0  0  0  0  0  0  0  0  0
    7.8971   -7.6562    0.0000 C   0  0  0  0  0  0  0  0  0  0  0  0
    7.1858   -8.0741    0.0000 O   0  0  0  0  0  0  0  0  0  0  0  0
    5.7443   -6.4351    0.0000 O   0  0  0  0  0  0  0  0  0  0  0  0
    5.7632   -8.9100    0.0000 O   0  0  0  0  0  0  0  0  0  0  0  0
    6.4619   -6.8421    0.0000 C   0  0  0  0  0  0  0  0  0  0  0  0
    6.4682   -7.6671    0.0000 C   0  0  1  0  0  0  0  0  0  0  0  0
    5.7569   -8.0851    0.0000 C   0  0  1  0  0  0  0  0  0  0  0  0
 25  7  1  0  0  0  0
  4  1  1  0  0  0  0
  7  2  2  0  0  0  0
  3  2  1  0  0  0  0
  4  3  2  0  0  0  0
  5  4  1  0  0  0  0
  6  5  2  0  0  0  0
  7  6  1  0  0  0  0
 24 20  1  6  0  0  0
 16 11  1  0  0  0  0
 10  9  1  0  0  0  0
  9  8  2  0  0  0  0
 11 10  2  0  0  0  0
 18 13  1  0  0  0  0
 13 12  1  0  0  0  0
 20 19  1  0  0  0  0
 19 14  2  0  0  0  0
 15 14  1  0  0  0  0
 16 15  2  0  0  0  0
 17 16  1  0  0  0  0
 18 17  2  0  0  0  0
 19 18  1  0  0  0  0
 23 21  1  0  0  0  0
 25 22  1  6  0  0  0
 24 23  1  0  0  0  0
 25 24  1  0  0  0  0
M  END
>  <cdx:groupId>
78

>  <cdx:fragmentId>
17

$$$$
