30308.cdx
  Mrv1902 05222410182D          

 13 14  0  0  0  0            999 V2000
    4.8931   -7.7676    0.0000 C   0  0  0  0  0  0  0  0  0  0  0  0
    4.8931   -8.5926    0.0000 C   0  0  0  0  0  0  0  0  0  0  0  0
    5.6075   -9.0051    0.0000 C   0  0  0  0  0  0  0  0  0  0  0  0
    6.3220   -8.5926    0.0000 C   0  0  0  0  0  0  0  0  0  0  0  0
    6.3220   -7.7676    0.0000 C   0  0  0  0  0  0  0  0  0  0  0  0
    5.6075   -7.3551    0.0000 C   0  0  0  0  0  0  0  0  0  0  0  0
    7.0365   -9.0051    0.0000 C   0  0  0  0  0  0  0  0  0  0  0  0
    7.7509   -8.5926    0.0000 C   0  0  0  0  0  0  0  0  0  0  0  0
    7.7509   -7.7676    0.0000 C   0  0  0  0  0  0  0  0  0  0  0  0
    7.0365   -7.3551    0.0000 C   0  0  0  0  0  0  0  0  0  0  0  0
    4.1786   -7.3551    0.0000 C   0  0  0  0  0  0  0  0  0  0  0  0
    8.4654   -7.3551    0.0000 C   0  0  0  0  0  0  0  0  0  0  0  0
    8.4654   -9.0051    0.0000 C   0  0  0  0  0  0  0  0  0  0  0  0
  1  2  2  0  0  0  0
  2  3  1  0  0  0  0
  3  4  2  0  0  0  0
  4  5  1  0  0  0  0
  5  6  2  0  0  0  0
  6  1  1  0  0  0  0
  4  7  1  0  0  0  0
  7  8  2  0  0  0  0
  8  9  1  0  0  0  0
  9 10  2  0  0  0  0
 10  5  1  0  0  0  0
  1 11  1  0  0  0  0
  9 12  1  0  0  0  0
  8 13  1  0  0  0  0
M  END
>  <cdx:fragmentId>
5

$$$$
