303074.cdx
  Mrv1902 05222410262D          

 32 34  0  0  0  0            999 V2000
   10.4324   -8.1174    0.0000 C   0  0  0  0  0  0  0  0  0  0  0  0
   11.1468   -8.5299    0.0000 C   0  0  0  0  0  0  0  0  0  0  0  0
    9.0034   -8.1174    0.0000 C   0  0  0  0  0  0  0  0  0  0  0  0
    9.7179   -8.5299    0.0000 C   0  0  0  0  0  0  0  0  0  0  0  0
    9.7179   -9.3549    0.0000 C   0  0  0  0  0  0  0  0  0  0  0  0
    9.0034   -9.7674    0.0000 C   0  0  0  0  0  0  0  0  0  0  0  0
    8.2890   -9.3549    0.0000 C   0  0  0  0  0  0  0  0  0  0  0  0
    7.5745   -9.7674    0.0000 C   0  0  0  0  0  0  0  0  0  0  0  0
    6.8600   -9.3549    0.0000 C   0  0  0  0  0  0  0  0  0  0  0  0
    6.8600   -8.5299    0.0000 C   0  0  0  0  0  0  0  0  0  0  0  0
    7.5745   -8.1174    0.0000 C   0  0  0  0  0  0  0  0  0  0  0  0
    8.2890   -8.5299    0.0000 C   0  0  0  0  0  0  0  0  0  0  0  0
    7.5745   -7.2924    0.0000 O   0  0  0  0  0  0  0  0  0  0  0  0
    6.1455   -7.2924    0.0000 O   0  0  0  0  0  0  0  0  0  0  0  0
    6.8600   -6.8799    0.0000 C   0  0  2  0  0  0  0  0  0  0  0  0
    6.8600   -6.0549    0.0000 C   0  0  1  0  0  0  0  0  0  0  0  0
    6.1455   -5.6424    0.0000 C   0  0  2  0  0  0  0  0  0  0  0  0
    5.4311   -6.0549    0.0000 C   0  0  1  0  0  0  0  0  0  0  0  0
    5.4311   -6.8799    0.0000 C   0  0  1  0  0  0  0  0  0  0  0  0
    4.7166   -7.2924    0.0000 C   0  0  0  0  0  0  0  0  0  0  0  0
    4.0021   -6.8799    0.0000 O   0  0  0  0  0  0  0  0  0  0  0  0
    4.7166   -5.6424    0.0000 O   0  0  0  0  0  0  0  0  0  0  0  0
    6.1455   -4.8174    0.0000 O   0  0  0  0  0  0  0  0  0  0  0  0
    7.5745   -5.6424    0.0000 O   0  0  0  0  0  0  0  0  0  0  0  0
   10.4324   -9.7674    0.0000 C   0  0  0  0  0  0  0  0  0  0  0  0
    6.1455   -9.7674    0.0000 O   0  0  0  0  0  0  0  0  0  0  0  0
    5.4311   -9.3549    0.0000 C   0  0  0  0  0  0  0  0  0  0  0  0
    9.0034   -7.2924    0.0000 O   0  0  0  0  0  0  0  0  0  0  0  0
   10.4324   -7.2924    0.0000 O   0  0  0  0  0  0  0  0  0  0  0  0
    4.7166   -8.1174    0.0000 S   0  0  0  0  0  0  0  0  0  0  0  0
    4.0021   -8.5299    0.0000 O   0  0  0  0  0  0  0  0  0  0  0  0
    5.4311   -8.5299    0.0000 O   0  0  0  0  0  0  0  0  0  0  0  0
  1  2  1  0  0  0  0
  3  4  1  0  0  0  0
  4  5  2  0  0  0  0
  5  6  1  0  0  0  0
  6  7  2  0  0  0  0
  7  8  1  0  0  0  0
  8  9  2  0  0  0  0
  9 10  1  0  0  0  0
 10 11  2  0  0  0  0
 11 12  1  0  0  0  0
  3 12  2  0  0  0  0
  7 12  1  0  0  0  0
 14 15  1  0  0  0  0
 15 16  1  0  0  0  0
 16 17  1  0  0  0  0
 17 18  1  0  0  0  0
 18 19  1  0  0  0  0
 14 19  1  0  0  0  0
 20 21  1  0  0  0  0
 19 20  1  6  0  0  0
 18 22  1  1  0  0  0
 17 23  1  6  0  0  0
 16 24  1  1  0  0  0
 15 13  1  6  0  0  0
 11 13  1  0  0  0  0
  5 25  1  0  0  0  0
 26 27  1  0  0  0  0
  9 26  1  0  0  0  0
  3 28  1  0  0  0  0
  1  4  1  0  0  0  0
  1 29  2  0  0  0  0
 20 30  2  0  0  0  0
 30 31  2  0  0  0  0
 30 32  2  0  0  0  0
M  END
>  <cdx:groupId>
91

>  <cdx:fragmentId>
31

$$$$
