303078.cdx
  Mrv1902 05222410202D          

 79 83  0  0  0  0            999 V2000
    6.2238  -14.5548    0.0000 O   0  0  0  0  0  0  0  0  0  0  0  0
    9.7980  -13.3729    0.0000 O   0  0  0  0  0  0  0  0  0  0  0  0
    6.9407  -13.3302    0.0000 O   0  0  0  0  0  0  0  0  0  0  0  0
    8.3669  -12.5268    0.0000 O   0  0  0  0  0  0  0  0  0  0  0  0
    6.9333  -14.9758    0.0000 C   0  0  0  0  0  0  0  0  0  0  0  0
    9.0811  -13.7812    0.0000 C   0  0  2  0  0  0  0  0  0  0  0  0
    8.3570  -13.3517    0.0000 C   0  0  2  0  0  0  0  0  0  0  0  0
    7.6526  -13.7471    0.0000 C   0  0  1  0  0  0  0  0  0  0  0  0
    7.6526  -14.5718    0.0000 C   0  0  2  0  0  0  0  0  0  0  0  0
    8.3570  -15.0013    0.0000 O   0  0  0  0  0  0  0  0  0  0  0  0
    9.0811  -14.6059    0.0000 C   0  0  1  0  0  0  0  0  0  0  0  0
   24.8529   -5.0749    0.0000 O   0  0  0  0  0  0  0  0  0  0  0  0
   24.1384   -4.6624    0.0000 C   0  0  0  0  0  0  0  0  0  0  0  0
   22.8391   -6.8822    0.0000 O   0  0  0  0  0  0  0  0  0  0  0  0
   21.5575   -6.1320    0.0000 O   0  0  0  0  0  0  0  0  0  0  0  0
   24.1295   -6.1474    0.0000 O   0  0  0  0  0  0  0  0  0  0  0  0
   22.8524   -4.6547    0.0000 O   0  0  0  0  0  0  0  0  0  0  0  0
   23.4932   -5.0298    0.0000 C   0  0  1  0  0  0  0  0  0  0  0  0
   23.4887   -5.7723    0.0000 C   0  0  2  0  0  0  0  0  0  0  0  0
   22.8435   -6.1397    0.0000 C   0  0  1  0  0  0  0  0  0  0  0  0
   22.2027   -5.7646    0.0000 C   0  0  2  0  0  0  0  0  0  0  0  0
   22.2072   -5.0221    0.0000 C   0  0  2  0  0  0  0  0  0  0  0  0
   21.5664   -4.6471    0.0000 O   0  0  0  0  0  0  0  0  0  0  0  0
   18.2926   -3.5318    0.0000 O   0  0  0  0  0  0  0  0  0  0  0  0
   20.8647   -3.5471    0.0000 O   0  0  0  0  0  0  0  0  0  0  0  0
   19.5831   -2.7969    0.0000 O   0  0  0  0  0  0  0  0  0  0  0  0
   20.8558   -5.0321    0.0000 C   0  0  0  0  0  0  0  0  0  0  0  0
   19.5698   -5.0244    0.0000 O   0  0  0  0  0  0  0  0  0  0  0  0
   20.2150   -4.6570    0.0000 C   0  0  1  0  0  0  0  0  0  0  0  0
   20.2194   -3.9145    0.0000 C   0  0  2  0  0  0  0  0  0  0  0  0
   19.5786   -3.5394    0.0000 C   0  0  1  0  0  0  0  0  0  0  0  0
   18.9334   -3.9068    0.0000 C   0  0  2  0  0  0  0  0  0  0  0  0
   18.9290   -4.6493    0.0000 C   0  0  2  0  0  0  0  0  0  0  0  0
   11.7871  -16.1156    0.0000 C   0  0  1  0  0  0  0  0  0  0  0  0
   11.1463  -15.7406    0.0000 C   0  0  1  0  0  0  0  0  0  0  0  0
   11.1508  -14.9981    0.0000 C   0  0  2  0  0  0  0  0  0  0  0  0
   11.7960  -14.6307    0.0000 O   0  0  0  0  0  0  0  0  0  0  0  0
   18.2837   -5.0167    0.0000 O   0  0  0  0  0  0  0  0  0  0  0  0
   15.6940   -7.9713    0.0000 C   0  0  0  0  0  0  0  0  0  0  0  0
   16.9933   -5.7515    0.0000 C   0  0  0  0  0  0  0  0  0  0  0  0
   12.4457  -13.5208    0.0000 O   0  0  0  0  0  0  0  0  0  0  0  0
   17.6341   -6.1266    0.0000 C   0  0  0  0  0  0  0  0  0  0  0  0
   18.2793   -5.7592    0.0000 C   0  0  0  0  0  0  0  0  0  0  0  0
   18.9201   -6.1343    0.0000 O   0  0  0  0  0  0  0  0  0  0  0  0
   16.9844   -7.2365    0.0000 C   0  0  0  0  0  0  0  0  0  0  0  0
   17.6296   -6.8691    0.0000 C   0  0  0  0  0  0  0  0  0  0  0  0
   16.3348   -8.3464    0.0000 C   0  0  0  0  0  0  0  0  0  0  0  0
   16.9800   -7.9790    0.0000 C   0  0  0  0  0  0  0  0  0  0  0  0
   15.6851   -9.4563    0.0000 C   0  0  0  0  0  0  0  0  0  0  0  0
   16.3303   -9.0889    0.0000 C   0  0  0  0  0  0  0  0  0  0  0  0
   15.0354  -10.5662    0.0000 C   0  0  0  0  0  0  0  0  0  0  0  0
   15.6807  -10.1988    0.0000 C   0  0  0  0  0  0  0  0  0  0  0  0
   14.3858  -11.6761    0.0000 C   0  0  0  0  0  0  0  0  0  0  0  0
   15.0310  -11.3087    0.0000 C   0  0  0  0  0  0  0  0  0  0  0  0
   15.6718  -11.6838    0.0000 C   0  0  0  0  0  0  0  0  0  0  0  0
   13.7361  -12.7860    0.0000 C   0  0  0  0  0  0  0  0  0  0  0  0
   14.3813  -12.4186    0.0000 C   0  0  0  0  0  0  0  0  0  0  0  0
   13.7317  -13.5285    0.0000 C   0  0  0  0  0  0  0  0  0  0  0  0
   14.3725  -13.9035    0.0000 C   0  0  0  0  0  0  0  0  0  0  0  0
   13.0865  -13.8959    0.0000 C   0  0  0  0  0  0  0  0  0  0  0  0
   12.4368  -15.0058    0.0000 C   0  0  2  0  0  0  0  0  0  0  0  0
   12.4324  -15.7482    0.0000 C   0  0  2  0  0  0  0  0  0  0  0  0
   11.7827  -16.8581    0.0000 O   0  0  0  0  0  0  0  0  0  0  0  0
   13.0820  -14.6384    0.0000 O   0  0  0  0  0  0  0  0  0  0  0  0
   10.5100  -14.6230    0.0000 C   0  0  0  0  0  0  0  0  0  0  0  0
   10.5011  -16.1080    0.0000 O   0  0  0  0  0  0  0  0  0  0  0  0
   13.0732  -16.1233    0.0000 O   0  0  0  0  0  0  0  0  0  0  0  0
    9.7906  -15.0269    0.0000 O   0  0  0  0  0  0  0  0  0  0  0  0
    5.5044  -14.9587    0.0000 C   0  0  2  0  0  0  0  0  0  0  0  0
    4.8000  -14.5293    0.0000 O   0  0  0  0  0  0  0  0  0  0  0  0
    4.0759  -14.9246    0.0000 C   0  0  1  0  0  0  0  0  0  0  0  0
    4.0759  -15.7494    0.0000 C   0  0  2  0  0  0  0  0  0  0  0  0
    4.8000  -16.1788    0.0000 C   0  0  1  0  0  0  0  0  0  0  0  0
    5.5044  -15.7835    0.0000 C   0  0  1  0  0  0  0  0  0  0  0  0
    3.3664  -14.5036    0.0000 C   0  0  0  0  0  0  0  0  0  0  0  0
    4.7901  -17.0037    0.0000 O   0  0  0  0  0  0  0  0  0  0  0  0
    6.2164  -16.2003    0.0000 O   0  0  0  0  0  0  0  0  0  0  0  0
    3.3590  -16.1577    0.0000 O   0  0  0  0  0  0  0  0  0  0  0  0
    2.6470  -14.9075    0.0000 O   0  0  0  0  0  0  0  0  0  0  0  0
 23 27  1  0  0  0  0
  5  1  1  0  0  0  0
  6  2  1  1  0  0  0
  8  3  1  1  0  0  0
  7  4  1  6  0  0  0
  9  5  1  6  0  0  0
  6 11  1  0  0  0  0
  7  6  1  0  0  0  0
  8  7  1  0  0  0  0
  9  8  1  0  0  0  0
 10  9  1  0  0  0  0
 11 10  1  0  0  0  0
 11 68  1  6  0  0  0
 13 12  1  0  0  0  0
 18 13  1  6  0  0  0
 20 14  1  6  0  0  0
 21 15  1  1  0  0  0
 19 16  1  1  0  0  0
 17 22  1  0  0  0  0
 18 17  1  0  0  0  0
 19 18  1  0  0  0  0
 20 19  1  0  0  0  0
 21 20  1  0  0  0  0
 22 21  1  0  0  0  0
 22 23  1  6  0  0  0
 32 24  1  6  0  0  0
 30 25  1  6  0  0  0
 31 26  1  1  0  0  0
 29 27  1  1  0  0  0
 28 33  1  0  0  0  0
 29 28  1  0  0  0  0
 30 29  1  0  0  0  0
 31 30  1  0  0  0  0
 32 31  1  0  0  0  0
 33 32  1  0  0  0  0
 33 38  1  1  0  0  0
 43 38  1  0  0  0  0
 47 39  1  0  0  0  0
 42 40  1  0  0  0  0
 60 41  2  0  0  0  0
 42 46  2  0  0  0  0
 43 42  1  0  0  0  0
 44 43  2  0  0  0  0
 45 48  2  0  0  0  0
 46 45  1  0  0  0  0
 47 50  2  0  0  0  0
 48 47  1  0  0  0  0
 49 52  2  0  0  0  0
 50 49  1  0  0  0  0
 51 54  2  0  0  0  0
 52 51  1  0  0  0  0
 53 57  2  0  0  0  0
 54 53  1  0  0  0  0
 55 54  1  0  0  0  0
 56 58  2  0  0  0  0
 57 56  1  0  0  0  0
 58 60  1  0  0  0  0
 59 58  1  0  0  0  0
 64 60  1  0  0  0  0
 34 35  1  0  0  0  0
 35 36  1  0  0  0  0
 36 37  1  0  0  0  0
 37 61  1  0  0  0  0
 61 62  1  0  0  0  0
 62 34  1  0  0  0  0
 34 63  1  1  0  0  0
 61 64  1  1  0  0  0
 36 65  1  1  0  0  0
 35 66  1  6  0  0  0
 62 67  1  6  0  0  0
 65 68  1  0  0  0  0
 69  1  1  1  0  0  0
 69 70  1  0  0  0  0
 70 71  1  0  0  0  0
 71 72  1  0  0  0  0
 72 73  1  0  0  0  0
 73 74  1  0  0  0  0
 74 69  1  0  0  0  0
 71 75  1  1  0  0  0
 73 76  1  1  0  0  0
 74 77  1  6  0  0  0
 72 78  1  6  0  0  0
 75 79  1  0  0  0  0
M  END
>  <cdx:fragmentId>
296

$$$$
