303053.cdx
  Mrv1902 05222410192D          

 17 16  0  0  0  0            999 V2000
    3.2877   -7.0862    0.0000 C   0  0  0  0  0  0  0  0  0  0  0  0
    4.0021   -7.4987    0.0000 C   0  0  0  0  0  0  0  0  0  0  0  0
    4.7166   -7.0862    0.0000 C   0  0  0  0  0  0  0  0  0  0  0  0
    5.4311   -7.4987    0.0000 C   0  0  0  0  0  0  0  0  0  0  0  0
    6.1455   -7.0862    0.0000 C   0  0  0  0  0  0  0  0  0  0  0  0
    6.8600   -7.4987    0.0000 C   0  0  0  0  0  0  0  0  0  0  0  0
    7.5745   -7.0862    0.0000 C   0  0  0  0  0  0  0  0  0  0  0  0
    8.2890   -7.4987    0.0000 C   0  0  0  0  0  0  0  0  0  0  0  0
    9.0034   -7.0862    0.0000 C   0  0  0  0  0  0  0  0  0  0  0  0
    9.7179   -7.4987    0.0000 C   0  0  0  0  0  0  0  0  0  0  0  0
   10.4324   -7.9112    0.0000 C   0  0  0  0  0  0  0  0  0  0  0  0
   11.1468   -8.3237    0.0000 C   0  0  0  0  0  0  0  0  0  0  0  0
   11.8613   -7.9112    0.0000 C   0  0  0  0  0  0  0  0  0  0  0  0
   12.5758   -8.3237    0.0000 C   0  0  0  0  0  0  0  0  0  0  0  0
    2.5732   -7.4987    0.0000 O   0  0  0  0  0  0  0  0  0  0  0  0
    6.8600   -8.3237    0.0000 O   0  0  0  0  0  0  0  0  0  0  0  0
    7.5745   -6.2612    0.0000 O   0  0  0  0  0  0  0  0  0  0  0  0
  1  2  1  0  0  0  0
  2  3  1  0  0  0  0
  3  4  1  0  0  0  0
  4  5  2  0  0  0  0
  5  6  1  0  0  0  0
  6  7  1  0  0  0  0
  7  8  1  0  0  0  0
  8  9  2  0  0  0  0
  9 10  1  0  0  0  0
 10 11  3  0  0  0  0
 11 12  1  0  0  0  0
 12 13  2  0  0  0  0
 13 14  1  0  0  0  0
  1 15  1  0  0  0  0
  6 16  1  0  0  0  0
  7 17  1  0  0  0  0
M  END
>  <cdx:groupId>
52

>  <cdx:fragmentId>
5

$$$$
