303029.cdx
  Mrv1902 05222410242D          

 45 49  0  0  0  0            999 V2000
   10.9974  -10.3862    0.0000 O   0  0  0  0  0  0  0  0  0  0  0  0
    8.8539   -9.1487    0.0000 O   0  0  0  0  0  0  0  0  0  0  0  0
    7.4250   -9.9737    0.0000 O   0  0  0  0  0  0  0  0  0  0  0  0
    5.9961   -9.9737    0.0000 O   0  0  0  0  0  0  0  0  0  0  0  0
    5.9961   -9.1487    0.0000 C   0  0  0  0  0  0  0  0  0  0  0  0
   10.2829   -6.6737    0.0000 O   0  0  0  0  0  0  0  0  0  0  0  0
   11.7118   -7.4987    0.0000 O   0  0  0  0  0  0  0  0  0  0  0  0
   11.7118   -9.1487    0.0000 O   0  0  0  0  0  0  0  0  0  0  0  0
   10.2829   -9.9737    0.0000 C   0  0  0  0  0  0  0  0  0  0  0  0
   10.2829   -9.1487    0.0000 C   0  0  0  0  0  0  0  0  0  0  0  0
   10.9974   -8.7362    0.0000 C   0  0  0  0  0  0  0  0  0  0  0  0
   10.9974   -7.9112    0.0000 C   0  0  0  0  0  0  0  0  0  0  0  0
   10.2829   -7.4987    0.0000 C   0  0  0  0  0  0  0  0  0  0  0  0
    9.5684   -7.9112    0.0000 C   0  0  0  0  0  0  0  0  0  0  0  0
    9.5684   -8.7362    0.0000 O   0  0  0  0  0  0  0  0  0  0  0  0
    8.8539   -7.4987    0.0000 O   0  0  0  0  0  0  0  0  0  0  0  0
    6.7105   -8.7362    0.0000 C   0  0  0  0  0  0  0  0  0  0  0  0
    7.4250   -9.1487    0.0000 C   0  0  0  0  0  0  0  0  0  0  0  0
    8.1395   -8.7362    0.0000 C   0  0  0  0  0  0  0  0  0  0  0  0
    8.1395   -7.9112    0.0000 C   0  0  0  0  0  0  0  0  0  0  0  0
    7.4250   -7.4987    0.0000 C   0  0  0  0  0  0  0  0  0  0  0  0
    6.7105   -7.9112    0.0000 O   0  0  0  0  0  0  0  0  0  0  0  0
    7.4250   -6.6737    0.0000 O   0  0  0  0  0  0  0  0  0  0  0  0
    4.5671   -7.4987    0.0000 O   0  0  0  0  0  0  0  0  0  0  0  0
    3.1382   -5.0237    0.0000 O   0  0  0  0  0  0  0  0  0  0  0  0
   10.2829   -4.1987    0.0000 C   0  0  0  0  0  0  0  0  0  0  0  0
    9.5684   -3.7862    0.0000 O   0  0  0  0  0  0  0  0  0  0  0  0
    7.4250   -4.1987    0.0000 C   0  0  0  0  0  0  0  0  0  0  0  0
    8.1395   -3.7862    0.0000 C   0  0  0  0  0  0  0  0  0  0  0  0
    8.8539   -4.1987    0.0000 C   0  0  0  0  0  0  0  0  0  0  0  0
    8.8539   -5.0237    0.0000 C   0  0  0  0  0  0  0  0  0  0  0  0
    8.1395   -5.4362    0.0000 C   0  0  0  0  0  0  0  0  0  0  0  0
    7.4250   -5.0237    0.0000 C   0  0  0  0  0  0  0  0  0  0  0  0
    5.9961   -7.4987    0.0000 O   0  0  0  0  0  0  0  0  0  0  0  0
    5.9961   -5.0237    0.0000 O   0  0  0  0  0  0  0  0  0  0  0  0
    5.2816   -5.4362    0.0000 C   0  0  0  0  0  0  0  0  0  0  0  0
    4.5671   -5.0237    0.0000 C   0  0  0  0  0  0  0  0  0  0  0  0
    3.8526   -5.4362    0.0000 C   0  0  0  0  0  0  0  0  0  0  0  0
    3.8526   -6.2612    0.0000 C   0  0  0  0  0  0  0  0  0  0  0  0
    4.5671   -6.6737    0.0000 C   0  0  0  0  0  0  0  0  0  0  0  0
    5.2816   -6.2612    0.0000 C   0  0  0  0  0  0  0  0  0  0  0  0
    5.9961   -6.6737    0.0000 C   0  0  0  0  0  0  0  0  0  0  0  0
    6.7105   -6.2612    0.0000 C   0  0  0  0  0  0  0  0  0  0  0  0
    6.7105   -5.4362    0.0000 C   0  0  0  0  0  0  0  0  0  0  0  0
    8.1395   -2.9612    0.0000 O   0  0  0  0  0  0  0  0  0  0  0  0
  9  1  1  0  0  0  0
 43 23  1  0  0  0  0
 21 23  1  0  0  0  0
 19  2  1  0  0  0  0
 18  3  1  0  0  0  0
 17  5  1  0  0  0  0
  5  4  1  0  0  0  0
 20 16  1  0  0  0  0
 14 16  1  0  0  0  0
 13  6  1  0  0  0  0
 12  7  1  0  0  0  0
 11  8  1  0  0  0  0
 10  9  1  0  0  0  0
 15 10  1  0  0  0  0
 11 10  1  0  0  0  0
 12 11  1  0  0  0  0
 13 12  1  0  0  0  0
 14 13  1  0  0  0  0
 15 14  1  0  0  0  0
 22 17  1  0  0  0  0
 18 17  1  0  0  0  0
 19 18  1  0  0  0  0
 20 19  1  0  0  0  0
 21 20  1  0  0  0  0
 22 21  1  0  0  0  0
 40 24  1  0  0  0  0
 38 25  1  0  0  0  0
 44 33  1  0  0  0  0
 30 27  1  0  0  0  0
 27 26  1  0  0  0  0
 33 28  2  0  0  0  0
 29 28  1  0  0  0  0
 30 29  2  0  0  0  0
 31 30  1  0  0  0  0
 32 31  2  0  0  0  0
 33 32  1  0  0  0  0
 42 34  2  0  0  0  0
 44 35  1  0  0  0  0
 36 35  1  0  0  0  0
 41 36  2  0  0  0  0
 37 36  1  0  0  0  0
 38 37  2  0  0  0  0
 39 38  1  0  0  0  0
 40 39  2  0  0  0  0
 41 40  1  0  0  0  0
 42 41  1  0  0  0  0
 43 42  1  0  0  0  0
 44 43  2  0  0  0  0
 29 45  1  0  0  0  0
M  END
>  <cdx:groupId>
138

>  <cdx:fragmentId>
5

$$$$
