303052.cdx
  Mrv1902 05222410192D          

  7 10  0  0  0  0            999 V2000
    4.0342   -5.3955    0.0000 C   0  0  0  0  0  0  0  0  0  0  0  0
    4.6176   -4.8121    0.0000 C   0  0  0  0  0  0  0  0  0  0  0  0
    4.2431   -4.0771    0.0000 C   0  0  0  0  0  0  0  0  0  0  0  0
    3.4282   -4.2061    0.0000 C   0  0  0  0  0  0  0  0  0  0  0  0
    3.2992   -5.0210    0.0000 C   0  0  0  0  0  0  0  0  0  0  0  0
    2.8449   -4.7895    0.0000 C   0  0  0  0  0  0  0  0  0  0  0  0
    4.9575   -4.4896    0.0000 C   0  0  0  0  0  0  0  0  0  0  0  0
  1  2  1  0  0  0  0
  2  3  1  0  0  0  0
  3  4  1  0  0  0  0
  4  5  1  0  0  0  0
  5  1  1  0  0  0  0
  4  6  1  0  0  0  0
  3  7  1  0  0  0  0
  7  6  1  0  0  0  0
  6  5  1  0  0  0  0
  7  2  1  0  0  0  0
M  END
>  <cdx:fragmentId>
41

$$$$
