303086.cdx
  Mrv1902 05222410202D          

 63 71  0  0  0  0            999 V2000
   10.6401   -7.0862    0.0000 O   0  0  0  0  0  0  0  0  0  0  0  0
   10.6401   -5.4362    0.0000 O   0  0  0  0  0  0  0  0  0  0  0  0
    8.4967   -5.8487    0.0000 C   0  0  0  0  0  0  0  0  0  0  0  0
    9.2112   -5.4362    0.0000 C   0  0  0  0  0  0  0  0  0  0  0  0
    9.9256   -5.8487    0.0000 C   0  0  0  0  0  0  0  0  0  0  0  0
    9.9256   -6.6737    0.0000 C   0  0  0  0  0  0  0  0  0  0  0  0
    9.2112   -7.0862    0.0000 C   0  0  0  0  0  0  0  0  0  0  0  0
    8.4967   -6.6737    0.0000 C   0  0  0  0  0  0  0  0  0  0  0  0
   12.0691  -10.0562    0.0000 O   0  0  0  0  0  0  0  0  0  0  0  0
   12.0691   -8.4062    0.0000 O   0  0  0  0  0  0  0  0  0  0  0  0
    9.9256   -8.8187    0.0000 C   0  0  0  0  0  0  0  0  0  0  0  0
   10.6401   -8.4062    0.0000 C   0  0  0  0  0  0  0  0  0  0  0  0
   11.3546   -8.8187    0.0000 C   0  0  0  0  0  0  0  0  0  0  0  0
   11.3546   -9.6437    0.0000 C   0  0  0  0  0  0  0  0  0  0  0  0
   10.6401  -10.0562    0.0000 C   0  0  0  0  0  0  0  0  0  0  0  0
    9.9256   -9.6437    0.0000 C   0  0  0  0  0  0  0  0  0  0  0  0
    9.9256  -11.2937    0.0000 O   0  0  0  0  0  0  0  0  0  0  0  0
    7.0678  -12.1187    0.0000 O   0  0  0  0  0  0  0  0  0  0  0  0
    5.6388   -9.6437    0.0000 O   0  0  0  0  0  0  0  0  0  0  0  0
    8.4967   -9.6437    0.0000 O   0  0  0  0  0  0  0  0  0  0  0  0
    7.7822  -10.0562    0.0000 C   0  0  0  0  0  0  0  0  0  0  0  0
    7.0678   -9.6437    0.0000 C   0  0  0  0  0  0  0  0  0  0  0  0
    6.3533  -10.0562    0.0000 C   0  0  0  0  0  0  0  0  0  0  0  0
    6.3533  -10.8812    0.0000 C   0  0  0  0  0  0  0  0  0  0  0  0
    7.0678  -11.2937    0.0000 C   0  0  0  0  0  0  0  0  0  0  0  0
    7.7822  -10.8812    0.0000 C   0  0  0  0  0  0  0  0  0  0  0  0
    8.4967  -11.2937    0.0000 C   0  0  0  0  0  0  0  0  0  0  0  0
    9.2112  -10.8812    0.0000 C   0  0  1  0  0  0  0  0  0  0  0  0
    9.2112  -10.0562    0.0000 C   0  0  1  0  0  0  0  0  0  0  0  0
    9.2112   -4.1162    0.0000 O   0  0  0  0  0  0  0  0  0  0  0  0
    9.2112   -2.4662    0.0000 O   0  0  0  0  0  0  0  0  0  0  0  0
    7.0678   -2.8787    0.0000 C   0  0  0  0  0  0  0  0  0  0  0  0
    7.7822   -2.4662    0.0000 C   0  0  0  0  0  0  0  0  0  0  0  0
    8.4967   -2.8787    0.0000 C   0  0  0  0  0  0  0  0  0  0  0  0
    8.4967   -3.7037    0.0000 C   0  0  0  0  0  0  0  0  0  0  0  0
    7.7822   -4.1162    0.0000 C   0  0  0  0  0  0  0  0  0  0  0  0
    7.0678   -3.7037    0.0000 C   0  0  0  0  0  0  0  0  0  0  0  0
    7.0678   -5.3537    0.0000 O   0  0  0  0  0  0  0  0  0  0  0  0
    4.2099   -6.1787    0.0000 O   0  0  0  0  0  0  0  0  0  0  0  0
    2.7809   -3.7037    0.0000 O   0  0  0  0  0  0  0  0  0  0  0  0
    5.6388   -3.7037    0.0000 O   0  0  0  0  0  0  0  0  0  0  0  0
    4.9244   -4.1162    0.0000 C   0  0  0  0  0  0  0  0  0  0  0  0
    4.2099   -3.7037    0.0000 C   0  0  0  0  0  0  0  0  0  0  0  0
    3.4954   -4.1162    0.0000 C   0  0  0  0  0  0  0  0  0  0  0  0
    3.4954   -4.9412    0.0000 C   0  0  0  0  0  0  0  0  0  0  0  0
    4.2099   -5.3537    0.0000 C   0  0  0  0  0  0  0  0  0  0  0  0
    4.9244   -4.9412    0.0000 C   0  0  0  0  0  0  0  0  0  0  0  0
    5.6388   -5.3537    0.0000 C   0  0  2  0  0  0  0  0  0  0  0  0
    6.3533   -4.9412    0.0000 C   0  0  1  0  0  0  0  0  0  0  0  0
    6.3533   -4.1162    0.0000 C   0  0  1  0  0  0  0  0  0  0  0  0
    4.2099   -6.6737    0.0000 O   0  0  0  0  0  0  0  0  0  0  0  0
    5.6388   -9.1487    0.0000 O   0  0  0  0  0  0  0  0  0  0  0  0
    8.4967   -8.3237    0.0000 O   0  0  0  0  0  0  0  0  0  0  0  0
    7.0678   -6.6737    0.0000 O   0  0  0  0  0  0  0  0  0  0  0  0
    6.3533   -7.0862    0.0000 C   0  0  0  0  0  0  0  0  0  0  0  0
    5.6388   -6.6737    0.0000 C   0  0  0  0  0  0  0  0  0  0  0  0
    4.9244   -7.0862    0.0000 C   0  0  0  0  0  0  0  0  0  0  0  0
    4.9244   -7.9112    0.0000 C   0  0  0  0  0  0  0  0  0  0  0  0
    5.6388   -8.3237    0.0000 C   0  0  0  0  0  0  0  0  0  0  0  0
    6.3533   -7.9112    0.0000 C   0  0  0  0  0  0  0  0  0  0  0  0
    7.0678   -8.3237    0.0000 C   0  0  2  0  0  0  0  0  0  0  0  0
    7.7822   -7.9112    0.0000 C   0  0  1  0  0  0  0  0  0  0  0  0
    7.7822   -7.0862    0.0000 C   0  0  1  0  0  0  0  0  0  0  0  0
 63  8  1  6  0  0  0
  6  1  1  0  0  0  0
  5  2  1  0  0  0  0
  8  3  2  0  0  0  0
  4  3  1  0  0  0  0
  5  4  2  0  0  0  0
  6  5  1  0  0  0  0
  7  6  2  0  0  0  0
  8  7  1  0  0  0  0
 61 22  1  6  0  0  0
 29 16  1  6  0  0  0
 14  9  1  0  0  0  0
 13 10  1  0  0  0  0
 16 11  2  0  0  0  0
 12 11  1  0  0  0  0
 13 12  2  0  0  0  0
 14 13  1  0  0  0  0
 15 14  2  0  0  0  0
 16 15  1  0  0  0  0
 28 17  1  1  0  0  0
 25 18  1  0  0  0  0
 23 19  1  0  0  0  0
 29 20  1  0  0  0  0
 21 20  1  0  0  0  0
 26 21  2  0  0  0  0
 22 21  1  0  0  0  0
 23 22  2  0  0  0  0
 24 23  1  0  0  0  0
 25 24  2  0  0  0  0
 26 25  1  0  0  0  0
 27 26  1  0  0  0  0
 28 27  1  0  0  0  0
 29 28  1  0  0  0  0
 48 56  1  6  0  0  0
 50 37  1  6  0  0  0
 35 30  1  0  0  0  0
 34 31  1  0  0  0  0
 37 32  2  0  0  0  0
 33 32  1  0  0  0  0
 34 33  2  0  0  0  0
 35 34  1  0  0  0  0
 36 35  2  0  0  0  0
 37 36  1  0  0  0  0
 49 38  1  1  0  0  0
 46 39  1  0  0  0  0
 44 40  1  0  0  0  0
 50 41  1  0  0  0  0
 42 41  1  0  0  0  0
 47 42  2  0  0  0  0
 43 42  1  0  0  0  0
 44 43  2  0  0  0  0
 45 44  1  0  0  0  0
 46 45  2  0  0  0  0
 47 46  1  0  0  0  0
 48 47  1  0  0  0  0
 49 48  1  0  0  0  0
 50 49  1  0  0  0  0
 57 51  1  0  0  0  0
 59 52  1  0  0  0  0
 62 53  1  1  0  0  0
 63 54  1  0  0  0  0
 55 54  1  0  0  0  0
 60 55  2  0  0  0  0
 56 55  1  0  0  0  0
 57 56  2  0  0  0  0
 58 57  1  0  0  0  0
 59 58  2  0  0  0  0
 60 59  1  0  0  0  0
 61 60  1  0  0  0  0
 62 61  1  0  0  0  0
 63 62  1  0  0  0  0
M  END
>  <cdx:fragmentId>
31

$$$$
