303093.cdx
  Mrv1902 05222410202D          

 32 36  0  0  0  0            999 V2000
    5.9191   -6.8722    0.0000 C   0  0  0  0  0  0  0  0  0  0  0  0
    6.6336   -6.4597    0.0000 C   0  0  0  0  0  0  0  0  0  0  0  0
    6.6336   -5.6347    0.0000 C   0  0  0  0  0  0  0  0  0  0  0  0
    7.3481   -5.2222    0.0000 C   0  0  0  0  0  0  0  0  0  0  0  0
    8.0625   -5.6347    0.0000 C   0  0  0  0  0  0  0  0  0  0  0  0
    8.0625   -6.4597    0.0000 C   0  0  0  0  0  0  0  0  0  0  0  0
    8.7770   -6.8722    0.0000 C   0  0  0  0  0  0  0  0  0  0  0  0
    9.5616   -6.6173    0.0000 C   0  0  0  0  0  0  0  0  0  0  0  0
   10.0466   -7.2847    0.0000 C   0  0  0  0  0  0  0  0  0  0  0  0
   10.8707   -7.2477    0.0000 C   0  0  0  0  0  0  0  0  0  0  0  0
   11.4135   -7.8690    0.0000 C   0  0  0  0  0  0  0  0  0  0  0  0
   11.2662   -8.6808    0.0000 C   0  0  0  0  0  0  0  0  0  0  0  0
   10.5397   -9.0717    0.0000 C   0  0  0  0  0  0  0  0  0  0  0  0
    9.7811   -8.7475    0.0000 C   0  0  0  0  0  0  0  0  0  0  0  0
    9.5616   -7.9522    0.0000 C   0  0  0  0  0  0  0  0  0  0  0  0
    8.7770   -7.6972    0.0000 C   0  0  0  0  0  0  0  0  0  0  0  0
    8.0625   -8.1097    0.0000 C   0  0  0  0  0  0  0  0  0  0  0  0
    8.0625   -8.9347    0.0000 C   0  0  0  0  0  0  0  0  0  0  0  0
    7.3481   -9.3472    0.0000 C   0  0  0  0  0  0  0  0  0  0  0  0
    6.6336   -8.9347    0.0000 C   0  0  0  0  0  0  0  0  0  0  0  0
    6.6336   -8.1097    0.0000 C   0  0  0  0  0  0  0  0  0  0  0  0
    5.9191   -7.6972    0.0000 C   0  0  0  0  0  0  0  0  0  0  0  0
    5.1345   -7.9522    0.0000 C   0  0  0  0  0  0  0  0  0  0  0  0
    4.5933   -8.5748    0.0000 C   0  0  0  0  0  0  0  0  0  0  0  0
    3.7728   -8.4886    0.0000 C   0  0  0  0  0  0  0  0  0  0  0  0
    3.4372   -7.7349    0.0000 C   0  0  0  0  0  0  0  0  0  0  0  0
    3.8621   -7.0278    0.0000 C   0  0  0  0  0  0  0  0  0  0  0  0
    3.8650   -6.2048    0.0000 C   0  0  0  0  0  0  0  0  0  0  0  0
    4.6496   -5.9499    0.0000 C   0  0  0  0  0  0  0  0  0  0  0  0
    5.1345   -6.6173    0.0000 C   0  0  0  0  0  0  0  0  0  0  0  0
    5.2047   -7.2847    0.0000 O   0  0  0  0  0  0  0  0  0  0  0  0
    9.4915   -7.2847    0.0000 O   0  0  0  0  0  0  0  0  0  0  0  0
  1  2  1  0  0  0  0
  2  3  1  0  0  0  0
  3  4  1  0  0  0  0
  4  5  1  0  0  0  0
  5  6  1  0  0  0  0
  6  7  1  0  0  0  0
  7  8  1  0  0  0  0
  8  9  1  0  0  0  0
  9 10  1  0  0  0  0
 10 11  1  0  0  0  0
 11 12  1  0  0  0  0
 12 13  1  0  0  0  0
 13 14  1  0  0  0  0
 14 15  1  0  0  0  0
 15 16  1  0  0  0  0
 16 17  1  0  0  0  0
 17 18  1  0  0  0  0
 18 19  1  0  0  0  0
 19 20  1  0  0  0  0
 20 21  1  0  0  0  0
 21 22  1  0  0  0  0
 22 23  1  0  0  0  0
 23 24  1  0  0  0  0
 24 25  1  0  0  0  0
 25 26  1  0  0  0  0
 26 27  1  0  0  0  0
 27 28  1  0  0  0  0
 28 29  1  0  0  0  0
 29 30  1  0  0  0  0
  1 30  1  0  0  0  0
  1 31  1  0  0  0  0
 31 22  1  0  0  0  0
  1 22  1  0  0  0  0
 16 32  1  0  0  0  0
 32  7  1  0  0  0  0
  7 16  1  0  0  0  0
M  END
>  <cdx:groupId>
106

>  <cdx:fragmentId>
9

$$$$
