30302.cdx
  Mrv1902 05222410272D          

  9  8  0  0  0  0            999 V2000
    5.0850   -6.6126    0.0000 C   0  0  0  0  0  0  0  0  0  0  0  0
    5.7995   -6.2001    0.0000 C   0  0  0  0  0  0  0  0  0  0  0  0
    6.5140   -6.6126    0.0000 C   0  0  0  0  0  0  0  0  0  0  0  0
    7.2284   -6.2001    0.0000 C   0  0  0  0  0  0  0  0  0  0  0  0
    7.9429   -6.6126    0.0000 C   0  0  0  0  0  0  0  0  0  0  0  0
    8.6574   -6.2001    0.0000 C   0  0  0  0  0  0  0  0  0  0  0  0
    4.3706   -7.0251    0.0000 C   0  0  0  0  0  0  0  0  0  0  0  0
    4.6725   -5.8982    0.0000 C   0  0  0  0  0  0  0  0  0  0  0  0
    5.4975   -7.3271    0.0000 C   0  0  0  0  0  0  0  0  0  0  0  0
  1  2  1  0  0  0  0
  2  3  1  0  0  0  0
  3  4  1  0  0  0  0
  4  5  1  0  0  0  0
  5  6  1  0  0  0  0
  1  7  1  0  0  0  0
  1  8  1  0  0  0  0
  1  9  1  0  0  0  0
M  END
>  <cdx:fragmentId>
3

$$$$
