303096.cdx
  Mrv1902 05222410182D          

 43 47  0  0  0  0            999 V2000
   10.9974   -7.0862    0.0000 C   0  0  0  0  0  0  0  0  0  0  0  0
   10.9974   -6.2612    0.0000 C   0  0  0  0  0  0  0  0  0  0  0  0
   10.2829   -5.8487    0.0000 C   0  0  0  0  0  0  0  0  0  0  0  0
    9.5684   -6.2612    0.0000 C   0  0  0  0  0  0  0  0  0  0  0  0
    8.8539   -5.8487    0.0000 C   0  0  0  0  0  0  0  0  0  0  0  0
    8.1395   -6.2612    0.0000 C   0  0  0  0  0  0  0  0  0  0  0  0
    8.1395   -7.0862    0.0000 C   0  0  0  0  0  0  0  0  0  0  0  0
    8.8539   -7.4987    0.0000 C   0  0  0  0  0  0  0  0  0  0  0  0
    9.5684   -7.0862    0.0000 C   0  0  0  0  0  0  0  0  0  0  0  0
   10.2829   -7.4987    0.0000 O   0  0  0  0  0  0  0  0  0  0  0  0
   10.2829   -5.0237    0.0000 O   0  0  0  0  0  0  0  0  0  0  0  0
    7.4250   -7.4987    0.0000 O   0  0  0  0  0  0  0  0  0  0  0  0
    5.9961   -7.4987    0.0000 O   0  0  0  0  0  0  0  0  0  0  0  0
    6.7105   -7.0862    0.0000 C   0  0  2  0  0  0  0  0  0  0  0  0
    6.7105   -6.2612    0.0000 C   0  0  1  0  0  0  0  0  0  0  0  0
    5.9961   -5.8487    0.0000 C   0  0  2  0  0  0  0  0  0  0  0  0
    5.2816   -6.2612    0.0000 C   0  0  1  0  0  0  0  0  0  0  0  0
    5.2816   -7.0862    0.0000 C   0  0  1  0  0  0  0  0  0  0  0  0
    4.5671   -7.4987    0.0000 C   0  0  0  0  0  0  0  0  0  0  0  0
    3.8526   -7.0862    0.0000 O   0  0  0  0  0  0  0  0  0  0  0  0
    2.4237   -7.0862    0.0000 O   0  0  0  0  0  0  0  0  0  0  0  0
    3.1382   -7.4987    0.0000 C   0  0  2  0  0  0  0  0  0  0  0  0
    3.1382   -8.3237    0.0000 C   0  0  1  0  0  0  0  0  0  0  0  0
    2.4237   -8.7362    0.0000 C   0  0  1  0  0  0  0  0  0  0  0  0
    1.7092   -8.3237    0.0000 C   0  0  2  0  0  0  0  0  0  0  0  0
    1.7092   -7.4987    0.0000 C   0  0  2  0  0  0  0  0  0  0  0  0
    0.9948   -7.0862    0.0000 C   0  0  0  0  0  0  0  0  0  0  0  0
    0.9948   -8.7362    0.0000 O   0  0  0  0  0  0  0  0  0  0  0  0
    2.4237   -9.5612    0.0000 O   0  0  0  0  0  0  0  0  0  0  0  0
    3.8526   -8.7362    0.0000 O   0  0  0  0  0  0  0  0  0  0  0  0
    4.5671   -5.8487    0.0000 O   0  0  0  0  0  0  0  0  0  0  0  0
    5.9961   -5.0237    0.0000 O   0  0  0  0  0  0  0  0  0  0  0  0
    7.4250   -5.8487    0.0000 O   0  0  0  0  0  0  0  0  0  0  0  0
   11.7118   -5.8487    0.0000 O   0  0  0  0  0  0  0  0  0  0  0  0
   12.4263   -6.2612    0.0000 C   0  0  0  0  0  0  0  0  0  0  0  0
   11.7118   -7.4987    0.0000 C   0  0  0  0  0  0  0  0  0  0  0  0
   12.4263   -7.0862    0.0000 C   0  0  0  0  0  0  0  0  0  0  0  0
   13.1408   -7.4987    0.0000 C   0  0  0  0  0  0  0  0  0  0  0  0
   13.1408   -8.3237    0.0000 C   0  0  0  0  0  0  0  0  0  0  0  0
   12.4263   -8.7362    0.0000 C   0  0  0  0  0  0  0  0  0  0  0  0
   11.7118   -8.3237    0.0000 C   0  0  0  0  0  0  0  0  0  0  0  0
   13.8552   -8.7362    0.0000 O   0  0  0  0  0  0  0  0  0  0  0  0
    8.8539   -5.0237    0.0000 O   0  0  0  0  0  0  0  0  0  0  0  0
  1  2  2  0  0  0  0
  2  3  1  0  0  0  0
  3  4  1  0  0  0  0
  4  5  1  0  0  0  0
  5  6  2  0  0  0  0
  6  7  1  0  0  0  0
  7  8  2  0  0  0  0
  8  9  1  0  0  0  0
  4  9  2  0  0  0  0
  9 10  1  0  0  0  0
  1 10  1  0  0  0  0
  3 11  2  0  0  0  0
 13 14  1  0  0  0  0
 14 15  1  0  0  0  0
 15 16  1  0  0  0  0
 16 17  1  0  0  0  0
 17 18  1  0  0  0  0
 13 18  1  0  0  0  0
 21 22  1  0  0  0  0
 22 23  1  0  0  0  0
 23 24  1  0  0  0  0
 24 25  1  0  0  0  0
 25 26  1  0  0  0  0
 21 26  1  0  0  0  0
 26 27  1  6  0  0  0
 25 28  1  1  0  0  0
 24 29  1  6  0  0  0
 23 30  1  6  0  0  0
 22 20  1  1  0  0  0
 19 20  1  0  0  0  0
 18 19  1  6  0  0  0
 17 31  1  1  0  0  0
 16 32  1  6  0  0  0
 15 33  1  1  0  0  0
 14 12  1  6  0  0  0
  7 12  1  0  0  0  0
 34 35  1  0  0  0  0
  2 34  1  0  0  0  0
 36 37  1  0  0  0  0
 37 38  2  0  0  0  0
 38 39  1  0  0  0  0
 39 40  2  0  0  0  0
 40 41  1  0  0  0  0
 36 41  2  0  0  0  0
 39 42  1  0  0  0  0
  1 36  1  0  0  0  0
  5 43  1  0  0  0  0
M  END
>  <cdx:groupId>
166

>  <cdx:fragmentId>
76

$$$$
