303048.cdx
  Mrv1902 05222410262D          

 14 17  0  0  0  0            999 V2000
    8.0732   -7.6259    0.0000 C   0  0  0  0  0  0  0  0  0  0  0  0
    7.3588   -8.0384    0.0000 C   0  0  0  0  0  0  0  0  0  0  0  0
    6.9463   -8.7529    0.0000 C   0  0  0  0  0  0  0  0  0  0  0  0
    6.2318   -8.3404    0.0000 C   0  0  0  0  0  0  0  0  0  0  0  0
    6.6443   -7.6259    0.0000 C   0  0  0  0  0  0  0  0  0  0  0  0
    6.6443   -6.8009    0.0000 C   0  0  0  0  0  0  0  0  0  0  0  0
    7.3588   -6.3884    0.0000 C   0  0  0  0  0  0  0  0  0  0  0  0
    8.0732   -6.8009    0.0000 C   0  0  0  0  0  0  0  0  0  0  0  0
    8.8579   -6.5460    0.0000 C   0  0  0  0  0  0  0  0  0  0  0  0
    9.3428   -7.2134    0.0000 C   0  0  0  0  0  0  0  0  0  0  0  0
    8.8579   -7.8809    0.0000 C   0  0  0  0  0  0  0  0  0  0  0  0
    8.6373   -7.5022    0.0000 C   0  0  0  0  0  0  0  0  0  0  0  0
    8.6373   -6.9247    0.0000 C   0  0  0  0  0  0  0  0  0  0  0  0
    9.1128   -5.7614    0.0000 O   0  0  0  0  0  0  0  0  0  0  0  0
  1  2  1  0  0  0  0
  2  3  1  0  0  0  0
  3  4  1  0  0  0  0
  4  5  1  0  0  0  0
  5  6  1  0  0  0  0
  6  7  1  0  0  0  0
  7  8  1  0  0  0  0
  8  9  1  0  0  0  0
  9 10  1  0  0  0  0
 10 11  1  0  0  0  0
 12 13  1  0  0  0  0
  1 11  1  0  0  0  0
  1 12  1  0  0  0  0
 13  8  1  0  0  0  0
  1  8  1  0  0  0  0
  2  5  1  0  0  0  0
  9 14  1  0  0  0  0
M  END
>  <cdx:fragmentId>
55

$$$$
