303101.cdx
  Mrv1902 05222410262D          

 34 38  0  0  0  0            999 V2000
    7.6333   -7.7986    0.0000 C   0  0  2  0  0  0  0  0  0  0  0  0
    7.9341   -8.5668    0.0000 C   0  0  0  0  0  0  0  0  0  0  0  0
    8.7223   -8.8105    0.0000 C   0  0  0  0  0  0  0  0  0  0  0  0
    9.4043   -8.3463    0.0000 C   0  0  0  0  0  0  0  0  0  0  0  0
    9.4665   -7.5236    0.0000 C   0  0  0  0  0  0  0  0  0  0  0  0
    8.8621   -6.9621    0.0000 N   0  0  0  0  0  0  0  0  0  0  0  0
    8.0463   -7.0845    0.0000 C   0  0  2  0  0  0  0  0  0  0  0  0
    7.6343   -6.3697    0.0000 C   0  0  2  0  0  0  0  0  0  0  0  0
    6.8093   -6.3691    0.0000 C   0  0  1  0  0  0  0  0  0  0  0  0
    6.3963   -7.0833    0.0000 C   0  0  1  0  0  0  0  0  0  0  0  0
    6.8083   -7.7981    0.0000 C   0  0  2  0  0  0  0  0  0  0  0  0
    6.2577   -5.7556    0.0000 C   0  0  1  0  0  0  0  0  0  0  0  0
    5.5037   -6.0907    0.0000 C   0  0  0  0  0  0  0  0  0  0  0  0
    5.5894   -6.9112    0.0000 O   0  0  0  0  0  0  0  0  0  0  0  0
    8.9521   -6.0945    0.0000 C   0  0  1  0  0  0  0  0  0  0  0  0
    8.2061   -5.7593    0.0000 C   0  0  0  0  0  0  0  0  0  0  0  0
    4.7896   -5.6777    0.0000 O   0  0  0  0  0  0  0  0  0  0  0  0
    6.3953   -8.5122    0.0000 C   0  0  0  0  0  0  0  0  0  0  0  0
    5.5703   -8.5122    0.0000 C   0  0  0  0  0  0  0  0  0  0  0  0
   11.7933   -5.4962    0.0000 C   0  0  0  0  0  0  0  0  0  0  0  0
    9.0837   -5.0994    0.0000 H   0  0  0  0  0  0  0  0  0  0  0  0
   10.8981   -3.9387    0.0000 O   0  0  0  0  0  0  0  0  0  0  0  0
   10.4250   -6.0082    0.0000 C   0  0  0  0  0  0  0  0  0  0  0  0
    7.5177   -5.5530    0.0000 H   0  0  0  0  0  0  0  0  0  0  0  0
   10.9731   -5.4069    0.0000 C   0  0  1  0  0  0  0  0  0  0  0  0
   10.5615   -4.6919    0.0000 C   0  0  0  0  0  0  0  0  0  0  0  0
    9.7543   -4.8624    0.0000 O   0  0  0  0  0  0  0  0  0  0  0  0
    9.6670   -5.6828    0.0000 C   0  0  2  0  0  0  0  0  0  0  0  0
    6.4297   -4.9488    0.0000 C   0  0  0  0  0  0  0  0  0  0  0  0
    6.9081   -5.5501    0.0000 H   0  0  0  0  0  0  0  0  0  0  0  0
    5.9109   -7.7504    0.0000 H   0  0  0  0  0  0  0  0  0  0  0  0
    7.3258   -8.5642    0.0000 H   0  0  0  0  0  0  0  0  0  0  0  0
    8.5105   -7.7664    0.0000 H   0  0  0  0  0  0  0  0  0  0  0  0
    8.7386   -5.2976    0.0000 H   0  0  0  0  0  0  0  0  0  0  0  0
  1  2  1  0  0  0  0
  2  3  1  0  0  0  0
  3  4  1  0  0  0  0
  4  5  1  0  0  0  0
  5  6  1  0  0  0  0
  6  7  1  0  0  0  0
  7  1  1  0  0  0  0
  7  8  1  0  0  0  0
  8  9  1  0  0  0  0
  9 10  1  0  0  0  0
 10 11  1  0  0  0  0
 11  1  1  0  0  0  0
  9 12  1  0  0  0  0
 12 13  1  0  0  0  0
 13 14  1  0  0  0  0
 14 10  1  0  0  0  0
  6 15  1  0  0  0  0
 15 16  1  0  0  0  0
 16  8  1  0  0  0  0
 13 17  2  0  0  0  0
 11 18  1  1  0  0  0
 18 19  1  0  0  0  0
 25 20  1  1  0  0  0
 15 28  1  0  0  0  0
 28 21  1  6  0  0  0
 26 22  2  0  0  0  0
 23 28  1  0  0  0  0
 25 23  1  0  0  0  0
 26 25  1  0  0  0  0
 27 26  1  0  0  0  0
 28 27  1  0  0  0  0
  8 24  1  1  0  0  0
 12 29  1  1  0  0  0
  9 30  1  6  0  0  0
 10 31  1  6  0  0  0
  1 32  1  6  0  0  0
  7 33  1  6  0  0  0
 15 34  1  6  0  0  0
M  END
>  <cdx:fragmentId>
136

$$$$
