303180.cdx
  Mrv1902 05222410212D          

 43 48  0  0  0  0            999 V2000
    9.8627   -7.0385    0.0000 O   0  0  0  0  0  0  0  0  0  0  0  0
   10.3476   -7.7060    0.0000 C   0  0  0  0  0  0  0  0  0  0  0  0
    9.8627   -8.3734    0.0000 O   0  0  0  0  0  0  0  0  0  0  0  0
    9.0781   -8.1185    0.0000 C   0  0  0  0  0  0  0  0  0  0  0  0
    9.0781   -7.2935    0.0000 C   0  0  0  0  0  0  0  0  0  0  0  0
    8.3636   -8.5310    0.0000 C   0  0  0  0  0  0  0  0  0  0  0  0
    7.6491   -8.1185    0.0000 C   0  0  0  0  0  0  0  0  0  0  0  0
    7.6491   -7.2935    0.0000 C   0  0  0  0  0  0  0  0  0  0  0  0
    8.3636   -6.8810    0.0000 C   0  0  0  0  0  0  0  0  0  0  0  0
    4.9506   -7.7060    0.0000 O   0  0  0  0  0  0  0  0  0  0  0  0
    5.4356   -8.3734    0.0000 C   0  0  0  0  0  0  0  0  0  0  0  0
    6.2202   -8.1185    0.0000 C   0  0  1  0  0  0  0  0  0  0  0  0
    6.2202   -7.2935    0.0000 C   0  0  2  0  0  0  0  0  0  0  0  0
    5.4356   -7.0385    0.0000 C   0  0  0  0  0  0  0  0  0  0  0  0
    6.9347   -6.8810    0.0000 C   0  0  2  0  0  0  0  0  0  0  0  0
    6.9347   -8.5310    0.0000 C   0  0  0  0  0  0  0  0  0  0  0  0
    5.1806   -6.2539    0.0000 O   0  0  0  0  0  0  0  0  0  0  0  0
    6.9347   -6.0560    0.0000 C   0  0  0  0  0  0  0  0  0  0  0  0
    6.2202   -5.6435    0.0000 C   0  0  0  0  0  0  0  0  0  0  0  0
    6.2202   -4.8185    0.0000 C   0  0  0  0  0  0  0  0  0  0  0  0
    6.9347   -4.4060    0.0000 C   0  0  0  0  0  0  0  0  0  0  0  0
    7.6491   -4.8185    0.0000 C   0  0  0  0  0  0  0  0  0  0  0  0
    7.6491   -5.6435    0.0000 C   0  0  0  0  0  0  0  0  0  0  0  0
    8.3636   -4.4060    0.0000 O   0  0  0  0  0  0  0  0  0  0  0  0
    9.0781   -4.8185    0.0000 C   0  0  0  0  0  0  0  0  0  0  0  0
    6.9347   -3.5810    0.0000 O   0  0  0  0  0  0  0  0  0  0  0  0
    6.2202   -3.1685    0.0000 C   0  0  0  0  0  0  0  0  0  0  0  0
    5.5057   -4.4060    0.0000 O   0  0  0  0  0  0  0  0  0  0  0  0
    4.7912   -4.8185    0.0000 C   0  0  0  0  0  0  0  0  0  0  0  0
    8.3636   -9.3560    0.0000 O   0  0  0  0  0  0  0  0  0  0  0  0
    6.9347   -9.3560    0.0000 O   0  0  0  0  0  0  0  0  0  0  0  0
    7.6491   -9.7685    0.0000 C   0  0  2  0  0  0  0  0  0  0  0  0
    7.6491  -10.5935    0.0000 C   0  0  1  0  0  0  0  0  0  0  0  0
    6.9347  -11.0060    0.0000 C   0  0  2  0  0  0  0  0  0  0  0  0
    6.2202  -10.5935    0.0000 C   0  0  1  0  0  0  0  0  0  0  0  0
    6.2202   -9.7685    0.0000 C   0  0  1  0  0  0  0  0  0  0  0  0
    5.5057   -9.3560    0.0000 C   0  0  0  0  0  0  0  0  0  0  0  0
    4.7912   -9.7685    0.0000 O   0  0  0  0  0  0  0  0  0  0  0  0
    5.5057  -11.0060    0.0000 O   0  0  0  0  0  0  0  0  0  0  0  0
    6.9347  -11.8310    0.0000 O   0  0  0  0  0  0  0  0  0  0  0  0
    8.3636  -11.0060    0.0000 O   0  0  0  0  0  0  0  0  0  0  0  0
    6.1339   -8.9389    0.0000 H   0  0  0  0  0  0  0  0  0  0  0  0
    6.1339   -6.4730    0.0000 H   0  0  0  0  0  0  0  0  0  0  0  0
  1  2  1  0  0  0  0
  2  3  1  0  0  0  0
  3  4  1  0  0  0  0
  4  5  1  0  0  0  0
  1  5  1  0  0  0  0
  6  7  1  0  0  0  0
  7  8  2  0  0  0  0
  8  9  1  0  0  0  0
  9  5  2  0  0  0  0
  6  4  2  0  0  0  0
 10 11  1  0  0  0  0
 11 12  1  0  0  0  0
 12 13  1  0  0  0  0
 13 14  1  0  0  0  0
 10 14  1  0  0  0  0
 16 12  1  0  0  0  0
 15 13  1  0  0  0  0
 16  7  1  0  0  0  0
 15  8  1  0  0  0  0
 14 17  2  0  0  0  0
 18 19  1  0  0  0  0
 19 20  2  0  0  0  0
 20 21  1  0  0  0  0
 21 22  2  0  0  0  0
 22 23  1  0  0  0  0
 18 23  2  0  0  0  0
 24 25  1  0  0  0  0
 22 24  1  0  0  0  0
 26 27  1  0  0  0  0
 21 26  1  0  0  0  0
 28 29  1  0  0  0  0
 20 28  1  0  0  0  0
 15 18  1  6  0  0  0
 31 32  1  0  0  0  0
 32 33  1  0  0  0  0
 33 34  1  0  0  0  0
 34 35  1  0  0  0  0
 35 36  1  0  0  0  0
 31 36  1  0  0  0  0
 37 38  1  0  0  0  0
 36 37  1  1  0  0  0
 35 39  1  6  0  0  0
 34 40  1  1  0  0  0
 33 41  1  6  0  0  0
 32 30  1  1  0  0  0
  6 30  1  0  0  0  0
 12 42  1  6  0  0  0
 13 43  1  1  0  0  0
M  END
>  <cdx:groupId>
177

>  <cdx:fragmentId>
46

$$$$
