303175.cdx
  Mrv1902 05222410242D          

 36 39  0  0  0  0            999 V2000
    9.4585  -11.0039    0.0000 C   0  0  0  0  0  0  0  0  0  0  0  0
   10.1730  -10.5914    0.0000 C   0  0  0  0  0  0  0  0  0  0  0  0
   10.8874  -11.0039    0.0000 C   0  0  0  0  0  0  0  0  0  0  0  0
   10.8874  -11.8289    0.0000 C   0  0  0  0  0  0  0  0  0  0  0  0
   10.1730  -12.2414    0.0000 C   0  0  0  0  0  0  0  0  0  0  0  0
    9.4585  -11.8289    0.0000 C   0  0  0  0  0  0  0  0  0  0  0  0
    9.4585   -9.3539    0.0000 C   0  0  0  0  0  0  0  0  0  0  0  0
    8.7440   -9.7664    0.0000 C   0  0  0  0  0  0  0  0  0  0  0  0
    8.7440  -10.5914    0.0000 C   0  0  0  0  0  0  0  0  0  0  0  0
    9.4585   -8.5289    0.0000 O   0  0  0  0  0  0  0  0  0  0  0  0
   10.1730   -9.7664    0.0000 O   0  0  0  0  0  0  0  0  0  0  0  0
   11.6019  -12.2414    0.0000 O   0  0  0  0  0  0  0  0  0  0  0  0
   11.6019  -10.5914    0.0000 O   0  0  0  0  0  0  0  0  0  0  0  0
    8.0295   -9.3539    0.0000 O   0  0  0  0  0  0  0  0  0  0  0  0
    7.3151   -9.7664    0.0000 C   0  0  0  0  0  0  0  0  0  0  0  0
    6.6006   -9.3539    0.0000 C   0  0  0  0  0  0  0  0  0  0  0  0
    5.8861   -9.7664    0.0000 C   0  0  0  0  0  0  0  0  0  0  0  0
    7.3151  -10.5914    0.0000 O   0  0  0  0  0  0  0  0  0  0  0  0
    4.6287   -7.3094    0.0000 O   0  0  0  0  0  0  0  0  0  0  0  0
    5.4492   -7.2232    0.0000 C   0  0  2  0  0  0  0  0  0  0  0  0
    5.7847   -7.9768    0.0000 C   0  0  0  0  0  0  0  0  0  0  0  0
    5.1717   -8.5289    0.0000 C   0  0  0  0  0  0  0  0  0  0  0  0
    4.4572   -8.1164    0.0000 C   0  0  0  0  0  0  0  0  0  0  0  0
    5.1717   -9.3539    0.0000 C   0  0  0  0  0  0  0  0  0  0  0  0
    4.4572   -9.7664    0.0000 C   0  0  0  0  0  0  0  0  0  0  0  0
    3.7427   -9.3539    0.0000 C   0  0  0  0  0  0  0  0  0  0  0  0
    3.7427   -8.5289    0.0000 C   0  0  0  0  0  0  0  0  0  0  0  0
    3.0282   -8.1164    0.0000 O   0  0  0  0  0  0  0  0  0  0  0  0
    5.8617   -6.5087    0.0000 C   0  0  0  0  0  0  0  0  0  0  0  0
    6.6867   -6.5087    0.0000 C   0  0  0  0  0  0  0  0  0  0  0  0
    7.0992   -5.7942    0.0000 C   0  0  0  0  0  0  0  0  0  0  0  0
    6.6867   -5.0797    0.0000 C   0  0  0  0  0  0  0  0  0  0  0  0
    5.8617   -5.0797    0.0000 C   0  0  0  0  0  0  0  0  0  0  0  0
    5.4492   -5.7942    0.0000 C   0  0  0  0  0  0  0  0  0  0  0  0
    7.0992   -4.3653    0.0000 O   0  0  0  0  0  0  0  0  0  0  0  0
    7.9242   -5.7942    0.0000 O   0  0  0  0  0  0  0  0  0  0  0  0
  1  2  1  0  0  0  0
  2  3  2  0  0  0  0
  3  4  1  0  0  0  0
  4  5  2  0  0  0  0
  5  6  1  0  0  0  0
  1  6  2  0  0  0  0
  7  8  1  0  0  0  0
  8  9  1  0  0  0  0
  7 10  2  0  0  0  0
  7 11  1  0  0  0  0
  1  9  1  0  0  0  0
  4 12  1  0  0  0  0
  3 13  1  0  0  0  0
 15 16  1  0  0  0  0
 16 17  2  0  0  0  0
 15 18  2  0  0  0  0
 19 20  1  0  0  0  0
 20 21  1  0  0  0  0
 21 22  1  0  0  0  0
 22 23  1  0  0  0  0
 19 23  1  0  0  0  0
 24 25  1  0  0  0  0
 25 26  2  0  0  0  0
 26 27  1  0  0  0  0
 27 23  2  0  0  0  0
 24 22  2  0  0  0  0
 27 28  1  0  0  0  0
 29 30  1  0  0  0  0
 30 31  2  0  0  0  0
 31 32  1  0  0  0  0
 32 33  2  0  0  0  0
 33 34  1  0  0  0  0
 29 34  2  0  0  0  0
 32 35  1  0  0  0  0
 31 36  1  0  0  0  0
 20 29  1  1  0  0  0
 17 24  1  0  0  0  0
 14 15  1  0  0  0  0
  8 14  1  0  0  0  0
M  END
>  <cdx:fragmentId>
183

$$$$
