30319.cdx
  Mrv1902 05222410202D          

  8  7  0  0  0  0            999 V2000
    6.4320   -7.2176    0.0000 C   0  0  0  0  0  0  0  0  0  0  0  0
    7.8609   -7.2176    0.0000 C   0  0  0  0  0  0  0  0  0  0  0  0
    5.7175   -5.9801    0.0000 C   0  0  0  0  0  0  0  0  0  0  0  0
    6.4320   -6.3926    0.0000 C   0  0  0  0  0  0  0  0  0  0  0  0
    7.1465   -5.9801    0.0000 C   0  0  0  0  0  0  0  0  0  0  0  0
    7.8609   -6.3926    0.0000 C   0  0  0  0  0  0  0  0  0  0  0  0
    8.5754   -5.9801    0.0000 C   0  0  0  0  0  0  0  0  0  0  0  0
    9.2899   -6.3926    0.0000 C   0  0  0  0  0  0  0  0  0  0  0  0
  4  1  1  0  0  0  0
  6  2  1  0  0  0  0
  4  3  1  0  0  0  0
  5  4  1  0  0  0  0
  6  5  1  0  0  0  0
  7  6  1  0  0  0  0
  8  7  1  0  0  0  0
M  END
>  <cdx:fragmentId>
3

$$$$
