303186.cdx
  Mrv1902 05222410222D          

 16 18  0  0  0  0            999 V2000
    6.4597   -5.1150    0.0000 C   0  0  0  0  0  0  0  0  0  0  0  0
    6.4597   -5.9400    0.0000 C   0  0  0  0  0  0  0  0  0  0  0  0
    7.1742   -6.3525    0.0000 C   0  0  2  0  0  0  0  0  0  0  0  0
    7.8887   -5.9400    0.0000 C   0  0  1  0  0  0  0  0  0  0  0  0
    7.8887   -5.1150    0.0000 C   0  0  0  0  0  0  0  0  0  0  0  0
    7.1742   -4.7025    0.0000 C   0  0  0  0  0  0  0  0  0  0  0  0
    8.6032   -6.3525    0.0000 C   0  0  1  0  0  0  0  0  0  0  0  0
    9.3176   -5.9400    0.0000 C   0  0  1  0  0  0  0  0  0  0  0  0
    9.3176   -5.1150    0.0000 C   0  0  0  0  0  0  0  0  0  0  0  0
    8.6032   -4.7025    0.0000 C   0  0  0  0  0  0  0  0  0  0  0  0
    5.7453   -4.7025    0.0000 O   0  0  0  0  0  0  0  0  0  0  0  0
    9.5312   -6.7369    0.0000 C   0  0  0  0  0  0  0  0  0  0  0  0
   10.0751   -7.3572    0.0000 C   0  0  0  0  0  0  0  0  0  0  0  0
    9.0506   -7.4075    0.0000 C   0  0  0  0  0  0  0  0  0  0  0  0
    7.1742   -7.1775    0.0000 C   0  0  0  0  0  0  0  0  0  0  0  0
    8.6032   -5.5275    0.0000 C   0  0  0  0  0  0  0  0  0  0  0  0
  1  2  1  0  0  0  0
  2  3  1  0  0  0  0
  3  4  1  0  0  0  0
  4  5  1  0  0  0  0
  5  6  2  0  0  0  0
  6  1  1  0  0  0  0
  4  7  1  0  0  0  0
  7  8  1  0  0  0  0
  8  9  1  0  0  0  0
  9 10  1  0  0  0  0
 10  5  1  0  0  0  0
  1 11  2  0  0  0  0
  8 12  1  1  0  0  0
  7 12  1  1  0  0  0
 12 13  1  0  0  0  0
 12 14  1  0  0  0  0
  3 15  1  6  0  0  0
  4 16  1  6  0  0  0
M  END
>  <cdx:fragmentId>
5

$$$$
