30316.cdx
  Mrv1902 05222410272D          

 17 17  0  0  0  0            999 V2000
    3.7981   -9.0254    0.0000 C   0  0  0  0  0  0  0  0  0  0  0  0
    4.5094   -8.6075    0.0000 C   0  0  0  0  0  0  0  0  0  0  0  0
    4.5031   -7.7825    0.0000 N   0  0  0  0  0  0  0  0  0  0  0  0
    3.7854   -7.3755    0.0000 C   0  0  0  0  0  0  0  0  0  0  0  0
    3.0742   -7.7935    0.0000 C   0  0  0  0  0  0  0  0  0  0  0  0
    3.0805   -8.6184    0.0000 C   0  0  0  0  0  0  0  0  0  0  0  0
    5.2213   -7.3860    0.0000 C   0  0  0  0  0  0  0  0  0  0  0  0
    5.9349   -7.7999    0.0000 C   0  0  0  0  0  0  0  0  0  0  0  0
    6.6503   -7.3889    0.0000 C   0  0  0  0  0  0  0  0  0  0  0  0
    7.3639   -7.8029    0.0000 C   0  0  0  0  0  0  0  0  0  0  0  0
    8.0792   -7.3919    0.0000 C   0  0  0  0  0  0  0  0  0  0  0  0
    8.7928   -7.8058    0.0000 C   0  0  0  0  0  0  0  0  0  0  0  0
    9.5081   -7.3948    0.0000 C   0  0  0  0  0  0  0  0  0  0  0  0
   10.2218   -7.8088    0.0000 C   0  0  0  0  0  0  0  0  0  0  0  0
   10.9371   -7.3977    0.0000 C   0  0  0  0  0  0  0  0  0  0  0  0
   11.6507   -7.8117    0.0000 C   0  0  0  0  0  0  0  0  0  0  0  0
    5.2301   -6.5610    0.0000 O   0  0  0  0  0  0  0  0  0  0  0  0
  1  2  1  0  0  0  0
  2  3  1  0  0  0  0
  3  4  1  0  0  0  0
  4  5  1  0  0  0  0
  5  6  1  0  0  0  0
  6  1  1  0  0  0  0
  7  8  1  0  0  0  0
  8  9  2  0  0  0  0
  9 10  1  0  0  0  0
 10 11  2  0  0  0  0
 11 12  1  0  0  0  0
 12 13  1  0  0  0  0
 13 14  1  0  0  0  0
 14 15  1  0  0  0  0
 15 16  1  0  0  0  0
  7  3  1  0  0  0  0
  7 17  2  0  0  0  0
M  END
>  <cdx:fragmentId>
21

$$$$
