30317.cdx
  Mrv1902 05222410272D          

 18 19  0  0  0  0            999 V2000
    8.8317   -7.5791    0.0000 C   0  0  0  0  0  0  0  0  0  0  0  0
    9.5500   -7.1733    0.0000 C   0  0  0  0  0  0  0  0  0  0  0  0
    9.5576   -6.3483    0.0000 C   0  0  0  0  0  0  0  0  0  0  0  0
    8.8470   -5.9292    0.0000 C   0  0  0  0  0  0  0  0  0  0  0  0
    8.1287   -6.3351    0.0000 C   0  0  0  0  0  0  0  0  0  0  0  0
    8.1211   -7.1600    0.0000 C   0  0  0  0  0  0  0  0  0  0  0  0
   10.2759   -5.9425    0.0000 O   0  0  0  0  0  0  0  0  0  0  0  0
    7.4028   -7.5659    0.0000 C   0  0  0  0  0  0  0  0  0  0  0  0
    7.3952   -8.3909    0.0000 O   0  0  0  0  0  0  0  0  0  0  0  0
    6.6922   -7.1468    0.0000 C   0  0  0  0  0  0  0  0  0  0  0  0
    6.6999   -6.3218    0.0000 C   0  0  0  0  0  0  0  0  0  0  0  0
    5.9892   -5.9027    0.0000 C   0  0  0  0  0  0  0  0  0  0  0  0
    5.2710   -6.3086    0.0000 C   0  0  0  0  0  0  0  0  0  0  0  0
    5.2633   -7.1336    0.0000 C   0  0  0  0  0  0  0  0  0  0  0  0
    5.9740   -7.5527    0.0000 C   0  0  0  0  0  0  0  0  0  0  0  0
    4.5604   -5.8895    0.0000 O   0  0  0  0  0  0  0  0  0  0  0  0
    3.8421   -6.2954    0.0000 C   0  0  0  0  0  0  0  0  0  0  0  0
    7.4181   -5.9160    0.0000 O   0  0  0  0  0  0  0  0  0  0  0  0
  1  2  2  0  0  0  0
  2  3  1  0  0  0  0
  3  4  2  0  0  0  0
  4  5  1  0  0  0  0
  5  6  2  0  0  0  0
  6  1  1  0  0  0  0
  3  7  1  0  0  0  0
  6  8  1  0  0  0  0
  8  9  2  0  0  0  0
  8 10  1  0  0  0  0
 10 11  2  0  0  0  0
 11 12  1  0  0  0  0
 12 13  2  0  0  0  0
 13 14  1  0  0  0  0
 14 15  2  0  0  0  0
 15 10  1  0  0  0  0
 13 16  1  0  0  0  0
 16 17  1  0  0  0  0
 11 18  1  0  0  0  0
M  END
>  <cdx:fragmentId>
5

$$$$
