30314.cdx
  Mrv1902 05222410262D          

 10  9  0  0  0  0            999 V2000
    8.9726   -9.1701    0.0000 C   0  0  0  0  0  0  0  0  0  0  0  0
    8.2581   -8.7576    0.0000 C   0  0  0  0  0  0  0  0  0  0  0  0
    7.5436   -9.1701    0.0000 C   0  0  0  0  0  0  0  0  0  0  0  0
    6.8292   -8.7576    0.0000 C   0  0  0  0  0  0  0  0  0  0  0  0
    6.1147   -9.1701    0.0000 C   0  0  0  0  0  0  0  0  0  0  0  0
    5.4002   -8.7576    0.0000 C   0  0  0  0  0  0  0  0  0  0  0  0
    4.6857   -9.1701    0.0000 C   0  0  0  0  0  0  0  0  0  0  0  0
    3.9713   -8.7576    0.0000 C   0  0  0  0  0  0  0  0  0  0  0  0
    7.5436   -9.9951    0.0000 O   0  0  0  0  0  0  0  0  0  0  0  0
    8.2581   -7.9326    0.0000 O   0  0  0  0  0  0  0  0  0  0  0  0
  2  1  1  0  0  0  0
  3  2  1  0  0  0  0
  4  3  1  0  0  0  0
  5  4  1  0  0  0  0
  6  5  1  0  0  0  0
  7  6  1  0  0  0  0
  8  7  1  0  0  0  0
  3  9  2  0  0  0  0
  2 10  2  0  0  0  0
M  END
>  <cdx:fragmentId>
3

$$$$
