303177.cdx
  Mrv1902 05222410232D          

 22 23  0  0  0  0            999 V2000
   10.5077   -7.3177    0.0000 O   0  0  0  0  0  0  0  0  0  0  0  0
    9.0788   -5.6677    0.0000 O   0  0  0  0  0  0  0  0  0  0  0  0
    9.7932   -6.0802    0.0000 C   0  0  2  0  0  0  0  0  0  0  0  0
    9.7932   -6.9052    0.0000 C   0  0  1  0  0  0  0  0  0  0  0  0
    9.0788   -7.3177    0.0000 C   0  0  2  0  0  0  0  0  0  0  0  0
    8.3643   -6.9052    0.0000 C   0  0  1  0  0  0  0  0  0  0  0  0
    8.3643   -6.0802    0.0000 C   0  0  1  0  0  0  0  0  0  0  0  0
    7.6498   -5.6677    0.0000 C   0  0  0  0  0  0  0  0  0  0  0  0
    7.6498   -4.8427    0.0000 O   0  0  0  0  0  0  0  0  0  0  0  0
    9.0788   -8.1427    0.0000 O   0  0  0  0  0  0  0  0  0  0  0  0
   10.5077   -5.6677    0.0000 O   0  0  0  0  0  0  0  0  0  0  0  0
    6.1375   -4.8330    0.0000 C   0  0  0  0  0  0  0  0  0  0  0  0
    7.6498   -7.3177    0.0000 O   0  0  0  0  0  0  0  0  0  0  0  0
    6.1375   -8.1330    0.0000 O   0  0  0  0  0  0  0  0  0  0  0  0
    4.7086   -7.3080    0.0000 O   0  0  0  0  0  0  0  0  0  0  0  0
    4.7086   -5.6580    0.0000 O   0  0  0  0  0  0  0  0  0  0  0  0
    6.8520   -6.8955    0.0000 C   0  0  1  0  0  0  0  0  0  0  0  0
    6.1375   -7.3080    0.0000 C   0  0  1  0  0  0  0  0  0  0  0  0
    5.4230   -6.8955    0.0000 C   0  0  1  0  0  0  0  0  0  0  0  0
    5.4230   -6.0705    0.0000 C   0  0  2  0  0  0  0  0  0  0  0  0
    6.1375   -5.6580    0.0000 C   0  0  1  0  0  0  0  0  0  0  0  0
    6.8520   -6.0705    0.0000 O   0  0  0  0  0  0  0  0  0  0  0  0
 17 13  1  1  0  0  0
 21 12  1  6  0  0  0
 18 14  1  6  0  0  0
 19 15  1  6  0  0  0
 20 16  1  1  0  0  0
 22 17  1  0  0  0  0
 18 17  1  0  0  0  0
 19 18  1  0  0  0  0
 20 19  1  0  0  0  0
 21 20  1  0  0  0  0
 22 21  1  0  0  0  0
  2  3  1  0  0  0  0
  3  4  1  0  0  0  0
  4  5  1  0  0  0  0
  5  6  1  0  0  0  0
  6  7  1  0  0  0  0
  2  7  1  0  0  0  0
  8  9  1  0  0  0  0
  7  8  1  1  0  0  0
  6 13  1  6  0  0  0
  5 10  1  1  0  0  0
  3 11  1  1  0  0  0
  4  1  1  6  0  0  0
M  END
>  <cdx:groupId>
69

>  <cdx:fragmentId>
25

$$$$
