303176.cdx
  Mrv1902 05222410242D          

 26 29  0  0  0  0            999 V2000
    8.7045   -7.3425    0.0000 C   0  0  0  0  0  0  0  0  0  0  0  0
    9.4189   -7.7550    0.0000 C   0  0  0  0  0  0  0  0  0  0  0  0
    9.4189   -8.5800    0.0000 C   0  0  0  0  0  0  0  0  0  0  0  0
    8.7045   -8.9925    0.0000 C   0  0  0  0  0  0  0  0  0  0  0  0
    7.9900   -8.5800    0.0000 N   0  3  0  0  0  0  0  0  0  0  0  0
    7.2755   -8.9925    0.0000 C   0  0  0  0  0  0  0  0  0  0  0  0
    6.5610   -8.5800    0.0000 C   0  0  0  0  0  0  0  0  0  0  0  0
    6.5610   -7.7550    0.0000 C   0  0  0  0  0  0  0  0  0  0  0  0
    7.2755   -7.3425    0.0000 C   0  0  0  0  0  0  0  0  0  0  0  0
    7.9900   -7.7550    0.0000 C   0  0  0  0  0  0  0  0  0  0  0  0
   10.1334   -7.3425    0.0000 C   0  0  0  0  0  0  0  0  0  0  0  0
   10.1334   -6.5175    0.0000 C   0  0  0  0  0  0  0  0  0  0  0  0
    9.4189   -6.1050    0.0000 C   0  0  0  0  0  0  0  0  0  0  0  0
    8.7045   -6.5175    0.0000 C   0  0  0  0  0  0  0  0  0  0  0  0
    5.8466   -7.3425    0.0000 C   0  0  0  0  0  0  0  0  0  0  0  0
    5.1321   -7.7550    0.0000 C   0  0  0  0  0  0  0  0  0  0  0  0
    5.1321   -8.5800    0.0000 C   0  0  0  0  0  0  0  0  0  0  0  0
    5.8466   -8.9925    0.0000 C   0  0  0  0  0  0  0  0  0  0  0  0
    7.9900   -9.4050    0.0000 C   0  0  0  0  0  0  0  0  0  0  0  0
    4.4176   -8.9925    0.0000 O   0  0  0  0  0  0  0  0  0  0  0  0
    3.7032   -8.5800    0.0000 C   0  0  0  0  0  0  0  0  0  0  0  0
    5.8466   -9.8175    0.0000 O   0  0  0  0  0  0  0  0  0  0  0  0
    5.1321  -10.2300    0.0000 C   0  0  0  0  0  0  0  0  0  0  0  0
    9.4189   -5.2800    0.0000 O   0  0  0  0  0  0  0  0  0  0  0  0
   10.1334   -4.8675    0.0000 C   0  0  0  0  0  0  0  0  0  0  0  0
   10.8479   -6.1050    0.0000 O   0  0  0  0  0  0  0  0  0  0  0  0
  1  2  1  0  0  0  0
  2  3  1  0  0  0  0
  3  4  1  0  0  0  0
  4  5  1  0  0  0  0
  5  6  1  0  0  0  0
  6  7  1  0  0  0  0
  7  8  1  0  0  0  0
  8  9  1  0  0  0  0
  9 10  1  0  0  0  0
  5 10  1  0  0  0  0
  1 10  1  0  0  0  0
 11 12  1  0  0  0  0
 12 13  2  0  0  0  0
 13 14  1  0  0  0  0
 14  1  2  0  0  0  0
 11  2  2  0  0  0  0
 15 16  1  0  0  0  0
 16 17  2  0  0  0  0
 17 18  1  0  0  0  0
 18  7  2  0  0  0  0
 15  8  2  0  0  0  0
  5 19  1  0  0  0  0
 20 21  1  0  0  0  0
 17 20  1  0  0  0  0
 22 23  1  0  0  0  0
 18 22  1  0  0  0  0
 24 25  1  0  0  0  0
 13 24  1  0  0  0  0
 12 26  1  0  0  0  0
M  CHG  1   5   1
M  END
>  <cdx:groupId>
323

>  <cdx:fragmentId>
245

$$$$
