303179.cdx
  Mrv1902 05222410222D          

 27 30  0  0  0  0            999 V2000
    8.5713   -6.9379    0.0000 C   0  0  0  0  0  0  0  0  0  0  0  0
    7.8569   -7.3504    0.0000 C   0  0  0  0  0  0  0  0  0  0  0  0
    7.1424   -6.9379    0.0000 C   0  0  0  0  0  0  0  0  0  0  0  0
    6.4279   -7.3504    0.0000 C   0  0  0  0  0  0  0  0  0  0  0  0
    5.7135   -6.9379    0.0000 C   0  0  0  0  0  0  0  0  0  0  0  0
    4.9990   -7.3504    0.0000 C   0  0  0  0  0  0  0  0  0  0  0  0
    4.9990   -8.1754    0.0000 C   0  0  0  0  0  0  0  0  0  0  0  0
    5.7135   -8.5879    0.0000 C   0  0  0  0  0  0  0  0  0  0  0  0
    6.4279   -8.1754    0.0000 C   0  0  0  0  0  0  0  0  0  0  0  0
    7.1424   -8.5879    0.0000 C   0  0  0  0  0  0  0  0  0  0  0  0
    7.8569   -8.1754    0.0000 C   0  0  0  0  0  0  0  0  0  0  0  0
    8.5713   -8.5879    0.0000 N   0  0  0  0  0  0  0  0  0  0  0  0
    9.2858   -8.1754    0.0000 C   0  0  0  0  0  0  0  0  0  0  0  0
    9.2858   -7.3504    0.0000 C   0  0  0  0  0  0  0  0  0  0  0  0
   10.0003   -6.9379    0.0000 C   0  0  0  0  0  0  0  0  0  0  0  0
   10.7849   -7.1929    0.0000 O   0  0  0  0  0  0  0  0  0  0  0  0
   11.2698   -6.5254    0.0000 C   0  0  0  0  0  0  0  0  0  0  0  0
   10.7849   -5.8580    0.0000 O   0  0  0  0  0  0  0  0  0  0  0  0
   10.0003   -6.1129    0.0000 C   0  0  0  0  0  0  0  0  0  0  0  0
    9.2858   -5.7004    0.0000 C   0  0  0  0  0  0  0  0  0  0  0  0
    8.5713   -6.1129    0.0000 C   0  0  0  0  0  0  0  0  0  0  0  0
    7.1424   -6.1129    0.0000 O   0  0  0  0  0  0  0  0  0  0  0  0
    8.5713   -9.4129    0.0000 C   0  0  0  0  0  0  0  0  0  0  0  0
    4.2845   -8.5879    0.0000 O   0  0  0  0  0  0  0  0  0  0  0  0
    3.5700   -8.1754    0.0000 C   0  0  0  0  0  0  0  0  0  0  0  0
    4.2845   -6.9379    0.0000 O   0  0  0  0  0  0  0  0  0  0  0  0
    3.5700   -7.3504    0.0000 C   0  0  0  0  0  0  0  0  0  0  0  0
  1  2  1  0  0  0  0
  2  3  1  0  0  0  0
  3  4  1  0  0  0  0
  4  5  2  0  0  0  0
  5  6  1  0  0  0  0
  6  7  2  0  0  0  0
  7  8  1  0  0  0  0
  8  9  2  0  0  0  0
  9 10  1  0  0  0  0
 10 11  1  0  0  0  0
 11 12  1  0  0  0  0
 12 13  1  0  0  0  0
 13 14  1  0  0  0  0
 14 15  1  0  0  0  0
 15 16  1  0  0  0  0
 16 17  1  0  0  0  0
 17 18  1  0  0  0  0
 18 19  1  0  0  0  0
 19 20  1  0  0  0  0
 20 21  2  0  0  0  0
  1 21  1  0  0  0  0
  1 14  2  0  0  0  0
 15 19  2  0  0  0  0
  4  9  1  0  0  0  0
  3 22  2  0  0  0  0
 12 23  1  0  0  0  0
 24 25  1  0  0  0  0
  7 24  1  0  0  0  0
 26 27  1  0  0  0  0
  6 26  1  0  0  0  0
M  END
>  <cdx:fragmentId>
278

$$$$
