30312.cdx
  Mrv1902 05222410272D          

 11 12  0  0  0  0            999 V2000
    4.6318   -8.3864    0.0000 C   0  0  0  0  0  0  0  0  0  0  0  0
    4.6318   -9.2114    0.0000 C   0  0  0  0  0  0  0  0  0  0  0  0
    5.3463   -9.6239    0.0000 C   0  0  0  0  0  0  0  0  0  0  0  0
    6.0607   -9.2114    0.0000 C   0  0  0  0  0  0  0  0  0  0  0  0
    6.0607   -8.3864    0.0000 C   0  0  0  0  0  0  0  0  0  0  0  0
    5.3463   -7.9739    0.0000 C   0  0  0  0  0  0  0  0  0  0  0  0
    6.8454   -9.4663    0.0000 C   0  0  0  0  0  0  0  0  0  0  0  0
    7.3303   -8.7989    0.0000 C   0  0  0  0  0  0  0  0  0  0  0  0
    6.8454   -8.1315    0.0000 C   0  0  0  0  0  0  0  0  0  0  0  0
    5.3463   -7.1489    0.0000 C   0  0  0  0  0  0  0  0  0  0  0  0
    5.3463  -10.4489    0.0000 C   0  0  0  0  0  0  0  0  0  0  0  0
  1  2  2  0  0  0  0
  2  3  1  0  0  0  0
  3  4  2  0  0  0  0
  4  5  1  0  0  0  0
  5  6  2  0  0  0  0
  6  1  1  0  0  0  0
  4  7  1  0  0  0  0
  7  8  1  0  0  0  0
  8  9  1  0  0  0  0
  9  5  1  0  0  0  0
  6 10  1  0  0  0  0
  3 11  1  0  0  0  0
M  END
>  <cdx:fragmentId>
5

$$$$
