303169.cdx
  Mrv1902 05222410212D          

 15 18  0  0  0  0            999 V2000
    8.4967   -7.9612    0.0000 C   0  0  0  0  0  0  0  0  0  0  0  0
    8.4967   -7.1362    0.0000 C   0  0  0  0  0  0  0  0  0  0  0  0
    8.4967   -6.3113    0.0000 C   0  0  0  0  0  0  0  0  0  0  0  0
    7.7822   -6.7237    0.0000 C   0  0  0  0  0  0  0  0  0  0  0  0
    7.0678   -7.1362    0.0000 C   0  0  0  0  0  0  0  0  0  0  0  0
    6.3533   -7.5487    0.0000 C   0  0  0  0  0  0  0  0  0  0  0  0
    7.0678   -7.9612    0.0000 C   0  0  0  0  0  0  0  0  0  0  0  0
    7.7822   -8.3737    0.0000 C   0  0  0  0  0  0  0  0  0  0  0  0
    8.4967   -8.7862    0.0000 C   0  0  0  0  0  0  0  0  0  0  0  0
    9.2112   -9.1987    0.0000 C   0  0  0  0  0  0  0  0  0  0  0  0
    8.4967   -9.6112    0.0000 C   0  0  0  0  0  0  0  0  0  0  0  0
    5.6388   -7.9612    0.0000 C   0  0  0  0  0  0  0  0  0  0  0  0
    5.6388   -7.1362    0.0000 C   0  0  0  0  0  0  0  0  0  0  0  0
    8.4967   -5.4862    0.0000 C   0  0  0  0  0  0  0  0  0  0  0  0
    9.2112   -5.8988    0.0000 C   0  0  0  0  0  0  0  0  0  0  0  0
  1  2  1  0  0  0  0
  2  3  1  0  0  0  0
  3  4  1  0  0  0  0
  4  5  1  0  0  0  0
  5  6  1  0  0  0  0
  6  7  1  0  0  0  0
  7  8  1  0  0  0  0
  8  9  1  0  0  0  0
  1  9  1  0  0  0  0
  1  8  1  0  0  0  0
  5  7  1  0  0  0  0
  2  4  1  0  0  0  0
  9 10  1  0  0  0  0
  9 11  1  0  0  0  0
  6 12  1  0  0  0  0
  6 13  1  0  0  0  0
  3 14  1  0  0  0  0
  3 15  1  0  0  0  0
M  END
>  <cdx:groupId>
101

>  <cdx:fragmentId>
56

$$$$
