303268.cdx
  Mrv1902 05222410182D          

 16 17  0  0  0  0            999 V2000
    7.9002   -5.1785    0.0000 C   0  0  0  0  0  0  0  0  0  0  0  0
    8.6140   -5.5921    0.0000 C   0  0  0  0  0  0  0  0  0  0  0  0
    8.6127   -6.4171    0.0000 C   0  0  0  0  0  0  0  0  0  0  0  0
    7.8976   -6.8285    0.0000 C   0  0  0  0  0  0  0  0  0  0  0  0
    7.1838   -6.4149    0.0000 C   0  0  2  0  0  0  0  0  0  0  0  0
    6.4687   -6.8262    0.0000 C   0  0  0  0  0  0  0  0  0  0  0  0
    5.7548   -6.4126    0.0000 C   0  0  0  0  0  0  0  0  0  0  0  0
    5.7562   -5.5876    0.0000 C   0  0  2  0  0  0  0  0  0  0  0  0
    6.4713   -5.1762    0.0000 C   0  0  0  0  0  0  0  0  0  0  0  0
    7.1851   -5.5899    0.0000 C   0  0  0  0  0  0  0  0  0  0  0  0
    9.3292   -5.1808    0.0000 O   0  0  0  0  0  0  0  0  0  0  0  0
    5.0437   -4.3489    0.0000 C   0  0  0  0  0  0  0  0  0  0  0  0
    5.0423   -5.1739    0.0000 C   0  0  0  0  0  0  0  0  0  0  0  0
    4.3272   -5.5853    0.0000 C   0  0  0  0  0  0  0  0  0  0  0  0
    7.1825   -7.2399    0.0000 C   0  0  0  0  0  0  0  0  0  0  0  0
    7.9015   -4.3535    0.0000 C   0  0  0  0  0  0  0  0  0  0  0  0
  1  2  1  0  0  0  0
  2  3  1  0  0  0  0
  3  4  1  0  0  0  0
  4  5  1  0  0  0  0
  5  6  1  0  0  0  0
  6  7  1  0  0  0  0
  7  8  1  0  0  0  0
  8  9  1  0  0  0  0
  9 10  1  0  0  0  0
  1 10  2  0  0  0  0
  5 10  1  0  0  0  0
  2 11  2  0  0  0  0
 12 13  2  0  0  0  0
 13 14  1  0  0  0  0
  8 13  1  1  0  0  0
  5 15  1  1  0  0  0
  1 16  1  0  0  0  0
M  END
>  <cdx:fragmentId>
24291

$$$$
