30328.cdx
  Mrv1902 05222410262D          

 13 13  0  0  0  0            999 V2000
    5.5806   -9.0464    0.0000 C   0  0  0  0  0  0  0  0  0  0  0  0
    5.5806   -9.8714    0.0000 C   0  0  0  0  0  0  0  0  0  0  0  0
    6.2950  -10.2839    0.0000 C   0  0  0  0  0  0  0  0  0  0  0  0
    7.0095   -9.8714    0.0000 C   0  0  0  0  0  0  0  0  0  0  0  0
    7.0095   -9.0464    0.0000 C   0  0  0  0  0  0  0  0  0  0  0  0
    6.2950   -8.6339    0.0000 C   0  0  0  0  0  0  0  0  0  0  0  0
    6.2950  -11.1089    0.0000 C   0  0  0  0  0  0  0  0  0  0  0  0
    4.8661  -10.2839    0.0000 O   0  0  0  0  0  0  0  0  0  0  0  0
    6.2950   -7.8089    0.0000 C   0  0  0  0  0  0  0  0  0  0  0  0
    7.0095   -7.3964    0.0000 O   0  0  0  0  0  0  0  0  0  0  0  0
    7.0095   -6.5714    0.0000 C   0  0  0  0  0  0  0  0  0  0  0  0
    7.7240   -8.6339    0.0000 O   0  0  0  0  0  0  0  0  0  0  0  0
    4.8661   -8.6339    0.0000 C   0  0  0  0  0  0  0  0  0  0  0  0
  1  2  1  0  0  0  0
  2  3  1  0  0  0  0
  3  4  2  0  0  0  0
  4  5  1  0  0  0  0
  5  6  1  0  0  0  0
  6  1  2  0  0  0  0
  3  7  1  0  0  0  0
  2  8  2  0  0  0  0
  6  9  1  0  0  0  0
  9 10  1  0  0  0  0
 10 11  1  0  0  0  0
  5 12  2  0  0  0  0
  1 13  1  0  0  0  0
M  END
>  <cdx:fragmentId>
5

$$$$
