30323.cdx
  Mrv1902 05222410192D          

  7  7  0  0  0  0            999 V2000
    5.6805   -6.8755    0.0000 C   0  0  0  0  0  0  0  0  0  0  0  0
    5.4244   -7.6598    0.0000 C   0  0  0  0  0  0  0  0  0  0  0  0
    6.0912   -8.1456    0.0000 S   0  0  0  0  0  0  0  0  0  0  0  0
    6.7593   -7.6617    0.0000 C   0  0  0  0  0  0  0  0  0  0  0  0
    6.5055   -6.8767    0.0000 N   0  0  0  0  0  0  0  0  0  0  0  0
    4.6394   -7.9136    0.0000 C   0  0  0  0  0  0  0  0  0  0  0  0
    7.5436   -7.9177    0.0000 C   0  0  0  0  0  0  0  0  0  0  0  0
  1  2  2  0  0  0  0
  2  3  1  0  0  0  0
  3  4  1  0  0  0  0
  4  5  2  0  0  0  0
  5  1  1  0  0  0  0
  2  6  1  0  0  0  0
  4  7  1  0  0  0  0
M  END
>  <cdx:fragmentId>
5

$$$$
