303203.cdx
  Mrv1902 05222410242D          

 32 35  0  0  0  0            999 V2000
    8.8575   -7.4825    0.0000 O   0  0  0  0  0  0  0  0  0  0  0  0
    6.7109   -7.8782    0.0000 O   0  0  0  0  0  0  0  0  0  0  0  0
    7.4286   -7.4713    0.0000 C   0  0  2  0  0  0  0  0  0  0  0  0
    8.1398   -7.8894    0.0000 C   0  0  1  0  0  0  0  0  0  0  0  0
    8.1333   -8.7144    0.0000 C   0  0  2  0  0  0  0  0  0  0  0  0
    7.4156   -9.1213    0.0000 C   0  0  1  0  0  0  0  0  0  0  0  0
    6.7044   -8.7032    0.0000 C   0  0  1  0  0  0  0  0  0  0  0  0
    5.9867   -9.1101    0.0000 C   0  0  0  0  0  0  0  0  0  0  0  0
    5.9747   -9.9350    0.0000 O   0  0  0  0  0  0  0  0  0  0  0  0
    7.4091   -9.9463    0.0000 O   0  0  0  0  0  0  0  0  0  0  0  0
    8.8445   -9.1325    0.0000 O   0  0  0  0  0  0  0  0  0  0  0  0
    7.4350   -6.6464    0.0000 O   0  0  0  0  0  0  0  0  0  0  0  0
    6.7303   -5.4033    0.0000 C   0  0  0  0  0  0  0  0  0  0  0  0
    6.7238   -6.2283    0.0000 C   0  0  0  0  0  0  0  0  0  0  0  0
    6.0061   -6.6352    0.0000 C   0  0  0  0  0  0  0  0  0  0  0  0
    5.2949   -6.2171    0.0000 C   0  0  0  0  0  0  0  0  0  0  0  0
    4.5772   -6.6240    0.0000 C   0  0  0  0  0  0  0  0  0  0  0  0
    3.8660   -6.2059    0.0000 C   0  0  0  0  0  0  0  0  0  0  0  0
    3.8725   -5.3809    0.0000 C   0  0  0  0  0  0  0  0  0  0  0  0
    4.5902   -4.9740    0.0000 C   0  0  0  0  0  0  0  0  0  0  0  0
    5.3014   -5.3921    0.0000 C   0  0  0  0  0  0  0  0  0  0  0  0
    6.0191   -4.9852    0.0000 O   0  3  0  0  0  0  0  0  0  0  0  0
    3.1613   -4.9628    0.0000 O   0  0  0  0  0  0  0  0  0  0  0  0
    4.5708   -7.4489    0.0000 O   0  0  0  0  0  0  0  0  0  0  0  0
    7.4480   -4.9964    0.0000 C   0  0  0  0  0  0  0  0  0  0  0  0
    8.1592   -5.4145    0.0000 C   0  0  0  0  0  0  0  0  0  0  0  0
    8.8769   -5.0076    0.0000 C   0  0  0  0  0  0  0  0  0  0  0  0
    8.8833   -4.1826    0.0000 C   0  0  0  0  0  0  0  0  0  0  0  0
    8.1721   -3.7646    0.0000 C   0  0  0  0  0  0  0  0  0  0  0  0
    7.4544   -4.1714    0.0000 C   0  0  0  0  0  0  0  0  0  0  0  0
    9.6010   -3.7758    0.0000 O   0  0  0  0  0  0  0  0  0  0  0  0
    9.5881   -5.4257    0.0000 O   0  0  0  0  0  0  0  0  0  0  0  0
  2  3  1  0  0  0  0
  3  4  1  0  0  0  0
  4  5  1  0  0  0  0
  5  6  1  0  0  0  0
  6  7  1  0  0  0  0
  2  7  1  0  0  0  0
  8  9  1  0  0  0  0
  7  8  1  1  0  0  0
  6 10  1  6  0  0  0
  5 11  1  1  0  0  0
 13 14  1  0  0  0  0
 14 15  2  0  0  0  0
 15 16  1  0  0  0  0
 16 17  1  0  0  0  0
 17 18  2  0  0  0  0
 18 19  1  0  0  0  0
 19 20  2  0  0  0  0
 20 21  1  0  0  0  0
 16 21  2  0  0  0  0
 21 22  1  0  0  0  0
 13 22  2  0  0  0  0
 19 23  1  0  0  0  0
 17 24  1  0  0  0  0
 25 26  1  0  0  0  0
 26 27  2  0  0  0  0
 27 28  1  0  0  0  0
 28 29  2  0  0  0  0
 29 30  1  0  0  0  0
 25 30  2  0  0  0  0
 28 31  1  0  0  0  0
 27 32  1  0  0  0  0
 13 25  1  0  0  0  0
 12 14  1  0  0  0  0
  3 12  1  1  0  0  0
  4  1  1  6  0  0  0
M  CHG  1  22   1
M  END
>  <cdx:fragmentId>
67191

$$$$
