30320.cdx
  Mrv1902 05222410182D          

 17 17  0  0  0  0            999 V2000
    3.8206   -6.3514    0.0000 C   0  0  0  0  0  0  0  0  0  0  0  0
    3.8206   -7.1764    0.0000 C   0  0  0  0  0  0  0  0  0  0  0  0
    4.5350   -7.5889    0.0000 C   0  0  0  0  0  0  0  0  0  0  0  0
    5.2495   -6.3514    0.0000 C   0  0  0  0  0  0  0  0  0  0  0  0
    4.5350   -5.9389    0.0000 C   0  0  0  0  0  0  0  0  0  0  0  0
    5.9640   -5.9389    0.0000 C   0  0  0  0  0  0  0  0  0  0  0  0
    6.6784   -6.3514    0.0000 C   0  0  0  0  0  0  0  0  0  0  0  0
    6.4649   -7.1483    0.0000 C   0  0  0  0  0  0  0  0  0  0  0  0
    7.0483   -7.7317    0.0000 C   0  0  0  0  0  0  0  0  0  0  0  0
    6.1212   -8.5625    0.0000 C   0  0  0  0  0  0  0  0  0  0  0  0
    4.9475   -8.3034    0.0000 C   0  0  0  0  0  0  0  0  0  0  0  0
    4.5350   -5.1139    0.0000 C   0  0  0  0  0  0  0  0  0  0  0  0
    4.4600   -8.9689    0.0000 C   0  0  0  0  0  0  0  0  0  0  0  0
    4.9946   -7.1843    0.0000 H   0  0  0  0  0  0  0  0  0  0  0  0
    5.2357   -6.8459    0.0000 H   0  0  0  0  0  0  0  0  0  0  0  0
    5.7504   -7.5608    0.0000 O   0  0  0  0  0  0  0  0  0  0  0  0
    7.4406   -6.0357    0.0000 C   0  0  0  0  0  0  0  0  0  0  0  0
  1  2  1  0  0  0  0
  2  3  1  0  0  0  0
  4  5  2  0  0  0  0
  5  1  1  0  0  0  0
  4  6  1  0  0  0  0
  6  7  1  0  0  0  0
  7  8  1  0  0  0  0
  8  9  1  0  0  0  0
  9 10  1  0  0  0  0
  3 11  2  0  0  0  0
 11 10  1  0  0  0  0
  5 12  1  0  0  0  0
 11 13  1  0  0  0  0
  3 14  1  0  0  0  0
  4 15  1  0  0  0  0
  8 16  2  0  0  0  0
  7 17  1  0  0  0  0
M  END
>  <cdx:fragmentId>
5

$$$$
