30321.cdx
  Mrv1902 05222410182D          

 13 12  0  0  0  0            999 V2000
    3.9163   -7.3689    0.0000 C   0  0  0  0  0  0  0  0  0  0  0  0
    4.6307   -7.7814    0.0000 C   0  0  0  0  0  0  0  0  0  0  0  0
    5.3452   -7.3689    0.0000 C   0  0  0  0  0  0  0  0  0  0  0  0
    6.0597   -7.7814    0.0000 C   0  0  0  0  0  0  0  0  0  0  0  0
    6.7742   -7.3689    0.0000 C   0  0  0  0  0  0  0  0  0  0  0  0
    7.4886   -7.7814    0.0000 C   0  0  0  0  0  0  0  0  0  0  0  0
    8.2031   -7.3689    0.0000 C   0  0  0  0  0  0  0  0  0  0  0  0
    8.9176   -7.7814    0.0000 C   0  0  0  0  0  0  0  0  0  0  0  0
    9.6320   -7.3689    0.0000 C   0  0  0  0  0  0  0  0  0  0  0  0
   10.3465   -7.7814    0.0000 C   0  0  0  0  0  0  0  0  0  0  0  0
    4.6307   -8.6064    0.0000 C   0  0  0  0  0  0  0  0  0  0  0  0
    7.4886   -8.6064    0.0000 C   0  0  0  0  0  0  0  0  0  0  0  0
    9.6320   -6.5439    0.0000 C   0  0  0  0  0  0  0  0  0  0  0  0
  1  2  1  0  0  0  0
  2  3  1  0  0  0  0
  3  4  1  0  0  0  0
  4  5  1  0  0  0  0
  5  6  1  0  0  0  0
  6  7  1  0  0  0  0
  7  8  1  0  0  0  0
  8  9  1  0  0  0  0
  9 10  1  0  0  0  0
  2 11  1  0  0  0  0
  6 12  1  0  0  0  0
  9 13  1  0  0  0  0
M  END
>  <cdx:fragmentId>
3

$$$$
