303274.cdx
  Mrv1902 05222410272D          

 58 63  0  0  0  0            999 V2000
    7.7643   -7.2097    0.0000 C   0  0  0  0  0  0  0  0  0  0  0  0
    7.0499   -7.6222    0.0000 C   0  0  0  0  0  0  0  0  0  0  0  0
    7.0499   -8.4472    0.0000 C   0  0  1  0  0  0  0  0  0  0  0  0
    7.7643   -8.8597    0.0000 C   0  0  0  0  0  0  0  0  0  0  0  0
    8.4788   -8.4472    0.0000 C   0  0  2  0  0  0  0  0  0  0  0  0
    9.1933   -8.8597    0.0000 C   0  0  0  0  0  0  0  0  0  0  0  0
    9.9078   -8.4472    0.0000 C   0  0  0  0  0  0  0  0  0  0  0  0
    9.9078   -7.6222    0.0000 C   0  0  1  0  0  0  0  0  0  0  0  0
   10.6222   -7.2097    0.0000 C   0  0  2  0  0  0  0  0  0  0  0  0
   11.4069   -7.4646    0.0000 C   0  0  0  0  0  0  0  0  0  0  0  0
   11.8918   -6.7972    0.0000 C   0  0  0  0  0  0  0  0  0  0  0  0
   11.4069   -6.1297    0.0000 C   0  0  1  0  0  0  0  0  0  0  0  0
   10.6222   -6.3847    0.0000 C   0  0  1  0  0  0  0  0  0  0  0  0
    9.9078   -5.9722    0.0000 C   0  0  1  0  0  0  0  0  0  0  0  0
    9.1933   -6.3847    0.0000 C   0  0  0  0  0  0  0  0  0  0  0  0
    9.1933   -7.2097    0.0000 C   0  0  2  0  0  0  0  0  0  0  0  0
    8.4788   -7.6222    0.0000 C   0  0  1  0  0  0  0  0  0  0  0  0
    6.3354   -8.8597    0.0000 O   0  0  0  0  0  0  0  0  0  0  0  0
    9.9078   -5.1472    0.0000 O   0  0  0  0  0  0  0  0  0  0  0  0
   10.6222   -8.0347    0.0000 C   0  0  0  0  0  0  0  0  0  0  0  0
    8.4788   -6.7972    0.0000 C   0  0  0  0  0  0  0  0  0  0  0  0
    9.9078   -6.7972    0.0000 C   0  0  0  0  0  0  0  0  0  0  0  0
    8.1768   -9.5741    0.0000 C   0  0  0  0  0  0  0  0  0  0  0  0
    7.3518   -9.5741    0.0000 C   0  0  0  0  0  0  0  0  0  0  0  0
   11.4903   -4.5381    0.0000 C   0  0  0  0  0  0  0  0  0  0  0  0
   11.6618   -5.3451    0.0000 C   0  0  2  0  0  0  0  0  0  0  0  0
   12.4688   -5.1736    0.0000 C   0  0  0  0  0  0  0  0  0  0  0  0
   12.7237   -4.3889    0.0000 C   0  0  0  0  0  0  0  0  0  0  0  0
   13.5307   -4.2174    0.0000 C   0  0  0  0  0  0  0  0  0  0  0  0
   13.7856   -3.4328    0.0000 C   0  0  0  0  0  0  0  0  0  0  0  0
   13.2336   -2.8197    0.0000 C   0  0  0  0  0  0  0  0  0  0  0  0
   14.5926   -3.2613    0.0000 C   0  0  0  0  0  0  0  0  0  0  0  0
   10.8772   -5.0902    0.0000 O   0  0  0  0  0  0  0  0  0  0  0  0
    8.4788   -9.2722    0.0000 H   0  0  0  0  0  0  0  0  0  0  0  0
    9.1933   -8.0347    0.0000 H   0  0  0  0  0  0  0  0  0  0  0  0
   10.7085   -5.5642    0.0000 H   0  0  0  0  0  0  0  0  0  0  0  0
   10.8772   -4.2652    0.0000 C   0  0  2  0  0  0  0  0  0  0  0  0
   11.5916   -3.8527    0.0000 O   0  0  0  0  0  0  0  0  0  0  0  0
   11.5916   -3.0277    0.0000 C   0  0  1  0  0  0  0  0  0  0  0  0
   10.8772   -2.6152    0.0000 C   0  0  2  0  0  0  0  0  0  0  0  0
   10.1627   -3.0277    0.0000 C   0  0  1  0  0  0  0  0  0  0  0  0
   10.1627   -3.8527    0.0000 C   0  0  1  0  0  0  0  0  0  0  0  0
    9.4482   -4.2652    0.0000 O   0  0  0  0  0  0  0  0  0  0  0  0
   10.8772   -1.7902    0.0000 O   0  0  0  0  0  0  0  0  0  0  0  0
    9.4482   -2.6152    0.0000 O   0  0  0  0  0  0  0  0  0  0  0  0
   12.3061   -2.6152    0.0000 C   0  0  0  0  0  0  0  0  0  0  0  0
   13.0206   -3.0277    0.0000 O   0  0  0  0  0  0  0  0  0  0  0  0
    8.4890   -3.6773    0.0000 C   0  0  2  0  0  0  0  0  0  0  0  0
    7.7746   -3.2648    0.0000 O   0  0  0  0  0  0  0  0  0  0  0  0
    7.0601   -3.6773    0.0000 C   0  0  1  0  0  0  0  0  0  0  0  0
    7.0601   -4.5023    0.0000 C   0  0  2  0  0  0  0  0  0  0  0  0
    7.7746   -4.9148    0.0000 C   0  0  1  0  0  0  0  0  0  0  0  0
    8.4890   -4.5023    0.0000 C   0  0  1  0  0  0  0  0  0  0  0  0
    7.7746   -5.7398    0.0000 O   0  0  0  0  0  0  0  0  0  0  0  0
    6.3456   -4.9148    0.0000 O   0  0  0  0  0  0  0  0  0  0  0  0
    9.2035   -4.9148    0.0000 O   0  0  0  0  0  0  0  0  0  0  0  0
    6.3456   -3.2648    0.0000 C   0  0  0  0  0  0  0  0  0  0  0  0
    5.6312   -3.6773    0.0000 O   0  0  0  0  0  0  0  0  0  0  0  0
  1  2  1  0  0  0  0
  2  3  1  0  0  0  0
  3  4  1  0  0  0  0
  4  5  1  0  0  0  0
  5  6  1  0  0  0  0
  6  7  1  0  0  0  0
  7  8  1  0  0  0  0
  8  9  1  0  0  0  0
  9 10  1  0  0  0  0
 10 11  1  0  0  0  0
 12 11  1  1  0  0  0
 12 13  1  0  0  0  0
  9 13  1  0  0  0  0
 13 14  1  0  0  0  0
 14 15  1  0  0  0  0
 15 16  1  0  0  0  0
  8 16  1  0  0  0  0
 16 17  1  0  0  0  0
  5 17  1  0  0  0  0
  1 17  1  0  0  0  0
  3 18  1  1  0  0  0
 14 19  1  1  0  0  0
  9 20  1  6  0  0  0
 17 21  1  1  0  0  0
  8 22  1  1  0  0  0
  4 23  1  0  0  0  0
  4 24  1  0  0  0  0
 26 25  1  6  0  0  0
 26 27  1  0  0  0  0
 27 28  1  0  0  0  0
 28 29  1  0  0  0  0
 29 30  2  0  0  0  0
 30 31  1  0  0  0  0
 30 32  1  0  0  0  0
 26 33  1  1  0  0  0
 12 26  1  0  0  0  0
  5 34  1  6  0  0  0
 16 35  1  6  0  0  0
 13 36  1  1  0  0  0
 37 33  1  1  0  0  0
 37 38  1  0  0  0  0
 38 39  1  0  0  0  0
 39 40  1  0  0  0  0
 40 41  1  0  0  0  0
 41 42  1  0  0  0  0
 42 37  1  0  0  0  0
 42 43  1  6  0  0  0
 40 44  1  6  0  0  0
 41 45  1  1  0  0  0
 39 46  1  1  0  0  0
 46 47  1  0  0  0  0
 48 49  1  0  0  0  0
 49 50  1  0  0  0  0
 50 51  1  0  0  0  0
 51 52  1  0  0  0  0
 52 53  1  0  0  0  0
 53 48  1  0  0  0  0
 52 54  1  1  0  0  0
 51 55  1  6  0  0  0
 53 56  1  6  0  0  0
 50 57  1  1  0  0  0
 57 58  1  0  0  0  0
 48 43  1  1  0  0  0
M  END
>  <cdx:groupId>
113

>  <cdx:fragmentId>
5

$$$$
