30324.cdx
  Mrv1902 05222410202D          

 15 16  0  0  0  0            999 V2000
    8.1429   -9.6123    0.0000 C   0  0  0  0  0  0  0  0  0  0  0  0
    7.3703   -9.9061    0.0000 C   0  0  0  0  0  0  0  0  0  0  0  0
    8.5435   -8.8923    0.0000 C   0  0  0  0  0  0  0  0  0  0  0  0
    8.3900   -8.0800    0.0000 C   0  0  0  0  0  0  0  0  0  0  0  0
    7.7497   -7.5616    0.0000 C   0  0  0  0  0  0  0  0  0  0  0  0
    6.9247   -7.5644    0.0000 C   0  0  0  0  0  0  0  0  0  0  0  0
    6.2967   -8.1006    0.0000 C   0  0  0  0  0  0  0  0  0  0  0  0
    6.1651   -8.9145    0.0000 C   0  0  0  0  0  0  0  0  0  0  0  0
    6.5958   -9.6176    0.0000 C   0  0  0  0  0  0  0  0  0  0  0  0
    9.0982   -7.6569    0.0000 C   0  0  0  0  0  0  0  0  0  0  0  0
    6.3073  -10.3921    0.0000 C   0  0  0  0  0  0  0  0  0  0  0  0
    7.0818  -10.6806    0.0000 C   0  0  0  0  0  0  0  0  0  0  0  0
    5.3557   -9.0741    0.0000 C   0  0  0  0  0  0  0  0  0  0  0  0
    6.8682  -11.4775    0.0000 C   0  0  0  0  0  0  0  0  0  0  0  0
    7.8786  -10.8941    0.0000 C   0  0  0  0  0  0  0  0  0  0  0  0
  1  2  1  0  0  0  0
  1  3  1  0  0  0  0
  3  4  2  0  0  0  0
  4  5  1  0  0  0  0
  5  6  1  0  0  0  0
  6  7  1  0  0  0  0
  7  8  1  0  0  0  0
  8  9  2  0  0  0  0
  2  9  1  0  0  0  0
  4 10  1  0  0  0  0
  9 11  1  0  0  0  0
 11 12  1  0  0  0  0
 12  2  1  0  0  0  0
  8 13  1  0  0  0  0
 12 14  1  0  0  0  0
 12 15  1  0  0  0  0
M  END
>  <cdx:groupId>
738

>  <cdx:fragmentId>
739

$$$$
