30327.cdx
  Mrv1902 05222410192D          

 14 14  0  0  0  0            999 V2000
    5.5806   -9.0464    0.0000 C   0  0  0  0  0  0  0  0  0  0  0  0
    5.5806   -9.8714    0.0000 C   0  0  0  0  0  0  0  0  0  0  0  0
    6.2950  -10.2839    0.0000 C   0  0  0  0  0  0  0  0  0  0  0  0
    7.0095   -9.8714    0.0000 C   0  0  0  0  0  0  0  0  0  0  0  0
    7.0095   -9.0464    0.0000 C   0  0  0  0  0  0  0  0  0  0  0  0
    6.2950   -8.6339    0.0000 C   0  0  0  0  0  0  0  0  0  0  0  0
    6.2950  -11.1089    0.0000 O   0  0  0  0  0  0  0  0  0  0  0  0
    4.8661  -10.2839    0.0000 O   0  0  0  0  0  0  0  0  0  0  0  0
    4.1516   -9.8714    0.0000 C   0  0  0  0  0  0  0  0  0  0  0  0
    7.7240  -10.2839    0.0000 O   0  0  0  0  0  0  0  0  0  0  0  0
    8.4384   -9.8714    0.0000 C   0  0  0  0  0  0  0  0  0  0  0  0
    6.2950   -7.8089    0.0000 C   0  0  0  0  0  0  0  0  0  0  0  0
    7.0095   -7.3964    0.0000 C   0  0  0  0  0  0  0  0  0  0  0  0
    7.0095   -6.5714    0.0000 C   0  0  0  0  0  0  0  0  0  0  0  0
  1  2  2  0  0  0  0
  2  3  1  0  0  0  0
  3  4  2  0  0  0  0
  4  5  1  0  0  0  0
  5  6  2  0  0  0  0
  6  1  1  0  0  0  0
  3  7  1  0  0  0  0
  2  8  1  0  0  0  0
  8  9  1  0  0  0  0
  4 10  1  0  0  0  0
 10 11  1  0  0  0  0
  6 12  1  0  0  0  0
 12 13  2  0  0  0  0
 13 14  1  0  0  0  0
M  END
>  <cdx:fragmentId>
5

$$$$
