30326.cdx
  Mrv1902 05222410192D          

 19 20  0  0  0  0            999 V2000
   10.1921   -5.2579    0.0000 O   0  0  0  0  0  0  0  0  0  0  0  0
    4.4763   -5.2394    0.0000 O   0  0  0  0  0  0  0  0  0  0  0  0
    3.7605   -5.6496    0.0000 C   0  0  0  0  0  0  0  0  0  0  0  0
    5.8973   -7.7190    0.0000 O   0  0  0  0  0  0  0  0  0  0  0  0
    7.3262   -7.7236    0.0000 O   0  0  0  0  0  0  0  0  0  0  0  0
    8.7578   -6.9032    0.0000 C   0  0  0  0  0  0  0  0  0  0  0  0
    9.4736   -6.4930    0.0000 C   0  0  0  0  0  0  0  0  0  0  0  0
    9.4763   -5.6680    0.0000 C   0  0  0  0  0  0  0  0  0  0  0  0
    8.7631   -5.2532    0.0000 C   0  0  0  0  0  0  0  0  0  0  0  0
    7.3289   -6.8986    0.0000 C   0  0  0  0  0  0  0  0  0  0  0  0
    8.0447   -6.4884    0.0000 C   0  0  0  0  0  0  0  0  0  0  0  0
    8.0473   -5.6634    0.0000 C   0  0  0  0  0  0  0  0  0  0  0  0
    7.3342   -5.2486    0.0000 O   0  0  0  0  0  0  0  0  0  0  0  0
    6.6157   -6.4838    0.0000 C   0  0  0  0  0  0  0  0  0  0  0  0
    6.6184   -5.6588    0.0000 C   0  0  0  0  0  0  0  0  0  0  0  0
    5.9053   -5.2440    0.0000 C   0  0  0  0  0  0  0  0  0  0  0  0
    5.1895   -5.6542    0.0000 C   0  0  0  0  0  0  0  0  0  0  0  0
    5.1868   -6.4792    0.0000 C   0  0  0  0  0  0  0  0  0  0  0  0
    5.8999   -6.8940    0.0000 C   0  0  0  0  0  0  0  0  0  0  0  0
  8  1  1  0  0  0  0
  2 17  1  0  0  0  0
  3  2  1  0  0  0  0
  4 19  1  0  0  0  0
 10  5  2  0  0  0  0
  6 11  1  0  0  0  0
  7  6  2  0  0  0  0
  8  7  1  0  0  0  0
  9  8  2  0  0  0  0
 12  9  1  0  0  0  0
 10 14  1  0  0  0  0
 11 10  1  0  0  0  0
 12 11  2  0  0  0  0
 15 13  1  0  0  0  0
 14 19  1  0  0  0  0
 15 14  2  0  0  0  0
 16 15  1  0  0  0  0
 17 16  2  0  0  0  0
 18 17  1  0  0  0  0
 19 18  2  0  0  0  0
M  END
>  <cdx:fragmentId>
5

$$$$
