30335.cdx
  Mrv1902 05222410182D          

 13 14  0  0  0  0            999 V2000
    6.0343  -10.8614    0.0000 C   0  0  0  0  0  0  0  0  0  0  0  0
    6.0343  -11.6864    0.0000 C   0  0  0  0  0  0  0  0  0  0  0  0
    6.7488  -12.0989    0.0000 C   0  0  0  0  0  0  0  0  0  0  0  0
    7.4632  -11.6864    0.0000 C   0  0  0  0  0  0  0  0  0  0  0  0
    7.4632  -10.8614    0.0000 C   0  0  0  0  0  0  0  0  0  0  0  0
    6.7488  -10.4489    0.0000 C   0  0  0  0  0  0  0  0  0  0  0  0
    5.3198  -10.4489    0.0000 O   0  0  0  0  0  0  0  0  0  0  0  0
    6.7488   -9.6239    0.0000 C   0  0  0  0  0  0  0  0  0  0  0  0
    7.4632   -9.2114    0.0000 C   0  0  0  0  0  0  0  0  0  0  0  0
    7.4632   -8.3864    0.0000 C   0  0  0  0  0  0  0  0  0  0  0  0
    6.7488   -7.9739    0.0000 C   0  0  0  0  0  0  0  0  0  0  0  0
    6.0343   -8.3864    0.0000 C   0  0  0  0  0  0  0  0  0  0  0  0
    6.0343   -9.2114    0.0000 N   0  0  0  0  0  0  0  0  0  0  0  0
  1  2  1  0  0  0  0
  2  3  1  0  0  0  0
  3  4  1  0  0  0  0
  4  5  1  0  0  0  0
  5  6  1  0  0  0  0
  6  1  1  0  0  0  0
  1  7  1  0  0  0  0
  6  8  1  0  0  0  0
  8  9  2  0  0  0  0
  9 10  1  0  0  0  0
 10 11  2  0  0  0  0
 11 12  1  0  0  0  0
 12 13  2  0  0  0  0
 13  8  1  0  0  0  0
M  END
>  <cdx:fragmentId>
5

$$$$
