30331.cdx
  Mrv1902 05222410202D          

 13 12  0  0  0  0            999 V2000
    3.5720   -8.7439    0.0000 C   0  0  0  0  0  0  0  0  0  0  0  0
    6.4299   -8.7439    0.0000 C   0  0  0  0  0  0  0  0  0  0  0  0
   10.0022   -7.5064    0.0000 C   0  0  0  0  0  0  0  0  0  0  0  0
    9.2878   -7.9189    0.0000 C   0  0  0  0  0  0  0  0  0  0  0  0
    8.5733   -7.5064    0.0000 C   0  0  0  0  0  0  0  0  0  0  0  0
    7.8588   -7.9189    0.0000 C   0  0  0  0  0  0  0  0  0  0  0  0
    7.1444   -7.5064    0.0000 C   0  0  0  0  0  0  0  0  0  0  0  0
    6.4299   -7.9189    0.0000 C   0  0  0  0  0  0  0  0  0  0  0  0
    5.7154   -7.5064    0.0000 C   0  0  0  0  0  0  0  0  0  0  0  0
    5.0009   -7.9189    0.0000 C   0  0  0  0  0  0  0  0  0  0  0  0
    4.2865   -7.5064    0.0000 C   0  0  0  0  0  0  0  0  0  0  0  0
    3.5720   -7.9189    0.0000 C   0  0  0  0  0  0  0  0  0  0  0  0
    2.8575   -7.5064    0.0000 C   0  0  0  0  0  0  0  0  0  0  0  0
 12  1  1  0  0  0  0
  8  2  1  0  0  0  0
  3  4  1  0  0  0  0
  4  5  1  0  0  0  0
  5  6  1  0  0  0  0
  6  7  1  0  0  0  0
  7  8  1  0  0  0  0
  8  9  1  0  0  0  0
  9 10  1  0  0  0  0
 10 11  1  0  0  0  0
 11 12  1  0  0  0  0
 12 13  1  0  0  0  0
M  END
>  <cdx:fragmentId>
3

$$$$
