30330.cdx
  Mrv1902 05222410202D          

 10  9  0  0  0  0            999 V2000
    3.9575   -7.9601    0.0000 C   0  0  0  0  0  0  0  0  0  0  0  0
    4.6720   -8.3726    0.0000 C   0  0  0  0  0  0  0  0  0  0  0  0
    5.3865   -7.9601    0.0000 C   0  0  0  0  0  0  0  0  0  0  0  0
    6.1009   -8.3726    0.0000 C   0  0  0  0  0  0  0  0  0  0  0  0
    6.8154   -7.9601    0.0000 C   0  0  0  0  0  0  0  0  0  0  0  0
    7.5299   -8.3726    0.0000 C   0  0  0  0  0  0  0  0  0  0  0  0
    8.2444   -7.9601    0.0000 C   0  0  0  0  0  0  0  0  0  0  0  0
    4.6720   -9.1976    0.0000 C   0  0  0  0  0  0  0  0  0  0  0  0
    7.5299   -9.1976    0.0000 C   0  0  0  0  0  0  0  0  0  0  0  0
    4.9819   -7.5418    0.0000 H   0  0  0  0  0  0  0  0  0  0  0  0
  1  2  1  0  0  0  0
  2  3  1  0  0  0  0
  3  4  1  0  0  0  0
  4  5  1  0  0  0  0
  5  6  1  0  0  0  0
  6  7  1  0  0  0  0
  2  8  1  0  0  0  0
  6  9  1  0  0  0  0
  3 10  1  0  0  0  0
M  END
>  <cdx:fragmentId>
3

$$$$
