30339.cdx
  Mrv1902 05222410282D          

 38 37  0  0  0  0            999 V2000
    0.8109   -8.4304    0.0000 C   0  0  0  0  0  0  0  0  0  0  0  0
    1.5254   -8.0179    0.0000 C   0  0  0  0  0  0  0  0  0  0  0  0
    2.2398   -8.4304    0.0000 C   0  0  0  0  0  0  0  0  0  0  0  0
    2.9543   -8.0179    0.0000 C   0  0  0  0  0  0  0  0  0  0  0  0
    3.6688   -8.4304    0.0000 C   0  0  0  0  0  0  0  0  0  0  0  0
    4.3832   -8.0179    0.0000 C   0  0  0  0  0  0  0  0  0  0  0  0
    5.0977   -8.4304    0.0000 C   0  0  0  0  0  0  0  0  0  0  0  0
    5.8122   -8.0179    0.0000 C   0  0  0  0  0  0  0  0  0  0  0  0
    6.5267   -8.4304    0.0000 C   0  0  0  0  0  0  0  0  0  0  0  0
    7.2411   -8.0179    0.0000 C   0  0  0  0  0  0  0  0  0  0  0  0
    7.9556   -8.4304    0.0000 C   0  0  0  0  0  0  0  0  0  0  0  0
    8.6701   -8.0179    0.0000 C   0  0  0  0  0  0  0  0  0  0  0  0
    9.3845   -8.4304    0.0000 C   0  0  0  0  0  0  0  0  0  0  0  0
   10.0990   -8.0179    0.0000 C   0  0  0  0  0  0  0  0  0  0  0  0
   10.8135   -8.4304    0.0000 C   0  0  0  0  0  0  0  0  0  0  0  0
   11.5280   -8.0179    0.0000 C   0  0  0  0  0  0  0  0  0  0  0  0
   12.2424   -8.4304    0.0000 C   0  0  0  0  0  0  0  0  0  0  0  0
   12.9569   -8.0179    0.0000 C   0  0  0  0  0  0  0  0  0  0  0  0
   13.6714   -8.4304    0.0000 C   0  0  0  0  0  0  0  0  0  0  0  0
   14.3858   -8.0179    0.0000 C   0  0  0  0  0  0  0  0  0  0  0  0
   15.1003   -8.4304    0.0000 C   0  0  0  0  0  0  0  0  0  0  0  0
   15.8148   -8.0179    0.0000 C   0  0  0  0  0  0  0  0  0  0  0  0
   16.5293   -8.4304    0.0000 C   0  0  0  0  0  0  0  0  0  0  0  0
   17.2437   -8.0179    0.0000 C   0  0  0  0  0  0  0  0  0  0  0  0
   17.9582   -8.4304    0.0000 C   0  0  0  0  0  0  0  0  0  0  0  0
   18.6727   -8.0179    0.0000 C   0  0  0  0  0  0  0  0  0  0  0  0
   19.3871   -8.4304    0.0000 C   0  0  0  0  0  0  0  0  0  0  0  0
   20.1016   -8.0179    0.0000 C   0  0  0  0  0  0  0  0  0  0  0  0
   20.8161   -8.4304    0.0000 C   0  0  0  0  0  0  0  0  0  0  0  0
   21.5306   -8.0179    0.0000 C   0  0  0  0  0  0  0  0  0  0  0  0
   22.2450   -8.4304    0.0000 C   0  0  0  0  0  0  0  0  0  0  0  0
   22.9595   -8.0179    0.0000 C   0  0  0  0  0  0  0  0  0  0  0  0
   23.6740   -8.4304    0.0000 C   0  0  0  0  0  0  0  0  0  0  0  0
   24.3884   -8.0179    0.0000 C   0  0  0  0  0  0  0  0  0  0  0  0
   25.1029   -8.4304    0.0000 C   0  0  0  0  0  0  0  0  0  0  0  0
    4.3832   -7.1929    0.0000 O   0  0  0  0  0  0  0  0  0  0  0  0
   23.6740   -9.2554    0.0000 C   0  0  0  0  0  0  0  0  0  0  0  0
   17.9582   -9.2554    0.0000 O   0  0  0  0  0  0  0  0  0  0  0  0
  1  2  1  0  0  0  0
  2  3  1  0  0  0  0
  3  4  1  0  0  0  0
  4  5  1  0  0  0  0
  5  6  1  0  0  0  0
  6  7  1  0  0  0  0
  7  8  1  0  0  0  0
  8  9  1  0  0  0  0
  9 10  1  0  0  0  0
 10 11  1  0  0  0  0
 11 12  1  0  0  0  0
 12 13  1  0  0  0  0
 13 14  1  0  0  0  0
 14 15  1  0  0  0  0
 15 16  1  0  0  0  0
 16 17  1  0  0  0  0
 17 18  1  0  0  0  0
 18 19  1  0  0  0  0
 19 20  1  0  0  0  0
 20 21  1  0  0  0  0
 21 22  1  0  0  0  0
 22 23  1  0  0  0  0
 23 24  1  0  0  0  0
 24 25  1  0  0  0  0
 25 26  1  0  0  0  0
 26 27  1  0  0  0  0
 27 28  1  0  0  0  0
 28 29  1  0  0  0  0
 29 30  1  0  0  0  0
 30 31  1  0  0  0  0
 31 32  1  0  0  0  0
 32 33  1  0  0  0  0
 33 34  1  0  0  0  0
 34 35  1  0  0  0  0
  6 36  2  0  0  0  0
 33 37  1  0  0  0  0
 25 38  1  0  0  0  0
M  END
>  <cdx:fragmentId>
5

$$$$
