30332.cdx
  Mrv1902 05222410192D          

 10  9  0  0  0  0            999 V2000
    3.4213   -7.2451    0.0000 C   0  0  0  0  0  0  0  0  0  0  0  0
    4.1357   -7.6576    0.0000 C   0  0  0  0  0  0  0  0  0  0  0  0
    4.8502   -7.2451    0.0000 C   0  0  0  0  0  0  0  0  0  0  0  0
    5.5647   -7.6576    0.0000 C   0  0  0  0  0  0  0  0  0  0  0  0
    6.2792   -7.2451    0.0000 C   0  0  0  0  0  0  0  0  0  0  0  0
    6.9936   -7.6576    0.0000 C   0  0  0  0  0  0  0  0  0  0  0  0
    7.7081   -7.2451    0.0000 C   0  0  0  0  0  0  0  0  0  0  0  0
    8.4226   -7.6576    0.0000 C   0  0  0  0  0  0  0  0  0  0  0  0
    5.5647   -8.4826    0.0000 C   0  0  0  0  0  0  0  0  0  0  0  0
    6.2792   -6.4201    0.0000 C   0  0  0  0  0  0  0  0  0  0  0  0
  1  2  1  0  0  0  0
  2  3  2  3  0  0  0
  3  4  1  0  0  0  0
  4  5  1  0  0  0  0
  5  6  1  0  0  0  0
  6  7  2  3  0  0  0
  7  8  1  0  0  0  0
  4  9  1  0  0  0  0
  5 10  1  0  0  0  0
M  END
>  <cdx:fragmentId>
3

$$$$
