30334.cdx
  Mrv1902 05222410182D          

 12 13  0  0  0  0            999 V2000
    4.3706   -6.7501    0.0000 C   0  0  0  0  0  0  0  0  0  0  0  0
    4.3706   -7.5751    0.0000 C   0  0  0  0  0  0  0  0  0  0  0  0
    5.0850   -7.9876    0.0000 C   0  0  0  0  0  0  0  0  0  0  0  0
    5.7995   -7.5751    0.0000 C   0  0  0  0  0  0  0  0  0  0  0  0
    5.7995   -6.7501    0.0000 C   0  0  0  0  0  0  0  0  0  0  0  0
    5.0850   -6.3376    0.0000 C   0  0  0  0  0  0  0  0  0  0  0  0
    6.5140   -7.9876    0.0000 C   0  0  0  0  0  0  0  0  0  0  0  0
    7.2284   -7.5751    0.0000 C   0  0  0  0  0  0  0  0  0  0  0  0
    7.2284   -6.7501    0.0000 C   0  0  0  0  0  0  0  0  0  0  0  0
    6.5140   -6.3376    0.0000 C   0  0  0  0  0  0  0  0  0  0  0  0
    3.6561   -7.9876    0.0000 C   0  0  0  0  0  0  0  0  0  0  0  0
    7.9429   -7.9876    0.0000 C   0  0  0  0  0  0  0  0  0  0  0  0
  1  2  1  0  0  0  0
  2  3  2  0  0  0  0
  3  4  1  0  0  0  0
  4  5  2  0  0  0  0
  5  6  1  0  0  0  0
  6  1  2  0  0  0  0
  4  7  1  0  0  0  0
  7  8  2  0  0  0  0
  8  9  1  0  0  0  0
  9 10  2  0  0  0  0
 10  5  1  0  0  0  0
  2 11  1  0  0  0  0
  8 12  1  0  0  0  0
M  END
>  <cdx:fragmentId>
5

$$$$
