30337.cdx
  Mrv1902 05222410192D          

 36 39  0  0  0  0            999 V2000
    3.0781  -11.0264    0.0000 C   0  0  0  0  0  0  0  0  0  0  0  0
    3.0781  -11.8514    0.0000 C   0  0  1  0  0  0  0  0  0  0  0  0
    3.7925  -12.2639    0.0000 C   0  0  0  0  0  0  0  0  0  0  0  0
    4.5070  -11.8514    0.0000 C   0  0  1  0  0  0  0  0  0  0  0  0
    4.5070  -11.0264    0.0000 C   0  0  2  0  0  0  0  0  0  0  0  0
    3.7925  -10.6139    0.0000 C   0  0  0  0  0  0  0  0  0  0  0  0
    5.2215  -12.2639    0.0000 C   0  0  0  0  0  0  0  0  0  0  0  0
    5.9359  -11.8514    0.0000 C   0  0  0  0  0  0  0  0  0  0  0  0
    5.9359  -11.0264    0.0000 C   0  0  1  0  0  0  0  0  0  0  0  0
    5.2215  -10.6139    0.0000 C   0  0  2  0  0  0  0  0  0  0  0  0
    6.6504  -10.6139    0.0000 C   0  0  1  0  0  0  0  0  0  0  0  0
    6.6504   -9.7889    0.0000 C   0  0  2  0  0  0  0  0  0  0  0  0
    5.9359   -9.3764    0.0000 C   0  0  0  0  0  0  0  0  0  0  0  0
    5.2215   -9.7889    0.0000 C   0  0  0  0  0  0  0  0  0  0  0  0
    7.4350  -10.8688    0.0000 C   0  0  0  0  0  0  0  0  0  0  0  0
    7.9200  -10.2014    0.0000 C   0  0  0  0  0  0  0  0  0  0  0  0
    7.4350   -9.5340    0.0000 C   0  0  2  0  0  0  0  0  0  0  0  0
    3.3800  -12.9784    0.0000 C   0  0  0  0  0  0  0  0  0  0  0  0
    4.2050  -12.9784    0.0000 C   0  0  0  0  0  0  0  0  0  0  0  0
    7.6422   -8.7225    0.0000 C   0  0  0  0  0  0  0  0  0  0  0  0
    8.4391   -8.5089    0.0000 C   0  0  0  0  0  0  0  0  0  0  0  0
    8.6527   -7.7120    0.0000 C   0  0  0  0  0  0  0  0  0  0  0  0
    9.4495   -7.4985    0.0000 C   0  0  0  0  0  0  0  0  0  0  0  0
    9.6631   -6.7016    0.0000 C   0  0  0  0  0  0  0  0  0  0  0  0
   10.4600   -6.4881    0.0000 C   0  0  0  0  0  0  0  0  0  0  0  0
    9.0797   -6.1183    0.0000 C   0  0  0  0  0  0  0  0  0  0  0  0
    2.3636  -12.2639    0.0000 O   0  0  0  0  0  0  0  0  0  0  0  0
    6.7366   -8.9684    0.0000 C   0  0  0  0  0  0  0  0  0  0  0  0
   10.0329   -8.0819    0.0000 O   0  0  0  0  0  0  0  0  0  0  0  0
    4.5070  -12.6764    0.0000 H   0  0  0  0  0  0  0  0  0  0  0  0
    6.7366  -11.4344    0.0000 C   0  0  0  0  0  0  0  0  0  0  0  0
    6.3072  -11.3696    0.0000 H   0  0  0  0  0  0  0  0  0  0  0  0
    4.6381  -10.0305    0.0000 C   0  0  0  0  0  0  0  0  0  0  0  0
    4.2935  -10.2295    0.0000 C   0  0  0  0  0  0  0  0  0  0  0  0
    7.0555   -8.1425    0.0000 C   0  0  0  0  0  0  0  0  0  0  0  0
   10.8298   -7.8683    0.0000 O   0  0  0  0  0  0  0  0  0  0  0  0
  1  2  1  0  0  0  0
  2  3  1  0  0  0  0
  3  4  1  0  0  0  0
  4  5  1  0  0  0  0
  5  6  1  0  0  0  0
  6  1  1  0  0  0  0
  4  7  1  0  0  0  0
  7  8  1  0  0  0  0
  8  9  1  0  0  0  0
  9 10  1  0  0  0  0
 10  5  1  0  0  0  0
  9 11  1  0  0  0  0
 11 12  1  0  0  0  0
 12 13  1  0  0  0  0
 13 14  1  0  0  0  0
 14 10  1  0  0  0  0
 11 15  1  0  0  0  0
 15 16  1  0  0  0  0
 16 17  1  0  0  0  0
 17 12  1  0  0  0  0
  3 18  1  0  0  0  0
  3 19  1  0  0  0  0
 20 21  1  0  0  0  0
 21 22  1  0  0  0  0
 22 23  1  0  0  0  0
 23 24  1  0  0  0  0
 24 25  1  0  0  0  0
 24 26  2  0  0  0  0
  2 27  1  1  0  0  0
 12 28  1  1  0  0  0
 23 29  1  0  0  0  0
  4 30  1  6  0  0  0
 11 31  1  6  0  0  0
  9 32  1  6  0  0  0
 10 33  1  6  0  0  0
  5 34  1  1  0  0  0
 17 20  1  1  0  0  0
 20 35  1  0  0  0  0
 29 36  1  0  0  0  0
M  END
>  <cdx:fragmentId>
5

$$$$
