30343.cdx
  Mrv1902 05222410212D          

 10 11  0  0  0  0            999 V2000
    3.8206   -7.7126    0.0000 C   0  0  0  0  0  0  0  0  0  0  0  0
    3.8206   -8.5376    0.0000 C   0  0  0  0  0  0  0  0  0  0  0  0
    4.5350   -8.9501    0.0000 C   0  0  0  0  0  0  0  0  0  0  0  0
    5.2495   -8.5376    0.0000 C   0  0  0  0  0  0  0  0  0  0  0  0
    5.2495   -7.7126    0.0000 C   0  0  0  0  0  0  0  0  0  0  0  0
    4.5350   -7.3001    0.0000 C   0  0  0  0  0  0  0  0  0  0  0  0
    6.0341   -8.7926    0.0000 O   0  0  0  0  0  0  0  0  0  0  0  0
    6.5190   -8.1251    0.0000 C   0  0  0  0  0  0  0  0  0  0  0  0
    6.0341   -7.4577    0.0000 N   0  0  0  0  0  0  0  0  0  0  0  0
    7.3440   -8.1251    0.0000 O   0  0  0  0  0  0  0  0  0  0  0  0
  1  2  2  0  0  0  0
  2  3  1  0  0  0  0
  3  4  2  0  0  0  0
  4  5  1  0  0  0  0
  5  6  2  0  0  0  0
  6  1  1  0  0  0  0
  4  7  1  0  0  0  0
  7  8  1  0  0  0  0
  8  9  1  0  0  0  0
  9  5  1  0  0  0  0
  8 10  2  0  0  0  0
M  END
>  <cdx:fragmentId>
5

$$$$
