30346.cdx
  Mrv1902 05222410232D          

 11 10  0  0  0  0            999 V2000
    4.8375   -8.6064    0.0000 C   0  0  0  0  0  0  0  0  0  0  0  0
    5.5520   -9.0189    0.0000 C   0  0  0  0  0  0  0  0  0  0  0  0
    6.2665   -8.6064    0.0000 C   0  0  0  0  0  0  0  0  0  0  0  0
    6.9809   -9.0189    0.0000 C   0  0  0  0  0  0  0  0  0  0  0  0
    7.6954   -8.6064    0.0000 C   0  0  0  0  0  0  0  0  0  0  0  0
    8.4099   -9.0189    0.0000 C   0  0  0  0  0  0  0  0  0  0  0  0
    9.1244   -8.6064    0.0000 C   0  0  0  0  0  0  0  0  0  0  0  0
    9.8388   -9.0189    0.0000 C   0  0  0  0  0  0  0  0  0  0  0  0
   10.5533   -8.6064    0.0000 C   0  0  0  0  0  0  0  0  0  0  0  0
    4.8375   -7.7814    0.0000 C   0  0  0  0  0  0  0  0  0  0  0  0
    4.1231   -7.3689    0.0000 O   0  0  0  0  0  0  0  0  0  0  0  0
  1  2  2  0  0  0  0
  2  3  1  0  0  0  0
  3  4  1  0  0  0  0
  4  5  1  0  0  0  0
  5  6  1  0  0  0  0
  6  7  1  0  0  0  0
  7  8  1  0  0  0  0
  8  9  1  0  0  0  0
  1 10  1  0  0  0  0
 10 11  2  0  0  0  0
M  END
>  <cdx:fragmentId>
3

$$$$
