30348.cdx
  Mrv1902 05222410242D          

 10 10  0  0  0  0            999 V2000
    6.1993   -8.3726    0.0000 C   0  0  0  0  0  0  0  0  0  0  0  0
    6.1993   -9.1976    0.0000 C   0  0  0  0  0  0  0  0  0  0  0  0
    6.9138   -9.6101    0.0000 C   0  0  0  0  0  0  0  0  0  0  0  0
    7.6282   -9.1976    0.0000 C   0  0  0  0  0  0  0  0  0  0  0  0
    7.6282   -8.3726    0.0000 C   0  0  0  0  0  0  0  0  0  0  0  0
    6.9138   -7.9601    0.0000 C   0  0  0  0  0  0  0  0  0  0  0  0
    6.9138  -10.4351    0.0000 C   0  0  0  0  0  0  0  0  0  0  0  0
    6.1993  -10.8476    0.0000 C   0  0  0  0  0  0  0  0  0  0  0  0
    6.5013   -7.2457    0.0000 C   0  0  0  0  0  0  0  0  0  0  0  0
    7.3263   -7.2457    0.0000 C   0  0  0  0  0  0  0  0  0  0  0  0
  1  2  1  0  0  0  0
  2  3  2  0  0  0  0
  3  4  1  0  0  0  0
  4  5  2  0  0  0  0
  5  6  1  0  0  0  0
  6  1  1  0  0  0  0
  3  7  1  0  0  0  0
  7  8  1  0  0  0  0
  6  9  1  0  0  0  0
  6 10  1  0  0  0  0
M  END
>  <cdx:fragmentId>
5

$$$$
