30351-230628￡ﾄﾋ￡ﾅﾵ￡ﾄﾒ￡ﾅﾮ.cdx
  Mrv1902 05222410222D          

 17 16  0  0  0  0            999 V2000
    1.4688   -7.9326    0.0000 O   0  0  0  0  0  0  0  0  0  0  0  0
    2.1832   -7.5201    0.0000 C   0  0  0  0  0  0  0  0  0  0  0  0
    2.8977   -7.9326    0.0000 C   0  0  0  0  0  0  0  0  0  0  0  0
    3.6122   -7.5201    0.0000 C   0  0  0  0  0  0  0  0  0  0  0  0
    4.3267   -7.9326    0.0000 C   0  0  0  0  0  0  0  0  0  0  0  0
    5.0411   -7.5201    0.0000 C   0  0  0  0  0  0  0  0  0  0  0  0
    5.7556   -7.9326    0.0000 C   0  0  0  0  0  0  0  0  0  0  0  0
    6.4701   -7.5201    0.0000 C   0  0  0  0  0  0  0  0  0  0  0  0
    7.1845   -7.9326    0.0000 C   0  0  0  0  0  0  0  0  0  0  0  0
    7.8990   -7.5201    0.0000 C   0  0  0  0  0  0  0  0  0  0  0  0
    8.6135   -7.9326    0.0000 C   0  0  0  0  0  0  0  0  0  0  0  0
    9.3280   -7.5201    0.0000 C   0  0  0  0  0  0  0  0  0  0  0  0
   10.0424   -7.9326    0.0000 C   0  0  0  0  0  0  0  0  0  0  0  0
   10.7569   -7.5201    0.0000 C   0  0  0  0  0  0  0  0  0  0  0  0
   11.4714   -7.9326    0.0000 C   0  0  0  0  0  0  0  0  0  0  0  0
   12.1858   -7.5201    0.0000 C   0  0  0  0  0  0  0  0  0  0  0  0
   12.9003   -7.9326    0.0000 C   0  0  0  0  0  0  0  0  0  0  0  0
  1  2  1  0  0  0  0
  2  3  1  0  0  0  0
  3  4  2  0  0  0  0
  4  5  1  0  0  0  0
  5  6  1  0  0  0  0
  6  7  1  0  0  0  0
  7  8  1  0  0  0  0
  8  9  1  0  0  0  0
  9 10  1  0  0  0  0
 10 11  1  0  0  0  0
 11 12  1  0  0  0  0
 12 13  1  0  0  0  0
 13 14  1  0  0  0  0
 14 15  1  0  0  0  0
 15 16  1  0  0  0  0
 16 17  1  0  0  0  0
M  END
>  <cdx:fragmentId>
3

$$$$
