30356.cdx
  Mrv1902 05222410202D          

 11 11  0  0  0  0            999 V2000
    6.4331   -8.7301    0.0000 C   0  0  0  0  0  0  0  0  0  0  0  0
    6.4331   -9.5551    0.0000 C   0  0  0  0  0  0  0  0  0  0  0  0
    7.1475   -9.9676    0.0000 C   0  0  0  0  0  0  0  0  0  0  0  0
    7.8620   -9.5551    0.0000 C   0  0  0  0  0  0  0  0  0  0  0  0
    7.8620   -8.7301    0.0000 C   0  0  0  0  0  0  0  0  0  0  0  0
    7.1475   -8.3176    0.0000 C   0  0  0  0  0  0  0  0  0  0  0  0
    5.7186   -8.3176    0.0000 O   0  0  0  0  0  0  0  0  0  0  0  0
    7.1475   -7.4926    0.0000 C   0  0  0  0  0  0  0  0  0  0  0  0
    6.4331   -7.0801    0.0000 C   0  0  0  0  0  0  0  0  0  0  0  0
    7.8620   -7.0801    0.0000 C   0  0  0  0  0  0  0  0  0  0  0  0
    7.1475  -10.7926    0.0000 C   0  0  0  0  0  0  0  0  0  0  0  0
  1  2  1  0  0  0  0
  2  3  1  0  0  0  0
  3  4  1  0  0  0  0
  4  5  2  0  0  0  0
  5  6  1  0  0  0  0
  6  1  1  0  0  0  0
  1  7  2  0  0  0  0
  6  8  1  0  0  0  0
  8  9  1  0  0  0  0
  8 10  1  0  0  0  0
  3 11  1  0  0  0  0
M  END
>  <cdx:fragmentId>
5

$$$$
