30357.cdx
  Mrv1902 05222410212D          

 12 12  0  0  0  0            999 V2000
    6.8318   -9.9264    0.0000 C   0  0  0  0  0  0  0  0  0  0  0  0
    6.8318  -10.7514    0.0000 C   0  0  0  0  0  0  0  0  0  0  0  0
    7.5463  -11.1639    0.0000 C   0  0  0  0  0  0  0  0  0  0  0  0
    8.2607  -10.7514    0.0000 C   0  0  0  0  0  0  0  0  0  0  0  0
    8.2607   -9.9264    0.0000 C   0  0  0  0  0  0  0  0  0  0  0  0
    7.5463   -9.5139    0.0000 C   0  0  0  0  0  0  0  0  0  0  0  0
    8.9752   -9.5139    0.0000 O   0  0  0  0  0  0  0  0  0  0  0  0
    7.5463   -8.6889    0.0000 O   0  0  0  0  0  0  0  0  0  0  0  0
    6.1173   -9.5139    0.0000 C   0  0  0  0  0  0  0  0  0  0  0  0
    5.4029   -9.9264    0.0000 C   0  0  0  0  0  0  0  0  0  0  0  0
    4.6884   -9.5139    0.0000 C   0  0  0  0  0  0  0  0  0  0  0  0
    8.2607   -8.2764    0.0000 C   0  0  0  0  0  0  0  0  0  0  0  0
  1  2  2  0  0  0  0
  2  3  1  0  0  0  0
  3  4  2  0  0  0  0
  4  5  1  0  0  0  0
  5  6  2  0  0  0  0
  6  1  1  0  0  0  0
  5  7  1  0  0  0  0
  6  8  1  0  0  0  0
  1  9  1  0  0  0  0
  9 10  2  0  0  0  0
 10 11  1  0  0  0  0
  8 12  1  0  0  0  0
M  END
>  <cdx:fragmentId>
5

$$$$
