30352.cdx
  Mrv1902 05222410232D          

 12 13  0  0  0  0            999 V2000
    3.7518   -8.2214    0.0000 C   0  0  0  0  0  0  0  0  0  0  0  0
    3.7518   -9.0464    0.0000 C   0  0  0  0  0  0  0  0  0  0  0  0
    4.4663   -9.4589    0.0000 C   0  0  0  0  0  0  0  0  0  0  0  0
    5.1807   -9.0464    0.0000 C   0  0  0  0  0  0  0  0  0  0  0  0
    5.1807   -8.2214    0.0000 C   0  0  0  0  0  0  0  0  0  0  0  0
    4.4663   -7.8089    0.0000 C   0  0  0  0  0  0  0  0  0  0  0  0
    5.8952   -9.4589    0.0000 N   0  0  0  0  0  0  0  0  0  0  0  0
    6.6097   -9.0464    0.0000 C   0  0  0  0  0  0  0  0  0  0  0  0
    6.6097   -8.2214    0.0000 C   0  0  0  0  0  0  0  0  0  0  0  0
    5.8952   -7.8089    0.0000 O   0  0  0  0  0  0  0  0  0  0  0  0
    7.3242   -7.8089    0.0000 O   0  0  0  0  0  0  0  0  0  0  0  0
    7.3242   -9.4589    0.0000 O   0  0  0  0  0  0  0  0  0  0  0  0
  1  2  2  0  0  0  0
  2  3  1  0  0  0  0
  3  4  2  0  0  0  0
  4  5  1  0  0  0  0
  5  6  2  0  0  0  0
  6  1  1  0  0  0  0
  4  7  1  0  0  0  0
  7  8  1  0  0  0  0
  8  9  1  0  0  0  0
  9 10  1  0  0  0  0
 10  5  1  0  0  0  0
  9 11  1  0  0  0  0
  8 12  2  0  0  0  0
M  END
>  <cdx:fragmentId>
5

$$$$
