303526.cdx
  Mrv1902 05222410192D          

 16 17  0  0  0  0            999 V2000
    6.7659   -8.2420    0.0000 C   0  0  1  0  0  0  0  0  0  0  0  0
    7.5505   -8.8121    0.0000 H   0  0  0  0  0  0  0  0  0  0  0  0
    8.2650   -5.9246    0.0000 C   0  0  0  0  0  0  0  0  0  0  0  0
    6.2809   -7.5746    0.0000 C   0  0  2  0  0  0  0  0  0  0  0  0
    6.7659   -6.9071    0.0000 C   0  0  0  0  0  0  0  0  0  0  0  0
    8.9794   -7.9871    0.0000 O   0  0  0  0  0  0  0  0  0  0  0  0
    8.9794   -7.1621    0.0000 C   0  0  0  0  0  0  0  0  0  0  0  0
    8.2650   -6.7496    0.0000 C   0  0  1  0  0  0  0  0  0  0  0  0
    7.5505   -7.1621    0.0000 C   0  0  2  0  0  0  0  0  0  0  0  0
    7.5505   -7.9871    0.0000 C   0  0  2  0  0  0  0  0  0  0  0  0
    8.2650   -8.3996    0.0000 C   0  0  0  0  0  0  0  0  0  0  0  0
    5.4559   -7.5746    0.0000 O   0  0  0  0  0  0  0  0  0  0  0  0
    7.5505   -6.3371    0.0000 H   0  0  0  0  0  0  0  0  0  0  0  0
    6.7659   -9.0670    0.0000 C   0  0  0  0  0  0  0  0  0  0  0  0
    6.0514   -8.6545    0.0000 O   0  0  0  0  0  0  0  0  0  0  0  0
    8.2650   -9.2246    0.0000 O   0  0  0  0  0  0  0  0  0  0  0  0
 10  2  1  1  0  0  0
  4 12  1  1  0  0  0
  8  3  1  1  0  0  0
  9  5  1  0  0  0  0
 10  1  1  0  0  0  0
  4  1  1  0  0  0  0
  5  4  1  0  0  0  0
 11  6  1  0  0  0  0
  7  6  1  0  0  0  0
  8  7  1  0  0  0  0
  9  8  1  0  0  0  0
 10  9  1  0  0  0  0
 11 10  1  0  0  0  0
  9 13  1  1  0  0  0
  1 14  1  1  0  0  0
  1 15  1  6  0  0  0
 11 16  2  0  0  0  0
M  END
>  <cdx:fragmentId>
11516

$$$$
