303533.cdx
  Mrv1902 05222410192D          

 18 18  0  0  0  0            999 V2000
    6.7659   -8.2420    0.0000 C   0  0  0  0  0  0  0  0  0  0  0  0
    6.2809   -7.5746    0.0000 C   0  0  2  0  0  0  0  0  0  0  0  0
    6.7659   -6.9071    0.0000 C   0  0  0  0  0  0  0  0  0  0  0  0
    8.9794   -7.9871    0.0000 O   0  0  0  0  0  0  0  0  0  0  0  0
    8.9794   -7.1621    0.0000 C   0  0  0  0  0  0  0  0  0  0  0  0
    8.2650   -6.7496    0.0000 C   0  0  0  0  0  0  0  0  0  0  0  0
    7.5505   -7.1621    0.0000 C   0  0  2  0  0  0  0  0  0  0  0  0
    7.5505   -7.9871    0.0000 C   0  0  0  0  0  0  0  0  0  0  0  0
    8.2650   -8.3996    0.0000 C   0  0  0  0  0  0  0  0  0  0  0  0
    5.4559   -7.5746    0.0000 O   0  0  0  0  0  0  0  0  0  0  0  0
    7.5505   -6.3371    0.0000 O   0  0  0  0  0  0  0  0  0  0  0  0
    9.6939   -6.7496    0.0000 O   0  0  0  0  0  0  0  0  0  0  0  0
    8.2650   -5.9246    0.0000 C   0  0  0  0  0  0  0  0  0  0  0  0
    6.5109   -9.0266    0.0000 C   0  0  0  0  0  0  0  0  0  0  0  0
    5.7040   -9.1982    0.0000 O   0  0  0  0  0  0  0  0  0  0  0  0
    5.0434   -6.8601    0.0000 C   0  0  0  0  0  0  0  0  0  0  0  0
    5.4559   -6.1456    0.0000 O   0  0  0  0  0  0  0  0  0  0  0  0
    4.2184   -6.8601    0.0000 C   0  0  0  0  0  0  0  0  0  0  0  0
  2 10  1  1  0  0  0
  7  3  1  0  0  0  0
  8  1  2  0  0  0  0
  2  1  1  0  0  0  0
  3  2  1  0  0  0  0
  9  4  2  0  0  0  0
  6  5  1  0  0  0  0
  7  6  1  0  0  0  0
  8  7  1  0  0  0  0
  9  8  1  0  0  0  0
  7 11  1  1  0  0  0
  5 12  2  0  0  0  0
  6 13  2  0  0  0  0
  1 14  1  0  0  0  0
 14 15  1  0  0  0  0
 10 16  1  0  0  0  0
 16 17  2  0  0  0  0
 16 18  1  0  0  0  0
M  END
>  <cdx:fragmentId>
11516

$$$$
