30354.cdx
  Mrv1902 05222410212D          

 14 14  0  0  0  0            999 V2000
    5.5943   -8.6889    0.0000 C   0  0  0  0  0  0  0  0  0  0  0  0
    5.5943   -9.5139    0.0000 C   0  0  0  0  0  0  0  0  0  0  0  0
    6.3088   -9.9264    0.0000 C   0  0  0  0  0  0  0  0  0  0  0  0
    7.0232   -9.5139    0.0000 C   0  0  0  0  0  0  0  0  0  0  0  0
    7.0232   -8.6889    0.0000 C   0  0  0  0  0  0  0  0  0  0  0  0
    6.3088   -8.2764    0.0000 C   0  0  0  0  0  0  0  0  0  0  0  0
    6.3088  -10.7514    0.0000 O   0  0  0  0  0  0  0  0  0  0  0  0
    5.5943  -11.1639    0.0000 C   0  0  0  0  0  0  0  0  0  0  0  0
    6.3088   -7.4514    0.0000 C   0  0  0  0  0  0  0  0  0  0  0  0
    5.5943   -7.0389    0.0000 O   0  0  0  0  0  0  0  0  0  0  0  0
    7.0232   -7.0389    0.0000 C   0  0  0  0  0  0  0  0  0  0  0  0
    7.0232   -6.2139    0.0000 N   0  0  0  0  0  0  0  0  0  0  0  0
    7.7377   -7.4514    0.0000 O   0  0  0  0  0  0  0  0  0  0  0  0
    7.7377   -5.8014    0.0000 C   0  0  0  0  0  0  0  0  0  0  0  0
  1  2  2  0  0  0  0
  2  3  1  0  0  0  0
  3  4  2  0  0  0  0
  4  5  1  0  0  0  0
  5  6  2  0  0  0  0
  6  1  1  0  0  0  0
  3  7  1  0  0  0  0
  7  8  1  0  0  0  0
  6  9  1  0  0  0  0
  9 10  1  0  0  0  0
  9 11  1  0  0  0  0
 11 12  1  0  0  0  0
 11 13  2  0  0  0  0
 12 14  1  0  0  0  0
M  END
>  <cdx:fragmentId>
5

$$$$
