303534.cdx
  Mrv1902 05222410202D          

 32 34  0  0  0  0            999 V2000
    9.1548   -6.5045    0.0000 C   0  0  0  0  0  0  0  0  0  0  0  0
    9.5794   -7.2119    0.0000 C   0  0  0  0  0  0  0  0  0  0  0  0
   10.4042   -7.1979    0.0000 C   0  0  0  0  0  0  0  0  0  0  0  0
   10.8046   -6.4766    0.0000 C   0  0  0  0  0  0  0  0  0  0  0  0
    6.1071   -8.3140    0.0000 C   0  0  0  0  0  0  0  0  0  0  0  0
    5.4905   -7.7659    0.0000 C   0  0  0  0  0  0  0  0  0  0  0  0
    4.7075   -8.0258    0.0000 C   0  0  0  0  0  0  0  0  0  0  0  0
    4.5412   -8.8338    0.0000 C   0  0  0  0  0  0  0  0  0  0  0  0
    5.1578   -9.3820    0.0000 C   0  0  0  0  0  0  0  0  0  0  0  0
    5.9407   -9.1220    0.0000 C   0  0  0  0  0  0  0  0  0  0  0  0
   10.3801   -5.7692    0.0000 C   0  0  0  0  0  0  0  0  0  0  0  0
    9.5552   -5.7831    0.0000 C   0  0  0  0  0  0  0  0  0  0  0  0
    3.7582   -9.0938    0.0000 O   0  0  0  0  0  0  0  0  0  0  0  0
    4.0909   -7.4777    0.0000 O   0  0  0  0  0  0  0  0  0  0  0  0
    3.2941   -7.6912    0.0000 C   0  0  0  0  0  0  0  0  0  0  0  0
   11.6295   -6.4626    0.0000 O   0  0  0  0  0  0  0  0  0  0  0  0
   10.7804   -5.0478    0.0000 O   0  0  0  0  0  0  0  0  0  0  0  0
   11.6053   -5.0339    0.0000 C   0  0  0  0  0  0  0  0  0  0  0  0
    7.0513   -5.8398    0.0000 O   0  0  0  0  0  0  0  0  0  0  0  0
    6.6814   -6.5773    0.0000 C   0  0  0  0  0  0  0  0  0  0  0  0
    8.3299   -6.5185    0.0000 C   0  0  0  0  0  0  0  0  0  0  0  0
    7.9601   -7.2559    0.0000 C   0  0  2  0  0  0  0  0  0  0  0  0
    7.1352   -7.2663    0.0000 C   0  0  1  0  0  0  0  0  0  0  0  0
    6.8901   -8.0540    0.0000 C   0  0  2  0  0  0  0  0  0  0  0  0
    7.5636   -8.5305    0.0000 O   0  0  0  0  0  0  0  0  0  0  0  0
    8.2249   -8.0373    0.0000 C   0  0  0  0  0  0  0  0  0  0  0  0
    6.5976   -5.1508    0.0000 C   0  0  0  0  0  0  0  0  0  0  0  0
    6.9674   -4.4133    0.0000 O   0  0  0  0  0  0  0  0  0  0  0  0
    5.7740   -5.1992    0.0000 C   0  0  0  0  0  0  0  0  0  0  0  0
    5.3202   -4.5102    0.0000 C   0  0  0  0  0  0  0  0  0  0  0  0
    4.4967   -4.5586    0.0000 C   0  0  0  0  0  0  0  0  0  0  0  0
    5.6901   -3.7727    0.0000 C   0  0  0  0  0  0  0  0  0  0  0  0
  5  6  2  0  0  0  0
  6  7  1  0  0  0  0
  7  8  2  0  0  0  0
  8  9  1  0  0  0  0
  9 10  2  0  0  0  0
 10  5  1  0  0  0  0
  8 13  1  0  0  0  0
  7 14  1  0  0  0  0
  1  2  2  0  0  0  0
  2  3  1  0  0  0  0
  3  4  2  0  0  0  0
  4 11  1  0  0  0  0
 11 12  2  0  0  0  0
 12  1  1  0  0  0  0
  4 16  1  0  0  0  0
 11 17  1  0  0  0  0
 20 19  1  0  0  0  0
 21  1  1  0  0  0  0
 17 18  1  0  0  0  0
 24  5  1  6  0  0  0
 14 15  1  0  0  0  0
 23 20  1  1  0  0  0
 22 21  1  1  0  0  0
 22 26  1  0  0  0  0
 23 22  1  0  0  0  0
 24 23  1  0  0  0  0
 25 24  1  0  0  0  0
 26 25  1  0  0  0  0
 19 27  1  0  0  0  0
 27 28  2  0  0  0  0
 27 29  1  0  0  0  0
 29 30  1  0  0  0  0
 30 31  1  0  0  0  0
 30 32  1  0  0  0  0
M  END
>  <cdx:fragmentId>
5

$$$$
