30361.cdx
  Mrv1902 05222410242D          

 11 11  0  0  0  0            999 V2000
    6.0756   -8.5926    0.0000 C   0  0  0  0  0  0  0  0  0  0  0  0
    6.0756   -9.4176    0.0000 C   0  0  0  0  0  0  0  0  0  0  0  0
    6.7900   -9.8301    0.0000 C   0  0  0  0  0  0  0  0  0  0  0  0
    7.5045   -9.4176    0.0000 C   0  0  0  0  0  0  0  0  0  0  0  0
    7.5045   -8.5926    0.0000 C   0  0  0  0  0  0  0  0  0  0  0  0
    6.7900   -8.1801    0.0000 C   0  0  0  0  0  0  0  0  0  0  0  0
    5.3611   -8.1801    0.0000 O   0  0  0  0  0  0  0  0  0  0  0  0
    4.6466   -8.5926    0.0000 C   0  0  0  0  0  0  0  0  0  0  0  0
    6.7900   -7.3551    0.0000 C   0  0  0  0  0  0  0  0  0  0  0  0
    7.5045   -6.9426    0.0000 C   0  0  0  0  0  0  0  0  0  0  0  0
    7.5045   -6.1176    0.0000 O   0  0  0  0  0  0  0  0  0  0  0  0
  1  2  2  0  0  0  0
  2  3  1  0  0  0  0
  3  4  2  0  0  0  0
  4  5  1  0  0  0  0
  5  6  2  0  0  0  0
  6  1  1  0  0  0  0
  1  7  1  0  0  0  0
  7  8  1  0  0  0  0
  6  9  1  0  0  0  0
  9 10  1  0  0  0  0
 10 11  1  0  0  0  0
M  END
>  <cdx:fragmentId>
5

$$$$
