30367.cdx
  Mrv1902 05222410252D          

 15 17  0  0  0  0            999 V2000
    4.3843   -9.4864    0.0000 C   0  0  0  0  0  0  0  0  0  0  0  0
    4.3843  -10.3114    0.0000 C   0  0  0  0  0  0  0  0  0  0  0  0
    5.0988  -10.7239    0.0000 C   0  0  0  0  0  0  0  0  0  0  0  0
    5.8132  -10.3114    0.0000 C   0  0  0  0  0  0  0  0  0  0  0  0
    5.8132   -9.4864    0.0000 C   0  0  0  0  0  0  0  0  0  0  0  0
    5.0988   -9.0739    0.0000 C   0  0  0  0  0  0  0  0  0  0  0  0
    6.5277  -10.7239    0.0000 C   0  0  0  0  0  0  0  0  0  0  0  0
    7.2422  -10.3114    0.0000 C   0  0  0  0  0  0  0  0  0  0  0  0
    7.2422   -9.4864    0.0000 C   0  0  0  0  0  0  0  0  0  0  0  0
    6.5277   -9.0739    0.0000 C   0  0  0  0  0  0  0  0  0  0  0  0
    7.9567   -9.0739    0.0000 C   0  0  0  0  0  0  0  0  0  0  0  0
    7.9567   -8.2489    0.0000 C   0  0  0  0  0  0  0  0  0  0  0  0
    7.2422   -7.8364    0.0000 C   0  0  0  0  0  0  0  0  0  0  0  0
    6.5277   -8.2489    0.0000 C   0  0  0  0  0  0  0  0  0  0  0  0
    3.6698  -10.7239    0.0000 C   0  0  0  0  0  0  0  0  0  0  0  0
  1  2  2  0  0  0  0
  2  3  1  0  0  0  0
  3  4  2  0  0  0  0
  4  5  1  0  0  0  0
  5  6  2  0  0  0  0
  6  1  1  0  0  0  0
  4  7  1  0  0  0  0
  7  8  2  0  0  0  0
  8  9  1  0  0  0  0
  9 10  2  0  0  0  0
 10  5  1  0  0  0  0
  9 11  1  0  0  0  0
 11 12  2  0  0  0  0
 12 13  1  0  0  0  0
 13 14  2  0  0  0  0
 14 10  1  0  0  0  0
  2 15  1  0  0  0  0
M  END
>  <cdx:fragmentId>
5

$$$$
