303690.cdx
  Mrv1902 05222410182D          

 27 31  0  0  0  0            999 V2000
    9.2697   -6.8149    0.0000 H   0  0  0  0  0  0  0  0  0  0  0  0
    9.2351   -9.3625    0.0000 H   0  0  0  0  0  0  0  0  0  0  0  0
    7.1344   -8.0594    0.0000 H   0  0  0  0  0  0  0  0  0  0  0  0
    7.8448   -6.8219    0.0000 H   0  0  0  0  0  0  0  0  0  0  0  0
    9.9862   -7.2239    0.0000 O   0  0  0  0  0  0  0  0  0  0  0  0
    6.4307   -8.8593    0.0000 C   0  0  0  0  0  0  0  0  0  0  0  0
    7.8327   -5.1719    0.0000 O   0  0  0  0  0  0  0  0  0  0  0  0
    6.4159   -7.6538    0.0000 C   0  0  0  0  0  0  0  0  0  0  0  0
    5.6994   -7.2448    0.0000 C   0  0  0  0  0  0  0  0  0  0  0  0
    4.9161   -7.5036    0.0000 O   0  0  0  0  0  0  0  0  0  0  0  0
    4.4279   -6.8385    0.0000 C   0  0  0  0  0  0  0  0  0  0  0  0
    4.9095   -6.1687    0.0000 O   0  0  0  0  0  0  0  0  0  0  0  0
    5.6954   -6.4198    0.0000 C   0  0  0  0  0  0  0  0  0  0  0  0
    6.4079   -6.0039    0.0000 C   0  0  0  0  0  0  0  0  0  0  0  0
    7.1243   -6.4129    0.0000 C   0  0  0  0  0  0  0  0  0  0  0  0
    7.8368   -5.9969    0.0000 C   0  0  0  0  0  0  0  0  0  0  0  0
    8.5533   -6.4059    0.0000 O   0  0  0  0  0  0  0  0  0  0  0  0
    8.5573   -7.2309    0.0000 C   0  0  1  0  0  0  0  0  0  0  0  0
    9.2738   -7.6399    0.0000 C   0  0  2  0  0  0  0  0  0  0  0  0
    9.2778   -8.4649    0.0000 C   0  0  0  0  0  0  0  0  0  0  0  0
    8.5653   -8.8809    0.0000 C   0  0  1  0  0  0  0  0  0  0  0  0
    8.3977   -9.6887    0.0000 C   0  0  0  0  0  0  0  0  0  0  0  0
    7.5777   -9.7789    0.0000 C   0  0  0  0  0  0  0  0  0  0  0  0
    7.2385   -9.0269    0.0000 N   0  0  0  0  0  0  0  0  0  0  0  0
    7.8489   -8.4719    0.0000 C   0  0  1  0  0  0  0  0  0  0  0  0
    7.8448   -7.6469    0.0000 C   0  0  2  0  0  0  0  0  0  0  0  0
    7.1284   -7.2379    0.0000 C   0  0  0  0  0  0  0  0  0  0  0  0
 18  1  1  6  0  0  0
 21  2  1  6  0  0  0
 25  3  1  6  0  0  0
 26  4  1  1  0  0  0
 19  5  1  1  0  0  0
 24  6  1  0  0  0  0
 16  7  2  0  0  0  0
 25 21  1  0  0  0  0
 26 18  1  0  0  0  0
 13  9  2  0  0  0  0
 27 15  1  0  0  0  0
 27  8  2  0  0  0  0
  9  8  1  0  0  0  0
 10  9  1  0  0  0  0
 11 10  1  0  0  0  0
 12 11  1  0  0  0  0
 13 12  1  0  0  0  0
 14 13  1  0  0  0  0
 15 14  2  0  0  0  0
 16 15  1  0  0  0  0
 17 16  1  0  0  0  0
 18 17  1  0  0  0  0
 19 18  1  0  0  0  0
 20 19  1  0  0  0  0
 21 20  1  0  0  0  0
 22 21  1  0  0  0  0
 23 22  1  0  0  0  0
 24 23  1  0  0  0  0
 25 24  1  0  0  0  0
 26 25  1  0  0  0  0
 27 26  1  0  0  0  0
M  END
>  <cdx:fragmentId>
88071

$$$$
