30368.cdx
  Mrv1902 05222410212D          

 15 14  0  0  0  0            999 V2000
   11.6506   -8.5651    0.0000 C   0  0  0  0  0  0  0  0  0  0  0  0
   10.9362   -8.1526    0.0000 C   0  0  0  0  0  0  0  0  0  0  0  0
   10.2217   -8.5651    0.0000 C   0  0  0  0  0  0  0  0  0  0  0  0
    9.5072   -8.1526    0.0000 C   0  0  0  0  0  0  0  0  0  0  0  0
    8.7928   -8.5651    0.0000 C   0  0  0  0  0  0  0  0  0  0  0  0
    8.0783   -8.1526    0.0000 C   0  0  0  0  0  0  0  0  0  0  0  0
    7.3638   -8.5651    0.0000 C   0  0  0  0  0  0  0  0  0  0  0  0
    6.6494   -8.1526    0.0000 C   0  0  0  0  0  0  0  0  0  0  0  0
    5.9349   -8.5651    0.0000 C   0  0  0  0  0  0  0  0  0  0  0  0
    5.2204   -8.1526    0.0000 C   0  0  0  0  0  0  0  0  0  0  0  0
    4.5059   -8.5651    0.0000 C   0  0  0  0  0  0  0  0  0  0  0  0
    3.7915   -8.1526    0.0000 C   0  0  0  0  0  0  0  0  0  0  0  0
    3.0770   -8.5651    0.0000 C   0  0  0  0  0  0  0  0  0  0  0  0
    2.3625   -8.1526    0.0000 C   0  0  0  0  0  0  0  0  0  0  0  0
    3.0770   -9.3901    0.0000 C   0  0  0  0  0  0  0  0  0  0  0  0
  2  1  1  0  0  0  0
  3  2  1  0  0  0  0
  4  3  1  0  0  0  0
  5  4  1  0  0  0  0
  6  5  1  0  0  0  0
  7  6  1  0  0  0  0
  8  7  1  0  0  0  0
  9  8  1  0  0  0  0
 10  9  1  0  0  0  0
 11 10  1  0  0  0  0
 12 11  1  0  0  0  0
 13 12  1  0  0  0  0
 14 13  1  0  0  0  0
 13 15  1  0  0  0  0
M  END
>  <cdx:fragmentId>
3

$$$$
