3036.cdx
  Mrv1902 05222410232D          

 18 17  0  0  0  0            999 V2000
    1.4396   -8.1881    0.0000 C   0  0  0  0  0  0  0  0  0  0  0  0
    2.1541   -7.7756    0.0000 C   0  0  0  0  0  0  0  0  0  0  0  0
    2.8686   -8.1881    0.0000 C   0  0  0  0  0  0  0  0  0  0  0  0
    3.5830   -7.7756    0.0000 C   0  0  0  0  0  0  0  0  0  0  0  0
    4.2975   -8.1881    0.0000 C   0  0  0  0  0  0  0  0  0  0  0  0
    5.0120   -7.7756    0.0000 C   0  0  0  0  0  0  0  0  0  0  0  0
    5.7265   -8.1881    0.0000 C   0  0  0  0  0  0  0  0  0  0  0  0
    6.4409   -7.7756    0.0000 C   0  0  0  0  0  0  0  0  0  0  0  0
    7.1554   -8.1881    0.0000 C   0  0  0  0  0  0  0  0  0  0  0  0
    7.8699   -7.7756    0.0000 C   0  0  0  0  0  0  0  0  0  0  0  0
    8.5843   -8.1881    0.0000 C   0  0  0  0  0  0  0  0  0  0  0  0
    9.2988   -7.7756    0.0000 C   0  0  0  0  0  0  0  0  0  0  0  0
   10.0133   -8.1881    0.0000 C   0  0  0  0  0  0  0  0  0  0  0  0
   10.7277   -7.7756    0.0000 C   0  0  0  0  0  0  0  0  0  0  0  0
   11.4422   -8.1881    0.0000 C   0  0  0  0  0  0  0  0  0  0  0  0
   12.1567   -7.7756    0.0000 C   0  0  0  0  0  0  0  0  0  0  0  0
   12.8712   -8.1881    0.0000 C   0  0  0  0  0  0  0  0  0  0  0  0
   13.5856   -7.7756    0.0000 O   0  0  0  0  0  0  0  0  0  0  0  0
  1  2  1  0  0  0  0
  2  3  1  0  0  0  0
  3  4  1  0  0  0  0
  4  5  1  0  0  0  0
  5  6  1  0  0  0  0
  6  7  1  0  0  0  0
  7  8  1  0  0  0  0
  8  9  1  0  0  0  0
  9 10  1  0  0  0  0
 10 11  1  0  0  0  0
 11 12  1  0  0  0  0
 12 13  1  0  0  0  0
 13 14  1  0  0  0  0
 14 15  1  0  0  0  0
 15 16  1  0  0  0  0
 16 17  1  0  0  0  0
 17 18  1  0  0  0  0
M  END
>  <cdx:fragmentId>
3

$$$$
