30362.cdx
  Mrv1902 05222410232D          

  8  7  0  0  0  0            999 V2000
    7.6256   -5.9389    0.0000 C   0  0  0  0  0  0  0  0  0  0  0  0
    6.9111   -6.3514    0.0000 C   0  0  0  0  0  0  0  0  0  0  0  0
    6.1967   -5.9389    0.0000 C   0  0  0  0  0  0  0  0  0  0  0  0
    5.4822   -6.3514    0.0000 S   0  0  0  0  0  0  0  0  0  0  0  0
    4.7677   -5.9389    0.0000 S   0  0  0  0  0  0  0  0  0  0  0  0
    4.0532   -6.3514    0.0000 C   0  0  0  0  0  0  0  0  0  0  0  0
    3.3388   -5.9389    0.0000 C   0  0  0  0  0  0  0  0  0  0  0  0
    4.0532   -7.1764    0.0000 C   0  0  0  0  0  0  0  0  0  0  0  0
  2  1  1  0  0  0  0
  3  2  1  0  0  0  0
  4  3  1  0  0  0  0
  5  4  1  0  0  0  0
  6  5  1  0  0  0  0
  7  6  1  0  0  0  0
  6  8  1  0  0  0  0
M  END
>  <cdx:fragmentId>
3

$$$$
