30374.cdx
  Mrv1902 05222410242D          

  9  8  0  0  0  0            999 V2000
    4.7275   -8.4414    0.0000 O   0  0  0  0  0  0  0  0  0  0  0  0
    5.4420   -8.0289    0.0000 C   0  0  0  0  0  0  0  0  0  0  0  0
    5.4420   -7.2039    0.0000 C   0  0  0  0  0  0  0  0  0  0  0  0
    6.1565   -6.7914    0.0000 C   0  0  0  0  0  0  0  0  0  0  0  0
    6.8709   -7.2039    0.0000 C   0  0  0  0  0  0  0  0  0  0  0  0
    7.5854   -6.7914    0.0000 C   0  0  0  0  0  0  0  0  0  0  0  0
    8.2999   -7.2039    0.0000 C   0  0  0  0  0  0  0  0  0  0  0  0
    9.0144   -6.7914    0.0000 C   0  0  0  0  0  0  0  0  0  0  0  0
    9.7288   -7.2039    0.0000 C   0  0  0  0  0  0  0  0  0  0  0  0
  1  2  2  0  0  0  0
  2  3  1  0  0  0  0
  3  4  2  0  0  0  0
  4  5  1  0  0  0  0
  5  6  1  0  0  0  0
  6  7  1  0  0  0  0
  7  8  1  0  0  0  0
  8  9  1  0  0  0  0
M  END
>  <cdx:fragmentId>
3

$$$$
