30378.cdx
  Mrv1902 05222410222D          

 12 13  0  0  0  0            999 V2000
    7.5509   -6.2777    0.0000 C   0  0  0  0  0  0  0  0  0  0  0  0
    6.9985   -5.6650    0.0000 C   0  0  0  0  0  0  0  0  0  0  0  0
    6.2450   -6.0011    0.0000 C   0  0  0  0  0  0  0  0  0  0  0  0
    6.3318   -6.8215    0.0000 C   0  0  0  0  0  0  0  0  0  0  0  0
    7.1389   -6.9925    0.0000 C   0  0  0  0  0  0  0  0  0  0  0  0
    7.1694   -4.8579    0.0000 C   0  0  0  0  0  0  0  0  0  0  0  0
    5.5779   -6.4864    0.0000 C   0  0  0  0  0  0  0  0  0  0  0  0
    6.0774   -7.6063    0.0000 C   0  0  0  0  0  0  0  0  0  0  0  0
    6.6298   -8.2190    0.0000 C   0  0  0  0  0  0  0  0  0  0  0  0
    5.2705   -7.7784    0.0000 C   0  0  0  0  0  0  0  0  0  0  0  0
    7.6081   -7.6711    0.0000 C   0  0  0  0  0  0  0  0  0  0  0  0
    8.4049   -7.8846    0.0000 O   0  0  0  0  0  0  0  0  0  0  0  0
  1  2  1  0  0  0  0
  2  3  1  0  0  0  0
  3  4  1  0  0  0  0
  4  5  1  0  0  0  0
  5  1  2  0  0  0  0
  2  6  1  0  0  0  0
  3  7  1  0  0  0  0
  7  4  1  0  0  0  0
  4  8  1  0  0  0  0
  8  9  1  0  0  0  0
  8 10  1  0  0  0  0
  5 11  1  0  0  0  0
 11 12  2  0  0  0  0
M  END
>  <cdx:fragmentId>
5

$$$$
