30370.cdx
  Mrv1902 05222410252D          

 10  9  0  0  0  0            999 V2000
    9.5358   -6.2826    0.0000 C   0  0  0  0  0  0  0  0  0  0  0  0
    8.8213   -6.6951    0.0000 C   0  0  0  0  0  0  0  0  0  0  0  0
    8.1069   -6.2826    0.0000 C   0  0  0  0  0  0  0  0  0  0  0  0
    7.3924   -6.6951    0.0000 C   0  0  0  0  0  0  0  0  0  0  0  0
    6.6779   -6.2826    0.0000 C   0  0  0  0  0  0  0  0  0  0  0  0
    5.9634   -6.6951    0.0000 C   0  0  0  0  0  0  0  0  0  0  0  0
    5.2490   -6.2826    0.0000 C   0  0  0  0  0  0  0  0  0  0  0  0
    4.5345   -6.6951    0.0000 C   0  0  0  0  0  0  0  0  0  0  0  0
    3.8200   -6.2826    0.0000 C   0  0  0  0  0  0  0  0  0  0  0  0
    4.5345   -7.5201    0.0000 O   0  0  0  0  0  0  0  0  0  0  0  0
  2  1  1  0  0  0  0
  3  2  1  0  0  0  0
  4  3  1  0  0  0  0
  5  4  1  0  0  0  0
  6  5  1  0  0  0  0
  7  6  1  0  0  0  0
  8  7  1  0  0  0  0
  9  8  1  0  0  0  0
  8 10  2  0  0  0  0
M  END
>  <cdx:fragmentId>
3

$$$$
