30377.cdx
  Mrv1902 05222410232D          

 11 11  0  0  0  0            999 V2000
    5.6438  -11.8927    0.0000 C   0  0  0  0  0  0  0  0  0  0  0  0
    5.9022  -12.6762    0.0000 C   0  0  0  0  0  0  0  0  0  0  0  0
    6.7272  -12.6726    0.0000 C   0  0  0  0  0  0  0  0  0  0  0  0
    6.9787  -11.8869    0.0000 C   0  0  0  0  0  0  0  0  0  0  0  0
    6.3092  -11.4049    0.0000 C   0  0  0  0  0  0  0  0  0  0  0  0
    4.8581  -11.6412    0.0000 O   0  0  0  0  0  0  0  0  0  0  0  0
    6.3055  -10.5799    0.0000 C   0  0  0  0  0  0  0  0  0  0  0  0
    7.0182  -10.1642    0.0000 C   0  0  0  0  0  0  0  0  0  0  0  0
    7.0146   -9.3393    0.0000 C   0  0  0  0  0  0  0  0  0  0  0  0
    7.7272   -8.9236    0.0000 C   0  0  0  0  0  0  0  0  0  0  0  0
    6.2983   -8.9299    0.0000 C   0  0  0  0  0  0  0  0  0  0  0  0
  1  2  1  0  0  0  0
  2  3  1  0  0  0  0
  3  4  1  0  0  0  0
  4  5  1  0  0  0  0
  5  1  1  0  0  0  0
  1  6  2  0  0  0  0
  5  7  1  0  0  0  0
  7  8  1  0  0  0  0
  8  9  2  0  0  0  0
  9 10  1  0  0  0  0
  9 11  1  0  0  0  0
M  END
>  <cdx:fragmentId>
5

$$$$
