30379.cdx
  Mrv1902 05222410222D          

 12 11  0  0  0  0            999 V2000
   10.3731   -8.6990    0.0000 C   0  0  0  0  0  0  0  0  0  0  0  0
    9.6586   -8.2865    0.0000 C   0  0  0  0  0  0  0  0  0  0  0  0
    8.9442   -8.6990    0.0000 C   0  0  0  0  0  0  0  0  0  0  0  0
    8.2297   -8.2865    0.0000 C   0  0  0  0  0  0  0  0  0  0  0  0
    7.5152   -8.6990    0.0000 C   0  0  0  0  0  0  0  0  0  0  0  0
    6.8008   -8.2865    0.0000 C   0  0  0  0  0  0  0  0  0  0  0  0
    6.0863   -8.6990    0.0000 C   0  0  0  0  0  0  0  0  0  0  0  0
    5.3718   -8.2865    0.0000 C   0  0  0  0  0  0  0  0  0  0  0  0
    4.6573   -8.6990    0.0000 C   0  0  0  0  0  0  0  0  0  0  0  0
    3.9429   -8.2865    0.0000 C   0  0  0  0  0  0  0  0  0  0  0  0
    3.2284   -8.6990    0.0000 C   0  0  0  0  0  0  0  0  0  0  0  0
   11.0876   -8.2865    0.0000 O   0  0  0  0  0  0  0  0  0  0  0  0
  1  2  1  0  0  0  0
  2  3  2  0  0  0  0
  3  4  1  0  0  0  0
  4  5  1  0  0  0  0
  5  6  1  0  0  0  0
  6  7  1  0  0  0  0
  7  8  1  0  0  0  0
  8  9  1  0  0  0  0
  9 10  1  0  0  0  0
 10 11  1  0  0  0  0
  1 12  2  0  0  0  0
M  END
>  <cdx:fragmentId>
5

$$$$
