30387.cdx
  Mrv1902 05222410222D          

 22 23  0  0  0  0            999 V2000
    5.6493  -11.4801    0.0000 C   0  0  2  0  0  0  0  0  0  0  0  0
    5.6493  -12.3051    0.0000 C   0  0  2  0  0  0  0  0  0  0  0  0
    6.3638  -12.7176    0.0000 C   0  0  1  0  0  0  0  0  0  0  0  0
    7.0782  -12.3051    0.0000 C   0  0  2  0  0  0  0  0  0  0  0  0
    7.0782  -11.4801    0.0000 C   0  0  1  0  0  0  0  0  0  0  0  0
    6.3638  -11.0676    0.0000 O   0  0  0  0  0  0  0  0  0  0  0  0
    7.7927  -11.0676    0.0000 O   0  0  0  0  0  0  0  0  0  0  0  0
    7.7927  -10.2426    0.0000 C   0  0  0  0  0  0  0  0  0  0  0  0
    8.5072   -9.8301    0.0000 C   0  0  0  0  0  0  0  0  0  0  0  0
    8.5072   -9.0051    0.0000 C   0  0  0  0  0  0  0  0  0  0  0  0
    7.7927   -8.5926    0.0000 C   0  0  0  0  0  0  0  0  0  0  0  0
    9.2217   -8.5926    0.0000 C   0  0  0  0  0  0  0  0  0  0  0  0
    9.2217   -7.7676    0.0000 C   0  0  0  0  0  0  0  0  0  0  0  0
    8.5072   -7.3551    0.0000 C   0  0  0  0  0  0  0  0  0  0  0  0
    7.7927   -7.7676    0.0000 C   0  0  0  0  0  0  0  0  0  0  0  0
    8.5072   -6.5301    0.0000 O   0  0  0  0  0  0  0  0  0  0  0  0
    7.0782   -7.3551    0.0000 O   0  0  0  0  0  0  0  0  0  0  0  0
    4.9348  -11.0676    0.0000 C   0  0  0  0  0  0  0  0  0  0  0  0
    4.2204  -11.4801    0.0000 O   0  0  0  0  0  0  0  0  0  0  0  0
    4.9348  -12.7176    0.0000 O   0  0  0  0  0  0  0  0  0  0  0  0
    6.3638  -13.5426    0.0000 O   0  0  0  0  0  0  0  0  0  0  0  0
    7.7927  -12.7176    0.0000 O   0  0  0  0  0  0  0  0  0  0  0  0
  1  2  1  0  0  0  0
  2  3  1  0  0  0  0
  3  4  1  0  0  0  0
  4  5  1  0  0  0  0
  5  6  1  0  0  0  0
  6  1  1  0  0  0  0
  5  7  1  1  0  0  0
  7  8  1  0  0  0  0
  8  9  1  0  0  0  0
  9 10  1  0  0  0  0
 10 11  2  0  0  0  0
 10 12  1  0  0  0  0
 12 13  2  0  0  0  0
 13 14  1  0  0  0  0
 14 15  2  0  0  0  0
 15 11  1  0  0  0  0
 14 16  1  0  0  0  0
 17 15  1  0  0  0  0
  1 18  1  1  0  0  0
 18 19  1  0  0  0  0
  2 20  1  6  0  0  0
  3 21  1  1  0  0  0
  4 22  1  6  0  0  0
M  END
>  <cdx:fragmentId>
5

$$$$
