30382.cdx
  Mrv1902 05222410212D          

 14 15  0  0  0  0            999 V2000
    6.2956   -6.2276    0.0000 C   0  0  0  0  0  0  0  0  0  0  0  0
    6.2956   -7.0526    0.0000 C   0  0  0  0  0  0  0  0  0  0  0  0
    7.0100   -7.4651    0.0000 C   0  0  0  0  0  0  0  0  0  0  0  0
    7.7245   -7.0526    0.0000 C   0  0  0  0  0  0  0  0  0  0  0  0
    7.7245   -6.2276    0.0000 C   0  0  0  0  0  0  0  0  0  0  0  0
    7.0100   -5.8151    0.0000 C   0  0  0  0  0  0  0  0  0  0  0  0
    5.5811   -5.8151    0.0000 C   0  0  0  0  0  0  0  0  0  0  0  0
    7.0100   -8.2901    0.0000 C   0  0  0  0  0  0  0  0  0  0  0  0
    8.5091   -7.3076    0.0000 C   0  0  0  0  0  0  0  0  0  0  0  0
    8.9940   -6.6401    0.0000 C   0  0  0  0  0  0  0  0  0  0  0  0
    8.5091   -5.9727    0.0000 C   0  0  0  0  0  0  0  0  0  0  0  0
    8.7641   -8.0922    0.0000 O   0  0  0  0  0  0  0  0  0  0  0  0
    8.2956   -5.1758    0.0000 C   0  0  0  0  0  0  0  0  0  0  0  0
    9.2236   -5.5602    0.0000 C   0  0  0  0  0  0  0  0  0  0  0  0
  1  2  2  0  0  0  0
  2  3  1  0  0  0  0
  3  4  2  0  0  0  0
  4  5  1  0  0  0  0
  5  6  2  0  0  0  0
  6  1  1  0  0  0  0
  1  7  1  0  0  0  0
  3  8  1  0  0  0  0
  4  9  1  0  0  0  0
  9 10  1  0  0  0  0
 10 11  1  0  0  0  0
 11  5  1  0  0  0  0
  9 12  2  0  0  0  0
 11 13  1  0  0  0  0
 11 14  1  0  0  0  0
M  END
>  <cdx:fragmentId>
5

$$$$
