30385.cdx
  Mrv1902 05222410232D          

 24 25  0  0  0  0            999 V2000
    7.9637   -9.3663    0.0000 O   0  0  0  0  0  0  0  0  0  0  0  0
    7.2493   -9.7788    0.0000 C   0  0  1  0  0  0  0  0  0  0  0  0
    7.2493  -10.6038    0.0000 C   0  0  2  0  0  0  0  0  0  0  0  0
    7.9637  -11.0163    0.0000 O   0  0  0  0  0  0  0  0  0  0  0  0
    6.5348  -11.0163    0.0000 C   0  0  1  0  0  0  0  0  0  0  0  0
    6.5348  -11.8413    0.0000 O   0  0  0  0  0  0  0  0  0  0  0  0
    5.8203  -10.6038    0.0000 C   0  0  2  0  0  0  0  0  0  0  0  0
    5.1059  -11.0163    0.0000 O   0  0  0  0  0  0  0  0  0  0  0  0
    5.8203   -9.7788    0.0000 C   0  0  2  0  0  0  0  0  0  0  0  0
    6.5348   -9.3663    0.0000 O   0  0  0  0  0  0  0  0  0  0  0  0
    5.1059   -9.3663    0.0000 C   0  0  0  0  0  0  0  0  0  0  0  0
    4.3914   -9.7788    0.0000 O   0  0  0  0  0  0  0  0  0  0  0  0
    7.9645   -8.5413    0.0000 C   0  0  0  0  0  0  0  0  0  0  0  0
    8.6794   -8.1294    0.0000 C   0  0  0  0  0  0  0  0  0  0  0  0
    8.6801   -7.3044    0.0000 C   0  0  0  0  0  0  0  0  0  0  0  0
    7.9661   -6.8913    0.0000 C   0  0  0  0  0  0  0  0  0  0  0  0
    7.2512   -7.3031    0.0000 C   0  0  0  0  0  0  0  0  0  0  0  0
    7.2504   -8.1281    0.0000 C   0  0  0  0  0  0  0  0  0  0  0  0
    6.5371   -6.8899    0.0000 O   0  0  0  0  0  0  0  0  0  0  0  0
    6.5379   -6.0649    0.0000 C   0  0  0  0  0  0  0  0  0  0  0  0
    7.9668   -6.0663    0.0000 O   0  0  0  0  0  0  0  0  0  0  0  0
    9.3950   -6.8926    0.0000 O   0  0  0  0  0  0  0  0  0  0  0  0
    8.6813   -5.6538    0.0000 C   0  0  0  0  0  0  0  0  0  0  0  0
   10.1091   -7.3058    0.0000 C   0  0  0  0  0  0  0  0  0  0  0  0
  2  1  1  1  0  0  0
  2  3  1  0  0  0  0
  3  4  1  6  0  0  0
  3  5  1  0  0  0  0
  5  6  1  1  0  0  0
  5  7  1  0  0  0  0
  7  8  1  6  0  0  0
  7  9  1  0  0  0  0
  9 10  1  0  0  0  0
  9 11  1  1  0  0  0
 11 12  1  0  0  0  0
  2 10  1  0  0  0  0
 13 14  1  0  0  0  0
 14 15  2  0  0  0  0
 15 16  1  0  0  0  0
 16 17  2  0  0  0  0
 17 18  1  0  0  0  0
 13 18  2  0  0  0  0
 19 20  1  0  0  0  0
 17 19  1  0  0  0  0
 16 21  1  0  0  0  0
 15 22  1  0  0  0  0
  1 13  1  0  0  0  0
 21 23  1  0  0  0  0
 22 24  1  0  0  0  0
M  END
>  <cdx:fragmentId>
29

$$$$
