30380.cdx
  Mrv1902 05222410212D          

 17 18  0  0  0  0            999 V2000
    9.0704   -6.8255    0.0000 C   0  0  0  0  0  0  0  0  0  0  0  0
    9.7877   -6.4179    0.0000 C   0  0  0  0  0  0  0  0  0  0  0  0
    9.7934   -5.5930    0.0000 C   0  0  0  0  0  0  0  0  0  0  0  0
    9.0818   -5.1756    0.0000 C   0  0  0  0  0  0  0  0  0  0  0  0
    8.3645   -5.5831    0.0000 C   0  0  0  0  0  0  0  0  0  0  0  0
    8.3588   -6.4081    0.0000 C   0  0  0  0  0  0  0  0  0  0  0  0
   10.4994   -6.8353    0.0000 O   0  0  0  0  0  0  0  0  0  0  0  0
    9.0875   -4.3506    0.0000 O   0  0  0  0  0  0  0  0  0  0  0  0
    7.6415   -6.8157    0.0000 C   0  0  0  0  0  0  0  0  0  0  0  0
    6.9299   -6.3983    0.0000 C   0  0  0  0  0  0  0  0  0  0  0  0
    6.2126   -6.8059    0.0000 C   0  0  0  0  0  0  0  0  0  0  0  0
    5.5010   -6.3885    0.0000 C   0  0  0  0  0  0  0  0  0  0  0  0
    4.7837   -6.7961    0.0000 C   0  0  0  0  0  0  0  0  0  0  0  0
    4.7781   -7.6210    0.0000 C   0  0  0  0  0  0  0  0  0  0  0  0
    5.4897   -8.0384    0.0000 C   0  0  0  0  0  0  0  0  0  0  0  0
    6.2070   -7.6309    0.0000 C   0  0  0  0  0  0  0  0  0  0  0  0
    5.4840   -8.8634    0.0000 O   0  0  0  0  0  0  0  0  0  0  0  0
  1  2  2  0  0  0  0
  2  3  1  0  0  0  0
  3  4  2  0  0  0  0
  4  5  1  0  0  0  0
  5  6  2  0  0  0  0
  6  1  1  0  0  0  0
  2  7  1  0  0  0  0
  4  8  1  0  0  0  0
  6  9  1  0  0  0  0
  9 10  1  0  0  0  0
 10 11  1  0  0  0  0
 11 12  2  0  0  0  0
 12 13  1  0  0  0  0
 13 14  2  0  0  0  0
 14 15  1  0  0  0  0
 15 16  2  0  0  0  0
 16 11  1  0  0  0  0
 15 17  1  0  0  0  0
M  END
>  <cdx:fragmentId>
5

$$$$
