3038.cdx
  Mrv1902 05222410242D          

 17 16  0  0  0  0            999 V2000
    1.3159   -7.0950    0.0000 O   0  0  0  0  0  0  0  0  0  0  0  0
    2.0303   -6.6825    0.0000 C   0  0  0  0  0  0  0  0  0  0  0  0
    2.7448   -7.0950    0.0000 C   0  0  0  0  0  0  0  0  0  0  0  0
    3.4593   -6.6825    0.0000 C   0  0  0  0  0  0  0  0  0  0  0  0
    4.1738   -7.0950    0.0000 C   0  0  0  0  0  0  0  0  0  0  0  0
    4.8882   -6.6825    0.0000 C   0  0  0  0  0  0  0  0  0  0  0  0
    5.6027   -7.0950    0.0000 C   0  0  0  0  0  0  0  0  0  0  0  0
    6.3172   -6.6825    0.0000 C   0  0  0  0  0  0  0  0  0  0  0  0
    7.0316   -7.0950    0.0000 C   0  0  0  0  0  0  0  0  0  0  0  0
    7.7461   -6.6825    0.0000 C   0  0  0  0  0  0  0  0  0  0  0  0
    8.4606   -7.0950    0.0000 C   0  0  0  0  0  0  0  0  0  0  0  0
    9.1751   -6.6825    0.0000 C   0  0  0  0  0  0  0  0  0  0  0  0
    9.8895   -7.0950    0.0000 C   0  0  0  0  0  0  0  0  0  0  0  0
   10.6040   -6.6825    0.0000 C   0  0  0  0  0  0  0  0  0  0  0  0
   11.3185   -7.0950    0.0000 C   0  0  0  0  0  0  0  0  0  0  0  0
   12.0329   -6.6825    0.0000 C   0  0  0  0  0  0  0  0  0  0  0  0
   12.7474   -7.0950    0.0000 C   0  0  0  0  0  0  0  0  0  0  0  0
  1  2  1  0  0  0  0
  2  3  1  0  0  0  0
  3  4  1  0  0  0  0
  4  5  1  0  0  0  0
  5  6  1  0  0  0  0
  6  7  1  0  0  0  0
  7  8  1  0  0  0  0
  8  9  1  0  0  0  0
  9 10  1  0  0  0  0
 10 11  1  0  0  0  0
 11 12  1  0  0  0  0
 12 13  1  0  0  0  0
 13 14  1  0  0  0  0
 14 15  1  0  0  0  0
 15 16  1  0  0  0  0
 16 17  1  0  0  0  0
M  END
>  <cdx:fragmentId>
3

$$$$
