30399.cdx
  Mrv1902 05222410252D          

 20 22  0  0  0  0            999 V2000
    4.5906   -7.8776    0.0000 C   0  0  0  0  0  0  0  0  0  0  0  0
    4.5906   -8.7026    0.0000 C   0  0  0  0  0  0  0  0  0  0  0  0
    5.3050   -9.1151    0.0000 C   0  0  0  0  0  0  0  0  0  0  0  0
    6.0195   -8.7026    0.0000 C   0  0  0  0  0  0  0  0  0  0  0  0
    6.0195   -7.8776    0.0000 C   0  0  0  0  0  0  0  0  0  0  0  0
    5.3050   -7.4651    0.0000 C   0  0  0  0  0  0  0  0  0  0  0  0
    6.7340   -9.1151    0.0000 C   0  0  0  0  0  0  0  0  0  0  0  0
    7.4484   -8.7026    0.0000 C   0  0  0  0  0  0  0  0  0  0  0  0
    7.4484   -7.8776    0.0000 C   0  0  0  0  0  0  0  0  0  0  0  0
    6.7340   -7.4651    0.0000 C   0  0  0  0  0  0  0  0  0  0  0  0
    8.1629   -9.1151    0.0000 C   0  0  0  0  0  0  0  0  0  0  0  0
    8.8774   -8.7026    0.0000 C   0  0  0  0  0  0  0  0  0  0  0  0
    8.8774   -7.8776    0.0000 C   0  0  0  0  0  0  0  0  0  0  0  0
    8.1629   -7.4651    0.0000 C   0  0  0  0  0  0  0  0  0  0  0  0
    9.5919   -9.9401    0.0000 O   0  0  0  0  0  0  0  0  0  0  0  0
    9.5919   -9.1151    0.0000 C   0  0  0  0  0  0  0  0  0  0  0  0
    3.8761   -7.4651    0.0000 O   0  0  0  0  0  0  0  0  0  0  0  0
    6.7340   -6.6401    0.0000 O   0  0  0  0  0  0  0  0  0  0  0  0
    9.5919   -7.4651    0.0000 O   0  0  0  0  0  0  0  0  0  0  0  0
    6.7340   -9.9401    0.0000 O   0  0  0  0  0  0  0  0  0  0  0  0
  1  2  2  0  0  0  0
  2  3  1  0  0  0  0
  3  4  2  0  0  0  0
  4  5  1  0  0  0  0
  5  6  2  0  0  0  0
  6  1  1  0  0  0  0
  4  7  1  0  0  0  0
  7  8  1  0  0  0  0
  8  9  2  0  0  0  0
  9 10  1  0  0  0  0
 10  5  1  0  0  0  0
  8 11  1  0  0  0  0
 11 12  2  0  0  0  0
 12 13  1  0  0  0  0
 14  9  1  0  0  0  0
 15 16  1  0  0  0  0
 16 12  1  0  0  0  0
  1 17  1  0  0  0  0
 10 18  2  0  0  0  0
 14 13  2  0  0  0  0
 13 19  1  0  0  0  0
  7 20  2  0  0  0  0
M  END
>  <cdx:fragmentId>
5

$$$$
