30398.cdx
  Mrv1902 05222410252D          

 22 24  0  0  0  0            999 V2000
    5.2781   -7.8776    0.0000 C   0  0  0  0  0  0  0  0  0  0  0  0
    5.2781   -7.0526    0.0000 C   0  0  0  0  0  0  0  0  0  0  0  0
    5.9925   -6.6401    0.0000 C   0  0  0  0  0  0  0  0  0  0  0  0
    6.7070   -7.0526    0.0000 C   0  0  0  0  0  0  0  0  0  0  0  0
    6.7070   -7.8776    0.0000 C   0  0  0  0  0  0  0  0  0  0  0  0
    5.9925   -8.2901    0.0000 C   0  0  0  0  0  0  0  0  0  0  0  0
    7.4215   -6.6401    0.0000 O   0  0  0  0  0  0  0  0  0  0  0  0
    8.1359   -7.0526    0.0000 C   0  0  0  0  0  0  0  0  0  0  0  0
    8.1359   -7.8776    0.0000 C   0  0  0  0  0  0  0  0  0  0  0  0
    7.4215   -8.2901    0.0000 C   0  0  0  0  0  0  0  0  0  0  0  0
    8.8504   -6.6401    0.0000 C   0  0  0  0  0  0  0  0  0  0  0  0
    9.5649   -7.0526    0.0000 C   0  0  0  0  0  0  0  0  0  0  0  0
    9.5649   -7.8776    0.0000 O   0  0  0  0  0  0  0  0  0  0  0  0
    8.8504   -8.2901    0.0000 O   0  0  0  0  0  0  0  0  0  0  0  0
    8.8504   -5.8151    0.0000 C   0  0  0  0  0  0  0  0  0  0  0  0
    9.5649   -5.4026    0.0000 C   0  0  0  0  0  0  0  0  0  0  0  0
   10.2794   -5.8151    0.0000 C   0  0  0  0  0  0  0  0  0  0  0  0
   10.2794   -6.6401    0.0000 C   0  0  0  0  0  0  0  0  0  0  0  0
    4.5636   -8.2901    0.0000 O   0  0  0  0  0  0  0  0  0  0  0  0
    4.5636   -6.6401    0.0000 O   0  0  0  0  0  0  0  0  0  0  0  0
    7.4215   -9.1151    0.0000 O   0  0  0  0  0  0  0  0  0  0  0  0
    8.1359   -5.4026    0.0000 O   0  0  0  0  0  0  0  0  0  0  0  0
  1  2  2  0  0  0  0
  2  3  1  0  0  0  0
  3  4  2  0  0  0  0
  4  5  1  0  0  0  0
  5  6  2  0  0  0  0
  6  1  1  0  0  0  0
  4  7  1  0  0  0  0
  7  8  1  0  0  0  0
  8  9  1  0  0  0  0
  9 10  1  0  0  0  0
 10  5  1  0  0  0  0
  8 11  1  0  0  0  0
 11 12  2  0  0  0  0
 12 13  1  0  0  0  0
 14  9  1  0  0  0  0
 11 15  1  0  0  0  0
 15 16  2  0  0  0  0
 16 17  1  0  0  0  0
 17 18  2  0  0  0  0
 18 12  1  0  0  0  0
  1 19  1  0  0  0  0
  2 20  1  0  0  0  0
 10 21  2  0  0  0  0
 15 22  1  0  0  0  0
M  END
>  <cdx:fragmentId>
5

$$$$
