30394.cdx
  Mrv1902 05222410212D          

  7  7  0  0  0  0            999 V2000
    5.8064   -8.4512    0.0000 C   0  0  0  0  0  0  0  0  0  0  0  0
    6.0751   -9.2312    0.0000 S   0  0  0  0  0  0  0  0  0  0  0  0
    6.9000   -9.2167    0.0000 S   0  0  0  0  0  0  0  0  0  0  0  0
    7.1410   -8.4277    0.0000 C   0  0  0  0  0  0  0  0  0  0  0  0
    6.4651   -7.9546    0.0000 S   0  0  0  0  0  0  0  0  0  0  0  0
    5.0174   -8.2101    0.0000 C   0  0  0  0  0  0  0  0  0  0  0  0
    7.9210   -8.1589    0.0000 C   0  0  0  0  0  0  0  0  0  0  0  0
  1  2  1  0  0  0  0
  2  3  1  0  0  0  0
  3  4  1  0  0  0  0
  4  5  1  0  0  0  0
  5  1  1  0  0  0  0
  1  6  1  0  0  0  0
  4  7  1  0  0  0  0
M  END
>  <cdx:fragmentId>
5

$$$$
