30392.cdx
  Mrv1902 05222410222D          

 13 14  0  0  0  0            999 V2000
    7.4506   -7.5889    0.0000 C   0  0  0  0  0  0  0  0  0  0  0  0
    7.4506   -8.4139    0.0000 C   0  0  0  0  0  0  0  0  0  0  0  0
    8.1650   -8.8264    0.0000 C   0  0  0  0  0  0  0  0  0  0  0  0
    8.8795   -8.4139    0.0000 C   0  0  0  0  0  0  0  0  0  0  0  0
    8.8795   -7.5889    0.0000 C   0  0  0  0  0  0  0  0  0  0  0  0
    8.1650   -7.1764    0.0000 C   0  0  0  0  0  0  0  0  0  0  0  0
    9.6641   -8.6688    0.0000 O   0  0  0  0  0  0  0  0  0  0  0  0
   10.1490   -8.0014    0.0000 C   0  0  0  0  0  0  0  0  0  0  0  0
    9.6641   -7.3340    0.0000 O   0  0  0  0  0  0  0  0  0  0  0  0
    6.7361   -7.1764    0.0000 C   0  0  0  0  0  0  0  0  0  0  0  0
    6.0216   -7.5889    0.0000 C   0  0  0  0  0  0  0  0  0  0  0  0
    5.3071   -7.1764    0.0000 C   0  0  0  0  0  0  0  0  0  0  0  0
    4.5927   -7.5889    0.0000 O   0  0  0  0  0  0  0  0  0  0  0  0
  1  2  2  0  0  0  0
  2  3  1  0  0  0  0
  3  4  2  0  0  0  0
  4  5  1  0  0  0  0
  5  6  2  0  0  0  0
  6  1  1  0  0  0  0
  4  7  1  0  0  0  0
  7  8  1  0  0  0  0
  8  9  1  0  0  0  0
  9  5  1  0  0  0  0
  1 10  1  0  0  0  0
 10 11  2  0  0  0  0
 11 12  1  0  0  0  0
 12 13  2  0  0  0  0
M  END
>  <cdx:fragmentId>
5

$$$$
