30395.cdx
  Mrv1902 05222410202D          

 11 10  0  0  0  0            999 V2000
    8.7526   -8.6201    0.0000 C   0  0  0  0  0  0  0  0  0  0  0  0
    8.0381   -8.2076    0.0000 C   0  0  0  0  0  0  0  0  0  0  0  0
    7.3236   -8.6201    0.0000 C   0  0  0  0  0  0  0  0  0  0  0  0
    6.6092   -8.2076    0.0000 C   0  0  0  0  0  0  0  0  0  0  0  0
    5.8947   -8.6201    0.0000 C   0  0  0  0  0  0  0  0  0  0  0  0
    5.1802   -8.2076    0.0000 C   0  0  0  0  0  0  0  0  0  0  0  0
    4.4657   -8.6201    0.0000 C   0  0  0  0  0  0  0  0  0  0  0  0
    3.7513   -8.2076    0.0000 C   0  0  0  0  0  0  0  0  0  0  0  0
    5.1802   -7.3826    0.0000 C   0  0  0  0  0  0  0  0  0  0  0  0
    6.6092   -7.3826    0.0000 C   0  0  0  0  0  0  0  0  0  0  0  0
    5.8947   -9.4451    0.0000 O   0  0  0  0  0  0  0  0  0  0  0  0
  2  1  1  0  0  0  0
  3  2  1  0  0  0  0
  4  3  1  0  0  0  0
  5  4  1  0  0  0  0
  6  5  1  0  0  0  0
  7  6  1  0  0  0  0
  8  7  1  0  0  0  0
  6  9  1  0  0  0  0
  4 10  1  0  0  0  0
  5 11  2  0  0  0  0
M  END
>  <cdx:fragmentId>
3

$$$$
