30409.cdx
  Mrv1902 05222410222D          

 26 29  0  0  0  0            999 V2000
    3.0231  -11.3426    0.0000 C   0  0  0  0  0  0  0  0  0  0  0  0
    3.0231  -12.1676    0.0000 C   0  0  0  0  0  0  0  0  0  0  0  0
    3.7375  -12.5801    0.0000 C   0  0  0  0  0  0  0  0  0  0  0  0
    4.4520  -12.1676    0.0000 C   0  0  0  0  0  0  0  0  0  0  0  0
    4.4520  -11.3426    0.0000 C   0  0  2  0  0  0  0  0  0  0  0  0
    3.7375  -10.9301    0.0000 C   0  0  0  0  0  0  0  0  0  0  0  0
    5.1665  -12.5801    0.0000 C   0  0  0  0  0  0  0  0  0  0  0  0
    5.8809  -12.1676    0.0000 C   0  0  0  0  0  0  0  0  0  0  0  0
    5.8809  -11.3426    0.0000 C   0  0  2  0  0  0  0  0  0  0  0  0
    5.1665  -10.9301    0.0000 C   0  0  2  0  0  0  0  0  0  0  0  0
    6.5954  -10.9301    0.0000 C   0  0  1  0  0  0  0  0  0  0  0  0
    6.5954  -10.1051    0.0000 C   0  0  2  0  0  0  0  0  0  0  0  0
    5.8809   -9.6926    0.0000 C   0  0  0  0  0  0  0  0  0  0  0  0
    5.1665  -10.1051    0.0000 C   0  0  0  0  0  0  0  0  0  0  0  0
    4.4520  -10.5176    0.0000 C   0  0  0  0  0  0  0  0  0  0  0  0
    6.4643  -11.9260    0.0000 H   0  0  0  0  0  0  0  0  0  0  0  0
    6.8089  -11.7270    0.0000 H   0  0  0  0  0  0  0  0  0  0  0  0
    5.8809  -10.5176    0.0000 H   0  0  0  0  0  0  0  0  0  0  0  0
    2.3086  -12.5801    0.0000 O   0  0  0  0  0  0  0  0  0  0  0  0
    7.3800  -11.1851    0.0000 C   0  0  0  0  0  0  0  0  0  0  0  0
    7.8650  -10.5176    0.0000 C   0  0  0  0  0  0  0  0  0  0  0  0
    7.3800   -9.8502    0.0000 C   0  0  0  0  0  0  0  0  0  0  0  0
    6.6816   -9.2847    0.0000 C   0  0  0  0  0  0  0  0  0  0  0  0
    7.6350   -9.0656    0.0000 O   0  0  0  0  0  0  0  0  0  0  0  0
    3.0231  -12.9926    0.0000 C   0  0  0  0  0  0  0  0  0  0  0  0
    3.7375  -13.4051    0.0000 C   0  0  0  0  0  0  0  0  0  0  0  0
  1  2  1  0  0  0  0
  2  3  1  0  0  0  0
  3  4  1  0  0  0  0
  4  5  1  0  0  0  0
  5  6  1  0  0  0  0
  6  1  1  0  0  0  0
  4  7  1  0  0  0  0
  7  8  1  0  0  0  0
  8  9  1  0  0  0  0
  9 10  1  0  0  0  0
 10  5  1  0  0  0  0
  9 11  1  0  0  0  0
 11 12  1  0  0  0  0
 12 13  1  0  0  0  0
 13 14  1  0  0  0  0
 14 10  1  0  0  0  0
  5 15  1  1  0  0  0
  9 16  1  1  0  0  0
 11 17  1  6  0  0  0
 10 18  1  6  0  0  0
  2 19  1  0  0  0  0
 11 20  1  0  0  0  0
 20 21  1  0  0  0  0
 21 22  1  0  0  0  0
 22 12  1  0  0  0  0
 12 23  1  1  0  0  0
 22 24  2  0  0  0  0
  2 25  1  0  0  0  0
 25 26  1  0  0  0  0
M  END
>  <cdx:fragmentId>
5

$$$$
