30400.cdx
  Mrv1902 05222410252D          

 27 28  0  0  0  0            999 V2000
    6.2237   -8.6683    0.0000 C   0  0  2  0  0  0  0  0  0  0  0  0
    5.1398   -9.1899    0.0000 C   0  0  2  0  0  0  0  0  0  0  0  0
    4.9973   -8.2240    0.0000 C   0  0  0  0  0  0  0  0  0  0  0  0
    6.1246   -7.8810    0.0000 C   0  0  1  0  0  0  0  0  0  0  0  0
    6.9525   -7.1359    0.0000 N   0  0  0  0  0  0  0  0  0  0  0  0
    7.5834   -8.0836    0.0000 C   0  0  0  0  0  0  0  0  0  0  0  0
    7.0631   -9.1138    0.0000 C   0  0  0  0  0  0  0  0  0  0  0  0
    7.9040   -8.8413    0.0000 C   0  0  2  0  0  0  0  0  0  0  0  0
    4.7530   -9.9186    0.0000 O   0  0  0  0  0  0  0  0  0  0  0  0
    6.2074   -9.4932    0.0000 H   0  0  0  0  0  0  0  0  0  0  0  0
    8.6544   -9.1842    0.0000 O   0  0  0  0  0  0  0  0  0  0  0  0
    7.4458   -6.4746    0.0000 C   0  0  0  0  0  0  0  0  0  0  0  0
    9.3265   -8.7057    0.0000 C   0  0  0  0  0  0  0  0  0  0  0  0
   10.0769   -9.0486    0.0000 C   0  0  0  0  0  0  0  0  0  0  0  0
   10.7490   -8.5702    0.0000 C   0  0  0  0  0  0  0  0  0  0  0  0
   11.4994   -8.9130    0.0000 C   0  0  0  0  0  0  0  0  0  0  0  0
   10.6707   -7.7489    0.0000 H   0  0  0  0  0  0  0  0  0  0  0  0
    9.2482   -7.8845    0.0000 O   0  0  0  0  0  0  0  0  0  0  0  0
   10.1551   -9.8699    0.0000 C   0  0  0  0  0  0  0  0  0  0  0  0
    3.9280   -9.9186    0.0000 C   0  0  0  0  0  0  0  0  0  0  0  0
    3.5155  -10.6331    0.0000 C   0  0  0  0  0  0  0  0  0  0  0  0
    2.6905  -10.6331    0.0000 C   0  0  0  0  0  0  0  0  0  0  0  0
    2.2780  -11.3475    0.0000 C   0  0  0  0  0  0  0  0  0  0  0  0
    2.2780   -9.9186    0.0000 H   0  0  0  0  0  0  0  0  0  0  0  0
    3.9280  -11.3475    0.0000 C   0  0  0  0  0  0  0  0  0  0  0  0
    3.5155   -9.2041    0.0000 O   0  0  0  0  0  0  0  0  0  0  0  0
    5.7121   -7.1665    0.0000 H   0  0  0  0  0  0  0  0  0  0  0  0
  1  2  1  0  0  0  0
  2  3  1  0  0  0  0
  3  4  1  0  0  0  0
  4  5  1  0  0  0  0
  4  6  1  0  0  0  0
  1  7  1  0  0  0  0
  6  8  1  0  0  0  0
  7  8  1  0  0  0  0
  2  9  1  1  0  0  0
  1 10  1  1  0  0  0
  8 11  1  1  0  0  0
  5  1  1  0  0  0  0
  5 12  1  0  0  0  0
 11 13  1  0  0  0  0
 13 14  1  0  0  0  0
 14 15  2  0  0  0  0
 15 16  1  0  0  0  0
 15 17  1  0  0  0  0
 13 18  2  0  0  0  0
 14 19  1  0  0  0  0
  9 20  1  0  0  0  0
 20 21  1  0  0  0  0
 21 22  2  0  0  0  0
 22 23  1  0  0  0  0
 22 24  1  0  0  0  0
 21 25  1  0  0  0  0
 20 26  2  0  0  0  0
  4 27  1  6  0  0  0
M  END
>  <cdx:groupId>
816

>  <cdx:fragmentId>
817

$$$$
