3040.cdx
  Mrv1902 05222410202D          

 15 16  0  0  0  0            999 V2000
    5.4277   -6.9094    0.0000 C   0  0  0  0  0  0  0  0  0  0  0  0
    5.4277   -7.7344    0.0000 C   0  0  0  0  0  0  0  0  0  0  0  0
    6.1421   -8.1469    0.0000 C   0  0  0  0  0  0  0  0  0  0  0  0
    6.8566   -7.7344    0.0000 C   0  0  0  0  0  0  0  0  0  0  0  0
    6.8566   -6.9094    0.0000 C   0  0  0  0  0  0  0  0  0  0  0  0
    6.1421   -6.4969    0.0000 C   0  0  0  0  0  0  0  0  0  0  0  0
    7.6412   -7.9893    0.0000 C   0  0  0  0  0  0  0  0  0  0  0  0
    8.1261   -7.3219    0.0000 C   0  0  0  0  0  0  0  0  0  0  0  0
    7.6412   -6.6544    0.0000 C   0  0  0  0  0  0  0  0  0  0  0  0
    4.7132   -6.4969    0.0000 C   0  0  0  0  0  0  0  0  0  0  0  0
    6.8566   -8.5594    0.0000 C   0  0  0  0  0  0  0  0  0  0  0  0
    7.8547   -8.7862    0.0000 C   0  0  0  0  0  0  0  0  0  0  0  0
    7.8547   -5.8575    0.0000 C   0  0  0  0  0  0  0  0  0  0  0  0
    7.2714   -5.2742    0.0000 C   0  0  0  0  0  0  0  0  0  0  0  0
    8.6516   -5.6440    0.0000 C   0  0  0  0  0  0  0  0  0  0  0  0
  1  2  2  0  0  0  0
  2  3  1  0  0  0  0
  3  4  1  0  0  0  0
  4  5  1  0  0  0  0
  5  6  2  0  0  0  0
  6  1  1  0  0  0  0
  4  7  1  0  0  0  0
  7  8  1  0  0  0  0
  8  9  1  0  0  0  0
  9  5  1  0  0  0  0
  1 10  1  0  0  0  0
  4 11  1  0  0  0  0
  7 12  1  0  0  0  0
  9 13  1  0  0  0  0
 13 14  1  0  0  0  0
 13 15  1  0  0  0  0
M  END
>  <cdx:fragmentId>
5

$$$$
