30401.cdx
  Mrv1902 05222410252D          

 20 19  0  0  0  0            999 V2000
    1.6953   -4.1874    0.0000 C   0  0  0  0  0  0  0  0  0  0  0  0
    2.4100   -3.7752    0.0000 C   0  0  0  0  0  0  0  0  0  0  0  0
    3.1243   -4.1881    0.0000 C   0  0  0  0  0  0  0  0  0  0  0  0
    3.8389   -3.7759    0.0000 C   0  0  0  0  0  0  0  0  0  0  0  0
    4.5532   -4.1887    0.0000 C   0  0  0  0  0  0  0  0  0  0  0  0
    5.2678   -3.7765    0.0000 C   0  0  0  0  0  0  0  0  0  0  0  0
    5.9821   -4.1893    0.0000 C   0  0  0  0  0  0  0  0  0  0  0  0
    6.6968   -3.7771    0.0000 C   0  0  0  0  0  0  0  0  0  0  0  0
    7.4111   -4.1899    0.0000 C   0  0  0  0  0  0  0  0  0  0  0  0
    8.1257   -3.7777    0.0000 C   0  0  0  0  0  0  0  0  0  0  0  0
    8.8400   -4.1905    0.0000 C   0  0  0  0  0  0  0  0  0  0  0  0
    9.5547   -3.7784    0.0000 C   0  0  0  0  0  0  0  0  0  0  0  0
   10.2690   -4.1912    0.0000 C   0  0  0  0  0  0  0  0  0  0  0  0
   10.9836   -3.7790    0.0000 C   0  0  0  0  0  0  0  0  0  0  0  0
   11.6979   -4.1918    0.0000 C   0  0  0  0  0  0  0  0  0  0  0  0
   12.4126   -3.7796    0.0000 C   0  0  0  0  0  0  0  0  0  0  0  0
   11.6975   -5.0168    0.0000 C   0  0  0  0  0  0  0  0  0  0  0  0
    8.8397   -5.0155    0.0000 C   0  0  0  0  0  0  0  0  0  0  0  0
    5.9818   -5.0143    0.0000 C   0  0  0  0  0  0  0  0  0  0  0  0
    3.1239   -5.0131    0.0000 C   0  0  0  0  0  0  0  0  0  0  0  0
  1  2  2  0  0  0  0
  2  3  1  0  0  0  0
  3  4  2  0  0  0  0
  4  5  1  0  0  0  0
  5  6  1  0  0  0  0
  6  7  2  0  0  0  0
  7  8  1  0  0  0  0
  8  9  1  0  0  0  0
  9 10  1  0  0  0  0
 10 11  2  0  0  0  0
 11 12  1  0  0  0  0
 12 13  1  0  0  0  0
 13 14  1  0  0  0  0
 14 15  2  0  0  0  0
 15 16  1  0  0  0  0
 15 17  1  0  0  0  0
 11 18  1  0  0  0  0
  7 19  1  0  0  0  0
  3 20  1  0  0  0  0
M  END
>  <cdx:fragmentId>
28838

$$$$
