30406.cdx
  Mrv1902 05222410242D          

 24 26  0  0  0  0            999 V2000
   10.2259   -5.8599    0.0000 O   0  0  0  0  0  0  0  0  0  0  0  0
    8.7904   -5.0463    0.0000 O   0  0  0  0  0  0  0  0  0  0  0  0
    3.0946   -7.5669    0.0000 C   0  0  0  0  0  0  0  0  0  0  0  0
    3.8057   -7.1487    0.0000 O   0  0  0  0  0  0  0  0  0  0  0  0
    5.2544   -9.6122    0.0000 O   0  0  0  0  0  0  0  0  0  0  0  0
    6.6833   -9.6008    0.0000 O   0  0  0  0  0  0  0  0  0  0  0  0
    8.1122   -9.5894    0.0000 C   0  0  0  0  0  0  0  0  0  0  0  0
    8.1056   -8.7644    0.0000 O   0  0  0  0  0  0  0  0  0  0  0  0
    9.5213   -7.1030    0.0000 C   0  0  0  0  0  0  0  0  0  0  0  0
    9.5147   -6.2780    0.0000 C   0  0  0  0  0  0  0  0  0  0  0  0
    8.7970   -5.8713    0.0000 C   0  0  0  0  0  0  0  0  0  0  0  0
    8.0858   -6.2895    0.0000 C   0  0  0  0  0  0  0  0  0  0  0  0
    8.8102   -7.5212    0.0000 C   0  0  0  0  0  0  0  0  0  0  0  0
    8.0924   -7.1144    0.0000 C   0  0  0  0  0  0  0  0  0  0  0  0
    6.6767   -8.7758    0.0000 C   0  0  0  0  0  0  0  0  0  0  0  0
    7.3879   -8.3576    0.0000 C   0  0  0  0  0  0  0  0  0  0  0  0
    7.3813   -7.5326    0.0000 C   0  0  0  0  0  0  0  0  0  0  0  0
    6.6635   -7.1259    0.0000 O   0  0  0  0  0  0  0  0  0  0  0  0
    5.2478   -8.7872    0.0000 C   0  0  0  0  0  0  0  0  0  0  0  0
    5.9590   -8.3690    0.0000 C   0  0  0  0  0  0  0  0  0  0  0  0
    5.9524   -7.5441    0.0000 C   0  0  0  0  0  0  0  0  0  0  0  0
    5.2346   -7.1373    0.0000 C   0  0  0  0  0  0  0  0  0  0  0  0
    4.5235   -7.5555    0.0000 C   0  0  0  0  0  0  0  0  0  0  0  0
    4.5301   -8.3805    0.0000 C   0  0  0  0  0  0  0  0  0  0  0  0
 10  1  1  0  0  0  0
 11  2  1  0  0  0  0
  4  3  1  0  0  0  0
 23  4  1  0  0  0  0
 19  5  1  0  0  0  0
 15  6  2  0  0  0  0
  8  7  1  0  0  0  0
 16  8  1  0  0  0  0
  9 13  2  0  0  0  0
 10  9  1  0  0  0  0
 11 10  2  0  0  0  0
 12 11  1  0  0  0  0
 14 12  2  0  0  0  0
 14 13  1  0  0  0  0
 17 14  1  0  0  0  0
 15 20  1  0  0  0  0
 16 15  1  0  0  0  0
 17 16  2  0  0  0  0
 18 17  1  0  0  0  0
 21 18  1  0  0  0  0
 19 24  1  0  0  0  0
 20 19  2  0  0  0  0
 21 20  1  0  0  0  0
 22 21  2  0  0  0  0
 23 22  1  0  0  0  0
 24 23  2  0  0  0  0
M  END
>  <cdx:fragmentId>
5

$$$$
