30402.cdx
  Mrv1902 05222410252D          

 20 19  0  0  0  0            999 V2000
    2.0050   -8.3864    0.0000 C   0  0  0  0  0  0  0  0  0  0  0  0
    2.7195   -7.9739    0.0000 C   0  0  0  0  0  0  0  0  0  0  0  0
    3.4340   -8.3864    0.0000 O   0  0  0  0  0  0  0  0  0  0  0  0
    4.1484   -7.9739    0.0000 C   0  0  0  0  0  0  0  0  0  0  0  0
    4.8629   -8.3864    0.0000 C   0  0  0  0  0  0  0  0  0  0  0  0
    5.5774   -7.9739    0.0000 C   0  0  0  0  0  0  0  0  0  0  0  0
    6.2919   -7.5614    0.0000 C   0  0  0  0  0  0  0  0  0  0  0  0
    7.0063   -7.9739    0.0000 C   0  0  0  0  0  0  0  0  0  0  0  0
    7.7208   -7.5614    0.0000 C   0  0  0  0  0  0  0  0  0  0  0  0
    8.4353   -7.9739    0.0000 C   0  0  0  0  0  0  0  0  0  0  0  0
    9.1497   -7.5614    0.0000 C   0  0  0  0  0  0  0  0  0  0  0  0
    9.8642   -7.9739    0.0000 C   0  0  0  0  0  0  0  0  0  0  0  0
   10.5787   -7.5614    0.0000 C   0  0  0  0  0  0  0  0  0  0  0  0
   11.2931   -7.9739    0.0000 C   0  0  0  0  0  0  0  0  0  0  0  0
   12.0076   -7.5614    0.0000 C   0  0  0  0  0  0  0  0  0  0  0  0
   11.2931   -8.7989    0.0000 C   0  0  0  0  0  0  0  0  0  0  0  0
    8.4353   -8.7989    0.0000 C   0  0  0  0  0  0  0  0  0  0  0  0
    5.1649   -7.2594    0.0000 O   0  0  0  0  0  0  0  0  0  0  0  0
    5.9899   -8.6884    0.0000 C   0  0  0  0  0  0  0  0  0  0  0  0
    2.7195   -7.1489    0.0000 O   0  0  0  0  0  0  0  0  0  0  0  0
  1  2  1  0  0  0  0
  2  3  1  0  0  0  0
  3  4  1  0  0  0  0
  4  5  1  0  0  0  0
  5  6  1  0  0  0  0
  6  7  1  0  0  0  0
  7  8  1  0  0  0  0
  8  9  1  0  0  0  0
  9 10  2  0  0  0  0
 10 11  1  0  0  0  0
 11 12  1  0  0  0  0
 12 13  1  0  0  0  0
 13 14  2  0  0  0  0
 14 15  1  0  0  0  0
 14 16  1  0  0  0  0
 10 17  1  0  0  0  0
  6 18  1  0  0  0  0
  6 19  1  0  0  0  0
  2 20  2  0  0  0  0
M  END
>  <cdx:fragmentId>
3

$$$$
