30408.cdx
  Mrv1902 05222410232D          

 34 38  0  0  0  0            999 V2000
    5.3036   -6.7948    0.0000 C   0  0  0  0  0  0  0  0  0  0  0  0
    4.5891   -7.2073    0.0000 C   0  0  0  0  0  0  0  0  0  0  0  0
    4.5891   -8.0323    0.0000 C   0  0  2  0  0  0  0  0  0  0  0  0
    5.3036   -8.4448    0.0000 C   0  0  0  0  0  0  0  0  0  0  0  0
    6.0181   -8.0323    0.0000 C   0  0  2  0  0  0  0  0  0  0  0  0
    6.7326   -8.4448    0.0000 C   0  0  0  0  0  0  0  0  0  0  0  0
    7.4470   -8.0323    0.0000 C   0  0  0  0  0  0  0  0  0  0  0  0
    7.4470   -7.2073    0.0000 C   0  0  1  0  0  0  0  0  0  0  0  0
    8.1615   -6.7948    0.0000 C   0  0  2  0  0  0  0  0  0  0  0  0
    8.8760   -7.2073    0.0000 C   0  0  0  0  0  0  0  0  0  0  0  0
    9.5904   -6.7948    0.0000 C   0  0  0  0  0  0  0  0  0  0  0  0
    9.5904   -5.9698    0.0000 C   0  0  1  0  0  0  0  0  0  0  0  0
   10.3049   -5.5573    0.0000 C   0  0  0  0  0  0  0  0  0  0  0  0
   10.3049   -4.7323    0.0000 C   0  0  0  0  0  0  0  0  0  0  0  0
    9.5904   -4.3198    0.0000 C   0  0  0  0  0  0  0  0  0  0  0  0
    8.8760   -4.7323    0.0000 C   0  0  0  0  0  0  0  0  0  0  0  0
    8.8760   -5.5573    0.0000 C   0  0  1  0  0  0  0  0  0  0  0  0
    8.1615   -5.9698    0.0000 C   0  0  0  0  0  0  0  0  0  0  0  0
    7.4470   -5.5573    0.0000 C   0  0  0  0  0  0  0  0  0  0  0  0
    6.7326   -5.9698    0.0000 C   0  0  0  0  0  0  0  0  0  0  0  0
    6.7326   -6.7948    0.0000 C   0  0  2  0  0  0  0  0  0  0  0  0
    6.0181   -7.2073    0.0000 C   0  0  1  0  0  0  0  0  0  0  0  0
    3.8747   -8.4448    0.0000 O   0  0  0  0  0  0  0  0  0  0  0  0
    6.0181   -6.3823    0.0000 C   0  0  0  0  0  0  0  0  0  0  0  0
   10.0029   -3.6054    0.0000 C   0  0  0  0  0  0  0  0  0  0  0  0
   10.3049   -6.3823    0.0000 C   0  0  0  0  0  0  0  0  0  0  0  0
    8.1615   -7.6198    0.0000 C   0  0  0  0  0  0  0  0  0  0  0  0
    7.4470   -6.3823    0.0000 C   0  0  0  0  0  0  0  0  0  0  0  0
    5.7161   -9.1593    0.0000 C   0  0  0  0  0  0  0  0  0  0  0  0
    4.8911   -9.1593    0.0000 C   0  0  0  0  0  0  0  0  0  0  0  0
    6.0181   -8.8573    0.0000 H   0  0  0  0  0  0  0  0  0  0  0  0
    8.8760   -6.3823    0.0000 H   0  0  0  0  0  0  0  0  0  0  0  0
    6.7326   -7.6198    0.0000 H   0  0  0  0  0  0  0  0  0  0  0  0
    9.1779   -3.6054    0.0000 C   0  0  0  0  0  0  0  0  0  0  0  0
  1  2  1  0  0  0  0
  2  3  1  0  0  0  0
  3  4  1  0  0  0  0
  4  5  1  0  0  0  0
  5  6  1  0  0  0  0
  6  7  1  0  0  0  0
  7  8  1  0  0  0  0
  8  9  1  0  0  0  0
  9 10  1  0  0  0  0
 10 11  1  0  0  0  0
 11 12  1  0  0  0  0
 12 13  1  0  0  0  0
 13 14  1  0  0  0  0
 14 15  1  0  0  0  0
 15 16  1  0  0  0  0
 16 17  1  0  0  0  0
 12 17  1  0  0  0  0
 17 18  1  0  0  0  0
  9 18  1  0  0  0  0
 18 19  2  0  0  0  0
 19 20  1  0  0  0  0
 20 21  1  0  0  0  0
  8 21  1  0  0  0  0
 21 22  1  0  0  0  0
  5 22  1  0  0  0  0
  1 22  1  0  0  0  0
  3 23  1  6  0  0  0
 22 24  1  1  0  0  0
 15 25  1  0  0  0  0
 12 26  1  1  0  0  0
  9 27  1  6  0  0  0
  8 28  1  1  0  0  0
  4 29  1  0  0  0  0
  4 30  1  0  0  0  0
  5 31  1  6  0  0  0
 17 32  1  1  0  0  0
 21 33  1  6  0  0  0
 15 34  1  0  0  0  0
M  END
>  <cdx:fragmentId>
132

$$$$
