30417.cdx
  Mrv1902 05222410252D          

 14 15  0  0  0  0            999 V2000
    5.7456  -10.2151    0.0000 C   0  0  0  0  0  0  0  0  0  0  0  0
    5.7456  -11.0401    0.0000 C   0  0  0  0  0  0  0  0  0  0  0  0
    6.4600  -11.4526    0.0000 C   0  0  0  0  0  0  0  0  0  0  0  0
    7.1745  -11.0401    0.0000 C   0  0  0  0  0  0  0  0  0  0  0  0
    7.1745  -10.2151    0.0000 C   0  0  0  0  0  0  0  0  0  0  0  0
    6.4600   -9.8026    0.0000 C   0  0  0  0  0  0  0  0  0  0  0  0
    6.4600   -8.9776    0.0000 S   0  0  0  0  0  0  0  0  0  0  0  0
    7.1745   -8.5651    0.0000 C   0  0  0  0  0  0  0  0  0  0  0  0
    7.9282   -8.9007    0.0000 C   0  0  0  0  0  0  0  0  0  0  0  0
    8.4802   -8.2876    0.0000 C   0  0  0  0  0  0  0  0  0  0  0  0
    8.0677   -7.5731    0.0000 O   0  0  0  0  0  0  0  0  0  0  0  0
    7.2607   -7.7447    0.0000 C   0  0  0  0  0  0  0  0  0  0  0  0
    8.0997   -9.7077    0.0000 C   0  0  0  0  0  0  0  0  0  0  0  0
    9.3007   -8.3738    0.0000 O   0  0  0  0  0  0  0  0  0  0  0  0
  1  2  2  0  0  0  0
  2  3  1  0  0  0  0
  3  4  2  0  0  0  0
  4  5  1  0  0  0  0
  5  6  2  0  0  0  0
  6  1  1  0  0  0  0
  6  7  1  0  0  0  0
  7  8  1  0  0  0  0
  8  9  2  0  0  0  0
  9 10  1  0  0  0  0
 10 11  1  0  0  0  0
 11 12  1  0  0  0  0
 12  8  1  0  0  0  0
  9 13  1  0  0  0  0
 10 14  2  0  0  0  0
M  END
>  <cdx:fragmentId>
5

$$$$
