30416.cdx
  Mrv1902 05222410252D          

 15 14  0  0  0  0            999 V2000
   10.4417   -9.1701    0.0000 C   0  0  0  0  0  0  0  0  0  0  0  0
    9.7272   -8.7576    0.0000 C   0  0  0  0  0  0  0  0  0  0  0  0
    9.0128   -9.1701    0.0000 C   0  0  0  0  0  0  0  0  0  0  0  0
    8.2983   -8.7576    0.0000 C   0  0  0  0  0  0  0  0  0  0  0  0
    7.5838   -9.1701    0.0000 C   0  0  0  0  0  0  0  0  0  0  0  0
    6.8694   -8.7576    0.0000 C   0  0  0  0  0  0  0  0  0  0  0  0
    6.1549   -9.1701    0.0000 C   0  0  0  0  0  0  0  0  0  0  0  0
    5.4404   -8.7576    0.0000 O   0  0  0  0  0  0  0  0  0  0  0  0
    4.7259   -9.1701    0.0000 C   0  0  0  0  0  0  0  0  0  0  0  0
    4.0115   -8.7576    0.0000 C   0  0  0  0  0  0  0  0  0  0  0  0
    3.2970   -9.1701    0.0000 C   0  0  0  0  0  0  0  0  0  0  0  0
    2.5825   -8.7576    0.0000 C   0  0  0  0  0  0  0  0  0  0  0  0
    3.2970   -9.9951    0.0000 C   0  0  0  0  0  0  0  0  0  0  0  0
    4.7259   -9.9951    0.0000 O   0  0  0  0  0  0  0  0  0  0  0  0
    6.1549   -9.9951    0.0000 C   0  0  0  0  0  0  0  0  0  0  0  0
  2  1  1  0  0  0  0
  3  2  1  0  0  0  0
  4  3  1  0  0  0  0
  5  4  1  0  0  0  0
  6  5  2  0  0  0  0
  7  6  1  0  0  0  0
  8  7  1  0  0  0  0
  9  8  1  0  0  0  0
 10  9  1  0  0  0  0
 11 10  2  0  0  0  0
 12 11  1  0  0  0  0
 11 13  1  0  0  0  0
  9 14  2  0  0  0  0
  7 15  1  0  0  0  0
M  END
>  <cdx:fragmentId>
3

$$$$
