30418.cdx
  Mrv1902 05222410202D          

  9  9  0  0  0  0            999 V2000
    5.7979   -7.8294    0.0000 C   0  0  0  0  0  0  0  0  0  0  0  0
    5.5503   -8.6164    0.0000 C   0  0  0  0  0  0  0  0  0  0  0  0
    6.2222   -9.0951    0.0000 N   0  0  0  0  0  0  0  0  0  0  0  0
    6.8851   -8.6040    0.0000 C   0  0  0  0  0  0  0  0  0  0  0  0
    6.6229   -7.8217    0.0000 O   0  0  0  0  0  0  0  0  0  0  0  0
    6.2299   -9.9200    0.0000 C   0  0  0  0  0  0  0  0  0  0  0  0
    7.6721   -8.8516    0.0000 O   0  0  0  0  0  0  0  0  0  0  0  0
    5.3068   -7.1665    0.0000 C   0  0  0  0  0  0  0  0  0  0  0  0
    5.6354   -6.4097    0.0000 C   0  0  0  0  0  0  0  0  0  0  0  0
  1  2  1  0  0  0  0
  2  3  1  0  0  0  0
  3  4  1  0  0  0  0
  4  5  1  0  0  0  0
  5  1  1  0  0  0  0
  3  6  1  0  0  0  0
  4  7  2  0  0  0  0
  1  8  1  0  0  0  0
  8  9  2  0  0  0  0
M  END
>  <cdx:fragmentId>
5

$$$$
