30410.cdx
  Mrv1902 05222410232D          

 13 13  0  0  0  0            999 V2000
    7.9181   -9.5551    0.0000 C   0  0  0  0  0  0  0  0  0  0  0  0
    7.9181  -10.3801    0.0000 C   0  0  0  0  0  0  0  0  0  0  0  0
    8.6325  -10.7926    0.0000 C   0  0  0  0  0  0  0  0  0  0  0  0
    9.3470  -10.3801    0.0000 C   0  0  0  0  0  0  0  0  0  0  0  0
    9.3470   -9.5551    0.0000 C   0  0  0  0  0  0  0  0  0  0  0  0
    8.6325   -9.1426    0.0000 C   0  0  0  0  0  0  0  0  0  0  0  0
   10.0615  -10.7926    0.0000 C   0  0  0  0  0  0  0  0  0  0  0  0
   10.7759  -10.3801    0.0000 O   0  0  0  0  0  0  0  0  0  0  0  0
   10.0615  -11.6176    0.0000 O   0  0  0  0  0  0  0  0  0  0  0  0
    7.2036   -9.1426    0.0000 O   0  0  0  0  0  0  0  0  0  0  0  0
    8.2200   -8.4282    0.0000 O   0  0  0  0  0  0  0  0  0  0  0  0
    9.0450   -8.4282    0.0000 O   0  0  0  0  0  0  0  0  0  0  0  0
    9.8700   -8.4282    0.0000 C   0  0  0  0  0  0  0  0  0  0  0  0
  1  2  2  0  0  0  0
  2  3  1  0  0  0  0
  3  4  2  0  0  0  0
  4  5  1  0  0  0  0
  5  6  1  0  0  0  0
  6  1  1  0  0  0  0
  4  7  1  0  0  0  0
  7  8  2  0  0  0  0
  7  9  1  0  0  0  0
  1 10  1  0  0  0  0
  6 11  1  0  0  0  0
  6 12  1  0  0  0  0
 12 13  1  0  0  0  0
M  END
>  <cdx:fragmentId>
5

$$$$
