304223.cdx
  Mrv1902 05222410242D          

 81 89  0  0  0  0            999 V2000
   15.1000  -10.0394    0.0000 C   0  0  1  0  0  0  0  0  0  0  0  0
   15.8145   -9.6269    0.0000 C   0  0  2  0  0  0  0  0  0  0  0  0
   16.5991   -9.8819    0.0000 C   0  0  0  0  0  0  0  0  0  0  0  0
   17.0840   -9.2144    0.0000 C   0  0  2  0  0  0  0  0  0  0  0  0
   17.8687   -8.9595    0.0000 O   0  0  0  0  0  0  0  0  0  0  0  0
   17.8687   -8.1345    0.0000 C   0  0  1  0  0  0  0  0  0  0  0  0
   17.0840   -7.8796    0.0000 C   0  0  2  0  0  0  0  0  0  0  0  0
   16.5991   -8.5470    0.0000 C   0  0  2  0  0  0  0  0  0  0  0  0
   15.8145   -8.8019    0.0000 C   0  0  1  0  0  0  0  0  0  0  0  0
   15.1000   -8.3894    0.0000 C   0  0  0  0  0  0  0  0  0  0  0  0
   14.3856   -8.8019    0.0000 C   0  0  0  0  0  0  0  0  0  0  0  0
   14.3856   -9.6269    0.0000 C   0  0  2  0  0  0  0  0  0  0  0  0
   13.6711  -10.0394    0.0000 C   0  0  1  0  0  0  0  0  0  0  0  0
   12.9566   -9.6269    0.0000 C   0  0  0  0  0  0  0  0  0  0  0  0
   12.2421  -10.0394    0.0000 C   0  0  2  0  0  0  0  0  0  0  0  0
   12.2421  -10.8644    0.0000 C   0  0  1  0  0  0  0  0  0  0  0  0
   12.9566  -11.2769    0.0000 C   0  0  0  0  0  0  0  0  0  0  0  0
   13.6711  -10.8644    0.0000 C   0  0  2  0  0  0  0  0  0  0  0  0
   14.3856  -11.2769    0.0000 C   0  0  0  0  0  0  0  0  0  0  0  0
   15.1000  -10.8644    0.0000 C   0  0  0  0  0  0  0  0  0  0  0  0
   18.6891   -8.0483    0.0000 C   0  0  0  0  0  0  0  0  0  0  0  0
   19.1741   -8.7157    0.0000 C   0  0  0  0  0  0  0  0  0  0  0  0
   19.9945   -8.6295    0.0000 C   0  0  0  0  0  0  0  0  0  0  0  0
   20.4795   -9.2969    0.0000 C   0  0  0  0  0  0  0  0  0  0  0  0
   20.3301   -7.8758    0.0000 C   0  0  0  0  0  0  0  0  0  0  0  0
   13.6711   -9.2144    0.0000 C   0  0  0  0  0  0  0  0  0  0  0  0
   15.8145   -7.9769    0.0000 C   0  0  0  0  0  0  0  0  0  0  0  0
   16.8291   -7.0949    0.0000 C   0  0  0  0  0  0  0  0  0  0  0  0
   18.2042   -7.3808    0.0000 O   0  0  0  0  0  0  0  0  0  0  0  0
    8.6700  -11.2455    0.0000 O   0  0  0  0  0  0  0  0  0  0  0  0
    8.6881   -9.5956    0.0000 O   0  0  0  0  0  0  0  0  0  0  0  0
    9.4162   -8.3660    0.0000 O   0  0  0  0  0  0  0  0  0  0  0  0
   10.1261   -8.7864    0.0000 C   0  0  0  0  0  0  0  0  0  0  0  0
   11.5277  -11.2769    0.0000 O   0  0  0  0  0  0  0  0  0  0  0  0
   10.1170   -9.6113    0.0000 C   0  0  2  0  0  0  0  0  0  0  0  0
    9.3980  -10.0159    0.0000 C   0  0  2  0  0  0  0  0  0  0  0  0
    9.3889  -10.8409    0.0000 C   0  0  1  0  0  0  0  0  0  0  0  0
   10.0988  -11.2612    0.0000 C   0  0  2  0  0  0  0  0  0  0  0  0
   10.8178  -10.8566    0.0000 C   0  0  1  0  0  0  0  0  0  0  0  0
   10.8269  -10.0317    0.0000 O   0  0  0  0  0  0  0  0  0  0  0  0
   10.0897  -12.0862    0.0000 O   0  0  0  0  0  0  0  0  0  0  0  0
   22.9500   -9.2110    0.0000 O   0  0  0  0  0  0  0  0  0  0  0  0
   23.7747  -10.6400    0.0000 O   0  0  0  0  0  0  0  0  0  0  0  0
   22.9495  -12.0688    0.0000 O   0  0  0  0  0  0  0  0  0  0  0  0
   21.7118  -12.7831    0.0000 O   0  0  0  0  0  0  0  0  0  0  0  0
   21.2995  -12.0686    0.0000 C   0  0  0  0  0  0  0  0  0  0  0  0
   21.7121  -11.3542    0.0000 C   0  0  2  0  0  0  0  0  0  0  0  0
   22.5371  -11.3543    0.0000 C   0  0  2  0  0  0  0  0  0  0  0  0
   22.9497  -10.6399    0.0000 C   0  0  1  0  0  0  0  0  0  0  0  0
   22.5373   -9.9254    0.0000 C   0  0  2  0  0  0  0  0  0  0  0  0
   21.7123   -9.9252    0.0000 C   0  0  1  0  0  0  0  0  0  0  0  0
   21.2997  -10.6396    0.0000 O   0  0  0  0  0  0  0  0  0  0  0  0
   21.3000   -9.2107    0.0000 O   0  0  0  0  0  0  0  0  0  0  0  0
   15.1000   -9.2144    0.0000 H   0  0  0  0  0  0  0  0  0  0  0  0
   14.3856  -10.4519    0.0000 H   0  0  0  0  0  0  0  0  0  0  0  0
   15.8145  -10.4519    0.0000 H   0  0  0  0  0  0  0  0  0  0  0  0
   16.1866   -7.8325    0.0000 H   0  0  0  0  0  0  0  0  0  0  0  0
   17.4965   -9.9289    0.0000 H   0  0  0  0  0  0  0  0  0  0  0  0
    7.8631   -9.5963    0.0000 C   0  0  2  0  0  0  0  0  0  0  0  0
    7.4579   -8.8776    0.0000 O   0  0  0  0  0  0  0  0  0  0  0  0
    6.6330   -8.8692    0.0000 C   0  0  1  0  0  0  0  0  0  0  0  0
    6.2291   -9.5884    0.0000 C   0  0  2  0  0  0  0  0  0  0  0  0
    6.6501  -10.3159    0.0000 C   0  0  1  0  0  0  0  0  0  0  0  0
    7.4592  -10.3154    0.0000 C   0  0  1  0  0  0  0  0  0  0  0  0
    6.2199   -8.1551    0.0000 C   0  0  0  0  0  0  0  0  0  0  0  0
    5.4041   -9.5937    0.0000 O   0  0  0  0  0  0  0  0  0  0  0  0
    6.2382  -11.0307    0.0000 O   0  0  0  0  0  0  0  0  0  0  0  0
    7.8762  -11.0273    0.0000 O   0  0  0  0  0  0  0  0  0  0  0  0
    9.3695  -12.4885    0.0000 C   0  0  2  0  0  0  0  0  0  0  0  0
    8.6633  -12.0620    0.0000 O   0  0  0  0  0  0  0  0  0  0  0  0
    7.9408  -12.4604    0.0000 C   0  0  2  0  0  0  0  0  0  0  0  0
    7.9449  -13.2970    0.0000 C   0  0  1  0  0  0  0  0  0  0  0  0
    8.6580  -13.7118    0.0000 C   0  0  2  0  0  0  0  0  0  0  0  0
    9.3872  -13.3017    0.0000 C   0  0  1  0  0  0  0  0  0  0  0  0
    7.2308  -13.7101    0.0000 O   0  0  0  0  0  0  0  0  0  0  0  0
    7.2294  -12.0426    0.0000 C   0  0  0  0  0  0  0  0  0  0  0  0
    8.6520  -14.5367    0.0000 O   0  0  0  0  0  0  0  0  0  0  0  0
   10.1039  -13.7104    0.0000 O   0  0  0  0  0  0  0  0  0  0  0  0
   11.5277   -9.6269    0.0000 O   0  0  0  0  0  0  0  0  0  0  0  0
   13.6711  -11.6894    0.0000 H   0  0  0  0  0  0  0  0  0  0  0  0
    5.3949   -8.1558    0.0000 O   0  0  0  0  0  0  0  0  0  0  0  0
 38 41  1  6  0  0  0
 37 30  1  1  0  0  0
 36 31  1  6  0  0  0
 35 33  1  1  0  0  0
 33 32  1  0  0  0  0
 39 34  1  1  0  0  0
 40 35  1  0  0  0  0
 36 35  1  0  0  0  0
 37 36  1  0  0  0  0
 38 37  1  0  0  0  0
 39 38  1  0  0  0  0
 40 39  1  0  0  0  0
 51 53  1  1  0  0  0
 50 42  1  6  0  0  0
 49 43  1  1  0  0  0
 48 44  1  6  0  0  0
 47 46  1  1  0  0  0
 46 45  1  0  0  0  0
 52 47  1  0  0  0  0
 48 47  1  0  0  0  0
 49 48  1  0  0  0  0
 50 49  1  0  0  0  0
 51 50  1  0  0  0  0
 52 51  1  0  0  0  0
  1  2  1  0  0  0  0
  2  3  1  0  0  0  0
  3  4  1  0  0  0  0
  4  5  1  0  0  0  0
  5  6  1  0  0  0  0
  6  7  1  0  0  0  0
  7  8  1  0  0  0  0
  8  9  1  0  0  0  0
  9 10  1  0  0  0  0
 10 11  1  0  0  0  0
 11 12  1  0  0  0  0
 12 13  1  0  0  0  0
 13 14  1  0  0  0  0
 14 15  1  0  0  0  0
 15 16  1  0  0  0  0
 16 17  1  0  0  0  0
 17 18  1  0  0  0  0
 18 19  1  0  0  0  0
 19 20  1  0  0  0  0
  1 20  1  0  0  0  0
  1 12  1  0  0  0  0
 13 18  1  0  0  0  0
  2  9  1  0  0  0  0
  4  8  1  0  0  0  0
 21 22  1  0  0  0  0
 22 23  1  0  0  0  0
 23 24  1  0  0  0  0
 24 53  1  0  0  0  0
 23 25  2  0  0  0  0
  6 21  1  0  0  0  0
 13 26  1  1  0  0  0
  9 27  1  1  0  0  0
  7 28  1  6  0  0  0
  6 29  1  6  0  0  0
 16 34  1  1  0  0  0
  1 54  1  1  0  0  0
 12 55  1  6  0  0  0
  2 56  1  6  0  0  0
  8 57  1  6  0  0  0
  4 58  1  6  0  0  0
 59 31  1  1  0  0  0
 59 60  1  0  0  0  0
 60 61  1  0  0  0  0
 61 62  1  0  0  0  0
 62 63  1  0  0  0  0
 63 64  1  0  0  0  0
 64 59  1  0  0  0  0
 61 65  1  1  0  0  0
 62 66  1  6  0  0  0
 63 67  1  1  0  0  0
 64 68  1  6  0  0  0
 69 41  1  1  0  0  0
 69 70  1  0  0  0  0
 70 71  1  0  0  0  0
 71 72  1  0  0  0  0
 72 73  1  0  0  0  0
 73 74  1  0  0  0  0
 74 69  1  0  0  0  0
 72 75  1  1  0  0  0
 71 76  1  6  0  0  0
 73 77  1  6  0  0  0
 74 78  1  6  0  0  0
 15 79  1  6  0  0  0
 18 80  1  6  0  0  0
 65 81  1  0  0  0  0
M  END
>  <cdx:groupId>
50511

>  <cdx:fragmentId>
50354

$$$$
