304250.cdx
  Mrv1902 05222410272D          

 15 16  0  0  0  0            999 V2000
    6.9640  -10.7131    0.0000 C   0  0  0  0  0  0  0  0  0  0  0  0
    6.2501  -10.2996    0.0000 C   0  0  0  0  0  0  0  0  0  0  0  0
    6.2511   -9.4746    0.0000 C   0  0  0  0  0  0  0  0  0  0  0  0
    6.9662   -9.0631    0.0000 C   0  0  0  0  0  0  0  0  0  0  0  0
    7.6801   -9.4765    0.0000 C   0  0  0  0  0  0  0  0  0  0  0  0
    7.6790  -10.3015    0.0000 C   0  0  0  0  0  0  0  0  0  0  0  0
    6.9673   -8.2381    0.0000 C   0  0  1  0  0  0  0  0  0  0  0  0
    7.7879   -8.1530    0.0000 C   0  0  0  0  0  0  0  0  0  0  0  0
    7.9605   -7.3462    0.0000 C   0  0  0  0  0  0  0  0  0  0  0  0
    7.2465   -6.9328    0.0000 C   0  0  0  0  0  0  0  0  0  0  0  0
    6.6327   -7.4840    0.0000 C   0  0  0  0  0  0  0  0  0  0  0  0
    8.5721   -8.4089    0.0000 C   0  0  0  0  0  0  0  0  0  0  0  0
    7.9583   -8.9602    0.0000 C   0  0  0  0  0  0  0  0  0  0  0  0
    6.2522   -8.6496    0.0000 C   0  0  0  0  0  0  0  0  0  0  0  0
    6.9629  -11.5381    0.0000 C   0  0  0  0  0  0  0  0  0  0  0  0
  1  2  2  0  0  0  0
  2  3  1  0  0  0  0
  3  4  2  0  0  0  0
  4  5  1  0  0  0  0
  5  6  1  0  0  0  0
  1  6  1  0  0  0  0
  7  8  1  0  0  0  0
  8  9  1  0  0  0  0
  9 10  1  0  0  0  0
 10 11  1  0  0  0  0
  7 11  1  0  0  0  0
  8 12  1  0  0  0  0
  8 13  1  0  0  0  0
  7 14  1  1  0  0  0
  4  7  1  0  0  0  0
  1 15  1  0  0  0  0
M  END
>  <cdx:fragmentId>
88225

$$$$
