304208.cdx
  Mrv1902 05222410232D          

 17 19  0  0  0  0            999 V2000
    7.3691   -6.5253    0.0000 C   0  0  2  0  0  0  0  0  0  0  0  0
    7.5407   -5.7183    0.0000 C   0  0  0  0  0  0  0  0  0  0  0  0
    8.3612   -5.6321    0.0000 C   0  0  0  0  0  0  0  0  0  0  0  0
    8.6967   -6.3858    0.0000 C   0  0  0  0  0  0  0  0  0  0  0  0
    8.0836   -6.9378    0.0000 C   0  0  2  0  0  0  0  0  0  0  0  0
    7.3691   -7.3503    0.0000 C   0  0  1  0  0  0  0  0  0  0  0  0
    6.6547   -7.7628    0.0000 C   0  0  1  0  0  0  0  0  0  0  0  0
    5.9402   -7.3503    0.0000 C   0  0  0  0  0  0  0  0  0  0  0  0
    5.9402   -6.5253    0.0000 C   0  0  0  0  0  0  0  0  0  0  0  0
    6.6547   -6.1128    0.0000 C   0  0  1  0  0  0  0  0  0  0  0  0
    7.3691   -9.0003    0.0000 C   0  0  0  0  0  0  0  0  0  0  0  0
    6.6547   -8.5878    0.0000 C   0  0  0  0  0  0  0  0  0  0  0  0
    5.9402   -9.0003    0.0000 C   0  0  0  0  0  0  0  0  0  0  0  0
    6.6547   -5.2878    0.0000 C   0  0  0  0  0  0  0  0  0  0  0  0
    9.5037   -6.5573    0.0000 C   0  0  0  0  0  0  0  0  0  0  0  0
    7.7816   -8.0648    0.0000 H   0  0  0  0  0  0  0  0  0  0  0  0
    8.4961   -7.6523    0.0000 H   0  0  0  0  0  0  0  0  0  0  0  0
  1  2  1  6  0  0  0
  2  3  1  0  0  0  0
  3  4  2  0  0  0  0
  4  5  1  0  0  0  0
  5  6  1  0  0  0  0
  6  7  1  0  0  0  0
  7  8  1  0  0  0  0
  8  9  1  0  0  0  0
  9 10  1  0  0  0  0
  1 10  1  0  0  0  0
  1  6  1  0  0  0  0
  1  5  1  0  0  0  0
 11 12  1  0  0  0  0
 12 13  1  0  0  0  0
  7 12  1  6  0  0  0
 10 14  1  1  0  0  0
  4 15  1  0  0  0  0
  6 16  1  6  0  0  0
  5 17  1  1  0  0  0
M  END
>  <cdx:fragmentId>
26706

$$$$
