12304273.cdx
  Mrv1902 05222410202D          

 15 15  0  0  0  0            999 V2000
    9.9256   -5.8159    0.0000 C   0  0  0  0  0  0  0  0  0  0  0  0
    9.9256   -6.6409    0.0000 C   0  0  0  0  0  0  0  0  0  0  0  0
    9.2112   -7.0534    0.0000 C   0  0  0  0  0  0  0  0  0  0  0  0
    8.4967   -6.6409    0.0000 C   0  0  0  0  0  0  0  0  0  0  0  0
    8.4967   -5.8159    0.0000 C   0  0  0  0  0  0  0  0  0  0  0  0
    9.2112   -5.4034    0.0000 C   0  0  0  0  0  0  0  0  0  0  0  0
    7.7822   -7.8784    0.0000 C   0  0  0  0  0  0  0  0  0  0  0  0
    7.7822   -7.0534    0.0000 C   0  0  2  0  0  0  0  0  0  0  0  0
    7.0678   -6.6409    0.0000 C   0  0  0  0  0  0  0  0  0  0  0  0
    6.3533   -7.0534    0.0000 C   0  0  0  0  0  0  0  0  0  0  0  0
    5.6388   -6.6409    0.0000 C   0  0  0  0  0  0  0  0  0  0  0  0
    4.9244   -7.0534    0.0000 C   0  0  0  0  0  0  0  0  0  0  0  0
    4.9244   -7.8784    0.0000 C   0  0  0  0  0  0  0  0  0  0  0  0
    4.2099   -6.6409    0.0000 C   0  0  0  0  0  0  0  0  0  0  0  0
   10.6401   -5.4034    0.0000 C   0  0  0  0  0  0  0  0  0  0  0  0
  1  2  2  0  0  0  0
  2  3  1  0  0  0  0
  3  4  2  0  0  0  0
  4  5  1  0  0  0  0
  5  6  1  0  0  0  0
  1  6  1  0  0  0  0
  8  7  1  6  0  0  0
  8  9  1  0  0  0  0
  9 10  1  0  0  0  0
 10 11  1  0  0  0  0
 11 12  2  0  0  0  0
 12 13  1  0  0  0  0
 12 14  1  0  0  0  0
  4  8  1  0  0  0  0
  1 15  1  0  0  0  0
M  END
>  <cdx:groupId>
47

>  <cdx:fragmentId>
15

$$$$
