304227.cdx
  Mrv1902 05222410252D          

 90 99  0  0  0  0            999 V2000
   15.7875   -9.9294    0.0000 C   0  0  1  0  0  0  0  0  0  0  0  0
   16.5020   -9.5169    0.0000 C   0  0  2  0  0  0  0  0  0  0  0  0
   17.2866   -9.7719    0.0000 C   0  0  0  0  0  0  0  0  0  0  0  0
   17.7715   -9.1044    0.0000 C   0  0  2  0  0  0  0  0  0  0  0  0
   18.5562   -8.8495    0.0000 O   0  0  0  0  0  0  0  0  0  0  0  0
   18.5562   -8.0245    0.0000 C   0  0  1  0  0  0  0  0  0  0  0  0
   17.7715   -7.7696    0.0000 C   0  0  2  0  0  0  0  0  0  0  0  0
   17.2866   -8.4370    0.0000 C   0  0  2  0  0  0  0  0  0  0  0  0
   16.5020   -8.6919    0.0000 C   0  0  1  0  0  0  0  0  0  0  0  0
   15.7875   -8.2794    0.0000 C   0  0  0  0  0  0  0  0  0  0  0  0
   15.0731   -8.6919    0.0000 C   0  0  0  0  0  0  0  0  0  0  0  0
   15.0731   -9.5169    0.0000 C   0  0  2  0  0  0  0  0  0  0  0  0
   14.3586   -9.9294    0.0000 C   0  0  1  0  0  0  0  0  0  0  0  0
   13.6441   -9.5169    0.0000 C   0  0  0  0  0  0  0  0  0  0  0  0
   12.9296   -9.9294    0.0000 C   0  0  0  0  0  0  0  0  0  0  0  0
   12.9296  -10.7544    0.0000 C   0  0  1  0  0  0  0  0  0  0  0  0
   13.6441  -11.1669    0.0000 C   0  0  0  0  0  0  0  0  0  0  0  0
   14.3586  -10.7544    0.0000 C   0  0  0  0  0  0  0  0  0  0  0  0
   15.0731  -11.1669    0.0000 C   0  0  0  0  0  0  0  0  0  0  0  0
   15.7875  -10.7544    0.0000 C   0  0  0  0  0  0  0  0  0  0  0  0
   19.3766   -7.9383    0.0000 C   0  0  0  0  0  0  0  0  0  0  0  0
   19.8616   -8.6057    0.0000 C   0  0  0  0  0  0  0  0  0  0  0  0
   20.6820   -8.5195    0.0000 C   0  0  2  0  0  0  0  0  0  0  0  0
   21.1670   -9.1869    0.0000 C   0  0  0  0  0  0  0  0  0  0  0  0
   21.0176   -7.7658    0.0000 C   0  0  0  0  0  0  0  0  0  0  0  0
   14.3586   -9.1044    0.0000 C   0  0  0  0  0  0  0  0  0  0  0  0
   16.5020   -7.8669    0.0000 C   0  0  0  0  0  0  0  0  0  0  0  0
   17.5166   -6.9849    0.0000 C   0  0  0  0  0  0  0  0  0  0  0  0
   18.8917   -7.2708    0.0000 O   0  0  0  0  0  0  0  0  0  0  0  0
    9.3575  -11.1355    0.0000 O   0  0  0  0  0  0  0  0  0  0  0  0
    9.3756   -9.4856    0.0000 O   0  0  0  0  0  0  0  0  0  0  0  0
   10.1037   -8.2560    0.0000 O   0  0  0  0  0  0  0  0  0  0  0  0
   10.8136   -8.6764    0.0000 C   0  0  0  0  0  0  0  0  0  0  0  0
   12.2152  -11.1669    0.0000 O   0  0  0  0  0  0  0  0  0  0  0  0
   10.8045   -9.5013    0.0000 C   0  0  2  0  0  0  0  0  0  0  0  0
   10.0855   -9.9059    0.0000 C   0  0  2  0  0  0  0  0  0  0  0  0
   10.0764  -10.7309    0.0000 C   0  0  1  0  0  0  0  0  0  0  0  0
   10.7863  -11.1512    0.0000 C   0  0  2  0  0  0  0  0  0  0  0  0
   11.5053  -10.7466    0.0000 C   0  0  1  0  0  0  0  0  0  0  0  0
   11.5144   -9.9217    0.0000 O   0  0  0  0  0  0  0  0  0  0  0  0
   10.7772  -11.9762    0.0000 O   0  0  0  0  0  0  0  0  0  0  0  0
   23.6375   -9.1010    0.0000 O   0  0  0  0  0  0  0  0  0  0  0  0
   24.4622  -10.5300    0.0000 O   0  0  0  0  0  0  0  0  0  0  0  0
   23.6370  -11.9588    0.0000 O   0  0  0  0  0  0  0  0  0  0  0  0
   22.3993  -12.6731    0.0000 O   0  0  0  0  0  0  0  0  0  0  0  0
   21.9870  -11.9586    0.0000 C   0  0  0  0  0  0  0  0  0  0  0  0
   22.3996  -11.2442    0.0000 C   0  0  2  0  0  0  0  0  0  0  0  0
   23.2246  -11.2443    0.0000 C   0  0  2  0  0  0  0  0  0  0  0  0
   23.6372  -10.5299    0.0000 C   0  0  1  0  0  0  0  0  0  0  0  0
   23.2248   -9.8154    0.0000 C   0  0  2  0  0  0  0  0  0  0  0  0
   22.3998   -9.8152    0.0000 C   0  0  1  0  0  0  0  0  0  0  0  0
   21.9872  -10.5296    0.0000 O   0  0  0  0  0  0  0  0  0  0  0  0
   21.9875   -9.1007    0.0000 O   0  0  0  0  0  0  0  0  0  0  0  0
   15.7875   -9.1044    0.0000 H   0  0  0  0  0  0  0  0  0  0  0  0
   15.0731  -10.3419    0.0000 H   0  0  0  0  0  0  0  0  0  0  0  0
   16.5020  -10.3419    0.0000 H   0  0  0  0  0  0  0  0  0  0  0  0
   16.8741   -7.7225    0.0000 H   0  0  0  0  0  0  0  0  0  0  0  0
   18.1840   -9.8189    0.0000 H   0  0  0  0  0  0  0  0  0  0  0  0
    8.5506   -9.4863    0.0000 C   0  0  2  0  0  0  0  0  0  0  0  0
    8.1454   -8.7676    0.0000 O   0  0  0  0  0  0  0  0  0  0  0  0
    7.3205   -8.7592    0.0000 C   0  0  1  0  0  0  0  0  0  0  0  0
    6.9166   -9.4784    0.0000 C   0  0  2  0  0  0  0  0  0  0  0  0
    7.3376  -10.2059    0.0000 C   0  0  1  0  0  0  0  0  0  0  0  0
    8.1467  -10.2054    0.0000 C   0  0  1  0  0  0  0  0  0  0  0  0
    6.9074   -8.0451    0.0000 C   0  0  0  0  0  0  0  0  0  0  0  0
    6.0916   -9.4837    0.0000 O   0  0  0  0  0  0  0  0  0  0  0  0
    6.9257  -10.9207    0.0000 O   0  0  0  0  0  0  0  0  0  0  0  0
    8.5637  -10.9173    0.0000 O   0  0  0  0  0  0  0  0  0  0  0  0
   10.0570  -12.3785    0.0000 C   0  0  2  0  0  0  0  0  0  0  0  0
    9.3508  -11.9520    0.0000 O   0  0  0  0  0  0  0  0  0  0  0  0
    8.6283  -12.3504    0.0000 C   0  0  2  0  0  0  0  0  0  0  0  0
    8.6324  -13.1870    0.0000 C   0  0  1  0  0  0  0  0  0  0  0  0
    9.3455  -13.6018    0.0000 C   0  0  2  0  0  0  0  0  0  0  0  0
   10.0747  -13.1917    0.0000 C   0  0  1  0  0  0  0  0  0  0  0  0
    7.9183  -13.6001    0.0000 O   0  0  0  0  0  0  0  0  0  0  0  0
    7.9169  -11.9326    0.0000 C   0  0  0  0  0  0  0  0  0  0  0  0
    9.3395  -14.4267    0.0000 O   0  0  0  0  0  0  0  0  0  0  0  0
   10.7914  -13.6004    0.0000 O   0  0  0  0  0  0  0  0  0  0  0  0
    6.0824   -8.0458    0.0000 O   0  0  0  0  0  0  0  0  0  0  0  0
    6.1007  -10.9214    0.0000 C   0  0  2  0  0  0  0  0  0  0  0  0
    5.6873  -10.2074    0.0000 O   0  0  0  0  0  0  0  0  0  0  0  0
    4.8623  -10.2074    0.0000 C   0  0  1  0  0  0  0  0  0  0  0  0
    4.4507  -10.9214    0.0000 C   0  0  2  0  0  0  0  0  0  0  0  0
    4.8623  -11.6354    0.0000 C   0  0  1  0  0  0  0  0  0  0  0  0
    5.6873  -11.6354    0.0000 C   0  0  1  0  0  0  0  0  0  0  0  0
    4.4496   -9.4931    0.0000 C   0  0  0  0  0  0  0  0  0  0  0  0
    4.4496  -12.3497    0.0000 O   0  0  0  0  0  0  0  0  0  0  0  0
    6.0994  -12.3501    0.0000 O   0  0  0  0  0  0  0  0  0  0  0  0
    3.6257  -10.9214    0.0000 O   0  0  0  0  0  0  0  0  0  0  0  0
    3.6246   -9.4933    0.0000 O   0  0  0  0  0  0  0  0  0  0  0  0
 38 41  1  6  0  0  0
 37 30  1  1  0  0  0
 36 31  1  6  0  0  0
 35 33  1  1  0  0  0
 33 32  1  0  0  0  0
 39 34  1  1  0  0  0
 40 35  1  0  0  0  0
 36 35  1  0  0  0  0
 37 36  1  0  0  0  0
 38 37  1  0  0  0  0
 39 38  1  0  0  0  0
 40 39  1  0  0  0  0
 51 53  1  1  0  0  0
 50 42  1  6  0  0  0
 49 43  1  1  0  0  0
 48 44  1  6  0  0  0
 47 46  1  1  0  0  0
 46 45  1  0  0  0  0
 52 47  1  0  0  0  0
 48 47  1  0  0  0  0
 49 48  1  0  0  0  0
 50 49  1  0  0  0  0
 51 50  1  0  0  0  0
 52 51  1  0  0  0  0
  1  2  1  0  0  0  0
  2  3  1  0  0  0  0
  3  4  1  0  0  0  0
  4  5  1  0  0  0  0
  5  6  1  0  0  0  0
  6  7  1  0  0  0  0
  7  8  1  0  0  0  0
  8  9  1  0  0  0  0
  9 10  1  0  0  0  0
 10 11  1  0  0  0  0
 11 12  1  0  0  0  0
 12 13  1  0  0  0  0
 13 14  1  0  0  0  0
 14 15  1  0  0  0  0
 15 16  1  0  0  0  0
 16 17  1  0  0  0  0
 17 18  1  0  0  0  0
 18 19  2  0  0  0  0
 19 20  1  0  0  0  0
  1 20  1  0  0  0  0
  1 12  1  0  0  0  0
 13 18  1  0  0  0  0
  2  9  1  0  0  0  0
  4  8  1  0  0  0  0
 21 22  1  0  0  0  0
 22 23  1  0  0  0  0
 23 24  1  0  0  0  0
 24 53  1  0  0  0  0
 23 25  1  1  0  0  0
  6 21  1  0  0  0  0
 13 26  1  1  0  0  0
  9 27  1  1  0  0  0
  7 28  1  6  0  0  0
  6 29  1  6  0  0  0
 16 34  1  1  0  0  0
  1 54  1  1  0  0  0
 12 55  1  6  0  0  0
  2 56  1  6  0  0  0
  8 57  1  6  0  0  0
  4 58  1  6  0  0  0
 59 31  1  1  0  0  0
 59 60  1  0  0  0  0
 60 61  1  0  0  0  0
 61 62  1  0  0  0  0
 62 63  1  0  0  0  0
 63 64  1  0  0  0  0
 64 59  1  0  0  0  0
 61 65  1  1  0  0  0
 62 66  1  6  0  0  0
 63 67  1  1  0  0  0
 64 68  1  6  0  0  0
 69 41  1  1  0  0  0
 69 70  1  0  0  0  0
 70 71  1  0  0  0  0
 71 72  1  0  0  0  0
 72 73  1  0  0  0  0
 73 74  1  0  0  0  0
 74 69  1  0  0  0  0
 72 75  1  1  0  0  0
 71 76  1  6  0  0  0
 73 77  1  6  0  0  0
 74 78  1  6  0  0  0
 65 79  1  0  0  0  0
 80 67  1  1  0  0  0
 80 81  1  0  0  0  0
 81 82  1  0  0  0  0
 82 83  1  0  0  0  0
 83 84  1  0  0  0  0
 84 85  1  0  0  0  0
 85 80  1  0  0  0  0
 82 86  1  1  0  0  0
 84 87  1  1  0  0  0
 85 88  1  6  0  0  0
 83 89  1  6  0  0  0
 86 90  1  0  0  0  0
M  END
>  <cdx:groupId>
50511

>  <cdx:fragmentId>
50354

$$$$
