30423.cdx
  Mrv1902 05222410222D          

 11 11  0  0  0  0            999 V2000
    5.9106   -8.6751    0.0000 C   0  0  0  0  0  0  0  0  0  0  0  0
    5.9106   -9.5001    0.0000 C   0  0  0  0  0  0  0  0  0  0  0  0
    6.6250   -9.9126    0.0000 C   0  0  0  0  0  0  0  0  0  0  0  0
    7.3395   -9.5001    0.0000 C   0  0  0  0  0  0  0  0  0  0  0  0
    7.3395   -8.6751    0.0000 C   0  0  0  0  0  0  0  0  0  0  0  0
    6.6250   -8.2626    0.0000 C   0  0  0  0  0  0  0  0  0  0  0  0
    6.6250  -10.7376    0.0000 C   0  0  0  0  0  0  0  0  0  0  0  0
    5.9106  -11.1501    0.0000 O   0  0  0  0  0  0  0  0  0  0  0  0
    6.6250   -7.4376    0.0000 C   0  0  0  0  0  0  0  0  0  0  0  0
    5.9106   -7.0251    0.0000 C   0  0  0  0  0  0  0  0  0  0  0  0
    7.3395   -7.0251    0.0000 C   0  0  0  0  0  0  0  0  0  0  0  0
  1  2  1  0  0  0  0
  2  3  1  0  0  0  0
  3  4  2  0  0  0  0
  4  5  1  0  0  0  0
  5  6  1  0  0  0  0
  6  1  1  0  0  0  0
  3  7  1  0  0  0  0
  7  8  2  0  0  0  0
  6  9  1  0  0  0  0
  9 10  1  0  0  0  0
  9 11  1  0  0  0  0
M  END
>  <cdx:fragmentId>
5

$$$$
