30421.cdx
  Mrv1902 05222410232D          

 24 26  0  0  0  0            999 V2000
   10.1413   -6.6436    0.0000 O   0  0  0  0  0  0  0  0  0  0  0  0
    8.7124   -5.8186    0.0000 O   0  0  0  0  0  0  0  0  0  0  0  0
    6.5690  -10.3561    0.0000 O   0  0  0  0  0  0  0  0  0  0  0  0
    5.1400  -10.3561    0.0000 O   0  0  0  0  0  0  0  0  0  0  0  0
    3.7111   -9.5311    0.0000 O   0  0  0  0  0  0  0  0  0  0  0  0
    3.7111   -7.8811    0.0000 O   0  0  0  0  0  0  0  0  0  0  0  0
    9.4269   -7.8811    0.0000 C   0  0  0  0  0  0  0  0  0  0  0  0
    9.4269   -7.0561    0.0000 C   0  0  0  0  0  0  0  0  0  0  0  0
    8.7124   -6.6436    0.0000 C   0  0  0  0  0  0  0  0  0  0  0  0
    7.9979   -7.0561    0.0000 C   0  0  0  0  0  0  0  0  0  0  0  0
    7.9979   -9.5311    0.0000 O   0  0  0  0  0  0  0  0  0  0  0  0
    8.7124   -8.2936    0.0000 C   0  0  0  0  0  0  0  0  0  0  0  0
    7.9979   -7.8811    0.0000 C   0  0  0  0  0  0  0  0  0  0  0  0
    6.5690   -9.5311    0.0000 C   0  0  0  0  0  0  0  0  0  0  0  0
    7.2834   -9.1186    0.0000 C   0  0  0  0  0  0  0  0  0  0  0  0
    7.2834   -8.2936    0.0000 C   0  0  0  0  0  0  0  0  0  0  0  0
    6.5690   -7.8811    0.0000 O   0  0  0  0  0  0  0  0  0  0  0  0
    5.1400   -9.5311    0.0000 C   0  0  0  0  0  0  0  0  0  0  0  0
    5.8545   -9.1186    0.0000 C   0  0  0  0  0  0  0  0  0  0  0  0
    5.8545   -8.2936    0.0000 C   0  0  0  0  0  0  0  0  0  0  0  0
    5.1400   -7.8811    0.0000 C   0  0  0  0  0  0  0  0  0  0  0  0
    4.4256   -8.2936    0.0000 C   0  0  0  0  0  0  0  0  0  0  0  0
    4.4256   -9.1186    0.0000 C   0  0  0  0  0  0  0  0  0  0  0  0
    7.9979  -10.3561    0.0000 C   0  0  0  0  0  0  0  0  0  0  0  0
  8  1  1  0  0  0  0
  9  2  1  0  0  0  0
 14  3  2  0  0  0  0
 18  4  1  0  0  0  0
 23  5  1  0  0  0  0
 22  6  1  0  0  0  0
  7 12  1  0  0  0  0
  8  7  2  0  0  0  0
  9  8  1  0  0  0  0
 10  9  2  0  0  0  0
 13 10  1  0  0  0  0
 11 15  1  0  0  0  0
 13 12  2  0  0  0  0
 16 13  1  0  0  0  0
 14 19  1  0  0  0  0
 15 14  1  0  0  0  0
 16 15  2  0  0  0  0
 17 16  1  0  0  0  0
 20 17  1  0  0  0  0
 18 23  1  0  0  0  0
 19 18  2  0  0  0  0
 20 19  1  0  0  0  0
 21 20  2  0  0  0  0
 22 21  1  0  0  0  0
 23 22  2  0  0  0  0
 11 24  1  0  0  0  0
M  END
>  <cdx:fragmentId>
5

$$$$
