304226.cdx
  Mrv1902 05222410242D          

 89 98  0  0  0  0            999 V2000
   15.7875   -9.4894    0.0000 C   0  0  1  0  0  0  0  0  0  0  0  0
   16.5020   -9.0769    0.0000 C   0  0  2  0  0  0  0  0  0  0  0  0
   17.2866   -9.3319    0.0000 C   0  0  0  0  0  0  0  0  0  0  0  0
   17.7715   -8.6644    0.0000 C   0  0  2  0  0  0  0  0  0  0  0  0
   18.5562   -8.4095    0.0000 O   0  0  0  0  0  0  0  0  0  0  0  0
   18.5562   -7.5845    0.0000 C   0  0  1  0  0  0  0  0  0  0  0  0
   17.7715   -7.3296    0.0000 C   0  0  2  0  0  0  0  0  0  0  0  0
   17.2866   -7.9970    0.0000 C   0  0  2  0  0  0  0  0  0  0  0  0
   16.5020   -8.2519    0.0000 C   0  0  1  0  0  0  0  0  0  0  0  0
   15.7875   -7.8394    0.0000 C   0  0  0  0  0  0  0  0  0  0  0  0
   15.0731   -8.2519    0.0000 C   0  0  0  0  0  0  0  0  0  0  0  0
   15.0731   -9.0769    0.0000 C   0  0  2  0  0  0  0  0  0  0  0  0
   14.3586   -9.4894    0.0000 C   0  0  1  0  0  0  0  0  0  0  0  0
   13.6441   -9.0769    0.0000 C   0  0  0  0  0  0  0  0  0  0  0  0
   12.9296   -9.4894    0.0000 C   0  0  2  0  0  0  0  0  0  0  0  0
   12.9296  -10.3144    0.0000 C   0  0  1  0  0  0  0  0  0  0  0  0
   13.6441  -10.7269    0.0000 C   0  0  0  0  0  0  0  0  0  0  0  0
   14.3586  -10.3144    0.0000 C   0  0  0  0  0  0  0  0  0  0  0  0
   15.0731  -10.7269    0.0000 C   0  0  0  0  0  0  0  0  0  0  0  0
   15.7875  -10.3144    0.0000 C   0  0  0  0  0  0  0  0  0  0  0  0
   19.3766   -7.4983    0.0000 C   0  0  0  0  0  0  0  0  0  0  0  0
   19.8616   -8.1657    0.0000 C   0  0  0  0  0  0  0  0  0  0  0  0
   20.6820   -8.0795    0.0000 C   0  0  2  0  0  0  0  0  0  0  0  0
   21.1670   -8.7469    0.0000 C   0  0  0  0  0  0  0  0  0  0  0  0
   21.0176   -7.3258    0.0000 C   0  0  0  0  0  0  0  0  0  0  0  0
   14.3586   -8.6644    0.0000 C   0  0  0  0  0  0  0  0  0  0  0  0
   16.5020   -7.4269    0.0000 C   0  0  0  0  0  0  0  0  0  0  0  0
   17.5166   -6.5449    0.0000 C   0  0  0  0  0  0  0  0  0  0  0  0
   18.8917   -6.8308    0.0000 O   0  0  0  0  0  0  0  0  0  0  0  0
    9.3575  -10.6955    0.0000 O   0  0  0  0  0  0  0  0  0  0  0  0
    9.3756   -9.0456    0.0000 O   0  0  0  0  0  0  0  0  0  0  0  0
   10.1037   -7.8160    0.0000 O   0  0  0  0  0  0  0  0  0  0  0  0
   10.8136   -8.2364    0.0000 C   0  0  0  0  0  0  0  0  0  0  0  0
   12.2152  -10.7269    0.0000 O   0  0  0  0  0  0  0  0  0  0  0  0
   10.8045   -9.0613    0.0000 C   0  0  2  0  0  0  0  0  0  0  0  0
   10.0855   -9.4659    0.0000 C   0  0  2  0  0  0  0  0  0  0  0  0
   10.0764  -10.2909    0.0000 C   0  0  1  0  0  0  0  0  0  0  0  0
   10.7863  -10.7112    0.0000 C   0  0  2  0  0  0  0  0  0  0  0  0
   11.5053  -10.3066    0.0000 C   0  0  1  0  0  0  0  0  0  0  0  0
   11.5144   -9.4817    0.0000 O   0  0  0  0  0  0  0  0  0  0  0  0
   10.7772  -11.5362    0.0000 O   0  0  0  0  0  0  0  0  0  0  0  0
   23.6375   -8.6610    0.0000 O   0  0  0  0  0  0  0  0  0  0  0  0
   24.4622  -10.0900    0.0000 O   0  0  0  0  0  0  0  0  0  0  0  0
   23.6370  -11.5188    0.0000 O   0  0  0  0  0  0  0  0  0  0  0  0
   22.3993  -12.2331    0.0000 O   0  0  0  0  0  0  0  0  0  0  0  0
   21.9870  -11.5186    0.0000 C   0  0  0  0  0  0  0  0  0  0  0  0
   22.3996  -10.8042    0.0000 C   0  0  2  0  0  0  0  0  0  0  0  0
   23.2246  -10.8043    0.0000 C   0  0  2  0  0  0  0  0  0  0  0  0
   23.6372  -10.0899    0.0000 C   0  0  1  0  0  0  0  0  0  0  0  0
   23.2248   -9.3754    0.0000 C   0  0  2  0  0  0  0  0  0  0  0  0
   22.3998   -9.3752    0.0000 C   0  0  1  0  0  0  0  0  0  0  0  0
   21.9872  -10.0896    0.0000 O   0  0  0  0  0  0  0  0  0  0  0  0
   21.9875   -8.6607    0.0000 O   0  0  0  0  0  0  0  0  0  0  0  0
   15.7875   -8.6644    0.0000 H   0  0  0  0  0  0  0  0  0  0  0  0
   15.0731   -9.9019    0.0000 H   0  0  0  0  0  0  0  0  0  0  0  0
   16.5020   -9.9019    0.0000 H   0  0  0  0  0  0  0  0  0  0  0  0
   16.8741   -7.2825    0.0000 H   0  0  0  0  0  0  0  0  0  0  0  0
   18.1840   -9.3789    0.0000 H   0  0  0  0  0  0  0  0  0  0  0  0
    8.5506   -9.0463    0.0000 C   0  0  2  0  0  0  0  0  0  0  0  0
    8.1454   -8.3276    0.0000 O   0  0  0  0  0  0  0  0  0  0  0  0
    7.3205   -8.3192    0.0000 C   0  0  2  0  0  0  0  0  0  0  0  0
    6.9166   -9.0384    0.0000 C   0  0  1  0  0  0  0  0  0  0  0  0
    7.3376   -9.7659    0.0000 C   0  0  2  0  0  0  0  0  0  0  0  0
    8.1467   -9.7654    0.0000 C   0  0  1  0  0  0  0  0  0  0  0  0
    6.9074   -7.6051    0.0000 C   0  0  0  0  0  0  0  0  0  0  0  0
    6.0916   -9.0437    0.0000 O   0  0  0  0  0  0  0  0  0  0  0  0
    6.9257  -10.4807    0.0000 O   0  0  0  0  0  0  0  0  0  0  0  0
    8.5637  -10.4773    0.0000 O   0  0  0  0  0  0  0  0  0  0  0  0
   10.0570  -11.9385    0.0000 C   0  0  2  0  0  0  0  0  0  0  0  0
    9.3508  -11.5120    0.0000 O   0  0  0  0  0  0  0  0  0  0  0  0
    8.6283  -11.9104    0.0000 C   0  0  2  0  0  0  0  0  0  0  0  0
    8.6324  -12.7470    0.0000 C   0  0  1  0  0  0  0  0  0  0  0  0
    9.3455  -13.1618    0.0000 C   0  0  2  0  0  0  0  0  0  0  0  0
   10.0747  -12.7517    0.0000 C   0  0  1  0  0  0  0  0  0  0  0  0
    7.9183  -13.1601    0.0000 O   0  0  0  0  0  0  0  0  0  0  0  0
    7.9169  -11.4926    0.0000 C   0  0  0  0  0  0  0  0  0  0  0  0
    9.3395  -13.9867    0.0000 O   0  0  0  0  0  0  0  0  0  0  0  0
   10.7914  -13.1604    0.0000 O   0  0  0  0  0  0  0  0  0  0  0  0
   12.2152   -9.0769    0.0000 O   0  0  0  0  0  0  0  0  0  0  0  0
    5.6745   -8.3319    0.0000 C   0  0  2  0  0  0  0  0  0  0  0  0
    6.0777   -7.6122    0.0000 O   0  0  0  0  0  0  0  0  0  0  0  0
    5.6745   -6.9031    0.0000 C   0  0  2  0  0  0  0  0  0  0  0  0
    4.8495   -6.9031    0.0000 C   0  0  1  0  0  0  0  0  0  0  0  0
    4.4463   -7.6122    0.0000 C   0  0  2  0  0  0  0  0  0  0  0  0
    4.8495   -8.3319    0.0000 C   0  0  1  0  0  0  0  0  0  0  0  0
    6.0893   -6.1899    0.0000 C   0  0  0  0  0  0  0  0  0  0  0  0
    4.4347   -6.1899    0.0000 O   0  0  0  0  0  0  0  0  0  0  0  0
    3.6213   -7.6095    0.0000 O   0  0  0  0  0  0  0  0  0  0  0  0
    4.4325   -9.0437    0.0000 O   0  0  0  0  0  0  0  0  0  0  0  0
 38 41  1  6  0  0  0
 37 30  1  1  0  0  0
 36 31  1  6  0  0  0
 35 33  1  1  0  0  0
 33 32  1  0  0  0  0
 39 34  1  1  0  0  0
 40 35  1  0  0  0  0
 36 35  1  0  0  0  0
 37 36  1  0  0  0  0
 38 37  1  0  0  0  0
 39 38  1  0  0  0  0
 40 39  1  0  0  0  0
 51 53  1  1  0  0  0
 50 42  1  6  0  0  0
 49 43  1  1  0  0  0
 48 44  1  6  0  0  0
 47 46  1  1  0  0  0
 46 45  1  0  0  0  0
 52 47  1  0  0  0  0
 48 47  1  0  0  0  0
 49 48  1  0  0  0  0
 50 49  1  0  0  0  0
 51 50  1  0  0  0  0
 52 51  1  0  0  0  0
  1  2  1  0  0  0  0
  2  3  1  0  0  0  0
  3  4  1  0  0  0  0
  4  5  1  0  0  0  0
  5  6  1  0  0  0  0
  6  7  1  0  0  0  0
  7  8  1  0  0  0  0
  8  9  1  0  0  0  0
  9 10  1  0  0  0  0
 10 11  1  0  0  0  0
 11 12  1  0  0  0  0
 12 13  1  0  0  0  0
 13 14  1  0  0  0  0
 14 15  1  0  0  0  0
 15 16  1  0  0  0  0
 16 17  1  0  0  0  0
 17 18  1  0  0  0  0
 18 19  2  0  0  0  0
 19 20  1  0  0  0  0
  1 20  1  0  0  0  0
  1 12  1  0  0  0  0
 13 18  1  0  0  0  0
  2  9  1  0  0  0  0
  4  8  1  0  0  0  0
 21 22  1  0  0  0  0
 22 23  1  0  0  0  0
 23 24  1  0  0  0  0
 24 53  1  0  0  0  0
 23 25  1  1  0  0  0
  6 21  1  0  0  0  0
 13 26  1  1  0  0  0
  9 27  1  1  0  0  0
  7 28  1  6  0  0  0
  6 29  1  6  0  0  0
 16 34  1  1  0  0  0
  1 54  1  1  0  0  0
 12 55  1  6  0  0  0
  2 56  1  6  0  0  0
  8 57  1  6  0  0  0
  4 58  1  6  0  0  0
 59 31  1  1  0  0  0
 59 60  1  0  0  0  0
 60 61  1  0  0  0  0
 61 62  1  0  0  0  0
 62 63  1  0  0  0  0
 63 64  1  0  0  0  0
 64 59  1  0  0  0  0
 61 65  1  6  0  0  0
 62 66  1  1  0  0  0
 63 67  1  6  0  0  0
 64 68  1  6  0  0  0
 69 41  1  1  0  0  0
 69 70  1  0  0  0  0
 70 71  1  0  0  0  0
 71 72  1  0  0  0  0
 72 73  1  0  0  0  0
 73 74  1  0  0  0  0
 74 69  1  0  0  0  0
 72 75  1  1  0  0  0
 71 76  1  6  0  0  0
 73 77  1  6  0  0  0
 74 78  1  6  0  0  0
 15 79  1  6  0  0  0
 80 66  1  1  0  0  0
 80 81  1  0  0  0  0
 81 82  1  0  0  0  0
 82 83  1  0  0  0  0
 83 84  1  0  0  0  0
 84 85  1  0  0  0  0
 85 80  1  0  0  0  0
 82 86  1  6  0  0  0
 83 87  1  1  0  0  0
 84 88  1  6  0  0  0
 85 89  1  6  0  0  0
M  END
>  <cdx:groupId>
50511

>  <cdx:fragmentId>
50354

$$$$
