30438.cdx
  Mrv1902 05222410232D          

 20 21  0  0  0  0            999 V2000
    5.3606  -10.8064    0.0000 C   0  0  0  0  0  0  0  0  0  0  0  0
    5.3606  -11.6314    0.0000 C   0  0  0  0  0  0  0  0  0  0  0  0
    6.0750  -12.0439    0.0000 C   0  0  0  0  0  0  0  0  0  0  0  0
    6.7895  -11.6314    0.0000 C   0  0  0  0  0  0  0  0  0  0  0  0
    6.7895  -10.8064    0.0000 C   0  0  0  0  0  0  0  0  0  0  0  0
    6.0750  -10.3939    0.0000 C   0  0  0  0  0  0  0  0  0  0  0  0
    6.0750  -12.8689    0.0000 N   0  0  0  0  0  0  0  0  0  0  0  0
    6.7895  -13.2814    0.0000 C   0  0  0  0  0  0  0  0  0  0  0  0
    5.3606  -13.2814    0.0000 C   0  0  0  0  0  0  0  0  0  0  0  0
    6.0750   -9.5689    0.0000 C   0  0  0  0  0  0  0  0  0  0  0  0
    6.7895   -9.1564    0.0000 C   0  0  0  0  0  0  0  0  0  0  0  0
    7.5040   -9.5689    0.0000 C   0  0  0  0  0  0  0  0  0  0  0  0
    8.2184   -9.1564    0.0000 C   0  0  0  0  0  0  0  0  0  0  0  0
    8.2184   -8.3314    0.0000 C   0  0  0  0  0  0  0  0  0  0  0  0
    7.5040   -7.9189    0.0000 C   0  0  0  0  0  0  0  0  0  0  0  0
    6.7895   -8.3314    0.0000 C   0  0  0  0  0  0  0  0  0  0  0  0
    5.3606   -9.1564    0.0000 O   0  0  0  0  0  0  0  0  0  0  0  0
    8.9329   -7.9189    0.0000 C   0  0  0  0  0  0  0  0  0  0  0  0
    9.6474   -8.3314    0.0000 C   0  0  0  0  0  0  0  0  0  0  0  0
    8.9329   -7.0939    0.0000 C   0  0  0  0  0  0  0  0  0  0  0  0
  1  2  2  0  0  0  0
  2  3  1  0  0  0  0
  3  4  2  0  0  0  0
  4  5  1  0  0  0  0
  5  6  2  0  0  0  0
  6  1  1  0  0  0  0
  3  7  1  0  0  0  0
  7  8  1  0  0  0  0
  7  9  1  0  0  0  0
  6 10  1  0  0  0  0
 10 11  1  0  0  0  0
 11 12  2  0  0  0  0
 12 13  1  0  0  0  0
 13 14  2  0  0  0  0
 14 15  1  0  0  0  0
 15 16  2  0  0  0  0
 16 11  1  0  0  0  0
 10 17  2  0  0  0  0
 14 18  1  0  0  0  0
 18 19  1  0  0  0  0
 18 20  1  0  0  0  0
M  END
>  <cdx:fragmentId>
5

$$$$
