30434.cdx
  Mrv1902 05222410232D          

 15 16  0  0  0  0            999 V2000
    8.6315   -9.1982    0.0000 O   0  0  0  0  0  0  0  0  0  0  0  0
    7.3940   -9.9126    0.0000 O   0  0  0  0  0  0  0  0  0  0  0  0
    7.8065   -9.1982    0.0000 C   0  0  0  0  0  0  0  0  0  0  0  0
    6.9815   -9.1982    0.0000 N   0  0  0  0  0  0  0  0  0  0  0  0
    8.8229   -6.8337    0.0000 O   0  0  0  0  0  0  0  0  0  0  0  0
    7.3940   -8.4837    0.0000 C   0  0  0  0  0  0  0  0  0  0  0  0
    8.1084   -8.0712    0.0000 C   0  0  0  0  0  0  0  0  0  0  0  0
    8.1084   -7.2462    0.0000 C   0  0  0  0  0  0  0  0  0  0  0  0
    7.3940   -6.8337    0.0000 O   0  0  0  0  0  0  0  0  0  0  0  0
    5.9650   -8.4837    0.0000 C   0  0  0  0  0  0  0  0  0  0  0  0
    6.6795   -8.0712    0.0000 C   0  0  0  0  0  0  0  0  0  0  0  0
    6.6795   -7.2462    0.0000 C   0  0  0  0  0  0  0  0  0  0  0  0
    5.9650   -6.8337    0.0000 C   0  0  0  0  0  0  0  0  0  0  0  0
    5.2506   -7.2462    0.0000 C   0  0  0  0  0  0  0  0  0  0  0  0
    5.2506   -8.0712    0.0000 C   0  0  0  0  0  0  0  0  0  0  0  0
  3  1  1  0  0  0  0
  3  2  2  0  0  0  0
  6  3  1  0  0  0  0
  6  4  1  0  0  0  0
  8  5  2  0  0  0  0
  6 11  1  0  0  0  0
  7  6  1  0  0  0  0
  8  7  1  0  0  0  0
  9  8  1  0  0  0  0
 12  9  1  0  0  0  0
 10 15  1  0  0  0  0
 11 10  2  0  0  0  0
 12 11  1  0  0  0  0
 13 12  2  0  0  0  0
 14 13  1  0  0  0  0
 15 14  2  0  0  0  0
M  END
>  <cdx:fragmentId>
5

$$$$
