30439.cdx
  Mrv1902 05222410232D          

 12 12  0  0  0  0            999 V2000
    6.3231   -9.4864    0.0000 C   0  0  0  0  0  0  0  0  0  0  0  0
    6.3231  -10.3114    0.0000 C   0  0  0  0  0  0  0  0  0  0  0  0
    7.0375  -10.7239    0.0000 C   0  0  0  0  0  0  0  0  0  0  0  0
    7.7520  -10.3114    0.0000 C   0  0  0  0  0  0  0  0  0  0  0  0
    7.7520   -9.4864    0.0000 C   0  0  0  0  0  0  0  0  0  0  0  0
    7.0375   -9.0739    0.0000 C   0  0  0  0  0  0  0  0  0  0  0  0
    8.4665  -10.7239    0.0000 O   0  0  0  0  0  0  0  0  0  0  0  0
    5.6086   -9.0739    0.0000 O   0  0  0  0  0  0  0  0  0  0  0  0
    4.8941   -9.4864    0.0000 C   0  0  0  0  0  0  0  0  0  0  0  0
    4.1796   -9.0739    0.0000 C   0  0  0  0  0  0  0  0  0  0  0  0
    7.0375   -8.2489    0.0000 C   0  0  0  0  0  0  0  0  0  0  0  0
    7.7520   -7.8364    0.0000 O   0  0  0  0  0  0  0  0  0  0  0  0
  1  2  2  0  0  0  0
  2  3  1  0  0  0  0
  3  4  2  0  0  0  0
  4  5  1  0  0  0  0
  5  6  2  0  0  0  0
  6  1  1  0  0  0  0
  4  7  1  0  0  0  0
  1  8  1  0  0  0  0
  8  9  1  0  0  0  0
  9 10  1  0  0  0  0
  6 11  1  0  0  0  0
 11 12  1  0  0  0  0
M  END
>  <cdx:fragmentId>
5

$$$$
