30437.cdx
  Mrv1902 05222410222D          

  9  8  0  0  0  0            999 V2000
    4.1088  -11.5901    0.0000 C   0  0  0  0  0  0  0  0  0  0  0  0
    4.8232  -11.1776    0.0000 Si  0  0  0  0  0  0  0  0  0  0  0  0
    5.5377  -10.7651    0.0000 C   0  0  0  0  0  0  0  0  0  0  0  0
    6.2522  -10.3526    0.0000 C   0  0  0  0  0  0  0  0  0  0  0  0
    6.9667   -9.9401    0.0000 C   0  0  0  0  0  0  0  0  0  0  0  0
    7.6811  -10.3526    0.0000 C   0  0  0  0  0  0  0  0  0  0  0  0
    4.4107  -10.4632    0.0000 C   0  0  0  0  0  0  0  0  0  0  0  0
    5.2357  -11.8921    0.0000 C   0  0  0  0  0  0  0  0  0  0  0  0
    3.3943  -11.1776    0.0000 C   0  0  0  0  0  0  0  0  0  0  0  0
  1  2  1  0  0  0  0
  2  3  1  0  0  0  0
  3  4  3  0  0  0  0
  4  5  1  0  0  0  0
  5  6  2  0  0  0  0
  2  7  1  0  0  0  0
  2  8  1  0  0  0  0
  1  9  2  0  0  0  0
M  END
>  <cdx:fragmentId>
3

$$$$
