30435.cdx
  Mrv1902 05222410222D          

 10  9  0  0  0  0            999 V2000
    9.3020   -8.8126    0.0000 C   0  0  0  0  0  0  0  0  0  0  0  0
    8.5876   -9.2251    0.0000 C   0  0  0  0  0  0  0  0  0  0  0  0
    7.8731   -8.8126    0.0000 C   0  0  0  0  0  0  0  0  0  0  0  0
    7.1586   -9.2251    0.0000 C   0  0  0  0  0  0  0  0  0  0  0  0
    6.4442   -8.8126    0.0000 O   0  0  0  0  0  0  0  0  0  0  0  0
    5.7297   -9.2251    0.0000 C   0  0  0  0  0  0  0  0  0  0  0  0
    5.0152   -8.8126    0.0000 C   0  0  0  0  0  0  0  0  0  0  0  0
    4.3007   -9.2251    0.0000 C   0  0  0  0  0  0  0  0  0  0  0  0
    3.5863   -8.8126    0.0000 C   0  0  0  0  0  0  0  0  0  0  0  0
    4.3007  -10.0501    0.0000 O   0  0  0  0  0  0  0  0  0  0  0  0
  2  1  1  0  0  0  0
  3  2  1  0  0  0  0
  4  3  1  0  0  0  0
  5  4  1  0  0  0  0
  6  5  1  0  0  0  0
  7  6  1  0  0  0  0
  8  7  1  0  0  0  0
  9  8  1  0  0  0  0
  8 10  2  0  0  0  0
M  END
>  <cdx:fragmentId>
3

$$$$
