30432.cdx
  Mrv1902 05222410212D          

 22 22  0  0  0  0            999 V2000
    6.2400   -8.8132    0.0000 C   0  0  0  0  0  0  0  0  0  0  0  0
    5.8275   -9.5276    0.0000 C   0  0  0  0  0  0  0  0  0  0  0  0
    6.2400  -10.2421    0.0000 C   0  0  0  0  0  0  0  0  0  0  0  0
    7.0650  -10.2421    0.0000 C   0  0  0  0  0  0  0  0  0  0  0  0
    7.4775   -9.5276    0.0000 C   0  0  0  0  0  0  0  0  0  0  0  0
    7.0650   -8.8132    0.0000 C   0  0  0  0  0  0  0  0  0  0  0  0
    8.3025   -9.5276    0.0000 C   0  0  0  0  0  0  0  0  0  0  0  0
    8.7150   -8.8132    0.0000 C   0  0  0  0  0  0  0  0  0  0  0  0
    8.3025   -8.0987    0.0000 C   0  0  0  0  0  0  0  0  0  0  0  0
    7.4775   -8.0987    0.0000 C   0  0  0  0  0  0  0  0  0  0  0  0
    8.7150   -7.3842    0.0000 C   0  0  0  0  0  0  0  0  0  0  0  0
    8.3025   -6.6698    0.0000 C   0  0  0  0  0  0  0  0  0  0  0  0
    7.4775   -6.6698    0.0000 C   0  0  0  0  0  0  0  0  0  0  0  0
    7.0650   -7.3842    0.0000 C   0  0  0  0  0  0  0  0  0  0  0  0
    5.0025   -9.5276    0.0000 C   0  0  0  0  0  0  0  0  0  0  0  0
    8.7150  -10.2421    0.0000 C   0  0  0  0  0  0  0  0  0  0  0  0
    8.3025   -5.8448    0.0000 O   0  0  0  0  0  0  0  0  0  0  0  0
    9.0994   -6.4562    0.0000 C   0  0  0  0  0  0  0  0  0  0  0  0
    7.7192   -8.6821    0.0000 O   0  0  0  0  0  0  0  0  0  0  0  0
    8.1920   -7.6862    0.0000 C   0  0  0  0  0  0  0  0  0  0  0  0
    7.6086   -7.1028    0.0000 C   0  0  0  0  0  0  0  0  0  0  0  0
    8.9889   -7.8997    0.0000 C   0  0  0  0  0  0  0  0  0  0  0  0
  1  2  1  0  0  0  0
  2  3  2  0  0  0  0
  3  4  1  0  0  0  0
  4  5  1  0  0  0  0
  6  1  1  0  0  0  0
  5  7  1  0  0  0  0
  7  8  2  0  0  0  0
  8  9  1  0  0  0  0
 10  6  1  0  0  0  0
  9 11  1  0  0  0  0
 11 12  1  0  0  0  0
 12 13  1  0  0  0  0
 13 14  2  0  0  0  0
 14 10  1  0  0  0  0
  2 15  1  0  0  0  0
  7 16  1  0  0  0  0
 12 17  1  0  0  0  0
 12 18  1  0  0  0  0
  9 19  1  0  0  0  0
 10 20  1  0  0  0  0
 20 21  1  0  0  0  0
 20 22  1  0  0  0  0
M  END
>  <cdx:fragmentId>
5

$$$$
