30431.cdx
  Mrv1902 05222410212D          

 21 23  0  0  0  0            999 V2000
    4.7556   -7.9876    0.0000 C   0  0  0  0  0  0  0  0  0  0  0  0
    4.7556   -7.1626    0.0000 C   0  0  0  0  0  0  0  0  0  0  0  0
    5.4700   -6.7501    0.0000 C   0  0  0  0  0  0  0  0  0  0  0  0
    6.1845   -7.1626    0.0000 C   0  0  0  0  0  0  0  0  0  0  0  0
    6.1845   -7.9876    0.0000 C   0  0  0  0  0  0  0  0  0  0  0  0
    5.4700   -8.4001    0.0000 C   0  0  0  0  0  0  0  0  0  0  0  0
    6.8990   -6.7501    0.0000 O   0  0  0  0  0  0  0  0  0  0  0  0
    7.6134   -7.1626    0.0000 C   0  0  0  0  0  0  0  0  0  0  0  0
    7.6134   -7.9876    0.0000 C   0  0  0  0  0  0  0  0  0  0  0  0
    6.8990   -8.4001    0.0000 C   0  0  0  0  0  0  0  0  0  0  0  0
    8.3279   -8.4001    0.0000 C   0  0  0  0  0  0  0  0  0  0  0  0
    8.3279   -9.2251    0.0000 C   0  0  0  0  0  0  0  0  0  0  0  0
    6.8990   -9.2251    0.0000 O   0  0  0  0  0  0  0  0  0  0  0  0
    9.0424   -7.9876    0.0000 C   0  0  0  0  0  0  0  0  0  0  0  0
    9.7569   -8.4001    0.0000 C   0  0  0  0  0  0  0  0  0  0  0  0
    9.7569   -9.2251    0.0000 C   0  0  0  0  0  0  0  0  0  0  0  0
    9.0424   -9.6376    0.0000 C   0  0  0  0  0  0  0  0  0  0  0  0
    4.0411   -6.7501    0.0000 O   0  0  0  0  0  0  0  0  0  0  0  0
   10.4713   -9.6376    0.0000 O   0  0  0  0  0  0  0  0  0  0  0  0
   10.4713   -7.9876    0.0000 O   0  0  0  0  0  0  0  0  0  0  0  0
   11.1858   -8.4001    0.0000 C   0  0  0  0  0  0  0  0  0  0  0  0
  1  2  2  0  0  0  0
  2  3  1  0  0  0  0
  3  4  2  0  0  0  0
  4  5  1  0  0  0  0
  5  6  2  0  0  0  0
  6  1  1  0  0  0  0
  4  7  1  0  0  0  0
  7  8  1  0  0  0  0
  8  9  2  0  0  0  0
  9 10  1  0  0  0  0
 10  5  1  0  0  0  0
  9 11  1  0  0  0  0
 11 12  2  0  0  0  0
 13 10  2  0  0  0  0
 11 14  1  0  0  0  0
 14 15  2  0  0  0  0
 15 16  1  0  0  0  0
 16 17  2  0  0  0  0
 17 12  1  0  0  0  0
  2 18  1  0  0  0  0
 16 19  1  0  0  0  0
 15 20  1  0  0  0  0
 20 21  1  0  0  0  0
M  END
>  <cdx:fragmentId>
5

$$$$
