30442.cdx
  Mrv1902 05222410202D          

 16 16  0  0  0  0            999 V2000
    6.0206  -12.1264    0.0000 C   0  0  0  0  0  0  0  0  0  0  0  0
    6.0206  -12.9514    0.0000 C   0  0  0  0  0  0  0  0  0  0  0  0
    6.7350  -13.3639    0.0000 C   0  0  0  0  0  0  0  0  0  0  0  0
    7.4495  -12.9514    0.0000 C   0  0  0  0  0  0  0  0  0  0  0  0
    7.4495  -12.1264    0.0000 C   0  0  0  0  0  0  0  0  0  0  0  0
    6.7350  -11.7139    0.0000 C   0  0  0  0  0  0  0  0  0  0  0  0
    6.7350  -10.8889    0.0000 C   0  0  0  0  0  0  0  0  0  0  0  0
    7.4495  -10.4764    0.0000 C   0  0  0  0  0  0  0  0  0  0  0  0
    7.4495   -9.6514    0.0000 C   0  0  0  0  0  0  0  0  0  0  0  0
    6.7350   -9.2389    0.0000 O   0  0  0  0  0  0  0  0  0  0  0  0
    8.1640   -9.2389    0.0000 O   0  0  0  0  0  0  0  0  0  0  0  0
    8.1640   -8.4139    0.0000 C   0  0  0  0  0  0  0  0  0  0  0  0
    8.8784   -8.0014    0.0000 C   0  0  0  0  0  0  0  0  0  0  0  0
    8.8784   -7.1764    0.0000 C   0  0  0  0  0  0  0  0  0  0  0  0
    9.5929   -6.7639    0.0000 C   0  0  0  0  0  0  0  0  0  0  0  0
    9.5929   -5.9389    0.0000 O   0  0  0  0  0  0  0  0  0  0  0  0
  1  2  2  0  0  0  0
  2  3  1  0  0  0  0
  3  4  2  0  0  0  0
  4  5  1  0  0  0  0
  5  6  2  0  0  0  0
  6  1  1  0  0  0  0
  6  7  1  0  0  0  0
  7  8  2  0  0  0  0
  8  9  1  0  0  0  0
  9 10  2  0  0  0  0
  9 11  1  0  0  0  0
 11 12  1  0  0  0  0
 12 13  1  0  0  0  0
 13 14  1  0  0  0  0
 14 15  1  0  0  0  0
 15 16  1  0  0  0  0
M  END
>  <cdx:fragmentId>
5

$$$$
