30447.cdx
  Mrv1902 05222410182D          

 13 13  0  0  0  0            999 V2000
    5.5531   -8.7851    0.0000 C   0  0  0  0  0  0  0  0  0  0  0  0
    5.5531   -9.6101    0.0000 C   0  0  0  0  0  0  0  0  0  0  0  0
    6.2675  -10.0226    0.0000 C   0  0  0  0  0  0  0  0  0  0  0  0
    6.9820   -9.6101    0.0000 C   0  0  0  0  0  0  0  0  0  0  0  0
    6.9820   -8.7851    0.0000 C   0  0  0  0  0  0  0  0  0  0  0  0
    6.2675   -8.3726    0.0000 C   0  0  0  0  0  0  0  0  0  0  0  0
    4.8386   -8.3726    0.0000 O   0  0  0  0  0  0  0  0  0  0  0  0
    4.1241   -8.7851    0.0000 C   0  0  0  0  0  0  0  0  0  0  0  0
    7.6965  -10.0226    0.0000 O   0  0  0  0  0  0  0  0  0  0  0  0
    6.2675   -7.5476    0.0000 C   0  0  0  0  0  0  0  0  0  0  0  0
    6.2675   -6.7226    0.0000 C   0  0  0  0  0  0  0  0  0  0  0  0
    7.0925   -7.5476    0.0000 C   0  0  0  0  0  0  0  0  0  0  0  0
    5.4425   -7.5476    0.0000 C   0  0  0  0  0  0  0  0  0  0  0  0
  1  2  2  0  0  0  0
  2  3  1  0  0  0  0
  3  4  2  0  0  0  0
  4  5  1  0  0  0  0
  5  6  2  0  0  0  0
  6  1  1  0  0  0  0
  1  7  1  0  0  0  0
  7  8  1  0  0  0  0
  4  9  1  0  0  0  0
  6 10  1  0  0  0  0
 10 11  1  0  0  0  0
 10 12  1  0  0  0  0
 10 13  1  0  0  0  0
M  END
>  <cdx:fragmentId>
5

$$$$
