30445.cdx
  Mrv1902 05222410192D          

 31 32  0  0  0  0            999 V2000
    5.0168  -11.9614    0.0000 C   0  0  0  0  0  0  0  0  0  0  0  0
    5.0168  -12.7864    0.0000 C   0  0  0  0  0  0  0  0  0  0  0  0
    5.7313  -13.1989    0.0000 C   0  0  0  0  0  0  0  0  0  0  0  0
    6.4457  -12.7864    0.0000 C   0  0  0  0  0  0  0  0  0  0  0  0
    6.4457  -11.9614    0.0000 C   0  0  0  0  0  0  0  0  0  0  0  0
    5.7313  -11.5489    0.0000 C   0  0  0  0  0  0  0  0  0  0  0  0
    5.7313  -14.0239    0.0000 O   0  0  0  0  0  0  0  0  0  0  0  0
    5.7313  -10.7239    0.0000 C   0  0  0  0  0  0  0  0  0  0  0  0
    6.4457  -10.3114    0.0000 C   0  0  0  0  0  0  0  0  0  0  0  0
    6.4457   -9.4864    0.0000 C   0  0  0  0  0  0  0  0  0  0  0  0
    7.1602   -9.0739    0.0000 C   0  0  0  0  0  0  0  0  0  0  0  0
    5.7313   -9.0739    0.0000 O   0  0  0  0  0  0  0  0  0  0  0  0
    7.8747   -9.4864    0.0000 C   0  0  0  0  0  0  0  0  0  0  0  0
    8.5892   -9.0739    0.0000 C   0  0  0  0  0  0  0  0  0  0  0  0
    8.5892   -8.2489    0.0000 C   0  0  0  0  0  0  0  0  0  0  0  0
    7.8747   -7.8364    0.0000 C   0  0  0  0  0  0  0  0  0  0  0  0
    7.1602   -8.2489    0.0000 C   0  0  0  0  0  0  0  0  0  0  0  0
    7.8747  -10.3114    0.0000 O   0  0  0  0  0  0  0  0  0  0  0  0
    8.5892  -10.7239    0.0000 C   0  0  0  0  0  0  0  0  0  0  0  0
    6.4457   -7.8364    0.0000 O   0  0  0  0  0  0  0  0  0  0  0  0
    9.3036   -7.8364    0.0000 O   0  0  0  0  0  0  0  0  0  0  0  0
    7.4622   -7.1219    0.0000 C   0  0  0  0  0  0  0  0  0  0  0  0
    8.2872   -7.1219    0.0000 C   0  0  0  0  0  0  0  0  0  0  0  0
    7.8747   -6.4075    0.0000 C   0  0  0  0  0  0  0  0  0  0  0  0
    8.2872   -5.6930    0.0000 C   0  0  0  0  0  0  0  0  0  0  0  0
    7.8747   -4.9785    0.0000 C   0  0  0  0  0  0  0  0  0  0  0  0
    9.1122   -5.6930    0.0000 C   0  0  0  0  0  0  0  0  0  0  0  0
    6.6372   -7.1219    0.0000 C   0  0  0  0  0  0  0  0  0  0  0  0
    6.2247   -6.4075    0.0000 C   0  0  0  0  0  0  0  0  0  0  0  0
    5.3997   -6.4075    0.0000 C   0  0  0  0  0  0  0  0  0  0  0  0
    6.6372   -5.6930    0.0000 C   0  0  0  0  0  0  0  0  0  0  0  0
  1  2  2  0  0  0  0
  2  3  1  0  0  0  0
  3  4  2  0  0  0  0
  4  5  1  0  0  0  0
  5  6  2  0  0  0  0
  6  1  1  0  0  0  0
  3  7  1  0  0  0  0
  6  8  1  0  0  0  0
  8  9  2  0  0  0  0
  9 10  1  0  0  0  0
 10 11  2  0  0  0  0
 10 12  1  0  0  0  0
 11 13  1  0  0  0  0
 13 14  2  0  0  0  0
 14 15  1  0  0  0  0
 15 16  1  0  0  0  0
 16 17  1  0  0  0  0
 17 11  1  0  0  0  0
 13 18  1  0  0  0  0
 18 19  1  0  0  0  0
 17 20  2  0  0  0  0
 15 21  2  0  0  0  0
 16 22  1  0  0  0  0
 16 23  1  0  0  0  0
 23 24  1  0  0  0  0
 24 25  2  0  0  0  0
 25 26  1  0  0  0  0
 25 27  1  0  0  0  0
 22 28  1  0  0  0  0
 28 29  2  0  0  0  0
 29 30  1  0  0  0  0
 29 31  1  0  0  0  0
M  END
>  <cdx:fragmentId>
5

$$$$
