30446.cdx
  Mrv1902 05222410182D          

 21 22  0  0  0  0            999 V2000
    7.2718   -8.1526    0.0000 C   0  0  0  0  0  0  0  0  0  0  0  0
    7.2718   -8.9776    0.0000 C   0  0  0  0  0  0  0  0  0  0  0  0
    7.9863   -9.3901    0.0000 C   0  0  0  0  0  0  0  0  0  0  0  0
    8.7007   -8.9776    0.0000 C   0  0  0  0  0  0  0  0  0  0  0  0
    8.7007   -8.1526    0.0000 C   0  0  0  0  0  0  0  0  0  0  0  0
    7.9863   -7.7401    0.0000 C   0  0  0  0  0  0  0  0  0  0  0  0
    7.9863  -10.2151    0.0000 O   0  0  0  0  0  0  0  0  0  0  0  0
    8.7007  -10.6276    0.0000 C   0  0  0  0  0  0  0  0  0  0  0  0
    6.5573   -9.3901    0.0000 C   0  0  0  0  0  0  0  0  0  0  0  0
    5.8429   -8.9776    0.0000 C   0  0  0  0  0  0  0  0  0  0  0  0
    5.1284   -9.3901    0.0000 C   0  0  0  0  0  0  0  0  0  0  0  0
    7.9863   -6.9151    0.0000 C   0  0  0  0  0  0  0  0  0  0  0  0
    8.7007   -6.5026    0.0000 C   0  0  0  0  0  0  0  0  0  0  0  0
    8.7007   -5.6776    0.0000 C   0  0  0  0  0  0  0  0  0  0  0  0
    7.9863   -5.2651    0.0000 C   0  0  0  0  0  0  0  0  0  0  0  0
    7.2718   -5.6776    0.0000 C   0  0  0  0  0  0  0  0  0  0  0  0
    7.2718   -6.5026    0.0000 C   0  0  0  0  0  0  0  0  0  0  0  0
    9.4152   -6.9151    0.0000 O   0  0  0  0  0  0  0  0  0  0  0  0
    6.5573   -5.2651    0.0000 C   0  0  0  0  0  0  0  0  0  0  0  0
    6.5573   -4.4401    0.0000 C   0  0  0  0  0  0  0  0  0  0  0  0
    5.8429   -4.0276    0.0000 C   0  0  0  0  0  0  0  0  0  0  0  0
  1  2  2  0  0  0  0
  2  3  1  0  0  0  0
  3  4  2  0  0  0  0
  4  5  1  0  0  0  0
  5  6  2  0  0  0  0
  6  1  1  0  0  0  0
  3  7  1  0  0  0  0
  7  8  1  0  0  0  0
  2  9  1  0  0  0  0
  9 10  1  0  0  0  0
 10 11  2  0  0  0  0
  6 12  1  0  0  0  0
 12 13  2  0  0  0  0
 13 14  1  0  0  0  0
 14 15  2  0  0  0  0
 15 16  1  0  0  0  0
 16 17  2  0  0  0  0
 17 12  1  0  0  0  0
 13 18  1  0  0  0  0
 16 19  1  0  0  0  0
 19 20  1  0  0  0  0
 20 21  2  0  0  0  0
M  END
>  <cdx:fragmentId>
5

$$$$
