30444.cdx
  Mrv1902 05222410192D          

 10 10  0  0  0  0            999 V2000
    5.7731   -8.7301    0.0000 C   0  0  0  0  0  0  0  0  0  0  0  0
    5.7731   -9.5551    0.0000 C   0  0  0  0  0  0  0  0  0  0  0  0
    6.4875   -9.9676    0.0000 C   0  0  0  0  0  0  0  0  0  0  0  0
    7.2020   -9.5551    0.0000 C   0  0  0  0  0  0  0  0  0  0  0  0
    7.2020   -8.7301    0.0000 C   0  0  0  0  0  0  0  0  0  0  0  0
    6.4875   -8.3176    0.0000 C   0  0  0  0  0  0  0  0  0  0  0  0
    6.4875  -10.7926    0.0000 O   0  0  0  0  0  0  0  0  0  0  0  0
    6.4875   -7.4926    0.0000 C   0  0  0  0  0  0  0  0  0  0  0  0
    7.2020   -7.0801    0.0000 O   0  0  0  0  0  0  0  0  0  0  0  0
    7.2020   -6.2551    0.0000 C   0  0  0  0  0  0  0  0  0  0  0  0
  1  2  2  0  0  0  0
  2  3  1  0  0  0  0
  3  4  2  0  0  0  0
  4  5  1  0  0  0  0
  5  6  2  0  0  0  0
  6  1  1  0  0  0  0
  3  7  1  0  0  0  0
  6  8  1  0  0  0  0
  8  9  1  0  0  0  0
  9 10  1  0  0  0  0
M  END
>  <cdx:fragmentId>
5

$$$$
