304571.cdx
  Mrv1902 05222410212D          

 10 10  0  0  0  0            999 V2000
    6.1515  -10.1657    0.0000 C   0  0  0  0  0  0  0  0  0  0  0  0
    8.3021   -7.2835    0.0000 C   0  0  0  0  0  0  0  0  0  0  0  0
    7.5866   -7.6942    0.0000 C   0  0  0  0  0  0  0  0  0  0  0  0
    6.8732   -7.2800    0.0000 C   0  0  0  0  0  0  0  0  0  0  0  0
    6.8691   -8.9300    0.0000 C   0  0  0  0  0  0  0  0  0  0  0  0
    7.5846   -8.5192    0.0000 C   0  0  0  0  0  0  0  0  0  0  0  0
    8.2980   -8.9335    0.0000 C   0  0  0  0  0  0  0  0  0  0  0  0
    8.2960   -9.7585    0.0000 C   0  0  0  0  0  0  0  0  0  0  0  0
    7.5805  -10.1692    0.0000 C   0  0  0  0  0  0  0  0  0  0  0  0
    6.8670   -9.7550    0.0000 C   0  0  0  0  0  0  0  0  0  0  0  0
 10  1  1  0  0  0  0
  6  3  1  0  0  0  0
  3  2  1  0  0  0  0
  4  3  2  0  0  0  0
 10  5  2  0  0  0  0
  6  5  1  0  0  0  0
  7  6  1  0  0  0  0
  8  7  1  0  0  0  0
  9  8  1  0  0  0  0
 10  9  1  0  0  0  0
M  END
>  <cdx:fragmentId>
5

$$$$
