30450.cdx
  Mrv1902 05222410192D          

 19 20  0  0  0  0            999 V2000
    5.2093   -9.9126    0.0000 C   0  0  0  0  0  0  0  0  0  0  0  0
    5.2093  -10.7376    0.0000 C   0  0  0  0  0  0  0  0  0  0  0  0
    5.9238  -11.1501    0.0000 C   0  0  0  0  0  0  0  0  0  0  0  0
    6.6382  -10.7376    0.0000 C   0  0  0  0  0  0  0  0  0  0  0  0
    6.6382   -9.9126    0.0000 C   0  0  0  0  0  0  0  0  0  0  0  0
    5.9238   -9.5001    0.0000 C   0  0  0  0  0  0  0  0  0  0  0  0
    4.4948   -9.5001    0.0000 Cl  0  0  0  0  0  0  0  0  0  0  0  0
    4.4948  -11.1501    0.0000 Cl  0  0  0  0  0  0  0  0  0  0  0  0
    5.9238   -8.6751    0.0000 O   0  0  0  0  0  0  0  0  0  0  0  0
    6.6382   -8.2626    0.0000 C   0  0  0  0  0  0  0  0  0  0  0  0
    6.6382   -7.4376    0.0000 C   0  0  0  0  0  0  0  0  0  0  0  0
    7.3527   -8.6751    0.0000 O   0  0  0  0  0  0  0  0  0  0  0  0
    7.3527   -7.0251    0.0000 C   0  0  0  0  0  0  0  0  0  0  0  0
    7.3527   -6.2001    0.0000 C   0  0  0  0  0  0  0  0  0  0  0  0
    6.6382   -5.7876    0.0000 C   0  0  0  0  0  0  0  0  0  0  0  0
    5.9238   -6.2001    0.0000 C   0  0  0  0  0  0  0  0  0  0  0  0
    5.9238   -7.0251    0.0000 C   0  0  0  0  0  0  0  0  0  0  0  0
    6.6382   -4.9626    0.0000 O   0  0  0  0  0  0  0  0  0  0  0  0
    7.3527   -4.5501    0.0000 C   0  0  0  0  0  0  0  0  0  0  0  0
  1  2  2  0  0  0  0
  2  3  1  0  0  0  0
  3  4  2  0  0  0  0
  4  5  1  0  0  0  0
  5  6  2  0  0  0  0
  6  1  1  0  0  0  0
  1  7  1  0  0  0  0
  2  8  1  0  0  0  0
  6  9  1  0  0  0  0
  9 10  1  0  0  0  0
 10 11  1  0  0  0  0
 10 12  2  0  0  0  0
 11 13  2  0  0  0  0
 13 14  1  0  0  0  0
 14 15  2  0  0  0  0
 15 16  1  0  0  0  0
 16 17  2  0  0  0  0
 17 11  1  0  0  0  0
 15 18  1  0  0  0  0
 18 19  1  0  0  0  0
M  END
>  <cdx:fragmentId>
5

$$$$
