30457.cdx
  Mrv1902 05222410202D          

 16 16  0  0  0  0            999 V2000
    6.4468   -8.6476    0.0000 C   0  0  0  0  0  0  0  0  0  0  0  0
    6.4468   -9.4726    0.0000 C   0  0  0  0  0  0  0  0  0  0  0  0
    7.1613   -9.8851    0.0000 C   0  0  0  0  0  0  0  0  0  0  0  0
    7.8757   -9.4726    0.0000 C   0  0  0  0  0  0  0  0  0  0  0  0
    7.8757   -8.6476    0.0000 C   0  0  0  0  0  0  0  0  0  0  0  0
    7.1613   -8.2351    0.0000 C   0  0  0  0  0  0  0  0  0  0  0  0
    5.7323   -9.8851    0.0000 O   0  0  0  0  0  0  0  0  0  0  0  0
    7.1613  -10.7101    0.0000 O   0  0  0  0  0  0  0  0  0  0  0  0
    7.8757  -11.1226    0.0000 C   0  0  0  0  0  0  0  0  0  0  0  0
    7.8757  -11.9476    0.0000 C   0  0  0  0  0  0  0  0  0  0  0  0
    8.5902  -10.7101    0.0000 O   0  0  0  0  0  0  0  0  0  0  0  0
    7.1613   -7.4101    0.0000 C   0  0  0  0  0  0  0  0  0  0  0  0
    7.8757   -6.9976    0.0000 C   0  0  0  0  0  0  0  0  0  0  0  0
    7.8757   -6.1726    0.0000 C   0  0  0  0  0  0  0  0  0  0  0  0
    7.1613   -5.7601    0.0000 O   0  0  0  0  0  0  0  0  0  0  0  0
    8.5902   -5.7601    0.0000 O   0  0  0  0  0  0  0  0  0  0  0  0
  1  2  2  0  0  0  0
  2  3  1  0  0  0  0
  3  4  2  0  0  0  0
  4  5  1  0  0  0  0
  5  6  2  0  0  0  0
  6  1  1  0  0  0  0
  2  7  1  0  0  0  0
  3  8  1  0  0  0  0
  8  9  1  0  0  0  0
  9 10  1  0  0  0  0
  9 11  2  0  0  0  0
  6 12  1  0  0  0  0
 12 13  2  0  0  0  0
 13 14  1  0  0  0  0
 14 15  2  0  0  0  0
 14 16  1  0  0  0  0
M  END
>  <cdx:fragmentId>
5

$$$$
