304576.cdx
  Mrv1902 05222410222D          

 36 40  0  0  0  0            999 V2000
    5.3926  -10.9228    0.0000 C   0  0  0  0  0  0  0  0  0  0  0  0
    4.6781  -11.3353    0.0000 C   0  0  0  0  0  0  0  0  0  0  0  0
    4.6781  -12.1603    0.0000 C   0  0  1  0  0  0  0  0  0  0  0  0
    5.3926  -12.5728    0.0000 C   0  0  0  0  0  0  0  0  0  0  0  0
    6.1071  -12.1603    0.0000 C   0  0  2  0  0  0  0  0  0  0  0  0
    6.8216  -12.5728    0.0000 C   0  0  0  0  0  0  0  0  0  0  0  0
    7.5360  -12.1603    0.0000 C   0  0  0  0  0  0  0  0  0  0  0  0
    7.5360  -11.3353    0.0000 C   0  0  1  0  0  0  0  0  0  0  0  0
    8.2505  -10.9228    0.0000 C   0  0  2  0  0  0  0  0  0  0  0  0
    9.0351  -11.1778    0.0000 C   0  0  0  0  0  0  0  0  0  0  0  0
    9.5200  -10.5103    0.0000 C   0  0  0  0  0  0  0  0  0  0  0  0
    9.0351   -9.8429    0.0000 C   0  0  1  0  0  0  0  0  0  0  0  0
    8.2505  -10.0978    0.0000 C   0  0  1  0  0  0  0  0  0  0  0  0
    7.5360   -9.6853    0.0000 C   0  0  0  0  0  0  0  0  0  0  0  0
    6.8216  -10.0978    0.0000 C   0  0  0  0  0  0  0  0  0  0  0  0
    6.8216  -10.9228    0.0000 C   0  0  2  0  0  0  0  0  0  0  0  0
    6.1071  -11.3353    0.0000 C   0  0  1  0  0  0  0  0  0  0  0  0
    6.8216  -13.3978    0.0000 O   0  0  0  0  0  0  0  0  0  0  0  0
    8.2505   -9.2728    0.0000 C   0  0  0  0  0  0  0  0  0  0  0  0
    6.1071  -10.5103    0.0000 C   0  0  0  0  0  0  0  0  0  0  0  0
    3.9637  -12.5728    0.0000 O   0  0  0  0  0  0  0  0  0  0  0  0
    6.1071  -12.9853    0.0000 H   0  0  0  0  0  0  0  0  0  0  0  0
    7.5360  -10.5103    0.0000 H   0  0  0  0  0  0  0  0  0  0  0  0
    6.8216  -11.7478    0.0000 H   0  0  0  0  0  0  0  0  0  0  0  0
    8.2505  -11.7478    0.0000 H   0  0  0  0  0  0  0  0  0  0  0  0
   12.5179   -8.3722    0.0000 C   0  0  0  0  0  0  0  0  0  0  0  0
   11.1589   -7.9306    0.0000 C   0  0  0  0  0  0  0  0  0  0  0  0
   11.7110   -8.5437    0.0000 C   0  0  2  0  0  0  0  0  0  0  0  0
   11.4560   -9.3283    0.0000 C   0  0  0  0  0  0  0  0  0  0  0  0
   10.6491   -9.4998    0.0000 C   0  0  0  0  0  0  0  0  0  0  0  0
    8.7380   -8.4452    0.0000 C   0  0  0  0  0  0  0  0  0  0  0  0
    9.2901   -9.0583    0.0000 C   0  0  2  0  0  0  0  0  0  0  0  0
   10.0970   -8.8867    0.0000 C   0  0  2  0  0  0  0  0  0  0  0  0
   10.3520   -8.1021    0.0000 N   0  0  0  0  0  0  0  0  0  0  0  0
    9.8197   -9.5879    0.0000 H   0  0  0  0  0  0  0  0  0  0  0  0
   10.9040   -8.7152    0.0000 H   0  0  0  0  0  0  0  0  0  0  0  0
 32 33  1  0  0  0  0
 28 26  1  1  0  0  0
 34 27  1  0  0  0  0
 28 27  1  0  0  0  0
 29 28  1  0  0  0  0
 30 29  1  0  0  0  0
 32 31  1  6  0  0  0
  1  2  1  0  0  0  0
  2  3  1  0  0  0  0
  3  4  1  0  0  0  0
  4  5  1  0  0  0  0
  5  6  1  0  0  0  0
  6  7  1  0  0  0  0
  7  8  1  0  0  0  0
  8  9  1  0  0  0  0
  9 10  1  0  0  0  0
 10 11  1  0  0  0  0
 12 11  1  0  0  0  0
 12 13  1  0  0  0  0
  9 13  1  0  0  0  0
 13 14  1  0  0  0  0
 14 15  1  0  0  0  0
 15 16  1  0  0  0  0
  8 16  1  0  0  0  0
 16 17  1  0  0  0  0
  5 17  1  0  0  0  0
  1 17  1  0  0  0  0
  6 18  2  0  0  0  0
 33 30  1  0  0  0  0
 33 34  1  0  0  0  0
 12 32  1  0  0  0  0
 13 19  1  1  0  0  0
 17 20  1  1  0  0  0
  3 21  1  1  0  0  0
  5 22  1  6  0  0  0
  8 23  1  1  0  0  0
 16 24  1  6  0  0  0
  9 25  1  6  0  0  0
 12 35  1  6  0  0  0
 33 36  1  1  0  0  0
M  END
>  <cdx:fragmentId>
69616

$$$$
