30452.cdx
  Mrv1902 05222410182D          

 19 20  0  0  0  0            999 V2000
    5.2936   -8.4691    0.0000 C   0  0  0  0  0  0  0  0  0  0  0  0
    4.5853   -8.8923    0.0000 C   0  0  0  0  0  0  0  0  0  0  0  0
    4.5976   -9.7172    0.0000 C   0  0  0  0  0  0  0  0  0  0  0  0
    5.3182  -10.1190    0.0000 C   0  0  0  0  0  0  0  0  0  0  0  0
    6.0264   -9.6958    0.0000 C   0  0  0  0  0  0  0  0  0  0  0  0
    6.0141   -8.8709    0.0000 C   0  0  0  0  0  0  0  0  0  0  0  0
    3.8894  -10.1403    0.0000 C   0  0  0  0  0  0  0  0  0  0  0  0
    6.7224   -8.4478    0.0000 C   0  0  0  0  0  0  0  0  0  0  0  0
    6.7101   -7.6229    0.0000 O   0  0  0  0  0  0  0  0  0  0  0  0
    7.4429   -8.8496    0.0000 O   0  0  0  0  0  0  0  0  0  0  0  0
    8.1511   -8.4265    0.0000 C   0  0  0  0  0  0  0  0  0  0  0  0
    8.8717   -8.8283    0.0000 C   0  0  0  0  0  0  0  0  0  0  0  0
    9.5799   -8.4052    0.0000 C   0  0  0  0  0  0  0  0  0  0  0  0
    8.8840   -9.6532    0.0000 O   0  0  0  0  0  0  0  0  0  0  0  0
   10.3005   -8.8070    0.0000 C   0  0  0  0  0  0  0  0  0  0  0  0
   11.0087   -8.3839    0.0000 C   0  0  0  0  0  0  0  0  0  0  0  0
   10.9964   -7.5590    0.0000 C   0  0  0  0  0  0  0  0  0  0  0  0
   10.2759   -7.1572    0.0000 C   0  0  0  0  0  0  0  0  0  0  0  0
    9.5676   -7.5803    0.0000 C   0  0  0  0  0  0  0  0  0  0  0  0
  1  2  2  0  0  0  0
  2  3  1  0  0  0  0
  3  4  2  0  0  0  0
  4  5  1  0  0  0  0
  5  6  2  0  0  0  0
  6  1  1  0  0  0  0
  3  7  1  0  0  0  0
  6  8  1  0  0  0  0
  8  9  2  0  0  0  0
  8 10  1  0  0  0  0
 10 11  1  0  0  0  0
 11 12  1  0  0  0  0
 12 13  1  0  0  0  0
 12 14  2  0  0  0  0
 13 15  2  0  0  0  0
 15 16  1  0  0  0  0
 16 17  2  0  0  0  0
 17 18  1  0  0  0  0
 18 19  2  0  0  0  0
 19 13  1  0  0  0  0
M  END
>  <cdx:fragmentId>
5

$$$$
