304574.cdx
  Mrv1902 05222410222D          

 37 42  0  0  0  0            999 V2000
    8.0213   -7.8009    0.0000 C   0  0  2  0  0  0  0  0  0  0  0  0
    8.3814   -8.5432    0.0000 C   0  0  1  0  0  0  0  0  0  0  0  0
    8.0256   -9.2875    0.0000 C   0  0  1  0  0  0  0  0  0  0  0  0
    7.2218   -9.4735    0.0000 C   0  0  2  0  0  0  0  0  0  0  0  0
    6.5753   -8.9610    0.0000 C   0  0  1  0  0  0  0  0  0  0  0  0
    6.5729   -8.1360    0.0000 C   0  0  2  0  0  0  0  0  0  0  0  0
    7.2164   -7.6197    0.0000 C   0  0  2  0  0  0  0  0  0  0  0  0
    5.8621   -9.3755    0.0000 C   0  0  2  0  0  0  0  0  0  0  0  0
    5.1464   -8.9651    0.0000 C   0  0  2  0  0  0  0  0  0  0  0  0
    5.1440   -8.1401    0.0000 C   0  0  0  0  0  0  0  0  0  0  0  0
    5.8572   -7.7255    0.0000 C   0  0  2  0  0  0  0  0  0  0  0  0
    7.1401   -6.7982    0.0000 C   0  0  0  0  0  0  0  0  0  0  0  0
    7.8977   -6.4718    0.0000 C   0  0  1  0  0  0  0  0  0  0  0  0
    8.4423   -7.0915    0.0000 C   0  0  2  0  0  0  0  0  0  0  0  0
    5.8548   -6.9006    0.0000 O   0  0  0  0  0  0  0  0  0  0  0  0
    5.8645  -10.2005    0.0000 C   0  0  0  0  0  0  0  0  0  0  0  0
    5.1512  -10.6151    0.0000 O   0  0  0  0  0  0  0  0  0  0  0  0
    5.1536  -11.4401    0.0000 C   0  0  0  0  0  0  0  0  0  0  0  0
    6.5725   -7.4800    0.0000 C   0  0  0  0  0  0  0  0  0  0  0  0
    5.8575   -8.4975    0.0000 N   0  0  0  0  0  0  0  0  0  0  0  0
    5.1425   -9.6800    0.0000 C   0  0  0  0  0  0  0  0  0  0  0  0
    9.1800   -8.3360    0.0000 C   0  0  1  0  0  0  0  0  0  0  0  0
    9.1575   -6.6275    0.0000 C   0  0  2  0  0  0  0  0  0  0  0  0
    8.5949   -9.3401    0.0000 O   0  0  0  0  0  0  0  0  0  0  0  0
    9.7625   -7.0400    0.0000 O   0  0  0  0  0  0  0  0  0  0  0  0
    6.5687   -9.7859    0.0000 H   0  0  0  0  0  0  0  0  0  0  0  0
    6.6331   -7.0363    0.0000 H   0  0  0  0  0  0  0  0  0  0  0  0
    8.8462   -7.8075    0.0000 O   0  0  0  0  0  0  0  0  0  0  0  0
    8.0256  -10.1125    0.0000 H   0  0  0  0  0  0  0  0  0  0  0  0
    4.6750   -8.4975    0.0000 C   0  0  0  0  0  0  0  0  0  0  0  0
    7.2218  -10.2985    0.0000 H   0  0  0  0  0  0  0  0  0  0  0  0
    9.9768   -8.5496    0.0000 H   0  0  0  0  0  0  0  0  0  0  0  0
    4.0916   -7.9141    0.0000 C   0  0  0  0  0  0  0  0  0  0  0  0
    9.7720   -6.0770    0.0000 O   0  0  0  0  0  0  0  0  0  0  0  0
    9.7720   -5.2520    0.0000 C   0  0  0  0  0  0  0  0  0  0  0  0
    7.8977   -5.6468    0.0000 H   0  0  0  0  0  0  0  0  0  0  0  0
    4.4331   -9.3797    0.0000 H   0  0  0  0  0  0  0  0  0  0  0  0
  1  2  1  0  0  0  0
  2  3  1  0  0  0  0
  3  4  1  0  0  0  0
  4  5  1  0  0  0  0
  5  6  1  0  0  0  0
  6  7  1  0  0  0  0
  7  1  1  0  0  0  0
  5  8  1  0  0  0  0
  8  9  1  0  0  0  0
  9 10  1  0  0  0  0
 10 11  1  0  0  0  0
  6 11  1  1  0  0  0
  7 12  1  0  0  0  0
 12 13  1  0  0  0  0
 13 14  1  0  0  0  0
 14  1  1  0  0  0  0
 11 15  1  6  0  0  0
  8 16  1  1  0  0  0
 16 17  1  0  0  0  0
 17 18  1  0  0  0  0
  6 19  1  0  0  0  0
  3 19  1  0  0  0  0
 19 20  1  0  0  0  0
 20 21  1  0  0  0  0
  8 21  1  0  0  0  0
  2 22  1  0  0  0  0
 13 23  1  0  0  0  0
 23 22  1  0  0  0  0
  2 24  1  1  0  0  0
 14 25  1  6  0  0  0
  5 26  1  1  0  0  0
  7 27  1  1  0  0  0
  1 28  1  1  0  0  0
  3 29  1  6  0  0  0
 20 30  1  0  0  0  0
  4 31  1  6  0  0  0
 22 32  1  6  0  0  0
 30 33  1  0  0  0  0
 23 34  1  1  0  0  0
 34 35  1  0  0  0  0
 13 36  1  1  0  0  0
  9 37  1  6  0  0  0
M  END
>  <cdx:fragmentId>
704

$$$$
