30454.cdx
  Mrv1902 05222410192D          

 11 11  0  0  0  0            999 V2000
    6.5269   -9.9882    0.0000 C   0  0  0  0  0  0  0  0  0  0  0  0
    7.2414   -9.5757    0.0000 C   0  0  0  0  0  0  0  0  0  0  0  0
    7.2414   -8.7507    0.0000 C   0  0  0  0  0  0  0  0  0  0  0  0
    6.5269   -8.3382    0.0000 C   0  0  0  0  0  0  0  0  0  0  0  0
    5.8124   -8.7507    0.0000 C   0  0  0  0  0  0  0  0  0  0  0  0
    5.8124   -9.5757    0.0000 C   0  0  0  0  0  0  0  0  0  0  0  0
    7.9558   -9.9882    0.0000 C   0  0  0  0  0  0  0  0  0  0  0  0
    6.5269   -7.5132    0.0000 O   0  0  0  0  0  0  0  0  0  0  0  0
    6.5269  -10.8132    0.0000 C   0  0  0  0  0  0  0  0  0  0  0  0
    5.3999  -10.2901    0.0000 C   0  0  0  0  0  0  0  0  0  0  0  0
    4.9874   -9.5757    0.0000 C   0  0  0  0  0  0  0  0  0  0  0  0
  1  2  1  0  0  0  0
  2  3  2  0  0  0  0
  3  4  1  0  0  0  0
  4  5  1  0  0  0  0
  5  6  1  0  0  0  0
  6  1  1  0  0  0  0
  2  7  1  0  0  0  0
  4  8  2  0  0  0  0
  1  9  2  0  0  0  0
  6 10  1  0  0  0  0
  6 11  1  0  0  0  0
M  END
>  <cdx:fragmentId>
5

$$$$
