30455.cdx
  Mrv1902 05222410192D          

 10  9  0  0  0  0            999 V2000
    9.4126   -8.2626    0.0000 C   0  0  0  0  0  0  0  0  0  0  0  0
    8.6981   -7.8501    0.0000 C   0  0  0  0  0  0  0  0  0  0  0  0
    7.9836   -8.2626    0.0000 C   0  0  0  0  0  0  0  0  0  0  0  0
    7.2692   -7.8501    0.0000 C   0  0  0  0  0  0  0  0  0  0  0  0
    6.5547   -8.2626    0.0000 C   0  0  0  0  0  0  0  0  0  0  0  0
    5.8402   -7.8501    0.0000 C   0  0  0  0  0  0  0  0  0  0  0  0
    5.1257   -8.2626    0.0000 C   0  0  0  0  0  0  0  0  0  0  0  0
    4.4113   -7.8501    0.0000 C   0  0  0  0  0  0  0  0  0  0  0  0
    6.5547   -9.0876    0.0000 C   0  0  0  0  0  0  0  0  0  0  0  0
    7.2692   -8.6751    0.0000 H   0  0  0  0  0  0  0  0  0  0  0  0
  2  1  1  0  0  0  0
  3  2  1  0  0  0  0
  4  3  1  0  0  0  0
  5  4  1  0  0  0  0
  6  5  1  0  0  0  0
  7  6  1  0  0  0  0
  8  7  1  0  0  0  0
  5  9  1  0  0  0  0
  5 10  1  0  0  0  0
M  END
>  <cdx:fragmentId>
3

$$$$
