30451.cdx
  Mrv1902 05222410192D          

 13 13  0  0  0  0            999 V2000
    5.6768   -8.9776    0.0000 C   0  0  0  0  0  0  0  0  0  0  0  0
    5.6768   -9.8026    0.0000 C   0  0  0  0  0  0  0  0  0  0  0  0
    6.3913  -10.2151    0.0000 C   0  0  0  0  0  0  0  0  0  0  0  0
    7.1057   -9.8026    0.0000 C   0  0  0  0  0  0  0  0  0  0  0  0
    7.1057   -8.9776    0.0000 C   0  0  0  0  0  0  0  0  0  0  0  0
    6.3913   -8.5651    0.0000 C   0  0  0  0  0  0  0  0  0  0  0  0
    6.3913  -11.0401    0.0000 O   0  0  0  0  0  0  0  0  0  0  0  0
    5.6768  -11.4526    0.0000 C   0  0  0  0  0  0  0  0  0  0  0  0
    6.3913   -7.7401    0.0000 C   0  0  0  0  0  0  0  0  0  0  0  0
    7.1057   -7.3276    0.0000 C   0  0  0  0  0  0  0  0  0  0  0  0
    7.1057   -6.5026    0.0000 O   0  0  0  0  0  0  0  0  0  0  0  0
    7.8202   -7.7401    0.0000 C   0  0  0  0  0  0  0  0  0  0  0  0
    7.8202   -6.9151    0.0000 H   0  0  0  0  0  0  0  0  0  0  0  0
  1  2  2  0  0  0  0
  2  3  1  0  0  0  0
  3  4  2  0  0  0  0
  4  5  1  0  0  0  0
  5  6  2  0  0  0  0
  6  1  1  0  0  0  0
  3  7  1  0  0  0  0
  7  8  1  0  0  0  0
  6  9  1  0  0  0  0
  9 10  1  0  0  0  0
 10 11  1  0  0  0  0
 10 12  1  0  0  0  0
 10 13  1  0  0  0  0
M  END
>  <cdx:fragmentId>
5

$$$$
