30469.cdx
  Mrv1902 05222410192D          

 22 22  0  0  0  0            999 V2000
   11.8057   -8.8704    0.0000 C   0  0  0  0  0  0  0  0  0  0  0  0
    9.9756   -7.2041    0.0000 O   0  0  0  0  0  0  0  0  0  0  0  0
   10.7877   -7.0589    0.0000 C   0  0  0  0  0  0  0  0  0  0  0  0
   11.3196   -7.6895    0.0000 O   0  0  0  0  0  0  0  0  0  0  0  0
    9.0136   -8.2607    0.0000 C   0  0  0  0  0  0  0  0  0  0  0  0
    8.2275   -8.5113    0.0000 C   0  0  0  0  0  0  0  0  0  0  0  0
    7.4415   -8.7619    0.0000 C   0  0  0  0  0  0  0  0  0  0  0  0
    7.1822   -9.5451    0.0000 C   0  0  0  0  0  0  0  0  0  0  0  0
    6.3573   -9.5405    0.0000 C   0  0  0  0  0  0  0  0  0  0  0  0
    6.1067   -8.7545    0.0000 C   0  0  0  0  0  0  0  0  0  0  0  0
    6.7768   -8.2733    0.0000 S   0  0  0  0  0  0  0  0  0  0  0  0
    5.3235   -8.4952    0.0000 C   0  0  0  0  0  0  0  0  0  0  0  0
    4.5403   -8.2360    0.0000 C   0  0  0  0  0  0  0  0  0  0  0  0
    3.7571   -7.9767    0.0000 C   0  0  0  0  0  0  0  0  0  0  0  0
    2.9739   -7.7174    0.0000 C   0  0  0  0  0  0  0  0  0  0  0  0
    2.1907   -7.4581    0.0000 C   0  0  0  0  0  0  0  0  0  0  0  0
   12.5917   -8.6198    0.0000 C   0  0  0  0  0  0  0  0  0  0  0  0
   11.6297   -9.6764    0.0000 O   0  0  0  0  0  0  0  0  0  0  0  0
   11.1956   -8.3150    0.0000 O   0  0  0  0  0  0  0  0  0  0  0  0
   11.0679   -6.2829    0.0000 C   0  0  0  0  0  0  0  0  0  0  0  0
    9.7996   -8.0101    0.0000 C   0  0  0  0  0  0  0  0  0  0  0  0
   10.4096   -8.5656    0.0000 C   0  0  0  0  0  0  0  0  0  0  0  0
 21  2  1  0  0  0  0
 22 21  1  0  0  0  0
  3  4  2  0  0  0  0
  3 20  1  0  0  0  0
  2  3  1  0  0  0  0
 21  5  1  0  0  0  0
  5  6  3  0  0  0  0
  7  8  2  0  0  0  0
  8  9  1  0  0  0  0
  9 10  2  0  0  0  0
 10 11  1  0  0  0  0
  7 11  1  0  0  0  0
 12 13  3  0  0  0  0
 13 14  1  0  0  0  0
 14 15  3  0  0  0  0
 15 16  1  0  0  0  0
 10 12  1  0  0  0  0
  6  7  1  0  0  0  0
  1 17  1  0  0  0  0
  1 18  2  0  0  0  0
  1 19  1  0  0  0  0
 19 22  1  0  0  0  0
M  END
>  <cdx:fragmentId>
21

$$$$
