30468.cdx
  Mrv1902 05222410192D          

 14 14  0  0  0  0            999 V2000
    5.4981   -9.1289    0.0000 C   0  0  0  0  0  0  0  0  0  0  0  0
    5.4981   -9.9539    0.0000 C   0  0  0  0  0  0  0  0  0  0  0  0
    6.2125  -10.3664    0.0000 C   0  0  0  0  0  0  0  0  0  0  0  0
    6.9270   -9.9539    0.0000 C   0  0  0  0  0  0  0  0  0  0  0  0
    6.9270   -9.1289    0.0000 C   0  0  0  0  0  0  0  0  0  0  0  0
    6.2125   -8.7164    0.0000 C   0  0  0  0  0  0  0  0  0  0  0  0
    6.2125  -11.1914    0.0000 C   0  0  0  0  0  0  0  0  0  0  0  0
    5.8000   -8.0019    0.0000 O   0  0  0  0  0  0  0  0  0  0  0  0
    6.6250   -8.0019    0.0000 C   0  0  0  0  0  0  0  0  0  0  0  0
    6.2125   -7.2875    0.0000 C   0  0  0  0  0  0  0  0  0  0  0  0
    7.4500   -8.0019    0.0000 C   0  0  0  0  0  0  0  0  0  0  0  0
    4.9750   -8.0019    0.0000 C   0  0  0  0  0  0  0  0  0  0  0  0
    4.5625   -7.2875    0.0000 C   0  0  0  0  0  0  0  0  0  0  0  0
    4.5625   -8.7164    0.0000 O   0  0  0  0  0  0  0  0  0  0  0  0
  1  2  1  0  0  0  0
  2  3  1  0  0  0  0
  3  4  2  0  0  0  0
  4  5  1  0  0  0  0
  5  6  1  0  0  0  0
  6  1  1  0  0  0  0
  3  7  1  0  0  0  0
  6  8  1  0  0  0  0
  6  9  1  0  0  0  0
  9 10  1  0  0  0  0
  9 11  1  0  0  0  0
  8 12  1  0  0  0  0
 12 13  1  0  0  0  0
 12 14  2  0  0  0  0
M  END
>  <cdx:fragmentId>
5

$$$$
