3047.cdx
  Mrv1902 05222410192D          

 26 27  0  0  0  0            999 V2000
    2.5814   -8.4563    0.0000 C   0  0  0  0  0  0  0  0  0  0  0  0
    2.5814   -9.2813    0.0000 C   0  0  0  0  0  0  0  0  0  0  0  0
    3.2959   -9.6937    0.0000 C   0  0  0  0  0  0  0  0  0  0  0  0
    4.0103   -9.2813    0.0000 C   0  0  0  0  0  0  0  0  0  0  0  0
    4.0103   -8.4563    0.0000 C   0  0  0  0  0  0  0  0  0  0  0  0
    3.2959   -8.0437    0.0000 C   0  0  0  0  0  0  0  0  0  0  0  0
    1.8669   -9.6937    0.0000 O   0  0  0  0  0  0  0  0  0  0  0  0
    4.7248   -8.0437    0.0000 C   0  0  0  0  0  0  0  0  0  0  0  0
    5.4393   -8.4563    0.0000 C   0  0  0  0  0  0  0  0  0  0  0  0
    6.1538   -8.0437    0.0000 C   0  0  0  0  0  0  0  0  0  0  0  0
    6.8682   -8.4563    0.0000 C   0  0  0  0  0  0  0  0  0  0  0  0
    7.5827   -8.0437    0.0000 C   0  0  0  0  0  0  0  0  0  0  0  0
    8.2972   -8.4563    0.0000 C   0  0  0  0  0  0  0  0  0  0  0  0
    9.0116   -8.0437    0.0000 C   0  0  0  0  0  0  0  0  0  0  0  0
    9.7261   -8.4563    0.0000 C   0  0  0  0  0  0  0  0  0  0  0  0
    9.7261   -9.2813    0.0000 C   0  0  0  0  0  0  0  0  0  0  0  0
   10.4406   -9.6937    0.0000 C   0  0  0  0  0  0  0  0  0  0  0  0
   11.1551   -9.2813    0.0000 C   0  0  0  0  0  0  0  0  0  0  0  0
   11.1551   -8.4563    0.0000 C   0  0  0  0  0  0  0  0  0  0  0  0
   10.4406   -8.0437    0.0000 C   0  0  0  0  0  0  0  0  0  0  0  0
   11.8695   -9.6937    0.0000 O   0  0  0  0  0  0  0  0  0  0  0  0
   11.8695   -8.0437    0.0000 O   0  0  0  0  0  0  0  0  0  0  0  0
    4.7248   -7.2188    0.0000 O   0  0  0  0  0  0  0  0  0  0  0  0
    6.1538   -7.2188    0.0000 O   0  0  0  0  0  0  0  0  0  0  0  0
    7.5827   -7.2188    0.0000 O   0  0  0  0  0  0  0  0  0  0  0  0
   12.5840   -8.4562    0.0000 C   0  0  0  0  0  0  0  0  0  0  0  0
  1  2  2  0  0  0  0
  2  3  1  0  0  0  0
  3  4  2  0  0  0  0
  4  5  1  0  0  0  0
  5  6  2  0  0  0  0
  6  1  1  0  0  0  0
  2  7  1  0  0  0  0
  5  8  1  0  0  0  0
  8  9  1  0  0  0  0
  9 10  1  0  0  0  0
 10 11  1  0  0  0  0
 11 12  1  0  0  0  0
 12 13  1  0  0  0  0
 13 14  2  0  0  0  0
 14 15  1  0  0  0  0
 15 16  2  0  0  0  0
 16 17  1  0  0  0  0
 17 18  2  0  0  0  0
 18 19  1  0  0  0  0
 19 20  2  0  0  0  0
 20 15  1  0  0  0  0
 18 21  1  0  0  0  0
 19 22  1  0  0  0  0
  8 23  1  0  0  0  0
 10 24  2  0  0  0  0
 12 25  2  0  0  0  0
 22 26  1  0  0  0  0
M  END
>  <cdx:fragmentId>
5

$$$$
