30479.cdx
  Mrv1902 05222410192D          

  9  8  0  0  0  0            999 V2000
    8.8631   -7.9189    0.0000 C   0  0  0  0  0  0  0  0  0  0  0  0
    8.1486   -8.3314    0.0000 C   0  0  0  0  0  0  0  0  0  0  0  0
    7.4342   -7.9189    0.0000 C   0  0  0  0  0  0  0  0  0  0  0  0
    6.7197   -8.3314    0.0000 C   0  0  0  0  0  0  0  0  0  0  0  0
    6.0052   -7.9189    0.0000 C   0  0  0  0  0  0  0  0  0  0  0  0
    5.2907   -8.3314    0.0000 C   0  0  0  0  0  0  0  0  0  0  0  0
    4.5763   -7.9189    0.0000 C   0  0  0  0  0  0  0  0  0  0  0  0
    5.2907   -9.1564    0.0000 O   0  0  0  0  0  0  0  0  0  0  0  0
    8.1486   -9.1564    0.0000 C   0  0  0  0  0  0  0  0  0  0  0  0
  2  1  1  0  0  0  0
  3  2  2  0  0  0  0
  4  3  1  0  0  0  0
  5  4  1  0  0  0  0
  6  5  1  0  0  0  0
  7  6  1  0  0  0  0
  6  8  2  0  0  0  0
  2  9  1  0  0  0  0
M  END
>  <cdx:fragmentId>
3

$$$$
