304825.cdx
  Mrv1902 05222410222D          

 34 36  0  0  0  0            999 V2000
    6.6069  -11.0423    0.0000 O   0  0  0  0  0  0  0  0  0  0  0  0
    7.3214  -11.4548    0.0000 C   0  0  1  0  0  0  0  0  0  0  0  0
    7.3214  -12.2798    0.0000 C   0  0  1  0  0  0  0  0  0  0  0  0
    6.6069  -12.6923    0.0000 C   0  0  2  0  0  0  0  0  0  0  0  0
    5.8924  -12.2798    0.0000 C   0  0  1  0  0  0  0  0  0  0  0  0
    5.8924  -11.4548    0.0000 C   0  0  1  0  0  0  0  0  0  0  0  0
    8.0358  -12.6923    0.0000 O   0  0  0  0  0  0  0  0  0  0  0  0
    6.6069  -13.5173    0.0000 O   0  0  0  0  0  0  0  0  0  0  0  0
    5.1780  -12.6923    0.0000 O   0  0  0  0  0  0  0  0  0  0  0  0
    5.1780  -11.0423    0.0000 C   0  0  0  0  0  0  0  0  0  0  0  0
    4.4635  -11.4548    0.0000 O   0  0  0  0  0  0  0  0  0  0  0  0
    8.0358  -11.0423    0.0000 O   0  0  0  0  0  0  0  0  0  0  0  0
    7.2108  -10.2149    0.0000 O   0  0  0  0  0  0  0  0  0  0  0  0
    8.0358  -10.2173    0.0000 C   0  0  2  0  0  0  0  0  0  0  0  0
    8.2931   -9.4334    0.0000 C   0  0  2  0  0  0  0  0  0  0  0  0
    7.6271   -8.9466    0.0000 C   0  0  1  0  0  0  0  0  0  0  0  0
    6.9582   -9.4295    0.0000 C   0  0  1  0  0  0  0  0  0  0  0  0
    7.6295   -8.1216    0.0000 O   0  0  0  0  0  0  0  0  0  0  0  0
    9.0784   -9.1808    0.0000 O   0  0  0  0  0  0  0  0  0  0  0  0
    6.0072   -8.3614    0.0000 O   0  0  0  0  0  0  0  0  0  0  0  0
    4.5376   -7.6942    0.0000 O   0  0  0  0  0  0  0  0  0  0  0  0
    5.2015   -8.1840    0.0000 C   0  0  2  0  0  0  0  0  0  0  0  0
    4.9408   -8.9667    0.0000 C   0  0  2  0  0  0  0  0  0  0  0  0
    4.1159   -8.9607    0.0000 C   0  0  1  0  0  0  0  0  0  0  0  0
    3.8667   -8.1742    0.0000 C   0  0  1  0  0  0  0  0  0  0  0  0
    3.0839   -7.9135    0.0000 C   0  0  0  0  0  0  0  0  0  0  0  0
    2.4668   -8.4611    0.0000 O   0  0  0  0  0  0  0  0  0  0  0  0
    5.7580   -7.5749    0.0000 C   0  0  0  0  0  0  0  0  0  0  0  0
    5.5088   -6.7885    0.0000 O   0  0  0  0  0  0  0  0  0  0  0  0
    3.6261   -9.6246    0.0000 O   0  0  0  0  0  0  0  0  0  0  0  0
    5.4209   -9.6377    0.0000 O   0  0  0  0  0  0  0  0  0  0  0  0
    8.8505  -10.3476    0.0000 C   0  0  0  0  0  0  0  0  0  0  0  0
    9.3706   -9.7072    0.0000 O   0  0  0  0  0  0  0  0  0  0  0  0
    6.1743   -9.1723    0.0000 C   0  0  0  0  0  0  0  0  0  0  0  0
  1  2  1  0  0  0  0
  2  3  1  0  0  0  0
  3  4  1  0  0  0  0
  4  5  1  0  0  0  0
  5  6  1  0  0  0  0
  1  6  1  0  0  0  0
  3  7  1  6  0  0  0
  4  8  1  1  0  0  0
  5  9  1  6  0  0  0
 10 11  1  0  0  0  0
  6 10  1  1  0  0  0
 13 14  1  0  0  0  0
 14 15  1  0  0  0  0
 15 16  1  0  0  0  0
 16 17  1  0  0  0  0
 13 17  1  0  0  0  0
 16 18  1  1  0  0  0
 15 19  1  6  0  0  0
 21 22  1  0  0  0  0
 22 23  1  0  0  0  0
 23 24  1  0  0  0  0
 24 25  1  0  0  0  0
 21 25  1  0  0  0  0
 26 27  1  0  0  0  0
 25 26  1  1  0  0  0
 28 29  1  0  0  0  0
 22 28  1  0  0  0  0
 24 30  1  6  0  0  0
 23 31  1  1  0  0  0
 22 20  1  1  0  0  0
 14 12  1  6  0  0  0
  2 12  1  6  0  0  0
 14 32  1  0  0  0  0
 32 33  1  0  0  0  0
 17 34  1  6  0  0  0
 20 34  1  0  0  0  0
M  END
>  <cdx:groupId>
27826

>  <cdx:fragmentId>
27771

$$$$
