304885.cdx
  Mrv1902 05222410202D          

 29 31  0  0  0  0            999 V2000
    8.7463   -9.9394    0.0000 H   0  0  0  0  0  0  0  0  0  0  0  0
    8.7402   -7.4644    0.0000 H   0  0  0  0  0  0  0  0  0  0  0  0
    9.4618  -10.3501    0.0000 C   0  0  0  0  0  0  0  0  0  0  0  0
   10.8847   -7.8717    0.0000 O   0  0  0  0  0  0  0  0  0  0  0  0
    8.0369  -12.0036    0.0000 O   0  0  0  0  0  0  0  0  0  0  0  0
    6.6100  -12.8321    0.0000 O   0  0  0  0  0  0  0  0  0  0  0  0
    5.1790  -12.0106    0.0000 O   0  0  0  0  0  0  0  0  0  0  0  0
    4.4615  -10.7749    0.0000 O   0  0  0  0  0  0  0  0  0  0  0  0
    5.1750  -10.3606    0.0000 C   0  0  0  0  0  0  0  0  0  0  0  0
    5.8904  -10.7714    0.0000 C   0  0  2  0  0  0  0  0  0  0  0  0
    5.8925  -11.5964    0.0000 C   0  0  2  0  0  0  0  0  0  0  0  0
    6.6079  -12.0071    0.0000 C   0  0  1  0  0  0  0  0  0  0  0  0
    7.3214  -11.5929    0.0000 C   0  0  2  0  0  0  0  0  0  0  0  0
    7.3194  -10.7679    0.0000 C   0  0  1  0  0  0  0  0  0  0  0  0
    6.6039  -10.3571    0.0000 O   0  0  0  0  0  0  0  0  0  0  0  0
    8.0328  -10.3536    0.0000 O   0  0  0  0  0  0  0  0  0  0  0  0
    7.3093   -6.6429    0.0000 O   0  0  0  0  0  0  0  0  0  0  0  0
    8.7382   -6.6394    0.0000 O   0  0  0  0  0  0  0  0  0  0  0  0
    8.0248   -7.0537    0.0000 C   0  0  0  0  0  0  0  0  0  0  0  0
    7.3153   -9.1179    0.0000 O   0  0  0  0  0  0  0  0  0  0  0  0
    7.3133   -8.2929    0.0000 C   0  0  0  0  0  0  0  0  0  0  0  0
    8.0268   -7.8787    0.0000 C   0  0  0  0  0  0  0  0  0  0  0  0
    8.0308   -9.5286    0.0000 C   0  0  2  0  0  0  0  0  0  0  0  0
   10.1732   -9.1109    0.0000 O   0  0  0  0  0  0  0  0  0  0  0  0
   10.1712   -8.2859    0.0000 C   0  0  0  0  0  0  0  0  0  0  0  0
    9.4557   -7.8752    0.0000 C   0  0  0  0  0  0  0  0  0  0  0  0
    8.7423   -8.2894    0.0000 C   0  0  1  0  0  0  0  0  0  0  0  0
    8.7443   -9.1144    0.0000 C   0  0  1  0  0  0  0  0  0  0  0  0
    9.4598   -9.5252    0.0000 C   0  0  2  0  0  0  0  0  0  0  0  0
 28  1  1  6  0  0  0
 27  2  1  6  0  0  0
 29  3  1  1  0  0  0
 25  4  2  0  0  0  0
 23 16  1  6  0  0  0
 14 16  1  1  0  0  0
 13  5  1  6  0  0  0
 12  6  1  1  0  0  0
 11  7  1  6  0  0  0
 10  9  1  1  0  0  0
  9  8  1  0  0  0  0
 15 10  1  0  0  0  0
 11 10  1  0  0  0  0
 12 11  1  0  0  0  0
 13 12  1  0  0  0  0
 14 13  1  0  0  0  0
 15 14  1  0  0  0  0
 22 19  1  0  0  0  0
 19 17  1  0  0  0  0
 19 18  2  0  0  0  0
 22 27  1  0  0  0  0
 23 28  1  0  0  0  0
 23 20  1  0  0  0  0
 21 20  1  0  0  0  0
 22 21  2  0  0  0  0
 29 24  1  0  0  0  0
 25 24  1  0  0  0  0
 26 25  1  0  0  0  0
 27 26  1  0  0  0  0
 28 27  1  0  0  0  0
 29 28  1  0  0  0  0
M  END
>  <cdx:fragmentId>
88296

$$$$
