30480.cdx
  Mrv1902 05222410202D          

 19 21  0  0  0  0            999 V2000
    4.4837   -8.2909    0.0000 O   0  0  0  0  0  0  0  0  0  0  0  0
    8.7705   -7.4659    0.0000 C   0  0  0  0  0  0  0  0  0  0  0  0
    9.4850   -7.0534    0.0000 C   0  0  0  0  0  0  0  0  0  0  0  0
   10.1994   -7.4659    0.0000 C   0  0  0  0  0  0  0  0  0  0  0  0
   10.1994   -8.2909    0.0000 C   0  0  0  0  0  0  0  0  0  0  0  0
    9.4850   -8.7034    0.0000 C   0  0  0  0  0  0  0  0  0  0  0  0
    8.7705   -8.2909    0.0000 C   0  0  0  0  0  0  0  0  0  0  0  0
    7.3415  -10.7659    0.0000 O   0  0  0  0  0  0  0  0  0  0  0  0
    8.7705   -9.9409    0.0000 O   0  0  0  0  0  0  0  0  0  0  0  0
    7.3415   -8.2909    0.0000 O   0  0  0  0  0  0  0  0  0  0  0  0
    6.6271   -8.7034    0.0000 C   0  0  0  0  0  0  0  0  0  0  0  0
    5.9126   -8.2909    0.0000 C   0  0  0  0  0  0  0  0  0  0  0  0
    5.1981   -8.7034    0.0000 C   0  0  0  0  0  0  0  0  0  0  0  0
    5.1981   -9.5284    0.0000 C   0  0  0  0  0  0  0  0  0  0  0  0
    5.9126   -9.9409    0.0000 C   0  0  0  0  0  0  0  0  0  0  0  0
    6.6271   -9.5284    0.0000 C   0  0  0  0  0  0  0  0  0  0  0  0
    7.3415   -9.9409    0.0000 C   0  0  0  0  0  0  0  0  0  0  0  0
    8.0560   -9.5284    0.0000 C   0  0  0  0  0  0  0  0  0  0  0  0
    8.0560   -8.7034    0.0000 C   0  0  0  0  0  0  0  0  0  0  0  0
 13  1  1  0  0  0  0
 19  7  1  0  0  0  0
  7  2  2  0  0  0  0
  3  2  1  0  0  0  0
  4  3  2  0  0  0  0
  5  4  1  0  0  0  0
  6  5  2  0  0  0  0
  7  6  1  0  0  0  0
 17  8  2  0  0  0  0
 18  9  2  0  0  0  0
 19 10  1  0  0  0  0
 11 10  1  0  0  0  0
 16 11  2  0  0  0  0
 12 11  1  0  0  0  0
 13 12  2  0  0  0  0
 14 13  1  0  0  0  0
 15 14  2  0  0  0  0
 16 15  1  0  0  0  0
 17 16  1  0  0  0  0
 18 17  1  0  0  0  0
 19 18  1  0  0  0  0
M  END
>  <cdx:fragmentId>
5

$$$$
