3048.cdx
  Mrv1902 05222410282D          

 22 23  0  0  0  0            999 V2000
    5.6958  -10.1784    0.0000 O   0  0  0  0  0  0  0  0  0  0  0  0
    6.4103   -9.7659    0.0000 C   0  0  0  0  0  0  0  0  0  0  0  0
    7.1247  -10.1784    0.0000 C   0  0  0  0  0  0  0  0  0  0  0  0
    7.8392   -9.7659    0.0000 C   0  0  0  0  0  0  0  0  0  0  0  0
    7.8392   -8.9409    0.0000 C   0  0  0  0  0  0  0  0  0  0  0  0
    7.1247   -8.5284    0.0000 C   0  0  0  0  0  0  0  0  0  0  0  0
    6.4103   -8.9409    0.0000 C   0  0  0  0  0  0  0  0  0  0  0  0
    8.5537   -8.5284    0.0000 C   0  0  0  0  0  0  0  0  0  0  0  0
    9.2682   -8.9409    0.0000 C   0  0  0  0  0  0  0  0  0  0  0  0
    9.9826   -8.5284    0.0000 C   0  0  0  0  0  0  0  0  0  0  0  0
    5.6958   -8.5284    0.0000 O   0  0  0  0  0  0  0  0  0  0  0  0
    6.4138   -6.4663    0.0000 C   0  0  2  0  0  0  0  0  0  0  0  0
    5.6987   -6.0550    0.0000 C   0  0  2  0  0  0  0  0  0  0  0  0
    4.9849   -6.4686    0.0000 C   0  0  1  0  0  0  0  0  0  0  0  0
    4.9862   -7.2936    0.0000 C   0  0  2  0  0  0  0  0  0  0  0  0
    5.7013   -7.7050    0.0000 C   0  0  1  0  0  0  0  0  0  0  0  0
    6.4151   -7.2913    0.0000 O   0  0  0  0  0  0  0  0  0  0  0  0
    7.1276   -6.0527    0.0000 C   0  0  0  0  0  0  0  0  0  0  0  0
    4.2697   -6.0573    0.0000 O   0  0  0  0  0  0  0  0  0  0  0  0
    5.6973   -5.2300    0.0000 O   0  0  0  0  0  0  0  0  0  0  0  0
    4.2724   -7.7073    0.0000 O   0  0  0  0  0  0  0  0  0  0  0  0
    7.1263   -5.2277    0.0000 O   0  0  0  0  0  0  0  0  0  0  0  0
  1  2  1  0  0  0  0
  2  3  2  0  0  0  0
  3  4  1  0  0  0  0
  4  5  2  0  0  0  0
  5  6  1  0  0  0  0
  6  7  2  0  0  0  0
  7  2  1  0  0  0  0
  5  8  1  0  0  0  0
  8  9  1  0  0  0  0
  9 10  2  0  0  0  0
  7 11  1  0  0  0  0
 12 13  1  0  0  0  0
 13 14  1  0  0  0  0
 14 15  1  0  0  0  0
 15 16  1  0  0  0  0
 16 17  1  0  0  0  0
 17 12  1  0  0  0  0
 12 18  1  1  0  0  0
 14 19  1  1  0  0  0
 13 20  1  6  0  0  0
 15 21  1  6  0  0  0
 18 22  1  0  0  0  0
 16 11  1  1  0  0  0
M  END
>  <cdx:fragmentId>
717

$$$$
