12304979.cdx
  Mrv1902 05222410222D          

 20 22  0  0  0  0            999 V2000
   15.8195  -10.8597    0.0000 C   0  0  0  0  0  0  0  0  0  0  0  0
   16.3044  -10.1923    0.0000 C   0  0  0  0  0  0  0  0  0  0  0  0
   15.8195   -9.5248    0.0000 C   0  0  2  0  0  0  0  0  0  0  0  0
   15.0349   -9.7798    0.0000 C   0  0  2  0  0  0  0  0  0  0  0  0
   14.3899   -9.2654    0.0000 C   0  0  1  0  0  0  0  0  0  0  0  0
   13.5856   -9.4490    0.0000 C   0  0  2  0  0  0  0  0  0  0  0  0
   13.2276  -10.1923    0.0000 C   0  0  0  0  0  0  0  0  0  0  0  0
   13.5856  -10.9356    0.0000 C   0  0  0  0  0  0  0  0  0  0  0  0
   14.3899  -11.1191    0.0000 C   0  0  1  0  0  0  0  0  0  0  0  0
   15.0349  -10.6048    0.0000 C   0  0  2  0  0  0  0  0  0  0  0  0
   13.8287   -8.6606    0.0000 C   0  0  0  0  0  0  0  0  0  0  0  0
   14.9510  -11.7239    0.0000 O   0  0  0  0  0  0  0  0  0  0  0  0
   16.0744   -8.7402    0.0000 C   0  0  0  0  0  0  0  0  0  0  0  0
   14.1467  -11.9075    0.0000 C   0  0  0  0  0  0  0  0  0  0  0  0
   13.2676   -8.0558    0.0000 C   0  0  0  0  0  0  0  0  0  0  0  0
   14.0719   -7.8723    0.0000 C   0  0  0  0  0  0  0  0  0  0  0  0
   12.8176   -9.1475    0.0000 H   0  0  0  0  0  0  0  0  0  0  0  0
   15.3209  -11.3786    0.0000 H   0  0  0  0  0  0  0  0  0  0  0  0
   15.1781   -8.9673    0.0000 H   0  0  0  0  0  0  0  0  0  0  0  0
   14.8375   -8.5724    0.0000 H   0  0  0  0  0  0  0  0  0  0  0  0
  1  2  1  0  0  0  0
  2  3  1  0  0  0  0
  3  4  1  0  0  0  0
  4  5  1  0  0  0  0
  5  6  1  0  0  0  0
  6  7  1  0  0  0  0
  7  8  1  0  0  0  0
  8  9  1  0  0  0  0
  9 10  1  0  0  0  0
  1 10  1  0  0  0  0
  4 10  1  0  0  0  0
 11  5  1  0  0  0  0
 11  6  1  0  0  0  0
  9 12  1  1  0  0  0
  3 13  1  6  0  0  0
  9 14  1  6  0  0  0
 11 15  1  0  0  0  0
 11 16  1  0  0  0  0
  6 17  1  1  0  0  0
 10 18  1  6  0  0  0
  4 19  1  6  0  0  0
  5 20  1  6  0  0  0
M  END
>  <cdx:groupId>
28006

>  <cdx:fragmentId>
27947

$$$$
