304977.cdx
  Mrv1902 05222410232D          

 16 16  0  0  0  0            999 V2000
    7.9437   -8.1698    0.0000 C   0  0  1  0  0  0  0  0  0  0  0  0
    8.1632   -8.9650    0.0000 C   0  0  0  0  0  0  0  0  0  0  0  0
    8.9478   -9.2200    0.0000 C   0  0  0  0  0  0  0  0  0  0  0  0
    8.9478  -10.0450    0.0000 C   0  0  0  0  0  0  0  0  0  0  0  0
    8.1632  -10.2999    0.0000 C   0  0  0  0  0  0  0  0  0  0  0  0
    7.6782   -9.6325    0.0000 C   0  0  0  0  0  0  0  0  0  0  0  0
    6.8541   -9.6695    0.0000 C   0  0  1  0  0  0  0  0  0  0  0  0
    6.3113   -9.0482    0.0000 C   0  0  0  0  0  0  0  0  0  0  0  0
    6.4586   -8.2365    0.0000 C   0  0  0  0  0  0  0  0  0  0  0  0
    7.1851   -7.8455    0.0000 C   0  0  0  0  0  0  0  0  0  0  0  0
    8.5650   -7.6270    0.0000 O   0  0  0  0  0  0  0  0  0  0  0  0
    7.0247  -11.0882    0.0000 C   0  0  0  0  0  0  0  0  0  0  0  0
    6.5298  -10.4281    0.0000 C   0  0  0  0  0  0  0  0  0  0  0  0
    5.7107  -10.5266    0.0000 C   0  0  0  0  0  0  0  0  0  0  0  0
    7.1851   -7.0205    0.0000 C   0  0  0  0  0  0  0  0  0  0  0  0
    9.6152  -10.5299    0.0000 C   0  0  0  0  0  0  0  0  0  0  0  0
  1  2  1  0  0  0  0
  2  3  1  0  0  0  0
  3  4  1  0  0  0  0
  4  5  1  0  0  0  0
  5  6  2  0  0  0  0
  6  7  1  0  0  0  0
  7  8  1  0  0  0  0
  8  9  1  0  0  0  0
  9 10  1  0  0  0  0
  1 10  1  0  0  0  0
  1 11  1  1  0  0  0
 12 13  1  0  0  0  0
 13 14  1  0  0  0  0
  7 13  1  6  0  0  0
 10 15  2  0  0  0  0
  4 16  2  0  0  0  0
M  END
>  <cdx:fragmentId>
94832

$$$$
