305.cdx
  Mrv1902 05222410182D          

 10 11  0  0  0  0            999 V2000
    5.8858   -8.8300    0.0000 N   0  0  0  0  0  0  0  0  0  0  0  0
    5.8858   -9.6550    0.0000 C   0  0  0  0  0  0  0  0  0  0  0  0
    6.6002  -10.0675    0.0000 N   0  0  0  0  0  0  0  0  0  0  0  0
    7.3147   -9.6550    0.0000 C   0  0  0  0  0  0  0  0  0  0  0  0
    7.3147   -8.8300    0.0000 C   0  0  0  0  0  0  0  0  0  0  0  0
    6.6002   -8.4175    0.0000 C   0  0  0  0  0  0  0  0  0  0  0  0
    8.0993   -9.9099    0.0000 N   0  0  0  0  0  0  0  0  0  0  0  0
    8.5842   -9.2425    0.0000 C   0  0  0  0  0  0  0  0  0  0  0  0
    8.0993   -8.5750    0.0000 N   0  0  0  0  0  0  0  0  0  0  0  0
    6.6002   -7.5925    0.0000 N   0  0  0  0  0  0  0  0  0  0  0  0
  1  2  2  0  0  0  0
  2  3  1  0  0  0  0
  3  4  2  0  0  0  0
  4  5  1  0  0  0  0
  5  6  2  0  0  0  0
  6  1  1  0  0  0  0
  4  7  1  0  0  0  0
  7  8  2  0  0  0  0
  8  9  1  0  0  0  0
  9  5  1  0  0  0  0
  6 10  1  0  0  0  0
M  END
>  <cdx:fragmentId>
5

$$$$
