3051.cdx
  Mrv1902 05222410182D          

 18 19  0  0  0  0            999 V2000
    7.2037   -6.4969    0.0000 C   0  0  1  0  0  0  0  0  0  0  0  0
    7.2037   -7.3219    0.0000 C   0  0  2  0  0  0  0  0  0  0  0  0
    7.8487   -7.8363    0.0000 C   0  0  0  0  0  0  0  0  0  0  0  0
    8.6530   -7.6527    0.0000 C   0  0  0  0  0  0  0  0  0  0  0  0
    9.0110   -6.9094    0.0000 C   0  0  0  0  0  0  0  0  0  0  0  0
    8.6530   -6.1661    0.0000 C   0  0  0  0  0  0  0  0  0  0  0  0
    7.8487   -5.9825    0.0000 C   0  0  0  0  0  0  0  0  0  0  0  0
    6.4191   -6.2419    0.0000 C   0  0  0  0  0  0  0  0  0  0  0  0
    5.9341   -6.9094    0.0000 C   0  0  0  0  0  0  0  0  0  0  0  0
    6.4191   -7.5768    0.0000 C   0  0  1  0  0  0  0  0  0  0  0  0
    7.6352   -5.1856    0.0000 C   0  0  0  0  0  0  0  0  0  0  0  0
    9.8360   -6.9094    0.0000 O   0  0  0  0  0  0  0  0  0  0  0  0
    9.2364   -8.2360    0.0000 C   0  0  0  0  0  0  0  0  0  0  0  0
   10.0333   -8.0225    0.0000 C   0  0  0  0  0  0  0  0  0  0  0  0
    9.0228   -9.0329    0.0000 C   0  0  0  0  0  0  0  0  0  0  0  0
    7.2037   -5.6719    0.0000 O   0  0  0  0  0  0  0  0  0  0  0  0
    7.2037   -8.1469    0.0000 H   0  0  0  0  0  0  0  0  0  0  0  0
    6.2055   -8.3737    0.0000 C   0  0  0  0  0  0  0  0  0  0  0  0
  1  2  1  0  0  0  0
  2  3  1  0  0  0  0
  3  4  1  0  0  0  0
  4  5  1  0  0  0  0
  5  6  1  0  0  0  0
  6  7  2  0  0  0  0
  7  1  1  0  0  0  0
  1  8  1  0  0  0  0
  8  9  1  0  0  0  0
  9 10  1  0  0  0  0
 10  2  1  0  0  0  0
  7 11  1  0  0  0  0
  5 12  2  0  0  0  0
  4 13  2  0  0  0  0
 13 14  1  0  0  0  0
 13 15  1  0  0  0  0
  1 16  1  1  0  0  0
  2 17  1  1  0  0  0
 10 18  1  6  0  0  0
M  END
>  <cdx:fragmentId>
5

$$$$
