12305301.cdx
  Mrv1902 05222410232D          

 16 17  0  0  0  0            999 V2000
    8.9987   -7.5338    0.0000 O   0  0  0  0  0  0  0  0  0  0  0  0
    9.4837   -6.8663    0.0000 C   0  0  0  0  0  0  0  0  0  0  0  0
    8.9987   -6.1989    0.0000 C   0  0  0  0  0  0  0  0  0  0  0  0
    8.2141   -6.4538    0.0000 C   0  0  0  0  0  0  0  0  0  0  0  0
    7.4996   -6.0413    0.0000 C   0  0  0  0  0  0  0  0  0  0  0  0
    6.7852   -6.4538    0.0000 C   0  0  1  0  0  0  0  0  0  0  0  0
    6.7852   -7.2788    0.0000 C   0  0  1  0  0  0  0  0  0  0  0  0
    7.4996   -7.6913    0.0000 C   0  0  0  0  0  0  0  0  0  0  0  0
    8.2141   -7.2788    0.0000 C   0  0  0  0  0  0  0  0  0  0  0  0
    6.0707   -5.2163    0.0000 C   0  0  0  0  0  0  0  0  0  0  0  0
    6.0707   -6.0413    0.0000 C   0  0  0  0  0  0  0  0  0  0  0  0
    5.3562   -6.4538    0.0000 C   0  0  0  0  0  0  0  0  0  0  0  0
    6.3727   -7.9933    0.0000 C   0  0  0  0  0  0  0  0  0  0  0  0
    9.2537   -5.4143    0.0000 C   0  0  0  0  0  0  0  0  0  0  0  0
    5.9602   -7.2788    0.0000 C   0  0  0  0  0  0  0  0  0  0  0  0
    5.5477   -7.9933    0.0000 C   0  0  0  0  0  0  0  0  0  0  0  0
  1  2  1  0  0  0  0
  2  3  2  0  0  0  0
  3  4  1  0  0  0  0
  4  5  1  0  0  0  0
  5  6  1  0  0  0  0
  6  7  1  0  0  0  0
  7  8  1  0  0  0  0
  8  9  1  0  0  0  0
  4  9  2  0  0  0  0
  1  9  1  0  0  0  0
 10 11  2  0  0  0  0
 11 12  1  0  0  0  0
  6 11  1  1  0  0  0
  7 13  1  1  0  0  0
  3 14  1  0  0  0  0
 15 16  2  0  0  0  0
  7 15  1  6  0  0  0
M  END
>  <cdx:groupId>
51

>  <cdx:fragmentId>
5

$$$$
