3054.cdx
  Mrv1902 05222410202D          

 24 26  0  0  0  0            999 V2000
    4.5820   -7.2394    0.0000 C   0  0  0  0  0  0  0  0  0  0  0  0
    4.5820   -8.0644    0.0000 C   0  0  0  0  0  0  0  0  0  0  0  0
    5.2965   -8.4769    0.0000 C   0  0  0  0  0  0  0  0  0  0  0  0
    6.0110   -8.0644    0.0000 C   0  0  0  0  0  0  0  0  0  0  0  0
    6.0110   -7.2394    0.0000 C   0  0  0  0  0  0  0  0  0  0  0  0
    5.2965   -6.8269    0.0000 C   0  0  0  0  0  0  0  0  0  0  0  0
    6.7254   -8.4769    0.0000 O   0  0  0  0  0  0  0  0  0  0  0  0
    7.4399   -8.0644    0.0000 C   0  0  0  0  0  0  0  0  0  0  0  0
    7.4399   -7.2394    0.0000 C   0  0  0  0  0  0  0  0  0  0  0  0
    6.7254   -6.8269    0.0000 C   0  0  0  0  0  0  0  0  0  0  0  0
    8.1544   -8.4769    0.0000 C   0  0  0  0  0  0  0  0  0  0  0  0
    8.8689   -8.0644    0.0000 C   0  0  0  0  0  0  0  0  0  0  0  0
    8.8689   -7.2394    0.0000 C   0  0  0  0  0  0  0  0  0  0  0  0
    8.1544   -6.8269    0.0000 C   0  0  0  0  0  0  0  0  0  0  0  0
    6.7254   -6.0019    0.0000 O   0  0  0  0  0  0  0  0  0  0  0  0
    5.2965   -6.0019    0.0000 O   0  0  0  0  0  0  0  0  0  0  0  0
    3.8676   -6.8269    0.0000 O   0  0  0  0  0  0  0  0  0  0  0  0
    3.1531   -6.4144    0.0000 C   0  0  0  0  0  0  0  0  0  0  0  0
    3.8676   -8.4769    0.0000 O   0  0  0  0  0  0  0  0  0  0  0  0
    5.2965   -9.3019    0.0000 O   0  0  0  0  0  0  0  0  0  0  0  0
    9.5833   -8.4769    0.0000 O   0  0  0  0  0  0  0  0  0  0  0  0
    3.1531   -8.8894    0.0000 C   0  0  0  0  0  0  0  0  0  0  0  0
    5.2965  -10.1269    0.0000 C   0  0  0  0  0  0  0  0  0  0  0  0
   10.2978   -8.8894    0.0000 C   0  0  0  0  0  0  0  0  0  0  0  0
  1  2  2  0  0  0  0
  2  3  1  0  0  0  0
  3  4  2  0  0  0  0
  4  5  1  0  0  0  0
  5  6  2  0  0  0  0
  6  1  1  0  0  0  0
  4  7  1  0  0  0  0
  7  8  1  0  0  0  0
  8  9  1  0  0  0  0
  9 10  1  0  0  0  0
 10  5  1  0  0  0  0
  8 11  2  0  0  0  0
 11 12  1  0  0  0  0
 12 13  2  0  0  0  0
 13 14  1  0  0  0  0
 14  9  2  0  0  0  0
 10 15  2  0  0  0  0
  6 16  1  0  0  0  0
  1 17  1  0  0  0  0
  2 19  1  0  0  0  0
  3 20  1  0  0  0  0
 12 21  1  0  0  0  0
 17 18  1  0  0  0  0
 19 22  1  0  0  0  0
 20 23  1  0  0  0  0
 21 24  1  0  0  0  0
M  STY  4   1 SUP   2 SUP   3 SUP   4 SUP
M  SAL   1  2  17  18
M  SBL   1  1  19
M  SMT   1 OCH3
M  SAP   1  1  17   1  1
M  SAL   2  2  19  22
M  SBL   2  1  20
M  SMT   2 OCH3
M  SAP   2  1  19   2  1
M  SAL   3  2  20  23
M  SBL   3  1  21
M  SMT   3 OCH3
M  SAP   3  1  20   3  1
M  SAL   4  2  21  24
M  SBL   4  1  22
M  SMT   4 OCH3
M  SAP   4  1  21  12  1
M  END
>  <cdx:fragmentId>
5

$$$$
