12305706.cdx
  Mrv1902 05222410242D          

 16 16  0  0  0  0            999 V2000
    7.3317  -14.5244    0.0000 C   0  0  0  0  0  0  0  0  0  0  0  0
    7.8745  -15.1456    0.0000 C   0  0  1  0  0  0  0  0  0  0  0  0
    7.7271  -15.9574    0.0000 C   0  0  0  0  0  0  0  0  0  0  0  0
    7.0007  -16.3483    0.0000 C   0  0  0  0  0  0  0  0  0  0  0  0
    6.2420  -16.0241    0.0000 C   0  0  0  0  0  0  0  0  0  0  0  0
    6.0226  -15.2288    0.0000 C   0  0  0  0  0  0  0  0  0  0  0  0
    5.2379  -14.9739    0.0000 C   0  0  0  0  0  0  0  0  0  0  0  0
    5.2379  -14.1489    0.0000 C   0  0  0  0  0  0  0  0  0  0  0  0
    6.0226  -13.8939    0.0000 C   0  0  0  0  0  0  0  0  0  0  0  0
    6.5075  -14.5614    0.0000 C   0  0  0  0  0  0  0  0  0  0  0  0
    7.6559  -13.7657    0.0000 O   0  0  0  0  0  0  0  0  0  0  0  0
    8.8832  -14.1293    0.0000 C   0  0  0  0  0  0  0  0  0  0  0  0
    8.6697  -14.9262    0.0000 C   0  0  0  0  0  0  0  0  0  0  0  0
    9.2531  -15.5095    0.0000 C   0  0  0  0  0  0  0  0  0  0  0  0
    6.2775  -13.1093    0.0000 C   0  0  0  0  0  0  0  0  0  0  0  0
    5.6208  -16.5669    0.0000 C   0  0  0  0  0  0  0  0  0  0  0  0
  1  2  1  0  0  0  0
  2  3  1  0  0  0  0
  3  4  1  0  0  0  0
  4  5  1  0  0  0  0
  5  6  2  0  0  0  0
  6  7  1  0  0  0  0
  7  8  1  0  0  0  0
  8  9  1  0  0  0  0
  9 10  1  0  0  0  0
  1 10  1  0  0  0  0
  1 11  2  0  0  0  0
 12 13  1  0  0  0  0
 13 14  1  0  0  0  0
  2 13  1  6  0  0  0
  9 15  2  0  0  0  0
  5 16  1  0  0  0  0
M  END
>  <cdx:groupId>
88620

>  <cdx:fragmentId>
88575

$$$$
