3058.cdx
  Mrv1902 05222410262D          

 21 22  0  0  0  0            999 V2000
    7.0983   -7.1362    0.0000 C   0  0  0  0  0  0  0  0  0  0  0  0
    7.0983   -7.9612    0.0000 C   0  0  0  0  0  0  0  0  0  0  0  0
    7.8127   -8.3737    0.0000 C   0  0  0  0  0  0  0  0  0  0  0  0
    8.5272   -7.9612    0.0000 C   0  0  0  0  0  0  0  0  0  0  0  0
    8.5272   -7.1362    0.0000 C   0  0  0  0  0  0  0  0  0  0  0  0
    7.8127   -6.7237    0.0000 C   0  0  0  0  0  0  0  0  0  0  0  0
    9.2417   -6.7237    0.0000 C   0  0  0  0  0  0  0  0  0  0  0  0
    7.8127   -9.1987    0.0000 O   0  0  0  0  0  0  0  0  0  0  0  0
    6.3838   -8.3737    0.0000 O   0  0  0  0  0  0  0  0  0  0  0  0
    4.9562   -6.7110    0.0000 C   0  0  2  0  0  0  0  0  0  0  0  0
    4.2403   -7.1210    0.0000 C   0  0  2  0  0  0  0  0  0  0  0  0
    4.2374   -7.9460    0.0000 C   0  0  1  0  0  0  0  0  0  0  0  0
    4.9504   -8.3610    0.0000 C   0  0  2  0  0  0  0  0  0  0  0  0
    5.6663   -7.9510    0.0000 C   0  0  1  0  0  0  0  0  0  0  0  0
    5.6692   -7.1260    0.0000 O   0  0  0  0  0  0  0  0  0  0  0  0
    4.9591   -5.8860    0.0000 C   0  0  0  0  0  0  0  0  0  0  0  0
    3.5215   -8.3560    0.0000 O   0  0  0  0  0  0  0  0  0  0  0  0
    4.2460   -5.4710    0.0000 O   0  0  0  0  0  0  0  0  0  0  0  0
    4.9475   -9.1859    0.0000 O   0  0  0  0  0  0  0  0  0  0  0  0
    3.5272   -6.7060    0.0000 O   0  0  0  0  0  0  0  0  0  0  0  0
    9.9562   -7.1362    0.0000 O   0  0  0  0  0  0  0  0  0  0  0  0
  1  2  2  0  0  0  0
  2  3  1  0  0  0  0
  3  4  2  0  0  0  0
  4  5  1  0  0  0  0
  5  6  2  0  0  0  0
  6  1  1  0  0  0  0
  5  7  1  0  0  0  0
  3  8  1  0  0  0  0
  2  9  1  0  0  0  0
 10 11  1  0  0  0  0
 11 12  1  0  0  0  0
 12 13  1  0  0  0  0
 13 14  1  0  0  0  0
 14 15  1  0  0  0  0
 15 10  1  0  0  0  0
 10 16  1  1  0  0  0
 12 17  1  1  0  0  0
 16 18  1  0  0  0  0
 13 19  1  6  0  0  0
 11 20  1  6  0  0  0
 14  9  1  1  0  0  0
  7 21  1  0  0  0  0
M  END
>  <cdx:fragmentId>
32

$$$$
