306.cdx
  Mrv1902 05222410182D          

 18 20  0  0  0  0            999 V2000
    5.9913   -6.7682    0.0000 N   0  0  0  0  0  0  0  0  0  0  0  0
    6.7747   -6.5096    0.0000 C   0  0  0  0  0  0  0  0  0  0  0  0
    6.7708   -5.6846    0.0000 C   0  0  0  0  0  0  0  0  0  0  0  0
    5.9849   -5.4334    0.0000 N   0  0  0  0  0  0  0  0  0  0  0  0
    5.5032   -6.1031    0.0000 C   0  0  0  0  0  0  0  0  0  0  0  0
    7.4911   -6.9187    0.0000 N   0  0  0  0  0  0  0  0  0  0  0  0
    8.2036   -6.5096    0.0000 C   0  0  0  0  0  0  0  0  0  0  0  0
    8.2036   -5.6846    0.0000 N   0  0  0  0  0  0  0  0  0  0  0  0
    7.4911   -5.2755    0.0000 C   0  0  0  0  0  0  0  0  0  0  0  0
    7.4911   -4.4505    0.0000 N   0  0  0  0  0  0  0  0  0  0  0  0
    5.7401   -7.5541    0.0000 C   0  0  2  0  0  0  0  0  0  0  0  0
    4.9573   -7.8146    0.0000 O   0  0  0  0  0  0  0  0  0  0  0  0
    4.9573   -8.6396    0.0000 C   0  0  1  0  0  0  0  0  0  0  0  0
    5.7401   -8.8889    0.0000 C   0  0  2  0  0  0  0  0  0  0  0  0
    6.2202   -8.2180    0.0000 C   0  0  0  0  0  0  0  0  0  0  0  0
    4.2913   -9.1264    0.0000 C   0  0  0  0  0  0  0  0  0  0  0  0
    6.0001   -9.6719    0.0000 O   0  0  0  0  0  0  0  0  0  0  0  0
    4.3799   -9.9467    0.0000 O   0  0  0  0  0  0  0  0  0  0  0  0
  1  2  1  0  0  0  0
  2  3  2  0  0  0  0
  3  4  1  0  0  0  0
  4  5  2  0  0  0  0
  5  1  1  0  0  0  0
  2  6  1  0  0  0  0
  6  7  2  0  0  0  0
  7  8  1  0  0  0  0
  8  9  2  0  0  0  0
  9  3  1  0  0  0  0
  9 10  1  0  0  0  0
 11  1  1  1  0  0  0
 11 12  1  0  0  0  0
 12 13  1  0  0  0  0
 13 14  1  0  0  0  0
 14 15  1  0  0  0  0
 15 11  1  0  0  0  0
 13 16  1  1  0  0  0
 14 17  1  6  0  0  0
 16 18  1  0  0  0  0
M  END
>  <cdx:fragmentId>
410

$$$$
