306074.cdx
  Mrv1902 05222410202D          

 46 49  0  0  0  0            999 V2000
    9.3219   -8.1288    0.0000 C   0  0  0  0  0  0  0  0  0  0  0  0
    9.5768   -7.3441    0.0000 C   0  0  0  0  0  0  0  0  0  0  0  0
    9.0248   -6.7310    0.0000 C   0  0  0  0  0  0  0  0  0  0  0  0
    8.5250   -8.3423    0.0000 O   0  0  0  0  0  0  0  0  0  0  0  0
    9.8739   -8.7419    0.0000 N   0  0  0  0  0  0  0  0  0  0  0  0
    9.2797   -5.9464    0.0000 C   0  0  0  0  0  0  0  0  0  0  0  0
    8.7277   -5.3333    0.0000 C   0  0  0  0  0  0  0  0  0  0  0  0
    8.9826   -4.5487    0.0000 C   0  0  0  0  0  0  0  0  0  0  0  0
    9.7896   -4.3772    0.0000 C   0  0  0  0  0  0  0  0  0  0  0  0
   10.3417   -4.9903    0.0000 C   0  0  0  0  0  0  0  0  0  0  0  0
   10.0867   -5.7749    0.0000 C   0  0  0  0  0  0  0  0  0  0  0  0
   10.3838   -7.1726    0.0000 N   0  0  0  0  0  0  0  0  0  0  0  0
   10.9358   -7.7857    0.0000 C   0  0  0  0  0  0  0  0  0  0  0  0
   10.6387   -6.3880    0.0000 C   0  0  0  0  0  0  0  0  0  0  0  0
    8.8120   -9.6980    0.0000 C   0  0  0  0  0  0  0  0  0  0  0  0
    9.6190   -9.5265    0.0000 C   0  0  0  0  0  0  0  0  0  0  0  0
   10.1710  -10.1396    0.0000 C   0  0  0  0  0  0  0  0  0  0  0  0
    9.8754  -10.9098    0.0000 C   0  0  0  0  0  0  0  0  0  0  0  0
   10.3946  -11.5509    0.0000 C   0  0  0  0  0  0  0  0  0  0  0  0
    8.2600   -9.0849    0.0000 O   0  0  0  0  0  0  0  0  0  0  0  0
   10.9780   -9.9680    0.0000 C   0  0  0  0  0  0  0  0  0  0  0  0
    6.7695  -12.8202    0.0000 C   0  0  0  0  0  0  0  0  0  0  0  0
    7.4145  -12.3059    0.0000 O   0  0  0  0  0  0  0  0  0  0  0  0
    7.7725  -11.5626    0.0000 C   0  0  0  0  0  0  0  0  0  0  0  0
    8.5571  -11.8175    0.0000 C   0  0  0  0  0  0  0  0  0  0  0  0
    9.0420  -11.1501    0.0000 C   0  0  0  0  0  0  0  0  0  0  0  0
    8.5571  -10.4826    0.0000 N   0  0  0  0  0  0  0  0  0  0  0  0
    7.7725  -10.7376    0.0000 C   0  0  0  0  0  0  0  0  0  0  0  0
    7.4145   -9.9943    0.0000 C   0  0  0  0  0  0  0  0  0  0  0  0
    6.7695   -9.4799    0.0000 N   0  0  0  0  0  0  0  0  0  0  0  0
    5.9652   -9.2963    0.0000 C   0  0  0  0  0  0  0  0  0  0  0  0
    5.1609   -9.4799    0.0000 C   0  0  0  0  0  0  0  0  0  0  0  0
    4.5158   -9.9943    0.0000 N   0  0  0  0  0  0  0  0  0  0  0  0
    4.1579  -10.7376    0.0000 C   0  0  0  0  0  0  0  0  0  0  0  0
    4.1579  -11.5626    0.0000 C   0  0  0  0  0  0  0  0  0  0  0  0
    4.5158  -12.3059    0.0000 C   0  0  0  0  0  0  0  0  0  0  0  0
    5.1609  -12.8202    0.0000 C   0  0  0  0  0  0  0  0  0  0  0  0
    5.9652  -13.0038    0.0000 C   0  0  0  0  0  0  0  0  0  0  0  0
    6.1260  -12.3040    0.0000 C   0  0  0  0  0  0  0  0  0  0  0  0
    5.3216  -12.1204    0.0000 C   0  0  0  0  0  0  0  0  0  0  0  0
    4.7484   -8.7654    0.0000 O   0  0  0  0  0  0  0  0  0  0  0  0
    8.0595   -9.4799    0.0000 O   0  0  0  0  0  0  0  0  0  0  0  0
    6.6796   -8.0588    0.0000 C   0  0  0  0  0  0  0  0  0  0  0  0
    5.9652   -8.4713    0.0000 C   0  0  0  0  0  0  0  0  0  0  0  0
    5.2507   -8.0588    0.0000 C   0  0  0  0  0  0  0  0  0  0  0  0
    5.2507   -7.2338    0.0000 C   0  0  0  0  0  0  0  0  0  0  0  0
  1  2  1  0  0  0  0
  2  3  1  0  0  0  0
  1  4  2  0  0  0  0
  1  5  1  0  0  0  0
  6  7  1  0  0  0  0
  7  8  2  0  0  0  0
  8  9  1  0  0  0  0
  9 10  2  0  0  0  0
 10 11  1  0  0  0  0
  6 11  2  0  0  0  0
  3  6  1  0  0  0  0
 12 13  1  0  0  0  0
 12 14  1  0  0  0  0
  2 12  1  0  0  0  0
 15 16  1  0  0  0  0
 16 17  1  0  0  0  0
 17 18  1  0  0  0  0
 18 19  1  0  0  0  0
 15 20  2  0  0  0  0
 17 21  1  0  0  0  0
 22 23  1  0  0  0  0
 23 24  1  0  0  0  0
 24 25  1  0  0  0  0
 25 26  1  0  0  0  0
 26 27  1  0  0  0  0
 27 28  1  0  0  0  0
 28 29  1  0  0  0  0
 29 30  1  0  0  0  0
 30 31  1  0  0  0  0
 31 32  1  0  0  0  0
 32 33  1  0  0  0  0
 33 34  1  0  0  0  0
 34 35  2  0  0  0  0
 35 36  1  0  0  0  0
 36 37  2  0  0  0  0
 37 38  1  0  0  0  0
 39 40  2  0  0  0  0
 22 38  2  0  0  0  0
 22 39  1  0  0  0  0
 40 36  1  0  0  0  0
 24 28  1  0  0  0  0
 32 41  2  0  0  0  0
 29 42  2  0  0  0  0
 43 44  1  0  0  0  0
 44 45  1  0  0  0  0
 45 46  1  0  0  0  0
 31 44  1  0  0  0  0
 15 27  1  0  0  0  0
  5 16  1  0  0  0  0
M  END
>  <cdx:fragmentId>
29255

$$$$
