3063.cdx
  Mrv1902 05222410272D          

 39 43  0  0  0  0            999 V2000
    5.8306   -9.3699    0.0000 O   0  0  0  0  0  0  0  0  0  0  0  0
    6.5438   -9.7846    0.0000 C   0  0  2  0  0  0  0  0  0  0  0  0
    6.5412  -10.6096    0.0000 C   0  0  1  0  0  0  0  0  0  0  0  0
    5.8254  -11.0199    0.0000 C   0  0  2  0  0  0  0  0  0  0  0  0
    5.1123  -10.6051    0.0000 C   0  0  1  0  0  0  0  0  0  0  0  0
    5.1149   -9.7801    0.0000 C   0  0  1  0  0  0  0  0  0  0  0  0
    7.2544  -11.0244    0.0000 O   0  0  0  0  0  0  0  0  0  0  0  0
    5.8228  -11.8449    0.0000 O   0  0  0  0  0  0  0  0  0  0  0  0
    4.3965  -11.0154    0.0000 O   0  0  0  0  0  0  0  0  0  0  0  0
    4.4017   -9.3654    0.0000 C   0  0  0  0  0  0  0  0  0  0  0  0
    3.6859   -9.7756    0.0000 O   0  0  0  0  0  0  0  0  0  0  0  0
    7.2596   -9.3744    0.0000 O   0  0  0  0  0  0  0  0  0  0  0  0
    7.2719   -6.8994    0.0000 H   0  0  0  0  0  0  0  0  0  0  0  0
    9.0511  -11.9518    0.0000 O   0  0  0  0  0  0  0  0  0  0  0  0
   10.7475  -10.1507    0.0000 C   0  0  0  0  0  0  0  0  0  0  0  0
   10.1613  -10.7312    0.0000 O   0  0  0  0  0  0  0  0  0  0  0  0
    7.7430  -10.2045    0.0000 C   0  0  0  0  0  0  0  0  0  0  0  0
    7.9940  -10.9904    0.0000 C   0  0  0  0  0  0  0  0  0  0  0  0
    8.8001  -11.1659    0.0000 C   0  0  0  0  0  0  0  0  0  0  0  0
    9.3552  -10.5556    0.0000 C   0  0  0  0  0  0  0  0  0  0  0  0
    9.1042   -9.7697    0.0000 C   0  0  0  0  0  0  0  0  0  0  0  0
    8.2980   -9.5942    0.0000 C   0  0  0  0  0  0  0  0  0  0  0  0
    5.4804   -4.3220    0.0000 O   0  0  0  0  0  0  0  0  0  0  0  0
    3.8152   -6.1530    0.0000 C   0  0  0  0  0  0  0  0  0  0  0  0
    4.3703   -5.5427    0.0000 O   0  0  0  0  0  0  0  0  0  0  0  0
    6.7886   -6.0693    0.0000 C   0  0  0  0  0  0  0  0  0  0  0  0
    6.5375   -5.2835    0.0000 C   0  0  0  0  0  0  0  0  0  0  0  0
    5.7314   -5.1079    0.0000 C   0  0  0  0  0  0  0  0  0  0  0  0
    5.1764   -5.7182    0.0000 C   0  0  0  0  0  0  0  0  0  0  0  0
    5.4274   -6.5041    0.0000 C   0  0  0  0  0  0  0  0  0  0  0  0
    6.2335   -6.6797    0.0000 C   0  0  0  0  0  0  0  0  0  0  0  0
    6.4778   -8.8004    0.0000 C   0  0  0  0  0  0  0  0  0  0  0  0
    6.4845   -7.4656    0.0000 C   0  0  1  0  0  0  0  0  0  0  0  0
    5.9962   -8.1306    0.0000 O   0  0  0  0  0  0  0  0  0  0  0  0
    8.0470   -8.8083    0.0000 C   0  0  2  0  0  0  0  0  0  0  0  0
    7.2637   -8.5494    0.0000 C   0  0  1  0  0  0  0  0  0  0  0  0
    7.2678   -7.7244    0.0000 C   0  0  2  0  0  0  0  0  0  0  0  0
    8.0537   -7.4734    0.0000 C   0  0  0  0  0  0  0  0  0  0  0  0
    8.5353   -8.1433    0.0000 O   0  0  0  0  0  0  0  0  0  0  0  0
 37 13  1  6  0  0  0
 36 12  1  6  0  0  0
 35 22  1  6  0  0  0
 19 14  1  0  0  0  0
 20 16  1  0  0  0  0
 16 15  1  0  0  0  0
 22 17  2  0  0  0  0
 18 17  1  0  0  0  0
 19 18  2  0  0  0  0
 20 19  1  0  0  0  0
 21 20  2  0  0  0  0
 22 21  1  0  0  0  0
 33 31  1  6  0  0  0
 28 23  1  0  0  0  0
 29 25  1  0  0  0  0
 25 24  1  0  0  0  0
 31 26  2  0  0  0  0
 27 26  1  0  0  0  0
 28 27  2  0  0  0  0
 29 28  1  0  0  0  0
 30 29  2  0  0  0  0
 31 30  1  0  0  0  0
 32 36  1  0  0  0  0
 33 37  1  0  0  0  0
 34 32  1  0  0  0  0
 34 33  1  0  0  0  0
 39 35  1  0  0  0  0
 36 35  1  0  0  0  0
 37 36  1  0  0  0  0
 38 37  1  0  0  0  0
 39 38  1  0  0  0  0
  1  2  1  0  0  0  0
  2  3  1  0  0  0  0
  3  4  1  0  0  0  0
  4  5  1  0  0  0  0
  5  6  1  0  0  0  0
  1  6  1  0  0  0  0
  3  7  1  6  0  0  0
  4  8  1  1  0  0  0
  5  9  1  6  0  0  0
 10 11  1  0  0  0  0
  6 10  1  1  0  0  0
  2 12  1  1  0  0  0
M  END
>  <cdx:fragmentId>
45

$$$$
