306698.cdx
  Mrv1902 05222410202D          

 57 63  0  0  0  0            999 V2000
    5.8952  -12.9324    0.0000 H   0  0  0  0  0  0  0  0  0  0  0  0
    8.0161  -11.6757    0.0000 H   0  0  0  0  0  0  0  0  0  0  0  0
    9.6805   -9.4301    0.0000 H   0  0  0  0  0  0  0  0  0  0  0  0
    9.8106   -8.0071    0.0000 H   0  0  0  0  0  0  0  0  0  0  0  0
    7.2404   -9.0663    0.0000 H   0  0  0  0  0  0  0  0  0  0  0  0
    6.9781   -9.3705    0.0000 H   0  0  0  0  0  0  0  0  0  0  0  0
    7.3352  -13.7379    0.0000 C   0  0  0  0  0  0  0  0  0  0  0  0
    8.7640  -13.7186    0.0000 O   0  0  0  0  0  0  0  0  0  0  0  0
    8.0440  -13.3158    0.0000 C   0  0  0  0  0  0  0  0  0  0  0  0
    8.0328  -12.4909    0.0000 O   0  0  0  0  0  0  0  0  0  0  0  0
   10.0087   -9.1569    0.0000 O   0  0  0  0  0  0  0  0  0  0  0  0
   10.0262  -10.1792    0.0000 O   0  0  0  0  0  0  0  0  0  0  0  0
    8.3197  -11.4173    0.0000 O   0  0  0  0  0  0  0  0  0  0  0  0
    5.1864  -13.3545    0.0000 O   0  0  0  0  0  0  0  0  0  0  0  0
    7.9518   -5.6848    0.0000 C   0  0  0  0  0  0  0  0  0  0  0  0
   10.0838   -8.3353    0.0000 C   0  0  0  0  0  0  0  0  0  0  0  0
    5.8728  -10.4575    0.0000 C   0  0  0  0  0  0  0  0  0  0  0  0
    2.3288  -13.3932    0.0000 C   0  0  0  0  0  0  0  0  0  0  0  0
    4.4776  -13.7767    0.0000 O   0  0  0  0  0  0  0  0  0  0  0  0
    3.7799  -15.0237    0.0000 C   0  0  0  0  0  0  0  0  0  0  0  0
    3.0599  -14.6209    0.0000 C   0  0  0  0  0  0  0  0  0  0  0  0
    3.0488  -13.7960    0.0000 C   0  0  0  0  0  0  0  0  0  0  0  0
    3.7576  -13.3739    0.0000 C   0  0  0  0  0  0  0  0  0  0  0  0
    3.7464  -12.5489    0.0000 O   0  0  0  0  0  0  0  0  0  0  0  0
    6.7422  -10.0512    0.0000 C   0  0  0  0  0  0  0  0  0  0  0  0
    6.5817  -10.8604    0.0000 C   0  0  2  0  0  0  0  0  0  0  0  0
    5.3633  -11.2604    0.0000 O   0  0  0  0  0  0  0  0  0  0  0  0
    5.1752  -12.5296    0.0000 C   0  0  1  0  0  0  0  0  0  0  0  0
    4.4552  -12.1268    0.0000 C   0  0  2  0  0  0  0  0  0  0  0  0
    4.4440  -11.3019    0.0000 C   0  0  0  0  0  0  0  0  0  0  0  0
    5.1529  -10.8797    0.0000 C   0  0  0  0  0  0  0  0  0  0  0  0
    5.8728  -11.2825    0.0000 C   0  0  2  0  0  0  0  0  0  0  0  0
    5.8840  -12.1074    0.0000 C   0  0  2  0  0  0  0  0  0  0  0  0
    6.6040  -12.5102    0.0000 C   0  0  0  0  0  0  0  0  0  0  0  0
    7.3128  -12.0881    0.0000 C   0  0  2  0  0  0  0  0  0  0  0  0
    7.3017  -11.2632    0.0000 C   0  0  1  0  0  0  0  0  0  0  0  0
    7.9072  -10.7029    0.0000 C   0  0  1  0  0  0  0  0  0  0  0  0
    8.7288  -10.7780    0.0000 C   0  0  2  0  0  0  0  0  0  0  0  0
    9.2046  -10.1040    0.0000 C   0  0  1  0  0  0  0  0  0  0  0  0
    8.8589   -9.3550    0.0000 C   0  0  2  0  0  0  0  0  0  0  0  0
    9.3347   -8.6810    0.0000 C   0  0  1  0  0  0  0  0  0  0  0  0
    8.9890   -7.9320    0.0000 C   0  0  2  0  0  0  0  0  0  0  0  0
    9.4648   -7.2580    0.0000 C   0  0  0  0  0  0  0  0  0  0  0  0
    9.1191   -6.5090    0.0000 C   0  0  0  0  0  0  0  0  0  0  0  0
    8.2975   -6.4339    0.0000 C   0  0  1  0  0  0  0  0  0  0  0  0
    7.8217   -7.1078    0.0000 C   0  0  0  0  0  0  0  0  0  0  0  0
    8.1674   -7.8569    0.0000 N   0  0  0  0  0  0  0  0  0  0  0  0
    7.6916   -8.5308    0.0000 C   0  0  0  0  0  0  0  0  0  0  0  0
    8.0373   -9.2799    0.0000 C   0  0  1  0  0  0  0  0  0  0  0  0
    7.5615   -9.9538    0.0000 C   0  0  2  0  0  0  0  0  0  0  0  0
    9.7660  -13.0252    0.0000 C   0  0  0  0  0  0  0  0  0  0  0  0
    9.0745  -11.5271    0.0000 O   0  0  0  0  0  0  0  0  0  0  0  0
   10.3719  -10.9282    0.0000 O   0  0  0  0  0  0  0  0  0  0  0  0
   11.4091  -13.1754    0.0000 C   0  0  0  0  0  0  0  0  0  0  0  0
   11.0634  -12.4263    0.0000 C   0  0  0  0  0  0  0  0  0  0  0  0
   10.2418  -12.3512    0.0000 C   0  0  2  0  0  0  0  0  0  0  0  0
    9.8961  -11.6022    0.0000 C   0  0  0  0  0  0  0  0  0  0  0  0
 33  1  1  1  0  0  0
 36  2  1  1  0  0  0
 40  3  1  6  0  0  0
 42  4  1  6  0  0  0
 49  5  1  1  0  0  0
 50  6  1  6  0  0  0
 38 52  1  6  0  0  0
 35 10  1  6  0  0  0
 10  9  1  0  0  0  0
  9  7  1  0  0  0  0
  9  8  2  0  0  0  0
 41 11  1  1  0  0  0
 39 12  1  1  0  0  0
 37 13  1  6  0  0  0
 28 14  1  6  0  0  0
 45 15  1  1  0  0  0
 41 16  1  6  0  0  0
 32 17  1  1  0  0  0
 29 24  1  1  0  0  0
 24 23  1  0  0  0  0
 22 18  1  0  0  0  0
 23 19  2  0  0  0  0
 21 20  1  0  0  0  0
 22 21  2  0  0  0  0
 23 22  1  0  0  0  0
 47 42  1  0  0  0  0
 49 40  1  0  0  0  0
 33 28  1  0  0  0  0
 36 26  1  0  0  0  0
 32 26  1  0  0  0  0
 50 37  1  0  0  0  0
 50 25  1  0  0  0  0
 26 25  1  1  0  0  0
 26 27  1  0  0  0  0
 28 27  1  0  0  0  0
 29 28  1  0  0  0  0
 30 29  1  0  0  0  0
 31 30  1  0  0  0  0
 32 31  1  0  0  0  0
 33 32  1  0  0  0  0
 34 33  1  0  0  0  0
 35 34  1  0  0  0  0
 36 35  1  0  0  0  0
 37 36  1  0  0  0  0
 38 37  1  0  0  0  0
 39 38  1  0  0  0  0
 40 39  1  0  0  0  0
 41 40  1  0  0  0  0
 42 41  1  0  0  0  0
 43 42  1  0  0  0  0
 44 43  1  0  0  0  0
 45 44  1  0  0  0  0
 46 45  1  0  0  0  0
 47 46  1  0  0  0  0
 48 47  1  0  0  0  0
 49 48  1  0  0  0  0
 50 49  1  0  0  0  0
 56 51  1  1  0  0  0
 57 52  1  0  0  0  0
 57 53  2  0  0  0  0
 55 54  1  0  0  0  0
 56 55  1  0  0  0  0
 57 56  1  0  0  0  0
M  END
>  <cdx:groupId>
238145

>  <cdx:fragmentId>
237985

$$$$
