101306702.cdx
  Mrv1902 05222410182D          

 34 38  0  0  0  0            999 V2000
    7.8953   -8.8751    0.0000 C   0  0  0  0  0  0  0  0  0  0  0  0
    8.3078   -8.1606    0.0000 C   0  0  0  0  0  0  0  0  0  0  0  0
    7.0703   -8.8751    0.0000 O   0  0  0  0  0  0  0  0  0  0  0  0
    8.3078   -9.5895    0.0000 O   0  0  0  0  0  0  0  0  0  0  0  0
    6.5560  -10.9490    0.0000 C   0  0  1  0  0  0  0  0  0  0  0  0
    7.0703  -10.3040    0.0000 C   0  0  0  0  0  0  0  0  0  0  0  0
    7.8953  -10.3040    0.0000 C   0  0  2  0  0  0  0  0  0  0  0  0
    8.4097  -10.9490    0.0000 C   0  0  2  0  0  0  0  0  0  0  0  0
    9.2314  -10.8751    0.0000 C   0  0  0  0  0  0  0  0  0  0  0  0
    9.5556  -11.6337    0.0000 C   0  0  1  0  0  0  0  0  0  0  0  0
    9.7151  -12.4431    0.0000 O   0  0  0  0  0  0  0  0  0  0  0  0
    8.9344  -12.1765    0.0000 C   0  0  1  0  0  0  0  0  0  0  0  0
    8.2261  -11.7533    0.0000 C   0  0  1  0  0  0  0  0  0  0  0  0
    7.4828  -12.1113    0.0000 C   0  0  2  0  0  0  0  0  0  0  0  0
    6.7395  -11.7533    0.0000 C   0  0  2  0  0  0  0  0  0  0  0  0
    6.2252  -12.3983    0.0000 C   0  0  0  0  0  0  0  0  0  0  0  0
    5.4002  -12.3983    0.0000 C   0  0  0  0  0  0  0  0  0  0  0  0
    4.8858  -11.7533    0.0000 C   0  0  1  0  0  0  0  0  0  0  0  0
    5.0694  -10.9490    0.0000 C   0  0  2  0  0  0  0  0  0  0  0  0
    5.8127  -10.5911    0.0000 C   0  0  0  0  0  0  0  0  0  0  0  0
    5.4897  -10.8691    0.0000 C   0  0  1  0  0  0  0  0  0  0  0  0
    4.7679  -10.1810    0.0000 C   0  0  0  0  0  0  0  0  0  0  0  0
    7.2007  -12.8865    0.0000 C   0  0  0  0  0  0  0  0  0  0  0  0
    9.2314  -10.0501    0.0000 C   0  0  0  0  0  0  0  0  0  0  0  0
    9.9459  -10.4626    0.0000 C   0  0  0  0  0  0  0  0  0  0  0  0
    5.0772  -10.1546    0.0000 O   0  0  0  0  0  0  0  0  0  0  0  0
    4.2536  -10.8260    0.0000 O   0  0  0  0  0  0  0  0  0  0  0  0
    7.9560  -12.7871    0.0000 O   0  0  0  0  0  0  0  0  0  0  0  0
    8.7340  -10.1904    0.0000 O   0  0  0  0  0  0  0  0  0  0  0  0
   10.3440  -11.3905    0.0000 H   0  0  0  0  0  0  0  0  0  0  0  0
    8.5876  -12.9250    0.0000 H   0  0  0  0  0  0  0  0  0  0  0  0
    7.5811  -11.2389    0.0000 H   0  0  0  0  0  0  0  0  0  0  0  0
    6.7807  -12.5773    0.0000 H   0  0  0  0  0  0  0  0  0  0  0  0
    4.0815  -11.9369    0.0000 H   0  0  0  0  0  0  0  0  0  0  0  0
  1  2  1  0  0  0  0
  1  3  2  0  0  0  0
  1  4  1  0  0  0  0
  5  6  1  0  0  0  0
  6  7  1  0  0  0  0
  7  8  1  0  0  0  0
  8  9  1  0  0  0  0
  9 10  1  0  0  0  0
 10 11  1  0  0  0  0
 11 12  1  0  0  0  0
 12 13  1  0  0  0  0
 13 14  1  0  0  0  0
 14 15  1  0  0  0  0
 15 16  1  0  0  0  0
 16 17  1  0  0  0  0
 17 18  1  0  0  0  0
 18 19  1  0  0  0  0
 19 20  1  0  0  0  0
  5 20  1  1  0  0  0
  5 21  1  0  0  0  0
 21 18  1  0  0  0  0
  5 15  1  0  0  0  0
  8 13  1  0  0  0  0
 10 12  1  0  0  0  0
 19 22  1  1  0  0  0
 14 23  1  1  0  0  0
  9 24  1  0  0  0  0
  9 25  1  0  0  0  0
 21 26  1  1  0  0  0
 19 27  1  6  0  0  0
 14 28  1  6  0  0  0
  8 29  1  1  0  0  0
  7  4  1  1  0  0  0
 10 30  1  6  0  0  0
 12 31  1  6  0  0  0
 13 32  1  6  0  0  0
 15 33  1  1  0  0  0
 18 34  1  6  0  0  0
M  END
>  <cdx:groupId>
1593

>  <cdx:fragmentId>
1498

$$$$
