3069.cdx
  Mrv1902 05222410202D          

 23 26  0  0  0  0            999 V2000
    4.9120   -8.6006    0.0000 C   0  0  0  0  0  0  0  0  0  0  0  0
    4.9120   -9.4256    0.0000 C   0  0  0  0  0  0  0  0  0  0  0  0
    5.6265   -9.8381    0.0000 C   0  0  0  0  0  0  0  0  0  0  0  0
    6.3410   -9.4256    0.0000 C   0  0  0  0  0  0  0  0  0  0  0  0
    6.3410   -8.6006    0.0000 C   0  0  0  0  0  0  0  0  0  0  0  0
    5.6265   -8.1881    0.0000 C   0  0  0  0  0  0  0  0  0  0  0  0
    7.0554   -9.8381    0.0000 C   0  0  0  0  0  0  0  0  0  0  0  0
    7.7699   -9.4256    0.0000 C   0  0  0  0  0  0  0  0  0  0  0  0
    7.7699   -8.6006    0.0000 C   0  0  0  0  0  0  0  0  0  0  0  0
    7.0554   -8.1881    0.0000 C   0  0  0  0  0  0  0  0  0  0  0  0
    8.4844   -8.1881    0.0000 C   0  0  0  0  0  0  0  0  0  0  0  0
    8.4844   -7.3631    0.0000 C   0  0  0  0  0  0  0  0  0  0  0  0
    7.7699   -6.9506    0.0000 C   0  0  0  0  0  0  0  0  0  0  0  0
    7.0554   -7.3631    0.0000 C   0  0  0  0  0  0  0  0  0  0  0  0
    9.0975   -6.8111    0.0000 C   0  0  0  0  0  0  0  0  0  0  0  0
    8.7619   -6.0574    0.0000 C   0  0  0  0  0  0  0  0  0  0  0  0
    7.9414   -6.1437    0.0000 O   0  0  0  0  0  0  0  0  0  0  0  0
    5.6265   -7.3631    0.0000 O   0  0  0  0  0  0  0  0  0  0  0  0
    5.0431  -10.4215    0.0000 C   0  0  0  0  0  0  0  0  0  0  0  0
    6.2099  -10.4215    0.0000 C   0  0  0  0  0  0  0  0  0  0  0  0
    9.8944   -7.0246    0.0000 C   0  0  0  0  0  0  0  0  0  0  0  0
    6.3410   -6.9506    0.0000 O   0  0  0  0  0  0  0  0  0  0  0  0
    9.1989   -8.6006    0.0000 O   0  0  0  0  0  0  0  0  0  0  0  0
  1  2  1  0  0  0  0
  2  3  1  0  0  0  0
  3  4  1  0  0  0  0
  4  5  2  0  0  0  0
  5  6  1  0  0  0  0
  6  1  1  0  0  0  0
  4  7  1  0  0  0  0
  7  8  2  0  0  0  0
  8  9  1  0  0  0  0
  9 10  2  0  0  0  0
 10  5  1  0  0  0  0
  9 11  1  0  0  0  0
 11 12  1  0  0  0  0
 12 13  2  0  0  0  0
 13 14  1  0  0  0  0
 14 10  1  0  0  0  0
 12 15  1  0  0  0  0
 15 16  1  0  0  0  0
 16 17  1  0  0  0  0
 17 13  1  0  0  0  0
  6 18  2  0  0  0  0
  3 19  1  0  0  0  0
  3 20  1  0  0  0  0
 15 21  1  0  0  0  0
 14 22  2  0  0  0  0
 11 23  2  0  0  0  0
M  END
>  <cdx:fragmentId>
5

$$$$
