307055.cdx
  Mrv1902 05222410222D          

 24 24  0  0  0  0            999 V2000
    5.7161  -10.5633    0.0000 C   0  0  0  0  0  0  0  0  0  0  0  0
    9.2984   -5.2185    0.0000 O   0  0  0  0  0  0  0  0  0  0  0  0
    8.5839   -5.6310    0.0000 C   0  0  0  0  0  0  0  0  0  0  0  0
    8.5839   -6.4560    0.0000 C   0  0  0  0  0  0  0  0  0  0  0  0
    7.8695   -6.8685    0.0000 C   0  0  0  0  0  0  0  0  0  0  0  0
    7.8695   -7.6935    0.0000 C   0  0  0  0  0  0  0  0  0  0  0  0
    7.1550   -8.1060    0.0000 C   0  0  0  0  0  0  0  0  0  0  0  0
    7.1550   -8.9310    0.0000 C   0  0  0  0  0  0  0  0  0  0  0  0
    7.1550   -6.4560    0.0000 C   0  0  0  0  0  0  0  0  0  0  0  0
    5.7260   -8.9310    0.0000 C   0  0  0  0  0  0  0  0  0  0  0  0
    7.1243  -11.4232    0.0000 C   0  0  0  0  0  0  0  0  0  0  0  0
    4.1466  -11.7625    0.0000 C   0  0  0  0  0  0  0  0  0  0  0  0
    4.5766  -11.0584    0.0000 C   0  0  0  0  0  0  0  0  0  0  0  0
    4.9714  -11.7828    0.0000 C   0  0  0  0  0  0  0  0  0  0  0  0
    4.9511  -12.6076    0.0000 C   0  0  0  0  0  0  0  0  0  0  0  0
    5.6552  -13.0375    0.0000 C   0  0  0  0  0  0  0  0  0  0  0  0
    6.3796  -12.6427    0.0000 C   0  0  0  0  0  0  0  0  0  0  0  0
    6.3999  -11.8180    0.0000 C   0  0  0  0  0  0  0  0  0  0  0  0
    5.6958  -11.3880    0.0000 C   0  0  0  0  0  0  0  0  0  0  0  0
    6.4405  -10.1685    0.0000 C   0  0  0  0  0  0  0  0  0  0  0  0
    6.4405   -9.3435    0.0000 C   0  0  0  0  0  0  0  0  0  0  0  0
    8.5839   -3.9810    0.0000 O   0  0  0  0  0  0  0  0  0  0  0  0
   10.0129   -3.9810    0.0000 C   0  0  0  0  0  0  0  0  0  0  0  0
    9.2984   -4.3935    0.0000 C   0  0  0  0  0  0  0  0  0  0  0  0
 24  2  1  0  0  0  0
 24 22  2  0  0  0  0
 21 10  1  0  0  0  0
 18 11  1  0  0  0  0
 14 12  1  0  0  0  0
 14 13  1  0  0  0  0
 19 14  1  0  0  0  0
 15 14  1  0  0  0  0
 16 15  1  0  0  0  0
 17 16  1  0  0  0  0
 18 17  1  0  0  0  0
 19 18  2  0  0  0  0
 20  1  2  0  0  0  0
 21 20  1  0  0  0  0
  8 21  2  0  0  0  0
 24 23  1  0  0  0  0
  1 19  1  0  0  0  0
  3  4  1  0  0  0  0
  4  5  2  0  0  0  0
  5  6  1  0  0  0  0
  6  7  2  0  0  0  0
  7  8  1  0  0  0  0
  5  9  1  0  0  0  0
  2  3  1  0  0  0  0
M  END
>  <cdx:groupId>
74

>  <cdx:fragmentId>
31

$$$$
