307451.cdx
  Mrv1902 05222410222D          

 34 36  0  0  0  0            999 V2000
    7.6785   -4.8186    0.0000 H   0  0  0  0  0  0  0  0  0  0  0  0
    8.8596   -6.9639    0.0000 H   0  0  0  0  0  0  0  0  0  0  0  0
    9.5870   -6.7011    0.0000 O   0  0  0  0  0  0  0  0  0  0  0  0
    7.1098   -4.7750    0.0000 O   0  0  0  0  0  0  0  0  0  0  0  0
    5.6852   -5.4886    0.0000 O   0  0  0  0  0  0  0  0  0  0  0  0
    6.4297   -5.1331    0.0000 C   0  0  0  0  0  0  0  0  0  0  0  0
   10.0438   -6.0141    0.0000 C   0  0  0  0  0  0  0  0  0  0  0  0
    7.5041  -10.7063    0.0000 O   0  0  0  0  0  0  0  0  0  0  0  0
    6.0707  -11.5236    0.0000 O   0  0  0  0  0  0  0  0  0  0  0  0
    4.6462  -10.6910    0.0000 O   0  0  0  0  0  0  0  0  0  0  0  0
    3.9384   -9.4497    0.0000 O   0  0  0  0  0  0  0  0  0  0  0  0
    4.6551   -9.0410    0.0000 C   0  0  0  0  0  0  0  0  0  0  0  0
    5.3673   -9.4573    0.0000 C   0  0  2  0  0  0  0  0  0  0  0  0
    5.3629  -10.2823    0.0000 C   0  0  2  0  0  0  0  0  0  0  0  0
    6.0752  -10.6987    0.0000 C   0  0  1  0  0  0  0  0  0  0  0  0
    6.7918  -10.2900    0.0000 C   0  0  2  0  0  0  0  0  0  0  0  0
    6.7962   -9.4650    0.0000 C   0  0  1  0  0  0  0  0  0  0  0  0
    6.0840   -9.0487    0.0000 O   0  0  0  0  0  0  0  0  0  0  0  0
    7.5129   -9.0563    0.0000 O   0  0  0  0  0  0  0  0  0  0  0  0
    8.3387   -8.2363    0.0000 C   0  0  0  0  0  0  0  0  0  0  0  0
    7.5137   -8.2337    0.0000 C   0  0  0  0  0  0  0  0  0  0  0  0
    9.8328   -4.6255    0.0000 O   0  0  0  0  0  0  0  0  0  0  0  0
    7.9348   -5.6027    0.0000 C   0  0  2  0  0  0  0  0  0  0  0  0
    7.1098   -5.6000    0.0000 C   0  0  1  0  0  0  0  0  0  0  0  0
    6.5933   -6.2434    0.0000 C   0  0  0  0  0  0  0  0  0  0  0  0
    6.7743   -7.0483    0.0000 C   0  0  0  0  0  0  0  0  0  0  0  0
    7.5164   -7.4087    0.0000 C   0  0  2  0  0  0  0  0  0  0  0  0
    8.2609   -7.0531    0.0000 C   0  0  0  0  0  0  0  0  0  0  0  0
    8.4471   -6.2494    0.0000 C   0  0  1  0  0  0  0  0  0  0  0  0
    9.2204   -5.9620    0.0000 C   0  0  1  0  0  0  0  0  0  0  0  0
    9.1861   -5.1378    0.0000 C   0  0  0  0  0  0  0  0  0  0  0  0
    8.3915   -4.9157    0.0000 C   0  0  0  0  0  0  0  0  0  0  0  0
    8.2309   -7.8212    0.0000 H   0  0  0  0  0  0  0  0  0  0  0  0
    6.6887   -8.2319    0.0000 C   0  0  0  0  0  0  0  0  0  0  0  0
 23  1  1  6  0  0  0
 29  2  1  1  0  0  0
 30  3  1  1  0  0  0
 24  4  1  1  0  0  0
 24  6  1  0  0  0  0
  6  5  1  0  0  0  0
 30  7  1  0  0  0  0
 27 21  1  0  0  0  0
 21 19  1  0  0  0  0
 17 19  1  1  0  0  0
 16  8  1  6  0  0  0
 15  9  1  1  0  0  0
 14 10  1  6  0  0  0
 13 12  1  1  0  0  0
 12 11  1  0  0  0  0
 18 13  1  0  0  0  0
 14 13  1  0  0  0  0
 15 14  1  0  0  0  0
 16 15  1  0  0  0  0
 17 16  1  0  0  0  0
 18 17  1  0  0  0  0
 21 20  1  0  0  0  0
 31 22  2  0  0  0  0
 29 23  1  0  0  0  0
 32 23  1  0  0  0  0
 24 23  1  0  0  0  0
 25 24  1  0  0  0  0
 26 25  1  0  0  0  0
 27 26  1  0  0  0  0
 27 28  1  0  0  0  0
 29 28  1  0  0  0  0
 30 29  1  0  0  0  0
 31 30  1  0  0  0  0
 32 31  1  0  0  0  0
 27 33  1  1  0  0  0
 21 34  1  0  0  0  0
M  END
>  <cdx:fragmentId>
35

$$$$
