3074.cdx
  Mrv1902 05222410282D          

 43 45  0  0  0  0            999 V2000
    7.2346   -7.6530    0.0000 C   0  0  0  0  0  0  0  0  0  0  0  0
    6.5195   -8.0644    0.0000 C   0  0  0  0  0  0  0  0  0  0  0  0
    6.5182   -8.8894    0.0000 C   0  0  2  0  0  0  0  0  0  0  0  0
    7.2320   -9.3030    0.0000 C   0  0  0  0  0  0  0  0  0  0  0  0
    7.9472   -8.8916    0.0000 C   0  0  1  0  0  0  0  0  0  0  0  0
    7.9484   -8.0666    0.0000 C   0  0  0  0  0  0  0  0  0  0  0  0
    5.8031   -9.3008    0.0000 O   0  0  0  0  0  0  0  0  0  0  0  0
    6.8221   -6.9385    0.0000 O   0  0  0  0  0  0  0  0  0  0  0  0
    7.6471   -6.9385    0.0000 C   0  0  0  0  0  0  0  0  0  0  0  0
    7.2346   -6.2241    0.0000 O   0  0  0  0  0  0  0  0  0  0  0  0
    8.4721   -6.9385    0.0000 O   0  0  0  0  0  0  0  0  0  0  0  0
    5.9905   -6.9142    0.0000 C   0  0  0  0  0  0  0  0  0  0  0  0
    5.5845   -6.1961    0.0000 C   0  0  0  0  0  0  0  0  0  0  0  0
    4.7595   -6.1887    0.0000 C   0  0  0  0  0  0  0  0  0  0  0  0
    5.5716   -7.6250    0.0000 O   0  0  0  0  0  0  0  0  0  0  0  0
    8.6610   -9.3052    0.0000 O   0  0  0  0  0  0  0  0  0  0  0  0
    7.2308  -10.1280    0.0000 O   0  0  0  0  0  0  0  0  0  0  0  0
    5.0893   -8.8872    0.0000 C   0  0  0  0  0  0  0  0  0  0  0  0
    4.3742   -9.2986    0.0000 C   0  0  0  0  0  0  0  0  0  0  0  0
    5.0906   -8.0622    0.0000 O   0  0  0  0  0  0  0  0  0  0  0  0
    3.6603   -8.8850    0.0000 C   0  0  0  0  0  0  0  0  0  0  0  0
    2.9452   -9.2964    0.0000 C   0  0  0  0  0  0  0  0  0  0  0  0
    2.2320   -8.8816    0.0000 C   0  0  0  0  0  0  0  0  0  0  0  0
    1.5163   -9.2964    0.0000 C   0  0  0  0  0  0  0  0  0  0  0  0
    1.5163  -10.1214    0.0000 C   0  0  0  0  0  0  0  0  0  0  0  0
    2.2320  -10.5361    0.0000 C   0  0  0  0  0  0  0  0  0  0  0  0
    2.9452  -10.1214    0.0000 C   0  0  0  0  0  0  0  0  0  0  0  0
    0.8015  -10.5333    0.0000 O   0  0  0  0  0  0  0  0  0  0  0  0
    0.8015   -8.8844    0.0000 O   0  0  0  0  0  0  0  0  0  0  0  0
    9.3761   -8.8938    0.0000 C   0  0  0  0  0  0  0  0  0  0  0  0
   10.0899   -9.3074    0.0000 C   0  0  0  0  0  0  0  0  0  0  0  0
    9.3774   -8.0688    0.0000 O   0  0  0  0  0  0  0  0  0  0  0  0
   10.8050   -8.8961    0.0000 C   0  0  0  0  0  0  0  0  0  0  0  0
   11.5189   -9.3097    0.0000 C   0  0  0  0  0  0  0  0  0  0  0  0
   11.5169  -10.1347    0.0000 C   0  0  0  0  0  0  0  0  0  0  0  0
   12.2305  -10.5488    0.0000 C   0  0  0  0  0  0  0  0  0  0  0  0
   12.9459  -10.1347    0.0000 C   0  0  0  0  0  0  0  0  0  0  0  0
   12.9459   -9.3097    0.0000 C   0  0  0  0  0  0  0  0  0  0  0  0
   12.2305   -8.8955    0.0000 C   0  0  0  0  0  0  0  0  0  0  0  0
   13.6606   -8.8976    0.0000 O   0  0  0  0  0  0  0  0  0  0  0  0
   13.6606  -10.5467    0.0000 O   0  0  0  0  0  0  0  0  0  0  0  0
    4.3534   -5.4705    0.0000 O   0  0  0  0  0  0  0  0  0  0  0  0
    4.3406   -6.8994    0.0000 O   0  0  0  0  0  0  0  0  0  0  0  0
  1  2  1  0  0  0  0
  2  3  1  0  0  0  0
  3  4  1  0  0  0  0
  4  5  1  0  0  0  0
  5  6  1  0  0  0  0
  1  6  1  0  0  0  0
  5 16  1  1  0  0  0
  4 17  1  0  0  0  0
  3  7  1  6  0  0  0
  1  8  1  0  0  0  0
  1  9  1  0  0  0  0
  9 10  2  0  0  0  0
  9 11  1  0  0  0  0
 12 13  1  0  0  0  0
 13 14  1  0  0  0  0
 12 15  2  0  0  0  0
 12  8  1  0  0  0  0
  7 18  1  0  0  0  0
 18 19  1  0  0  0  0
 18 20  2  0  0  0  0
 19 21  2  0  0  0  0
 21 22  1  0  0  0  0
 22 23  2  0  0  0  0
 23 24  1  0  0  0  0
 24 25  2  0  0  0  0
 25 26  1  0  0  0  0
 26 27  2  0  0  0  0
 27 22  1  0  0  0  0
 25 28  1  0  0  0  0
 24 29  1  0  0  0  0
 16 30  1  0  0  0  0
 30 31  1  0  0  0  0
 30 32  2  0  0  0  0
 31 33  2  0  0  0  0
 33 34  1  0  0  0  0
 34 35  2  0  0  0  0
 35 36  1  0  0  0  0
 36 37  2  0  0  0  0
 37 38  1  0  0  0  0
 38 39  2  0  0  0  0
 39 34  1  0  0  0  0
 38 40  1  0  0  0  0
 37 41  1  0  0  0  0
 14 42  1  0  0  0  0
 14 43  2  0  0  0  0
M  END
>  <cdx:fragmentId>
37

$$$$
