71307458.cdx
  Mrv1902 05222410252D          

102111  0  0  0  0            999 V2000
    2.4539  -10.1075    0.0000 O   0  0  0  0  0  0  0  0  0  0  0  0
    3.1684  -10.5200    0.0000 C   0  0  2  0  0  0  0  0  0  0  0  0
    3.1684  -11.3450    0.0000 C   0  0  1  0  0  0  0  0  0  0  0  0
    2.4539  -11.7575    0.0000 C   0  0  2  0  0  0  0  0  0  0  0  0
    1.7395  -11.3450    0.0000 C   0  0  1  0  0  0  0  0  0  0  0  0
    1.7395  -10.5200    0.0000 C   0  0  1  0  0  0  0  0  0  0  0  0
    3.8829  -11.7575    0.0000 O   0  0  0  0  0  0  0  0  0  0  0  0
    2.4539  -12.5825    0.0000 O   0  0  0  0  0  0  0  0  0  0  0  0
    1.0250  -11.7575    0.0000 O   0  0  0  0  0  0  0  0  0  0  0  0
    1.0250  -10.1075    0.0000 C   0  0  0  0  0  0  0  0  0  0  0  0
    0.3105  -10.5200    0.0000 O   0  0  0  0  0  0  0  0  0  0  0  0
    3.8829  -10.1075    0.0000 O   0  0  0  0  0  0  0  0  0  0  0  0
    4.5974  -10.5200    0.0000 C   0  0  0  0  0  0  0  0  0  0  0  0
    6.0263  -10.5200    0.0000 O   0  0  0  0  0  0  0  0  0  0  0  0
    5.3118  -10.1075    0.0000 C   0  0  1  0  0  0  0  0  0  0  0  0
    5.3118   -9.2825    0.0000 C   0  0  2  0  0  0  0  0  0  0  0  0
    6.0263   -8.8700    0.0000 C   0  0  1  0  0  0  0  0  0  0  0  0
    6.7408   -9.2825    0.0000 C   0  0  2  0  0  0  0  0  0  0  0  0
    6.7408  -10.1075    0.0000 C   0  0  2  0  0  0  0  0  0  0  0  0
    7.4552   -8.8700    0.0000 O   0  0  0  0  0  0  0  0  0  0  0  0
    6.7408   -7.6325    0.0000 O   0  0  0  0  0  0  0  0  0  0  0  0
    7.4552   -8.0450    0.0000 C   0  0  2  0  0  0  0  0  0  0  0  0
    8.1697   -7.6325    0.0000 C   0  0  1  0  0  0  0  0  0  0  0  0
    8.1697   -6.8075    0.0000 C   0  0  2  0  0  0  0  0  0  0  0  0
    7.4552   -6.3950    0.0000 C   0  0  1  0  0  0  0  0  0  0  0  0
    6.7408   -6.8075    0.0000 C   0  0  1  0  0  0  0  0  0  0  0  0
    6.0263   -6.3950    0.0000 C   0  0  0  0  0  0  0  0  0  0  0  0
    5.3118   -6.8075    0.0000 O   0  0  0  0  0  0  0  0  0  0  0  0
    7.4552   -5.5700    0.0000 O   0  0  0  0  0  0  0  0  0  0  0  0
    8.8842   -6.3950    0.0000 O   0  0  0  0  0  0  0  0  0  0  0  0
    8.8842   -8.0450    0.0000 O   0  0  0  0  0  0  0  0  0  0  0  0
    6.0263   -8.0450    0.0000 O   0  0  0  0  0  0  0  0  0  0  0  0
    4.5974   -8.8700    0.0000 O   0  0  0  0  0  0  0  0  0  0  0  0
    7.4552  -10.5200    0.0000 O   0  0  0  0  0  0  0  0  0  0  0  0
    8.8842   -8.8700    0.0000 C   0  0  0  0  0  0  0  0  0  0  0  0
    8.1697   -9.2825    0.0000 C   0  0  0  0  0  0  0  0  0  0  0  0
    8.1697  -10.1075    0.0000 C   0  0  1  0  0  0  0  0  0  0  0  0
    8.8842  -10.5200    0.0000 C   0  0  0  0  0  0  0  0  0  0  0  0
    9.5987  -10.1075    0.0000 C   0  0  0  0  0  0  0  0  0  0  0  0
   10.3131  -10.5200    0.0000 C   0  0  0  0  0  0  0  0  0  0  0  0
   11.0276  -10.1075    0.0000 C   0  0  0  0  0  0  0  0  0  0  0  0
   11.0276   -9.2825    0.0000 C   0  0  2  0  0  0  0  0  0  0  0  0
   11.7421   -8.8700    0.0000 C   0  0  2  0  0  0  0  0  0  0  0  0
   12.5267   -9.1249    0.0000 C   0  0  0  0  0  0  0  0  0  0  0  0
   13.0116   -8.4575    0.0000 C   0  0  0  0  0  0  0  0  0  0  0  0
   12.5267   -7.7900    0.0000 C   0  0  1  0  0  0  0  0  0  0  0  0
   11.7421   -8.0450    0.0000 C   0  0  1  0  0  0  0  0  0  0  0  0
   11.0276   -7.6325    0.0000 C   0  0  0  0  0  0  0  0  0  0  0  0
   10.3131   -8.0450    0.0000 C   0  0  2  0  0  0  0  0  0  0  0  0
   10.3131   -8.8700    0.0000 C   0  0  1  0  0  0  0  0  0  0  0  0
    9.5987   -9.2825    0.0000 C   0  0  2  0  0  0  0  0  0  0  0  0
   11.7421   -9.6950    0.0000 C   0  0  0  0  0  0  0  0  0  0  0  0
   11.8283   -7.2245    0.0000 C   0  0  0  0  0  0  0  0  0  0  0  0
   10.3131   -9.6950    0.0000 C   0  0  0  0  0  0  0  0  0  0  0  0
    9.2967  -11.2344    0.0000 C   0  0  0  0  0  0  0  0  0  0  0  0
    8.4717  -11.2344    0.0000 C   0  0  0  0  0  0  0  0  0  0  0  0
    9.5987   -7.6325    0.0000 O   0  0  0  0  0  0  0  0  0  0  0  0
   12.2296   -6.3923    0.0000 C   0  0  0  0  0  0  0  0  0  0  0  0
   12.7816   -7.0054    0.0000 C   0  0  2  0  0  0  0  0  0  0  0  0
   13.5886   -6.8339    0.0000 C   0  0  0  0  0  0  0  0  0  0  0  0
   13.8435   -6.0493    0.0000 C   0  0  0  0  0  0  0  0  0  0  0  0
   14.6505   -5.8777    0.0000 C   0  0  2  0  0  0  0  0  0  0  0  0
   15.2025   -6.4908    0.0000 C   0  0  0  0  0  0  0  0  0  0  0  0
   16.0095   -6.3193    0.0000 C   0  0  0  0  0  0  0  0  0  0  0  0
   14.9476   -7.2755    0.0000 C   0  0  0  0  0  0  0  0  0  0  0  0
   15.7546   -7.1039    0.0000 O   0  0  0  0  0  0  0  0  0  0  0  0
   14.9054   -5.0931    0.0000 O   0  0  0  0  0  0  0  0  0  0  0  0
   16.2645   -5.5347    0.0000 O   0  0  0  0  0  0  0  0  0  0  0  0
   15.7124   -4.9216    0.0000 C   0  0  2  0  0  0  0  0  0  0  0  0
   15.9674   -4.1370    0.0000 C   0  0  1  0  0  0  0  0  0  0  0  0
   16.7743   -3.9654    0.0000 C   0  0  2  0  0  0  0  0  0  0  0  0
   17.3264   -4.5785    0.0000 C   0  0  1  0  0  0  0  0  0  0  0  0
   17.0714   -5.3632    0.0000 C   0  0  1  0  0  0  0  0  0  0  0  0
   17.6235   -5.9762    0.0000 C   0  0  0  0  0  0  0  0  0  0  0  0
   18.4304   -5.8047    0.0000 O   0  0  0  0  0  0  0  0  0  0  0  0
   19.7894   -6.2463    0.0000 O   0  0  0  0  0  0  0  0  0  0  0  0
   18.9825   -6.4178    0.0000 C   0  0  1  0  0  0  0  0  0  0  0  0
   18.7275   -7.2024    0.0000 C   0  0  1  0  0  0  0  0  0  0  0  0
   19.2796   -7.8155    0.0000 C   0  0  2  0  0  0  0  0  0  0  0  0
   20.0865   -7.6440    0.0000 C   0  0  1  0  0  0  0  0  0  0  0  0
   20.3415   -6.8594    0.0000 C   0  0  1  0  0  0  0  0  0  0  0  0
   21.1484   -6.6879    0.0000 C   0  0  0  0  0  0  0  0  0  0  0  0
   21.7005   -7.3009    0.0000 O   0  0  0  0  0  0  0  0  0  0  0  0
   20.6386   -8.2571    0.0000 O   0  0  0  0  0  0  0  0  0  0  0  0
   19.0246   -8.6002    0.0000 O   0  0  0  0  0  0  0  0  0  0  0  0
   17.9206   -7.3740    0.0000 O   0  0  0  0  0  0  0  0  0  0  0  0
   15.4153   -3.5239    0.0000 O   0  0  0  0  0  0  0  0  0  0  0  0
   16.4772   -2.5677    0.0000 O   0  0  0  0  0  0  0  0  0  0  0  0
   15.6703   -2.7392    0.0000 C   0  0  2  0  0  0  0  0  0  0  0  0
   15.1182   -2.1262    0.0000 C   0  0  1  0  0  0  0  0  0  0  0  0
   15.3732   -1.3415    0.0000 C   0  0  2  0  0  0  0  0  0  0  0  0
   16.1801   -1.1700    0.0000 C   0  0  1  0  0  0  0  0  0  0  0  0
   16.7322   -1.7831    0.0000 C   0  0  1  0  0  0  0  0  0  0  0  0
   17.5391   -1.6116    0.0000 C   0  0  0  0  0  0  0  0  0  0  0  0
   18.0912   -2.2247    0.0000 O   0  0  0  0  0  0  0  0  0  0  0  0
   16.4351   -0.3854    0.0000 O   0  0  0  0  0  0  0  0  0  0  0  0
   14.8211   -0.7284    0.0000 O   0  0  0  0  0  0  0  0  0  0  0  0
   14.3113   -2.2977    0.0000 O   0  0  0  0  0  0  0  0  0  0  0  0
   18.1333   -4.4070    0.0000 O   0  0  0  0  0  0  0  0  0  0  0  0
   17.0293   -3.1808    0.0000 O   0  0  0  0  0  0  0  0  0  0  0  0
   11.0276   -8.4575    0.0000 H   0  0  0  0  0  0  0  0  0  0  0  0
    9.5987   -8.4575    0.0000 H   0  0  0  0  0  0  0  0  0  0  0  0
  1  2  1  0  0  0  0
  2  3  1  0  0  0  0
  3  4  1  0  0  0  0
  4  5  1  0  0  0  0
  5  6  1  0  0  0  0
  1  6  1  0  0  0  0
  3  7  1  6  0  0  0
  4  8  1  1  0  0  0
  5  9  1  6  0  0  0
 10 11  1  0  0  0  0
  6 10  1  1  0  0  0
 12 13  1  0  0  0  0
 14 15  1  0  0  0  0
 15 16  1  0  0  0  0
 16 17  1  0  0  0  0
 17 18  1  0  0  0  0
 18 19  1  0  0  0  0
 14 19  1  0  0  0  0
 21 22  1  0  0  0  0
 22 23  1  0  0  0  0
 23 24  1  0  0  0  0
 24 25  1  0  0  0  0
 25 26  1  0  0  0  0
 21 26  1  0  0  0  0
 27 28  1  0  0  0  0
 26 27  1  6  0  0  0
 25 29  1  1  0  0  0
 24 30  1  6  0  0  0
 23 31  1  1  0  0  0
 22 20  1  6  0  0  0
 18 20  1  1  0  0  0
 17 32  1  6  0  0  0
 16 33  1  1  0  0  0
 35 36  1  0  0  0  0
 36 37  1  0  0  0  0
 37 38  1  0  0  0  0
 38 39  1  0  0  0  0
 39 40  2  0  0  0  0
 40 41  1  0  0  0  0
 41 42  1  0  0  0  0
 42 43  1  0  0  0  0
 43 44  1  0  0  0  0
 44 45  1  0  0  0  0
 46 45  1  1  0  0  0
 46 47  1  0  0  0  0
 43 47  1  0  0  0  0
 47 48  1  0  0  0  0
 48 49  1  0  0  0  0
 49 50  1  0  0  0  0
 42 50  1  0  0  0  0
 50 51  1  0  0  0  0
 39 51  1  0  0  0  0
 35 51  1  0  0  0  0
 43 52  1  6  0  0  0
 47 53  1  1  0  0  0
 50 54  1  1  0  0  0
 38 55  1  0  0  0  0
 38 56  1  0  0  0  0
 49 57  1  6  0  0  0
 59 58  1  6  0  0  0
 59 60  1  0  0  0  0
 60 61  1  0  0  0  0
 61 62  1  0  0  0  0
 62 63  1  0  0  0  0
 63 64  1  0  0  0  0
 63 65  1  0  0  0  0
 63 66  1  0  0  0  0
 68 69  1  0  0  0  0
 69 70  1  0  0  0  0
 70 71  1  0  0  0  0
 71 72  1  0  0  0  0
 72 73  1  0  0  0  0
 68 73  1  0  0  0  0
 76 77  1  0  0  0  0
 77 78  1  0  0  0  0
 78 79  1  0  0  0  0
 79 80  1  0  0  0  0
 80 81  1  0  0  0  0
 76 81  1  0  0  0  0
 82 83  1  0  0  0  0
 81 82  1  6  0  0  0
 80 84  1  1  0  0  0
 79 85  1  6  0  0  0
 78 86  1  1  0  0  0
 77 75  1  1  0  0  0
 74 75  1  0  0  0  0
 73 74  1  1  0  0  0
 88 89  1  0  0  0  0
 89 90  1  0  0  0  0
 90 91  1  0  0  0  0
 91 92  1  0  0  0  0
 92 93  1  0  0  0  0
 88 93  1  0  0  0  0
 94 95  1  0  0  0  0
 93 94  1  1  0  0  0
 92 96  1  6  0  0  0
 91 97  1  1  0  0  0
 90 98  1  6  0  0  0
 89 87  1  1  0  0  0
 70 87  1  6  0  0  0
 72 99  1  6  0  0  0
 71100  1  1  0  0  0
 69 67  1  1  0  0  0
 62 67  1  1  0  0  0
 46 59  1  0  0  0  0
 37 34  1  1  0  0  0
 19 34  1  6  0  0  0
 15 13  1  6  0  0  0
  2 12  1  1  0  0  0
 42101  1  6  0  0  0
 51102  1  6  0  0  0
M  END
>  <cdx:groupId>
321

>  <cdx:fragmentId>
159

$$$$
