307577.cdx
  Mrv1902 05222410272D          

 51 56  0  0  0  0            999 V2000
    6.7105   -6.7324    0.0000 C   0  0  0  0  0  0  0  0  0  0  0  0
    5.9961   -7.1449    0.0000 C   0  0  1  0  0  0  0  0  0  0  0  0
    5.9961   -7.9699    0.0000 C   0  0  1  0  0  0  0  0  0  0  0  0
    6.7105   -8.3824    0.0000 C   0  0  1  0  0  0  0  0  0  0  0  0
    7.4250   -7.9699    0.0000 C   0  0  2  0  0  0  0  0  0  0  0  0
    8.1395   -8.3824    0.0000 C   0  0  0  0  0  0  0  0  0  0  0  0
    8.8539   -7.9699    0.0000 C   0  0  0  0  0  0  0  0  0  0  0  0
    8.8539   -7.1449    0.0000 C   0  0  1  0  0  0  0  0  0  0  0  0
    9.5684   -6.7324    0.0000 C   0  0  2  0  0  0  0  0  0  0  0  0
   10.2829   -7.1449    0.0000 C   0  0  0  0  0  0  0  0  0  0  0  0
   10.9974   -6.7324    0.0000 C   0  0  0  0  0  0  0  0  0  0  0  0
   10.9974   -5.9074    0.0000 C   0  0  1  0  0  0  0  0  0  0  0  0
   11.7118   -5.4949    0.0000 C   0  0  0  0  0  0  0  0  0  0  0  0
   11.7118   -4.6699    0.0000 C   0  0  0  0  0  0  0  0  0  0  0  0
   10.9974   -4.2574    0.0000 C   0  0  0  0  0  0  0  0  0  0  0  0
   10.2829   -4.6699    0.0000 C   0  0  0  0  0  0  0  0  0  0  0  0
   10.2829   -5.4949    0.0000 C   0  0  1  0  0  0  0  0  0  0  0  0
    9.5684   -5.9074    0.0000 C   0  0  0  0  0  0  0  0  0  0  0  0
    8.8539   -5.4949    0.0000 C   0  0  0  0  0  0  0  0  0  0  0  0
    8.1395   -5.9074    0.0000 C   0  0  0  0  0  0  0  0  0  0  0  0
    8.1395   -6.7324    0.0000 C   0  0  2  0  0  0  0  0  0  0  0  0
    7.4250   -7.1449    0.0000 C   0  0  1  0  0  0  0  0  0  0  0  0
   11.7118   -6.3199    0.0000 C   0  0  0  0  0  0  0  0  0  0  0  0
   11.7118   -7.1449    0.0000 O   0  0  0  0  0  0  0  0  0  0  0  0
   12.4263   -5.9074    0.0000 O   0  0  0  0  0  0  0  0  0  0  0  0
    5.2816   -8.3824    0.0000 O   0  0  0  0  0  0  0  0  0  0  0  0
    4.5671   -7.1449    0.0000 O   0  0  0  0  0  0  0  0  0  0  0  0
    4.5671   -7.9699    0.0000 C   0  0  2  0  0  0  0  0  0  0  0  0
    3.8526   -8.3824    0.0000 C   0  0  1  0  0  0  0  0  0  0  0  0
    3.1382   -7.9699    0.0000 C   0  0  2  0  0  0  0  0  0  0  0  0
    3.1382   -7.1449    0.0000 C   0  0  1  0  0  0  0  0  0  0  0  0
    3.8526   -6.7324    0.0000 C   0  0  1  0  0  0  0  0  0  0  0  0
    3.8526   -5.9074    0.0000 C   0  0  0  0  0  0  0  0  0  0  0  0
    3.1382   -5.4949    0.0000 O   0  0  0  0  0  0  0  0  0  0  0  0
    2.4237   -6.7324    0.0000 O   0  0  0  0  0  0  0  0  0  0  0  0
    2.4237   -8.3824    0.0000 O   0  0  0  0  0  0  0  0  0  0  0  0
    3.8526   -9.2074    0.0000 O   0  0  0  0  0  0  0  0  0  0  0  0
    7.4250   -6.3199    0.0000 C   0  0  0  0  0  0  0  0  0  0  0  0
   10.5849   -3.5430    0.0000 C   0  0  0  0  0  0  0  0  0  0  0  0
   11.4099   -3.5430    0.0000 C   0  0  0  0  0  0  0  0  0  0  0  0
    8.8539   -6.3199    0.0000 C   0  0  0  0  0  0  0  0  0  0  0  0
    6.2980   -9.0969    0.0000 C   0  0  0  0  0  0  0  0  0  0  0  0
    9.5684   -7.5574    0.0000 C   0  0  0  0  0  0  0  0  0  0  0  0
   10.2829   -7.9699    0.0000 O   0  0  0  0  0  0  0  0  0  0  0  0
    5.2816   -6.7324    0.0000 O   0  0  0  0  0  0  0  0  0  0  0  0
    7.4250   -8.7949    0.0000 H   0  0  0  0  0  0  0  0  0  0  0  0
    9.5684   -5.0824    0.0000 H   0  0  0  0  0  0  0  0  0  0  0  0
    8.1395   -7.5574    0.0000 H   0  0  0  0  0  0  0  0  0  0  0  0
    7.1230   -9.0969    0.0000 C   0  0  0  0  0  0  0  0  0  0  0  0
    6.7105   -9.8114    0.0000 O   0  0  0  0  0  0  0  0  0  0  0  0
    7.9480   -9.0969    0.0000 O   0  0  0  0  0  0  0  0  0  0  0  0
  1  2  1  0  0  0  0
  2  3  1  0  0  0  0
  3  4  1  0  0  0  0
  4  5  1  0  0  0  0
  5  6  1  0  0  0  0
  6  7  1  0  0  0  0
  7  8  1  0  0  0  0
  8  9  1  0  0  0  0
  9 10  1  0  0  0  0
 10 11  1  0  0  0  0
 11 12  1  0  0  0  0
 12 13  1  0  0  0  0
 13 14  1  0  0  0  0
 14 15  1  0  0  0  0
 15 16  1  0  0  0  0
 16 17  1  0  0  0  0
 12 17  1  0  0  0  0
 17 18  1  0  0  0  0
  9 18  1  0  0  0  0
 18 19  2  0  0  0  0
 19 20  1  0  0  0  0
 20 21  1  0  0  0  0
  8 21  1  0  0  0  0
 21 22  1  0  0  0  0
  5 22  1  0  0  0  0
  1 22  1  0  0  0  0
 23 24  2  0  0  0  0
 23 25  1  0  0  0  0
 12 23  1  1  0  0  0
 27 28  1  0  0  0  0
 28 29  1  0  0  0  0
 29 30  1  0  0  0  0
 30 31  1  0  0  0  0
 31 32  1  0  0  0  0
 27 32  1  0  0  0  0
 33 34  1  0  0  0  0
 32 33  1  1  0  0  0
 31 35  1  6  0  0  0
 30 36  1  1  0  0  0
 29 37  1  6  0  0  0
 28 26  1  1  0  0  0
  3 26  1  1  0  0  0
 22 38  1  1  0  0  0
 15 39  1  0  0  0  0
 15 40  1  0  0  0  0
  8 41  1  1  0  0  0
  4 42  1  1  0  0  0
 43 44  1  0  0  0  0
  9 43  1  6  0  0  0
  2 45  1  1  0  0  0
  5 46  1  6  0  0  0
 17 47  1  1  0  0  0
 21 48  1  6  0  0  0
  4 49  1  0  0  0  0
 49 50  2  0  0  0  0
 49 51  1  0  0  0  0
M  END
>  <cdx:fragmentId>
5

$$$$
