3077.cdx
  Mrv1902 05222410272D          

 43 45  0  0  0  0            999 V2000
    7.1521   -7.6530    0.0000 C   0  0  2  0  0  0  0  0  0  0  0  0
    6.4370   -8.0644    0.0000 C   0  0  0  0  0  0  0  0  0  0  0  0
    6.4357   -8.8894    0.0000 C   0  0  2  0  0  0  0  0  0  0  0  0
    7.1495   -9.3030    0.0000 C   0  0  1  0  0  0  0  0  0  0  0  0
    7.8647   -8.8916    0.0000 C   0  0  1  0  0  0  0  0  0  0  0  0
    7.8659   -8.0666    0.0000 C   0  0  0  0  0  0  0  0  0  0  0  0
    5.7206   -9.3008    0.0000 O   0  0  0  0  0  0  0  0  0  0  0  0
    6.7396   -6.9385    0.0000 O   0  0  0  0  0  0  0  0  0  0  0  0
    7.5646   -6.9385    0.0000 C   0  0  0  0  0  0  0  0  0  0  0  0
    7.1521   -6.2241    0.0000 O   0  0  0  0  0  0  0  0  0  0  0  0
    8.3896   -6.9385    0.0000 O   0  0  0  0  0  0  0  0  0  0  0  0
    8.5785   -9.3052    0.0000 O   0  0  0  0  0  0  0  0  0  0  0  0
    7.1483  -10.1280    0.0000 O   0  0  0  0  0  0  0  0  0  0  0  0
    9.2936   -8.8938    0.0000 C   0  0  0  0  0  0  0  0  0  0  0  0
   10.0074   -9.3074    0.0000 C   0  0  0  0  0  0  0  0  0  0  0  0
    9.2949   -8.0688    0.0000 O   0  0  0  0  0  0  0  0  0  0  0  0
   10.7225   -8.8961    0.0000 C   0  0  0  0  0  0  0  0  0  0  0  0
   11.4364   -9.3097    0.0000 C   0  0  0  0  0  0  0  0  0  0  0  0
   11.4344  -10.1347    0.0000 C   0  0  0  0  0  0  0  0  0  0  0  0
   12.1480  -10.5488    0.0000 C   0  0  0  0  0  0  0  0  0  0  0  0
   12.8634  -10.1347    0.0000 C   0  0  0  0  0  0  0  0  0  0  0  0
   12.8634   -9.3097    0.0000 C   0  0  0  0  0  0  0  0  0  0  0  0
   12.1480   -8.8955    0.0000 C   0  0  0  0  0  0  0  0  0  0  0  0
   13.5781   -8.8976    0.0000 O   0  0  0  0  0  0  0  0  0  0  0  0
   13.5781  -10.5467    0.0000 O   0  0  0  0  0  0  0  0  0  0  0  0
    6.4332  -10.5394    0.0000 C   0  0  0  0  0  0  0  0  0  0  0  0
    5.7193  -10.1258    0.0000 O   0  0  0  0  0  0  0  0  0  0  0  0
    6.4319  -11.3644    0.0000 C   0  0  0  0  0  0  0  0  0  0  0  0
    5.7168  -11.7758    0.0000 C   0  0  0  0  0  0  0  0  0  0  0  0
    5.7155  -12.6008    0.0000 C   0  0  0  0  0  0  0  0  0  0  0  0
    5.0013  -13.0138    0.0000 C   0  0  0  0  0  0  0  0  0  0  0  0
    5.0013  -13.8388    0.0000 C   0  0  0  0  0  0  0  0  0  0  0  0
    5.7155  -14.2508    0.0000 C   0  0  0  0  0  0  0  0  0  0  0  0
    6.4296  -13.8388    0.0000 C   0  0  0  0  0  0  0  0  0  0  0  0
    6.4296  -13.0138    0.0000 C   0  0  0  0  0  0  0  0  0  0  0  0
    5.7155  -15.0758    0.0000 O   0  0  0  0  0  0  0  0  0  0  0  0
    4.2869  -14.2515    0.0000 O   0  0  0  0  0  0  0  0  0  0  0  0
    5.9146   -6.9385    0.0000 C   0  0  0  0  0  0  0  0  0  0  0  0
    5.5021   -6.2241    0.0000 C   0  0  0  0  0  0  0  0  0  0  0  0
    5.5021   -7.6530    0.0000 O   0  0  0  0  0  0  0  0  0  0  0  0
    4.6771   -6.2241    0.0000 C   0  0  0  0  0  0  0  0  0  0  0  0
    4.2646   -6.9385    0.0000 O   0  0  0  0  0  0  0  0  0  0  0  0
    4.2646   -5.5096    0.0000 O   0  0  0  0  0  0  0  0  0  0  0  0
  1  2  1  0  0  0  0
  2  3  1  0  0  0  0
  3  4  1  0  0  0  0
  4  5  1  0  0  0  0
  5  6  1  0  0  0  0
  1  6  1  0  0  0  0
  5 12  1  1  0  0  0
  4 13  1  1  0  0  0
  3  7  1  6  0  0  0
  1  8  1  1  0  0  0
  1  9  1  0  0  0  0
  9 10  2  0  0  0  0
  9 11  1  0  0  0  0
 12 14  1  0  0  0  0
 14 15  1  0  0  0  0
 14 16  2  0  0  0  0
 15 17  2  0  0  0  0
 17 18  1  0  0  0  0
 18 19  2  0  0  0  0
 19 20  1  0  0  0  0
 20 21  2  0  0  0  0
 21 22  1  0  0  0  0
 22 23  2  0  0  0  0
 23 18  1  0  0  0  0
 22 24  1  0  0  0  0
 21 25  1  0  0  0  0
 13 26  1  0  0  0  0
 26 27  2  0  0  0  0
 26 28  1  0  0  0  0
 28 29  2  0  0  0  0
 29 30  1  0  0  0  0
 30 31  2  0  0  0  0
 31 32  1  0  0  0  0
 32 33  2  0  0  0  0
 33 34  1  0  0  0  0
 34 35  2  0  0  0  0
 35 30  1  0  0  0  0
 33 36  1  0  0  0  0
 32 37  1  0  0  0  0
  8 38  1  0  0  0  0
 38 39  1  0  0  0  0
 38 40  2  0  0  0  0
 39 41  1  0  0  0  0
 41 42  2  0  0  0  0
 41 43  1  0  0  0  0
M  END
>  <cdx:fragmentId>
37

$$$$
