307887.cdx
  Mrv1902 05222410242D          

 72 80  0  0  0  0            999 V2000
   16.9946   -5.9724    0.0000 C   0  0  0  0  0  0  0  0  0  0  0  0
   16.2801   -6.3849    0.0000 C   0  0  0  0  0  0  0  0  0  0  0  0
   15.5657   -5.9724    0.0000 C   0  0  0  0  0  0  0  0  0  0  0  0
   14.8512   -6.3849    0.0000 C   0  0  0  0  0  0  0  0  0  0  0  0
   16.9946   -5.1474    0.0000 O   0  0  0  0  0  0  0  0  0  0  0  0
   17.7091   -6.3849    0.0000 O   0  0  0  0  0  0  0  0  0  0  0  0
   15.5657   -8.4474    0.0000 C   0  0  0  0  0  0  0  0  0  0  0  0
   14.8512   -8.8599    0.0000 C   0  0  0  0  0  0  0  0  0  0  0  0
   14.8512   -9.6849    0.0000 C   0  0  0  0  0  0  0  0  0  0  0  0
   15.5657  -10.0974    0.0000 C   0  0  0  0  0  0  0  0  0  0  0  0
   16.2801   -9.6849    0.0000 C   0  0  0  0  0  0  0  0  0  0  0  0
   16.9946  -10.0974    0.0000 C   0  0  0  0  0  0  0  0  0  0  0  0
   17.7091   -9.6849    0.0000 C   0  0  0  0  0  0  0  0  0  0  0  0
   17.7091   -8.8599    0.0000 C   0  0  1  0  0  0  0  0  0  0  0  0
   18.4236   -8.4474    0.0000 C   0  0  1  0  0  0  0  0  0  0  0  0
   19.2082   -8.7024    0.0000 C   0  0  0  0  0  0  0  0  0  0  0  0
   19.6931   -8.0349    0.0000 C   0  0  0  0  0  0  0  0  0  0  0  0
   19.2082   -7.3675    0.0000 C   0  0  1  0  0  0  0  0  0  0  0  0
   18.4236   -7.6224    0.0000 C   0  0  1  0  0  0  0  0  0  0  0  0
   17.7091   -7.2099    0.0000 C   0  0  1  0  0  0  0  0  0  0  0  0
   16.9946   -7.6224    0.0000 C   0  0  0  0  0  0  0  0  0  0  0  0
   16.9946   -8.4474    0.0000 C   0  0  2  0  0  0  0  0  0  0  0  0
   16.2801   -8.8599    0.0000 C   0  0  1  0  0  0  0  0  0  0  0  0
   18.5098   -6.8019    0.0000 C   0  0  0  0  0  0  0  0  0  0  0  0
   16.2801   -8.0349    0.0000 C   0  0  0  0  0  0  0  0  0  0  0  0
   14.1367  -10.0974    0.0000 O   0  0  0  0  0  0  0  0  0  0  0  0
   13.4223   -8.8599    0.0000 O   0  0  0  0  0  0  0  0  0  0  0  0
   13.4223   -9.6849    0.0000 C   0  0  2  0  0  0  0  0  0  0  0  0
   12.7078  -10.0974    0.0000 C   0  0  0  0  0  0  0  0  0  0  0  0
   11.9933   -9.6849    0.0000 C   0  0  0  0  0  0  0  0  0  0  0  0
   11.9933   -8.8599    0.0000 C   0  0  1  0  0  0  0  0  0  0  0  0
   12.7078   -8.4474    0.0000 C   0  0  1  0  0  0  0  0  0  0  0  0
   12.7078   -7.6224    0.0000 C   0  0  0  0  0  0  0  0  0  0  0  0
    8.4179  -10.0921    0.0000 O   0  0  0  0  0  0  0  0  0  0  0  0
    7.7057   -8.8533    0.0000 O   0  0  0  0  0  0  0  0  0  0  0  0
    7.7042   -9.6783    0.0000 C   0  0  2  0  0  0  0  0  0  0  0  0
    6.9890  -10.0895    0.0000 C   0  0  0  0  0  0  0  0  0  0  0  0
    6.2753   -9.6757    0.0000 C   0  0  0  0  0  0  0  0  0  0  0  0
    6.2768   -8.8507    0.0000 C   0  0  1  0  0  0  0  0  0  0  0  0
    6.9920   -8.4395    0.0000 C   0  0  1  0  0  0  0  0  0  0  0  0
    6.9936   -7.6145    0.0000 C   0  0  0  0  0  0  0  0  0  0  0  0
   19.0367   -6.5605    0.0000 O   0  0  0  0  0  0  0  0  0  0  0  0
   18.4236   -9.2724    0.0000 O   0  0  0  0  0  0  0  0  0  0  0  0
   17.7091   -8.0349    0.0000 O   0  0  0  0  0  0  0  0  0  0  0  0
   19.6497   -6.0085    0.0000 C   0  0  0  0  0  0  0  0  0  0  0  0
   16.9946   -9.2724    0.0000 H   0  0  0  0  0  0  0  0  0  0  0  0
    2.7014  -10.0802    0.0000 O   0  0  0  0  0  0  0  0  0  0  0  0
    3.4130  -11.3194    0.0000 C   0  0  0  0  0  0  0  0  0  0  0  0
    4.1285  -10.9085    0.0000 O   0  0  0  0  0  0  0  0  0  0  0  0
    2.7052   -8.4302    0.0000 C   0  0  0  0  0  0  0  0  0  0  0  0
    3.4187   -8.8444    0.0000 C   0  0  1  0  0  0  0  0  0  0  0  0
    3.4168   -9.6694    0.0000 C   0  0  1  0  0  0  0  0  0  0  0  0
    4.1304  -10.0835    0.0000 C   0  0  1  0  0  0  0  0  0  0  0  0
    4.8458   -9.6727    0.0000 C   0  0  0  0  0  0  0  0  0  0  0  0
    4.8477   -8.8477    0.0000 C   0  0  1  0  0  0  0  0  0  0  0  0
    4.1342   -8.4335    0.0000 O   0  0  0  0  0  0  0  0  0  0  0  0
    5.5631   -8.4368    0.0000 O   0  0  0  0  0  0  0  0  0  0  0  0
    8.4210   -8.4421    0.0000 C   0  0  0  0  0  0  0  0  0  0  0  0
    9.1347   -8.8560    0.0000 C   0  0  1  0  0  0  0  0  0  0  0  0
    9.1331   -9.6810    0.0000 C   0  0  2  0  0  0  0  0  0  0  0  0
    9.8469  -10.0948    0.0000 C   0  0  0  0  0  0  0  0  0  0  0  0
   10.5621   -9.6836    0.0000 C   0  0  0  0  0  0  0  0  0  0  0  0
   10.5636   -8.8586    0.0000 C   0  0  1  0  0  0  0  0  0  0  0  0
    9.8499   -8.4448    0.0000 O   0  0  0  0  0  0  0  0  0  0  0  0
   11.2789   -8.4474    0.0000 O   0  0  0  0  0  0  0  0  0  0  0  0
   20.6059   -7.0704    0.0000 O   0  0  0  0  0  0  0  0  0  0  0  0
   19.8213   -6.8155    0.0000 C   0  0  0  0  0  0  0  0  0  0  0  0
   14.1367   -5.9724    0.0000 C   0  0  0  0  0  0  0  0  0  0  0  0
   13.4223   -6.3849    0.0000 C   0  0  0  0  0  0  0  0  0  0  0  0
   13.4223   -7.2099    0.0000 C   0  0  0  0  0  0  0  0  0  0  0  0
   14.1367   -7.6224    0.0000 C   0  0  0  0  0  0  0  0  0  0  0  0
   14.8512   -7.2099    0.0000 C   0  0  0  0  0  0  0  0  0  0  0  0
 63 65  1  1  0  0  0
 60 34  1  6  0  0  0
 55 57  1  1  0  0  0
 52 47  1  1  0  0  0
 53 49  1  1  0  0  0
 49 48  1  0  0  0  0
 51 50  1  6  0  0  0
 56 51  1  0  0  0  0
 52 51  1  0  0  0  0
 53 52  1  0  0  0  0
 54 53  1  0  0  0  0
 55 54  1  0  0  0  0
 56 55  1  0  0  0  0
 35 36  1  0  0  0  0
 59 58  1  6  0  0  0
 64 59  1  0  0  0  0
 60 59  1  0  0  0  0
 61 60  1  0  0  0  0
 62 61  1  0  0  0  0
 67 45  1  0  0  0  0
 67 66  2  0  0  0  0
  1  2  1  0  0  0  0
  2  3  2  0  0  0  0
  3  4  1  0  0  0  0
  1  5  2  0  0  0  0
  1  6  1  0  0  0  0
  7  8  1  0  0  0  0
  8  9  1  0  0  0  0
  9 10  1  0  0  0  0
 10 11  1  0  0  0  0
 11 12  2  0  0  0  0
 12 13  1  0  0  0  0
 13 14  1  0  0  0  0
 14 15  1  0  0  0  0
 15 16  1  0  0  0  0
 16 17  1  0  0  0  0
 17 18  1  0  0  0  0
 18 19  1  0  0  0  0
 15 19  1  0  0  0  0
 19 20  1  0  0  0  0
 20 21  1  0  0  0  0
 21 22  1  0  0  0  0
 14 22  1  0  0  0  0
 22 23  1  0  0  0  0
 11 23  1  0  0  0  0
  7 23  1  0  0  0  0
 19 24  1  1  0  0  0
 23 25  1  1  0  0  0
 27 28  1  0  0  0  0
 28 29  1  0  0  0  0
 29 30  1  0  0  0  0
 30 31  1  0  0  0  0
 31 32  1  0  0  0  0
 27 32  1  0  0  0  0
 32 33  1  1  0  0  0
 63 62  1  0  0  0  0
 64 63  1  0  0  0  0
 36 37  1  0  0  0  0
 37 38  1  0  0  0  0
 38 39  1  0  0  0  0
 39 40  1  0  0  0  0
 35 40  1  0  0  0  0
 40 41  1  1  0  0  0
 39 57  1  6  0  0  0
 36 34  1  1  0  0  0
 31 65  1  6  0  0  0
 28 26  1  1  0  0  0
  9 26  1  0  0  0  0
 18 42  1  1  0  0  0
 15 43  1  1  0  0  0
 14 44  1  1  0  0  0
 18 67  1  6  0  0  0
 20  6  1  1  0  0  0
 22 46  1  6  0  0  0
  4 68  2  0  0  0  0
 68 69  1  0  0  0  0
 69 70  2  0  0  0  0
 70 71  1  0  0  0  0
 71 72  2  0  0  0  0
 72  4  1  0  0  0  0
M  END
>  <cdx:fragmentId>
123

$$$$
