308.cdx
  Mrv1902 05222410282D          

 19 21  0  0  0  0            999 V2000
    6.8409   -8.7958    0.0000 N   0  0  0  0  0  0  0  0  0  0  0  0
    7.6201   -8.5249    0.0000 C   0  0  0  0  0  0  0  0  0  0  0  0
    7.6032   -7.7000    0.0000 C   0  0  0  0  0  0  0  0  0  0  0  0
    6.8135   -7.4612    0.0000 N   0  0  0  0  0  0  0  0  0  0  0  0
    6.3424   -8.1385    0.0000 C   0  0  0  0  0  0  0  0  0  0  0  0
    8.3429   -8.9226    0.0000 N   0  0  0  0  0  0  0  0  0  0  0  0
    9.0487   -8.4956    0.0000 C   0  0  0  0  0  0  0  0  0  0  0  0
    9.0487   -7.6708    0.0000 N   0  0  0  0  0  0  0  0  0  0  0  0
    8.3429   -7.2730    0.0000 C   0  0  0  0  0  0  0  0  0  0  0  0
    8.3429   -6.4480    0.0000 O   0  0  0  0  0  0  0  0  0  0  0  0
    9.7632   -8.9081    0.0000 N   0  0  0  0  0  0  0  0  0  0  0  0
    6.6021   -9.5855    0.0000 C   0  0  2  0  0  0  0  0  0  0  0  0
    5.8257   -9.8646    0.0000 O   0  0  0  0  0  0  0  0  0  0  0  0
    5.8257  -10.6892    0.0000 C   0  0  1  0  0  0  0  0  0  0  0  0
    6.6021  -10.9198    0.0000 C   0  0  2  0  0  0  0  0  0  0  0  0
    7.0661  -10.2377    0.0000 C   0  0  0  0  0  0  0  0  0  0  0  0
    6.8790  -11.6969    0.0000 O   0  0  0  0  0  0  0  0  0  0  0  0
    5.1645  -11.1825    0.0000 C   0  0  0  0  0  0  0  0  0  0  0  0
    5.2611  -12.0019    0.0000 O   0  0  0  0  0  0  0  0  0  0  0  0
  1  2  1  0  0  0  0
  2  3  2  0  0  0  0
  3  4  1  0  0  0  0
  4  5  2  0  0  0  0
  5  1  1  0  0  0  0
  2  6  1  0  0  0  0
  6  7  2  0  0  0  0
  7  8  1  0  0  0  0
  8  9  1  0  0  0  0
  9  3  1  0  0  0  0
  9 10  2  0  0  0  0
  7 11  1  0  0  0  0
 12  1  1  1  0  0  0
 12 13  1  0  0  0  0
 13 14  1  0  0  0  0
 14 15  1  0  0  0  0
 15 16  1  0  0  0  0
 16 12  1  0  0  0  0
 15 17  1  6  0  0  0
 14 18  1  1  0  0  0
 18 19  1  0  0  0  0
M  END
>  <cdx:fragmentId>
475

$$$$
