308174.cdx
  Mrv1902 05222410212D          

 26 27  0  0  0  0            999 V2000
    9.5219   -4.7432    0.0000 O   0  0  0  0  0  0  0  0  0  0  0  0
    8.8075   -8.9507    0.0000 O   0  0  0  0  0  0  0  0  0  0  0  0
    8.8075   -8.1257    0.0000 C   0  0  1  0  0  0  0  0  0  0  0  0
    8.0930   -7.7132    0.0000 C   0  0  2  0  0  0  0  0  0  0  0  0
    7.3785   -8.1257    0.0000 C   0  0  0  0  0  0  0  0  0  0  0  0
    6.6640   -7.7132    0.0000 C   0  0  0  0  0  0  0  0  0  0  0  0
    5.9496   -8.1257    0.0000 C   0  0  0  0  0  0  0  0  0  0  0  0
    5.9496   -8.9507    0.0000 C   0  0  0  0  0  0  0  0  0  0  0  0
    6.6640   -9.3632    0.0000 C   0  0  0  0  0  0  0  0  0  0  0  0
    7.3785   -8.9507    0.0000 C   0  0  0  0  0  0  0  0  0  0  0  0
    8.0930   -9.3632    0.0000 C   0  0  0  0  0  0  0  0  0  0  0  0
    8.0930  -10.1882    0.0000 O   0  0  0  0  0  0  0  0  0  0  0  0
    5.2351   -9.3632    0.0000 O   0  0  0  0  0  0  0  0  0  0  0  0
    5.2351   -7.7132    0.0000 O   0  0  0  0  0  0  0  0  0  0  0  0
    6.6640   -6.8882    0.0000 O   0  0  0  0  0  0  0  0  0  0  0  0
    9.5219   -7.7132    0.0000 C   0  0  0  0  0  0  0  0  0  0  0  0
    9.5219   -6.8882    0.0000 O   0  0  0  0  0  0  0  0  0  0  0  0
   10.2364   -8.1257    0.0000 O   0  0  0  0  0  0  0  0  0  0  0  0
    8.0930   -4.7432    0.0000 O   0  0  0  0  0  0  0  0  0  0  0  0
    6.6640   -6.3932    0.0000 O   0  0  0  0  0  0  0  0  0  0  0  0
    7.3785   -5.1557    0.0000 O   0  0  0  0  0  0  0  0  0  0  0  0
    8.8075   -5.1557    0.0000 C   0  0  0  0  0  0  0  0  0  0  0  0
    8.8075   -5.9807    0.0000 C   0  0  0  0  0  0  0  0  0  0  0  0
    8.0930   -6.3932    0.0000 C   0  0  2  0  0  0  0  0  0  0  0  0
    7.3785   -5.9807    0.0000 C   0  0  0  0  0  0  0  0  0  0  0  0
    7.5096   -7.1298    0.0000 H   0  0  0  0  0  0  0  0  0  0  0  0
 22  1  1  0  0  0  0
 22 19  2  0  0  0  0
 25 20  1  0  0  0  0
 25 21  2  0  0  0  0
 23 22  1  0  0  0  0
 24 23  1  1  0  0  0
 25 24  1  0  0  0  0
  2  3  1  0  0  0  0
  3  4  1  0  0  0  0
  4  5  1  0  0  0  0
  5  6  1  0  0  0  0
  6  7  2  0  0  0  0
  7  8  1  0  0  0  0
  8  9  2  0  0  0  0
  9 10  1  0  0  0  0
  5 10  2  0  0  0  0
 10 11  1  0  0  0  0
  2 11  1  0  0  0  0
 11 12  2  0  0  0  0
  8 13  1  0  0  0  0
  7 14  1  0  0  0  0
  6 15  1  0  0  0  0
 16 17  2  0  0  0  0
 16 18  1  0  0  0  0
  3 16  1  1  0  0  0
 24  4  1  0  0  0  0
  4 26  1  1  0  0  0
M  END
>  <cdx:fragmentId>
198324

$$$$
