308170.cdx
  Mrv1902 05222410222D          

 52 52  0  0  0  0            999 V2000
    3.3554  -10.0229    0.0000 C   0  0  0  0  0  0  0  0  0  0  0  0
    3.3434   -9.1979    0.0000 O   0  0  0  0  0  0  0  0  0  0  0  0
    2.6471  -10.4457    0.0000 O   0  0  0  0  0  0  0  0  0  0  0  0
    4.0759  -10.4249    0.0000 C   0  0  0  0  0  0  0  0  0  0  0  0
    5.5047  -10.4040    0.0000 C   0  0  0  0  0  0  0  0  0  0  0  0
    6.2130   -9.9812    0.0000 N   0  0  0  0  0  0  0  0  0  0  0  0
    5.5167  -11.2289    0.0000 O   0  0  0  0  0  0  0  0  0  0  0  0
    4.7842  -10.0020    0.0000 C   0  0  1  0  0  0  0  0  0  0  0  0
    4.7722   -9.1771    0.0000 N   0  0  0  0  0  0  0  0  0  0  0  0
    7.7866   -9.2165    0.0000 O   0  0  0  0  0  0  0  0  0  0  0  0
    8.4937  -10.4582    0.0000 N   0  0  0  0  0  0  0  0  0  0  0  0
    7.7817  -10.0415    0.0000 C   0  0  0  0  0  0  0  0  0  0  0  0
    7.0648  -10.4497    0.0000 C   0  0  2  0  0  0  0  0  0  0  0  0
    7.0499  -12.9246    0.0000 O   0  0  0  0  0  0  0  0  0  0  0  0
    5.6210  -12.9161    0.0000 O   0  0  0  0  0  0  0  0  0  0  0  0
    6.3379  -12.5079    0.0000 C   0  0  0  0  0  0  0  0  0  0  0  0
    7.0598  -11.2747    0.0000 C   0  0  0  0  0  0  0  0  0  0  0  0
    6.3429  -11.6829    0.0000 C   0  0  0  0  0  0  0  0  0  0  0  0
   10.6647  -10.0154    0.0000 N   0  0  0  0  0  0  0  0  0  0  0  0
    9.9662  -11.2620    0.0000 O   0  0  0  0  0  0  0  0  0  0  0  0
    9.2359  -10.0337    0.0000 C   0  0  2  0  0  0  0  0  0  0  0  0
    9.9556  -10.4370    0.0000 C   0  0  0  0  0  0  0  0  0  0  0  0
   10.6542   -9.1905    0.0000 O   0  0  0  0  0  0  0  0  0  0  0  0
    9.9239   -7.9622    0.0000 N   0  0  0  0  0  0  0  0  0  0  0  0
    9.9345   -8.7872    0.0000 C   0  0  0  0  0  0  0  0  0  0  0  0
    9.2253   -9.2088    0.0000 C   0  0  0  0  0  0  0  0  0  0  0  0
   11.4399  -11.2158    0.0000 C   0  0  0  0  0  0  0  0  0  0  0  0
   12.1551  -11.6271    0.0000 O   0  0  0  0  0  0  0  0  0  0  0  0
   12.1508   -9.1521    0.0000 O   0  0  0  0  0  0  0  0  0  0  0  0
   12.8674  -10.3884    0.0000 N   0  0  0  0  0  0  0  0  0  0  0  0
   12.1522   -9.9771    0.0000 C   0  0  0  0  0  0  0  0  0  0  0  0
   11.4385  -10.3908    0.0000 C   0  0  1  0  0  0  0  0  0  0  0  0
   13.6507   -9.9676    0.0000 C   0  0  2  0  0  0  0  0  0  0  0  0
   14.3652  -10.3801    0.0000 C   0  0  0  0  0  0  0  0  0  0  0  0
   15.0797   -9.9676    0.0000 N   0  0  0  0  0  0  0  0  0  0  0  0
   14.3652  -11.2051    0.0000 O   0  0  0  0  0  0  0  0  0  0  0  0
   13.6507   -9.1426    0.0000 C   0  0  0  0  0  0  0  0  0  0  0  0
   12.9363   -8.7301    0.0000 C   0  0  0  0  0  0  0  0  0  0  0  0
   12.9363   -7.9051    0.0000 C   0  0  0  0  0  0  0  0  0  0  0  0
   12.2218   -7.4926    0.0000 C   0  0  0  0  0  0  0  0  0  0  0  0
   12.2218   -6.6676    0.0000 N   0  0  0  0  0  0  0  0  0  0  0  0
   15.8583  -11.2087    0.0000 C   0  0  0  0  0  0  0  0  0  0  0  0
   16.5712  -11.6238    0.0000 C   0  0  0  0  0  0  0  0  0  0  0  0
   16.5682  -12.4488    0.0000 C   0  0  0  0  0  0  0  0  0  0  0  0
   17.2812  -12.8640    0.0000 C   0  0  0  0  0  0  0  0  0  0  0  0
   17.9971  -12.4541    0.0000 C   0  0  0  0  0  0  0  0  0  0  0  0
   18.0002  -11.6291    0.0000 C   0  0  0  0  0  0  0  0  0  0  0  0
   17.2872  -11.2140    0.0000 C   0  0  0  0  0  0  0  0  0  0  0  0
   16.5804   -9.1489    0.0000 O   0  0  0  0  0  0  0  0  0  0  0  0
   17.2903  -10.3890    0.0000 O   0  0  0  0  0  0  0  0  0  0  0  0
   16.5773   -9.9739    0.0000 C   0  0  0  0  0  0  0  0  0  0  0  0
   15.8613  -10.3837    0.0000 C   0  0  1  0  0  0  0  0  0  0  0  0
  1  2  2  0  0  0  0
  4  1  1  0  0  0  0
  1  3  1  0  0  0  0
  8  4  1  0  0  0  0
  5  6  1  0  0  0  0
  8  5  1  0  0  0  0
  5  7  2  0  0  0  0
  8  9  1  6  0  0  0
 12 10  2  0  0  0  0
 12 11  1  0  0  0  0
 13 12  1  0  0  0  0
 17 13  1  0  0  0  0
 16 14  2  0  0  0  0
 16 15  1  0  0  0  0
 18 16  1  0  0  0  0
 18 17  1  0  0  0  0
 22 19  1  0  0  0  0
 22 20  2  0  0  0  0
 22 21  1  0  0  0  0
 25 23  2  0  0  0  0
 21 26  1  0  0  0  0
 25 24  1  0  0  0  0
 26 25  1  0  0  0  0
 32 27  1  0  0  0  0
 27 28  1  0  0  0  0
 31 29  2  0  0  0  0
 31 30  1  0  0  0  0
 32 31  1  0  0  0  0
 33 34  1  0  0  0  0
 34 35  1  0  0  0  0
 34 36  2  0  0  0  0
 33 37  1  0  0  0  0
 37 38  1  0  0  0  0
 38 39  1  0  0  0  0
 39 40  1  0  0  0  0
 40 41  1  0  0  0  0
 42 43  1  0  0  0  0
 43 44  2  0  0  0  0
 44 45  1  0  0  0  0
 45 46  2  0  0  0  0
 46 47  1  0  0  0  0
 47 48  2  0  0  0  0
 52 42  1  0  0  0  0
 48 43  1  0  0  0  0
 51 49  2  0  0  0  0
 51 50  1  0  0  0  0
 52 51  1  0  0  0  0
 13  6  1  6  0  0  0
 21 11  1  1  0  0  0
 32 19  1  6  0  0  0
 33 30  1  1  0  0  0
 52 35  1  6  0  0  0
M  END
>  <cdx:fragmentId>
3

$$$$
