308619.cdx
  Mrv1902 05222410232D          

 35 39  0  0  0  0            999 V2000
    8.9060   -7.7630    0.0000 C   0  0  2  0  0  0  0  0  0  0  0  0
    9.6205   -8.1755    0.0000 C   0  0  2  0  0  0  0  0  0  0  0  0
    9.6205   -9.0005    0.0000 C   0  0  0  0  0  0  0  0  0  0  0  0
    8.9060   -9.4130    0.0000 C   0  0  0  0  0  0  0  0  0  0  0  0
    8.1915   -9.0005    0.0000 C   0  0  2  0  0  0  0  0  0  0  0  0
    7.4771   -9.4130    0.0000 C   0  0  1  0  0  0  0  0  0  0  0  0
    7.4771  -10.2380    0.0000 C   0  0  0  0  0  0  0  0  0  0  0  0
    6.7626  -10.6505    0.0000 C   0  0  0  0  0  0  0  0  0  0  0  0
    6.0481  -10.2380    0.0000 C   0  0  1  0  0  0  0  0  0  0  0  0
    5.3337  -10.6505    0.0000 C   0  0  0  0  0  0  0  0  0  0  0  0
    4.6192  -10.2380    0.0000 C   0  0  2  0  0  0  0  0  0  0  0  0
    4.6192   -9.4130    0.0000 C   0  0  0  0  0  0  0  0  0  0  0  0
    5.3337   -9.0005    0.0000 C   0  0  0  0  0  0  0  0  0  0  0  0
    6.0481   -9.4130    0.0000 C   0  0  2  0  0  0  0  0  0  0  0  0
    6.7626   -9.0005    0.0000 C   0  0  0  0  0  0  0  0  0  0  0  0
    6.7626   -8.1755    0.0000 C   0  0  0  0  0  0  0  0  0  0  0  0
    7.4771   -7.7630    0.0000 C   0  0  0  0  0  0  0  0  0  0  0  0
    8.1915   -8.1755    0.0000 C   0  0  1  0  0  0  0  0  0  0  0  0
   10.2336   -7.6235    0.0000 C   0  0  2  0  0  0  0  0  0  0  0  0
    9.8980   -6.8698    0.0000 C   0  0  0  0  0  0  0  0  0  0  0  0
    9.0775   -6.9561    0.0000 C   0  0  0  0  0  0  0  0  0  0  0  0
   11.2955   -8.5797    0.0000 C   0  0  0  0  0  0  0  0  0  0  0  0
   11.0405   -7.7950    0.0000 C   0  0  0  0  0  0  0  0  0  0  0  0
   11.6239   -7.2117    0.0000 C   0  0  0  0  0  0  0  0  0  0  0  0
    8.1915   -7.3505    0.0000 C   0  0  0  0  0  0  0  0  0  0  0  0
    6.0481   -8.5880    0.0000 C   0  0  0  0  0  0  0  0  0  0  0  0
    5.7462  -11.3650    0.0000 C   0  0  0  0  0  0  0  0  0  0  0  0
    4.9212  -11.3650    0.0000 C   0  0  0  0  0  0  0  0  0  0  0  0
    8.1915   -9.8255    0.0000 C   0  0  0  0  0  0  0  0  0  0  0  0
   10.3742   -8.5111    0.0000 C   0  0  0  0  0  0  0  0  0  0  0  0
    3.9047  -10.6505    0.0000 O   0  0  0  0  0  0  0  0  0  0  0  0
    3.1902  -10.2380    0.0000 C   0  0  0  0  0  0  0  0  0  0  0  0
    7.4771   -8.5880    0.0000 H   0  0  0  0  0  0  0  0  0  0  0  0
    6.0481  -11.0630    0.0000 H   0  0  0  0  0  0  0  0  0  0  0  0
    8.9060   -8.5880    0.0000 H   0  0  0  0  0  0  0  0  0  0  0  0
  1  2  1  0  0  0  0
  2  3  1  0  0  0  0
  3  4  1  0  0  0  0
  4  5  1  0  0  0  0
  5  6  1  0  0  0  0
  6  7  1  0  0  0  0
  7  8  1  0  0  0  0
  8  9  1  0  0  0  0
  9 10  1  0  0  0  0
 10 11  1  0  0  0  0
 11 12  1  0  0  0  0
 12 13  1  0  0  0  0
 13 14  1  0  0  0  0
  9 14  1  0  0  0  0
 14 15  1  0  0  0  0
  6 15  1  0  0  0  0
 15 16  2  0  0  0  0
 16 17  1  0  0  0  0
 17 18  1  0  0  0  0
  5 18  1  0  0  0  0
  1 18  1  0  0  0  0
 19 20  1  0  0  0  0
 20 21  1  0  0  0  0
 21  1  1  0  0  0  0
 19  2  1  0  0  0  0
 22 23  1  0  0  0  0
 23 24  1  0  0  0  0
 19 23  1  6  0  0  0
 18 25  1  6  0  0  0
 14 26  1  1  0  0  0
 10 27  1  0  0  0  0
 10 28  1  0  0  0  0
  5 29  1  1  0  0  0
  2 30  1  6  0  0  0
 31 32  1  0  0  0  0
 11 31  1  1  0  0  0
  6 33  1  6  0  0  0
  9 34  1  6  0  0  0
  1 35  1  1  0  0  0
M  END
>  <cdx:groupId>
88954

>  <cdx:fragmentId>
88848

$$$$
