308614.cdx
  Mrv1902 05222410222D          

 16 18  0  0  0  0            999 V2000
    7.7648   -7.2890    0.0000 C   0  0  0  0  0  0  0  0  0  0  0  0
    6.9802   -7.0340    0.0000 C   0  0  0  0  0  0  0  0  0  0  0  0
    6.4953   -7.7015    0.0000 C   0  0  0  0  0  0  0  0  0  0  0  0
    6.9802   -8.3689    0.0000 C   0  0  0  0  0  0  0  0  0  0  0  0
    7.7648   -8.1140    0.0000 C   0  0  0  0  0  0  0  0  0  0  0  0
    8.4098   -8.6284    0.0000 C   0  0  0  0  0  0  0  0  0  0  0  0
    9.2142   -8.4448    0.0000 C   0  0  0  0  0  0  0  0  0  0  0  0
    9.5721   -7.7015    0.0000 C   0  0  0  0  0  0  0  0  0  0  0  0
    9.2142   -6.9582    0.0000 C   0  0  0  0  0  0  0  0  0  0  0  0
    8.4098   -6.7746    0.0000 C   0  0  0  0  0  0  0  0  0  0  0  0
    8.8221   -7.4483    0.0000 C   0  0  0  0  0  0  0  0  0  0  0  0
    5.6703   -7.7015    0.0000 O   0  0  0  0  0  0  0  0  0  0  0  0
    8.9447   -6.6325    0.0000 C   0  0  0  0  0  0  0  0  0  0  0  0
    9.5899   -7.1466    0.0000 C   0  0  0  0  0  0  0  0  0  0  0  0
    8.2263   -5.9703    0.0000 C   0  0  0  0  0  0  0  0  0  0  0  0
    6.7253   -9.1535    0.0000 C   0  0  0  0  0  0  0  0  0  0  0  0
  1  2  1  0  0  0  0
  2  3  1  0  0  0  0
  3  4  1  0  0  0  0
  4  5  2  0  0  0  0
  5  6  1  0  0  0  0
  6  7  1  0  0  0  0
  7  8  1  0  0  0  0
  8  9  1  0  0  0  0
  9 10  1  0  0  0  0
  1 10  1  0  0  0  0
  1 11  1  0  0  0  0
 11  7  1  0  0  0  0
  1  5  1  0  0  0  0
  3 12  2  0  0  0  0
 11 13  1  0  0  0  0
 11 14  1  0  0  0  0
 10 15  1  0  0  0  0
  4 16  1  0  0  0  0
M  END
>  <cdx:fragmentId>
30221

$$$$
