308848.cdx
  Mrv1902 05222410262D          

 17 19  0  0  0  0            999 V2000
    6.3872   -7.6422    0.0000 C   0  0  0  0  0  0  0  0  0  0  0  0
    5.5800   -7.8126    0.0000 O   0  0  0  0  0  0  0  0  0  0  0  0
    7.4295   -5.7792    0.0000 C   0  0  1  0  0  0  0  0  0  0  0  0
    6.6452   -5.5231    0.0000 C   0  0  0  0  0  0  0  0  0  0  0  0
    6.1594   -6.1898    0.0000 C   0  0  0  0  0  0  0  0  0  0  0  0
    6.6433   -6.8580    0.0000 C   0  0  0  0  0  0  0  0  0  0  0  0
    7.4283   -6.6042    0.0000 C   0  0  0  0  0  0  0  0  0  0  0  0
    8.0726   -7.1195    0.0000 C   0  0  0  0  0  0  0  0  0  0  0  0
    8.8771   -6.9371    0.0000 C   0  0  1  0  0  0  0  0  0  0  0  0
    9.2362   -6.1943    0.0000 C   0  0  0  0  0  0  0  0  0  0  0  0
    8.8793   -5.4505    0.0000 C   0  0  0  0  0  0  0  0  0  0  0  0
    8.0752   -5.2657    0.0000 C   0  0  1  0  0  0  0  0  0  0  0  0
    8.4880   -5.9412    0.0000 C   0  0  0  0  0  0  0  0  0  0  0  0
    8.6125   -5.1257    0.0000 C   0  0  0  0  0  0  0  0  0  0  0  0
    9.2565   -5.6413    0.0000 C   0  0  0  0  0  0  0  0  0  0  0  0
    7.8928   -4.4611    0.0000 C   0  0  0  0  0  0  0  0  0  0  0  0
    9.3906   -7.5828    0.0000 H   0  0  0  0  0  0  0  0  0  0  0  0
  1  2  1  0  0  0  0
  3  4  1  1  0  0  0
  4  5  1  0  0  0  0
  5  6  1  0  0  0  0
  6  7  2  0  0  0  0
  7  8  1  0  0  0  0
  8  9  1  0  0  0  0
  9 10  1  0  0  0  0
 10 11  1  0  0  0  0
 11 12  1  0  0  0  0
  3 12  1  0  0  0  0
  3 13  1  0  0  0  0
  9 13  1  0  0  0  0
  3  7  1  0  0  0  0
 13 14  1  0  0  0  0
 13 15  1  0  0  0  0
 12 16  1  6  0  0  0
  1  6  1  0  0  0  0
  9 17  1  1  0  0  0
M  END
>  <cdx:fragmentId>
88974

$$$$
