3089.cdx
  Mrv1902 05222410272D          

 27 28  0  0  0  0            999 V2000
    1.9077   -6.8819    0.0000 C   0  0  0  0  0  0  0  0  0  0  0  0
    1.9077   -7.7069    0.0000 C   0  0  0  0  0  0  0  0  0  0  0  0
    2.6221   -8.1194    0.0000 C   0  0  0  0  0  0  0  0  0  0  0  0
    3.3366   -7.7069    0.0000 C   0  0  0  0  0  0  0  0  0  0  0  0
    3.3366   -6.8819    0.0000 C   0  0  0  0  0  0  0  0  0  0  0  0
    2.6221   -6.4694    0.0000 C   0  0  0  0  0  0  0  0  0  0  0  0
    4.0511   -8.1194    0.0000 N   0  0  0  0  0  0  0  0  0  0  0  0
    4.7655   -7.7069    0.0000 C   0  0  0  0  0  0  0  0  0  0  0  0
    4.7655   -6.8819    0.0000 C   0  0  0  0  0  0  0  0  0  0  0  0
    4.0511   -6.4694    0.0000 C   0  0  0  0  0  0  0  0  0  0  0  0
    4.0511   -5.6444    0.0000 O   0  0  0  0  0  0  0  0  0  0  0  0
    5.4800   -8.1194    0.0000 C   0  0  0  0  0  0  0  0  0  0  0  0
    4.0511   -8.9444    0.0000 C   0  0  0  0  0  0  0  0  0  0  0  0
    6.1945   -7.7069    0.0000 C   0  0  0  0  0  0  0  0  0  0  0  0
    6.9090   -8.1194    0.0000 C   0  0  0  0  0  0  0  0  0  0  0  0
    7.6234   -7.7069    0.0000 C   0  0  0  0  0  0  0  0  0  0  0  0
    8.3379   -8.1194    0.0000 C   0  0  0  0  0  0  0  0  0  0  0  0
    9.0524   -7.7069    0.0000 C   0  0  0  0  0  0  0  0  0  0  0  0
    9.7668   -8.1194    0.0000 C   0  0  0  0  0  0  0  0  0  0  0  0
    9.7668   -8.9444    0.0000 C   0  0  0  0  0  0  0  0  0  0  0  0
   10.4813   -9.3569    0.0000 C   0  0  0  0  0  0  0  0  0  0  0  0
   10.4813  -10.1819    0.0000 C   0  0  0  0  0  0  0  0  0  0  0  0
    9.7668  -10.5944    0.0000 C   0  0  0  0  0  0  0  0  0  0  0  0
    9.7668  -11.4194    0.0000 C   0  0  0  0  0  0  0  0  0  0  0  0
    9.0524  -11.8319    0.0000 C   0  0  0  0  0  0  0  0  0  0  0  0
    9.0524  -12.6569    0.0000 C   0  0  0  0  0  0  0  0  0  0  0  0
    8.3379  -13.0694    0.0000 C   0  0  0  0  0  0  0  0  0  0  0  0
  1  2  2  0  0  0  0
  2  3  1  0  0  0  0
  3  4  2  0  0  0  0
  4  5  1  0  0  0  0
  5  6  2  0  0  0  0
  6  1  1  0  0  0  0
  4  7  1  0  0  0  0
  7  8  1  0  0  0  0
  8  9  2  0  0  0  0
  9 10  1  0  0  0  0
 10  5  1  0  0  0  0
 10 11  2  0  0  0  0
  8 12  1  0  0  0  0
  7 13  1  0  0  0  0
 12 14  1  0  0  0  0
 14 15  1  0  0  0  0
 15 16  1  0  0  0  0
 16 17  1  0  0  0  0
 17 18  1  0  0  0  0
 18 19  2  0  0  0  0
 19 20  1  0  0  0  0
 20 21  1  0  0  0  0
 21 22  2  0  0  0  0
 22 23  1  0  0  0  0
 23 24  1  0  0  0  0
 24 25  1  0  0  0  0
 25 26  1  0  0  0  0
 26 27  1  0  0  0  0
M  END
>  <cdx:fragmentId>
5

$$$$
