309056.cdx
  Mrv1902 05222410212D          

 71 81  0  0  0  0            999 V2000
    3.7793   -8.5527    0.0000 C   0  0  0  0  0  0  0  0  0  0  0  0
    3.2009   -7.9644    0.0000 C   0  0  0  0  0  0  0  0  0  0  0  0
    3.4211   -7.1694    0.0000 C   0  0  0  0  0  0  0  0  0  0  0  0
    4.2198   -6.9626    0.0000 C   0  0  0  0  0  0  0  0  0  0  0  0
    4.7982   -7.5509    0.0000 C   0  0  0  0  0  0  0  0  0  0  0  0
    4.5780   -8.3459    0.0000 C   0  0  0  0  0  0  0  0  0  0  0  0
    3.5590   -9.3478    0.0000 O   0  0  0  0  0  0  0  0  0  0  0  0
    2.8427   -6.5811    0.0000 O   0  0  0  0  0  0  0  0  0  0  0  0
    6.1649   -6.0243    0.0000 O   0  0  0  0  0  0  0  0  0  0  0  0
    5.4267   -6.3926    0.0000 C   0  0  1  0  0  0  0  0  0  0  0  0
    5.5488   -7.2086    0.0000 C   0  0  2  0  0  0  0  0  0  0  0  0
    6.3626   -7.3445    0.0000 C   0  0  2  0  0  0  0  0  0  0  0  0
    6.7433   -6.6126    0.0000 C   0  0  2  0  0  0  0  0  0  0  0  0
    7.5256   -6.3506    0.0000 C   0  0  0  0  0  0  0  0  0  0  0  0
    7.6899   -5.5421    0.0000 C   0  0  0  0  0  0  0  0  0  0  0  0
    8.4721   -5.2801    0.0000 C   0  0  0  0  0  0  0  0  0  0  0  0
    9.0902   -5.8266    0.0000 C   0  0  0  0  0  0  0  0  0  0  0  0
    8.9259   -6.6351    0.0000 C   0  0  0  0  0  0  0  0  0  0  0  0
    8.1436   -6.8971    0.0000 C   0  0  0  0  0  0  0  0  0  0  0  0
    9.8725   -5.5646    0.0000 O   0  0  0  0  0  0  0  0  0  0  0  0
    4.6948   -6.0119    0.0000 C   0  0  0  0  0  0  0  0  0  0  0  0
    3.9991   -6.4554    0.0000 C   0  0  0  0  0  0  0  0  0  0  0  0
    3.2672   -6.0746    0.0000 C   0  0  0  0  0  0  0  0  0  0  0  0
    3.2310   -5.2504    0.0000 C   0  0  0  0  0  0  0  0  0  0  0  0
    3.9267   -4.8070    0.0000 C   0  0  0  0  0  0  0  0  0  0  0  0
    4.6586   -5.1877    0.0000 C   0  0  0  0  0  0  0  0  0  0  0  0
    2.4991   -4.8697    0.0000 O   0  0  0  0  0  0  0  0  0  0  0  0
    6.8831  -10.2360    0.0000 O   0  0  0  0  0  0  0  0  0  0  0  0
    7.6558   -9.9468    0.0000 C   0  0  1  0  0  0  0  0  0  0  0  0
    7.6196   -9.1226    0.0000 C   0  0  2  0  0  0  0  0  0  0  0  0
    6.8245   -8.9024    0.0000 C   0  0  0  0  0  0  0  0  0  0  0  0
    6.4562   -8.1642    0.0000 C   0  0  0  0  0  0  0  0  0  0  0  0
    5.6327   -8.1140    0.0000 C   0  0  0  0  0  0  0  0  0  0  0  0
    5.1775   -8.8021    0.0000 C   0  0  0  0  0  0  0  0  0  0  0  0
    5.5459   -9.5403    0.0000 C   0  0  0  0  0  0  0  0  0  0  0  0
    6.3693   -9.5905    0.0000 C   0  0  0  0  0  0  0  0  0  0  0  0
    8.3438  -10.4020    0.0000 C   0  0  0  0  0  0  0  0  0  0  0  0
    9.0821  -10.0337    0.0000 C   0  0  0  0  0  0  0  0  0  0  0  0
    9.7701  -10.4888    0.0000 C   0  0  0  0  0  0  0  0  0  0  0  0
    9.7200  -11.3123    0.0000 C   0  0  0  0  0  0  0  0  0  0  0  0
    8.9818  -11.6806    0.0000 C   0  0  0  0  0  0  0  0  0  0  0  0
    8.2937  -11.2255    0.0000 C   0  0  0  0  0  0  0  0  0  0  0  0
   10.4081  -11.7675    0.0000 O   0  0  0  0  0  0  0  0  0  0  0  0
    4.3579   -8.8957    0.0000 O   0  0  0  0  0  0  0  0  0  0  0  0
   10.7630   -9.1208    0.0000 O   0  0  0  0  0  0  0  0  0  0  0  0
   10.4080   -9.8656    0.0000 C   0  0  2  0  0  0  0  0  0  0  0  0
    9.5900   -9.7581    0.0000 C   0  0  1  0  0  0  0  0  0  0  0  0
    9.4395   -8.9470    0.0000 C   0  0  0  0  0  0  0  0  0  0  0  0
    8.7359   -8.5161    0.0000 C   0  0  0  0  0  0  0  0  0  0  0  0
    8.7573   -7.6914    0.0000 C   0  0  0  0  0  0  0  0  0  0  0  0
    9.4822   -7.2975    0.0000 C   0  0  0  0  0  0  0  0  0  0  0  0
   10.1858   -7.7284    0.0000 C   0  0  0  0  0  0  0  0  0  0  0  0
   10.1644   -8.5531    0.0000 C   0  0  0  0  0  0  0  0  0  0  0  0
   10.9218  -10.5111    0.0000 C   0  0  0  0  0  0  0  0  0  0  0  0
   11.7377  -10.3889    0.0000 C   0  0  0  0  0  0  0  0  0  0  0  0
   12.2514  -11.0344    0.0000 C   0  0  0  0  0  0  0  0  0  0  0  0
   11.9493  -11.8021    0.0000 C   0  0  0  0  0  0  0  0  0  0  0  0
   11.1334  -11.9243    0.0000 C   0  0  0  0  0  0  0  0  0  0  0  0
   10.6196  -11.2788    0.0000 C   0  0  0  0  0  0  0  0  0  0  0  0
   12.4630  -12.4476    0.0000 O   0  0  0  0  0  0  0  0  0  0  0  0
    9.5036   -6.4728    0.0000 O   0  0  0  0  0  0  0  0  0  0  0  0
    8.3320  -11.6600    0.0000 C   0  0  0  0  0  0  0  0  0  0  0  0
    8.7003  -12.3982    0.0000 C   0  0  0  0  0  0  0  0  0  0  0  0
    8.2451  -13.0863    0.0000 C   0  0  0  0  0  0  0  0  0  0  0  0
    7.4217  -13.0361    0.0000 C   0  0  0  0  0  0  0  0  0  0  0  0
    7.0533  -12.2979    0.0000 C   0  0  0  0  0  0  0  0  0  0  0  0
    7.5085  -11.6098    0.0000 C   0  0  0  0  0  0  0  0  0  0  0  0
    6.2299  -12.2478    0.0000 O   0  0  0  0  0  0  0  0  0  0  0  0
    8.6135  -13.8245    0.0000 O   0  0  0  0  0  0  0  0  0  0  0  0
    7.1738   -7.4946    0.0000 H   0  0  0  0  0  0  0  0  0  0  0  0
    8.4164   -9.3362    0.0000 H   0  0  0  0  0  0  0  0  0  0  0  0
  1  2  1  0  0  0  0
  2  3  2  0  0  0  0
  3  4  1  0  0  0  0
  4  5  2  0  0  0  0
  5  6  1  0  0  0  0
  1  6  2  0  0  0  0
  1  7  1  0  0  0  0
  3  8  1  0  0  0  0
  9 10  1  0  0  0  0
 10 11  1  0  0  0  0
 11 12  1  0  0  0  0
 12 13  1  0  0  0  0
  9 13  1  0  0  0  0
 14 15  1  0  0  0  0
 15 16  2  0  0  0  0
 16 17  1  0  0  0  0
 17 18  2  0  0  0  0
 18 19  1  0  0  0  0
 14 19  2  0  0  0  0
 17 20  1  0  0  0  0
 13 14  1  1  0  0  0
 21 22  1  0  0  0  0
 22 23  2  0  0  0  0
 23 24  1  0  0  0  0
 24 25  2  0  0  0  0
 25 26  1  0  0  0  0
 21 26  2  0  0  0  0
 24 27  1  0  0  0  0
 10 21  1  1  0  0  0
 28 29  1  0  0  0  0
 29 30  1  0  0  0  0
 30 31  1  0  0  0  0
 31 32  1  0  0  0  0
 32 33  2  0  0  0  0
 33 34  1  0  0  0  0
 34 35  2  0  0  0  0
 35 36  1  0  0  0  0
 31 36  2  0  0  0  0
 28 36  1  0  0  0  0
 37 38  1  0  0  0  0
 38 39  2  0  0  0  0
 39 40  1  0  0  0  0
 40 41  2  0  0  0  0
 41 42  1  0  0  0  0
 37 42  2  0  0  0  0
 40 43  1  0  0  0  0
 29 37  1  1  0  0  0
 34 44  1  0  0  0  0
 45 46  1  0  0  0  0
 46 47  1  0  0  0  0
 47 48  1  0  0  0  0
 48 49  1  0  0  0  0
 49 50  2  0  0  0  0
 50 51  1  0  0  0  0
 51 52  2  0  0  0  0
 52 53  1  0  0  0  0
 48 53  2  0  0  0  0
 45 53  1  0  0  0  0
 54 55  1  0  0  0  0
 55 56  2  0  0  0  0
 56 57  1  0  0  0  0
 57 58  2  0  0  0  0
 58 59  1  0  0  0  0
 54 59  2  0  0  0  0
 57 60  1  0  0  0  0
 46 54  1  1  0  0  0
 51 61  1  0  0  0  0
 62 63  1  0  0  0  0
 63 64  2  0  0  0  0
 64 65  1  0  0  0  0
 65 66  2  0  0  0  0
 66 67  1  0  0  0  0
 62 67  2  0  0  0  0
 66 68  1  0  0  0  0
 64 69  1  0  0  0  0
 47 62  1  6  0  0  0
 30 49  1  0  0  0  0
 12 32  1  0  0  0  0
 11  5  1  6  0  0  0
 12 70  1  1  0  0  0
 30 71  1  1  0  0  0
M  END
>  <cdx:fragmentId>
93

$$$$
