309092.cdx
  Mrv1902 05222410222D          

 45 50  0  0  0  0            999 V2000
    6.4209  -12.5295    0.0000 C   0  0  1  0  0  0  0  0  0  0  0  0
    7.1354  -12.9420    0.0000 N   0  0  0  0  0  0  0  0  0  0  0  0
    7.1354  -13.7670    0.0000 C   0  0  0  0  0  0  0  0  0  0  0  0
    6.4209  -14.1795    0.0000 C   0  0  0  0  0  0  0  0  0  0  0  0
    5.7064  -13.7670    0.0000 C   0  0  0  0  0  0  0  0  0  0  0  0
    4.9919  -14.1795    0.0000 C   0  0  0  0  0  0  0  0  0  0  0  0
    4.2775  -13.7670    0.0000 C   0  0  0  0  0  0  0  0  0  0  0  0
    4.2775  -12.9420    0.0000 C   0  0  0  0  0  0  0  0  0  0  0  0
    4.9919  -12.5295    0.0000 C   0  0  0  0  0  0  0  0  0  0  0  0
    5.7064  -12.9420    0.0000 C   0  0  0  0  0  0  0  0  0  0  0  0
    3.5630  -14.1795    0.0000 O   0  0  0  0  0  0  0  0  0  0  0  0
    7.8498  -12.5295    0.0000 C   0  0  0  0  0  0  0  0  0  0  0  0
    3.5630  -12.5295    0.0000 O   0  0  0  0  0  0  0  0  0  0  0  0
    2.8485  -12.9420    0.0000 C   0  0  0  0  0  0  0  0  0  0  0  0
    6.4209  -11.7045    0.0000 C   0  0  0  0  0  0  0  0  0  0  0  0
    7.1354  -11.2920    0.0000 C   0  0  0  0  0  0  0  0  0  0  0  0
    7.1354  -10.4670    0.0000 C   0  0  0  0  0  0  0  0  0  0  0  0
    7.8498  -10.0545    0.0000 C   0  0  0  0  0  0  0  0  0  0  0  0
    8.5643  -10.4670    0.0000 C   0  0  0  0  0  0  0  0  0  0  0  0
    8.5643  -11.2920    0.0000 C   0  0  0  0  0  0  0  0  0  0  0  0
    7.8498  -11.7045    0.0000 C   0  0  0  0  0  0  0  0  0  0  0  0
    9.2788  -10.0545    0.0000 O   0  0  0  0  0  0  0  0  0  0  0  0
    9.2859   -9.2295    0.0000 C   0  0  0  0  0  0  0  0  0  0  0  0
   10.0039   -8.8232    0.0000 C   0  0  0  0  0  0  0  0  0  0  0  0
   10.0111   -7.9982    0.0000 C   0  0  0  0  0  0  0  0  0  0  0  0
    9.3002   -7.5795    0.0000 C   0  0  0  0  0  0  0  0  0  0  0  0
    8.5822   -7.9858    0.0000 C   0  0  0  0  0  0  0  0  0  0  0  0
    8.5751   -8.8108    0.0000 C   0  0  0  0  0  0  0  0  0  0  0  0
   10.7148   -9.2419    0.0000 O   0  0  0  0  0  0  0  0  0  0  0  0
    7.8714   -7.5671    0.0000 C   0  0  0  0  0  0  0  0  0  0  0  0
    7.8785   -6.7422    0.0000 C   0  0  1  0  0  0  0  0  0  0  0  0
    8.5965   -6.3359    0.0000 N   0  0  0  0  0  0  0  0  0  0  0  0
    8.6037   -5.5109    0.0000 C   0  0  0  0  0  0  0  0  0  0  0  0
    7.8928   -5.0922    0.0000 C   0  0  0  0  0  0  0  0  0  0  0  0
    7.1748   -5.4985    0.0000 C   0  0  0  0  0  0  0  0  0  0  0  0
    6.4639   -5.0798    0.0000 C   0  0  0  0  0  0  0  0  0  0  0  0
    5.7459   -5.4861    0.0000 C   0  0  0  0  0  0  0  0  0  0  0  0
    5.7388   -6.3111    0.0000 C   0  0  0  0  0  0  0  0  0  0  0  0
    6.4496   -6.7298    0.0000 C   0  0  0  0  0  0  0  0  0  0  0  0
    7.1677   -6.3235    0.0000 C   0  0  0  0  0  0  0  0  0  0  0  0
    9.3074   -6.7546    0.0000 C   0  0  0  0  0  0  0  0  0  0  0  0
    5.0207   -6.7174    0.0000 O   0  0  0  0  0  0  0  0  0  0  0  0
    4.3099   -6.2987    0.0000 C   0  0  0  0  0  0  0  0  0  0  0  0
    5.0351   -5.0674    0.0000 O   0  0  0  0  0  0  0  0  0  0  0  0
    5.0422   -4.2425    0.0000 C   0  0  0  0  0  0  0  0  0  0  0  0
  1  2  1  0  0  0  0
  2  3  1  0  0  0  0
  3  4  1  0  0  0  0
  4  5  1  0  0  0  0
  5  6  1  0  0  0  0
  6  7  2  0  0  0  0
  7  8  1  0  0  0  0
  8  9  2  0  0  0  0
  9 10  1  0  0  0  0
  1 10  1  0  0  0  0
  5 10  2  0  0  0  0
  7 11  1  0  0  0  0
  2 12  1  0  0  0  0
 13 14  1  0  0  0  0
  8 13  1  0  0  0  0
 16 17  1  0  0  0  0
 17 18  2  0  0  0  0
 18 19  1  0  0  0  0
 19 20  2  0  0  0  0
 20 21  1  0  0  0  0
 16 21  2  0  0  0  0
 23 24  1  0  0  0  0
 24 25  2  0  0  0  0
 25 26  1  0  0  0  0
 26 27  2  0  0  0  0
 27 28  1  0  0  0  0
 23 28  2  0  0  0  0
 22 23  1  0  0  0  0
 24 29  1  0  0  0  0
 31 32  1  0  0  0  0
 32 33  1  0  0  0  0
 33 34  1  0  0  0  0
 34 35  1  0  0  0  0
 35 36  1  0  0  0  0
 36 37  2  0  0  0  0
 37 38  1  0  0  0  0
 38 39  2  0  0  0  0
 39 40  1  0  0  0  0
 31 40  1  0  0  0  0
 35 40  2  0  0  0  0
 32 41  1  0  0  0  0
 42 43  1  0  0  0  0
 38 42  1  0  0  0  0
 44 45  1  0  0  0  0
 37 44  1  0  0  0  0
 31 30  1  6  0  0  0
 27 30  1  0  0  0  0
 19 22  1  0  0  0  0
 15 16  1  0  0  0  0
  1 15  1  1  0  0  0
M  END
>  <cdx:fragmentId>
89090

$$$$
