309204.cdx
  Mrv1902 05222410272D          

 20 22  0  0  0  0            999 V2000
    8.6724  -14.0162    0.0000 C   0  0  0  0  0  0  0  0  0  0  0  0
    9.3869  -14.4287    0.0000 C   0  0  0  0  0  0  0  0  0  0  0  0
    9.3869  -15.2537    0.0000 C   0  0  0  0  0  0  0  0  0  0  0  0
    8.6724  -15.6662    0.0000 C   0  0  0  0  0  0  0  0  0  0  0  0
    7.9580  -15.2537    0.0000 C   0  0  0  0  0  0  0  0  0  0  0  0
    7.2435  -15.6662    0.0000 C   0  0  0  0  0  0  0  0  0  0  0  0
    6.5290  -15.2537    0.0000 C   0  0  0  0  0  0  0  0  0  0  0  0
    5.8146  -15.6662    0.0000 C   0  0  0  0  0  0  0  0  0  0  0  0
    5.1001  -15.2537    0.0000 C   0  0  0  0  0  0  0  0  0  0  0  0
    5.1001  -14.4287    0.0000 C   0  0  0  0  0  0  0  0  0  0  0  0
    5.8146  -14.0162    0.0000 C   0  0  0  0  0  0  0  0  0  0  0  0
    6.5290  -14.4287    0.0000 C   0  0  0  0  0  0  0  0  0  0  0  0
    7.2435  -14.0162    0.0000 C   0  0  0  0  0  0  0  0  0  0  0  0
    7.9580  -14.4287    0.0000 C   0  0  0  0  0  0  0  0  0  0  0  0
    7.2435  -13.1912    0.0000 O   0  0  0  0  0  0  0  0  0  0  0  0
    7.2435  -16.4912    0.0000 O   0  0  0  0  0  0  0  0  0  0  0  0
    5.8146  -13.1912    0.0000 C   0  0  0  0  0  0  0  0  0  0  0  0
    4.3856  -15.6662    0.0000 O   0  0  0  0  0  0  0  0  0  0  0  0
   10.1014  -15.6662    0.0000 O   0  0  0  0  0  0  0  0  0  0  0  0
    8.6724  -13.1912    0.0000 O   0  0  0  0  0  0  0  0  0  0  0  0
  1  2  1  0  0  0  0
  2  3  2  0  0  0  0
  3  4  1  0  0  0  0
  4  5  2  0  0  0  0
  5  6  1  0  0  0  0
  6  7  1  0  0  0  0
  7  8  1  0  0  0  0
  8  9  2  0  0  0  0
  9 10  1  0  0  0  0
 10 11  2  0  0  0  0
 11 12  1  0  0  0  0
  7 12  2  0  0  0  0
 12 13  1  0  0  0  0
 13 14  1  0  0  0  0
  5 14  1  0  0  0  0
  1 14  2  0  0  0  0
 13 15  2  0  0  0  0
  6 16  2  0  0  0  0
 11 17  1  0  0  0  0
  9 18  1  0  0  0  0
  3 19  1  0  0  0  0
  1 20  1  0  0  0  0
M  END
>  <cdx:fragmentId>
89186

$$$$
