12309425.cdx
  Mrv1902 05222410182D          

 20 19  0  0  0  0            999 V2000
   19.9930  -10.1139    0.0000 C   0  0  0  0  0  0  0  0  0  0  0  0
   19.2786  -10.5264    0.0000 C   0  0  0  0  0  0  0  0  0  0  0  0
   18.5641  -10.1139    0.0000 C   0  0  0  0  0  0  0  0  0  0  0  0
   17.8496  -10.5264    0.0000 C   0  0  0  0  0  0  0  0  0  0  0  0
   17.1352  -10.1139    0.0000 C   0  0  0  0  0  0  0  0  0  0  0  0
   16.4207  -10.5264    0.0000 C   0  0  0  0  0  0  0  0  0  0  0  0
   15.7062  -10.1139    0.0000 C   0  0  0  0  0  0  0  0  0  0  0  0
   14.9917  -10.5264    0.0000 C   0  0  0  0  0  0  0  0  0  0  0  0
   14.2773  -10.1139    0.0000 C   0  0  0  0  0  0  0  0  0  0  0  0
   13.5628  -10.5264    0.0000 C   0  0  0  0  0  0  0  0  0  0  0  0
   12.8483  -10.1139    0.0000 C   0  0  0  0  0  0  0  0  0  0  0  0
   12.0233  -10.1139    0.0000 C   0  0  0  0  0  0  0  0  0  0  0  0
   11.3089  -10.5264    0.0000 C   0  0  0  0  0  0  0  0  0  0  0  0
   10.5944  -10.1139    0.0000 C   0  0  0  0  0  0  0  0  0  0  0  0
    9.8799  -10.5264    0.0000 C   0  0  0  0  0  0  0  0  0  0  0  0
    9.1655  -10.1139    0.0000 C   0  0  0  0  0  0  0  0  0  0  0  0
    8.4510  -10.5264    0.0000 C   0  0  0  0  0  0  0  0  0  0  0  0
    7.7365  -10.1139    0.0000 C   0  0  0  0  0  0  0  0  0  0  0  0
   19.9930   -9.2889    0.0000 O   0  0  0  0  0  0  0  0  0  0  0  0
   20.7075  -10.5264    0.0000 O   0  0  0  0  0  0  0  0  0  0  0  0
  1  2  1  0  0  0  0
  2  3  1  0  0  0  0
  3  4  1  0  0  0  0
  4  5  1  0  0  0  0
  5  6  1  0  0  0  0
  6  7  1  0  0  0  0
  7  8  1  0  0  0  0
  8  9  1  0  0  0  0
  9 10  2  0  0  0  0
 10 11  1  0  0  0  0
 11 12  2  0  0  0  0
 12 13  1  0  0  0  0
 13 14  2  0  0  0  0
 14 15  1  0  0  0  0
 15 16  1  0  0  0  0
 16 17  1  0  0  0  0
 17 18  1  0  0  0  0
  1 19  2  0  0  0  0
  1 20  1  0  0  0  0
M  END
>  <cdx:groupId>
31153

>  <cdx:fragmentId>
31097

$$$$
