30951.cdx
  Mrv1902 05222410252D          

 16 17  0  0  0  0            999 V2000
    8.5056  -10.2818    0.0000 C   0  0  2  0  0  0  0  0  0  0  0  0
    9.2201   -9.8693    0.0000 C   0  0  0  0  0  0  0  0  0  0  0  0
    9.2201   -9.0443    0.0000 C   0  0  0  0  0  0  0  0  0  0  0  0
    8.5056   -8.6318    0.0000 C   0  0  1  0  0  0  0  0  0  0  0  0
    7.7912   -9.0443    0.0000 C   0  0  1  0  0  0  0  0  0  0  0  0
    7.0767   -8.6318    0.0000 C   0  0  0  0  0  0  0  0  0  0  0  0
    6.3622   -9.0443    0.0000 C   0  0  0  0  0  0  0  0  0  0  0  0
    6.3622   -9.8693    0.0000 C   0  0  0  0  0  0  0  0  0  0  0  0
    7.0767  -10.2818    0.0000 C   0  0  0  0  0  0  0  0  0  0  0  0
    7.7912   -9.8693    0.0000 C   0  0  0  0  0  0  0  0  0  0  0  0
    7.7912  -11.5193    0.0000 C   0  0  0  0  0  0  0  0  0  0  0  0
    8.5056  -11.1068    0.0000 C   0  0  0  0  0  0  0  0  0  0  0  0
    9.2201  -11.5193    0.0000 C   0  0  0  0  0  0  0  0  0  0  0  0
    5.6478  -10.2818    0.0000 C   0  0  0  0  0  0  0  0  0  0  0  0
    8.5056   -7.8068    0.0000 C   0  0  0  0  0  0  0  0  0  0  0  0
    7.7912   -8.2193    0.0000 H   0  0  0  0  0  0  0  0  0  0  0  0
  1  2  1  0  0  0  0
  2  3  1  0  0  0  0
  3  4  1  0  0  0  0
  4  5  1  0  0  0  0
  5  6  1  0  0  0  0
  6  7  1  0  0  0  0
  7  8  1  0  0  0  0
  8  9  1  0  0  0  0
  9 10  2  0  0  0  0
  1 10  1  0  0  0  0
  5 10  1  0  0  0  0
 11 12  1  0  0  0  0
 12 13  1  0  0  0  0
  1 12  1  1  0  0  0
  8 14  2  0  0  0  0
  4 15  1  1  0  0  0
  5 16  1  1  0  0  0
M  END
>  <cdx:groupId>
1790

>  <cdx:fragmentId>
1744

$$$$
