309603.cdx
  Mrv1902 05222410282D          

 16 18  0  0  0  0            999 V2000
    7.7857   -9.4875    0.0000 C   0  0  0  0  0  0  0  0  0  0  0  0
    8.5001   -9.9000    0.0000 C   0  0  0  0  0  0  0  0  0  0  0  0
    8.5001  -10.7250    0.0000 C   0  0  0  0  0  0  0  0  0  0  0  0
    7.7857  -11.1375    0.0000 C   0  0  0  0  0  0  0  0  0  0  0  0
    7.0712  -10.7250    0.0000 C   0  0  0  0  0  0  0  0  0  0  0  0
    6.3567  -11.1375    0.0000 C   0  0  0  0  0  0  0  0  0  0  0  0
    5.6423  -10.7250    0.0000 C   0  0  0  0  0  0  0  0  0  0  0  0
    5.6423   -9.9000    0.0000 C   0  0  0  0  0  0  0  0  0  0  0  0
    6.3567   -9.4875    0.0000 C   0  0  0  0  0  0  0  0  0  0  0  0
    7.0712   -9.9000    0.0000 C   0  0  0  0  0  0  0  0  0  0  0  0
    8.5001   -9.0750    0.0000 C   0  0  0  0  0  0  0  0  0  0  0  0
    5.9442   -8.7730    0.0000 O   0  0  0  0  0  0  0  0  0  0  0  0
    6.7692   -8.7730    0.0000 C   0  0  0  0  0  0  0  0  0  0  0  0
    7.0712  -11.5500    0.0000 C   0  0  0  0  0  0  0  0  0  0  0  0
    8.5001   -8.2500    0.0000 C   0  0  0  0  0  0  0  0  0  0  0  0
    9.2146   -8.6625    0.0000 C   0  0  0  0  0  0  0  0  0  0  0  0
  1  2  1  0  0  0  0
  2  3  1  0  0  0  0
  3  4  1  0  0  0  0
  4  5  1  0  0  0  0
  5  6  1  0  0  0  0
  6  7  1  0  0  0  0
  7  8  1  0  0  0  0
  8  9  1  0  0  0  0
  9 10  1  0  0  0  0
  1 10  1  0  0  0  0
  5 10  1  0  0  0  0
 11  1  1  0  0  0  0
 11  2  1  0  0  0  0
  9 12  1  0  0  0  0
  9 13  1  0  0  0  0
  5 14  1  0  0  0  0
 11 15  1  0  0  0  0
 11 16  1  0  0  0  0
M  END
>  <cdx:groupId>
31548

>  <cdx:fragmentId>
31501

$$$$
