309735.cdx
  Mrv1902 05222410232D          

 26 27  0  0  0  0            999 V2000
    7.4760  -13.7769    0.0000 C   0  0  0  0  0  0  0  0  0  0  0  0
    8.1905  -14.1894    0.0000 C   0  0  0  0  0  0  0  0  0  0  0  0
    8.9049  -13.7769    0.0000 C   0  0  0  0  0  0  0  0  0  0  0  0
    7.4760  -12.9519    0.0000 O   0  0  0  0  0  0  0  0  0  0  0  0
    9.6194  -14.1894    0.0000 C   0  0  0  0  0  0  0  0  0  0  0  0
   10.3339  -13.7769    0.0000 C   0  0  0  0  0  0  0  0  0  0  0  0
   11.0484  -14.1894    0.0000 C   0  0  0  0  0  0  0  0  0  0  0  0
   11.0484  -15.0144    0.0000 C   0  0  0  0  0  0  0  0  0  0  0  0
   10.3339  -15.4269    0.0000 C   0  0  0  0  0  0  0  0  0  0  0  0
    9.6194  -15.0144    0.0000 C   0  0  0  0  0  0  0  0  0  0  0  0
   11.7628  -15.4269    0.0000 O   0  0  0  0  0  0  0  0  0  0  0  0
    6.7615  -14.1894    0.0000 C   0  0  0  0  0  0  0  0  0  0  0  0
    6.0471  -13.7769    0.0000 C   0  0  0  0  0  0  0  0  0  0  0  0
    5.3326  -14.1894    0.0000 C   0  0  0  0  0  0  0  0  0  0  0  0
    5.3326  -15.0144    0.0000 C   0  0  0  0  0  0  0  0  0  0  0  0
    6.0471  -15.4269    0.0000 C   0  0  0  0  0  0  0  0  0  0  0  0
    6.7615  -15.0144    0.0000 C   0  0  0  0  0  0  0  0  0  0  0  0
    4.6181  -13.7769    0.0000 C   0  0  0  0  0  0  0  0  0  0  0  0
    3.9036  -14.1894    0.0000 C   0  0  0  0  0  0  0  0  0  0  0  0
    3.1892  -13.7769    0.0000 C   0  0  0  0  0  0  0  0  0  0  0  0
    3.1892  -12.9519    0.0000 C   0  0  0  0  0  0  0  0  0  0  0  0
    2.4747  -14.1894    0.0000 C   0  0  0  0  0  0  0  0  0  0  0  0
    4.6181  -15.4269    0.0000 O   0  0  0  0  0  0  0  0  0  0  0  0
    3.9036  -15.0144    0.0000 C   0  0  0  0  0  0  0  0  0  0  0  0
    7.4760  -15.4269    0.0000 O   0  0  0  0  0  0  0  0  0  0  0  0
    6.0471  -12.9519    0.0000 O   0  0  0  0  0  0  0  0  0  0  0  0
  1  2  1  0  0  0  0
  2  3  2  0  0  0  0
  1  4  2  0  0  0  0
  5  6  1  0  0  0  0
  6  7  2  0  0  0  0
  7  8  1  0  0  0  0
  8  9  2  0  0  0  0
  9 10  1  0  0  0  0
  5 10  2  0  0  0  0
  8 11  1  0  0  0  0
  3  5  1  0  0  0  0
 12 13  1  0  0  0  0
 13 14  2  0  0  0  0
 14 15  1  0  0  0  0
 15 16  2  0  0  0  0
 16 17  1  0  0  0  0
 12 17  2  0  0  0  0
 18 19  1  0  0  0  0
 19 20  2  0  0  0  0
 20 21  1  0  0  0  0
 20 22  1  0  0  0  0
 14 18  1  0  0  0  0
 23 24  1  0  0  0  0
 15 23  1  0  0  0  0
 17 25  1  0  0  0  0
 13 26  1  0  0  0  0
  1 12  1  0  0  0  0
M  END
>  <cdx:groupId>
105205

>  <cdx:fragmentId>
105151

$$$$
