3098.cdx
  Mrv1902 05222410262D          

 10 10  0  0  0  0            999 V2000
    6.8714   -6.9300    0.0000 C   0  0  0  0  0  0  0  0  0  0  0  0
    6.8714   -7.7550    0.0000 C   0  0  0  0  0  0  0  0  0  0  0  0
    7.5859   -8.1675    0.0000 C   0  0  0  0  0  0  0  0  0  0  0  0
    8.3003   -7.7550    0.0000 C   0  0  0  0  0  0  0  0  0  0  0  0
    8.3003   -6.9300    0.0000 C   0  0  0  0  0  0  0  0  0  0  0  0
    7.5859   -6.5175    0.0000 C   0  0  0  0  0  0  0  0  0  0  0  0
    6.1569   -6.5175    0.0000 C   0  0  0  0  0  0  0  0  0  0  0  0
    7.5859   -5.6925    0.0000 C   0  0  0  0  0  0  0  0  0  0  0  0
    6.8714   -5.2800    0.0000 C   0  0  0  0  0  0  0  0  0  0  0  0
    8.3003   -5.2800    0.0000 C   0  0  0  0  0  0  0  0  0  0  0  0
  1  2  2  0  0  0  0
  2  3  1  0  0  0  0
  3  4  2  0  0  0  0
  4  5  1  0  0  0  0
  5  6  2  0  0  0  0
  6  1  1  0  0  0  0
  1  7  1  0  0  0  0
  6  8  1  0  0  0  0
  8  9  1  0  0  0  0
  8 10  1  0  0  0  0
M  END
>  <cdx:fragmentId>
5

$$$$
