12309890.cdx
  Mrv1902 05222410262D          

 11 12  0  0  0  0            999 V2000
    7.0740  -14.2993    0.0000 C   0  0  0  0  0  0  0  0  0  0  0  0
    6.2894  -14.0444    0.0000 C   0  0  0  0  0  0  0  0  0  0  0  0
    5.8045  -14.7118    0.0000 C   0  0  0  0  0  0  0  0  0  0  0  0
    6.2894  -15.3793    0.0000 C   0  0  0  0  0  0  0  0  0  0  0  0
    7.0740  -15.1243    0.0000 C   0  0  0  0  0  0  0  0  0  0  0  0
    7.8990  -15.1243    0.0000 C   0  0  0  0  0  0  0  0  0  0  0  0
    7.8990  -14.2993    0.0000 C   0  0  0  0  0  0  0  0  0  0  0  0
    8.4824  -15.7077    0.0000 O   0  0  0  0  0  0  0  0  0  0  0  0
    8.1126  -13.5024    0.0000 C   0  0  0  0  0  0  0  0  0  0  0  0
    8.6959  -14.0858    0.0000 C   0  0  0  0  0  0  0  0  0  0  0  0
    6.0345  -16.1639    0.0000 C   0  0  0  0  0  0  0  0  0  0  0  0
  1  2  1  0  0  0  0
  2  3  1  0  0  0  0
  3  4  2  0  0  0  0
  4  5  1  0  0  0  0
  5  6  1  0  0  0  0
  6  7  1  0  0  0  0
  1  7  1  0  0  0  0
  1  5  1  0  0  0  0
  6  8  2  0  0  0  0
  7  9  1  0  0  0  0
  7 10  1  0  0  0  0
  4 11  1  0  0  0  0
M  END
>  <cdx:groupId>
89442

>  <cdx:fragmentId>
89411

$$$$
