3099.cdx
  Mrv1902 05222410272D          

 23 24  0  0  0  0            999 V2000
    2.2652   -6.5519    0.0000 C   0  0  0  0  0  0  0  0  0  0  0  0
    2.2652   -7.3769    0.0000 C   0  0  0  0  0  0  0  0  0  0  0  0
    2.9796   -7.7894    0.0000 C   0  0  0  0  0  0  0  0  0  0  0  0
    3.6941   -7.3769    0.0000 C   0  0  0  0  0  0  0  0  0  0  0  0
    3.6941   -6.5519    0.0000 C   0  0  0  0  0  0  0  0  0  0  0  0
    2.9796   -6.1394    0.0000 C   0  0  0  0  0  0  0  0  0  0  0  0
    4.4086   -7.7894    0.0000 N   0  0  0  0  0  0  0  0  0  0  0  0
    5.1230   -7.3769    0.0000 C   0  0  0  0  0  0  0  0  0  0  0  0
    5.1230   -6.5519    0.0000 C   0  0  0  0  0  0  0  0  0  0  0  0
    4.4086   -6.1394    0.0000 C   0  0  0  0  0  0  0  0  0  0  0  0
    4.4086   -5.3144    0.0000 O   0  0  0  0  0  0  0  0  0  0  0  0
    5.8375   -7.7894    0.0000 C   0  0  0  0  0  0  0  0  0  0  0  0
    4.4086   -8.6144    0.0000 C   0  0  0  0  0  0  0  0  0  0  0  0
    6.5520   -7.3769    0.0000 C   0  0  0  0  0  0  0  0  0  0  0  0
    7.2665   -7.7894    0.0000 C   0  0  0  0  0  0  0  0  0  0  0  0
    7.9809   -7.3769    0.0000 C   0  0  0  0  0  0  0  0  0  0  0  0
    8.6954   -7.7894    0.0000 C   0  0  0  0  0  0  0  0  0  0  0  0
    9.4099   -7.3769    0.0000 C   0  0  0  0  0  0  0  0  0  0  0  0
   10.1243   -7.7894    0.0000 C   0  0  0  0  0  0  0  0  0  0  0  0
   10.1243   -8.6144    0.0000 C   0  0  0  0  0  0  0  0  0  0  0  0
   10.8388   -9.0269    0.0000 C   0  0  0  0  0  0  0  0  0  0  0  0
   10.8388   -9.8519    0.0000 C   0  0  0  0  0  0  0  0  0  0  0  0
   11.5533  -10.2644    0.0000 C   0  0  0  0  0  0  0  0  0  0  0  0
  1  2  2  0  0  0  0
  2  3  1  0  0  0  0
  3  4  2  0  0  0  0
  4  5  1  0  0  0  0
  5  6  2  0  0  0  0
  6  1  1  0  0  0  0
  4  7  1  0  0  0  0
  7  8  1  0  0  0  0
  8  9  2  0  0  0  0
  9 10  1  0  0  0  0
 10  5  1  0  0  0  0
 10 11  2  0  0  0  0
  8 12  1  0  0  0  0
  7 13  1  0  0  0  0
 12 14  1  0  0  0  0
 14 15  1  0  0  0  0
 15 16  1  0  0  0  0
 16 17  1  0  0  0  0
 17 18  1  0  0  0  0
 18 19  2  0  0  0  0
 19 20  1  0  0  0  0
 20 21  1  0  0  0  0
 21 22  1  0  0  0  0
 22 23  1  0  0  0  0
M  END
>  <cdx:fragmentId>
5

$$$$
