31.cdx
  Mrv1902 05222410272D          

 57 62  0  0  0  0            999 V2000
   14.3748   -9.7536    0.0000 C   0  0  0  0  0  0  0  0  0  0  0  0
   14.3748  -10.5786    0.0000 C   0  0  1  0  0  0  0  0  0  0  0  0
   15.0892  -10.9911    0.0000 C   0  0  0  0  0  0  0  0  0  0  0  0
   15.8037  -10.5786    0.0000 C   0  0  2  0  0  0  0  0  0  0  0  0
   15.8037   -9.7536    0.0000 C   0  0  2  0  0  0  0  0  0  0  0  0
   15.0892   -9.3411    0.0000 C   0  0  0  0  0  0  0  0  0  0  0  0
   16.5182  -10.9911    0.0000 C   0  0  0  0  0  0  0  0  0  0  0  0
   17.2326  -10.5786    0.0000 C   0  0  0  0  0  0  0  0  0  0  0  0
   17.2326   -9.7536    0.0000 C   0  0  2  0  0  0  0  0  0  0  0  0
   16.5182   -9.3411    0.0000 C   0  0  2  0  0  0  0  0  0  0  0  0
   17.9471   -9.3411    0.0000 C   0  0  2  0  0  0  0  0  0  0  0  0
   17.9471   -8.5161    0.0000 C   0  0  2  0  0  0  0  0  0  0  0  0
   17.2326   -8.1036    0.0000 C   0  0  2  0  0  0  0  0  0  0  0  0
   16.5182   -8.5161    0.0000 C   0  0  0  0  0  0  0  0  0  0  0  0
   18.7317   -9.5961    0.0000 C   0  0  1  0  0  0  0  0  0  0  0  0
   19.2167   -8.9286    0.0000 C   0  0  1  0  0  0  0  0  0  0  0  0
   18.7317   -8.2612    0.0000 C   0  0  2  0  0  0  0  0  0  0  0  0
   18.9867   -7.4766    0.0000 C   0  0  0  0  0  0  0  0  0  0  0  0
   19.7936   -7.3051    0.0000 C   0  0  0  0  0  0  0  0  0  0  0  0
   18.4346   -6.8635    0.0000 C   0  0  0  0  0  0  0  0  0  0  0  0
   20.0486   -6.5204    0.0000 C   0  0  0  0  0  0  0  0  0  0  0  0
   18.6896   -6.0789    0.0000 O   0  0  0  0  0  0  0  0  0  0  0  0
   19.4965   -5.9073    0.0000 C   0  0  0  0  0  0  0  0  0  0  0  0
   19.7515   -5.1227    0.0000 O   0  0  0  0  0  0  0  0  0  0  0  0
   13.6603  -10.9911    0.0000 O   0  0  0  0  0  0  0  0  0  0  0  0
   15.8037   -8.9286    0.0000 C   0  0  0  0  0  0  0  0  0  0  0  0
   15.8037  -11.4036    0.0000 O   0  0  0  0  0  0  0  0  0  0  0  0
   17.2326   -7.2786    0.0000 H   0  0  0  0  0  0  0  0  0  0  0  0
   18.0333   -7.6957    0.0000 C   0  0  0  0  0  0  0  0  0  0  0  0
   20.0417   -8.9286    0.0000 O   0  0  0  0  0  0  0  0  0  0  0  0
   18.0333  -10.1616    0.0000 O   0  0  0  0  0  0  0  0  0  0  0  0
   20.4542   -9.6431    0.0000 C   0  0  0  0  0  0  0  0  0  0  0  0
   21.2792   -9.6431    0.0000 C   0  0  0  0  0  0  0  0  0  0  0  0
   20.0417  -10.3576    0.0000 O   0  0  0  0  0  0  0  0  0  0  0  0
   15.0892   -8.5161    0.0000 O   0  0  0  0  0  0  0  0  0  0  0  0
   12.9458  -10.5786    0.0000 C   0  0  0  0  0  0  0  0  0  0  0  0
   12.2313  -10.9911    0.0000 C   0  0  0  0  0  0  0  0  0  0  0  0
   12.9458   -9.7536    0.0000 O   0  0  0  0  0  0  0  0  0  0  0  0
   11.5169  -10.5786    0.0000 C   0  0  0  0  0  0  0  0  0  0  0  0
   10.8024  -10.9911    0.0000 C   0  0  0  0  0  0  0  0  0  0  0  0
   10.0879  -10.5786    0.0000 C   0  0  0  0  0  0  0  0  0  0  0  0
    9.3735  -10.9911    0.0000 C   0  0  0  0  0  0  0  0  0  0  0  0
    8.6590  -10.5786    0.0000 N   0  0  0  0  0  0  0  0  0  0  0  0
    9.3735  -11.8161    0.0000 O   0  0  0  0  0  0  0  0  0  0  0  0
    7.9445  -10.9911    0.0000 C   0  0  2  0  0  0  0  0  0  0  0  0
    7.2300  -10.5786    0.0000 C   0  0  0  0  0  0  0  0  0  0  0  0
    7.9445  -11.8161    0.0000 C   0  0  0  0  0  0  0  0  0  0  0  0
    6.5156  -10.9911    0.0000 O   0  0  0  0  0  0  0  0  0  0  0  0
    7.2300   -9.7536    0.0000 O   0  0  0  0  0  0  0  0  0  0  0  0
    7.2300  -12.2286    0.0000 C   0  0  0  0  0  0  0  0  0  0  0  0
    7.2300  -13.0536    0.0000 C   0  0  0  0  0  0  0  0  0  0  0  0
    6.5156  -13.4661    0.0000 N   0  0  0  0  0  0  0  0  0  0  0  0
    6.5156  -14.2911    0.0000 C   0  0  0  0  0  0  0  0  0  0  0  0
    5.8011  -14.7036    0.0000 N   0  0  0  0  0  0  0  0  0  0  0  0
    7.2300  -14.7036    0.0000 N   0  0  0  0  0  0  0  0  0  0  0  0
   16.5182  -10.1661    0.0000 H   0  0  0  0  0  0  0  0  0  0  0  0
   17.2326   -8.9286    0.0000 H   0  0  0  0  0  0  0  0  0  0  0  0
  1  2  1  0  0  0  0
  2  3  1  0  0  0  0
  3  4  1  0  0  0  0
  4  5  1  0  0  0  0
  5  6  1  0  0  0  0
  6  1  1  0  0  0  0
  4  7  1  0  0  0  0
  7  8  1  0  0  0  0
  8  9  1  0  0  0  0
  9 10  1  0  0  0  0
 10  5  1  0  0  0  0
  9 11  1  0  0  0  0
 11 12  1  0  0  0  0
 12 13  1  0  0  0  0
 13 14  1  0  0  0  0
 14 10  1  0  0  0  0
 11 15  1  0  0  0  0
 15 16  1  0  0  0  0
 16 17  1  0  0  0  0
 17 12  1  0  0  0  0
 17 18  1  1  0  0  0
 18 19  1  0  0  0  0
 18 20  2  0  0  0  0
 19 21  2  0  0  0  0
 20 22  1  0  0  0  0
 21 23  1  0  0  0  0
 22 23  1  0  0  0  0
 23 24  2  0  0  0  0
  2 25  1  1  0  0  0
  5 26  1  1  0  0  0
  4 27  1  1  0  0  0
 13 28  1  1  0  0  0
 12 29  1  1  0  0  0
 16 30  1  1  0  0  0
 11 31  1  1  0  0  0
 15 31  1  1  0  0  0
 30 32  1  0  0  0  0
 32 33  1  0  0  0  0
 32 34  2  0  0  0  0
 26 35  2  0  0  0  0
 25 36  1  0  0  0  0
 36 37  1  0  0  0  0
 36 38  2  0  0  0  0
 37 39  1  0  0  0  0
 39 40  1  0  0  0  0
 40 41  1  0  0  0  0
 41 42  1  0  0  0  0
 42 43  1  0  0  0  0
 42 44  2  0  0  0  0
 45 43  1  1  0  0  0
 45 46  1  0  0  0  0
 45 47  1  0  0  0  0
 46 48  1  0  0  0  0
 46 49  2  0  0  0  0
 47 50  1  0  0  0  0
 50 51  1  0  0  0  0
 51 52  1  0  0  0  0
 52 53  2  0  0  0  0
 53 54  1  0  0  0  0
 53 55  1  0  0  0  0
 10 56  1  6  0  0  0
  9 57  1  1  0  0  0
M  END
>  <cdx:fragmentId>
206

$$$$
