thymine.cdx
  Mrv1902 05222410182D          

  9  9  0  0  0  0            999 V2000
    6.4293   -8.7528    0.0000 C   0  0  0  0  0  0  0  0  0  0  0  0
    6.4293   -9.5778    0.0000 C   0  0  0  0  0  0  0  0  0  0  0  0
    7.1438   -9.9903    0.0000 N   0  0  0  0  0  0  0  0  0  0  0  0
    7.8583   -9.5778    0.0000 C   0  0  0  0  0  0  0  0  0  0  0  0
    7.8583   -8.7528    0.0000 N   0  0  0  0  0  0  0  0  0  0  0  0
    7.1438   -8.3403    0.0000 C   0  0  0  0  0  0  0  0  0  0  0  0
    5.7149   -8.3403    0.0000 C   0  0  0  0  0  0  0  0  0  0  0  0
    8.5728   -9.9903    0.0000 O   0  0  0  0  0  0  0  0  0  0  0  0
    7.1438   -7.5153    0.0000 O   0  0  0  0  0  0  0  0  0  0  0  0
  1  2  2  0  0  0  0
  2  3  1  0  0  0  0
  3  4  1  0  0  0  0
  4  5  1  0  0  0  0
  5  6  1  0  0  0  0
  6  1  1  0  0  0  0
  1  7  1  0  0  0  0
  4  8  2  0  0  0  0
  6  9  2  0  0  0  0
M  END
>  <cdx:fragmentId>
5

$$$$
