3102.cdx
  Mrv1902 05222410272D          

 27 28  0  0  0  0            999 V2000
    0.9727   -7.5969    0.0000 C   0  0  0  0  0  0  0  0  0  0  0  0
    0.9727   -8.4219    0.0000 C   0  0  0  0  0  0  0  0  0  0  0  0
    1.6871   -8.8344    0.0000 C   0  0  0  0  0  0  0  0  0  0  0  0
    2.4016   -8.4219    0.0000 C   0  0  0  0  0  0  0  0  0  0  0  0
    2.4016   -7.5969    0.0000 C   0  0  0  0  0  0  0  0  0  0  0  0
    1.6871   -7.1844    0.0000 C   0  0  0  0  0  0  0  0  0  0  0  0
    3.1161   -8.8344    0.0000 N   0  0  0  0  0  0  0  0  0  0  0  0
    3.8305   -8.4219    0.0000 C   0  0  0  0  0  0  0  0  0  0  0  0
    3.8305   -7.5969    0.0000 C   0  0  0  0  0  0  0  0  0  0  0  0
    3.1161   -7.1844    0.0000 C   0  0  0  0  0  0  0  0  0  0  0  0
    3.1161   -6.3594    0.0000 O   0  0  0  0  0  0  0  0  0  0  0  0
    4.5450   -8.8344    0.0000 C   0  0  0  0  0  0  0  0  0  0  0  0
    3.1161   -9.6594    0.0000 C   0  0  0  0  0  0  0  0  0  0  0  0
    5.2595   -8.4219    0.0000 C   0  0  0  0  0  0  0  0  0  0  0  0
    5.9740   -8.8344    0.0000 C   0  0  0  0  0  0  0  0  0  0  0  0
    6.6884   -8.4219    0.0000 C   0  0  0  0  0  0  0  0  0  0  0  0
    7.4029   -8.8344    0.0000 C   0  0  0  0  0  0  0  0  0  0  0  0
    8.1174   -8.4219    0.0000 C   0  0  0  0  0  0  0  0  0  0  0  0
    8.8318   -8.8344    0.0000 C   0  0  0  0  0  0  0  0  0  0  0  0
    9.5463   -8.4219    0.0000 C   0  0  0  0  0  0  0  0  0  0  0  0
   10.2608   -8.8344    0.0000 C   0  0  0  0  0  0  0  0  0  0  0  0
   10.9752   -8.4219    0.0000 C   0  0  0  0  0  0  0  0  0  0  0  0
   11.6897   -8.8344    0.0000 C   0  0  0  0  0  0  0  0  0  0  0  0
   11.6897   -9.6594    0.0000 C   0  0  0  0  0  0  0  0  0  0  0  0
   12.4042  -10.0719    0.0000 C   0  0  0  0  0  0  0  0  0  0  0  0
   12.4042  -10.8969    0.0000 C   0  0  0  0  0  0  0  0  0  0  0  0
   13.1187  -11.3094    0.0000 C   0  0  0  0  0  0  0  0  0  0  0  0
  1  2  2  0  0  0  0
  2  3  1  0  0  0  0
  3  4  2  0  0  0  0
  4  5  1  0  0  0  0
  5  6  2  0  0  0  0
  6  1  1  0  0  0  0
  4  7  1  0  0  0  0
  7  8  1  0  0  0  0
  8  9  2  0  0  0  0
  9 10  1  0  0  0  0
 10  5  1  0  0  0  0
 10 11  2  0  0  0  0
  8 12  1  0  0  0  0
  7 13  1  0  0  0  0
 12 14  1  0  0  0  0
 14 15  1  0  0  0  0
 15 16  1  0  0  0  0
 16 17  1  0  0  0  0
 17 18  1  0  0  0  0
 18 19  1  0  0  0  0
 19 20  1  0  0  0  0
 20 21  1  0  0  0  0
 21 22  1  0  0  0  0
 22 23  2  0  0  0  0
 23 24  1  0  0  0  0
 24 25  1  0  0  0  0
 25 26  1  0  0  0  0
 26 27  1  0  0  0  0
M  END
>  <cdx:fragmentId>
5

$$$$
