12310283.cdx
  Mrv1902 05222410232D          

 36 40  0  0  0  0            999 V2000
    8.7220   -6.5327    0.0000 C   0  0  0  0  0  0  0  0  0  0  0  0
    9.4364   -6.1202    0.0000 C   0  0  1  0  0  0  0  0  0  0  0  0
   10.1509   -6.5327    0.0000 C   0  0  0  0  0  0  0  0  0  0  0  0
   10.1509   -7.3577    0.0000 C   0  0  0  0  0  0  0  0  0  0  0  0
    9.4364   -7.7702    0.0000 C   0  0  2  0  0  0  0  0  0  0  0  0
    9.4364   -8.5952    0.0000 C   0  0  0  0  0  0  0  0  0  0  0  0
    8.7220   -9.0077    0.0000 C   0  0  0  0  0  0  0  0  0  0  0  0
    8.0075   -8.5952    0.0000 C   0  0  1  0  0  0  0  0  0  0  0  0
    7.2930   -9.0077    0.0000 C   0  0  2  0  0  0  0  0  0  0  0  0
    7.2930   -9.8327    0.0000 C   0  0  0  0  0  0  0  0  0  0  0  0
    6.5786  -10.2452    0.0000 C   0  0  0  0  0  0  0  0  0  0  0  0
    5.8641   -9.8327    0.0000 C   0  0  1  0  0  0  0  0  0  0  0  0
    5.1496  -10.2452    0.0000 C   0  0  0  0  0  0  0  0  0  0  0  0
    4.4351   -9.8327    0.0000 C   0  0  2  0  0  0  0  0  0  0  0  0
    4.4351   -9.0077    0.0000 C   0  0  0  0  0  0  0  0  0  0  0  0
    5.1496   -8.5952    0.0000 C   0  0  0  0  0  0  0  0  0  0  0  0
    5.8641   -9.0077    0.0000 C   0  0  2  0  0  0  0  0  0  0  0  0
    6.5786   -8.5952    0.0000 C   0  0  1  0  0  0  0  0  0  0  0  0
    6.5786   -7.7702    0.0000 C   0  0  0  0  0  0  0  0  0  0  0  0
    7.2930   -7.3577    0.0000 C   0  0  0  0  0  0  0  0  0  0  0  0
    8.0075   -7.7702    0.0000 C   0  0  0  0  0  0  0  0  0  0  0  0
    8.7220   -7.3577    0.0000 C   0  0  2  0  0  0  0  0  0  0  0  0
    5.8641   -7.3577    0.0000 O   0  0  0  0  0  0  0  0  0  0  0  0
    5.8641   -8.1827    0.0000 C   0  0  0  0  0  0  0  0  0  0  0  0
    5.5621  -10.9597    0.0000 C   0  0  0  0  0  0  0  0  0  0  0  0
    4.7371  -10.9597    0.0000 C   0  0  0  0  0  0  0  0  0  0  0  0
   10.1509   -8.1827    0.0000 C   0  0  0  0  0  0  0  0  0  0  0  0
    9.8489   -5.4058    0.0000 C   0  0  0  0  0  0  0  0  0  0  0  0
    9.0239   -5.4058    0.0000 C   0  0  0  0  0  0  0  0  0  0  0  0
    8.1989   -5.4058    0.0000 O   0  0  0  0  0  0  0  0  0  0  0  0
    3.7207  -10.2452    0.0000 O   0  0  0  0  0  0  0  0  0  0  0  0
    5.8641  -10.6577    0.0000 H   0  0  0  0  0  0  0  0  0  0  0  0
    8.0075   -6.9452    0.0000 H   0  0  0  0  0  0  0  0  0  0  0  0
    7.2930   -8.1827    0.0000 C   0  0  0  0  0  0  0  0  0  0  0  0
    8.0075   -9.4202    0.0000 C   0  0  0  0  0  0  0  0  0  0  0  0
    6.5786   -9.4202    0.0000 H   0  0  0  0  0  0  0  0  0  0  0  0
  1  2  1  0  0  0  0
  2  3  1  0  0  0  0
  3  4  1  0  0  0  0
  4  5  1  0  0  0  0
  5  6  1  0  0  0  0
  6  7  1  0  0  0  0
  7  8  1  0  0  0  0
  8  9  1  0  0  0  0
  9 10  1  0  0  0  0
 10 11  1  0  0  0  0
 11 12  1  0  0  0  0
 12 13  1  0  0  0  0
 13 14  1  0  0  0  0
 14 15  1  0  0  0  0
 15 16  1  0  0  0  0
 16 17  1  0  0  0  0
 12 17  1  0  0  0  0
 17 18  1  0  0  0  0
  9 18  1  0  0  0  0
 18 19  1  0  0  0  0
 19 20  1  0  0  0  0
 20 21  2  0  0  0  0
  8 21  1  0  0  0  0
 21 22  1  0  0  0  0
  5 22  1  0  0  0  0
  1 22  1  0  0  0  0
 19 23  2  0  0  0  0
 17 24  1  1  0  0  0
 13 25  1  0  0  0  0
 13 26  1  0  0  0  0
  5 27  1  1  0  0  0
  2 28  1  6  0  0  0
 29 30  1  0  0  0  0
  2 29  1  1  0  0  0
 14 31  1  1  0  0  0
 12 32  1  6  0  0  0
 22 33  1  1  0  0  0
  9 34  1  1  0  0  0
  8 35  1  6  0  0  0
 18 36  1  6  0  0  0
M  END
>  <cdx:fragmentId>
89449

$$$$
