310272.cdx
  Mrv1902 05222410222D          

 31 34  0  0  0  0            999 V2000
    5.3994  -10.1232    0.0000 O   0  0  0  0  0  0  0  0  0  0  0  0
    3.9701   -7.6484    0.0000 O   0  0  0  0  0  0  0  0  0  0  0  0
   10.4002   -6.4099    0.0000 O   0  0  0  0  0  0  0  0  0  0  0  0
    8.2568   -6.8227    0.0000 C   0  0  0  0  0  0  0  0  0  0  0  0
    8.9712   -6.4101    0.0000 C   0  0  0  0  0  0  0  0  0  0  0  0
    9.6857   -6.8225    0.0000 C   0  0  0  0  0  0  0  0  0  0  0  0
    9.6859   -7.6475    0.0000 C   0  0  0  0  0  0  0  0  0  0  0  0
    8.9715   -8.0601    0.0000 C   0  0  0  0  0  0  0  0  0  0  0  0
    8.2569   -7.6477    0.0000 C   0  0  0  0  0  0  0  0  0  0  0  0
    9.6863  -10.1225    0.0000 O   0  0  0  0  0  0  0  0  0  0  0  0
    9.6865  -11.7725    0.0000 O   0  0  0  0  0  0  0  0  0  0  0  0
    8.2577  -12.5977    0.0000 O   0  0  0  0  0  0  0  0  0  0  0  0
    6.8286  -11.7730    0.0000 C   0  0  0  0  0  0  0  0  0  0  0  0
    7.5431  -11.3604    0.0000 C   0  0  1  0  0  0  0  0  0  0  0  0
    8.2576  -11.7727    0.0000 C   0  0  1  0  0  0  0  0  0  0  0  0
    8.9720  -11.3601    0.0000 C   0  0  2  0  0  0  0  0  0  0  0  0
    8.9719  -10.5351    0.0000 C   0  0  2  0  0  0  0  0  0  0  0  0
    8.2573  -10.1227    0.0000 C   0  0  1  0  0  0  0  0  0  0  0  0
    7.5429  -10.5354    0.0000 O   0  0  0  0  0  0  0  0  0  0  0  0
    8.2572   -9.2977    0.0000 O   0  0  0  0  0  0  0  0  0  0  0  0
    6.8284  -10.1230    0.0000 O   0  0  0  0  0  0  0  0  0  0  0  0
    6.8280   -7.6480    0.0000 O   0  0  0  0  0  0  0  0  0  0  0  0
    6.1136   -8.0606    0.0000 C   0  0  0  0  0  0  0  0  0  0  0  0
    5.3991   -7.6482    0.0000 C   0  0  0  0  0  0  0  0  0  0  0  0
    4.6846   -8.0608    0.0000 C   0  0  0  0  0  0  0  0  0  0  0  0
    4.6848   -8.8858    0.0000 C   0  0  0  0  0  0  0  0  0  0  0  0
    5.3993   -9.2982    0.0000 C   0  0  0  0  0  0  0  0  0  0  0  0
    6.1137   -8.8856    0.0000 C   0  0  0  0  0  0  0  0  0  0  0  0
    6.8283   -9.2980    0.0000 C   0  0  0  0  0  0  0  0  0  0  0  0
    7.5427   -8.8854    0.0000 C   0  0  2  0  0  0  0  0  0  0  0  0
    7.5425   -8.0604    0.0000 C   0  0  2  0  0  0  0  0  0  0  0  0
 27  1  1  0  0  0  0
 25  2  1  0  0  0  0
 31  9  1  1  0  0  0
  6  3  1  0  0  0  0
  9  4  2  0  0  0  0
  5  4  1  0  0  0  0
  6  5  2  0  0  0  0
  7  6  1  0  0  0  0
  8  7  2  0  0  0  0
  9  8  1  0  0  0  0
 30 20  1  6  0  0  0
 18 20  1  1  0  0  0
 17 10  1  6  0  0  0
 16 11  1  6  0  0  0
 15 12  1  1  0  0  0
 14 13  1  6  0  0  0
 19 14  1  0  0  0  0
 15 14  1  0  0  0  0
 16 15  1  0  0  0  0
 17 16  1  0  0  0  0
 18 17  1  0  0  0  0
 19 18  1  0  0  0  0
 29 21  2  0  0  0  0
 31 22  1  0  0  0  0
 23 22  1  0  0  0  0
 28 23  2  0  0  0  0
 24 23  1  0  0  0  0
 25 24  2  0  0  0  0
 26 25  1  0  0  0  0
 27 26  2  0  0  0  0
 28 27  1  0  0  0  0
 29 28  1  0  0  0  0
 30 29  1  0  0  0  0
 31 30  1  0  0  0  0
M  END
>  <cdx:fragmentId>
207630

$$$$
