3103.cdx
  Mrv1902 05222410272D          

 25 26  0  0  0  0            999 V2000
    2.7877   -7.2119    0.0000 C   0  0  0  0  0  0  0  0  0  0  0  0
    2.7877   -8.0369    0.0000 C   0  0  0  0  0  0  0  0  0  0  0  0
    3.5021   -8.4494    0.0000 C   0  0  0  0  0  0  0  0  0  0  0  0
    4.2166   -8.0369    0.0000 C   0  0  0  0  0  0  0  0  0  0  0  0
    4.2166   -7.2119    0.0000 C   0  0  0  0  0  0  0  0  0  0  0  0
    3.5021   -6.7994    0.0000 C   0  0  0  0  0  0  0  0  0  0  0  0
    4.9311   -8.4494    0.0000 N   0  0  0  0  0  0  0  0  0  0  0  0
    5.6455   -8.0369    0.0000 C   0  0  0  0  0  0  0  0  0  0  0  0
    5.6455   -7.2119    0.0000 C   0  0  0  0  0  0  0  0  0  0  0  0
    4.9311   -6.7994    0.0000 C   0  0  0  0  0  0  0  0  0  0  0  0
    4.9311   -5.9744    0.0000 O   0  0  0  0  0  0  0  0  0  0  0  0
    6.3600   -8.4494    0.0000 C   0  0  0  0  0  0  0  0  0  0  0  0
    4.9311   -9.2744    0.0000 C   0  0  0  0  0  0  0  0  0  0  0  0
    7.0745   -8.0369    0.0000 C   0  0  0  0  0  0  0  0  0  0  0  0
    7.7890   -8.4494    0.0000 C   0  0  0  0  0  0  0  0  0  0  0  0
    8.5034   -8.0369    0.0000 C   0  0  0  0  0  0  0  0  0  0  0  0
    9.2179   -8.4494    0.0000 C   0  0  0  0  0  0  0  0  0  0  0  0
    9.2179   -9.2744    0.0000 C   0  0  0  0  0  0  0  0  0  0  0  0
    9.9324   -9.6869    0.0000 C   0  0  0  0  0  0  0  0  0  0  0  0
    9.9324  -10.5119    0.0000 C   0  0  0  0  0  0  0  0  0  0  0  0
   10.6468  -10.9244    0.0000 C   0  0  0  0  0  0  0  0  0  0  0  0
   10.6468  -11.7494    0.0000 C   0  0  0  0  0  0  0  0  0  0  0  0
   11.3613  -12.1619    0.0000 C   0  0  0  0  0  0  0  0  0  0  0  0
   11.3613  -12.9869    0.0000 C   0  0  0  0  0  0  0  0  0  0  0  0
   12.0758  -13.3994    0.0000 C   0  0  0  0  0  0  0  0  0  0  0  0
  1  2  2  0  0  0  0
  2  3  1  0  0  0  0
  3  4  2  0  0  0  0
  4  5  1  0  0  0  0
  5  6  2  0  0  0  0
  6  1  1  0  0  0  0
  4  7  1  0  0  0  0
  7  8  1  0  0  0  0
  8  9  2  0  0  0  0
  9 10  1  0  0  0  0
 10  5  1  0  0  0  0
 10 11  2  0  0  0  0
  8 12  1  0  0  0  0
  7 13  1  0  0  0  0
 12 14  1  0  0  0  0
 14 15  1  0  0  0  0
 15 16  1  0  0  0  0
 16 17  2  0  0  0  0
 17 18  1  0  0  0  0
 18 19  1  0  0  0  0
 19 20  1  0  0  0  0
 20 21  1  0  0  0  0
 21 22  1  0  0  0  0
 22 23  1  0  0  0  0
 23 24  1  0  0  0  0
 24 25  1  0  0  0  0
M  END
>  <cdx:fragmentId>
5

$$$$
