3104.cdx
  Mrv1902 05222410262D          

 27 28  0  0  0  0            999 V2000
    1.8802   -7.4869    0.0000 C   0  0  0  0  0  0  0  0  0  0  0  0
    1.8802   -8.3119    0.0000 C   0  0  0  0  0  0  0  0  0  0  0  0
    2.5946   -8.7244    0.0000 C   0  0  0  0  0  0  0  0  0  0  0  0
    3.3091   -8.3119    0.0000 C   0  0  0  0  0  0  0  0  0  0  0  0
    3.3091   -7.4869    0.0000 C   0  0  0  0  0  0  0  0  0  0  0  0
    2.5946   -7.0744    0.0000 C   0  0  0  0  0  0  0  0  0  0  0  0
    4.0236   -8.7244    0.0000 N   0  0  0  0  0  0  0  0  0  0  0  0
    4.7380   -8.3119    0.0000 C   0  0  0  0  0  0  0  0  0  0  0  0
    4.7380   -7.4869    0.0000 C   0  0  0  0  0  0  0  0  0  0  0  0
    4.0236   -7.0744    0.0000 C   0  0  0  0  0  0  0  0  0  0  0  0
    4.0236   -6.2494    0.0000 O   0  0  0  0  0  0  0  0  0  0  0  0
    5.4525   -8.7244    0.0000 C   0  0  0  0  0  0  0  0  0  0  0  0
    4.0236   -9.5494    0.0000 C   0  0  0  0  0  0  0  0  0  0  0  0
    6.1670   -8.3119    0.0000 C   0  0  0  0  0  0  0  0  0  0  0  0
    6.8815   -8.7244    0.0000 C   0  0  0  0  0  0  0  0  0  0  0  0
    7.5959   -8.3119    0.0000 C   0  0  0  0  0  0  0  0  0  0  0  0
    8.3104   -8.7244    0.0000 C   0  0  0  0  0  0  0  0  0  0  0  0
    9.0249   -8.3119    0.0000 C   0  0  0  0  0  0  0  0  0  0  0  0
    9.7393   -8.7244    0.0000 C   0  0  0  0  0  0  0  0  0  0  0  0
    9.7393   -9.5494    0.0000 C   0  0  0  0  0  0  0  0  0  0  0  0
   10.4538   -9.9619    0.0000 C   0  0  0  0  0  0  0  0  0  0  0  0
   10.4538  -10.7869    0.0000 C   0  0  0  0  0  0  0  0  0  0  0  0
   11.1683  -11.1994    0.0000 C   0  0  0  0  0  0  0  0  0  0  0  0
   11.1683  -12.0244    0.0000 C   0  0  0  0  0  0  0  0  0  0  0  0
   11.8827  -12.4369    0.0000 C   0  0  0  0  0  0  0  0  0  0  0  0
   11.8827  -13.2619    0.0000 C   0  0  0  0  0  0  0  0  0  0  0  0
   12.5972  -13.6744    0.0000 C   0  0  0  0  0  0  0  0  0  0  0  0
  1  2  2  0  0  0  0
  2  3  1  0  0  0  0
  3  4  2  0  0  0  0
  4  5  1  0  0  0  0
  5  6  2  0  0  0  0
  6  1  1  0  0  0  0
  4  7  1  0  0  0  0
  7  8  1  0  0  0  0
  8  9  2  0  0  0  0
  9 10  1  0  0  0  0
 10  5  1  0  0  0  0
 10 11  2  0  0  0  0
  8 12  1  0  0  0  0
  7 13  1  0  0  0  0
 12 14  1  0  0  0  0
 14 15  1  0  0  0  0
 15 16  1  0  0  0  0
 16 17  1  0  0  0  0
 17 18  1  0  0  0  0
 18 19  2  0  0  0  0
 19 20  1  0  0  0  0
 20 21  1  0  0  0  0
 21 22  1  0  0  0  0
 22 23  1  0  0  0  0
 23 24  1  0  0  0  0
 24 25  1  0  0  0  0
 25 26  1  0  0  0  0
 26 27  1  0  0  0  0
M  END
>  <cdx:fragmentId>
5

$$$$
