11310474.cdx
  Mrv1902 05222410222D          

 17 18  0  0  0  0            999 V2000
   14.3681  -10.9313    0.0000 C   0  0  0  0  0  0  0  0  0  0  0  0
   13.6536  -10.5188    0.0000 C   0  0  0  0  0  0  0  0  0  0  0  0
   13.6536   -9.6937    0.0000 C   0  0  0  0  0  0  0  0  0  0  0  0
   14.3681   -9.2813    0.0000 C   0  0  0  0  0  0  0  0  0  0  0  0
   15.0825   -9.6937    0.0000 C   0  0  2  0  0  0  0  0  0  0  0  0
   15.7970   -9.2813    0.0000 C   0  0  0  0  0  0  0  0  0  0  0  0
   16.5115   -9.6937    0.0000 C   0  0  0  0  0  0  0  0  0  0  0  0
   16.5115  -10.5188    0.0000 C   0  0  0  0  0  0  0  0  0  0  0  0
   15.7970  -10.9313    0.0000 C   0  0  0  0  0  0  0  0  0  0  0  0
   15.0825  -10.5188    0.0000 C   0  0  2  0  0  0  0  0  0  0  0  0
   12.9391  -10.9313    0.0000 O   0  0  0  0  0  0  0  0  0  0  0  0
   12.9391   -8.4563    0.0000 C   0  0  0  0  0  0  0  0  0  0  0  0
   12.9391   -9.2813    0.0000 C   0  0  0  0  0  0  0  0  0  0  0  0
   12.2246   -9.6937    0.0000 C   0  0  0  0  0  0  0  0  0  0  0  0
   15.0825  -11.3438    0.0000 C   0  0  0  0  0  0  0  0  0  0  0  0
   15.7970   -8.4563    0.0000 C   0  0  0  0  0  0  0  0  0  0  0  0
   15.0825   -8.8688    0.0000 H   0  0  0  0  0  0  0  0  0  0  0  0
  1  2  1  0  0  0  0
  2  3  1  0  0  0  0
  3  4  1  0  0  0  0
  4  5  1  0  0  0  0
  5  6  1  0  0  0  0
  6  7  2  0  0  0  0
  7  8  1  0  0  0  0
  8  9  2  0  0  0  0
  9 10  1  0  0  0  0
  1 10  1  0  0  0  0
  5 10  1  0  0  0  0
  2 11  2  0  0  0  0
 12 13  1  0  0  0  0
 13 14  1  0  0  0  0
  3 13  2  0  0  0  0
 10 15  1  1  0  0  0
  6 16  1  0  0  0  0
  5 17  1  1  0  0  0
M  END
>  <cdx:groupId>
7896

>  <cdx:fragmentId>
7847

$$$$
