310512.cdx
  Mrv1902 05222410202D          

 15 16  0  0  0  0            999 V2000
    5.2149  -13.8262    0.0000 O   0  0  0  0  0  0  0  0  0  0  0  0
    7.0563  -13.1117    0.0000 O   0  0  0  0  0  0  0  0  0  0  0  0
    7.3583  -15.8887    0.0000 C   0  0  0  0  0  0  0  0  0  0  0  0
    6.2313  -13.1117    0.0000 C   0  0  0  0  0  0  0  0  0  0  0  0
    9.5017  -13.8262    0.0000 O   0  0  0  0  0  0  0  0  0  0  0  0
    7.3583  -14.2387    0.0000 C   0  0  0  0  0  0  0  0  0  0  0  0
    6.6438  -13.8262    0.0000 C   0  0  1  0  0  0  0  0  0  0  0  0
    5.9293  -14.2387    0.0000 C   0  0  1  0  0  0  0  0  0  0  0  0
    5.9293  -15.0637    0.0000 C   0  0  0  0  0  0  0  0  0  0  0  0
    6.6438  -15.4762    0.0000 C   0  0  0  0  0  0  0  0  0  0  0  0
    7.3583  -15.0637    0.0000 C   0  0  1  0  0  0  0  0  0  0  0  0
    8.0728  -15.4762    0.0000 C   0  0  0  0  0  0  0  0  0  0  0  0
    8.7872  -15.0637    0.0000 C   0  0  0  0  0  0  0  0  0  0  0  0
    8.7872  -14.2387    0.0000 C   0  0  0  0  0  0  0  0  0  0  0  0
    8.0728  -13.8262    0.0000 C   0  0  0  0  0  0  0  0  0  0  0  0
  8  1  1  1  0  0  0
  7  2  1  1  0  0  0
 11  3  1  6  0  0  0
  7  4  1  6  0  0  0
 14  5  2  0  0  0  0
 11  6  1  0  0  0  0
 15  6  2  0  0  0  0
  7  6  1  0  0  0  0
  8  7  1  0  0  0  0
  9  8  1  0  0  0  0
 10  9  1  0  0  0  0
 11 10  1  0  0  0  0
 12 11  1  0  0  0  0
 13 12  1  0  0  0  0
 14 13  1  0  0  0  0
 15 14  1  0  0  0  0
M  END
>  <cdx:groupId>
159476

>  <cdx:fragmentId>
159433

$$$$
