31069.cdx
  Mrv1902 05222410232D          

 22 25  0  0  0  0            999 V2000
    8.6914   -7.0945    0.0000 N   0  0  0  0  0  0  0  0  0  0  0  0
    9.4057   -6.6818    0.0000 C   0  0  0  0  0  0  0  0  0  0  0  0
    9.4060   -5.8568    0.0000 C   0  0  0  0  0  0  0  0  0  0  0  0
    8.6919   -5.4436    0.0000 C   0  0  0  0  0  0  0  0  0  0  0  0
    7.9774   -5.8561    0.0000 C   0  0  0  0  0  0  0  0  0  0  0  0
    7.2630   -5.4436    0.0000 C   0  0  0  0  0  0  0  0  0  0  0  0
    6.5485   -5.8561    0.0000 C   0  0  0  0  0  0  0  0  0  0  0  0
    6.5485   -6.6811    0.0000 C   0  0  0  0  0  0  0  0  0  0  0  0
    7.2630   -7.0936    0.0000 C   0  0  0  0  0  0  0  0  0  0  0  0
    7.9774   -6.6811    0.0000 C   0  0  2  0  0  0  0  0  0  0  0  0
    7.2630   -4.6186    0.0000 C   0  0  0  0  0  0  0  0  0  0  0  0
    7.9774   -4.2061    0.0000 C   0  0  0  0  0  0  0  0  0  0  0  0
    8.6919   -4.6186    0.0000 C   0  0  0  0  0  0  0  0  0  0  0  0
    5.8340   -7.0936    0.0000 C   0  0  0  0  0  0  0  0  0  0  0  0
    5.1195   -6.6811    0.0000 C   0  0  0  0  0  0  0  0  0  0  0  0
    5.1195   -5.8561    0.0000 C   0  0  0  0  0  0  0  0  0  0  0  0
    5.8340   -5.4436    0.0000 C   0  0  0  0  0  0  0  0  0  0  0  0
    6.5485   -4.2061    0.0000 O   0  0  0  0  0  0  0  0  0  0  0  0
    8.6914   -7.9195    0.0000 C   0  0  0  0  0  0  0  0  0  0  0  0
    7.9774   -3.3811    0.0000 O   0  0  0  0  0  0  0  0  0  0  0  0
    7.2630   -2.9686    0.0000 C   0  0  0  0  0  0  0  0  0  0  0  0
    7.9774   -7.5061    0.0000 H   0  0  0  0  0  0  0  0  0  0  0  0
  1  2  1  0  0  0  0
  2  3  1  0  0  0  0
  3  4  1  0  0  0  0
  4  5  1  0  0  0  0
  5  6  2  0  0  0  0
  6  7  1  0  0  0  0
  7  8  1  0  0  0  0
  8  9  1  0  0  0  0
  9 10  1  0  0  0  0
  1 10  1  0  0  0  0
  5 10  1  0  0  0  0
 11 12  2  0  0  0  0
 12 13  1  0  0  0  0
 13  4  2  0  0  0  0
 11  6  1  0  0  0  0
 14 15  1  0  0  0  0
 15 16  2  0  0  0  0
 16 17  1  0  0  0  0
 17  7  2  0  0  0  0
 14  8  2  0  0  0  0
 11 18  1  0  0  0  0
  1 19  1  0  0  0  0
 20 21  1  0  0  0  0
 12 20  1  0  0  0  0
 10 22  1  6  0  0  0
M  END
>  <cdx:fragmentId>
5

$$$$
