11310616.cdx
  Mrv1902 05222410202D          

 19 21  0  0  0  0            999 V2000
    7.2675  -14.0342    0.0000 C   0  0  1  0  0  0  0  0  0  0  0  0
    6.6225  -14.5486    0.0000 C   0  0  2  0  0  0  0  0  0  0  0  0
    5.8378  -14.2937    0.0000 C   0  0  0  0  0  0  0  0  0  0  0  0
    5.3529  -14.9611    0.0000 C   0  0  0  0  0  0  0  0  0  0  0  0
    5.8378  -15.6285    0.0000 C   0  0  2  0  0  0  0  0  0  0  0  0
    6.6225  -15.3736    0.0000 C   0  0  1  0  0  0  0  0  0  0  0  0
    7.2675  -15.8880    0.0000 C   0  0  0  0  0  0  0  0  0  0  0  0
    8.0718  -15.7044    0.0000 C   0  0  2  0  0  0  0  0  0  0  0  0
    8.4297  -14.9611    0.0000 C   0  0  0  0  0  0  0  0  0  0  0  0
    8.0718  -14.2178    0.0000 O   0  0  0  0  0  0  0  0  0  0  0  0
    7.0644  -14.7494    0.0000 C   0  0  0  0  0  0  0  0  0  0  0  0
    7.3866  -15.4184    0.0000 C   0  0  0  0  0  0  0  0  0  0  0  0
    9.1442  -14.5486    0.0000 C   0  0  0  0  0  0  0  0  0  0  0  0
    9.1442  -15.3736    0.0000 C   0  0  0  0  0  0  0  0  0  0  0  0
    5.5829  -16.4132    0.0000 C   0  0  0  0  0  0  0  0  0  0  0  0
    7.0839  -13.2299    0.0000 C   0  0  0  0  0  0  0  0  0  0  0  0
    6.4751  -13.7369    0.0000 H   0  0  0  0  0  0  0  0  0  0  0  0
    6.4751  -16.1853    0.0000 H   0  0  0  0  0  0  0  0  0  0  0  0
    8.5862  -16.3494    0.0000 H   0  0  0  0  0  0  0  0  0  0  0  0
  1  2  1  0  0  0  0
  2  3  1  0  0  0  0
  3  4  1  0  0  0  0
  4  5  1  0  0  0  0
  5  6  1  0  0  0  0
  6  7  1  0  0  0  0
  7  8  1  0  0  0  0
  8  9  1  0  0  0  0
  9 10  1  0  0  0  0
 11 12  1  0  0  0  0
  1 10  1  0  0  0  0
  1 11  1  6  0  0  0
  8 12  1  6  0  0  0
  2  6  1  0  0  0  0
  9 13  1  0  0  0  0
  9 14  1  0  0  0  0
  5 15  1  6  0  0  0
  1 16  1  0  0  0  0
  2 17  1  6  0  0  0
  6 18  1  1  0  0  0
  8 19  1  0  0  0  0
M  END
>  <cdx:groupId>
70030

>  <cdx:fragmentId>
69974

$$$$
