3107.cdx
  Mrv1902 05222410272D          

 22 23  0  0  0  0            999 V2000
    1.8252   -7.1294    0.0000 C   0  0  0  0  0  0  0  0  0  0  0  0
    1.8252   -7.9544    0.0000 C   0  0  0  0  0  0  0  0  0  0  0  0
    2.5396   -8.3669    0.0000 C   0  0  0  0  0  0  0  0  0  0  0  0
    3.2541   -7.9544    0.0000 C   0  0  0  0  0  0  0  0  0  0  0  0
    3.2541   -7.1294    0.0000 C   0  0  0  0  0  0  0  0  0  0  0  0
    2.5396   -6.7169    0.0000 C   0  0  0  0  0  0  0  0  0  0  0  0
    3.9686   -8.3669    0.0000 N   0  0  0  0  0  0  0  0  0  0  0  0
    4.6830   -7.9544    0.0000 C   0  0  0  0  0  0  0  0  0  0  0  0
    4.6830   -7.1294    0.0000 C   0  0  0  0  0  0  0  0  0  0  0  0
    3.9686   -6.7169    0.0000 C   0  0  0  0  0  0  0  0  0  0  0  0
    3.9686   -5.8919    0.0000 O   0  0  0  0  0  0  0  0  0  0  0  0
    5.3975   -8.3669    0.0000 C   0  0  0  0  0  0  0  0  0  0  0  0
    3.9686   -9.1919    0.0000 C   0  0  0  0  0  0  0  0  0  0  0  0
    6.1120   -7.9544    0.0000 C   0  0  0  0  0  0  0  0  0  0  0  0
    6.8265   -8.3669    0.0000 C   0  0  0  0  0  0  0  0  0  0  0  0
    7.5409   -7.9544    0.0000 C   0  0  0  0  0  0  0  0  0  0  0  0
    8.2554   -8.3669    0.0000 C   0  0  0  0  0  0  0  0  0  0  0  0
    8.9699   -7.9544    0.0000 C   0  0  0  0  0  0  0  0  0  0  0  0
    9.6843   -8.3669    0.0000 C   0  0  0  0  0  0  0  0  0  0  0  0
   10.3988   -7.9544    0.0000 C   0  0  0  0  0  0  0  0  0  0  0  0
   11.1133   -8.3669    0.0000 C   0  0  0  0  0  0  0  0  0  0  0  0
   11.8277   -7.9544    0.0000 C   0  0  0  0  0  0  0  0  0  0  0  0
  1  2  2  0  0  0  0
  2  3  1  0  0  0  0
  3  4  2  0  0  0  0
  4  5  1  0  0  0  0
  5  6  2  0  0  0  0
  6  1  1  0  0  0  0
  4  7  1  0  0  0  0
  7  8  1  0  0  0  0
  8  9  2  0  0  0  0
  9 10  1  0  0  0  0
 10  5  1  0  0  0  0
 10 11  2  0  0  0  0
  8 12  1  0  0  0  0
  7 13  1  0  0  0  0
 12 14  1  0  0  0  0
 14 15  1  0  0  0  0
 15 16  1  0  0  0  0
 16 17  1  0  0  0  0
 17 18  1  0  0  0  0
 18 19  1  0  0  0  0
 19 20  1  0  0  0  0
 20 21  1  0  0  0  0
 21 22  1  0  0  0  0
M  END
>  <cdx:fragmentId>
5

$$$$
