31082.cdx
  Mrv1902 05222410232D          

 38 42  0  0  0  0            999 V2000
    6.4194   -8.6746    0.0000 C   0  0  2  0  0  0  0  0  0  0  0  0
    7.1338   -8.2621    0.0000 C   0  0  1  0  0  0  0  0  0  0  0  0
    7.9185   -8.5170    0.0000 C   0  0  0  0  0  0  0  0  0  0  0  0
    8.4034   -7.8496    0.0000 C   0  0  0  0  0  0  0  0  0  0  0  0
    7.9185   -7.1822    0.0000 C   0  0  0  0  0  0  0  0  0  0  0  0
    7.1338   -7.4371    0.0000 C   0  0  0  0  0  0  0  0  0  0  0  0
    6.4194   -7.0246    0.0000 C   0  0  0  0  0  0  0  0  0  0  0  0
    5.7049   -7.4371    0.0000 C   0  0  1  0  0  0  0  0  0  0  0  0
    5.7049   -8.2621    0.0000 C   0  0  1  0  0  0  0  0  0  0  0  0
    4.9904   -8.6746    0.0000 C   0  0  1  0  0  0  0  0  0  0  0  0
    4.2760   -8.2621    0.0000 C   0  0  0  0  0  0  0  0  0  0  0  0
    3.5615   -8.6746    0.0000 C   0  0  0  0  0  0  0  0  0  0  0  0
    3.5615   -9.4996    0.0000 C   0  0  0  0  0  0  0  0  0  0  0  0
    4.2760   -9.9121    0.0000 C   0  0  0  0  0  0  0  0  0  0  0  0
    4.9904   -9.4996    0.0000 C   0  0  2  0  0  0  0  0  0  0  0  0
    5.7049   -9.9121    0.0000 C   0  0  0  0  0  0  0  0  0  0  0  0
    6.4194   -9.4996    0.0000 C   0  0  0  0  0  0  0  0  0  0  0  0
    2.8470   -9.9121    0.0000 O   0  0  0  0  0  0  0  0  0  0  0  0
    4.6885  -10.6266    0.0000 C   0  0  0  0  0  0  0  0  0  0  0  0
    3.8635  -10.6266    0.0000 C   0  0  0  0  0  0  0  0  0  0  0  0
    4.9904   -7.8496    0.0000 C   0  0  0  0  0  0  0  0  0  0  0  0
    7.1338   -9.0871    0.0000 C   0  0  0  0  0  0  0  0  0  0  0  0
    6.4194   -7.8496    0.0000 C   0  0  0  0  0  0  0  0  0  0  0  0
    4.9904   -7.0246    0.0000 O   0  0  0  0  0  0  0  0  0  0  0  0
    5.7049   -9.0871    0.0000 H   0  0  0  0  0  0  0  0  0  0  0  0
    4.9904  -10.3246    0.0000 H   0  0  0  0  0  0  0  0  0  0  0  0
    9.2284   -7.8496    0.0000 O   0  0  0  0  0  0  0  0  0  0  0  0
    8.1734   -6.3975    0.0000 C   0  0  2  0  0  0  0  0  0  0  0  0
    8.9580   -6.1426    0.0000 C   0  0  0  0  0  0  0  0  0  0  0  0
    8.9580   -5.3176    0.0000 C   0  0  0  0  0  0  0  0  0  0  0  0
    8.1734   -5.0627    0.0000 C   0  0  0  0  0  0  0  0  0  0  0  0
    7.6885   -5.7301    0.0000 O   0  0  0  0  0  0  0  0  0  0  0  0
    7.3888   -6.6525    0.0000 C   0  0  0  0  0  0  0  0  0  0  0  0
    9.6255   -4.8327    0.0000 O   0  0  0  0  0  0  0  0  0  0  0  0
    7.9185   -4.2780    0.0000 C   0  0  0  0  0  0  0  0  0  0  0  0
    8.7153   -4.0645    0.0000 C   0  0  0  0  0  0  0  0  0  0  0  0
    7.1216   -4.4916    0.0000 C   0  0  0  0  0  0  0  0  0  0  0  0
    7.6635   -3.4934    0.0000 O   0  0  0  0  0  0  0  0  0  0  0  0
  1  2  1  0  0  0  0
  2  3  1  0  0  0  0
  3  4  1  0  0  0  0
  5  6  2  0  0  0  0
  6  7  1  0  0  0  0
  7  8  1  0  0  0  0
  8  9  1  0  0  0  0
  9 10  1  0  0  0  0
 10 11  1  0  0  0  0
 11 12  1  0  0  0  0
 12 13  1  0  0  0  0
 13 14  1  0  0  0  0
 14 15  1  0  0  0  0
 15 16  1  0  0  0  0
 16 17  1  0  0  0  0
  1 17  1  0  0  0  0
  1  9  1  0  0  0  0
 10 15  1  0  0  0  0
  2  6  1  0  0  0  0
  4  5  1  0  0  0  0
 13 18  2  0  0  0  0
 14 19  1  0  0  0  0
 14 20  1  0  0  0  0
 10 21  1  1  0  0  0
  2 22  1  1  0  0  0
  1 23  1  6  0  0  0
  8 24  1  1  0  0  0
  9 25  1  1  0  0  0
 15 26  1  6  0  0  0
  4 27  2  0  0  0  0
  5 28  1  0  0  0  0
 28 29  1  0  0  0  0
 29 30  1  0  0  0  0
 30 31  1  0  0  0  0
 31 32  1  0  0  0  0
 32 28  1  0  0  0  0
 28 33  1  6  0  0  0
 30 34  1  0  0  0  0
 31 35  1  0  0  0  0
 35 36  1  0  0  0  0
 35 37  1  0  0  0  0
 35 38  1  0  0  0  0
M  END
>  <cdx:fragmentId>
207735

$$$$
