31083.cdx
  Mrv1902 05222410232D          

 17 18  0  0  0  0            999 V2000
    8.4068   -6.9483    0.0000 C   0  0  0  0  0  0  0  0  0  0  0  0
    8.4108   -6.1233    0.0000 C   0  0  0  0  0  0  0  0  0  0  0  0
    7.6984   -5.7073    0.0000 C   0  0  0  0  0  0  0  0  0  0  0  0
    6.9819   -6.1164    0.0000 C   0  0  0  0  0  0  0  0  0  0  0  0
    6.9779   -6.9413    0.0000 C   0  0  2  0  0  0  0  0  0  0  0  0
    7.6904   -7.3573    0.0000 C   0  0  2  0  0  0  0  0  0  0  0  0
    6.2694   -5.7004    0.0000 C   0  0  0  0  0  0  0  0  0  0  0  0
    5.5530   -6.1094    0.0000 C   0  0  0  0  0  0  0  0  0  0  0  0
    5.5490   -6.9344    0.0000 C   0  0  0  0  0  0  0  0  0  0  0  0
    6.2614   -7.3504    0.0000 C   0  0  0  0  0  0  0  0  0  0  0  0
    4.8405   -5.6935    0.0000 C   0  0  0  0  0  0  0  0  0  0  0  0
    4.1240   -6.1025    0.0000 C   0  0  0  0  0  0  0  0  0  0  0  0
    4.8445   -4.8685    0.0000 C   0  0  0  0  0  0  0  0  0  0  0  0
    6.9739   -7.7663    0.0000 C   0  0  0  0  0  0  0  0  0  0  0  0
    7.6864   -8.1823    0.0000 O   0  0  0  0  0  0  0  0  0  0  0  0
    7.7024   -4.8823    0.0000 C   0  0  0  0  0  0  0  0  0  0  0  0
    9.1273   -5.7142    0.0000 O   0  0  0  0  0  0  0  0  0  0  0  0
  1  2  1  0  0  0  0
  2  3  1  0  0  0  0
  3  4  2  0  0  0  0
  4  5  1  0  0  0  0
  5  6  1  0  0  0  0
  6  1  1  0  0  0  0
  4  7  1  0  0  0  0
  7  8  2  0  0  0  0
  8  9  1  0  0  0  0
  9 10  1  0  0  0  0
 10  5  1  0  0  0  0
  8 11  1  0  0  0  0
 11 12  1  0  0  0  0
 11 13  1  0  0  0  0
  5 14  1  1  0  0  0
  6 15  1  1  0  0  0
  3 16  1  0  0  0  0
  2 17  2  0  0  0  0
M  END
>  <cdx:fragmentId>
207905

$$$$
