3108.cdx
  Mrv1902 05222410202D          

 21 22  0  0  0  0            999 V2000
    2.6227   -7.0469    0.0000 C   0  0  0  0  0  0  0  0  0  0  0  0
    2.6227   -7.8719    0.0000 C   0  0  0  0  0  0  0  0  0  0  0  0
    3.3371   -8.2844    0.0000 C   0  0  0  0  0  0  0  0  0  0  0  0
    4.0516   -7.8719    0.0000 C   0  0  0  0  0  0  0  0  0  0  0  0
    4.0516   -7.0469    0.0000 C   0  0  0  0  0  0  0  0  0  0  0  0
    3.3371   -6.6344    0.0000 C   0  0  0  0  0  0  0  0  0  0  0  0
    4.7661   -8.2844    0.0000 N   0  0  0  0  0  0  0  0  0  0  0  0
    5.4805   -7.8719    0.0000 C   0  0  0  0  0  0  0  0  0  0  0  0
    5.4805   -7.0469    0.0000 C   0  0  0  0  0  0  0  0  0  0  0  0
    4.7661   -6.6344    0.0000 C   0  0  0  0  0  0  0  0  0  0  0  0
    4.7661   -5.8094    0.0000 O   0  0  0  0  0  0  0  0  0  0  0  0
    6.1950   -8.2844    0.0000 C   0  0  0  0  0  0  0  0  0  0  0  0
    4.7661   -9.1094    0.0000 C   0  0  0  0  0  0  0  0  0  0  0  0
    6.9095   -7.8719    0.0000 C   0  0  0  0  0  0  0  0  0  0  0  0
    7.6240   -8.2844    0.0000 C   0  0  0  0  0  0  0  0  0  0  0  0
    8.3384   -7.8719    0.0000 C   0  0  0  0  0  0  0  0  0  0  0  0
    9.0529   -8.2844    0.0000 C   0  0  0  0  0  0  0  0  0  0  0  0
    9.7674   -7.8719    0.0000 C   0  0  0  0  0  0  0  0  0  0  0  0
   10.4818   -8.2844    0.0000 C   0  0  0  0  0  0  0  0  0  0  0  0
   11.1963   -7.8719    0.0000 C   0  0  0  0  0  0  0  0  0  0  0  0
   11.9108   -8.2844    0.0000 C   0  0  0  0  0  0  0  0  0  0  0  0
  1  2  2  0  0  0  0
  2  3  1  0  0  0  0
  3  4  2  0  0  0  0
  4  5  1  0  0  0  0
  5  6  2  0  0  0  0
  6  1  1  0  0  0  0
  4  7  1  0  0  0  0
  7  8  1  0  0  0  0
  8  9  2  0  0  0  0
  9 10  1  0  0  0  0
 10  5  1  0  0  0  0
 10 11  2  0  0  0  0
  8 12  1  0  0  0  0
  7 13  1  0  0  0  0
 12 14  1  0  0  0  0
 14 15  1  0  0  0  0
 15 16  1  0  0  0  0
 16 17  1  0  0  0  0
 17 18  1  0  0  0  0
 18 19  1  0  0  0  0
 19 20  1  0  0  0  0
 20 21  1  0  0  0  0
M  END
>  <cdx:fragmentId>
5

$$$$
