311158.cdx
  Mrv1902 05222410252D          

 39 42  0  0  0  0            999 V2000
    4.6731   -5.5951    0.0000 C   0  0  0  0  0  0  0  0  0  0  0  0
    4.6731   -6.4201    0.0000 C   0  0  0  0  0  0  0  0  0  0  0  0
    5.3875   -6.8326    0.0000 C   0  0  0  0  0  0  0  0  0  0  0  0
    6.1020   -6.4201    0.0000 C   0  0  0  0  0  0  0  0  0  0  0  0
    6.1020   -5.5951    0.0000 C   0  0  0  0  0  0  0  0  0  0  0  0
    5.3875   -5.1826    0.0000 C   0  0  0  0  0  0  0  0  0  0  0  0
    6.8165   -6.8326    0.0000 C   0  0  0  0  0  0  0  0  0  0  0  0
    7.5309   -6.4201    0.0000 C   0  0  0  0  0  0  0  0  0  0  0  0
    7.5309   -5.5951    0.0000 C   0  0  0  0  0  0  0  0  0  0  0  0
    6.8165   -5.1826    0.0000 O   0  3  0  0  0  0  0  0  0  0  0  0
    8.2454   -6.8326    0.0000 O   0  0  0  0  0  0  0  0  0  0  0  0
    8.9599   -5.5951    0.0000 C   0  0  0  0  0  0  0  0  0  0  0  0
    8.2454   -5.1826    0.0000 C   0  0  0  0  0  0  0  0  0  0  0  0
    9.6744   -5.1826    0.0000 C   0  0  0  0  0  0  0  0  0  0  0  0
    9.6744   -4.3576    0.0000 C   0  0  0  0  0  0  0  0  0  0  0  0
    8.9599   -3.9451    0.0000 C   0  0  0  0  0  0  0  0  0  0  0  0
    8.2454   -4.3576    0.0000 C   0  0  0  0  0  0  0  0  0  0  0  0
    3.9586   -5.1826    0.0000 O   0  0  0  0  0  0  0  0  0  0  0  0
    5.3875   -7.6576    0.0000 O   0  0  0  0  0  0  0  0  0  0  0  0
    8.9599   -3.1201    0.0000 O   0  0  0  0  0  0  0  0  0  0  0  0
   10.3888   -3.9451    0.0000 O   0  0  0  0  0  0  0  0  0  0  0  0
    8.2650   -7.6614    0.0000 C   0  0  2  0  0  0  0  0  0  0  0  0
    7.5553   -8.0820    0.0000 O   0  0  0  0  0  0  0  0  0  0  0  0
    7.5647   -8.9070    0.0000 C   0  0  1  0  0  0  0  0  0  0  0  0
    8.2838   -9.3113    0.0000 C   0  0  2  0  0  0  0  0  0  0  0  0
    8.9935   -8.8907    0.0000 C   0  0  1  0  0  0  0  0  0  0  0  0
    8.9842   -8.0658    0.0000 C   0  0  1  0  0  0  0  0  0  0  0  0
    6.8550   -9.3276    0.0000 C   0  0  0  0  0  0  0  0  0  0  0  0
    8.2932  -10.1363    0.0000 O   0  0  0  0  0  0  0  0  0  0  0  0
    9.7127   -9.2951    0.0000 O   0  0  0  0  0  0  0  0  0  0  0  0
    9.6939   -7.6452    0.0000 O   0  0  0  0  0  0  0  0  0  0  0  0
    6.8643  -10.1525    0.0000 O   0  0  0  0  0  0  0  0  0  0  0  0
    6.1499  -10.5650    0.0000 C   0  0  0  0  0  0  0  0  0  0  0  0
    6.1499  -11.3900    0.0000 C   0  0  0  0  0  0  0  0  0  0  0  0
    5.4354  -11.8025    0.0000 C   0  0  0  0  0  0  0  0  0  0  0  0
    5.4354  -12.6275    0.0000 O   0  0  0  0  0  0  0  0  0  0  0  0
    4.7209  -11.3900    0.0000 O   0  0  0  0  0  0  0  0  0  0  0  0
    5.4354  -10.1525    0.0000 O   0  0  0  0  0  0  0  0  0  0  0  0
   10.3888   -5.5951    0.0000 O   0  0  0  0  0  0  0  0  0  0  0  0
  1  2  2  0  0  0  0
  2  3  1  0  0  0  0
  3  4  2  0  0  0  0
  4  5  1  0  0  0  0
  5  6  2  0  0  0  0
  6  1  1  0  0  0  0
  4  7  1  0  0  0  0
  7  8  2  0  0  0  0
  8  9  1  0  0  0  0
  9 10  2  0  0  0  0
 10  5  1  0  0  0  0
  8 11  1  0  0  0  0
 12 13  2  0  0  0  0
 13  9  1  0  0  0  0
 12 14  1  0  0  0  0
 14 15  2  0  0  0  0
 15 16  1  0  0  0  0
 16 17  2  0  0  0  0
 17 13  1  0  0  0  0
  1 18  1  0  0  0  0
  3 19  1  0  0  0  0
 16 20  1  0  0  0  0
 15 21  1  0  0  0  0
 22 23  1  0  0  0  0
 23 24  1  0  0  0  0
 24 25  1  0  0  0  0
 25 26  1  0  0  0  0
 26 27  1  0  0  0  0
 27 22  1  0  0  0  0
 24 28  1  1  0  0  0
 25 29  1  6  0  0  0
 26 30  1  1  0  0  0
 27 31  1  6  0  0  0
 28 32  1  0  0  0  0
 22 11  1  1  0  0  0
 32 33  1  0  0  0  0
 33 34  1  0  0  0  0
 34 35  1  0  0  0  0
 35 36  1  0  0  0  0
 35 37  2  0  0  0  0
 33 38  2  0  0  0  0
 14 39  1  0  0  0  0
M  CHG  1  10   1
M  END
>  <cdx:fragmentId>
363

$$$$
