311151.cdx
  Mrv1902 05222410222D          

 33 36  0  0  0  0            999 V2000
    7.7089   -7.5564    0.0000 C   0  0  0  0  0  0  0  0  0  0  0  0
    7.7089   -8.3814    0.0000 C   0  0  0  0  0  0  0  0  0  0  0  0
    6.9945   -8.7939    0.0000 C   0  0  0  0  0  0  0  0  0  0  0  0
    6.2800   -8.3814    0.0000 C   0  0  0  0  0  0  0  0  0  0  0  0
    5.5655   -8.7939    0.0000 C   0  0  0  0  0  0  0  0  0  0  0  0
    4.8511   -8.3814    0.0000 C   0  0  0  0  0  0  0  0  0  0  0  0
    4.8511   -7.5564    0.0000 C   0  0  0  0  0  0  0  0  0  0  0  0
    5.5655   -7.1439    0.0000 C   0  0  0  0  0  0  0  0  0  0  0  0
    6.2800   -7.5564    0.0000 C   0  0  0  0  0  0  0  0  0  0  0  0
    6.9945   -7.1439    0.0000 O   0  3  0  0  0  0  0  0  0  0  0  0
    8.4234   -8.7939    0.0000 O   0  0  0  0  0  0  0  0  0  0  0  0
    5.5655   -9.6189    0.0000 O   0  0  0  0  0  0  0  0  0  0  0  0
    4.1366   -7.1439    0.0000 O   0  0  0  0  0  0  0  0  0  0  0  0
    8.4234   -7.1439    0.0000 C   0  0  0  0  0  0  0  0  0  0  0  0
    9.1379   -7.5564    0.0000 C   0  0  0  0  0  0  0  0  0  0  0  0
    9.8524   -7.1439    0.0000 C   0  0  0  0  0  0  0  0  0  0  0  0
    9.8524   -6.3189    0.0000 C   0  0  0  0  0  0  0  0  0  0  0  0
    9.1379   -5.9064    0.0000 C   0  0  0  0  0  0  0  0  0  0  0  0
    8.4234   -6.3189    0.0000 C   0  0  0  0  0  0  0  0  0  0  0  0
   10.5668   -7.5564    0.0000 O   0  0  0  0  0  0  0  0  0  0  0  0
   11.2813   -7.1439    0.0000 C   0  0  0  0  0  0  0  0  0  0  0  0
   10.5668   -5.9064    0.0000 O   0  0  0  0  0  0  0  0  0  0  0  0
    8.4234   -9.6189    0.0000 C   0  0  2  0  0  0  0  0  0  0  0  0
    7.7089  -10.0314    0.0000 O   0  0  0  0  0  0  0  0  0  0  0  0
    7.7089  -10.8564    0.0000 C   0  0  1  0  0  0  0  0  0  0  0  0
    8.4234  -11.2689    0.0000 C   0  0  2  0  0  0  0  0  0  0  0  0
    9.1379  -10.8564    0.0000 C   0  0  1  0  0  0  0  0  0  0  0  0
    9.1379  -10.0314    0.0000 C   0  0  1  0  0  0  0  0  0  0  0  0
    6.9945  -11.2689    0.0000 C   0  0  0  0  0  0  0  0  0  0  0  0
    9.8524  -11.2689    0.0000 O   0  0  0  0  0  0  0  0  0  0  0  0
    9.8524   -9.6189    0.0000 O   0  0  0  0  0  0  0  0  0  0  0  0
    8.4234  -12.0939    0.0000 O   0  0  0  0  0  0  0  0  0  0  0  0
    6.9945  -12.0939    0.0000 O   0  0  0  0  0  0  0  0  0  0  0  0
  1  2  2  0  0  0  0
  2  3  1  0  0  0  0
  3  4  2  0  0  0  0
  4  5  1  0  0  0  0
  5  6  2  0  0  0  0
  6  7  1  0  0  0  0
  7  8  2  0  0  0  0
  8  9  1  0  0  0  0
  4  9  1  0  0  0  0
  9 10  2  0  0  0  0
  1 10  1  0  0  0  0
  2 11  1  0  0  0  0
  5 12  1  0  0  0  0
  7 13  1  0  0  0  0
 14 15  1  0  0  0  0
 15 16  2  0  0  0  0
 16 17  1  0  0  0  0
 17 18  2  0  0  0  0
 18 19  1  0  0  0  0
 14 19  2  0  0  0  0
 20 21  1  0  0  0  0
 16 20  1  0  0  0  0
 17 22  1  0  0  0  0
  1 14  1  0  0  0  0
 23 11  1  1  0  0  0
 23 24  1  0  0  0  0
 24 25  1  0  0  0  0
 25 26  1  0  0  0  0
 26 27  1  0  0  0  0
 27 28  1  0  0  0  0
 28 23  1  0  0  0  0
 25 29  1  1  0  0  0
 27 30  1  1  0  0  0
 28 31  1  6  0  0  0
 26 32  1  6  0  0  0
 29 33  1  0  0  0  0
M  CHG  1  10   1
M  END
>  <cdx:fragmentId>
173

$$$$
