311117.cdx
  Mrv1902 05222410262D          

 12 13  0  0  0  0            999 V2000
    6.6484   -8.9650    0.0000 C   0  0  0  0  0  0  0  0  0  0  0  0
    7.3628   -8.5525    0.0000 C   0  0  0  0  0  0  0  0  0  0  0  0
    7.3628   -7.7275    0.0000 C   0  0  0  0  0  0  0  0  0  0  0  0
    6.6484   -7.3150    0.0000 C   0  0  0  0  0  0  0  0  0  0  0  0
    5.9339   -7.7275    0.0000 C   0  0  0  0  0  0  0  0  0  0  0  0
    5.9339   -8.5525    0.0000 O   0  0  0  0  0  0  0  0  0  0  0  0
    8.1474   -7.4726    0.0000 C   0  0  0  0  0  0  0  0  0  0  0  0
    8.6324   -8.1400    0.0000 C   0  0  0  0  0  0  0  0  0  0  0  0
    8.1474   -8.8074    0.0000 C   0  0  0  0  0  0  0  0  0  0  0  0
    6.6484   -9.7900    0.0000 O   0  0  0  0  0  0  0  0  0  0  0  0
    8.4024   -9.5921    0.0000 C   0  0  0  0  0  0  0  0  0  0  0  0
    6.6484   -6.4900    0.0000 C   0  0  0  0  0  0  0  0  0  0  0  0
  1  2  1  0  0  0  0
  2  3  1  0  0  0  0
  3  4  1  0  0  0  0
  4  5  2  0  0  0  0
  5  6  1  0  0  0  0
  1  6  1  0  0  0  0
  7  8  1  0  0  0  0
  8  9  1  0  0  0  0
  9  2  1  0  0  0  0
  7  3  1  0  0  0  0
  1 10  2  0  0  0  0
  9 11  1  0  0  0  0
  4 12  1  0  0  0  0
M  END
>  <cdx:groupId>
32924

>  <cdx:fragmentId>
32884

$$$$
