31110.cdx
  Mrv1902 05222410232D          

 23 26  0  0  0  0            999 V2000
    5.2731   -6.4487    0.0000 C   0  0  0  0  0  0  0  0  0  0  0  0
    5.2731   -7.2738    0.0000 C   0  0  1  0  0  0  0  0  0  0  0  0
    5.9876   -7.6863    0.0000 C   0  0  1  0  0  0  0  0  0  0  0  0
    6.7021   -7.2738    0.0000 C   0  0  1  0  0  0  0  0  0  0  0  0
    6.7021   -6.4487    0.0000 C   0  0  0  0  0  0  0  0  0  0  0  0
    5.9876   -6.0362    0.0000 C   0  0  0  0  0  0  0  0  0  0  0  0
    7.4165   -7.6863    0.0000 C   0  0  0  0  0  0  0  0  0  0  0  0
    8.1310   -7.2738    0.0000 C   0  0  0  0  0  0  0  0  0  0  0  0
    8.1310   -6.4487    0.0000 C   0  0  1  0  0  0  0  0  0  0  0  0
    7.4165   -6.0362    0.0000 C   0  0  1  0  0  0  0  0  0  0  0  0
    8.8455   -6.0362    0.0000 C   0  0  0  0  0  0  0  0  0  0  0  0
    8.8455   -5.2113    0.0000 C   0  0  2  0  0  0  0  0  0  0  0  0
    8.1310   -4.7988    0.0000 C   0  0  0  0  0  0  0  0  0  0  0  0
    7.4165   -5.2113    0.0000 C   0  0  0  0  0  0  0  0  0  0  0  0
    8.8455   -6.8613    0.0000 H   0  0  0  0  0  0  0  0  0  0  0  0
    8.8455   -4.3862    0.0000 C   0  0  0  0  0  0  0  0  0  0  0  0
    9.5600   -4.7988    0.0000 C   0  0  0  0  0  0  0  0  0  0  0  0
   10.2744   -5.2113    0.0000 C   0  0  0  0  0  0  0  0  0  0  0  0
    4.5587   -6.0362    0.0000 O   0  0  0  0  0  0  0  0  0  0  0  0
    6.7021   -5.6238    0.0000 C   0  0  0  0  0  0  0  0  0  0  0  0
    5.2731   -8.0987    0.0000 C   0  0  0  0  0  0  0  0  0  0  0  0
    6.7021   -8.0987    0.0000 O   0  0  0  0  0  0  0  0  0  0  0  0
    6.4001   -8.4007    0.0000 C   0  0  0  0  0  0  0  0  0  0  0  0
  1  2  1  0  0  0  0
  2  3  1  0  0  0  0
  3  4  1  0  0  0  0
  4  5  1  0  0  0  0
  5  6  2  0  0  0  0
  6  1  1  0  0  0  0
  4  7  1  0  0  0  0
  7  8  1  0  0  0  0
  8  9  1  0  0  0  0
  9 10  1  0  0  0  0
 10  5  1  0  0  0  0
  9 11  1  0  0  0  0
 11 12  1  0  0  0  0
 12 13  1  0  0  0  0
 13 14  1  0  0  0  0
 14 10  1  0  0  0  0
  9 15  1  6  0  0  0
 12 16  1  6  0  0  0
 12 17  1  0  0  0  0
 17 18  2  0  0  0  0
  1 19  2  0  0  0  0
 10 20  1  1  0  0  0
  2 21  1  1  0  0  0
  4 22  1  6  0  0  0
  3 21  1  1  0  0  0
  3 23  1  0  0  0  0
M  END
>  <cdx:fragmentId>
2142

$$$$
