311268.cdx
  Mrv1902 05222410182D          

 21 24  0  0  0  0            999 V2000
    4.7220   -6.7455    0.0000 H   0  0  0  0  0  0  0  0  0  0  0  0
    6.0589   -8.6567    0.0000 H   0  0  0  0  0  0  0  0  0  0  0  0
    6.6342   -5.9592    0.0000 H   0  0  0  0  0  0  0  0  0  0  0  0
   10.2713   -4.8489    0.0000 C   0  0  0  0  0  0  0  0  0  0  0  0
   10.0023   -5.6289    0.0000 O   0  0  0  0  0  0  0  0  0  0  0  0
    9.1924   -5.7859    0.0000 C   0  0  0  0  0  0  0  0  0  0  0  0
    6.6761   -8.4308    0.0000 C   0  0  0  0  0  0  0  0  0  0  0  0
    5.6849   -5.7231    0.0000 C   0  0  0  0  0  0  0  0  0  0  0  0
    5.9258   -6.5121    0.0000 C   0  0  0  0  0  0  0  0  0  0  0  0
    5.4290   -7.1708    0.0000 C   0  0  1  0  0  0  0  0  0  0  0  0
    5.0799   -7.9183    0.0000 C   0  0  0  0  0  0  0  0  0  0  0  0
    5.9018   -7.8468    0.0000 C   0  0  1  0  0  0  0  0  0  0  0  0
    6.6909   -7.6060    0.0000 C   0  0  1  0  0  0  0  0  0  0  0  0
    7.3979   -8.0312    0.0000 C   0  0  0  0  0  0  0  0  0  0  0  0
    8.1196   -7.6316    0.0000 C   0  0  0  0  0  0  0  0  0  0  0  0
    8.8995   -7.9005    0.0000 O   0  0  0  0  0  0  0  0  0  0  0  0
    9.3963   -7.2419    0.0000 C   0  0  0  0  0  0  0  0  0  0  0  0
    8.9235   -6.5658    0.0000 C   0  0  0  0  0  0  0  0  0  0  0  0
    8.1344   -6.8067    0.0000 C   0  0  0  0  0  0  0  0  0  0  0  0
    7.4274   -6.3815    0.0000 C   0  0  0  0  0  0  0  0  0  0  0  0
    6.7057   -6.7811    0.0000 C   0  0  1  0  0  0  0  0  0  0  0  0
 10  1  1  1  0  0  0
 12  2  1  1  0  0  0
 21  3  1  1  0  0  0
 18  6  1  0  0  0  0
  6  5  1  0  0  0  0
  5  4  1  0  0  0  0
 13  7  1  6  0  0  0
  9  8  2  0  0  0  0
 19 15  2  0  0  0  0
 12 10  1  0  0  0  0
 21 13  1  0  0  0  0
 21  9  1  0  0  0  0
 10  9  1  0  0  0  0
 11 10  1  0  0  0  0
 12 11  1  0  0  0  0
 13 12  1  0  0  0  0
 14 13  1  0  0  0  0
 15 14  1  0  0  0  0
 16 15  1  0  0  0  0
 17 16  1  0  0  0  0
 18 17  2  0  0  0  0
 19 18  1  0  0  0  0
 20 19  1  0  0  0  0
 21 20  1  0  0  0  0
M  END
>  <cdx:fragmentId>
89738

$$$$
