311262.cdx
  Mrv1902 05222410262D          

 19 21  0  0  0  0            999 V2000
    8.6583   -8.6284    0.0000 H   0  0  0  0  0  0  0  0  0  0  0  0
    8.4592  -10.0278    0.0000 C   0  0  0  0  0  0  0  0  0  0  0  0
    5.3345   -7.9748    0.0000 C   0  0  0  0  0  0  0  0  0  0  0  0
    9.0232   -6.1689    0.0000 O   0  0  0  0  0  0  0  0  0  0  0  0
    7.4719   -7.4850    0.0000 C   0  0  0  0  0  0  0  0  0  0  0  0
    8.6929   -7.5898    0.0000 O   0  0  0  0  0  0  0  0  0  0  0  0
    8.4825   -6.7921    0.0000 C   0  0  0  0  0  0  0  0  0  0  0  0
    7.6647   -6.6828    0.0000 C   0  0  0  0  0  0  0  0  0  0  0  0
    7.1577   -6.0320    0.0000 C   0  0  0  0  0  0  0  0  0  0  0  0
    6.3328   -6.0225    0.0000 C   0  0  0  0  0  0  0  0  0  0  0  0
    5.8111   -6.6615    0.0000 C   0  0  0  0  0  0  0  0  0  0  0  0
    5.9854   -7.4679    0.0000 C   0  0  0  0  0  0  0  0  0  0  0  0
    6.7245   -7.8344    0.0000 C   0  0  0  0  0  0  0  0  0  0  0  0
    6.8259   -8.6531    0.0000 C   0  0  0  0  0  0  0  0  0  0  0  0
    6.4266   -9.3751    0.0000 O   0  0  0  0  0  0  0  0  0  0  0  0
    6.9898   -9.9779    0.0000 C   0  0  0  0  0  0  0  0  0  0  0  0
    7.7372   -9.6285    0.0000 C   0  0  0  0  0  0  0  0  0  0  0  0
    7.6359   -8.8098    0.0000 C   0  0  0  0  0  0  0  0  0  0  0  0
    8.0351   -8.0878    0.0000 C   0  0  1  0  0  0  0  0  0  0  0  0
 19  1  1  6  0  0  0
 17  2  1  0  0  0  0
 12  3  1  0  0  0  0
  7  4  2  0  0  0  0
 18 14  2  0  0  0  0
  5  8  2  0  0  0  0
 19  5  1  0  0  0  0
 19  6  1  0  0  0  0
  7  6  1  0  0  0  0
  8  7  1  0  0  0  0
  9  8  1  0  0  0  0
 10  9  1  0  0  0  0
 11 10  1  0  0  0  0
 12 11  2  0  0  0  0
 13 12  1  0  0  0  0
 14 13  1  0  0  0  0
 15 14  1  0  0  0  0
 16 15  1  0  0  0  0
 17 16  2  0  0  0  0
 18 17  1  0  0  0  0
 19 18  1  0  0  0  0
M  END
>  <cdx:fragmentId>
89671

$$$$
