311234.cdx
  Mrv1902 05222410202D          

 27 29  0  0  0  0            999 V2000
    8.2674   -9.9880    0.0000 O   0  0  0  0  0  0  0  0  0  0  0  0
    5.4095  -10.8130    0.0000 O   0  0  0  0  0  0  0  0  0  0  0  0
    3.9805   -8.3380    0.0000 O   0  0  0  0  0  0  0  0  0  0  0  0
   10.4108   -7.1005    0.0000 O   0  0  0  0  0  0  0  0  0  0  0  0
   11.1252   -8.3380    0.0000 C   0  0  0  0  0  0  0  0  0  0  0  0
   10.4108   -8.7505    0.0000 O   0  0  0  0  0  0  0  0  0  0  0  0
    8.2674   -7.5130    0.0000 C   0  0  0  0  0  0  0  0  0  0  0  0
    8.9818   -7.1005    0.0000 C   0  0  0  0  0  0  0  0  0  0  0  0
    9.6963   -7.5130    0.0000 C   0  0  0  0  0  0  0  0  0  0  0  0
    9.6963   -8.3380    0.0000 C   0  0  0  0  0  0  0  0  0  0  0  0
    8.9818   -8.7505    0.0000 C   0  0  0  0  0  0  0  0  0  0  0  0
    8.2674   -8.3380    0.0000 C   0  0  0  0  0  0  0  0  0  0  0  0
    3.2661   -9.5755    0.0000 C   0  0  0  0  0  0  0  0  0  0  0  0
    3.9805   -9.9880    0.0000 O   0  0  0  0  0  0  0  0  0  0  0  0
    4.6950   -7.1005    0.0000 C   0  0  0  0  0  0  0  0  0  0  0  0
    5.4095   -7.5130    0.0000 O   0  0  0  0  0  0  0  0  0  0  0  0
    6.8384  -10.8130    0.0000 O   0  0  0  0  0  0  0  0  0  0  0  0
    6.8384   -8.3380    0.0000 O   0  0  0  0  0  0  0  0  0  0  0  0
    6.1239   -8.7505    0.0000 C   0  0  0  0  0  0  0  0  0  0  0  0
    5.4095   -8.3380    0.0000 C   0  0  0  0  0  0  0  0  0  0  0  0
    4.6950   -8.7505    0.0000 C   0  0  0  0  0  0  0  0  0  0  0  0
    4.6950   -9.5755    0.0000 C   0  0  0  0  0  0  0  0  0  0  0  0
    5.4095   -9.9880    0.0000 C   0  0  0  0  0  0  0  0  0  0  0  0
    6.1239   -9.5755    0.0000 C   0  0  0  0  0  0  0  0  0  0  0  0
    6.8384   -9.9880    0.0000 C   0  0  0  0  0  0  0  0  0  0  0  0
    7.5529   -9.5755    0.0000 C   0  0  0  0  0  0  0  0  0  0  0  0
    7.5529   -8.7505    0.0000 C   0  0  0  0  0  0  0  0  0  0  0  0
 26  1  1  0  0  0  0
 23  2  1  0  0  0  0
 21  3  1  0  0  0  0
 27 12  1  0  0  0  0
  9  4  1  0  0  0  0
 10  6  1  0  0  0  0
  6  5  1  0  0  0  0
 12  7  2  0  0  0  0
  8  7  1  0  0  0  0
  9  8  2  0  0  0  0
 10  9  1  0  0  0  0
 11 10  2  0  0  0  0
 12 11  1  0  0  0  0
 22 14  1  0  0  0  0
 14 13  1  0  0  0  0
 20 16  1  0  0  0  0
 16 15  1  0  0  0  0
 25 17  2  0  0  0  0
 27 18  1  0  0  0  0
 19 18  1  0  0  0  0
 24 19  2  0  0  0  0
 20 19  1  0  0  0  0
 21 20  2  0  0  0  0
 22 21  1  0  0  0  0
 23 22  2  0  0  0  0
 24 23  1  0  0  0  0
 25 24  1  0  0  0  0
 26 25  1  0  0  0  0
 27 26  2  0  0  0  0
M  END
>  <cdx:fragmentId>
5

$$$$
