311356.cdx
  Mrv1902 05222410212D          

 14 15  0  0  0  0            999 V2000
    8.1040   -8.1369    0.0000 O   0  0  0  0  0  0  0  0  0  0  0  0
    8.5889   -8.8044    0.0000 C   0  0  0  0  0  0  0  0  0  0  0  0
    8.1040   -9.4718    0.0000 C   0  0  0  0  0  0  0  0  0  0  0  0
    7.3194   -9.2169    0.0000 C   0  0  0  0  0  0  0  0  0  0  0  0
    6.6049   -9.6294    0.0000 C   0  0  0  0  0  0  0  0  0  0  0  0
    5.8904   -9.2169    0.0000 C   0  0  0  0  0  0  0  0  0  0  0  0
    5.8904   -8.3919    0.0000 C   0  0  1  0  0  0  0  0  0  0  0  0
    6.6049   -7.9794    0.0000 C   0  0  0  0  0  0  0  0  0  0  0  0
    7.3194   -8.3919    0.0000 C   0  0  1  0  0  0  0  0  0  0  0  0
    9.4139   -8.8044    0.0000 O   0  0  0  0  0  0  0  0  0  0  0  0
    7.4056   -7.5714    0.0000 C   0  0  0  0  0  0  0  0  0  0  0  0
    7.0174  -10.3438    0.0000 C   0  0  0  0  0  0  0  0  0  0  0  0
    6.1924  -10.3438    0.0000 C   0  0  0  0  0  0  0  0  0  0  0  0
    5.1760   -7.9794    0.0000 O   0  0  0  0  0  0  0  0  0  0  0  0
  1  2  1  0  0  0  0
  2  3  1  0  0  0  0
  3  4  2  0  0  0  0
  4  5  1  0  0  0  0
  5  6  1  0  0  0  0
  6  7  1  0  0  0  0
  7  8  1  0  0  0  0
  8  9  1  0  0  0  0
  4  9  1  0  0  0  0
  1  9  1  0  0  0  0
  2 10  2  0  0  0  0
  9 11  1  6  0  0  0
  5 12  1  0  0  0  0
  5 13  1  0  0  0  0
  7 14  1  6  0  0  0
M  END
>  <cdx:fragmentId>
5

$$$$
