311311.cdx
  Mrv1902 05222410272D          

 19 20  0  0  0  0            999 V2000
    7.5523   -5.1188    0.0000 C   0  0  0  0  0  0  0  0  0  0  0  0
    8.2689   -5.5276    0.0000 C   0  0  1  0  0  0  0  0  0  0  0  0
    8.2732   -6.3526    0.0000 C   0  0  0  0  0  0  0  0  0  0  0  0
    7.5608   -6.7688    0.0000 C   0  0  0  0  0  0  0  0  0  0  0  0
    6.8442   -6.3600    0.0000 C   0  0  1  0  0  0  0  0  0  0  0  0
    6.1319   -6.7762    0.0000 C   0  0  1  0  0  0  0  0  0  0  0  0
    5.4153   -6.3674    0.0000 C   0  0  0  0  0  0  0  0  0  0  0  0
    5.4111   -5.5424    0.0000 C   0  0  0  0  0  0  0  0  0  0  0  0
    6.1234   -5.1262    0.0000 C   0  0  2  0  0  0  0  0  0  0  0  0
    6.8400   -5.5350    0.0000 C   0  0  2  0  0  0  0  0  0  0  0  0
    7.5480   -4.2938    0.0000 O   0  0  0  0  0  0  0  0  0  0  0  0
    6.8314   -3.8850    0.0000 C   0  0  0  0  0  0  0  0  0  0  0  0
    6.1191   -4.3012    0.0000 C   0  0  0  0  0  0  0  0  0  0  0  0
    5.4025   -3.8924    0.0000 C   0  0  0  0  0  0  0  0  0  0  0  0
    6.1362   -7.6012    0.0000 C   0  0  0  0  0  0  0  0  0  0  0  0
    9.0939   -5.5233    0.0000 C   0  0  0  0  0  0  0  0  0  0  0  0
    6.8485   -7.1850    0.0000 O   0  0  0  0  0  0  0  0  0  0  0  0
    8.6777   -4.8110    0.0000 O   0  0  0  0  0  0  0  0  0  0  0  0
    6.8357   -4.7100    0.0000 H   0  0  0  0  0  0  0  0  0  0  0  0
  1  2  1  0  0  0  0
  2  3  1  0  0  0  0
  3  4  1  0  0  0  0
  4  5  1  0  0  0  0
  5  6  1  0  0  0  0
  6  7  1  0  0  0  0
  7  8  1  0  0  0  0
  8  9  1  0  0  0  0
  9 10  1  0  0  0  0
  1 10  1  0  0  0  0
  5 10  1  0  0  0  0
  1 11  2  0  0  0  0
 12 13  2  0  0  0  0
 13 14  1  0  0  0  0
  9 13  1  1  0  0  0
  6 15  1  6  0  0  0
  2 16  1  6  0  0  0
  5 17  1  6  0  0  0
  2 18  1  1  0  0  0
 10 19  1  1  0  0  0
M  END
>  <cdx:fragmentId>
70037

$$$$
