31146.cdx
  Mrv1902 05222410282D          

 56 59  0  0  0  0            999 V2000
    5.8086   -9.4616    0.0000 O   0  0  0  0  0  0  0  0  0  0  0  0
    5.8086   -7.8116    0.0000 O   0  0  0  0  0  0  0  0  0  0  0  0
    7.9520   -8.2241    0.0000 C   0  0  0  0  0  0  0  0  0  0  0  0
    7.2375   -7.8116    0.0000 C   0  0  0  0  0  0  0  0  0  0  0  0
    6.5231   -8.2241    0.0000 C   0  0  0  0  0  0  0  0  0  0  0  0
    6.5231   -9.0491    0.0000 C   0  0  0  0  0  0  0  0  0  0  0  0
    7.2375   -9.4616    0.0000 C   0  0  0  0  0  0  0  0  0  0  0  0
    7.9520   -9.0491    0.0000 C   0  0  0  0  0  0  0  0  0  0  0  0
   22.2414  -10.6991    0.0000 O   0  0  0  0  0  0  0  0  0  0  0  0
   20.0980  -10.2866    0.0000 C   0  0  0  0  0  0  0  0  0  0  0  0
   20.8125  -10.6991    0.0000 C   0  0  0  0  0  0  0  0  0  0  0  0
   21.5269  -10.2866    0.0000 C   0  0  0  0  0  0  0  0  0  0  0  0
   21.5269   -9.4616    0.0000 C   0  0  0  0  0  0  0  0  0  0  0  0
   20.8125   -9.0491    0.0000 C   0  0  0  0  0  0  0  0  0  0  0  0
   20.0980   -9.4616    0.0000 C   0  0  0  0  0  0  0  0  0  0  0  0
   17.9546   -8.2241    0.0000 O   0  0  0  0  0  0  0  0  0  0  0  0
   19.3835   -9.0491    0.0000 C   0  0  0  0  0  0  0  0  0  0  0  0
   18.6691   -9.4616    0.0000 C   0  0  0  0  0  0  0  0  0  0  0  0
   17.9546   -9.0491    0.0000 C   0  0  0  0  0  0  0  0  0  0  0  0
   17.2401   -9.4616    0.0000 N   0  0  0  0  0  0  0  0  0  0  0  0
   16.5256   -9.0491    0.0000 C   0  0  0  0  0  0  0  0  0  0  0  0
   15.8112   -9.4616    0.0000 C   0  0  0  0  0  0  0  0  0  0  0  0
   15.0967   -9.0491    0.0000 C   0  0  0  0  0  0  0  0  0  0  0  0
   14.3822   -9.4616    0.0000 N   0  0  0  0  0  0  0  0  0  0  0  0
   13.6678   -9.0491    0.0000 C   0  0  0  0  0  0  0  0  0  0  0  0
   12.9533   -9.4616    0.0000 C   0  0  0  0  0  0  0  0  0  0  0  0
   12.2388   -9.0491    0.0000 C   0  0  0  0  0  0  0  0  0  0  0  0
   11.5244   -9.4616    0.0000 C   0  0  0  0  0  0  0  0  0  0  0  0
   10.8099   -9.0491    0.0000 N   0  0  0  0  0  0  0  0  0  0  0  0
   10.0954  -10.2866    0.0000 O   0  0  0  0  0  0  0  0  0  0  0  0
    8.6665   -9.4616    0.0000 C   0  0  0  0  0  0  0  0  0  0  0  0
    9.3809   -9.0491    0.0000 C   0  0  0  0  0  0  0  0  0  0  0  0
   10.0954   -9.4616    0.0000 C   0  0  0  0  0  0  0  0  0  0  0  0
   20.8125  -11.5241    0.0000 O   0  0  0  0  0  0  0  0  0  0  0  0
   20.0980  -11.9366    0.0000 C   0  0  2  0  0  0  0  0  0  0  0  0
   19.3835  -11.5241    0.0000 O   0  0  0  0  0  0  0  0  0  0  0  0
   18.6691  -11.9366    0.0000 C   0  0  1  0  0  0  0  0  0  0  0  0
   18.6691  -12.7616    0.0000 C   0  0  2  0  0  0  0  0  0  0  0  0
   19.3835  -13.1741    0.0000 C   0  0  1  0  0  0  0  0  0  0  0  0
   20.0980  -12.7616    0.0000 C   0  0  1  0  0  0  0  0  0  0  0  0
   17.9546  -11.5241    0.0000 C   0  0  0  0  0  0  0  0  0  0  0  0
   19.3835  -13.9991    0.0000 O   0  0  0  0  0  0  0  0  0  0  0  0
   20.8125  -13.1741    0.0000 O   0  0  0  0  0  0  0  0  0  0  0  0
   17.9546  -13.1741    0.0000 O   0  0  0  0  0  0  0  0  0  0  0  0
   17.2401  -11.9366    0.0000 O   0  0  0  0  0  0  0  0  0  0  0  0
    5.0941   -9.0491    0.0000 C   0  0  2  0  0  0  0  0  0  0  0  0
    5.0941   -8.2241    0.0000 O   0  0  0  0  0  0  0  0  0  0  0  0
    4.3796   -7.8116    0.0000 C   0  0  1  0  0  0  0  0  0  0  0  0
    3.6652   -8.2241    0.0000 C   0  0  2  0  0  0  0  0  0  0  0  0
    3.6652   -9.0491    0.0000 C   0  0  1  0  0  0  0  0  0  0  0  0
    4.3796   -9.4616    0.0000 C   0  0  1  0  0  0  0  0  0  0  0  0
    4.3796   -6.9866    0.0000 C   0  0  0  0  0  0  0  0  0  0  0  0
    2.9507   -9.4616    0.0000 O   0  0  0  0  0  0  0  0  0  0  0  0
    4.3796  -10.2866    0.0000 O   0  0  0  0  0  0  0  0  0  0  0  0
    2.9507   -7.8116    0.0000 O   0  0  0  0  0  0  0  0  0  0  0  0
    3.6652   -6.5741    0.0000 O   0  0  0  0  0  0  0  0  0  0  0  0
 31  8  1  0  0  0  0
  6  1  1  0  0  0  0
  5  2  1  0  0  0  0
  8  3  2  0  0  0  0
  4  3  1  0  0  0  0
  5  4  2  0  0  0  0
  6  5  1  0  0  0  0
  7  6  2  0  0  0  0
  8  7  1  0  0  0  0
 29 28  1  0  0  0  0
 25 24  1  0  0  0  0
 24 23  1  0  0  0  0
 21 20  1  0  0  0  0
 20 19  1  0  0  0  0
 17 15  1  0  0  0  0
 12  9  1  0  0  0  0
 15 10  2  0  0  0  0
 11 10  1  0  0  0  0
 12 11  2  0  0  0  0
 13 12  1  0  0  0  0
 14 13  2  0  0  0  0
 15 14  1  0  0  0  0
 19 16  2  0  0  0  0
 18 17  2  0  0  0  0
 19 18  1  0  0  0  0
 22 21  1  0  0  0  0
 23 22  1  0  0  0  0
 26 25  1  0  0  0  0
 27 26  1  0  0  0  0
 28 27  1  0  0  0  0
 33 29  1  0  0  0  0
 33 30  2  0  0  0  0
 32 31  1  0  0  0  0
 33 32  1  0  0  0  0
 11 34  1  0  0  0  0
 35 34  1  1  0  0  0
 35 36  1  0  0  0  0
 36 37  1  0  0  0  0
 37 38  1  0  0  0  0
 38 39  1  0  0  0  0
 39 40  1  0  0  0  0
 40 35  1  0  0  0  0
 37 41  1  1  0  0  0
 39 42  1  1  0  0  0
 40 43  1  6  0  0  0
 38 44  1  6  0  0  0
 41 45  1  0  0  0  0
 46  1  1  1  0  0  0
 46 47  1  0  0  0  0
 47 48  1  0  0  0  0
 48 49  1  0  0  0  0
 49 50  1  0  0  0  0
 50 51  1  0  0  0  0
 51 46  1  0  0  0  0
 48 52  1  1  0  0  0
 50 53  1  1  0  0  0
 51 54  1  6  0  0  0
 49 55  1  6  0  0  0
 52 56  1  0  0  0  0
M  END
>  <cdx:fragmentId>
41

$$$$
