71311566.cdx
  Mrv1902 05222410242D          

 16 18  0  0  0  0            999 V2000
    7.6918  -15.2189    0.0000 C   0  0  2  0  0  0  0  0  0  0  0  0
    8.4764  -15.4739    0.0000 C   0  0  0  0  0  0  0  0  0  0  0  0
    8.9613  -14.8064    0.0000 C   0  0  0  0  0  0  0  0  0  0  0  0
    8.4764  -14.1390    0.0000 C   0  0  0  0  0  0  0  0  0  0  0  0
    7.6918  -14.3939    0.0000 C   0  0  1  0  0  0  0  0  0  0  0  0
    6.9773  -13.9814    0.0000 C   0  0  0  0  0  0  0  0  0  0  0  0
    6.2628  -14.3939    0.0000 C   0  0  0  0  0  0  0  0  0  0  0  0
    6.2628  -15.2189    0.0000 C   0  0  2  0  0  0  0  0  0  0  0  0
    6.2786  -16.0232    0.0000 C   0  0  0  0  0  0  0  0  0  0  0  0
    6.9777  -16.4210    0.0000 C   0  0  0  0  0  0  0  0  0  0  0  0
    7.6768  -16.0232    0.0000 C   0  0  0  0  0  0  0  0  0  0  0  0
    6.9773  -15.6314    0.0000 C   0  0  0  0  0  0  0  0  0  0  0  0
    5.4378  -15.2189    0.0000 C   0  0  0  0  0  0  0  0  0  0  0  0
    8.3049  -13.3320    0.0000 C   0  0  0  0  0  0  0  0  0  0  0  0
    9.0895  -13.5870    0.0000 C   0  0  0  0  0  0  0  0  0  0  0  0
    7.7780  -13.5735    0.0000 H   0  0  0  0  0  0  0  0  0  0  0  0
  1  2  1  0  0  0  0
  2  3  2  0  0  0  0
  3  4  1  0  0  0  0
  4  5  1  0  0  0  0
  5  6  1  0  0  0  0
  6  7  1  0  0  0  0
  7  8  1  0  0  0  0
  8  9  1  0  0  0  0
  9 10  1  0  0  0  0
 10 11  1  0  0  0  0
  1 11  1  1  0  0  0
  1 12  1  0  0  0  0
  8 12  1  6  0  0  0
  1  5  1  0  0  0  0
  8 13  1  0  0  0  0
  4 14  1  0  0  0  0
  4 15  1  0  0  0  0
  5 16  1  1  0  0  0
M  END
>  <cdx:groupId>
198519

>  <cdx:fragmentId>
198472

$$$$
