31155.cdx
  Mrv1902 05222410262D          

 56 60  0  0  0  0            999 V2000
    9.2429   -6.8216    0.0000 C   0  0  0  0  0  0  0  0  0  0  0  0
    7.8140   -9.2966    0.0000 O   0  0  0  0  0  0  0  0  0  0  0  0
   11.3863  -10.5341    0.0000 C   0  0  0  0  0  0  0  0  0  0  0  0
   11.3863   -9.7091    0.0000 C   0  0  0  0  0  0  0  0  0  0  0  0
   12.1008   -9.2966    0.0000 C   0  0  0  0  0  0  0  0  0  0  0  0
   12.1008   -8.4716    0.0000 N   0  3  0  0  0  0  0  0  0  0  0  0
   12.8153   -8.0591    0.0000 C   0  0  0  0  0  0  0  0  0  0  0  0
   12.1008   -6.8216    0.0000 C   0  0  0  0  0  0  0  0  0  0  0  0
   11.3863   -7.2341    0.0000 N   0  0  0  0  0  0  0  0  0  0  0  0
   10.6719   -6.8216    0.0000 C   0  0  0  0  0  0  0  0  0  0  0  0
    9.9574   -7.2341    0.0000 C   0  0  0  0  0  0  0  0  0  0  0  0
   10.6719   -5.9966    0.0000 O   0  0  0  0  0  0  0  0  0  0  0  0
    4.9561  -10.9466    0.0000 O   0  0  0  0  0  0  0  0  0  0  0  0
    4.9561   -9.2966    0.0000 O   0  0  0  0  0  0  0  0  0  0  0  0
    7.0995   -9.7091    0.0000 C   0  0  0  0  0  0  0  0  0  0  0  0
    6.3850   -9.2966    0.0000 C   0  0  0  0  0  0  0  0  0  0  0  0
    5.6706   -9.7091    0.0000 C   0  0  0  0  0  0  0  0  0  0  0  0
    5.6706  -10.5341    0.0000 C   0  0  0  0  0  0  0  0  0  0  0  0
    6.3850  -10.9466    0.0000 C   0  0  0  0  0  0  0  0  0  0  0  0
    7.0995  -10.5341    0.0000 C   0  0  0  0  0  0  0  0  0  0  0  0
    6.3850   -8.4716    0.0000 O   0  0  0  0  0  0  0  0  0  0  0  0
    7.8140   -6.8216    0.0000 C   0  0  0  0  0  0  0  0  0  0  0  0
    7.0995   -7.2341    0.0000 C   0  0  0  0  0  0  0  0  0  0  0  0
    7.0995   -8.0591    0.0000 C   0  0  0  0  0  0  0  0  0  0  0  0
    7.8140   -8.4716    0.0000 C   0  0  0  0  0  0  0  0  0  0  0  0
   12.8153   -7.2341    0.0000 C   0  0  0  0  0  0  0  0  0  0  0  0
    8.5284   -8.0591    0.0000 C   0  0  0  0  0  0  0  0  0  0  0  0
    8.5284   -7.2341    0.0000 C   0  0  0  0  0  0  0  0  0  0  0  0
   10.6719  -10.9466    0.0000 C   0  0  0  0  0  0  0  0  0  0  0  0
    9.9574  -10.5341    0.0000 N   0  0  0  0  0  0  0  0  0  0  0  0
    9.2429  -11.7716    0.0000 O   0  0  0  0  0  0  0  0  0  0  0  0
    7.8140  -10.9466    0.0000 C   0  0  0  0  0  0  0  0  0  0  0  0
    8.5284  -10.5341    0.0000 C   0  0  0  0  0  0  0  0  0  0  0  0
    9.2429  -10.9466    0.0000 C   0  0  0  0  0  0  0  0  0  0  0  0
    4.9561   -8.4716    0.0000 C   0  0  2  0  0  0  0  0  0  0  0  0
    5.6706   -8.0591    0.0000 O   0  0  0  0  0  0  0  0  0  0  0  0
    5.6706   -7.2341    0.0000 C   0  0  1  0  0  0  0  0  0  0  0  0
    4.9561   -6.8216    0.0000 C   0  0  2  0  0  0  0  0  0  0  0  0
    4.2416   -7.2341    0.0000 C   0  0  1  0  0  0  0  0  0  0  0  0
    4.2416   -8.0591    0.0000 C   0  0  1  0  0  0  0  0  0  0  0  0
    6.3850   -6.8216    0.0000 C   0  0  0  0  0  0  0  0  0  0  0  0
    3.5271   -6.8216    0.0000 O   0  0  0  0  0  0  0  0  0  0  0  0
    3.5271   -8.4716    0.0000 O   0  0  0  0  0  0  0  0  0  0  0  0
    4.9561   -5.9966    0.0000 O   0  0  0  0  0  0  0  0  0  0  0  0
    6.3850   -5.9966    0.0000 O   0  0  0  0  0  0  0  0  0  0  0  0
    3.5271   -5.9966    0.0000 C   0  0  2  0  0  0  0  0  0  0  0  0
    4.2416   -5.5841    0.0000 O   0  0  0  0  0  0  0  0  0  0  0  0
    4.2416   -4.7591    0.0000 C   0  0  1  0  0  0  0  0  0  0  0  0
    3.5271   -4.3466    0.0000 C   0  0  2  0  0  0  0  0  0  0  0  0
    2.8127   -4.7591    0.0000 C   0  0  1  0  0  0  0  0  0  0  0  0
    2.8127   -5.5841    0.0000 C   0  0  1  0  0  0  0  0  0  0  0  0
    4.9561   -4.3466    0.0000 C   0  0  0  0  0  0  0  0  0  0  0  0
    2.0982   -4.3466    0.0000 O   0  0  0  0  0  0  0  0  0  0  0  0
    3.5271   -3.5216    0.0000 O   0  0  0  0  0  0  0  0  0  0  0  0
    2.0982   -5.9966    0.0000 O   0  0  0  0  0  0  0  0  0  0  0  0
    4.9561   -3.5216    0.0000 O   0  0  0  0  0  0  0  0  0  0  0  0
 32 20  1  0  0  0  0
 18 13  1  0  0  0  0
 17 14  1  0  0  0  0
 20 15  2  0  0  0  0
 16 15  1  0  0  0  0
 17 16  2  0  0  0  0
 18 17  1  0  0  0  0
 19 18  2  0  0  0  0
 20 19  1  0  0  0  0
 30 29  1  0  0  0  0
  1 28  1  0  0  0  0
 25  2  1  0  0  0  0
 24 21  1  0  0  0  0
 28 22  2  0  0  0  0
 26  8  1  0  0  0  0
 29  3  1  0  0  0  0
 34 30  1  0  0  0  0
 34 31  2  0  0  0  0
 33 32  1  0  0  0  0
 34 33  1  0  0  0  0
 23 22  1  0  0  0  0
 24 23  2  0  0  0  0
 25 24  1  0  0  0  0
 27 25  2  0  0  0  0
 28 27  1  0  0  0  0
  3  4  1  0  0  0  0
  4  5  1  0  0  0  0
  7 26  1  0  0  0  0
 10 11  1  0  0  0  0
 11  1  2  0  0  0  0
 10 12  2  0  0  0  0
  9 10  1  0  0  0  0
  8  9  1  0  0  0  0
  6  7  1  0  0  0  0
  5  6  1  0  0  0  0
 15  2  1  0  0  0  0
 35 14  1  1  0  0  0
 35 36  1  0  0  0  0
 36 37  1  0  0  0  0
 37 38  1  0  0  0  0
 38 39  1  0  0  0  0
 39 40  1  0  0  0  0
 40 35  1  0  0  0  0
 37 41  1  1  0  0  0
 39 42  1  1  0  0  0
 40 43  1  6  0  0  0
 38 44  1  6  0  0  0
 41 45  1  0  0  0  0
 46 42  1  1  0  0  0
 46 47  1  0  0  0  0
 47 48  1  0  0  0  0
 48 49  1  0  0  0  0
 49 50  1  0  0  0  0
 50 51  1  0  0  0  0
 51 46  1  0  0  0  0
 48 52  1  1  0  0  0
 50 53  1  1  0  0  0
 49 54  1  6  0  0  0
 51 55  1  6  0  0  0
 52 56  1  0  0  0  0
M  CHG  1   6   1
M  END
>  <cdx:fragmentId>
41

$$$$
