31154.cdx
  Mrv1902 05222410272D          

 45 48  0  0  0  0            999 V2000
    8.4729   -6.1341    0.0000 C   0  0  0  0  0  0  0  0  0  0  0  0
    7.0440   -8.6091    0.0000 O   0  0  0  0  0  0  0  0  0  0  0  0
   10.6163   -9.8466    0.0000 C   0  0  0  0  0  0  0  0  0  0  0  0
   10.6163   -9.0216    0.0000 C   0  0  0  0  0  0  0  0  0  0  0  0
   11.3308   -8.6091    0.0000 C   0  0  0  0  0  0  0  0  0  0  0  0
   11.3308   -7.7841    0.0000 N   0  3  0  0  0  0  0  0  0  0  0  0
   12.0453   -7.3716    0.0000 C   0  0  0  0  0  0  0  0  0  0  0  0
   11.3308   -6.1341    0.0000 C   0  0  0  0  0  0  0  0  0  0  0  0
   10.6163   -6.5466    0.0000 N   0  0  0  0  0  0  0  0  0  0  0  0
    9.9019   -6.1341    0.0000 C   0  0  0  0  0  0  0  0  0  0  0  0
    9.1874   -6.5466    0.0000 C   0  0  0  0  0  0  0  0  0  0  0  0
    9.9019   -5.3091    0.0000 O   0  0  0  0  0  0  0  0  0  0  0  0
    4.1861  -10.2591    0.0000 O   0  0  0  0  0  0  0  0  0  0  0  0
    4.1861   -8.6091    0.0000 O   0  0  0  0  0  0  0  0  0  0  0  0
    6.3295   -9.0216    0.0000 C   0  0  0  0  0  0  0  0  0  0  0  0
    5.6150   -8.6091    0.0000 C   0  0  0  0  0  0  0  0  0  0  0  0
    4.9006   -9.0216    0.0000 C   0  0  0  0  0  0  0  0  0  0  0  0
    4.9006   -9.8466    0.0000 C   0  0  0  0  0  0  0  0  0  0  0  0
    5.6150  -10.2591    0.0000 C   0  0  0  0  0  0  0  0  0  0  0  0
    6.3295   -9.8466    0.0000 C   0  0  0  0  0  0  0  0  0  0  0  0
    5.6150   -7.7841    0.0000 O   0  0  0  0  0  0  0  0  0  0  0  0
    7.0440   -6.1341    0.0000 C   0  0  0  0  0  0  0  0  0  0  0  0
    6.3295   -6.5466    0.0000 C   0  0  0  0  0  0  0  0  0  0  0  0
    6.3295   -7.3716    0.0000 C   0  0  0  0  0  0  0  0  0  0  0  0
    7.0440   -7.7841    0.0000 C   0  0  0  0  0  0  0  0  0  0  0  0
   12.0453   -6.5466    0.0000 C   0  0  0  0  0  0  0  0  0  0  0  0
    7.7584   -7.3716    0.0000 C   0  0  0  0  0  0  0  0  0  0  0  0
    7.7584   -6.5466    0.0000 C   0  0  0  0  0  0  0  0  0  0  0  0
    9.9019  -10.2591    0.0000 C   0  0  0  0  0  0  0  0  0  0  0  0
    9.1874   -9.8466    0.0000 N   0  0  0  0  0  0  0  0  0  0  0  0
    8.4729  -11.0841    0.0000 O   0  0  0  0  0  0  0  0  0  0  0  0
    7.0440  -10.2591    0.0000 C   0  0  0  0  0  0  0  0  0  0  0  0
    7.7584   -9.8466    0.0000 C   0  0  0  0  0  0  0  0  0  0  0  0
    8.4729  -10.2591    0.0000 C   0  0  0  0  0  0  0  0  0  0  0  0
    4.1861   -7.7841    0.0000 C   0  0  2  0  0  0  0  0  0  0  0  0
    4.9006   -7.3716    0.0000 O   0  0  0  0  0  0  0  0  0  0  0  0
    4.9006   -6.5466    0.0000 C   0  0  1  0  0  0  0  0  0  0  0  0
    4.1861   -6.1341    0.0000 C   0  0  2  0  0  0  0  0  0  0  0  0
    3.4716   -6.5466    0.0000 C   0  0  1  0  0  0  0  0  0  0  0  0
    3.4716   -7.3716    0.0000 C   0  0  1  0  0  0  0  0  0  0  0  0
    5.6150   -6.1341    0.0000 C   0  0  0  0  0  0  0  0  0  0  0  0
    2.7571   -6.1341    0.0000 O   0  0  0  0  0  0  0  0  0  0  0  0
    2.7571   -7.7841    0.0000 O   0  0  0  0  0  0  0  0  0  0  0  0
    4.1861   -5.3091    0.0000 O   0  0  0  0  0  0  0  0  0  0  0  0
    5.6150   -5.3091    0.0000 O   0  0  0  0  0  0  0  0  0  0  0  0
 32 20  1  0  0  0  0
 18 13  1  0  0  0  0
 17 14  1  0  0  0  0
 20 15  2  0  0  0  0
 16 15  1  0  0  0  0
 17 16  2  0  0  0  0
 18 17  1  0  0  0  0
 19 18  2  0  0  0  0
 20 19  1  0  0  0  0
 30 29  1  0  0  0  0
  1 28  1  0  0  0  0
 25  2  1  0  0  0  0
 24 21  1  0  0  0  0
 28 22  2  0  0  0  0
 26  8  1  0  0  0  0
 29  3  1  0  0  0  0
 34 30  1  0  0  0  0
 34 31  2  0  0  0  0
 33 32  1  0  0  0  0
 34 33  1  0  0  0  0
 23 22  1  0  0  0  0
 24 23  2  0  0  0  0
 25 24  1  0  0  0  0
 27 25  2  0  0  0  0
 28 27  1  0  0  0  0
  3  4  1  0  0  0  0
  4  5  1  0  0  0  0
  7 26  1  0  0  0  0
 10 11  1  0  0  0  0
 11  1  2  0  0  0  0
 10 12  2  0  0  0  0
  9 10  1  0  0  0  0
  8  9  1  0  0  0  0
  6  7  1  0  0  0  0
  5  6  1  0  0  0  0
 15  2  1  0  0  0  0
 35 14  1  1  0  0  0
 35 36  1  0  0  0  0
 36 37  1  0  0  0  0
 37 38  1  0  0  0  0
 38 39  1  0  0  0  0
 39 40  1  0  0  0  0
 40 35  1  0  0  0  0
 37 41  1  1  0  0  0
 39 42  1  1  0  0  0
 40 43  1  6  0  0  0
 38 44  1  6  0  0  0
 41 45  1  0  0  0  0
M  CHG  1   6   1
M  END
>  <cdx:fragmentId>
41

$$$$
