31167.cdx
  Mrv1902 05222410202D          

 16 15  0  0  0  0            999 V2000
    9.3612   -7.1667    0.0000 C   0  0  0  0  0  0  0  0  0  0  0  0
    8.6545   -7.5924    0.0000 C   0  0  0  0  0  0  0  0  0  0  0  0
    7.9325   -7.1932    0.0000 C   0  0  0  0  0  0  0  0  0  0  0  0
    8.6698   -8.4172    0.0000 C   0  0  0  0  0  0  0  0  0  0  0  0
    7.2258   -7.6189    0.0000 C   0  0  0  0  0  0  0  0  0  0  0  0
    6.5038   -7.2197    0.0000 C   0  0  0  0  0  0  0  0  0  0  0  0
    5.7971   -7.6454    0.0000 C   0  0  0  0  0  0  0  0  0  0  0  0
    5.3714   -6.9387    0.0000 C   0  0  0  0  0  0  0  0  0  0  0  0
    5.8124   -8.4703    0.0000 C   0  0  0  0  0  0  0  0  0  0  0  0
    5.0904   -8.0711    0.0000 O   0  0  0  0  0  0  0  0  0  0  0  0
    4.3684   -7.6719    0.0000 C   0  0  0  0  0  0  0  0  0  0  0  0
    3.6617   -8.0976    0.0000 C   0  0  0  0  0  0  0  0  0  0  0  0
    4.3531   -6.8471    0.0000 O   0  0  0  0  0  0  0  0  0  0  0  0
    2.9397   -7.6985    0.0000 C   0  0  0  0  0  0  0  0  0  0  0  0
    3.6770   -8.9225    0.0000 C   0  0  0  0  0  0  0  0  0  0  0  0
    6.5344   -8.8694    0.0000 C   0  0  0  0  0  0  0  0  0  0  0  0
  1  2  1  0  0  0  0
  2  3  2  0  0  0  0
  2  4  1  0  0  0  0
  3  5  1  0  0  0  0
  5  6  1  0  0  0  0
  6  7  1  0  0  0  0
  7  8  1  0  0  0  0
  7  9  1  0  0  0  0
  7 10  1  0  0  0  0
 10 11  1  0  0  0  0
 11 12  1  0  0  0  0
 11 13  2  0  0  0  0
 12 14  1  0  0  0  0
 12 15  1  0  0  0  0
  9 16  2  0  0  0  0
M  END
>  <cdx:fragmentId>
3335

$$$$
