311750.cdx
  Mrv1902 05222410202D          

 22 24  0  0  0  0            999 V2000
    6.5889   -9.8755    0.0000 C   0  0  0  0  0  0  0  0  0  0  0  0
    6.6129   -9.0509    0.0000 C   0  0  0  0  0  0  0  0  0  0  0  0
    5.9107   -8.6177    0.0000 C   0  0  0  0  0  0  0  0  0  0  0  0
    5.1846   -9.0092    0.0000 C   0  0  0  0  0  0  0  0  0  0  0  0
    5.1605   -9.8339    0.0000 C   0  0  0  0  0  0  0  0  0  0  0  0
    5.8627  -10.2670    0.0000 C   0  0  0  0  0  0  0  0  0  0  0  0
    7.3657  -10.1532    0.0000 O   0  0  0  0  0  0  0  0  0  0  0  0
    7.8699   -9.5002    0.0000 C   0  0  2  0  0  0  0  0  0  0  0  0
    7.4046   -8.8189    0.0000 C   0  0  2  0  0  0  0  0  0  0  0  0
    4.4824   -8.5761    0.0000 C   0  0  0  0  0  0  0  0  0  0  0  0
    3.7562   -8.9676    0.0000 C   0  0  0  0  0  0  0  0  0  0  0  0
    3.0541   -8.5345    0.0000 C   0  0  0  0  0  0  0  0  0  0  0  0
    2.3279   -8.9260    0.0000 O   0  0  0  0  0  0  0  0  0  0  0  0
    7.6823   -8.0420    0.0000 C   0  0  0  0  0  0  0  0  0  0  0  0
    7.1483   -7.4131    0.0000 O   0  0  0  0  0  0  0  0  0  0  0  0
    8.6945   -9.5242    0.0000 C   0  0  0  0  0  0  0  0  0  0  0  0
    9.0860  -10.2504    0.0000 C   0  0  0  0  0  0  0  0  0  0  0  0
    9.9107  -10.2744    0.0000 C   0  0  0  0  0  0  0  0  0  0  0  0
   10.3438   -9.5723    0.0000 C   0  0  0  0  0  0  0  0  0  0  0  0
    9.9523   -8.8461    0.0000 C   0  0  0  0  0  0  0  0  0  0  0  0
    9.1277   -8.8220    0.0000 C   0  0  0  0  0  0  0  0  0  0  0  0
   11.1685   -9.5963    0.0000 O   0  0  0  0  0  0  0  0  0  0  0  0
  1  2  2  0  0  0  0
  2  3  1  0  0  0  0
  3  4  2  0  0  0  0
  4  5  1  0  0  0  0
  5  6  2  0  0  0  0
  6  1  1  0  0  0  0
  1  7  1  0  0  0  0
  7  8  1  0  0  0  0
  8  9  1  0  0  0  0
  9  2  1  0  0  0  0
  4 10  1  0  0  0  0
 10 11  2  0  0  0  0
 11 12  1  0  0  0  0
 12 13  1  0  0  0  0
  9 14  1  1  0  0  0
 14 15  1  0  0  0  0
  8 16  1  6  0  0  0
 16 17  2  0  0  0  0
 17 18  1  0  0  0  0
 18 19  2  0  0  0  0
 19 20  1  0  0  0  0
 20 21  2  0  0  0  0
 21 16  1  0  0  0  0
 19 22  1  0  0  0  0
M  END
>  <cdx:fragmentId>
3093

$$$$
