311752.cdx
  Mrv1902 05222410212D          

 54 58  0  0  0  0            999 V2000
    4.2080  -10.3125    0.0000 C   0  0  2  0  0  0  0  0  0  0  0  0
    4.2080  -11.1375    0.0000 C   0  0  0  0  0  0  0  0  0  0  0  0
    4.9225  -11.5500    0.0000 C   0  0  0  0  0  0  0  0  0  0  0  0
    5.6370  -11.1375    0.0000 C   0  0  0  0  0  0  0  0  0  0  0  0
    5.6370  -10.3125    0.0000 C   0  0  1  0  0  0  0  0  0  0  0  0
    4.9225   -9.9000    0.0000 C   0  0  0  0  0  0  0  0  0  0  0  0
    6.3514  -11.5500    0.0000 C   0  0  0  0  0  0  0  0  0  0  0  0
    7.0659  -11.1375    0.0000 C   0  0  0  0  0  0  0  0  0  0  0  0
    7.0659  -10.3125    0.0000 C   0  0  2  0  0  0  0  0  0  0  0  0
    6.3514   -9.9000    0.0000 C   0  0  1  0  0  0  0  0  0  0  0  0
    7.7804   -9.9000    0.0000 C   0  0  1  0  0  0  0  0  0  0  0  0
    7.7804   -9.0750    0.0000 C   0  0  2  0  0  0  0  0  0  0  0  0
    7.0659   -8.6625    0.0000 C   0  0  0  0  0  0  0  0  0  0  0  0
    6.3514   -9.0750    0.0000 C   0  0  0  0  0  0  0  0  0  0  0  0
    8.5650  -10.1549    0.0000 C   0  0  0  0  0  0  0  0  0  0  0  0
    9.0499   -9.4875    0.0000 C   0  0  2  0  0  0  0  0  0  0  0  0
    8.5650   -8.8201    0.0000 C   0  0  2  0  0  0  0  0  0  0  0  0
    3.4936  -11.5500    0.0000 O   0  0  0  0  0  0  0  0  0  0  0  0
    4.5100  -12.2645    0.0000 C   0  0  0  0  0  0  0  0  0  0  0  0
    5.3350  -12.2645    0.0000 C   0  0  0  0  0  0  0  0  0  0  0  0
    6.3514  -10.7250    0.0000 C   0  0  0  0  0  0  0  0  0  0  0  0
    7.7804  -10.7250    0.0000 C   0  0  0  0  0  0  0  0  0  0  0  0
    7.7804   -8.2500    0.0000 C   0  0  0  0  0  0  0  0  0  0  0  0
    8.8199   -8.0354    0.0000 C   0  0  2  0  0  0  0  0  0  0  0  0
    8.0231   -7.8219    0.0000 C   0  0  0  0  0  0  0  0  0  0  0  0
    9.6269   -7.8639    0.0000 C   0  0  0  0  0  0  0  0  0  0  0  0
    9.8819   -7.0793    0.0000 C   0  0  0  0  0  0  0  0  0  0  0  0
   10.6888   -6.9078    0.0000 C   0  0  0  0  0  0  0  0  0  0  0  0
   10.9438   -6.1231    0.0000 C   0  0  0  0  0  0  0  0  0  0  0  0
   10.1469   -5.9096    0.0000 C   0  0  0  0  0  0  0  0  0  0  0  0
   11.7407   -6.3367    0.0000 C   0  0  0  0  0  0  0  0  0  0  0  0
    9.3798   -8.6910    0.0000 H   0  0  0  0  0  0  0  0  0  0  0  0
    5.6370   -9.4875    0.0000 H   0  0  0  0  0  0  0  0  0  0  0  0
    7.0659   -9.4875    0.0000 H   0  0  0  0  0  0  0  0  0  0  0  0
    3.4936   -9.9000    0.0000 O   0  0  0  0  0  0  0  0  0  0  0  0
    3.4936   -9.0750    0.0000 C   0  0  2  0  0  0  0  0  0  0  0  0
    4.2080   -8.6625    0.0000 O   0  0  0  0  0  0  0  0  0  0  0  0
    4.2080   -7.8375    0.0000 C   0  0  1  0  0  0  0  0  0  0  0  0
    3.4936   -7.4250    0.0000 C   0  0  2  0  0  0  0  0  0  0  0  0
    2.7791   -7.8375    0.0000 C   0  0  1  0  0  0  0  0  0  0  0  0
    2.7791   -8.6625    0.0000 C   0  0  1  0  0  0  0  0  0  0  0  0
    4.9225   -7.4250    0.0000 C   0  0  0  0  0  0  0  0  0  0  0  0
    2.0646   -7.4250    0.0000 O   0  0  0  0  0  0  0  0  0  0  0  0
    3.4936   -6.6000    0.0000 O   0  0  0  0  0  0  0  0  0  0  0  0
    2.0646   -9.0750    0.0000 O   0  0  0  0  0  0  0  0  0  0  0  0
    4.9225   -6.6000    0.0000 O   0  0  0  0  0  0  0  0  0  0  0  0
    5.6370   -8.6625    0.0000 O   0  0  0  0  0  0  0  0  0  0  0  0
    8.6064   -7.2386    0.0000 O   0  0  0  0  0  0  0  0  0  0  0  0
    9.8749   -9.4875    0.0000 O   0  0  0  0  0  0  0  0  0  0  0  0
   10.1789   -8.4770    0.0000 O   0  0  0  0  0  0  0  0  0  0  0  0
   11.1987   -5.3385    0.0000 O   0  0  0  0  0  0  0  0  0  0  0  0
   12.0057   -5.1670    0.0000 C   0  0  0  0  0  0  0  0  0  0  0  0
   12.5577   -5.7801    0.0000 C   0  0  0  0  0  0  0  0  0  0  0  0
   12.2606   -4.3824    0.0000 O   0  0  0  0  0  0  0  0  0  0  0  0
  1  2  1  0  0  0  0
  2  3  1  0  0  0  0
  3  4  1  0  0  0  0
  4  5  1  0  0  0  0
  5  6  1  0  0  0  0
  6  1  1  0  0  0  0
  4  7  2  0  0  0  0
  7  8  1  0  0  0  0
  8  9  1  0  0  0  0
  9 10  1  0  0  0  0
 10  5  1  0  0  0  0
  9 11  1  0  0  0  0
 11 12  1  0  0  0  0
 12 13  1  0  0  0  0
 13 14  1  0  0  0  0
 14 10  1  0  0  0  0
 11 15  1  0  0  0  0
 15 16  1  0  0  0  0
 16 17  1  0  0  0  0
 17 12  1  0  0  0  0
  2 18  2  0  0  0  0
  3 19  1  0  0  0  0
  3 20  1  0  0  0  0
 10 21  1  1  0  0  0
 11 22  1  6  0  0  0
 12 23  1  1  0  0  0
 17 24  1  0  0  0  0
 24 25  1  6  0  0  0
 24 26  1  0  0  0  0
 26 27  1  0  0  0  0
 27 28  2  0  0  0  0
 28 29  1  0  0  0  0
 29 30  1  0  0  0  0
 29 31  1  0  0  0  0
 17 32  1  6  0  0  0
  5 33  1  6  0  0  0
  9 34  1  1  0  0  0
  1 35  1  1  0  0  0
 36 35  1  1  0  0  0
 36 37  1  0  0  0  0
 37 38  1  0  0  0  0
 38 39  1  0  0  0  0
 39 40  1  0  0  0  0
 40 41  1  0  0  0  0
 41 36  1  0  0  0  0
 38 42  1  1  0  0  0
 40 43  1  1  0  0  0
 39 44  1  6  0  0  0
 41 45  1  6  0  0  0
 42 46  1  0  0  0  0
 14 47  2  0  0  0  0
 24 48  1  0  0  0  0
 16 49  1  6  0  0  0
 26 50  2  0  0  0  0
 29 51  1  0  0  0  0
 51 52  1  0  0  0  0
 52 53  1  0  0  0  0
 52 54  2  0  0  0  0
M  END
>  <cdx:fragmentId>
3191

$$$$
