311751.cdx
  Mrv1902 05222410212D          

 34 37  0  0  0  0            999 V2000
    3.6855  -10.2025    0.0000 C   0  0  0  0  0  0  0  0  0  0  0  0
    3.6855  -11.0275    0.0000 C   0  0  1  0  0  0  0  0  0  0  0  0
    4.4000  -11.4400    0.0000 C   0  0  0  0  0  0  0  0  0  0  0  0
    5.1145  -11.0275    0.0000 C   0  0  0  0  0  0  0  0  0  0  0  0
    5.1145  -10.2025    0.0000 C   0  0  1  0  0  0  0  0  0  0  0  0
    4.4000   -9.7900    0.0000 C   0  0  0  0  0  0  0  0  0  0  0  0
    5.8289  -11.4400    0.0000 C   0  0  0  0  0  0  0  0  0  0  0  0
    6.5434  -11.0275    0.0000 C   0  0  0  0  0  0  0  0  0  0  0  0
    6.5434  -10.2025    0.0000 C   0  0  2  0  0  0  0  0  0  0  0  0
    5.8289   -9.7900    0.0000 C   0  0  1  0  0  0  0  0  0  0  0  0
    7.2579   -9.7900    0.0000 C   0  0  1  0  0  0  0  0  0  0  0  0
    7.2579   -8.9650    0.0000 C   0  0  2  0  0  0  0  0  0  0  0  0
    6.5434   -8.5525    0.0000 C   0  0  0  0  0  0  0  0  0  0  0  0
    5.8289   -8.9650    0.0000 C   0  0  0  0  0  0  0  0  0  0  0  0
    8.0425  -10.0449    0.0000 C   0  0  0  0  0  0  0  0  0  0  0  0
    8.5274   -9.3775    0.0000 C   0  0  0  0  0  0  0  0  0  0  0  0
    8.0425   -8.7101    0.0000 C   0  0  2  0  0  0  0  0  0  0  0  0
    2.9711  -11.4400    0.0000 O   0  0  0  0  0  0  0  0  0  0  0  0
    3.9875  -12.1545    0.0000 C   0  0  0  0  0  0  0  0  0  0  0  0
    4.8125  -12.1545    0.0000 C   0  0  0  0  0  0  0  0  0  0  0  0
    5.8289  -10.6150    0.0000 C   0  0  0  0  0  0  0  0  0  0  0  0
    7.2579  -10.6150    0.0000 C   0  0  0  0  0  0  0  0  0  0  0  0
    7.2579   -8.1400    0.0000 C   0  0  0  0  0  0  0  0  0  0  0  0
    8.2974   -7.9254    0.0000 C   0  0  2  0  0  0  0  0  0  0  0  0
    7.7454   -7.3123    0.0000 C   0  0  0  0  0  0  0  0  0  0  0  0
    9.1044   -7.7539    0.0000 C   0  0  0  0  0  0  0  0  0  0  0  0
    9.3594   -6.9693    0.0000 C   0  0  0  0  0  0  0  0  0  0  0  0
   10.1663   -6.7978    0.0000 C   0  0  0  0  0  0  0  0  0  0  0  0
   10.4213   -6.0131    0.0000 C   0  0  0  0  0  0  0  0  0  0  0  0
    9.8692   -5.4000    0.0000 C   0  0  0  0  0  0  0  0  0  0  0  0
   11.2282   -5.8416    0.0000 C   0  0  0  0  0  0  0  0  0  0  0  0
    8.8573   -8.5810    0.0000 H   0  0  0  0  0  0  0  0  0  0  0  0
    5.1145   -9.3775    0.0000 H   0  0  0  0  0  0  0  0  0  0  0  0
    6.5434   -9.3775    0.0000 H   0  0  0  0  0  0  0  0  0  0  0  0
  1  2  1  0  0  0  0
  2  3  1  0  0  0  0
  3  4  1  0  0  0  0
  4  5  1  0  0  0  0
  5  6  1  0  0  0  0
  6  1  1  0  0  0  0
  4  7  2  0  0  0  0
  7  8  1  0  0  0  0
  8  9  1  0  0  0  0
  9 10  1  0  0  0  0
 10  5  1  0  0  0  0
  9 11  1  0  0  0  0
 11 12  1  0  0  0  0
 12 13  1  0  0  0  0
 13 14  1  0  0  0  0
 14 10  1  0  0  0  0
 11 15  1  0  0  0  0
 15 16  1  0  0  0  0
 16 17  1  0  0  0  0
 17 12  1  0  0  0  0
  2 18  1  1  0  0  0
  3 19  1  0  0  0  0
  3 20  1  0  0  0  0
 10 21  1  1  0  0  0
 11 22  1  6  0  0  0
 12 23  1  1  0  0  0
 17 24  1  0  0  0  0
 24 25  1  6  0  0  0
 24 26  1  0  0  0  0
 26 27  1  0  0  0  0
 27 28  1  0  0  0  0
 28 29  2  0  0  0  0
 29 30  1  0  0  0  0
 29 31  1  0  0  0  0
 17 32  1  6  0  0  0
  5 33  1  6  0  0  0
  9 34  1  1  0  0  0
M  END
>  <cdx:fragmentId>
3191

$$$$
