31199.cdx
  Mrv1902 05222410202D          

 19 21  0  0  0  0            999 V2000
    5.9950   -6.2425    0.0000 C   0  0  0  0  0  0  0  0  0  0  0  0
    6.8200   -6.2425    0.0000 C   0  0  0  0  0  0  0  0  0  0  0  0
    7.4034   -6.8259    0.0000 C   0  0  0  0  0  0  0  0  0  0  0  0
    7.1898   -7.6228    0.0000 C   0  0  1  0  0  0  0  0  0  0  0  0
    5.4116   -6.8259    0.0000 C   0  0  0  0  0  0  0  0  0  0  0  0
    5.6252   -7.6228    0.0000 C   0  0  2  0  0  0  0  0  0  0  0  0
    6.4075   -8.0575    0.0000 C   0  0  1  0  0  0  0  0  0  0  0  0
    7.1898   -8.4478    0.0000 C   0  0  2  0  0  0  0  0  0  0  0  0
    6.6275   -9.0750    0.0000 C   0  0  0  0  0  0  0  0  0  0  0  0
    5.6252   -8.4478    0.0000 C   0  0  1  0  0  0  0  0  0  0  0  0
    5.8575   -9.3500    0.0000 C   0  0  0  0  0  0  0  0  0  0  0  0
    4.8067   -8.5514    0.0000 H   0  0  0  0  0  0  0  0  0  0  0  0
    4.8072   -7.7304    0.0000 H   0  0  0  0  0  0  0  0  0  0  0  0
    6.3131   -7.2379    0.0000 H   0  0  0  0  0  0  0  0  0  0  0  0
    8.0078   -7.7304    0.0000 C   0  0  0  0  0  0  0  0  0  0  0  0
    7.7732   -9.0311    0.0000 C   0  0  0  0  0  0  0  0  0  0  0  0
    7.5597   -9.8280    0.0000 O   0  0  0  0  0  0  0  0  0  0  0  0
    4.5866   -6.8259    0.0000 C   0  0  0  0  0  0  0  0  0  0  0  0
    4.8283   -6.2425    0.0000 C   0  0  0  0  0  0  0  0  0  0  0  0
  1  2  1  0  0  0  0
  2  3  1  0  0  0  0
  3  4  1  0  0  0  0
  1  5  1  0  0  0  0
  5  6  1  0  0  0  0
  6  7  1  0  0  0  0
  4  7  1  0  0  0  0
  4  8  1  0  0  0  0
  7  9  1  0  0  0  0
  6 10  1  0  0  0  0
 10  8  1  0  0  0  0
 10 11  1  0  0  0  0
  9 11  1  0  0  0  0
 10 12  1  6  0  0  0
  6 13  1  1  0  0  0
  7 14  1  1  0  0  0
  4 15  1  1  0  0  0
  8 16  1  1  0  0  0
 16 17  1  0  0  0  0
  5 18  1  0  0  0  0
  5 19  1  0  0  0  0
M  END
>  <cdx:fragmentId>
895

$$$$
