31218.cdx
  Mrv1902 05222410282D          

 30 29  0  0  0  0            999 V2000
    5.4020   -2.2275    0.0000 C   0  0  0  0  0  0  0  0  0  0  0  0
    6.1165   -2.6400    0.0000 C   0  0  0  0  0  0  0  0  0  0  0  0
    6.8309   -2.2275    0.0000 C   0  0  0  0  0  0  0  0  0  0  0  0
    7.5454   -2.6400    0.0000 C   0  0  0  0  0  0  0  0  0  0  0  0
    8.2599   -2.2275    0.0000 C   0  0  0  0  0  0  0  0  0  0  0  0
    8.9744   -2.6400    0.0000 C   0  0  0  0  0  0  0  0  0  0  0  0
    9.6888   -2.2275    0.0000 C   0  0  0  0  0  0  0  0  0  0  0  0
   10.4033   -2.6400    0.0000 C   0  0  0  0  0  0  0  0  0  0  0  0
   11.1178   -2.2275    0.0000 C   0  0  0  0  0  0  0  0  0  0  0  0
   11.8322   -2.6400    0.0000 C   0  0  0  0  0  0  0  0  0  0  0  0
    5.4020   -1.4025    0.0000 O   0  0  0  0  0  0  0  0  0  0  0  0
    4.6875   -2.6400    0.0000 O   0  0  0  0  0  0  0  0  0  0  0  0
   11.8322   -3.4650    0.0000 O   0  0  0  0  0  0  0  0  0  0  0  0
   12.5467   -2.2275    0.0000 O   0  0  0  0  0  0  0  0  0  0  0  0
    3.9731   -2.2275    0.0000 C   0  0  0  0  0  0  0  0  0  0  0  0
    3.2586   -2.6400    0.0000 C   0  0  0  0  0  0  0  0  0  0  0  0
    2.5441   -2.2275    0.0000 C   0  0  0  0  0  0  0  0  0  0  0  0
    1.8297   -2.6400    0.0000 C   0  0  0  0  0  0  0  0  0  0  0  0
    1.1152   -2.2275    0.0000 C   0  0  0  0  0  0  0  0  0  0  0  0
    0.4007   -2.6400    0.0000 C   0  0  0  0  0  0  0  0  0  0  0  0
    3.2586   -3.4650    0.0000 C   0  0  0  0  0  0  0  0  0  0  0  0
    2.5441   -3.8775    0.0000 C   0  0  0  0  0  0  0  0  0  0  0  0
   13.2612   -2.6400    0.0000 C   0  0  0  0  0  0  0  0  0  0  0  0
   13.9757   -2.2275    0.0000 C   0  0  0  0  0  0  0  0  0  0  0  0
   14.6901   -2.6400    0.0000 C   0  0  0  0  0  0  0  0  0  0  0  0
   15.4046   -2.2275    0.0000 C   0  0  0  0  0  0  0  0  0  0  0  0
   16.1191   -2.6400    0.0000 C   0  0  0  0  0  0  0  0  0  0  0  0
   16.8335   -2.2275    0.0000 C   0  0  0  0  0  0  0  0  0  0  0  0
   13.9757   -1.4025    0.0000 C   0  0  0  0  0  0  0  0  0  0  0  0
   14.6901   -0.9900    0.0000 C   0  0  0  0  0  0  0  0  0  0  0  0
  1  2  1  0  0  0  0
  2  3  1  0  0  0  0
  3  4  1  0  0  0  0
  4  5  1  0  0  0  0
  5  6  1  0  0  0  0
  6  7  1  0  0  0  0
  7  8  1  0  0  0  0
  8  9  1  0  0  0  0
  9 10  1  0  0  0  0
  1 11  2  0  0  0  0
  1 12  1  0  0  0  0
 10 13  2  0  0  0  0
 10 14  1  0  0  0  0
 15 16  1  0  0  0  0
 16 17  1  0  0  0  0
 17 18  1  0  0  0  0
 18 19  1  0  0  0  0
 19 20  1  0  0  0  0
 21 22  1  0  0  0  0
 16 21  1  0  0  0  0
 12 15  1  0  0  0  0
 23 24  1  0  0  0  0
 24 25  1  0  0  0  0
 25 26  1  0  0  0  0
 26 27  1  0  0  0  0
 27 28  1  0  0  0  0
 29 30  1  0  0  0  0
 24 29  1  0  0  0  0
 14 23  1  0  0  0  0
M  END
>  <cdx:groupId>
91

>  <cdx:fragmentId>
5

$$$$
