31211.cdx
  Mrv1902 05222410202D          

 14 14  0  0  0  0            999 V2000
    7.7831   -3.5758    0.0000 C   0  0  0  0  0  0  0  0  0  0  0  0
    7.0687   -3.1633    0.0000 C   0  0  0  0  0  0  0  0  0  0  0  0
    6.3542   -3.5758    0.0000 C   0  0  0  0  0  0  0  0  0  0  0  0
    5.6397   -3.1633    0.0000 C   0  0  0  0  0  0  0  0  0  0  0  0
    7.0687   -2.3383    0.0000 O   0  0  0  0  0  0  0  0  0  0  0  0
    4.9252   -3.5758    0.0000 C   0  0  0  0  0  0  0  0  0  0  0  0
    4.2108   -3.1633    0.0000 C   0  0  0  0  0  0  0  0  0  0  0  0
    3.4963   -3.5758    0.0000 C   0  0  0  0  0  0  0  0  0  0  0  0
    3.4963   -4.4008    0.0000 C   0  0  0  0  0  0  0  0  0  0  0  0
    4.2108   -4.8133    0.0000 C   0  0  0  0  0  0  0  0  0  0  0  0
    4.9252   -4.4008    0.0000 C   0  0  0  0  0  0  0  0  0  0  0  0
    2.7818   -3.1633    0.0000 O   0  0  0  0  0  0  0  0  0  0  0  0
    2.0674   -3.5758    0.0000 C   0  0  0  0  0  0  0  0  0  0  0  0
    2.7818   -4.8133    0.0000 O   0  0  0  0  0  0  0  0  0  0  0  0
  1  2  1  0  0  0  0
  2  3  1  0  0  0  0
  3  4  1  0  0  0  0
  2  5  2  0  0  0  0
  6  7  1  0  0  0  0
  7  8  2  0  0  0  0
  8  9  1  0  0  0  0
  9 10  2  0  0  0  0
 10 11  1  0  0  0  0
  6 11  2  0  0  0  0
 12 13  1  0  0  0  0
  8 12  1  0  0  0  0
  9 14  1  0  0  0  0
  4  6  1  0  0  0  0
M  END
>  <cdx:groupId>
44

>  <cdx:fragmentId>
15

$$$$
