31225.cdx
  Mrv1902 05222410282D          

 13 13  0  0  0  0            999 V2000
    3.1422   -3.6214    0.0000 C   0  0  0  0  0  0  0  0  0  0  0  0
    2.4278   -4.0339    0.0000 C   0  0  0  0  0  0  0  0  0  0  0  0
    1.7133   -3.6214    0.0000 C   0  0  0  0  0  0  0  0  0  0  0  0
    3.1422   -2.7964    0.0000 O   0  0  0  0  0  0  0  0  0  0  0  0
    3.8567   -4.0339    0.0000 O   0  0  0  0  0  0  0  0  0  0  0  0
    4.5712   -3.6214    0.0000 C   0  0  0  0  0  0  0  0  0  0  0  0
    5.2857   -4.0339    0.0000 C   0  0  0  0  0  0  0  0  0  0  0  0
    6.0001   -3.6214    0.0000 C   0  0  0  0  0  0  0  0  0  0  0  0
    6.7146   -4.0339    0.0000 C   0  0  0  0  0  0  0  0  0  0  0  0
    7.4291   -3.6214    0.0000 C   0  0  0  0  0  0  0  0  0  0  0  0
    7.4291   -2.7964    0.0000 C   0  0  0  0  0  0  0  0  0  0  0  0
    6.7146   -2.3839    0.0000 C   0  0  0  0  0  0  0  0  0  0  0  0
    6.0001   -2.7964    0.0000 C   0  0  0  0  0  0  0  0  0  0  0  0
  1  2  1  0  0  0  0
  2  3  1  0  0  0  0
  1  4  2  0  0  0  0
  1  5  1  0  0  0  0
  6  7  1  0  0  0  0
  8  9  1  0  0  0  0
  9 10  2  0  0  0  0
 10 11  1  0  0  0  0
 11 12  2  0  0  0  0
 12 13  1  0  0  0  0
  8 13  2  0  0  0  0
  7  8  1  0  0  0  0
  5  6  1  0  0  0  0
M  END
>  <cdx:groupId>
41

>  <cdx:fragmentId>
19

$$$$
