5312378.cdx
  Mrv1902 05222410262D          

 14 13  0  0  0  0            999 V2000
   18.7821   -8.6553    0.0000 C   0  0  0  0  0  0  0  0  0  0  0  0
   18.0676   -9.0678    0.0000 C   0  0  0  0  0  0  0  0  0  0  0  0
   17.3531   -8.6553    0.0000 C   0  0  0  0  0  0  0  0  0  0  0  0
   16.6387   -9.0678    0.0000 C   0  0  0  0  0  0  0  0  0  0  0  0
   15.9242   -8.6553    0.0000 C   0  0  0  0  0  0  0  0  0  0  0  0
   15.0992   -8.6553    0.0000 C   0  0  0  0  0  0  0  0  0  0  0  0
   14.3847   -9.0678    0.0000 C   0  0  0  0  0  0  0  0  0  0  0  0
   13.6703   -8.6553    0.0000 C   0  0  0  0  0  0  0  0  0  0  0  0
   12.9558   -9.0678    0.0000 C   0  0  0  0  0  0  0  0  0  0  0  0
   12.2413   -8.6553    0.0000 C   0  0  0  0  0  0  0  0  0  0  0  0
   11.5268   -9.0678    0.0000 C   0  0  0  0  0  0  0  0  0  0  0  0
   10.8124   -8.6553    0.0000 C   0  0  0  0  0  0  0  0  0  0  0  0
   18.7821   -7.8303    0.0000 O   0  0  0  0  0  0  0  0  0  0  0  0
   19.4966   -9.0678    0.0000 O   0  0  0  0  0  0  0  0  0  0  0  0
  1  2  1  0  0  0  0
  2  3  1  0  0  0  0
  3  4  1  0  0  0  0
  4  5  1  0  0  0  0
  5  6  2  0  0  0  0
  6  7  1  0  0  0  0
  7  8  1  0  0  0  0
  8  9  1  0  0  0  0
  9 10  1  0  0  0  0
 10 11  1  0  0  0  0
 11 12  1  0  0  0  0
  1 13  2  0  0  0  0
  1 14  1  0  0  0  0
M  END
>  <cdx:groupId>
1546

>  <cdx:fragmentId>
1508

$$$$
