31234.cdx
  Mrv1902 05222410262D          

 10 10  0  0  0  0            999 V2000
    6.2922   -5.0806    0.0000 C   0  0  0  0  0  0  0  0  0  0  0  0
    5.5778   -5.4931    0.0000 C   0  0  0  0  0  0  0  0  0  0  0  0
    4.8633   -5.0806    0.0000 C   0  0  0  0  0  0  0  0  0  0  0  0
    4.8633   -4.2556    0.0000 C   0  0  0  0  0  0  0  0  0  0  0  0
    5.5778   -3.8431    0.0000 C   0  0  0  0  0  0  0  0  0  0  0  0
    6.2922   -4.2556    0.0000 C   0  0  0  0  0  0  0  0  0  0  0  0
    8.4356   -5.4931    0.0000 C   0  0  0  0  0  0  0  0  0  0  0  0
    7.7212   -5.0806    0.0000 C   0  0  0  0  0  0  0  0  0  0  0  0
    7.0067   -5.4931    0.0000 C   0  0  0  0  0  0  0  0  0  0  0  0
    9.1501   -5.0806    0.0000 O   0  0  0  0  0  0  0  0  0  0  0  0
  1  2  1  0  0  0  0
  2  3  2  0  0  0  0
  3  4  1  0  0  0  0
  4  5  2  0  0  0  0
  5  6  1  0  0  0  0
  1  6  2  0  0  0  0
  7  8  1  0  0  0  0
  8  9  1  0  0  0  0
  7 10  1  0  0  0  0
  1  9  1  0  0  0  0
M  END
>  <cdx:fragmentId>
5

$$$$
