31231.cdx
  Mrv1902 05222410282D          

 12 12  0  0  0  0            999 V2000
    8.4651   -6.2491    0.0000 C   0  0  0  0  0  0  0  0  0  0  0  0
    9.1796   -5.8366    0.0000 C   0  0  0  0  0  0  0  0  0  0  0  0
    9.8940   -6.2491    0.0000 C   0  0  0  0  0  0  0  0  0  0  0  0
    9.1796   -5.0116    0.0000 O   0  0  0  0  0  0  0  0  0  0  0  0
    7.7506   -5.8366    0.0000 C   0  0  0  0  0  0  0  0  0  0  0  0
    7.7506   -5.0116    0.0000 C   0  0  0  0  0  0  0  0  0  0  0  0
    7.0361   -4.5991    0.0000 C   0  0  0  0  0  0  0  0  0  0  0  0
    6.3217   -5.0116    0.0000 C   0  0  0  0  0  0  0  0  0  0  0  0
    6.3217   -5.8366    0.0000 C   0  0  0  0  0  0  0  0  0  0  0  0
    7.0361   -6.2491    0.0000 C   0  0  0  0  0  0  0  0  0  0  0  0
    5.6072   -4.5991    0.0000 O   0  0  0  0  0  0  0  0  0  0  0  0
    4.8927   -5.0116    0.0000 C   0  0  0  0  0  0  0  0  0  0  0  0
  1  2  1  0  0  0  0
  2  3  1  0  0  0  0
  2  4  2  0  0  0  0
  5  6  1  0  0  0  0
  6  7  2  0  0  0  0
  7  8  1  0  0  0  0
  8  9  2  0  0  0  0
  9 10  1  0  0  0  0
  5 10  2  0  0  0  0
 11 12  1  0  0  0  0
  8 11  1  0  0  0  0
  1  5  1  0  0  0  0
M  END
>  <cdx:fragmentId>
13

$$$$
