5312457.cdx
  Mrv1902 05222410232D          

 20 19  0  0  0  0            999 V2000
   12.9913   -6.8469    0.0000 C   0  0  0  0  0  0  0  0  0  0  0  0
   12.2768   -7.2594    0.0000 C   0  0  0  0  0  0  0  0  0  0  0  0
   11.5623   -6.8469    0.0000 C   0  0  0  0  0  0  0  0  0  0  0  0
   10.8479   -7.2594    0.0000 C   0  0  0  0  0  0  0  0  0  0  0  0
   10.1334   -6.8469    0.0000 C   0  0  0  0  0  0  0  0  0  0  0  0
    9.4189   -7.2594    0.0000 C   0  0  0  0  0  0  0  0  0  0  0  0
    8.7045   -6.8469    0.0000 C   0  0  0  0  0  0  0  0  0  0  0  0
    7.9900   -7.2594    0.0000 C   0  0  0  0  0  0  0  0  0  0  0  0
    7.2755   -6.8469    0.0000 C   0  0  0  0  0  0  0  0  0  0  0  0
    6.5610   -7.2594    0.0000 C   0  0  0  0  0  0  0  0  0  0  0  0
    5.8466   -6.8469    0.0000 C   0  0  0  0  0  0  0  0  0  0  0  0
    5.1321   -7.2594    0.0000 C   0  0  0  0  0  0  0  0  0  0  0  0
    4.4176   -6.8469    0.0000 C   0  0  0  0  0  0  0  0  0  0  0  0
    3.7032   -7.2594    0.0000 C   0  0  0  0  0  0  0  0  0  0  0  0
    2.9887   -6.8469    0.0000 C   0  0  0  0  0  0  0  0  0  0  0  0
    2.2742   -7.2594    0.0000 C   0  0  0  0  0  0  0  0  0  0  0  0
    1.5597   -6.8469    0.0000 C   0  0  0  0  0  0  0  0  0  0  0  0
    0.8453   -7.2594    0.0000 C   0  0  0  0  0  0  0  0  0  0  0  0
   12.9913   -6.0219    0.0000 O   0  0  0  0  0  0  0  0  0  0  0  0
   13.7058   -7.2594    0.0000 O   0  0  0  0  0  0  0  0  0  0  0  0
  1  2  1  0  0  0  0
  2  3  2  0  0  0  0
  3  4  1  0  0  0  0
  4  5  2  0  0  0  0
  5  6  1  0  0  0  0
  6  7  1  0  0  0  0
  7  8  1  0  0  0  0
  8  9  1  0  0  0  0
  9 10  1  0  0  0  0
 10 11  1  0  0  0  0
 11 12  1  0  0  0  0
 12 13  1  0  0  0  0
 13 14  1  0  0  0  0
 14 15  1  0  0  0  0
 15 16  1  0  0  0  0
 16 17  1  0  0  0  0
 17 18  1  0  0  0  0
  1 19  2  0  0  0  0
  1 20  1  0  0  0  0
M  END
>  <cdx:groupId>
61

>  <cdx:fragmentId>
5

$$$$
