312476.cdx
  Mrv1902 05222410212D          

 20 19  0  0  0  0            999 V2000
    8.6435   -9.2237    0.0000 C   0  0  0  0  0  0  0  0  0  0  0  0
   10.0724   -9.2238    0.0000 C   0  0  0  0  0  0  0  0  0  0  0  0
   10.7869   -9.6363    0.0000 C   0  0  0  0  0  0  0  0  0  0  0  0
   11.5014   -9.2239    0.0000 C   0  0  0  0  0  0  0  0  0  0  0  0
   12.2158   -9.6364    0.0000 C   0  0  0  0  0  0  0  0  0  0  0  0
   12.9304   -9.2240    0.0000 C   0  0  0  0  0  0  0  0  0  0  0  0
    1.4988  -11.6987    0.0000 O   0  0  0  0  0  0  0  0  0  0  0  0
    2.2133  -12.9362    0.0000 O   0  0  0  0  0  0  0  0  0  0  0  0
    9.3580   -9.6362    0.0000 C   0  0  0  0  0  0  0  0  0  0  0  0
    7.9290   -9.6362    0.0000 C   0  0  0  0  0  0  0  0  0  0  0  0
    7.2145   -9.2237    0.0000 C   0  0  0  0  0  0  0  0  0  0  0  0
    6.5000   -9.6362    0.0000 C   0  0  0  0  0  0  0  0  0  0  0  0
    6.5000  -10.4612    0.0000 C   0  0  0  0  0  0  0  0  0  0  0  0
    5.7856  -10.8737    0.0000 C   0  0  0  0  0  0  0  0  0  0  0  0
    5.7856  -11.6987    0.0000 C   0  0  0  0  0  0  0  0  0  0  0  0
    5.0711  -12.1112    0.0000 C   0  0  0  0  0  0  0  0  0  0  0  0
    4.3566  -11.6987    0.0000 C   0  0  0  0  0  0  0  0  0  0  0  0
    3.6422  -12.1112    0.0000 C   0  0  0  0  0  0  0  0  0  0  0  0
    2.9277  -11.6987    0.0000 C   0  0  0  0  0  0  0  0  0  0  0  0
    2.2133  -12.1112    0.0000 C   0  0  0  0  0  0  0  0  0  0  0  0
  9  2  1  0  0  0  0
 20  7  1  0  0  0  0
 20  8  2  0  0  0  0
 10  1  1  0  0  0  0
 11 10  1  0  0  0  0
 12 11  2  0  0  0  0
 13 12  1  0  0  0  0
 14 13  1  0  0  0  0
 15 14  1  0  0  0  0
 16 15  2  0  0  0  0
 17 16  1  0  0  0  0
 18 17  1  0  0  0  0
 19 18  1  0  0  0  0
 20 19  1  0  0  0  0
  1  9  1  0  0  0  0
  2  3  1  0  0  0  0
  3  4  1  0  0  0  0
  4  5  1  0  0  0  0
  5  6  1  0  0  0  0
M  END
>  <cdx:fragmentId>
1612

$$$$
