312414.cdx
  Mrv1902 05222410182D          

 18 17  0  0  0  0            999 V2000
    3.1772  -11.3505    0.0000 O   0  0  0  0  0  0  0  0  0  0  0  0
    6.0351  -10.5255    0.0000 C   0  0  0  0  0  0  0  0  0  0  0  0
    5.3206  -10.1130    0.0000 C   0  0  0  0  0  0  0  0  0  0  0  0
    4.6061  -10.5255    0.0000 C   0  0  0  0  0  0  0  0  0  0  0  0
    3.8917  -10.1130    0.0000 C   0  0  0  0  0  0  0  0  0  0  0  0
    3.1772  -10.5255    0.0000 C   0  0  0  0  0  0  0  0  0  0  0  0
    2.4627  -10.1130    0.0000 O   0  0  0  0  0  0  0  0  0  0  0  0
    6.7496  -10.1130    0.0000 C   0  0  0  0  0  0  0  0  0  0  0  0
    7.4640  -10.5255    0.0000 C   0  0  0  0  0  0  0  0  0  0  0  0
    8.1785  -10.1130    0.0000 C   0  0  0  0  0  0  0  0  0  0  0  0
    8.8930  -10.5255    0.0000 C   0  0  0  0  0  0  0  0  0  0  0  0
    9.6074  -10.1130    0.0000 C   0  0  0  0  0  0  0  0  0  0  0  0
   10.3219  -10.5255    0.0000 C   0  0  0  0  0  0  0  0  0  0  0  0
   11.0364  -10.1130    0.0000 C   0  0  0  0  0  0  0  0  0  0  0  0
   11.0364   -9.2880    0.0000 C   0  0  0  0  0  0  0  0  0  0  0  0
   11.7509   -8.8755    0.0000 C   0  0  0  0  0  0  0  0  0  0  0  0
   11.7509   -8.0505    0.0000 C   0  0  0  0  0  0  0  0  0  0  0  0
   12.4653   -7.6380    0.0000 C   0  0  0  0  0  0  0  0  0  0  0  0
  6  1  2  0  0  0  0
  3  2  1  0  0  0  0
  4  3  1  0  0  0  0
  5  4  1  0  0  0  0
  6  5  1  0  0  0  0
  7  6  1  0  0  0  0
  2  8  1  0  0  0  0
  8  9  1  0  0  0  0
  9 10  1  0  0  0  0
 10 11  1  0  0  0  0
 11 12  1  0  0  0  0
 12 13  1  0  0  0  0
 13 14  2  0  0  0  0
 14 15  1  0  0  0  0
 15 16  1  0  0  0  0
 16 17  1  0  0  0  0
 17 18  1  0  0  0  0
M  END
>  <cdx:fragmentId>
7310

$$$$
