312413.cdx
  Mrv1902 05222410192D          

 18 17  0  0  0  0            999 V2000
    3.0122   -8.1605    0.0000 O   0  0  0  0  0  0  0  0  0  0  0  0
    5.8701   -7.3355    0.0000 C   0  0  0  0  0  0  0  0  0  0  0  0
    5.1556   -6.9230    0.0000 C   0  0  0  0  0  0  0  0  0  0  0  0
    4.4411   -7.3355    0.0000 C   0  0  0  0  0  0  0  0  0  0  0  0
    3.7267   -6.9230    0.0000 C   0  0  0  0  0  0  0  0  0  0  0  0
    3.0122   -7.3355    0.0000 C   0  0  0  0  0  0  0  0  0  0  0  0
    2.2977   -6.9230    0.0000 O   0  0  0  0  0  0  0  0  0  0  0  0
    6.5846   -6.9230    0.0000 C   0  0  0  0  0  0  0  0  0  0  0  0
    7.2990   -7.3355    0.0000 C   0  0  0  0  0  0  0  0  0  0  0  0
    8.0135   -6.9230    0.0000 C   0  0  0  0  0  0  0  0  0  0  0  0
    8.7280   -7.3355    0.0000 C   0  0  0  0  0  0  0  0  0  0  0  0
    9.4424   -6.9230    0.0000 C   0  0  0  0  0  0  0  0  0  0  0  0
   10.1569   -7.3355    0.0000 C   0  0  0  0  0  0  0  0  0  0  0  0
   13.7293   -6.9230    0.0000 C   0  0  0  0  0  0  0  0  0  0  0  0
   13.0148   -7.3355    0.0000 C   0  0  0  0  0  0  0  0  0  0  0  0
   12.3003   -6.9230    0.0000 C   0  0  0  0  0  0  0  0  0  0  0  0
   11.5859   -7.3355    0.0000 C   0  0  0  0  0  0  0  0  0  0  0  0
   10.8714   -6.9230    0.0000 C   0  0  0  0  0  0  0  0  0  0  0  0
  6  1  2  0  0  0  0
  3  2  1  0  0  0  0
  4  3  1  0  0  0  0
  5  4  1  0  0  0  0
  6  5  1  0  0  0  0
  7  6  1  0  0  0  0
  2  8  1  0  0  0  0
  8  9  1  0  0  0  0
  9 10  1  0  0  0  0
 10 11  1  0  0  0  0
 11 12  1  0  0  0  0
 12 13  1  0  0  0  0
 15 14  1  0  0  0  0
 13 18  2  0  0  0  0
 16 15  1  0  0  0  0
 17 16  1  0  0  0  0
 18 17  1  0  0  0  0
M  END
>  <cdx:fragmentId>
7310

$$$$
