31241.cdx
  Mrv1902 05222410242D          

  9  8  0  0  0  0            999 V2000
    6.1720   -3.7105    0.0000 C   0  0  0  0  0  0  0  0  0  0  0  0
    5.4575   -3.2980    0.0000 C   0  0  0  0  0  0  0  0  0  0  0  0
    4.7431   -3.7105    0.0000 C   0  0  0  0  0  0  0  0  0  0  0  0
    4.0286   -3.2980    0.0000 C   0  0  0  0  0  0  0  0  0  0  0  0
    3.3141   -3.7105    0.0000 C   0  0  0  0  0  0  0  0  0  0  0  0
    2.5996   -3.2980    0.0000 C   0  0  0  0  0  0  0  0  0  0  0  0
    6.8865   -3.2980    0.0000 O   0  0  0  0  0  0  0  0  0  0  0  0
    5.4575   -2.4730    0.0000 C   0  0  0  0  0  0  0  0  0  0  0  0
    6.1720   -2.0605    0.0000 C   0  0  0  0  0  0  0  0  0  0  0  0
  1  2  1  0  0  0  0
  2  3  1  0  0  0  0
  3  4  1  0  0  0  0
  4  5  1  0  0  0  0
  5  6  1  0  0  0  0
  1  7  2  0  0  0  0
  8  9  1  0  0  0  0
  2  8  1  0  0  0  0
M  END
>  <cdx:groupId>
28

>  <cdx:fragmentId>
5

$$$$
