31242.cdx
  Mrv1902 05222410232D          

  9  9  0  0  0  0            999 V2000
    3.8999   -2.5710    0.0000 C   0  0  0  0  0  0  0  0  0  0  0  0
    4.6144   -2.1585    0.0000 C   0  0  0  0  0  0  0  0  0  0  0  0
    5.3288   -2.5710    0.0000 C   0  0  0  0  0  0  0  0  0  0  0  0
    5.3288   -3.3960    0.0000 C   0  0  0  0  0  0  0  0  0  0  0  0
    4.6144   -3.8085    0.0000 C   0  0  0  0  0  0  0  0  0  0  0  0
    3.8999   -3.3960    0.0000 C   0  0  0  0  0  0  0  0  0  0  0  0
    3.1854   -2.1585    0.0000 O   0  0  0  0  0  0  0  0  0  0  0  0
    6.0433   -3.8085    0.0000 C   0  0  0  0  0  0  0  0  0  0  0  0
    6.7578   -3.3960    0.0000 C   0  0  0  0  0  0  0  0  0  0  0  0
  1  2  1  0  0  0  0
  2  3  2  0  0  0  0
  3  4  1  0  0  0  0
  4  5  2  0  0  0  0
  5  6  1  0  0  0  0
  1  6  2  0  0  0  0
  1  7  1  0  0  0  0
  8  9  1  0  0  0  0
  4  8  1  0  0  0  0
M  END
>  <cdx:groupId>
29

>  <cdx:fragmentId>
5

$$$$
