312412.cdx
  Mrv1902 05222410192D          

 15 14  0  0  0  0            999 V2000
    6.3339   -6.5105    0.0000 C   0  0  0  0  0  0  0  0  0  0  0  0
    6.3339   -7.3355    0.0000 C   0  0  0  0  0  0  0  0  0  0  0  0
    5.6194   -7.7480    0.0000 C   0  0  0  0  0  0  0  0  0  0  0  0
    5.6194   -8.5730    0.0000 C   0  0  0  0  0  0  0  0  0  0  0  0
    4.9049   -8.9855    0.0000 C   0  0  0  0  0  0  0  0  0  0  0  0
    4.9049   -9.8105    0.0000 C   0  0  0  0  0  0  0  0  0  0  0  0
    9.9062   -6.0980    0.0000 C   0  0  0  0  0  0  0  0  0  0  0  0
    9.1918   -6.5105    0.0000 C   0  0  0  0  0  0  0  0  0  0  0  0
    8.4773   -6.0980    0.0000 O   0  0  0  0  0  0  0  0  0  0  0  0
    7.7628   -6.5105    0.0000 C   0  0  0  0  0  0  0  0  0  0  0  0
    7.0484   -6.0980    0.0000 C   0  0  0  0  0  0  0  0  0  0  0  0
    9.1918   -7.3355    0.0000 O   0  0  0  0  0  0  0  0  0  0  0  0
   10.6207   -6.5105    0.0000 C   0  0  0  0  0  0  0  0  0  0  0  0
    4.1905   -8.5730    0.0000 C   0  0  0  0  0  0  0  0  0  0  0  0
    5.6194   -6.0980    0.0000 C   0  0  0  0  0  0  0  0  0  0  0  0
  1  2  1  0  0  0  0
  2  3  1  0  0  0  0
  3  4  1  0  0  0  0
  4  5  2  0  0  0  0
  5  6  1  0  0  0  0
  7  8  1  0  0  0  0
  8  9  1  0  0  0  0
  9 10  1  0  0  0  0
 10 11  1  0  0  0  0
 11  1  2  0  0  0  0
  8 12  2  0  0  0  0
  7 13  1  0  0  0  0
  5 14  1  0  0  0  0
  1 15  1  0  0  0  0
M  END
>  <cdx:fragmentId>
7310

$$$$
