31246.cdx
  Mrv1902 05222410252D          

  8  7  0  0  0  0            999 V2000
    3.0500   -3.6022    0.0000 C   0  0  0  0  0  0  0  0  0  0  0  0
    3.7644   -3.1897    0.0000 C   0  0  0  0  0  0  0  0  0  0  0  0
    4.4789   -3.6022    0.0000 C   0  0  0  0  0  0  0  0  0  0  0  0
    5.1934   -3.1897    0.0000 C   0  0  0  0  0  0  0  0  0  0  0  0
    5.9078   -3.6022    0.0000 C   0  0  0  0  0  0  0  0  0  0  0  0
    6.6223   -3.1897    0.0000 C   0  0  0  0  0  0  0  0  0  0  0  0
    7.3368   -3.6022    0.0000 C   0  0  0  0  0  0  0  0  0  0  0  0
    5.1934   -2.3647    0.0000 O   0  0  0  0  0  0  0  0  0  0  0  0
  1  2  1  0  0  0  0
  2  3  1  0  0  0  0
  3  4  1  0  0  0  0
  4  5  1  0  0  0  0
  5  6  1  0  0  0  0
  6  7  1  0  0  0  0
  4  8  2  0  0  0  0
M  END
>  <cdx:groupId>
25

>  <cdx:fragmentId>
5

$$$$
