312495.cdx
  Mrv1902 05222410232D          

 20 19  0  0  0  0            999 V2000
   11.2557   -9.9249    0.0000 C   0  0  0  0  0  0  0  0  0  0  0  0
   11.9702  -10.3374    0.0000 C   0  0  0  0  0  0  0  0  0  0  0  0
   11.9702  -11.1624    0.0000 C   0  0  0  0  0  0  0  0  0  0  0  0
   12.6847  -11.5749    0.0000 C   0  0  0  0  0  0  0  0  0  0  0  0
   12.6847  -12.3999    0.0000 C   0  0  0  0  0  0  0  0  0  0  0  0
    3.3965  -11.1624    0.0000 O   0  0  0  0  0  0  0  0  0  0  0  0
    4.1110  -12.3999    0.0000 O   0  0  0  0  0  0  0  0  0  0  0  0
   11.2557   -9.0999    0.0000 C   0  0  0  0  0  0  0  0  0  0  0  0
   10.5413   -8.6874    0.0000 C   0  0  0  0  0  0  0  0  0  0  0  0
    9.8268   -9.0999    0.0000 C   0  0  0  0  0  0  0  0  0  0  0  0
    9.1123   -8.6874    0.0000 C   0  0  0  0  0  0  0  0  0  0  0  0
    8.3979   -9.0999    0.0000 C   0  0  0  0  0  0  0  0  0  0  0  0
    8.3979   -9.9249    0.0000 C   0  0  0  0  0  0  0  0  0  0  0  0
    7.6834  -10.3374    0.0000 C   0  0  0  0  0  0  0  0  0  0  0  0
    7.6834  -11.1624    0.0000 C   0  0  0  0  0  0  0  0  0  0  0  0
    6.9689  -11.5749    0.0000 C   0  0  0  0  0  0  0  0  0  0  0  0
    6.2544  -11.1624    0.0000 C   0  0  0  0  0  0  0  0  0  0  0  0
    5.5399  -11.5749    0.0000 C   0  0  0  0  0  0  0  0  0  0  0  0
    4.8254  -11.1624    0.0000 C   0  0  0  0  0  0  0  0  0  0  0  0
    4.1110  -11.5749    0.0000 C   0  0  0  0  0  0  0  0  0  0  0  0
 20  6  1  0  0  0  0
 20  7  2  0  0  0  0
  8  1  1  0  0  0  0
  9  8  2  0  0  0  0
 10  9  1  0  0  0  0
 11 10  1  0  0  0  0
 12 11  2  0  0  0  0
 13 12  1  0  0  0  0
 14 13  1  0  0  0  0
 15 14  1  0  0  0  0
 16 15  2  0  0  0  0
 17 16  1  0  0  0  0
 18 17  1  0  0  0  0
 19 18  1  0  0  0  0
 20 19  1  0  0  0  0
  1  2  1  0  0  0  0
  2  3  1  0  0  0  0
  3  4  1  0  0  0  0
  4  5  1  0  0  0  0
M  END
>  <cdx:fragmentId>
1721

$$$$
