31244.cdx
  Mrv1902 05222410252D          

 10 10  0  0  0  0            999 V2000
    5.4501   -4.4479    0.0000 C   0  0  0  0  0  0  0  0  0  0  0  0
    4.7357   -4.0354    0.0000 C   0  0  0  0  0  0  0  0  0  0  0  0
    4.0212   -4.4479    0.0000 C   0  0  0  0  0  0  0  0  0  0  0  0
    3.3067   -4.0354    0.0000 C   0  0  0  0  0  0  0  0  0  0  0  0
    3.3067   -3.2104    0.0000 C   0  0  0  0  0  0  0  0  0  0  0  0
    4.0212   -2.7979    0.0000 C   0  0  0  0  0  0  0  0  0  0  0  0
    4.7357   -3.2104    0.0000 C   0  0  0  0  0  0  0  0  0  0  0  0
    6.1646   -4.0354    0.0000 O   0  0  0  0  0  0  0  0  0  0  0  0
    2.5922   -2.7979    0.0000 O   0  0  0  0  0  0  0  0  0  0  0  0
    1.8778   -3.2104    0.0000 C   0  0  0  0  0  0  0  0  0  0  0  0
  1  2  1  0  0  0  0
  2  3  1  0  0  0  0
  3  4  2  0  0  0  0
  4  5  1  0  0  0  0
  5  6  2  0  0  0  0
  6  7  1  0  0  0  0
  2  7  2  0  0  0  0
  1  8  2  0  0  0  0
  9 10  1  0  0  0  0
  5  9  1  0  0  0  0
M  END
>  <cdx:groupId>
32

>  <cdx:fragmentId>
5

$$$$
