31245.cdx
  Mrv1902 05222410242D          

  7  6  0  0  0  0            999 V2000
    6.5383   -5.9273    0.0000 C   0  0  0  0  0  0  0  0  0  0  0  0
    5.1094   -5.1023    0.0000 O   0  0  0  0  0  0  0  0  0  0  0  0
    8.6817   -4.6898    0.0000 C   0  0  0  0  0  0  0  0  0  0  0  0
    7.9673   -5.1023    0.0000 C   0  0  0  0  0  0  0  0  0  0  0  0
    7.2528   -4.6898    0.0000 C   0  0  0  0  0  0  0  0  0  0  0  0
    6.5383   -5.1023    0.0000 C   0  0  0  0  0  0  0  0  0  0  0  0
    5.8239   -4.6898    0.0000 C   0  0  0  0  0  0  0  0  0  0  0  0
  6  1  1  0  0  0  0
  7  2  2  0  0  0  0
  4  3  1  0  0  0  0
  5  4  1  0  0  0  0
  6  5  1  0  0  0  0
  7  6  1  0  0  0  0
M  END
>  <cdx:groupId>
22

>  <cdx:fragmentId>
5

$$$$
