5312554.cdx
  Mrv1902 05222410262D          

 24 23  0  0  0  0            999 V2000
    5.0261  -12.5606    0.0000 O   0  0  0  0  0  0  0  0  0  0  0  0
    5.7406  -12.9731    0.0000 C   0  0  0  0  0  0  0  0  0  0  0  0
    6.4551  -12.5606    0.0000 C   0  0  0  0  0  0  0  0  0  0  0  0
    7.1695  -12.9731    0.0000 C   0  0  0  0  0  0  0  0  0  0  0  0
    7.8840  -12.5606    0.0000 C   0  0  0  0  0  0  0  0  0  0  0  0
    8.5985  -12.9731    0.0000 C   0  0  0  0  0  0  0  0  0  0  0  0
    9.3130  -12.5606    0.0000 C   0  0  0  0  0  0  0  0  0  0  0  0
   10.0274  -12.9731    0.0000 C   0  0  0  0  0  0  0  0  0  0  0  0
   10.7419  -12.5606    0.0000 C   0  0  0  0  0  0  0  0  0  0  0  0
   11.4564  -12.9731    0.0000 C   0  0  0  0  0  0  0  0  0  0  0  0
   12.1708  -12.5606    0.0000 C   0  0  0  0  0  0  0  0  0  0  0  0
   12.8853  -12.9731    0.0000 C   0  0  0  0  0  0  0  0  0  0  0  0
   13.5998  -12.5606    0.0000 C   0  0  0  0  0  0  0  0  0  0  0  0
   14.3143  -12.9731    0.0000 C   0  0  0  0  0  0  0  0  0  0  0  0
    5.7406  -13.7981    0.0000 O   0  0  0  0  0  0  0  0  0  0  0  0
   15.0287  -12.5606    0.0000 C   0  0  0  0  0  0  0  0  0  0  0  0
   15.0287  -11.7356    0.0000 C   0  0  0  0  0  0  0  0  0  0  0  0
   15.7432  -11.3231    0.0000 C   0  0  0  0  0  0  0  0  0  0  0  0
   15.7432  -10.4981    0.0000 C   0  0  0  0  0  0  0  0  0  0  0  0
   15.0287  -10.0856    0.0000 C   0  0  0  0  0  0  0  0  0  0  0  0
   15.0287   -9.2606    0.0000 C   0  0  0  0  0  0  0  0  0  0  0  0
   14.3143   -8.8481    0.0000 C   0  0  0  0  0  0  0  0  0  0  0  0
   14.3143   -8.0231    0.0000 C   0  0  0  0  0  0  0  0  0  0  0  0
   13.5998   -7.6106    0.0000 C   0  0  0  0  0  0  0  0  0  0  0  0
  1  2  1  0  0  0  0
  2  3  1  0  0  0  0
  3  4  1  0  0  0  0
  4  5  1  0  0  0  0
  5  6  1  0  0  0  0
  6  7  1  0  0  0  0
  7  8  1  0  0  0  0
  8  9  1  0  0  0  0
  9 10  1  0  0  0  0
 10 11  1  0  0  0  0
 11 12  1  0  0  0  0
 12 13  1  0  0  0  0
 13 14  1  0  0  0  0
  2 15  2  0  0  0  0
 14 16  2  0  0  0  0
 16 17  1  0  0  0  0
 17 18  1  0  0  0  0
 18 19  2  0  0  0  0
 19 20  1  0  0  0  0
 20 21  1  0  0  0  0
 21 22  1  0  0  0  0
 22 23  1  0  0  0  0
 23 24  1  0  0  0  0
M  END
>  <cdx:fragmentId>
1921

$$$$
