31253.cdx
  Mrv1902 05222410252D          

 10  9  0  0  0  0            999 V2000
    5.0444   -2.5804    0.0000 C   0  0  0  0  0  0  0  0  0  0  0  0
    5.7598   -2.1695    0.0000 C   0  0  0  0  0  0  0  0  0  0  0  0
    6.4734   -2.5836    0.0000 C   0  0  0  0  0  0  0  0  0  0  0  0
    7.1888   -2.1728    0.0000 C   0  0  0  0  0  0  0  0  0  0  0  0
    7.9023   -2.5869    0.0000 C   0  0  0  0  0  0  0  0  0  0  0  0
    8.6177   -2.1760    0.0000 C   0  0  0  0  0  0  0  0  0  0  0  0
    9.3312   -2.5901    0.0000 C   0  0  0  0  0  0  0  0  0  0  0  0
   10.0466   -2.1792    0.0000 C   0  0  0  0  0  0  0  0  0  0  0  0
    6.4715   -3.4086    0.0000 C   0  0  0  0  0  0  0  0  0  0  0  0
    9.3294   -3.4151    0.0000 C   0  0  0  0  0  0  0  0  0  0  0  0
  1  2  2  0  0  0  0
  2  3  1  0  0  0  0
  3  4  1  0  0  0  0
  4  5  1  0  0  0  0
  5  6  1  0  0  0  0
  6  7  2  0  0  0  0
  7  8  1  0  0  0  0
  3  9  2  0  0  0  0
  7 10  1  0  0  0  0
M  END
>  <cdx:fragmentId>
5

$$$$
