31252.cdx
  Mrv1902 05222410252D          

  8  8  0  0  0  0            999 V2000
    8.0391   -4.5312    0.0000 C   0  0  0  0  0  0  0  0  0  0  0  0
    8.0391   -5.3562    0.0000 C   0  0  0  0  0  0  0  0  0  0  0  0
    7.3246   -4.1187    0.0000 N   0  0  0  0  0  0  0  0  0  0  0  0
    7.3246   -5.7687    0.0000 N   0  0  0  0  0  0  0  0  0  0  0  0
    6.6102   -5.3562    0.0000 C   0  0  0  0  0  0  0  0  0  0  0  0
    6.6102   -4.5312    0.0000 C   0  0  0  0  0  0  0  0  0  0  0  0
    5.8957   -5.7687    0.0000 C   0  0  0  0  0  0  0  0  0  0  0  0
    8.7536   -4.1187    0.0000 C   0  0  0  0  0  0  0  0  0  0  0  0
  1  2  1  0  0  0  0
  1  3  2  0  0  0  0
  2  4  2  0  0  0  0
  4  5  1  0  0  0  0
  5  6  2  0  0  0  0
  3  6  1  0  0  0  0
  5  7  1  0  0  0  0
  1  8  1  0  0  0  0
M  END
>  <cdx:fragmentId>
5

$$$$
