312562.cdx
  Mrv1902 05222410192D          

 28 29  0  0  0  0            999 V2000
    5.7638   -6.8826    0.0000 C   0  0  0  0  0  0  0  0  0  0  0  0
    5.7638   -7.7076    0.0000 C   0  0  1  0  0  0  0  0  0  0  0  0
    6.4783   -8.1201    0.0000 C   0  0  0  0  0  0  0  0  0  0  0  0
    7.1928   -7.7076    0.0000 C   0  0  2  0  0  0  0  0  0  0  0  0
    7.1928   -6.8826    0.0000 C   0  0  0  0  0  0  0  0  0  0  0  0
    6.4783   -6.4701    0.0000 C   0  0  0  0  0  0  0  0  0  0  0  0
    7.9073   -6.4701    0.0000 C   0  0  1  0  0  0  0  0  0  0  0  0
    9.3362   -6.4701    0.0000 C   0  0  0  0  0  0  0  0  0  0  0  0
   10.0507   -6.0576    0.0000 C   0  0  0  0  0  0  0  0  0  0  0  0
    9.3362   -7.2951    0.0000 O   0  0  0  0  0  0  0  0  0  0  0  0
    8.6217   -6.0576    0.0000 C   0  0  0  0  0  0  0  0  0  0  0  0
    7.1928   -8.5326    0.0000 O   0  0  0  0  0  0  0  0  0  0  0  0
    5.0494   -8.1201    0.0000 O   0  0  0  0  0  0  0  0  0  0  0  0
    6.7690   -9.2404    0.0000 C   0  0  2  0  0  0  0  0  0  0  0  0
    5.9441   -9.2273    0.0000 O   0  0  0  0  0  0  0  0  0  0  0  0
    5.5202   -9.9351    0.0000 C   0  0  1  0  0  0  0  0  0  0  0  0
    5.9213  -10.6560    0.0000 C   0  0  2  0  0  0  0  0  0  0  0  0
    6.7462  -10.6692    0.0000 C   0  0  1  0  0  0  0  0  0  0  0  0
    7.1700   -9.9614    0.0000 C   0  0  1  0  0  0  0  0  0  0  0  0
    7.1472  -11.3901    0.0000 O   0  0  0  0  0  0  0  0  0  0  0  0
    4.6953   -9.9219    0.0000 C   0  0  0  0  0  0  0  0  0  0  0  0
    7.9949   -9.9745    0.0000 O   0  0  0  0  0  0  0  0  0  0  0  0
    5.4974  -11.3638    0.0000 O   0  0  0  0  0  0  0  0  0  0  0  0
    4.2828  -10.6364    0.0000 O   0  0  0  0  0  0  0  0  0  0  0  0
    6.0658   -5.7556    0.0000 C   0  0  0  0  0  0  0  0  0  0  0  0
    6.8908   -5.7556    0.0000 C   0  0  0  0  0  0  0  0  0  0  0  0
    7.9897   -7.9211    0.0000 C   0  0  0  0  0  0  0  0  0  0  0  0
    8.6217   -5.2326    0.0000 H   0  0  0  0  0  0  0  0  0  0  0  0
  1  2  1  0  0  0  0
  2  3  1  0  0  0  0
  3  4  1  0  0  0  0
  4  5  1  0  0  0  0
  5  6  1  0  0  0  0
  6  1  1  0  0  0  0
  5  7  2  0  0  0  0
  7 11  2  0  0  0  0
  8  9  1  0  0  0  0
 11  8  1  1  0  0  0
  8 10  2  0  0  0  0
  4 12  1  6  0  0  0
  2 13  1  1  0  0  0
 14 12  1  1  0  0  0
 14 15  1  0  0  0  0
 15 16  1  0  0  0  0
 16 17  1  0  0  0  0
 17 18  1  0  0  0  0
 18 19  1  0  0  0  0
 19 14  1  0  0  0  0
 18 20  1  1  0  0  0
 16 21  1  1  0  0  0
 19 22  1  6  0  0  0
 17 23  1  6  0  0  0
 21 24  1  0  0  0  0
  6 25  1  0  0  0  0
  6 26  1  0  0  0  0
  4 27  1  1  0  0  0
 11 28  1  6  0  0  0
M  END
>  <cdx:fragmentId>
47163

$$$$
