312688.cdx
  Mrv1902 05222410212D          

 20 19  0  0  0  0            999 V2000
    2.0825   -8.3571    0.0000 C   0  0  0  0  0  0  0  0  0  0  0  0
    2.7994   -8.7655    0.0000 C   0  0  0  0  0  0  0  0  0  0  0  0
    3.5114   -8.3489    0.0000 C   0  0  0  0  0  0  0  0  0  0  0  0
    4.2282   -8.7573    0.0000 C   0  0  0  0  0  0  0  0  0  0  0  0
    4.9404   -8.3407    0.0000 C   0  0  0  0  0  0  0  0  0  0  0  0
    5.6572   -8.7491    0.0000 C   0  0  0  0  0  0  0  0  0  0  0  0
    6.3693   -8.3325    0.0000 C   0  0  0  0  0  0  0  0  0  0  0  0
    7.0862   -8.7408    0.0000 C   0  0  0  0  0  0  0  0  0  0  0  0
    7.8030   -9.1492    0.0000 C   0  0  0  0  0  0  0  0  0  0  0  0
    8.5199   -9.5576    0.0000 C   0  0  0  0  0  0  0  0  0  0  0  0
    9.2405   -9.1558    0.0000 C   0  0  0  0  0  0  0  0  0  0  0  0
   10.6693   -9.1772    0.0000 C   0  0  0  0  0  0  0  0  0  0  0  0
   13.5269   -9.2203    0.0000 C   0  0  0  0  0  0  0  0  0  0  0  0
    1.3704   -8.7738    0.0000 C   0  0  0  0  0  0  0  0  0  0  0  0
    0.6536   -8.3654    0.0000 O   0  0  0  0  0  0  0  0  0  0  0  0
    1.3751   -9.5987    0.0000 O   0  0  0  0  0  0  0  0  0  0  0  0
   12.8062   -9.6220    0.0000 C   0  0  0  0  0  0  0  0  0  0  0  0
   12.0981   -9.1988    0.0000 C   0  0  0  0  0  0  0  0  0  0  0  0
   11.3775   -9.6005    0.0000 C   0  0  0  0  0  0  0  0  0  0  0  0
    9.9487   -9.5790    0.0000 C   0  0  0  0  0  0  0  0  0  0  0  0
 17 13  1  0  0  0  0
 18 17  1  0  0  0  0
 19 18  1  0  0  0  0
 20 12  1  0  0  0  0
  1  2  1  0  0  0  0
  2  3  1  0  0  0  0
  3  4  1  0  0  0  0
  4  5  1  0  0  0  0
  5  6  1  0  0  0  0
  6  7  1  0  0  0  0
  7  8  1  0  0  0  0
  8  9  3  0  0  0  0
  9 10  1  0  0  0  0
 10 11  2  0  0  0  0
 11 20  1  0  0  0  0
 12 19  1  0  0  0  0
  1 14  1  0  0  0  0
 14 15  1  0  0  0  0
 14 16  2  0  0  0  0
M  END
>  <cdx:fragmentId>
1922

$$$$
