31260.cdx
  Mrv1902 05222410212D          

  6  5  0  0  0  0            999 V2000
    4.0096   -2.6881    0.0000 C   0  0  0  0  0  0  0  0  0  0  0  0
    4.7241   -3.1006    0.0000 C   0  0  0  0  0  0  0  0  0  0  0  0
    5.4386   -2.6881    0.0000 C   0  0  0  0  0  0  0  0  0  0  0  0
    5.4386   -1.8631    0.0000 C   0  0  0  0  0  0  0  0  0  0  0  0
    3.2952   -3.1006    0.0000 O   0  0  0  0  0  0  0  0  0  0  0  0
    6.1531   -3.1006    0.0000 C   0  0  0  0  0  0  0  0  0  0  0  0
  1  2  1  0  0  0  0
  2  3  1  0  0  0  0
  3  4  1  0  0  0  0
  1  5  1  0  0  0  0
  3  6  1  0  0  0  0
M  END
>  <cdx:groupId>
19

>  <cdx:fragmentId>
5

$$$$
