31266.cdx
  Mrv1902 05222410232D          

 11 10  0  0  0  0            999 V2000
    5.7362   -3.3489    0.0000 C   0  0  0  0  0  0  0  0  0  0  0  0
    5.0218   -3.7614    0.0000 C   0  0  0  0  0  0  0  0  0  0  0  0
    4.3073   -3.3489    0.0000 C   0  0  0  0  0  0  0  0  0  0  0  0
    3.5928   -3.7614    0.0000 C   0  0  0  0  0  0  0  0  0  0  0  0
    2.8784   -3.3489    0.0000 C   0  0  0  0  0  0  0  0  0  0  0  0
    2.1639   -3.7614    0.0000 C   0  0  0  0  0  0  0  0  0  0  0  0
    5.7362   -2.5239    0.0000 O   0  0  0  0  0  0  0  0  0  0  0  0
    6.4507   -3.7614    0.0000 O   0  0  0  0  0  0  0  0  0  0  0  0
    7.1652   -3.3489    0.0000 C   0  0  0  0  0  0  0  0  0  0  0  0
    7.8796   -3.7614    0.0000 C   0  0  0  0  0  0  0  0  0  0  0  0
    8.5941   -3.3489    0.0000 C   0  0  0  0  0  0  0  0  0  0  0  0
  1  2  1  0  0  0  0
  2  3  1  0  0  0  0
  3  4  1  0  0  0  0
  4  5  1  0  0  0  0
  5  6  1  0  0  0  0
  1  7  2  0  0  0  0
  1  8  1  0  0  0  0
  9 10  1  0  0  0  0
 10 11  2  0  0  0  0
  8  9  1  0  0  0  0
M  END
>  <cdx:groupId>
34

>  <cdx:fragmentId>
5

$$$$
