31261.cdx
  Mrv1902 05222410212D          

  7  6  0  0  0  0            999 V2000
    3.0013   -2.8185    0.0000 C   0  0  0  0  0  0  0  0  0  0  0  0
    3.7158   -2.4060    0.0000 C   0  0  0  0  0  0  0  0  0  0  0  0
    4.4302   -2.8185    0.0000 C   0  0  0  0  0  0  0  0  0  0  0  0
    5.1447   -2.4060    0.0000 C   0  0  0  0  0  0  0  0  0  0  0  0
    5.8592   -2.8185    0.0000 C   0  0  0  0  0  0  0  0  0  0  0  0
    3.7158   -1.5810    0.0000 O   0  0  0  0  0  0  0  0  0  0  0  0
    5.1447   -1.5810    0.0000 O   0  0  0  0  0  0  0  0  0  0  0  0
  1  2  1  0  0  0  0
  2  3  1  0  0  0  0
  3  4  1  0  0  0  0
  4  5  1  0  0  0  0
  2  6  2  0  0  0  0
  4  7  2  0  0  0  0
M  END
>  <cdx:groupId>
22

>  <cdx:fragmentId>
5

$$$$
