31263.cdx
  Mrv1902 05222410212D          

  9  8  0  0  0  0            999 V2000
    7.9016   -4.6758    0.0000 C   0  0  0  0  0  0  0  0  0  0  0  0
    8.6161   -5.0883    0.0000 C   0  0  0  0  0  0  0  0  0  0  0  0
    9.3305   -4.6758    0.0000 C   0  0  0  0  0  0  0  0  0  0  0  0
    7.9016   -3.8508    0.0000 O   0  0  0  0  0  0  0  0  0  0  0  0
    6.4727   -4.6758    0.0000 C   0  0  0  0  0  0  0  0  0  0  0  0
    5.7582   -5.0883    0.0000 C   0  0  0  0  0  0  0  0  0  0  0  0
    5.0437   -4.6758    0.0000 C   0  0  0  0  0  0  0  0  0  0  0  0
    6.4727   -3.8508    0.0000 O   0  0  0  0  0  0  0  0  0  0  0  0
    7.1871   -5.0883    0.0000 O   0  0  0  0  0  0  0  0  0  0  0  0
  1  2  1  0  0  0  0
  2  3  1  0  0  0  0
  1  4  2  0  0  0  0
  5  6  1  0  0  0  0
  6  7  1  0  0  0  0
  5  8  2  0  0  0  0
  5  9  1  0  0  0  0
  1  9  1  0  0  0  0
M  END
>  <cdx:fragmentId>
13

$$$$
