31272.cdx
  Mrv1902 05222410232D          

  8  7  0  0  0  0            999 V2000
    5.5519   -3.1908    0.0000 C   0  0  0  0  0  0  0  0  0  0  0  0
    4.8375   -3.6033    0.0000 C   0  0  0  0  0  0  0  0  0  0  0  0
    5.5519   -2.3658    0.0000 O   0  0  0  0  0  0  0  0  0  0  0  0
    6.2664   -3.6033    0.0000 O   0  0  0  0  0  0  0  0  0  0  0  0
    6.9809   -3.1908    0.0000 C   0  0  0  0  0  0  0  0  0  0  0  0
    7.6953   -3.6033    0.0000 C   0  0  0  0  0  0  0  0  0  0  0  0
    8.4098   -3.1908    0.0000 C   0  0  0  0  0  0  0  0  0  0  0  0
    9.1243   -3.6033    0.0000 C   0  0  0  0  0  0  0  0  0  0  0  0
  1  2  1  0  0  0  0
  1  3  2  0  0  0  0
  1  4  1  0  0  0  0
  5  6  1  0  0  0  0
  6  7  1  0  0  0  0
  7  8  1  0  0  0  0
  4  5  1  0  0  0  0
M  END
>  <cdx:fragmentId>
13

$$$$
