312731.cdx
  Mrv1902 05222410252D          

 22 23  0  0  0  0            999 V2000
    4.9500  -12.8970    0.0000 C   0  0  0  0  0  0  0  0  0  0  0  0
    5.3625  -12.1825    0.0000 C   0  0  0  0  0  0  0  0  0  0  0  0
    6.1285  -12.1857    0.0000 C   0  0  0  0  0  0  0  0  0  0  0  0
    6.1285  -11.3607    0.0000 C   0  0  0  0  0  0  0  0  0  0  0  0
    6.8430  -10.9482    0.0000 C   0  0  0  0  0  0  0  0  0  0  0  0
    6.1285  -13.0107    0.0000 O   0  0  0  0  0  0  0  0  0  0  0  0
    6.9535  -12.1857    0.0000 C   0  0  0  0  0  0  0  0  0  0  0  0
    6.8430  -10.1232    0.0000 C   0  0  1  0  0  0  0  0  0  0  0  0
    6.1285   -9.7107    0.0000 C   0  0  0  0  0  0  0  0  0  0  0  0
    6.1285   -8.8857    0.0000 C   0  0  0  0  0  0  0  0  0  0  0  0
    6.8430   -8.4732    0.0000 C   0  0  0  0  0  0  0  0  0  0  0  0
    7.5574   -8.8857    0.0000 C   0  0  1  0  0  0  0  0  0  0  0  0
    8.2719   -8.4732    0.0000 C   0  0  0  0  0  0  0  0  0  0  0  0
    8.9864   -8.8857    0.0000 C   0  0  0  0  0  0  0  0  0  0  0  0
    8.9864   -9.7107    0.0000 C   0  0  0  0  0  0  0  0  0  0  0  0
    8.2719  -10.1232    0.0000 C   0  0  0  0  0  0  0  0  0  0  0  0
    7.5574   -9.7107    0.0000 C   0  0  2  0  0  0  0  0  0  0  0  0
    5.4140  -10.1232    0.0000 C   0  0  0  0  0  0  0  0  0  0  0  0
    7.5574  -10.5357    0.0000 C   0  0  0  0  0  0  0  0  0  0  0  0
    7.8594   -7.7587    0.0000 C   0  0  0  0  0  0  0  0  0  0  0  0
    8.6844   -7.7587    0.0000 C   0  0  0  0  0  0  0  0  0  0  0  0
    7.5574   -8.0607    0.0000 H   0  0  0  0  0  0  0  0  0  0  0  0
  1  2  2  0  0  0  0
  2  3  1  0  0  0  0
  3  4  1  0  0  0  0
  4  5  1  0  0  0  0
  3  6  1  1  0  0  0
  3  7  1  0  0  0  0
  8  9  1  0  0  0  0
  9 10  1  0  0  0  0
 10 11  1  0  0  0  0
 11 12  1  0  0  0  0
 12 13  1  0  0  0  0
 13 14  1  0  0  0  0
 14 15  1  0  0  0  0
 15 16  1  0  0  0  0
 16 17  1  0  0  0  0
  8 17  1  0  0  0  0
 12 17  1  0  0  0  0
  9 18  2  0  0  0  0
 17 19  1  1  0  0  0
 13 20  1  0  0  0  0
 13 21  1  0  0  0  0
  8  5  1  1  0  0  0
 12 22  1  6  0  0  0
M  END
>  <cdx:groupId>
33165

>  <cdx:fragmentId>
33115

$$$$
