31284.cdx
  Mrv1902 05222410252D          

 17 16  0  0  0  0            999 V2000
    1.8355   -4.5555    0.0000 C   0  0  0  0  0  0  0  0  0  0  0  0
    2.5499   -4.1430    0.0000 O   0  0  0  0  0  0  0  0  0  0  0  0
    3.2644   -5.3805    0.0000 O   0  0  0  0  0  0  0  0  0  0  0  0
   12.5525   -4.1430    0.0000 C   0  0  0  0  0  0  0  0  0  0  0  0
   11.8381   -4.5555    0.0000 C   0  0  0  0  0  0  0  0  0  0  0  0
   11.1236   -4.1430    0.0000 C   0  0  0  0  0  0  0  0  0  0  0  0
   10.4091   -4.5555    0.0000 C   0  0  0  0  0  0  0  0  0  0  0  0
    9.6946   -4.1430    0.0000 C   0  0  0  0  0  0  0  0  0  0  0  0
    8.9802   -4.5555    0.0000 C   0  0  0  0  0  0  0  0  0  0  0  0
    8.2657   -4.1430    0.0000 C   0  0  0  0  0  0  0  0  0  0  0  0
    7.5512   -4.5555    0.0000 C   0  0  0  0  0  0  0  0  0  0  0  0
    6.8368   -4.1430    0.0000 C   0  0  0  0  0  0  0  0  0  0  0  0
    6.1223   -4.5555    0.0000 C   0  0  0  0  0  0  0  0  0  0  0  0
    5.4078   -4.1430    0.0000 C   0  0  0  0  0  0  0  0  0  0  0  0
    4.6934   -4.5555    0.0000 C   0  0  0  0  0  0  0  0  0  0  0  0
    3.9789   -4.1430    0.0000 C   0  0  0  0  0  0  0  0  0  0  0  0
    3.2644   -4.5555    0.0000 C   0  0  0  0  0  0  0  0  0  0  0  0
  2  1  1  0  0  0  0
 17  2  1  0  0  0  0
 17  3  2  0  0  0  0
  5  4  1  0  0  0  0
  6  5  1  0  0  0  0
  7  6  1  0  0  0  0
  8  7  1  0  0  0  0
  9  8  1  0  0  0  0
 10  9  1  0  0  0  0
 11 10  1  0  0  0  0
 12 11  1  0  0  0  0
 13 12  1  0  0  0  0
 14 13  1  0  0  0  0
 15 14  1  0  0  0  0
 16 15  1  0  0  0  0
 17 16  1  0  0  0  0
M  END
>  <cdx:fragmentId>
6

$$$$
