31286.cdx
  Mrv1902 05222410252D          

 11 11  0  0  0  0            999 V2000
    5.8855   -9.1850    0.0000 C   0  0  0  0  0  0  0  0  0  0  0  0
    5.8855  -10.0100    0.0000 C   0  0  0  0  0  0  0  0  0  0  0  0
    6.6000  -10.4225    0.0000 C   0  0  0  0  0  0  0  0  0  0  0  0
    7.3145  -10.0100    0.0000 C   0  0  0  0  0  0  0  0  0  0  0  0
    7.3145   -9.1850    0.0000 C   0  0  0  0  0  0  0  0  0  0  0  0
    6.6000   -8.7725    0.0000 C   0  0  0  0  0  0  0  0  0  0  0  0
    6.6000   -7.9475    0.0000 C   0  0  0  0  0  0  0  0  0  0  0  0
    5.8855   -7.5350    0.0000 O   0  0  0  0  0  0  0  0  0  0  0  0
    7.3145   -7.5350    0.0000 N   0  0  0  0  0  0  0  0  0  0  0  0
    7.3145   -6.7100    0.0000 O   0  0  0  0  0  0  0  0  0  0  0  0
    5.8855   -6.7100    0.0000 C   0  0  0  0  0  0  0  0  0  0  0  0
  1  2  2  0  0  0  0
  2  3  1  0  0  0  0
  3  4  2  0  0  0  0
  4  5  1  0  0  0  0
  5  6  2  0  0  0  0
  6  1  1  0  0  0  0
  6  7  1  0  0  0  0
  7  8  1  0  0  0  0
  7  9  2  0  0  0  0
  9 10  1  0  0  0  0
  8 11  1  0  0  0  0
M  END
>  <cdx:fragmentId>
82

$$$$
