31289.cdx
  Mrv1902 05222410202D          

 10  9  0  0  0  0            999 V2000
    2.9987   -5.2528    0.0000 C   0  0  0  0  0  0  0  0  0  0  0  0
    3.7131   -5.6653    0.0000 C   0  0  0  0  0  0  0  0  0  0  0  0
    4.4276   -5.2528    0.0000 C   0  0  0  0  0  0  0  0  0  0  0  0
    5.1421   -5.6653    0.0000 C   0  0  0  0  0  0  0  0  0  0  0  0
    5.8565   -5.2528    0.0000 C   0  0  0  0  0  0  0  0  0  0  0  0
    6.5710   -5.6653    0.0000 C   0  0  0  0  0  0  0  0  0  0  0  0
    7.2855   -5.2528    0.0000 C   0  0  0  0  0  0  0  0  0  0  0  0
    8.0000   -5.6653    0.0000 C   0  0  0  0  0  0  0  0  0  0  0  0
    8.7144   -5.2528    0.0000 C   0  0  0  0  0  0  0  0  0  0  0  0
    2.2842   -5.6653    0.0000 O   0  0  0  0  0  0  0  0  0  0  0  0
  1  2  1  0  0  0  0
  2  3  1  0  0  0  0
  3  4  1  0  0  0  0
  4  5  1  0  0  0  0
  5  6  1  0  0  0  0
  6  7  1  0  0  0  0
  7  8  1  0  0  0  0
  8  9  1  0  0  0  0
  1 10  2  0  0  0  0
M  END
>  <cdx:groupId>
31

>  <cdx:fragmentId>
5

$$$$
