31283.cdx
  Mrv1902 05222410242D          

 18 17  0  0  0  0            999 V2000
   10.4611   -3.2252    0.0000 C   0  0  0  0  0  0  0  0  0  0  0  0
    9.7466   -3.6377    0.0000 C   0  0  0  0  0  0  0  0  0  0  0  0
    9.0322   -3.2252    0.0000 C   0  0  0  0  0  0  0  0  0  0  0  0
    8.3177   -3.6377    0.0000 C   0  0  0  0  0  0  0  0  0  0  0  0
    7.6032   -3.2252    0.0000 C   0  0  0  0  0  0  0  0  0  0  0  0
    6.8888   -3.6377    0.0000 C   0  0  0  0  0  0  0  0  0  0  0  0
    6.1743   -3.2252    0.0000 C   0  0  0  0  0  0  0  0  0  0  0  0
    5.4598   -3.6377    0.0000 C   0  0  0  0  0  0  0  0  0  0  0  0
    4.7453   -3.2252    0.0000 C   0  0  0  0  0  0  0  0  0  0  0  0
    4.0309   -3.6377    0.0000 C   0  0  0  0  0  0  0  0  0  0  0  0
    3.3164   -3.2252    0.0000 C   0  0  0  0  0  0  0  0  0  0  0  0
    2.6019   -3.6377    0.0000 C   0  0  0  0  0  0  0  0  0  0  0  0
    1.8875   -3.2252    0.0000 C   0  0  0  0  0  0  0  0  0  0  0  0
    1.1730   -3.6377    0.0000 C   0  0  0  0  0  0  0  0  0  0  0  0
   10.4611   -2.4002    0.0000 O   0  0  0  0  0  0  0  0  0  0  0  0
   11.1756   -3.6377    0.0000 O   0  0  0  0  0  0  0  0  0  0  0  0
   11.8900   -3.2252    0.0000 C   0  0  0  0  0  0  0  0  0  0  0  0
   12.6045   -3.6377    0.0000 C   0  0  0  0  0  0  0  0  0  0  0  0
  1  2  1  0  0  0  0
  2  3  1  0  0  0  0
  3  4  1  0  0  0  0
  4  5  1  0  0  0  0
  5  6  1  0  0  0  0
  6  7  1  0  0  0  0
  7  8  1  0  0  0  0
  8  9  1  0  0  0  0
  9 10  1  0  0  0  0
 10 11  1  0  0  0  0
 11 12  1  0  0  0  0
 12 13  1  0  0  0  0
 13 14  1  0  0  0  0
  1 15  2  0  0  0  0
  1 16  1  0  0  0  0
 17 18  1  0  0  0  0
 16 17  1  0  0  0  0
M  END
>  <cdx:groupId>
55

>  <cdx:fragmentId>
5

$$$$
