3131.cdx
  Mrv1902 05222410182D          

 32 34  0  0  0  0            999 V2000
    8.1571   -7.3597    0.0000 O   0  0  0  0  0  0  0  0  0  0  0  0
    8.8715   -6.9472    0.0000 C   0  0  0  0  0  0  0  0  0  0  0  0
    9.5860   -7.3597    0.0000 C   0  0  0  0  0  0  0  0  0  0  0  0
   10.3005   -6.9472    0.0000 C   0  0  0  0  0  0  0  0  0  0  0  0
   10.3005   -6.1222    0.0000 C   0  0  0  0  0  0  0  0  0  0  0  0
    9.5860   -5.7097    0.0000 C   0  0  0  0  0  0  0  0  0  0  0  0
    8.8715   -6.1222    0.0000 C   0  0  0  0  0  0  0  0  0  0  0  0
    8.1571   -5.7097    0.0000 O   0  0  0  0  0  0  0  0  0  0  0  0
   11.0149   -5.7097    0.0000 C   0  0  0  0  0  0  0  0  0  0  0  0
   11.7294   -6.1222    0.0000 C   0  0  0  0  0  0  0  0  0  0  0  0
   12.4439   -5.7097    0.0000 C   0  0  0  0  0  0  0  0  0  0  0  0
    7.4472   -9.4257    0.0000 C   0  0  2  0  0  0  0  0  0  0  0  0
    8.1622   -9.8372    0.0000 C   0  0  2  0  0  0  0  0  0  0  0  0
    8.8761   -9.4237    0.0000 C   0  0  1  0  0  0  0  0  0  0  0  0
    8.8750   -8.5987    0.0000 C   0  0  2  0  0  0  0  0  0  0  0  0
    8.1600   -8.1872    0.0000 C   0  0  1  0  0  0  0  0  0  0  0  0
    7.4461   -8.6007    0.0000 O   0  0  0  0  0  0  0  0  0  0  0  0
    6.7333   -9.8392    0.0000 C   0  0  0  0  0  0  0  0  0  0  0  0
    9.5912   -9.8352    0.0000 O   0  0  0  0  0  0  0  0  0  0  0  0
    8.1634  -10.6622    0.0000 O   0  0  0  0  0  0  0  0  0  0  0  0
    9.5889   -8.1852    0.0000 O   0  0  0  0  0  0  0  0  0  0  0  0
    6.7345  -10.6642    0.0000 O   0  0  0  0  0  0  0  0  0  0  0  0
    4.5844  -11.0850    0.0000 C   0  0  1  0  0  0  0  0  0  0  0  0
    4.5839  -11.9100    0.0000 C   0  0  1  0  0  0  0  0  0  0  0  0
    5.2982  -12.3229    0.0000 C   0  0  2  0  0  0  0  0  0  0  0  0
    6.0129  -11.9108    0.0000 C   0  0  2  0  0  0  0  0  0  0  0  0
    6.0134  -11.0858    0.0000 C   0  0  1  0  0  0  0  0  0  0  0  0
    5.2992  -10.6729    0.0000 O   0  0  0  0  0  0  0  0  0  0  0  0
    3.8692  -12.3220    0.0000 O   0  0  0  0  0  0  0  0  0  0  0  0
    3.8702  -10.6720    0.0000 C   0  0  0  0  0  0  0  0  0  0  0  0
    5.2977  -13.1479    0.0000 O   0  0  0  0  0  0  0  0  0  0  0  0
    6.7271  -12.3238    0.0000 O   0  0  0  0  0  0  0  0  0  0  0  0
  1  2  1  0  0  0  0
  2  3  2  0  0  0  0
  3  4  1  0  0  0  0
  4  5  2  0  0  0  0
  5  6  1  0  0  0  0
  6  7  2  0  0  0  0
  7  2  1  0  0  0  0
  7  8  1  0  0  0  0
  5  9  1  0  0  0  0
  9 10  1  0  0  0  0
 10 11  2  0  0  0  0
 12 13  1  0  0  0  0
 13 14  1  0  0  0  0
 14 15  1  0  0  0  0
 15 16  1  0  0  0  0
 16 17  1  0  0  0  0
 17 12  1  0  0  0  0
 12 18  1  1  0  0  0
 14 19  1  1  0  0  0
 13 20  1  6  0  0  0
 15 21  1  6  0  0  0
 18 22  1  0  0  0  0
 23 24  1  0  0  0  0
 24 25  1  0  0  0  0
 25 26  1  0  0  0  0
 26 27  1  0  0  0  0
 27 28  1  0  0  0  0
 28 23  1  0  0  0  0
 24 29  1  1  0  0  0
 23 30  1  6  0  0  0
 25 31  1  6  0  0  0
 26 32  1  6  0  0  0
 27 22  1  1  0  0  0
 16  1  1  1  0  0  0
M  END
>  <cdx:fragmentId>
717

$$$$
