12313148.cdx
  Mrv1902 05222410242D          

 20 22  0  0  0  0            999 V2000
    8.5230  -14.0162    0.0000 C   0  0  0  0  0  0  0  0  0  0  0  0
    9.2374  -14.4287    0.0000 C   0  0  0  0  0  0  0  0  0  0  0  0
    9.2374  -15.2537    0.0000 C   0  0  0  0  0  0  0  0  0  0  0  0
    8.5230  -15.6662    0.0000 C   0  0  0  0  0  0  0  0  0  0  0  0
    7.8085  -15.2537    0.0000 C   0  0  0  0  0  0  0  0  0  0  0  0
    7.0940  -15.6662    0.0000 C   0  0  0  0  0  0  0  0  0  0  0  0
    6.3795  -15.2537    0.0000 C   0  0  0  0  0  0  0  0  0  0  0  0
    5.6651  -15.6662    0.0000 C   0  0  0  0  0  0  0  0  0  0  0  0
    4.9506  -15.2537    0.0000 C   0  0  0  0  0  0  0  0  0  0  0  0
    4.9506  -14.4287    0.0000 C   0  0  0  0  0  0  0  0  0  0  0  0
    5.6651  -14.0162    0.0000 C   0  0  0  0  0  0  0  0  0  0  0  0
    6.3795  -14.4287    0.0000 C   0  0  0  0  0  0  0  0  0  0  0  0
    7.0940  -14.0162    0.0000 C   0  0  0  0  0  0  0  0  0  0  0  0
    7.8085  -14.4287    0.0000 C   0  0  0  0  0  0  0  0  0  0  0  0
    7.0940  -13.1912    0.0000 O   0  0  0  0  0  0  0  0  0  0  0  0
    7.0940  -16.4912    0.0000 O   0  0  0  0  0  0  0  0  0  0  0  0
    4.2361  -15.6662    0.0000 C   0  0  0  0  0  0  0  0  0  0  0  0
    5.6651  -13.1912    0.0000 O   0  0  0  0  0  0  0  0  0  0  0  0
    9.9519  -14.0162    0.0000 O   0  0  0  0  0  0  0  0  0  0  0  0
    8.5230  -13.1912    0.0000 O   0  0  0  0  0  0  0  0  0  0  0  0
  1  2  1  0  0  0  0
  2  3  2  0  0  0  0
  3  4  1  0  0  0  0
  4  5  2  0  0  0  0
  5  6  1  0  0  0  0
  6  7  1  0  0  0  0
  7  8  1  0  0  0  0
  8  9  2  0  0  0  0
  9 10  1  0  0  0  0
 10 11  2  0  0  0  0
 11 12  1  0  0  0  0
  7 12  2  0  0  0  0
 12 13  1  0  0  0  0
 13 14  1  0  0  0  0
  5 14  1  0  0  0  0
  1 14  2  0  0  0  0
 13 15  2  0  0  0  0
  6 16  2  0  0  0  0
  9 17  1  0  0  0  0
 11 18  1  0  0  0  0
  2 19  1  0  0  0  0
  1 20  1  0  0  0  0
M  END
>  <cdx:groupId>
89928

>  <cdx:fragmentId>
89869

$$$$
