313549.cdx
  Mrv1902 05222410242D          

 25 28  0  0  0  0            999 V2000
    9.3831  -16.6430    0.0000 N   0  0  0  0  0  0  0  0  0  0  0  0
   10.0975  -16.2303    0.0000 C   0  0  0  0  0  0  0  0  0  0  0  0
   10.0977  -15.4053    0.0000 C   0  0  0  0  0  0  0  0  0  0  0  0
    9.3837  -14.9921    0.0000 C   0  0  0  0  0  0  0  0  0  0  0  0
    8.6692  -15.4046    0.0000 C   0  0  0  0  0  0  0  0  0  0  0  0
    7.9547  -14.9921    0.0000 C   0  0  0  0  0  0  0  0  0  0  0  0
    7.2403  -15.4046    0.0000 C   0  0  0  0  0  0  0  0  0  0  0  0
    7.2403  -16.2296    0.0000 C   0  0  0  0  0  0  0  0  0  0  0  0
    7.9547  -16.6421    0.0000 C   0  0  0  0  0  0  0  0  0  0  0  0
    8.6692  -16.2296    0.0000 C   0  0  2  0  0  0  0  0  0  0  0  0
    7.9547  -14.1671    0.0000 C   0  0  0  0  0  0  0  0  0  0  0  0
    8.6692  -13.7546    0.0000 C   0  0  0  0  0  0  0  0  0  0  0  0
    9.3837  -14.1671    0.0000 C   0  0  0  0  0  0  0  0  0  0  0  0
    6.5258  -16.6421    0.0000 C   0  0  0  0  0  0  0  0  0  0  0  0
    5.8113  -16.2296    0.0000 C   0  0  0  0  0  0  0  0  0  0  0  0
    5.8113  -15.4046    0.0000 C   0  0  0  0  0  0  0  0  0  0  0  0
    6.5258  -14.9921    0.0000 C   0  0  0  0  0  0  0  0  0  0  0  0
    6.5258  -14.1671    0.0000 O   0  0  0  0  0  0  0  0  0  0  0  0
    5.0969  -14.9921    0.0000 O   0  0  0  0  0  0  0  0  0  0  0  0
    4.3824  -15.4046    0.0000 C   0  0  0  0  0  0  0  0  0  0  0  0
    8.6692  -12.9296    0.0000 O   0  0  0  0  0  0  0  0  0  0  0  0
    9.3837  -12.5171    0.0000 C   0  0  0  0  0  0  0  0  0  0  0  0
    7.2403  -13.7546    0.0000 O   0  0  0  0  0  0  0  0  0  0  0  0
    7.2403  -12.9296    0.0000 C   0  0  0  0  0  0  0  0  0  0  0  0
    8.6692  -17.0546    0.0000 H   0  0  0  0  0  0  0  0  0  0  0  0
  1  2  1  0  0  0  0
  2  3  1  0  0  0  0
  3  4  1  0  0  0  0
  4  5  1  0  0  0  0
  5  6  2  0  0  0  0
  6  7  1  0  0  0  0
  7  8  1  0  0  0  0
  8  9  1  0  0  0  0
  9 10  1  0  0  0  0
  1 10  1  0  0  0  0
  5 10  1  0  0  0  0
 11 12  2  0  0  0  0
 12 13  1  0  0  0  0
 13  4  2  0  0  0  0
 11  6  1  0  0  0  0
 14 15  1  0  0  0  0
 15 16  2  0  0  0  0
 16 17  1  0  0  0  0
 17  7  2  0  0  0  0
 14  8  2  0  0  0  0
 17 18  1  0  0  0  0
 19 20  1  0  0  0  0
 16 19  1  0  0  0  0
 21 22  1  0  0  0  0
 12 21  1  0  0  0  0
 23 24  1  0  0  0  0
 11 23  1  0  0  0  0
 10 25  1  6  0  0  0
M  END
>  <cdx:fragmentId>
89936

$$$$
