31374.cdx
  Mrv1902 05222410182D          

  6  5  0  0  0  0            999 V2000
    7.1255   -5.2189    0.0000 C   0  0  0  0  0  0  0  0  0  0  0  0
    6.4110   -5.6314    0.0000 C   0  0  0  0  0  0  0  0  0  0  0  0
    7.1255   -4.3939    0.0000 O   0  0  0  0  0  0  0  0  0  0  0  0
    7.8400   -5.6314    0.0000 N   0  0  0  0  0  0  0  0  0  0  0  0
    8.5545   -5.2189    0.0000 C   0  0  0  0  0  0  0  0  0  0  0  0
    7.8400   -6.4564    0.0000 C   0  0  0  0  0  0  0  0  0  0  0  0
  1  2  1  0  0  0  0
  1  3  2  0  0  0  0
  1  4  1  0  0  0  0
  4  5  1  0  0  0  0
  4  6  1  0  0  0  0
M  END
>  <cdx:fragmentId>
5

$$$$
