313843.cdx
  Mrv1902 05222410272D          

 26 31  0  0  0  0            999 V2000
    7.7426   -8.6110    0.0000 C   0  0  0  0  0  0  0  0  0  0  0  0
    8.4577   -8.1996    0.0000 C   0  0  0  0  0  0  0  0  0  0  0  0
    9.1715   -8.6131    0.0000 C   0  0  0  0  0  0  0  0  0  0  0  0
    9.8866   -8.2017    0.0000 C   0  0  0  0  0  0  0  0  0  0  0  0
   10.6709   -8.4578    0.0000 O   0  0  0  0  0  0  0  0  0  0  0  0
   11.1568   -7.7911    0.0000 C   0  0  0  0  0  0  0  0  0  0  0  0
   10.6728   -7.1229    0.0000 O   0  0  0  0  0  0  0  0  0  0  0  0
    9.8878   -7.3767    0.0000 C   0  0  0  0  0  0  0  0  0  0  0  0
    9.1740   -6.9631    0.0000 C   0  0  0  0  0  0  0  0  0  0  0  0
    8.4589   -7.3746    0.0000 C   0  0  0  0  0  0  0  0  0  0  0  0
    7.7450   -6.9610    0.0000 C   0  0  0  0  0  0  0  0  0  0  0  0
    7.0299   -7.3725    0.0000 C   0  0  0  0  0  0  0  0  0  0  0  0
    7.0287   -8.1975    0.0000 C   0  0  0  0  0  0  0  0  0  0  0  0
    6.3136   -8.6089    0.0000 C   0  0  0  0  0  0  0  0  0  0  0  0
    5.5998   -8.1954    0.0000 C   0  0  0  0  0  0  0  0  0  0  0  0
    4.8847   -8.6068    0.0000 C   0  0  0  0  0  0  0  0  0  0  0  0
    4.8835   -9.4318    0.0000 C   0  0  0  0  0  0  0  0  0  0  0  0
    4.2696   -9.9830    0.0000 O   0  0  0  0  0  0  0  0  0  0  0  0
    4.6040  -10.7371    0.0000 C   0  0  0  0  0  0  0  0  0  0  0  0
    5.4246  -10.6521    0.0000 O   0  0  0  0  0  0  0  0  0  0  0  0
    5.5974   -9.8454    0.0000 C   0  0  0  0  0  0  0  0  0  0  0  0
    6.3124   -9.4339    0.0000 C   0  0  0  0  0  0  0  0  0  0  0  0
    7.0263   -9.8475    0.0000 C   0  0  0  0  0  0  0  0  0  0  0  0
    7.7414   -9.4360    0.0000 N   0  0  0  0  0  0  0  0  0  0  0  0
    7.0251  -10.6725    0.0000 O   0  0  0  0  0  0  0  0  0  0  0  0
    8.4552   -9.8496    0.0000 C   0  0  0  0  0  0  0  0  0  0  0  0
  1  2  1  0  0  0  0
  2  3  2  0  0  0  0
  3  4  1  0  0  0  0
  4  5  1  0  0  0  0
  5  6  1  0  0  0  0
  6  7  1  0  0  0  0
  7  8  1  0  0  0  0
  8  9  1  0  0  0  0
  9 10  2  0  0  0  0
 10 11  1  0  0  0  0
 11 12  2  0  0  0  0
 12 13  1  0  0  0  0
 13 14  1  0  0  0  0
 14 15  1  0  0  0  0
 15 16  2  0  0  0  0
 16 17  1  0  0  0  0
 17 18  1  0  0  0  0
 18 19  1  0  0  0  0
 19 20  1  0  0  0  0
 20 21  1  0  0  0  0
 21 22  1  0  0  0  0
 22 23  1  0  0  0  0
 23 24  1  0  0  0  0
  1 24  1  0  0  0  0
  1 13  2  0  0  0  0
 14 22  2  0  0  0  0
 17 21  2  0  0  0  0
  2 10  1  0  0  0  0
  4  8  2  0  0  0  0
 23 25  1  0  0  0  0
 24 26  1  0  0  0  0
M  END
>  <cdx:fragmentId>
105217

$$$$
