31404.cdx
  Mrv1902 05222410182D          

 16 16  0  0  0  0            999 V2000
    7.4209   -5.1296    0.0000 C   0  0  0  0  0  0  0  0  0  0  0  0
    8.1353   -5.5421    0.0000 C   0  0  0  0  0  0  0  0  0  0  0  0
    8.1353   -6.3671    0.0000 C   0  0  0  0  0  0  0  0  0  0  0  0
    7.4209   -6.7796    0.0000 C   0  0  0  0  0  0  0  0  0  0  0  0
    6.7064   -6.3671    0.0000 C   0  0  0  0  0  0  0  0  0  0  0  0
    6.7064   -5.5421    0.0000 C   0  0  0  0  0  0  0  0  0  0  0  0
    7.4209   -4.3046    0.0000 O   0  0  0  0  0  0  0  0  0  0  0  0
    7.4209   -7.6046    0.0000 C   0  0  0  0  0  0  0  0  0  0  0  0
    5.9919   -5.1296    0.0000 C   0  0  0  0  0  0  0  0  0  0  0  0
    5.2775   -4.7171    0.0000 C   0  0  0  0  0  0  0  0  0  0  0  0
    6.4044   -4.4151    0.0000 C   0  0  0  0  0  0  0  0  0  0  0  0
    5.5794   -5.8440    0.0000 C   0  0  0  0  0  0  0  0  0  0  0  0
    8.8498   -5.1296    0.0000 C   0  0  0  0  0  0  0  0  0  0  0  0
    8.4373   -4.4151    0.0000 C   0  0  0  0  0  0  0  0  0  0  0  0
    9.5643   -4.7171    0.0000 C   0  0  0  0  0  0  0  0  0  0  0  0
    9.2623   -5.8440    0.0000 C   0  0  0  0  0  0  0  0  0  0  0  0
  1  2  1  0  0  0  0
  2  3  2  0  0  0  0
  3  4  1  0  0  0  0
  4  5  2  0  0  0  0
  5  6  1  0  0  0  0
  1  6  2  0  0  0  0
  1  7  1  0  0  0  0
  4  8  1  0  0  0  0
  9 10  1  0  0  0  0
  9 12  1  0  0  0  0
  9 11  1  0  0  0  0
  6  9  1  0  0  0  0
 13 14  1  0  0  0  0
 13 16  1  0  0  0  0
 13 15  1  0  0  0  0
  2 13  1  0  0  0  0
M  END
>  <cdx:fragmentId>
5

$$$$
