12314367.cdx
  Mrv1902 05222410212D          

 21 23  0  0  0  0            999 V2000
    7.6007  -15.0474    0.0000 C   0  0  0  0  0  0  0  0  0  0  0  0
    7.6007  -14.2224    0.0000 C   0  0  0  0  0  0  0  0  0  0  0  0
    6.8863  -13.8099    0.0000 C   0  0  0  0  0  0  0  0  0  0  0  0
    6.1718  -14.2224    0.0000 C   0  0  0  0  0  0  0  0  0  0  0  0
    5.4573  -13.8099    0.0000 C   0  0  0  0  0  0  0  0  0  0  0  0
    4.7429  -14.2224    0.0000 C   0  0  0  0  0  0  0  0  0  0  0  0
    4.7429  -15.0474    0.0000 C   0  0  0  0  0  0  0  0  0  0  0  0
    5.4573  -15.4599    0.0000 C   0  0  0  0  0  0  0  0  0  0  0  0
    6.1718  -15.0474    0.0000 C   0  0  0  0  0  0  0  0  0  0  0  0
    6.8863  -15.4599    0.0000 O   0  0  0  0  0  0  0  0  0  0  0  0
    6.8863  -12.9849    0.0000 O   0  0  0  0  0  0  0  0  0  0  0  0
    4.0284  -15.4599    0.0000 O   0  0  0  0  0  0  0  0  0  0  0  0
    4.0284  -13.8099    0.0000 O   0  0  0  0  0  0  0  0  0  0  0  0
    8.3152  -15.4599    0.0000 C   0  0  0  0  0  0  0  0  0  0  0  0
    9.0297  -15.0474    0.0000 C   0  0  0  0  0  0  0  0  0  0  0  0
    9.7441  -15.4599    0.0000 C   0  0  0  0  0  0  0  0  0  0  0  0
    9.7441  -16.2849    0.0000 C   0  0  0  0  0  0  0  0  0  0  0  0
    9.0297  -16.6974    0.0000 C   0  0  0  0  0  0  0  0  0  0  0  0
    8.3152  -16.2849    0.0000 C   0  0  0  0  0  0  0  0  0  0  0  0
   10.4586  -16.6974    0.0000 O   0  0  0  0  0  0  0  0  0  0  0  0
   10.4586  -15.0474    0.0000 O   0  0  0  0  0  0  0  0  0  0  0  0
  1  2  1  0  0  0  0
  2  3  1  0  0  0  0
  3  4  1  0  0  0  0
  4  5  1  0  0  0  0
  5  6  2  0  0  0  0
  6  7  1  0  0  0  0
  7  8  2  0  0  0  0
  8  9  1  0  0  0  0
  4  9  2  0  0  0  0
  9 10  1  0  0  0  0
  1 10  1  0  0  0  0
  3 11  2  0  0  0  0
  7 12  1  0  0  0  0
  6 13  1  0  0  0  0
 14 15  1  0  0  0  0
 15 16  2  0  0  0  0
 16 17  1  0  0  0  0
 17 18  2  0  0  0  0
 18 19  1  0  0  0  0
 14 19  2  0  0  0  0
 17 20  1  0  0  0  0
 16 21  1  0  0  0  0
  1 14  1  0  0  0  0
M  END
>  <cdx:groupId>
90426

>  <cdx:fragmentId>
90364

$$$$
