314392.cdx
  Mrv1902 05222410232D          

 34 39  0  0  0  0            999 V2000
    7.0563   -9.5944    0.0000 C   0  0  0  0  0  0  0  0  0  0  0  0
    7.7677   -9.1768    0.0000 C   0  0  2  0  0  0  0  0  0  0  0  0
    8.5542   -9.4260    0.0000 C   0  0  0  0  0  0  0  0  0  0  0  0
    9.0343   -8.7551    0.0000 C   0  0  2  0  0  0  0  0  0  0  0  0
    9.8170   -8.4945    0.0000 O   0  0  0  0  0  0  0  0  0  0  0  0
    9.8111   -7.6695    0.0000 C   0  0  2  0  0  0  0  0  0  0  0  0
    9.0246   -7.4203    0.0000 C   0  0  2  0  0  0  0  0  0  0  0  0
    8.5445   -8.0912    0.0000 C   0  0  2  0  0  0  0  0  0  0  0  0
    7.7618   -8.3518    0.0000 C   0  0  1  0  0  0  0  0  0  0  0  0
    7.0444   -7.9444    0.0000 C   0  0  0  0  0  0  0  0  0  0  0  0
    6.3329   -8.3621    0.0000 C   0  0  0  0  0  0  0  0  0  0  0  0
    6.3388   -9.1871    0.0000 C   0  0  2  0  0  0  0  0  0  0  0  0
    5.6274   -9.6047    0.0000 C   0  0  1  0  0  0  0  0  0  0  0  0
    4.9099   -9.1974    0.0000 C   0  0  0  0  0  0  0  0  0  0  0  0
    4.1985   -9.6150    0.0000 C   0  0  0  0  0  0  0  0  0  0  0  0
    4.2044  -10.4400    0.0000 C   0  0  1  0  0  0  0  0  0  0  0  0
    4.9218  -10.8473    0.0000 C   0  0  0  0  0  0  0  0  0  0  0  0
    5.6333  -10.4297    0.0000 C   0  0  0  0  0  0  0  0  0  0  0  0
    6.3508  -10.8370    0.0000 C   0  0  0  0  0  0  0  0  0  0  0  0
    7.0622  -10.4194    0.0000 C   0  0  0  0  0  0  0  0  0  0  0  0
    9.7189   -6.8497    0.0000 O   0  0  0  0  0  0  0  0  0  0  0  0
   10.5672   -7.9996    0.0000 C   0  0  0  0  0  0  0  0  0  0  0  0
   11.2311   -7.5099    0.0000 C   0  0  0  0  0  0  0  0  0  0  0  0
   11.1389   -6.6901    0.0000 C   0  0  2  0  0  0  0  0  0  0  0  0
   10.3828   -6.3600    0.0000 C   0  0  0  0  0  0  0  0  0  0  0  0
    3.4929  -10.8577    0.0000 O   0  0  0  0  0  0  0  0  0  0  0  0
    5.6214   -8.7797    0.0000 C   0  0  0  0  0  0  0  0  0  0  0  0
    7.7618   -7.5268    0.0000 C   0  0  0  0  0  0  0  0  0  0  0  0
    8.7640   -6.6375    0.0000 C   0  0  0  0  0  0  0  0  0  0  0  0
   11.8028   -6.2003    0.0000 C   0  0  0  0  0  0  0  0  0  0  0  0
    9.5240   -9.4190    0.0000 H   0  0  0  0  0  0  0  0  0  0  0  0
    8.1775   -7.3523    0.0000 H   0  0  0  0  0  0  0  0  0  0  0  0
    6.3448  -10.0120    0.0000 H   0  0  0  0  0  0  0  0  0  0  0  0
    7.7737  -10.0017    0.0000 H   0  0  0  0  0  0  0  0  0  0  0  0
  1  2  1  0  0  0  0
  2  3  1  0  0  0  0
  3  4  1  0  0  0  0
  4  5  1  0  0  0  0
  6  5  1  6  0  0  0
  6  7  1  0  0  0  0
  7  8  1  0  0  0  0
  8  9  1  0  0  0  0
  9 10  1  0  0  0  0
 10 11  1  0  0  0  0
 11 12  1  0  0  0  0
 12 13  1  0  0  0  0
 13 14  1  0  0  0  0
 14 15  1  0  0  0  0
 15 16  1  0  0  0  0
 16 17  1  0  0  0  0
 17 18  1  0  0  0  0
 18 19  2  0  0  0  0
 19 20  1  0  0  0  0
  1 20  2  0  0  0  0
  1 12  1  0  0  0  0
 13 18  1  0  0  0  0
  2  9  1  0  0  0  0
  4  8  1  0  0  0  0
 22 23  1  0  0  0  0
 23 24  1  0  0  0  0
 24 25  1  0  0  0  0
 21 25  1  0  0  0  0
  6 21  1  0  0  0  0
  6 22  1  0  0  0  0
 16 26  1  1  0  0  0
 13 27  1  1  0  0  0
  9 28  1  1  0  0  0
  7 29  1  6  0  0  0
 24 30  1  6  0  0  0
  4 31  1  6  0  0  0
  8 32  1  6  0  0  0
 12 33  1  6  0  0  0
  2 34  1  6  0  0  0
M  END
>  <cdx:fragmentId>
139

$$$$
