314443.cdx
  Mrv1902 05222410262D          

 36 39  0  0  0  0            999 V2000
    4.4833  -10.4170    0.0000 C   0  0  0  0  0  0  0  0  0  0  0  0
    3.7688  -10.8295    0.0000 C   0  0  0  0  0  0  0  0  0  0  0  0
    3.7688  -11.6545    0.0000 C   0  0  0  0  0  0  0  0  0  0  0  0
    4.4833  -12.0670    0.0000 C   0  0  0  0  0  0  0  0  0  0  0  0
    5.1978  -11.6545    0.0000 C   0  0  2  0  0  0  0  0  0  0  0  0
    5.9122  -12.0670    0.0000 C   0  0  0  0  0  0  0  0  0  0  0  0
    6.6267  -11.6545    0.0000 C   0  0  0  0  0  0  0  0  0  0  0  0
    6.6267  -10.8295    0.0000 C   0  0  2  0  0  0  0  0  0  0  0  0
    7.3412  -10.4170    0.0000 C   0  0  1  0  0  0  0  0  0  0  0  0
    8.1258  -10.6719    0.0000 C   0  0  0  0  0  0  0  0  0  0  0  0
    8.6107  -10.0045    0.0000 C   0  0  0  0  0  0  0  0  0  0  0  0
    8.1258   -9.3371    0.0000 C   0  0  0  0  0  0  0  0  0  0  0  0
    7.3412   -9.5920    0.0000 C   0  0  0  0  0  0  0  0  0  0  0  0
    6.6267   -9.1795    0.0000 C   0  0  0  0  0  0  0  0  0  0  0  0
    5.9122   -9.5920    0.0000 C   0  0  1  0  0  0  0  0  0  0  0  0
    5.9122  -10.4170    0.0000 C   0  0  1  0  0  0  0  0  0  0  0  0
    5.1978  -10.8295    0.0000 C   0  0  1  0  0  0  0  0  0  0  0  0
    3.0544  -12.0670    0.0000 O   0  0  0  0  0  0  0  0  0  0  0  0
    7.8287   -7.9393    0.0000 C   0  0  0  0  0  0  0  0  0  0  0  0
    8.3807   -8.5524    0.0000 C   0  0  2  0  0  0  0  0  0  0  0  0
    9.1877   -8.3809    0.0000 C   0  0  0  0  0  0  0  0  0  0  0  0
    9.4427   -7.5963    0.0000 C   0  0  1  0  0  0  0  0  0  0  0  0
   10.2496   -7.4248    0.0000 C   0  0  1  0  0  0  0  0  0  0  0  0
   10.8017   -8.0379    0.0000 O   0  0  0  0  0  0  0  0  0  0  0  0
    8.8906   -6.9832    0.0000 O   0  0  0  0  0  0  0  0  0  0  0  0
    7.3412  -11.2420    0.0000 C   0  0  0  0  0  0  0  0  0  0  0  0
    5.1978  -10.0045    0.0000 C   0  0  0  0  0  0  0  0  0  0  0  0
    6.6267  -10.0045    0.0000 C   0  0  0  0  0  0  0  0  0  0  0  0
    4.8958  -12.7815    0.0000 C   0  0  0  0  0  0  0  0  0  0  0  0
    4.0708  -12.7815    0.0000 C   0  0  0  0  0  0  0  0  0  0  0  0
    5.1978   -9.1795    0.0000 O   0  0  0  0  0  0  0  0  0  0  0  0
    5.1978  -12.4795    0.0000 H   0  0  0  0  0  0  0  0  0  0  0  0
    5.9122  -11.2420    0.0000 H   0  0  0  0  0  0  0  0  0  0  0  0
   10.5046   -6.6401    0.0000 C   0  0  0  0  0  0  0  0  0  0  0  0
    9.9525   -6.0270    0.0000 C   0  0  0  0  0  0  0  0  0  0  0  0
   11.3115   -6.4686    0.0000 C   0  0  0  0  0  0  0  0  0  0  0  0
  1  2  1  0  0  0  0
  2  3  1  0  0  0  0
  3  4  1  0  0  0  0
  4  5  1  0  0  0  0
  5  6  1  0  0  0  0
  6  7  1  0  0  0  0
  7  8  1  0  0  0  0
  8  9  1  0  0  0  0
  9 10  1  0  0  0  0
 10 11  1  0  0  0  0
 11 12  1  0  0  0  0
 12 13  2  0  0  0  0
  9 13  1  0  0  0  0
 13 14  1  0  0  0  0
 14 15  1  0  0  0  0
 15 16  1  0  0  0  0
  8 16  1  0  0  0  0
 16 17  1  0  0  0  0
  5 17  1  0  0  0  0
  1 17  1  0  0  0  0
  3 18  2  0  0  0  0
 20 19  1  6  0  0  0
 20 21  1  0  0  0  0
 21 22  1  0  0  0  0
 22 23  1  0  0  0  0
 23 24  1  6  0  0  0
 22 25  1  6  0  0  0
 12 20  1  0  0  0  0
  9 26  1  1  0  0  0
 17 27  1  1  0  0  0
  8 28  1  6  0  0  0
  4 29  1  0  0  0  0
  4 30  1  0  0  0  0
 15 31  1  1  0  0  0
  5 32  1  6  0  0  0
 16 33  1  1  0  0  0
 23 34  1  0  0  0  0
 34 35  2  0  0  0  0
 34 36  1  0  0  0  0
M  END
>  <cdx:fragmentId>
114263

$$$$
