12314414.cdx
  Mrv1902 05222410222D          

 35 40  0  0  0  0            999 V2000
   15.8149  -10.0633    0.0000 C   0  0  1  0  0  0  0  0  0  0  0  0
   15.7038  -10.8810    0.0000 C   0  0  0  0  0  0  0  0  0  0  0  0
   16.1909  -11.5469    0.0000 C   0  0  0  0  0  0  0  0  0  0  0  0
   17.0035  -11.6893    0.0000 N   0  0  0  0  0  0  0  0  0  0  0  0
   17.6880  -11.2287    0.0000 C   0  0  0  0  0  0  0  0  0  0  0  0
   17.8622  -10.4223    0.0000 C   0  0  0  0  0  0  0  0  0  0  0  0
   18.4055   -9.8011    0.0000 C   0  0  0  0  0  0  0  0  0  0  0  0
   18.3947   -8.9761    0.0000 C   0  0  0  0  0  0  0  0  0  0  0  0
   17.8350   -8.3700    0.0000 O   0  0  0  0  0  0  0  0  0  0  0  0
   17.0136   -8.2935    0.0000 C   0  0  1  0  0  0  0  0  0  0  0  0
   16.3933   -7.7495    0.0000 C   0  0  0  0  0  0  0  0  0  0  0  0
   15.6054   -7.9942    0.0000 C   0  0  0  0  0  0  0  0  0  0  0  0
   15.4024   -8.7938    0.0000 N   0  0  0  0  0  0  0  0  0  0  0  0
   14.7349   -9.2787    0.0000 C   0  0  0  0  0  0  0  0  0  0  0  0
   13.9279   -9.1072    0.0000 C   0  0  0  0  0  0  0  0  0  0  0  0
   13.3759   -9.7203    0.0000 C   0  0  0  0  0  0  0  0  0  0  0  0
   13.6309  -10.5049    0.0000 C   0  0  0  0  0  0  0  0  0  0  0  0
   14.4378  -10.6764    0.0000 C   0  0  0  0  0  0  0  0  0  0  0  0
   14.9899  -10.0633    0.0000 C   0  0  0  0  0  0  0  0  0  0  0  0
   16.3669  -10.6764    0.0000 C   0  0  0  0  0  0  0  0  0  0  0  0
   17.1739  -10.5049    0.0000 C   0  0  0  0  0  0  0  0  0  0  0  0
   17.4288   -9.7203    0.0000 C   0  0  2  0  0  0  0  0  0  0  0  0
   16.8768   -9.1072    0.0000 C   0  0  2  0  0  0  0  0  0  0  0  0
   16.0698   -9.2787    0.0000 C   0  0  1  0  0  0  0  0  0  0  0  0
   15.0070   -7.4263    0.0000 O   0  0  0  0  0  0  0  0  0  0  0  0
   16.4043  -11.7483    0.0000 O   0  0  0  0  0  0  0  0  0  0  0  0
   17.1751  -12.4962    0.0000 C   0  0  0  0  0  0  0  0  0  0  0  0
   13.0788  -11.1180    0.0000 O   0  0  0  0  0  0  0  0  0  0  0  0
   12.2718  -10.9464    0.0000 C   0  0  0  0  0  0  0  0  0  0  0  0
   12.5689   -9.5487    0.0000 O   0  0  0  0  0  0  0  0  0  0  0  0
   12.0169  -10.1618    0.0000 C   0  0  0  0  0  0  0  0  0  0  0  0
   17.3397   -7.5357    0.0000 H   0  0  0  0  0  0  0  0  0  0  0  0
   17.9240   -9.3492    0.0000 H   0  0  0  0  0  0  0  0  0  0  0  0
   16.8768   -9.9322    0.0000 H   0  0  0  0  0  0  0  0  0  0  0  0
   16.0698   -8.4537    0.0000 H   0  0  0  0  0  0  0  0  0  0  0  0
  1  2  1  6  0  0  0
  2  3  1  0  0  0  0
  3  4  1  0  0  0  0
  4  5  1  0  0  0  0
  5  6  1  0  0  0  0
  6  7  2  0  0  0  0
  7  8  1  0  0  0  0
  8  9  1  0  0  0  0
  9 10  1  0  0  0  0
 10 11  1  0  0  0  0
 11 12  1  0  0  0  0
 12 13  1  0  0  0  0
 13 14  1  0  0  0  0
 14 15  2  0  0  0  0
 15 16  1  0  0  0  0
 16 17  2  0  0  0  0
 17 18  1  0  0  0  0
 18 19  2  0  0  0  0
 20 21  1  0  0  0  0
 22 21  1  1  0  0  0
 22 23  1  0  0  0  0
 23 24  1  0  0  0  0
  1 19  1  0  0  0  0
  1 20  1  0  0  0  0
 24 13  1  0  0  0  0
 10 23  1  0  0  0  0
  6 22  1  0  0  0  0
 14 19  1  0  0  0  0
  1 24  1  0  0  0  0
 12 25  2  0  0  0  0
 20 26  2  0  0  0  0
  4 27  1  0  0  0  0
 28 29  1  0  0  0  0
 17 28  1  0  0  0  0
 30 31  1  0  0  0  0
 16 30  1  0  0  0  0
 10 32  1  1  0  0  0
 22 33  1  0  0  0  0
 23 34  1  1  0  0  0
 24 35  1  6  0  0  0
M  END
>  <cdx:groupId>
35607

>  <cdx:fragmentId>
35500

$$$$
