314635.cdx
  Mrv1902 05222410232D          

 28 30  0  0  0  0            999 V2000
    5.6461   -9.1180    0.0000 C   0  0  0  0  0  0  0  0  0  0  0  0
    4.9316   -8.7055    0.0000 C   0  0  0  0  0  0  0  0  0  0  0  0
    4.2172   -9.1180    0.0000 C   0  0  0  0  0  0  0  0  0  0  0  0
    3.5027   -8.7055    0.0000 C   0  0  0  0  0  0  0  0  0  0  0  0
    5.6461   -9.9430    0.0000 O   0  0  0  0  0  0  0  0  0  0  0  0
    6.3606   -8.7055    0.0000 O   0  0  0  0  0  0  0  0  0  0  0  0
    4.9316   -7.8805    0.0000 C   0  0  0  0  0  0  0  0  0  0  0  0
    7.0751   -9.9430    0.0000 C   0  0  0  0  0  0  0  0  0  0  0  0
    7.0751   -9.1180    0.0000 C   0  0  2  0  0  0  0  0  0  0  0  0
    7.7895   -8.7055    0.0000 C   0  0  1  0  0  0  0  0  0  0  0  0
    8.5040   -9.1180    0.0000 C   0  0  0  0  0  0  0  0  0  0  0  0
    9.2185   -8.7055    0.0000 C   0  0  0  0  0  0  0  0  0  0  0  0
    9.9329   -9.1180    0.0000 C   0  0  0  0  0  0  0  0  0  0  0  0
    9.9329   -9.9430    0.0000 C   0  0  0  0  0  0  0  0  0  0  0  0
    9.2185  -10.3555    0.0000 C   0  0  0  0  0  0  0  0  0  0  0  0
    8.5040   -9.9430    0.0000 C   0  0  0  0  0  0  0  0  0  0  0  0
    7.7895  -10.3555    0.0000 O   0  0  0  0  0  0  0  0  0  0  0  0
   10.6474   -8.7055    0.0000 C   0  0  0  0  0  0  0  0  0  0  0  0
   10.6474   -7.8805    0.0000 C   0  0  0  0  0  0  0  0  0  0  0  0
    9.9329   -7.4680    0.0000 C   0  0  0  0  0  0  0  0  0  0  0  0
    9.2185   -7.8805    0.0000 O   0  0  0  0  0  0  0  0  0  0  0  0
    9.9329   -6.6430    0.0000 O   0  0  0  0  0  0  0  0  0  0  0  0
    6.6626  -10.6575    0.0000 C   0  0  0  0  0  0  0  0  0  0  0  0
    6.2501   -9.9430    0.0000 C   0  0  0  0  0  0  0  0  0  0  0  0
    7.7895   -7.8805    0.0000 O   0  0  0  0  0  0  0  0  0  0  0  0
    7.0751   -7.4680    0.0000 C   0  0  0  0  0  0  0  0  0  0  0  0
    7.0751   -6.6430    0.0000 O   0  0  0  0  0  0  0  0  0  0  0  0
    6.3606   -7.8805    0.0000 C   0  0  0  0  0  0  0  0  0  0  0  0
  1  2  1  0  0  0  0
  2  3  1  0  0  0  0
  3  4  1  0  0  0  0
  1  5  2  0  0  0  0
  1  6  1  0  0  0  0
  2  7  1  0  0  0  0
  8  9  1  0  0  0  0
  9 10  1  0  0  0  0
 10 11  1  0  0  0  0
 11 12  1  0  0  0  0
 12 13  2  0  0  0  0
 13 14  1  0  0  0  0
 14 15  2  0  0  0  0
 15 16  1  0  0  0  0
 11 16  2  0  0  0  0
 16 17  1  0  0  0  0
  8 17  1  0  0  0  0
 18 19  2  0  0  0  0
 19 20  1  0  0  0  0
 20 21  1  0  0  0  0
 21 12  1  0  0  0  0
 18 13  1  0  0  0  0
 20 22  2  0  0  0  0
  8 23  1  0  0  0  0
  8 24  1  0  0  0  0
 26 27  2  0  0  0  0
 26 28  1  0  0  0  0
 25 26  1  0  0  0  0
 10 25  1  6  0  0  0
  9  6  1  1  0  0  0
M  END
>  <cdx:fragmentId>
90596

$$$$
