314679.cdx
  Mrv1902 05222410272D          

 26 28  0  0  0  0            999 V2000
    5.3757   -8.7357    0.0000 O   0  0  0  0  0  0  0  0  0  0  0  0
    3.9468   -6.2607    0.0000 O   0  0  0  0  0  0  0  0  0  0  0  0
    8.9481   -9.9732    0.0000 O   0  0  0  0  0  0  0  0  0  0  0  0
   11.0915   -8.7357    0.0000 C   0  0  0  0  0  0  0  0  0  0  0  0
   10.3770   -9.1482    0.0000 O   0  0  0  0  0  0  0  0  0  0  0  0
   11.0915   -7.9107    0.0000 C   0  0  0  0  0  0  0  0  0  0  0  0
   10.3770   -7.4982    0.0000 O   0  0  0  0  0  0  0  0  0  0  0  0
    8.9481   -7.4982    0.0000 C   0  0  0  0  0  0  0  0  0  0  0  0
    9.6625   -7.9107    0.0000 C   0  0  0  0  0  0  0  0  0  0  0  0
    9.6625   -8.7357    0.0000 C   0  0  0  0  0  0  0  0  0  0  0  0
    8.9481   -9.1482    0.0000 C   0  0  0  0  0  0  0  0  0  0  0  0
    8.2336   -8.7357    0.0000 C   0  0  0  0  0  0  0  0  0  0  0  0
    8.2336   -7.9107    0.0000 C   0  0  0  0  0  0  0  0  0  0  0  0
    4.6612   -5.0232    0.0000 C   0  0  0  0  0  0  0  0  0  0  0  0
    5.3757   -5.4357    0.0000 O   0  0  0  0  0  0  0  0  0  0  0  0
    6.8046   -8.7357    0.0000 O   0  0  0  0  0  0  0  0  0  0  0  0
    6.8046   -6.2607    0.0000 O   0  0  0  0  0  0  0  0  0  0  0  0
    6.0902   -6.6732    0.0000 C   0  0  0  0  0  0  0  0  0  0  0  0
    5.3757   -6.2607    0.0000 C   0  0  0  0  0  0  0  0  0  0  0  0
    4.6612   -6.6732    0.0000 C   0  0  0  0  0  0  0  0  0  0  0  0
    4.6612   -7.4982    0.0000 C   0  0  0  0  0  0  0  0  0  0  0  0
    5.3757   -7.9107    0.0000 C   0  0  0  0  0  0  0  0  0  0  0  0
    6.0902   -7.4982    0.0000 C   0  0  0  0  0  0  0  0  0  0  0  0
    6.8046   -7.9107    0.0000 C   0  0  0  0  0  0  0  0  0  0  0  0
    7.5191   -7.4982    0.0000 C   0  0  0  0  0  0  0  0  0  0  0  0
    7.5191   -6.6732    0.0000 C   0  0  0  0  0  0  0  0  0  0  0  0
 22  1  1  0  0  0  0
 20  2  1  0  0  0  0
 25 13  1  0  0  0  0
 11  3  1  0  0  0  0
 10  5  1  0  0  0  0
  5  4  1  0  0  0  0
  9  7  1  0  0  0  0
  7  6  1  0  0  0  0
 13  8  2  0  0  0  0
  9  8  1  0  0  0  0
 10  9  2  0  0  0  0
 11 10  1  0  0  0  0
 12 11  2  0  0  0  0
 13 12  1  0  0  0  0
 19 15  1  0  0  0  0
 15 14  1  0  0  0  0
 24 16  2  0  0  0  0
 26 17  1  0  0  0  0
 18 17  1  0  0  0  0
 23 18  2  0  0  0  0
 19 18  1  0  0  0  0
 20 19  2  0  0  0  0
 21 20  1  0  0  0  0
 22 21  2  0  0  0  0
 23 22  1  0  0  0  0
 24 23  1  0  0  0  0
 25 24  1  0  0  0  0
 26 25  2  0  0  0  0
M  END
>  <cdx:fragmentId>
90677

$$$$
