314613.cdx
  Mrv1902 05222410222D          

 39 43  0  0  0  0            999 V2000
    8.6885   -6.0807    0.0000 C   0  0  0  0  0  0  0  0  0  0  0  0
    9.4030   -5.6682    0.0000 C   0  0  0  0  0  0  0  0  0  0  0  0
   10.1174   -6.0807    0.0000 C   0  0  0  0  0  0  0  0  0  0  0  0
   10.1174   -6.9057    0.0000 C   0  0  0  0  0  0  0  0  0  0  0  0
    9.4030   -7.3182    0.0000 C   0  0  2  0  0  0  0  0  0  0  0  0
    9.4030   -8.1432    0.0000 C   0  0  0  0  0  0  0  0  0  0  0  0
    8.6885   -8.5557    0.0000 C   0  0  0  0  0  0  0  0  0  0  0  0
    7.9740   -8.1432    0.0000 C   0  0  1  0  0  0  0  0  0  0  0  0
    7.2596   -8.5557    0.0000 C   0  0  2  0  0  0  0  0  0  0  0  0
    7.2596   -9.3807    0.0000 C   0  0  0  0  0  0  0  0  0  0  0  0
    6.5451   -9.7932    0.0000 C   0  0  2  0  0  0  0  0  0  0  0  0
    5.8306   -9.3807    0.0000 C   0  0  1  0  0  0  0  0  0  0  0  0
    5.1161   -9.7932    0.0000 C   0  0  2  0  0  0  0  0  0  0  0  0
    4.4017   -9.3807    0.0000 C   0  0  2  0  0  0  0  0  0  0  0  0
    4.4017   -8.5557    0.0000 C   0  0  1  0  0  0  0  0  0  0  0  0
    5.1161   -8.1432    0.0000 C   0  0  0  0  0  0  0  0  0  0  0  0
    5.8306   -8.5557    0.0000 C   0  0  2  0  0  0  0  0  0  0  0  0
    6.5451   -8.1432    0.0000 C   0  0  1  0  0  0  0  0  0  0  0  0
    6.5451   -7.3182    0.0000 C   0  0  0  0  0  0  0  0  0  0  0  0
    7.2596   -6.9057    0.0000 C   0  0  0  0  0  0  0  0  0  0  0  0
    7.9740   -7.3182    0.0000 C   0  0  0  0  0  0  0  0  0  0  0  0
    8.6885   -6.9057    0.0000 C   0  0  2  0  0  0  0  0  0  0  0  0
   10.1174   -7.7307    0.0000 C   0  0  0  0  0  0  0  0  0  0  0  0
   10.1174   -8.5557    0.0000 O   0  0  0  0  0  0  0  0  0  0  0  0
   10.8319   -7.3182    0.0000 O   0  0  0  0  0  0  0  0  0  0  0  0
    4.7036  -10.5077    0.0000 C   0  0  0  0  0  0  0  0  0  0  0  0
    8.9905   -4.9537    0.0000 C   0  0  0  0  0  0  0  0  0  0  0  0
    9.8155   -4.9537    0.0000 C   0  0  0  0  0  0  0  0  0  0  0  0
    5.5286  -10.5077    0.0000 C   0  0  0  0  0  0  0  0  0  0  0  0
    5.1161  -11.2221    0.0000 O   0  0  0  0  0  0  0  0  0  0  0  0
    3.6872   -8.1432    0.0000 O   0  0  0  0  0  0  0  0  0  0  0  0
    3.6872   -9.7932    0.0000 O   0  0  0  0  0  0  0  0  0  0  0  0
    6.5451  -10.6182    0.0000 O   0  0  0  0  0  0  0  0  0  0  0  0
    5.8306  -10.2057    0.0000 H   0  0  0  0  0  0  0  0  0  0  0  0
    8.6885   -7.7307    0.0000 H   0  0  0  0  0  0  0  0  0  0  0  0
    5.8306   -7.7307    0.0000 C   0  0  0  0  0  0  0  0  0  0  0  0
    6.5451   -8.9682    0.0000 H   0  0  0  0  0  0  0  0  0  0  0  0
    7.2596   -7.7307    0.0000 C   0  0  0  0  0  0  0  0  0  0  0  0
    7.9740   -8.9682    0.0000 C   0  0  0  0  0  0  0  0  0  0  0  0
  1  2  1  0  0  0  0
  2  3  1  0  0  0  0
  3  4  1  0  0  0  0
  4  5  1  0  0  0  0
  5  6  1  0  0  0  0
  6  7  1  0  0  0  0
  7  8  1  0  0  0  0
  8  9  1  0  0  0  0
  9 10  1  0  0  0  0
 10 11  1  0  0  0  0
 11 12  1  0  0  0  0
 12 13  1  0  0  0  0
 13 14  1  0  0  0  0
 14 15  1  0  0  0  0
 15 16  1  0  0  0  0
 16 17  1  0  0  0  0
 12 17  1  0  0  0  0
 17 18  1  0  0  0  0
  9 18  1  0  0  0  0
 18 19  1  0  0  0  0
 19 20  1  0  0  0  0
 20 21  2  0  0  0  0
  8 21  1  0  0  0  0
 21 22  1  0  0  0  0
  5 22  1  0  0  0  0
  1 22  1  0  0  0  0
 23 24  2  0  0  0  0
 23 25  1  0  0  0  0
  5 23  1  1  0  0  0
 13 26  1  1  0  0  0
  2 27  1  0  0  0  0
  2 28  1  0  0  0  0
 29 30  1  0  0  0  0
 13 29  1  6  0  0  0
 15 31  1  6  0  0  0
 14 32  1  1  0  0  0
 11 33  1  1  0  0  0
 12 34  1  6  0  0  0
 22 35  1  1  0  0  0
 17 36  1  1  0  0  0
 18 37  1  6  0  0  0
  9 38  1  1  0  0  0
  8 39  1  6  0  0  0
M  END
>  <cdx:fragmentId>
90436

$$$$
