314995.cdx
  Mrv1902 05222410222D          

 22 23  0  0  0  0            999 V2000
    9.0843   -8.4761    0.0000 O   0  0  0  0  0  0  0  0  0  0  0  0
    9.7993   -8.8877    0.0000 C   0  0  0  0  0  0  0  0  0  0  0  0
    9.8003   -9.7127    0.0000 C   0  0  1  0  0  0  0  0  0  0  0  0
    9.0863  -10.1261    0.0000 C   0  0  2  0  0  0  0  0  0  0  0  0
    8.3714   -9.7144    0.0000 C   0  0  1  0  0  0  0  0  0  0  0  0
    8.3703   -8.8895    0.0000 C   0  0  1  0  0  0  0  0  0  0  0  0
   10.5132   -8.4743    0.0000 O   0  0  0  0  0  0  0  0  0  0  0  0
   10.5153  -10.1243    0.0000 O   0  0  0  0  0  0  0  0  0  0  0  0
    9.0874  -10.9511    0.0000 O   0  0  0  0  0  0  0  0  0  0  0  0
    7.6574  -10.1278    0.0000 O   0  0  0  0  0  0  0  0  0  0  0  0
    7.6553   -8.4778    0.0000 C   0  0  0  0  0  0  0  0  0  0  0  0
    6.9414   -8.8912    0.0000 O   0  0  0  0  0  0  0  0  0  0  0  0
    5.5124   -8.8930    0.0000 O   0  0  0  0  0  0  0  0  0  0  0  0
    6.2264   -8.4796    0.0000 C   0  0  2  0  0  0  0  0  0  0  0  0
    6.2254   -7.6546    0.0000 C   0  0  1  0  0  0  0  0  0  0  0  0
    5.5104   -7.2430    0.0000 C   0  0  1  0  0  0  0  0  0  0  0  0
    4.7964   -7.6564    0.0000 C   0  0  2  0  0  0  0  0  0  0  0  0
    4.7975   -8.4814    0.0000 C   0  0  2  0  0  0  0  0  0  0  0  0
    4.0835   -8.8948    0.0000 C   0  0  0  0  0  0  0  0  0  0  0  0
    4.0815   -7.2448    0.0000 O   0  0  0  0  0  0  0  0  0  0  0  0
    5.5094   -6.4180    0.0000 O   0  0  0  0  0  0  0  0  0  0  0  0
    6.9393   -7.2412    0.0000 O   0  0  0  0  0  0  0  0  0  0  0  0
  1  2  1  0  0  0  0
  2  3  1  0  0  0  0
  3  4  1  0  0  0  0
  4  5  1  0  0  0  0
  5  6  1  0  0  0  0
  1  6  1  0  0  0  0
  2  7  1  0  0  0  0
  3  8  1  6  0  0  0
  4  9  1  1  0  0  0
  5 10  1  6  0  0  0
 13 14  1  0  0  0  0
 14 15  1  0  0  0  0
 15 16  1  0  0  0  0
 16 17  1  0  0  0  0
 17 18  1  0  0  0  0
 13 18  1  0  0  0  0
 18 19  1  1  0  0  0
 17 20  1  6  0  0  0
 16 21  1  1  0  0  0
 15 22  1  1  0  0  0
 14 12  1  6  0  0  0
 11 12  1  0  0  0  0
  6 11  1  1  0  0  0
M  END
>  <cdx:groupId>
90830

>  <cdx:fragmentId>
90790

$$$$
