314990.cdx
  Mrv1902 05222410202D          

 52 57  0  0  0  0            999 V2000
    5.7662   -5.9950    0.0000 C   0  0  0  0  0  0  0  0  0  0  0  0
    5.7662   -6.8200    0.0000 C   0  0  0  0  0  0  0  0  0  0  0  0
    6.4806   -7.2325    0.0000 C   0  0  0  0  0  0  0  0  0  0  0  0
    7.1951   -6.8200    0.0000 C   0  0  0  0  0  0  0  0  0  0  0  0
    7.1951   -5.9950    0.0000 C   0  0  0  0  0  0  0  0  0  0  0  0
    6.4806   -5.5825    0.0000 C   0  0  0  0  0  0  0  0  0  0  0  0
    7.9096   -7.2325    0.0000 C   0  0  0  0  0  0  0  0  0  0  0  0
    8.6241   -6.8200    0.0000 C   0  0  0  0  0  0  0  0  0  0  0  0
    8.6241   -5.9950    0.0000 C   0  0  0  0  0  0  0  0  0  0  0  0
    7.9096   -5.5825    0.0000 O   0  0  0  0  0  0  0  0  0  0  0  0
    9.3385   -7.2325    0.0000 O   0  0  0  0  0  0  0  0  0  0  0  0
   10.0530   -5.9950    0.0000 C   0  0  0  0  0  0  0  0  0  0  0  0
    9.3385   -5.5825    0.0000 C   0  0  0  0  0  0  0  0  0  0  0  0
   10.7675   -5.5825    0.0000 C   0  0  0  0  0  0  0  0  0  0  0  0
   10.7675   -4.7575    0.0000 C   0  0  0  0  0  0  0  0  0  0  0  0
   10.0530   -4.3450    0.0000 C   0  0  0  0  0  0  0  0  0  0  0  0
    9.3385   -4.7575    0.0000 C   0  0  0  0  0  0  0  0  0  0  0  0
    5.0517   -5.5825    0.0000 O   0  0  0  0  0  0  0  0  0  0  0  0
    6.4806   -8.0575    0.0000 O   0  0  0  0  0  0  0  0  0  0  0  0
    7.9096   -8.0575    0.0000 O   0  0  0  0  0  0  0  0  0  0  0  0
   11.4819   -4.3450    0.0000 O   0  0  0  0  0  0  0  0  0  0  0  0
    8.6198   -9.3070    0.0000 C   0  0  2  0  0  0  0  0  0  0  0  0
    9.3347   -9.7188    0.0000 C   0  0  1  0  0  0  0  0  0  0  0  0
   10.0487   -9.3056    0.0000 C   0  0  1  0  0  0  0  0  0  0  0  0
   10.0479   -8.4806    0.0000 C   0  0  2  0  0  0  0  0  0  0  0  0
    9.3330   -8.0688    0.0000 C   0  0  1  0  0  0  0  0  0  0  0  0
    8.6190   -8.4820    0.0000 O   0  0  0  0  0  0  0  0  0  0  0  0
    7.9058   -9.7202    0.0000 C   0  0  0  0  0  0  0  0  0  0  0  0
   10.7636   -9.7173    0.0000 O   0  0  0  0  0  0  0  0  0  0  0  0
    9.3355  -10.5438    0.0000 O   0  0  0  0  0  0  0  0  0  0  0  0
   10.7620   -8.0673    0.0000 O   0  0  0  0  0  0  0  0  0  0  0  0
    7.9066  -10.5452    0.0000 O   0  0  0  0  0  0  0  0  0  0  0  0
    5.7524  -10.9535    0.0000 C   0  0  1  0  0  0  0  0  0  0  0  0
    5.7524  -11.7785    0.0000 C   0  0  1  0  0  0  0  0  0  0  0  0
    6.4669  -12.1910    0.0000 C   0  0  2  0  0  0  0  0  0  0  0  0
    7.1814  -11.7785    0.0000 C   0  0  2  0  0  0  0  0  0  0  0  0
    7.1814  -10.9535    0.0000 C   0  0  1  0  0  0  0  0  0  0  0  0
    6.4669  -10.5410    0.0000 O   0  0  0  0  0  0  0  0  0  0  0  0
    5.0380  -12.1910    0.0000 O   0  0  0  0  0  0  0  0  0  0  0  0
    5.0380  -10.5410    0.0000 C   0  0  0  0  0  0  0  0  0  0  0  0
    6.4669  -13.0160    0.0000 O   0  0  0  0  0  0  0  0  0  0  0  0
    7.8958  -12.1910    0.0000 O   0  0  0  0  0  0  0  0  0  0  0  0
    2.9062   -6.0035    0.0000 C   0  0  1  0  0  0  0  0  0  0  0  0
    2.9062   -6.8285    0.0000 C   0  0  1  0  0  0  0  0  0  0  0  0
    3.6206   -7.2410    0.0000 C   0  0  2  0  0  0  0  0  0  0  0  0
    4.3351   -6.8285    0.0000 C   0  0  2  0  0  0  0  0  0  0  0  0
    4.3351   -6.0035    0.0000 C   0  0  1  0  0  0  0  0  0  0  0  0
    3.6206   -5.5910    0.0000 O   0  0  0  0  0  0  0  0  0  0  0  0
    2.1917   -7.2410    0.0000 O   0  0  0  0  0  0  0  0  0  0  0  0
    2.1917   -5.5910    0.0000 C   0  0  0  0  0  0  0  0  0  0  0  0
    3.6206   -8.0660    0.0000 O   0  0  0  0  0  0  0  0  0  0  0  0
    5.0496   -7.2410    0.0000 O   0  0  0  0  0  0  0  0  0  0  0  0
  1  2  2  0  0  0  0
  2  3  1  0  0  0  0
  3  4  2  0  0  0  0
  4  5  1  0  0  0  0
  5  6  2  0  0  0  0
  6  1  1  0  0  0  0
  4  7  1  0  0  0  0
  7  8  1  0  0  0  0
  8  9  2  0  0  0  0
  9 10  1  0  0  0  0
 10  5  1  0  0  0  0
  8 11  1  0  0  0  0
 12 13  2  0  0  0  0
 13  9  1  0  0  0  0
 12 14  1  0  0  0  0
 14 15  2  0  0  0  0
 15 16  1  0  0  0  0
 16 17  2  0  0  0  0
 17 13  1  0  0  0  0
  1 18  1  0  0  0  0
  3 19  1  0  0  0  0
  7 20  2  0  0  0  0
 15 21  1  0  0  0  0
 22 23  1  0  0  0  0
 23 24  1  0  0  0  0
 24 25  1  0  0  0  0
 25 26  1  0  0  0  0
 26 27  1  0  0  0  0
 27 22  1  0  0  0  0
 22 28  1  1  0  0  0
 24 29  1  1  0  0  0
 23 30  1  1  0  0  0
 25 31  1  6  0  0  0
 28 32  1  0  0  0  0
 33 34  1  0  0  0  0
 34 35  1  0  0  0  0
 35 36  1  0  0  0  0
 36 37  1  0  0  0  0
 37 38  1  0  0  0  0
 38 33  1  0  0  0  0
 34 39  1  1  0  0  0
 33 40  1  6  0  0  0
 35 41  1  6  0  0  0
 36 42  1  6  0  0  0
 43 44  1  0  0  0  0
 44 45  1  0  0  0  0
 45 46  1  0  0  0  0
 46 47  1  0  0  0  0
 47 48  1  0  0  0  0
 48 43  1  0  0  0  0
 44 49  1  1  0  0  0
 43 50  1  6  0  0  0
 45 51  1  6  0  0  0
 46 52  1  6  0  0  0
 47 18  1  1  0  0  0
 37 32  1  1  0  0  0
 26 11  1  1  0  0  0
M  END
>  <cdx:fragmentId>
5

$$$$
