315.cdx
  Mrv1902 05222410202D          

 16 17  0  0  0  0            999 V2000
    7.7404   -8.8578    0.0000 N   0  0  0  0  0  0  0  0  0  0  0  0
    8.4549   -8.4453    0.0000 C   0  0  0  0  0  0  0  0  0  0  0  0
    8.4549   -7.6203    0.0000 N   0  0  0  0  0  0  0  0  0  0  0  0
    7.7404   -7.2078    0.0000 C   0  0  0  0  0  0  0  0  0  0  0  0
    7.0259   -7.6203    0.0000 C   0  0  0  0  0  0  0  0  0  0  0  0
    7.0259   -8.4453    0.0000 C   0  0  0  0  0  0  0  0  0  0  0  0
    9.1693   -8.8578    0.0000 O   0  0  0  0  0  0  0  0  0  0  0  0
    7.7404   -6.3828    0.0000 N   0  0  0  0  0  0  0  0  0  0  0  0
    7.7400   -9.6828    0.0000 C   0  0  2  0  0  0  0  0  0  0  0  0
    7.0730  -10.1683    0.0000 O   0  0  0  0  0  0  0  0  0  0  0  0
    7.3286  -10.9527    0.0000 C   0  0  1  0  0  0  0  0  0  0  0  0
    8.1536  -10.9527    0.0000 C   0  0  2  0  0  0  0  0  0  0  0  0
    8.4079  -10.1683    0.0000 C   0  0  0  0  0  0  0  0  0  0  0  0
    8.6388  -11.6200    0.0000 O   0  0  0  0  0  0  0  0  0  0  0  0
    6.8440  -11.6204    0.0000 C   0  0  0  0  0  0  0  0  0  0  0  0
    7.1799  -12.3739    0.0000 O   0  0  0  0  0  0  0  0  0  0  0  0
  1  2  1  0  0  0  0
  2  3  1  0  0  0  0
  3  4  2  0  0  0  0
  4  5  1  0  0  0  0
  5  6  2  0  0  0  0
  6  1  1  0  0  0  0
  2  7  2  0  0  0  0
  4  8  1  0  0  0  0
  9  1  1  1  0  0  0
  9 10  1  0  0  0  0
 10 11  1  0  0  0  0
 11 12  1  0  0  0  0
 12 13  1  0  0  0  0
 13  9  1  0  0  0  0
 12 14  1  6  0  0  0
 11 15  1  1  0  0  0
 15 16  1  0  0  0  0
M  END
>  <cdx:fragmentId>
433

$$$$
