12315077.cdx
  Mrv1902 05222410262D          

 38 42  0  0  0  0            999 V2000
    8.6724  -12.8265    0.0000 C   0  0  1  0  0  0  0  0  0  0  0  0
    9.3869  -12.4140    0.0000 C   0  0  1  0  0  0  0  0  0  0  0  0
   10.1014  -12.8265    0.0000 C   0  0  0  0  0  0  0  0  0  0  0  0
   10.1014  -13.6515    0.0000 C   0  0  0  0  0  0  0  0  0  0  0  0
    9.3869  -14.0640    0.0000 C   0  0  2  0  0  0  0  0  0  0  0  0
    9.3869  -14.8890    0.0000 C   0  0  0  0  0  0  0  0  0  0  0  0
    8.6724  -15.3015    0.0000 C   0  0  0  0  0  0  0  0  0  0  0  0
    7.9580  -14.8890    0.0000 C   0  0  1  0  0  0  0  0  0  0  0  0
    7.2435  -15.3015    0.0000 C   0  0  2  0  0  0  0  0  0  0  0  0
    7.2435  -16.1265    0.0000 C   0  0  0  0  0  0  0  0  0  0  0  0
    6.5290  -16.5390    0.0000 C   0  0  0  0  0  0  0  0  0  0  0  0
    5.8146  -16.1265    0.0000 C   0  0  1  0  0  0  0  0  0  0  0  0
    5.1001  -16.5390    0.0000 C   0  0  1  0  0  0  0  0  0  0  0  0
    4.3856  -16.1265    0.0000 C   0  0  2  0  0  0  0  0  0  0  0  0
    4.3856  -15.3015    0.0000 C   0  0  0  0  0  0  0  0  0  0  0  0
    5.1001  -14.8890    0.0000 C   0  0  0  0  0  0  0  0  0  0  0  0
    5.8146  -15.3015    0.0000 C   0  0  2  0  0  0  0  0  0  0  0  0
    6.5290  -14.8890    0.0000 C   0  0  1  0  0  0  0  0  0  0  0  0
    6.5290  -14.0640    0.0000 C   0  0  0  0  0  0  0  0  0  0  0  0
    7.2435  -13.6515    0.0000 C   0  0  0  0  0  0  0  0  0  0  0  0
    7.9580  -14.0640    0.0000 C   0  0  0  0  0  0  0  0  0  0  0  0
    8.6724  -13.6515    0.0000 C   0  0  2  0  0  0  0  0  0  0  0  0
   10.1014  -14.4765    0.0000 C   0  0  0  0  0  0  0  0  0  0  0  0
   10.1014  -15.3015    0.0000 O   0  0  0  0  0  0  0  0  0  0  0  0
   10.8159  -14.0640    0.0000 O   0  0  0  0  0  0  0  0  0  0  0  0
    4.6876  -17.2535    0.0000 C   0  0  0  0  0  0  0  0  0  0  0  0
    9.3869  -11.5890    0.0000 C   0  0  0  0  0  0  0  0  0  0  0  0
    8.2599  -12.1121    0.0000 C   0  0  0  0  0  0  0  0  0  0  0  0
    5.5126  -17.2535    0.0000 C   0  0  0  0  0  0  0  0  0  0  0  0
    5.1001  -17.9680    0.0000 O   0  0  0  0  0  0  0  0  0  0  0  0
    3.6711  -16.5390    0.0000 O   0  0  0  0  0  0  0  0  0  0  0  0
    7.8474  -12.8265    0.0000 O   0  0  0  0  0  0  0  0  0  0  0  0
    5.8146  -16.9515    0.0000 H   0  0  0  0  0  0  0  0  0  0  0  0
    8.6724  -14.4765    0.0000 H   0  0  0  0  0  0  0  0  0  0  0  0
    5.8146  -14.4765    0.0000 C   0  0  0  0  0  0  0  0  0  0  0  0
    7.2435  -14.4765    0.0000 H   0  0  0  0  0  0  0  0  0  0  0  0
    7.6560  -16.0160    0.0000 C   0  0  0  0  0  0  0  0  0  0  0  0
    7.9580  -15.7140    0.0000 C   0  0  0  0  0  0  0  0  0  0  0  0
  1  2  1  0  0  0  0
  2  3  1  0  0  0  0
  3  4  1  0  0  0  0
  4  5  1  0  0  0  0
  5  6  1  0  0  0  0
  6  7  1  0  0  0  0
  7  8  1  0  0  0  0
  8  9  1  0  0  0  0
  9 10  1  0  0  0  0
 10 11  1  0  0  0  0
 11 12  1  0  0  0  0
 12 13  1  0  0  0  0
 13 14  1  0  0  0  0
 14 15  1  0  0  0  0
 15 16  1  0  0  0  0
 16 17  1  0  0  0  0
 12 17  1  0  0  0  0
 17 18  1  0  0  0  0
  9 18  1  0  0  0  0
 18 19  1  0  0  0  0
 19 20  1  0  0  0  0
 20 21  2  0  0  0  0
  8 21  1  0  0  0  0
 21 22  1  0  0  0  0
  5 22  1  0  0  0  0
  1 22  1  0  0  0  0
 23 24  2  0  0  0  0
 23 25  1  0  0  0  0
  5 23  1  1  0  0  0
 13 26  1  6  0  0  0
  2 27  1  6  0  0  0
  1 28  1  1  0  0  0
 29 30  1  0  0  0  0
 13 29  1  1  0  0  0
 14 31  1  1  0  0  0
  1 32  1  6  0  0  0
 22 34  1  1  0  0  0
 12 33  1  6  0  0  0
 17 35  1  1  0  0  0
 18 36  1  6  0  0  0
  9 37  1  1  0  0  0
  8 38  1  6  0  0  0
M  END
>  <cdx:groupId>
91108

>  <cdx:fragmentId>
90996

$$$$
