315005.cdx
  Mrv1902 05222410262D          

 35 38  0  0  0  0            999 V2000
    6.4413   -8.9815    0.0000 C   0  0  2  0  0  0  0  0  0  0  0  0
    6.4413   -9.8065    0.0000 C   0  0  1  0  0  0  0  0  0  0  0  0
    7.1558  -10.2190    0.0000 C   0  0  0  0  0  0  0  0  0  0  0  0
    7.8702   -9.8065    0.0000 C   0  0  0  0  0  0  0  0  0  0  0  0
    7.8702   -8.9815    0.0000 C   0  0  2  0  0  0  0  0  0  0  0  0
    7.1558   -8.5690    0.0000 C   0  0  2  0  0  0  0  0  0  0  0  0
    8.5847   -8.5690    0.0000 C   0  0  1  0  0  0  0  0  0  0  0  0
    8.5847   -7.7440    0.0000 C   0  0  0  0  0  0  0  0  0  0  0  0
    7.8702   -7.3315    0.0000 C   0  0  0  0  0  0  0  0  0  0  0  0
    7.1558   -7.7440    0.0000 C   0  0  0  0  0  0  0  0  0  0  0  0
    9.2992   -8.9815    0.0000 C   0  0  0  0  0  0  0  0  0  0  0  0
   10.0137   -8.5690    0.0000 C   0  0  0  0  0  0  0  0  0  0  0  0
   10.0137   -7.7440    0.0000 C   0  0  2  0  0  0  0  0  0  0  0  0
    9.2992   -7.3315    0.0000 C   0  0  1  0  0  0  0  0  0  0  0  0
   10.7282   -7.3315    0.0000 C   0  0  0  0  0  0  0  0  0  0  0  0
   10.7282   -6.5065    0.0000 C   0  0  0  0  0  0  0  0  0  0  0  0
   10.0137   -6.0940    0.0000 C   0  0  2  0  0  0  0  0  0  0  0  0
    9.2992   -6.5065    0.0000 C   0  0  2  0  0  0  0  0  0  0  0  0
    5.7269  -10.2190    0.0000 C   0  0  0  0  0  0  0  0  0  0  0  0
    6.4413   -8.1565    0.0000 C   0  0  0  0  0  0  0  0  0  0  0  0
    7.8702   -8.1565    0.0000 C   0  0  0  0  0  0  0  0  0  0  0  0
    9.2992   -8.1565    0.0000 H   0  0  0  0  0  0  0  0  0  0  0  0
    8.5847   -6.0940    0.0000 C   0  0  0  0  0  0  0  0  0  0  0  0
   10.7282   -8.1565    0.0000 C   0  0  0  0  0  0  0  0  0  0  0  0
   10.0137   -5.2690    0.0000 C   0  0  0  0  0  0  0  0  0  0  0  0
    8.5847   -9.3940    0.0000 C   0  0  0  0  0  0  0  0  0  0  0  0
    5.7269   -8.5690    0.0000 C   0  0  0  0  0  0  0  0  0  0  0  0
    5.0124   -8.9815    0.0000 C   0  0  0  0  0  0  0  0  0  0  0  0
    4.2979   -8.5690    0.0000 C   0  0  0  0  0  0  0  0  0  0  0  0
    3.5834   -8.9815    0.0000 O   0  0  0  0  0  0  0  0  0  0  0  0
    4.2979   -7.7440    0.0000 O   0  0  0  0  0  0  0  0  0  0  0  0
    5.0124   -9.8065    0.0000 C   0  0  0  0  0  0  0  0  0  0  0  0
    5.7269  -11.0440    0.0000 C   0  0  0  0  0  0  0  0  0  0  0  0
    6.4413  -10.6315    0.0000 H   0  0  0  0  0  0  0  0  0  0  0  0
    7.1558   -9.3940    0.0000 H   0  0  0  0  0  0  0  0  0  0  0  0
  1  2  1  0  0  0  0
  2  3  1  0  0  0  0
  3  4  1  0  0  0  0
  4  5  1  0  0  0  0
  5  6  1  0  0  0  0
  6  1  1  0  0  0  0
  5  7  1  0  0  0  0
  7  8  1  0  0  0  0
  8  9  2  0  0  0  0
  9 10  1  0  0  0  0
 10  6  1  0  0  0  0
  7 11  1  0  0  0  0
 11 12  1  0  0  0  0
 12 13  1  0  0  0  0
 13 14  1  0  0  0  0
 14  8  1  0  0  0  0
 13 15  1  0  0  0  0
 15 16  1  0  0  0  0
 16 17  1  0  0  0  0
 17 18  1  0  0  0  0
 18 14  1  0  0  0  0
  2 19  1  0  0  0  0
  1 20  1  1  0  0  0
  5 21  1  1  0  0  0
 14 22  1  1  0  0  0
 18 23  1  1  0  0  0
 13 24  1  1  0  0  0
 17 25  1  6  0  0  0
  7 26  1  6  0  0  0
  1 27  1  0  0  0  0
 27 28  1  0  0  0  0
 28 29  1  0  0  0  0
 29 30  1  0  0  0  0
 29 31  2  0  0  0  0
 19 32  1  0  0  0  0
 19 33  2  0  0  0  0
  2 34  1  6  0  0  0
  6 35  1  6  0  0  0
M  END
>  <cdx:fragmentId>
90913

$$$$
