315169.cdx
  Mrv1902 05222410202D          

 35 39  0  0  0  0            999 V2000
    4.9697   -8.5250    0.0000 C   0  0  0  0  0  0  0  0  0  0  0  0
    4.2553   -8.9375    0.0000 C   0  0  0  0  0  0  0  0  0  0  0  0
    4.2553   -9.7625    0.0000 C   0  0  1  0  0  0  0  0  0  0  0  0
    4.9697  -10.1750    0.0000 C   0  0  2  0  0  0  0  0  0  0  0  0
    5.6842   -9.7625    0.0000 C   0  0  2  0  0  0  0  0  0  0  0  0
    6.3987  -10.1750    0.0000 C   0  0  0  0  0  0  0  0  0  0  0  0
    7.1131   -9.7625    0.0000 C   0  0  0  0  0  0  0  0  0  0  0  0
    7.1131   -8.9375    0.0000 C   0  0  1  0  0  0  0  0  0  0  0  0
    7.8276   -8.5250    0.0000 C   0  0  2  0  0  0  0  0  0  0  0  0
    8.5421   -8.9375    0.0000 C   0  0  0  0  0  0  0  0  0  0  0  0
    9.2566   -8.5250    0.0000 C   0  0  1  0  0  0  0  0  0  0  0  0
    9.2566   -7.7000    0.0000 C   0  0  1  0  0  0  0  0  0  0  0  0
    9.9710   -7.2875    0.0000 C   0  0  0  0  0  0  0  0  0  0  0  0
    9.9710   -6.4625    0.0000 C   0  0  0  0  0  0  0  0  0  0  0  0
    9.2566   -6.0500    0.0000 C   0  0  1  0  0  0  0  0  0  0  0  0
    8.5421   -6.4625    0.0000 C   0  0  0  0  0  0  0  0  0  0  0  0
    8.5421   -7.2875    0.0000 C   0  0  1  0  0  0  0  0  0  0  0  0
    7.8276   -7.7000    0.0000 C   0  0  0  0  0  0  0  0  0  0  0  0
    7.1131   -7.2875    0.0000 C   0  0  0  0  0  0  0  0  0  0  0  0
    6.3987   -7.7000    0.0000 C   0  0  0  0  0  0  0  0  0  0  0  0
    6.3987   -8.5250    0.0000 C   0  0  0  0  0  0  0  0  0  0  0  0
    5.6842   -8.9375    0.0000 C   0  0  1  0  0  0  0  0  0  0  0  0
    3.5408  -10.1750    0.0000 O   0  0  0  0  0  0  0  0  0  0  0  0
    9.9710   -8.9375    0.0000 O   0  0  0  0  0  0  0  0  0  0  0  0
    5.6842   -8.1125    0.0000 C   0  0  0  0  0  0  0  0  0  0  0  0
    8.8441   -5.3355    0.0000 C   0  0  0  0  0  0  0  0  0  0  0  0
    9.6691   -5.3355    0.0000 C   0  0  0  0  0  0  0  0  0  0  0  0
    7.8276   -9.3500    0.0000 C   0  0  0  0  0  0  0  0  0  0  0  0
    7.1131   -8.1125    0.0000 C   0  0  0  0  0  0  0  0  0  0  0  0
    5.3822  -10.8895    0.0000 C   0  0  0  0  0  0  0  0  0  0  0  0
    4.5572  -10.8895    0.0000 C   0  0  0  0  0  0  0  0  0  0  0  0
    9.9710   -8.1125    0.0000 C   0  0  0  0  0  0  0  0  0  0  0  0
   10.6855   -7.7000    0.0000 O   0  0  0  0  0  0  0  0  0  0  0  0
    5.6842  -10.5875    0.0000 H   0  0  0  0  0  0  0  0  0  0  0  0
    8.5421   -8.1125    0.0000 H   0  0  0  0  0  0  0  0  0  0  0  0
  1  2  1  0  0  0  0
  2  3  1  0  0  0  0
  3  4  1  0  0  0  0
  4  5  1  0  0  0  0
  5  6  1  0  0  0  0
  6  7  1  0  0  0  0
  7  8  1  0  0  0  0
  8  9  1  0  0  0  0
  9 10  1  0  0  0  0
 10 11  1  0  0  0  0
 11 12  1  0  0  0  0
 12 13  1  0  0  0  0
 13 14  1  0  0  0  0
 14 15  1  0  0  0  0
 15 16  1  0  0  0  0
 16 17  1  0  0  0  0
 12 17  1  0  0  0  0
 17 18  1  0  0  0  0
  9 18  1  0  0  0  0
 18 19  2  0  0  0  0
 19 20  1  0  0  0  0
 20 21  2  0  0  0  0
  8 21  1  0  0  0  0
 21 22  1  0  0  0  0
  5 22  1  0  0  0  0
  1 22  1  0  0  0  0
  3 23  1  1  0  0  0
 11 24  1  1  0  0  0
 22 25  1  1  0  0  0
 15 26  1  1  0  0  0
 15 27  1  6  0  0  0
  9 28  1  6  0  0  0
  8 29  1  1  0  0  0
  4 30  1  6  0  0  0
  4 31  1  1  0  0  0
 32 33  1  0  0  0  0
 12 32  1  1  0  0  0
  5 34  1  6  0  0  0
 17 35  1  1  0  0  0
M  END
>  <cdx:fragmentId>
91181

$$$$
