315119.cdx
  Mrv1902 05222410212D          

 31 34  0  0  0  0            999 V2000
   10.3497   -4.5791    0.0000 C   0  0  0  0  0  0  0  0  0  0  0  0
   10.3574   -3.7541    0.0000 C   0  0  0  0  0  0  0  0  0  0  0  0
    9.6467   -3.3350    0.0000 C   0  0  0  0  0  0  0  0  0  0  0  0
    8.9285   -3.7409    0.0000 C   0  0  0  0  0  0  0  0  0  0  0  0
    8.2179   -3.3217    0.0000 C   0  0  0  0  0  0  0  0  0  0  0  0
    7.4996   -3.7276    0.0000 C   0  0  0  0  0  0  0  0  0  0  0  0
    7.4919   -4.5525    0.0000 C   0  0  0  0  0  0  0  0  0  0  0  0
    8.2025   -4.9717    0.0000 C   0  0  0  0  0  0  0  0  0  0  0  0
    8.9208   -4.5658    0.0000 C   0  0  0  0  0  0  0  0  0  0  0  0
    9.6314   -4.9849    0.0000 O   0  0  0  0  0  0  0  0  0  0  0  0
    6.7050   -4.8002    0.0000 O   0  0  0  0  0  0  0  0  0  0  0  0
    6.7174   -3.4654    0.0000 C   0  0  0  0  0  0  0  0  0  0  0  0
    6.2263   -4.1283    0.0000 C   0  0  1  0  0  0  0  0  0  0  0  0
   11.0603   -4.9982    0.0000 O   0  0  0  0  0  0  0  0  0  0  0  0
    5.4090   -3.2956    0.0000 C   0  0  0  0  0  0  0  0  0  0  0  0
    5.4013   -4.1206    0.0000 C   0  0  0  0  0  0  0  0  0  0  0  0
    5.3936   -4.9456    0.0000 C   0  0  0  0  0  0  0  0  0  0  0  0
    4.5763   -4.1129    0.0000 O   0  0  0  0  0  0  0  0  0  0  0  0
    8.1949   -5.7966    0.0000 O   0  0  0  0  0  0  0  0  0  0  0  0
    5.8449   -4.8598    0.0000 H   0  0  0  0  0  0  0  0  0  0  0  0
    7.4766   -6.2025    0.0000 C   0  0  0  0  0  0  0  0  0  0  0  0
    6.7699   -5.7768    0.0000 O   0  0  0  0  0  0  0  0  0  0  0  0
    6.0479   -6.2025    0.0000 C   0  0  1  0  0  0  0  0  0  0  0  0
    6.0479   -7.0273    0.0000 C   0  0  2  0  0  0  0  0  0  0  0  0
    6.7699   -7.4530    0.0000 C   0  0  1  0  0  0  0  0  0  0  0  0
    7.4766   -7.0273    0.0000 C   0  0  1  0  0  0  0  0  0  0  0  0
    5.3316   -5.7932    0.0000 C   0  0  0  0  0  0  0  0  0  0  0  0
    6.7738   -8.2780    0.0000 O   0  0  0  0  0  0  0  0  0  0  0  0
    8.1949   -7.4332    0.0000 O   0  0  0  0  0  0  0  0  0  0  0  0
    5.3316   -7.4366    0.0000 O   0  0  0  0  0  0  0  0  0  0  0  0
    4.6190   -6.2090    0.0000 O   0  0  0  0  0  0  0  0  0  0  0  0
  1  2  1  0  0  0  0
  2  3  2  0  0  0  0
  3  4  1  0  0  0  0
  4  5  2  0  0  0  0
  5  6  1  0  0  0  0
  6  7  2  0  0  0  0
  7  8  1  0  0  0  0
  8  9  2  0  0  0  0
  4  9  1  0  0  0  0
  9 10  1  0  0  0  0
  1 10  1  0  0  0  0
 12 13  1  0  0  0  0
 11 13  1  0  0  0  0
 12  6  1  0  0  0  0
 11  7  1  0  0  0  0
  1 14  2  0  0  0  0
 15 16  1  0  0  0  0
 16 17  1  0  0  0  0
 16 18  1  0  0  0  0
 13 16  1  0  0  0  0
  8 19  1  0  0  0  0
 13 20  1  1  0  0  0
 19 21  1  0  0  0  0
 21 22  1  0  0  0  0
 22 23  1  0  0  0  0
 23 24  1  0  0  0  0
 24 25  1  0  0  0  0
 25 26  1  0  0  0  0
 26 21  1  0  0  0  0
 23 27  1  1  0  0  0
 25 28  1  1  0  0  0
 26 29  1  6  0  0  0
 24 30  1  6  0  0  0
 27 31  1  0  0  0  0
M  END
>  <cdx:fragmentId>
5

$$$$
