315159.cdx
  Mrv1902 05222410262D          

 12 13  0  0  0  0            999 V2000
    6.8150   -6.5573    0.0000 C   0  0  1  0  0  0  0  0  0  0  0  0
    7.6039   -6.7987    0.0000 C   0  0  0  0  0  0  0  0  0  0  0  0
    8.0773   -6.1230    0.0000 C   0  0  2  0  0  0  0  0  0  0  0  0
    7.5809   -5.4640    0.0000 C   0  0  0  0  0  0  0  0  0  0  0  0
    6.8008   -5.7325    0.0000 C   0  0  1  0  0  0  0  0  0  0  0  0
    6.0936   -6.1572    0.0000 C   0  0  0  0  0  0  0  0  0  0  0  0
    8.9021   -6.1088    0.0000 O   0  0  0  0  0  0  0  0  0  0  0  0
    6.9888   -7.9757    0.0000 C   0  0  0  0  0  0  0  0  0  0  0  0
    6.4925   -7.3167    0.0000 C   0  0  0  0  0  0  0  0  0  0  0  0
    5.6736   -7.4170    0.0000 C   0  0  0  0  0  0  0  0  0  0  0  0
    7.8223   -4.6751    0.0000 C   0  0  0  0  0  0  0  0  0  0  0  0
    6.4523   -4.9847    0.0000 H   0  0  0  0  0  0  0  0  0  0  0  0
  1  2  1  0  0  0  0
  2  3  1  0  0  0  0
  3  4  1  0  0  0  0
  4  5  1  0  0  0  0
  5  6  1  0  0  0  0
  1  6  1  0  0  0  0
  1  5  1  0  0  0  0
  3  7  1  6  0  0  0
  8  9  1  0  0  0  0
  9 10  1  0  0  0  0
  1  9  1  1  0  0  0
  4 11  2  0  0  0  0
  5 12  1  1  0  0  0
M  END
>  <cdx:fragmentId>
5

$$$$
