5315126.cdx
  Mrv1902 05222410202D          

 27 29  0  0  0  0            999 V2000
    8.6595   -5.4890    0.0000 C   0  0  0  0  0  0  0  0  0  0  0  0
    9.3739   -5.9015    0.0000 C   0  0  0  0  0  0  0  0  0  0  0  0
   10.0884   -5.4890    0.0000 C   0  0  0  0  0  0  0  0  0  0  0  0
   10.8029   -5.9015    0.0000 C   0  0  0  0  0  0  0  0  0  0  0  0
   11.5174   -5.4890    0.0000 C   0  0  0  0  0  0  0  0  0  0  0  0
   10.8029   -6.7265    0.0000 C   0  0  0  0  0  0  0  0  0  0  0  0
    7.9450   -5.9015    0.0000 C   0  0  0  0  0  0  0  0  0  0  0  0
    7.2305   -5.4890    0.0000 C   0  0  0  0  0  0  0  0  0  0  0  0
    6.5161   -5.9015    0.0000 C   0  0  0  0  0  0  0  0  0  0  0  0
    6.5161   -6.7265    0.0000 C   0  0  0  0  0  0  0  0  0  0  0  0
    5.8016   -7.1390    0.0000 C   0  0  0  0  0  0  0  0  0  0  0  0
    5.0872   -6.7265    0.0000 C   0  0  0  0  0  0  0  0  0  0  0  0
    4.3727   -7.1390    0.0000 C   0  0  0  0  0  0  0  0  0  0  0  0
    4.3727   -7.9640    0.0000 O   0  0  0  0  0  0  0  0  0  0  0  0
    3.6582   -6.7265    0.0000 C   0  0  0  0  0  0  0  0  0  0  0  0
    3.6582   -5.9015    0.0000 C   0  0  0  0  0  0  0  0  0  0  0  0
    4.3727   -5.4890    0.0000 C   0  0  0  0  0  0  0  0  0  0  0  0
    5.0872   -5.9015    0.0000 C   0  0  0  0  0  0  0  0  0  0  0  0
    5.8016   -5.4890    0.0000 O   0  0  0  0  0  0  0  0  0  0  0  0
    2.9437   -5.4890    0.0000 O   0  0  0  0  0  0  0  0  0  0  0  0
    5.8016   -7.9640    0.0000 O   0  0  0  0  0  0  0  0  0  0  0  0
    7.2305   -7.1390    0.0000 O   0  0  0  0  0  0  0  0  0  0  0  0
    7.2305   -4.6640    0.0000 C   0  0  0  0  0  0  0  0  0  0  0  0
    7.9450   -4.2515    0.0000 C   0  0  0  0  0  0  0  0  0  0  0  0
    7.9450   -3.4265    0.0000 O   0  0  0  0  0  0  0  0  0  0  0  0
    8.6595   -4.6640    0.0000 C   0  0  0  0  0  0  0  0  0  0  0  0
    9.3739   -4.2515    0.0000 O   0  0  0  0  0  0  0  0  0  0  0  0
  1  2  1  0  0  0  0
  2  3  1  0  0  0  0
  3  4  2  0  0  0  0
  4  5  1  0  0  0  0
  4  6  1  0  0  0  0
  1  7  2  0  0  0  0
  7  8  1  0  0  0  0
  8  9  1  0  0  0  0
  9 10  2  0  0  0  0
 10 11  1  0  0  0  0
 11 12  1  0  0  0  0
 12 13  1  0  0  0  0
 13 14  1  0  0  0  0
 13 15  2  0  0  0  0
 15 16  1  0  0  0  0
 16 17  2  0  0  0  0
 17 18  1  0  0  0  0
 12 18  2  0  0  0  0
 18 19  1  0  0  0  0
  9 19  1  0  0  0  0
 16 20  1  0  0  0  0
 11 21  2  0  0  0  0
 10 22  1  0  0  0  0
  8 23  2  0  0  0  0
 23 24  1  0  0  0  0
 24 25  1  0  0  0  0
 24 26  2  0  0  0  0
  1 26  1  0  0  0  0
 26 27  1  0  0  0  0
M  END
>  <cdx:fragmentId>
2166

$$$$
