5315125.cdx
  Mrv1902 05222410212D          

 26 28  0  0  0  0            999 V2000
    3.6857   -6.2315    0.0000 C   0  0  0  0  0  0  0  0  0  0  0  0
    3.6857   -7.0565    0.0000 C   0  0  0  0  0  0  0  0  0  0  0  0
    4.4002   -7.4690    0.0000 C   0  0  0  0  0  0  0  0  0  0  0  0
    5.1146   -7.0565    0.0000 C   0  0  0  0  0  0  0  0  0  0  0  0
    5.1146   -6.2315    0.0000 C   0  0  0  0  0  0  0  0  0  0  0  0
    4.4002   -5.8190    0.0000 C   0  0  0  0  0  0  0  0  0  0  0  0
    5.8291   -7.4690    0.0000 C   0  0  0  0  0  0  0  0  0  0  0  0
    6.5436   -7.0565    0.0000 C   0  0  0  0  0  0  0  0  0  0  0  0
    6.5436   -6.2315    0.0000 C   0  0  0  0  0  0  0  0  0  0  0  0
    5.8291   -5.8190    0.0000 O   0  0  0  0  0  0  0  0  0  0  0  0
    5.8291   -8.2940    0.0000 O   0  0  0  0  0  0  0  0  0  0  0  0
    4.4002   -8.2940    0.0000 O   0  0  0  0  0  0  0  0  0  0  0  0
    2.9712   -5.8190    0.0000 O   0  0  0  0  0  0  0  0  0  0  0  0
    7.2580   -5.8190    0.0000 C   0  0  0  0  0  0  0  0  0  0  0  0
    7.9725   -6.2315    0.0000 C   0  0  0  0  0  0  0  0  0  0  0  0
    8.6870   -5.8190    0.0000 C   0  0  0  0  0  0  0  0  0  0  0  0
    8.6870   -4.9940    0.0000 C   0  0  0  0  0  0  0  0  0  0  0  0
    7.9725   -4.5815    0.0000 C   0  0  0  0  0  0  0  0  0  0  0  0
    7.2580   -4.9940    0.0000 C   0  0  0  0  0  0  0  0  0  0  0  0
    9.4015   -6.2315    0.0000 C   0  0  0  0  0  0  0  0  0  0  0  0
   10.1159   -5.8190    0.0000 C   0  0  0  0  0  0  0  0  0  0  0  0
   10.8304   -6.2315    0.0000 C   0  0  0  0  0  0  0  0  0  0  0  0
   11.5449   -5.8190    0.0000 C   0  0  0  0  0  0  0  0  0  0  0  0
   10.8304   -7.0565    0.0000 C   0  0  0  0  0  0  0  0  0  0  0  0
    9.4015   -4.5815    0.0000 O   0  0  0  0  0  0  0  0  0  0  0  0
    7.9725   -3.7565    0.0000 O   0  0  0  0  0  0  0  0  0  0  0  0
  1  2  1  0  0  0  0
  2  3  2  0  0  0  0
  3  4  1  0  0  0  0
  4  5  2  0  0  0  0
  5  6  1  0  0  0  0
  6  1  2  0  0  0  0
  4  7  1  0  0  0  0
  7  8  1  0  0  0  0
  8  9  2  0  0  0  0
  9 10  1  0  0  0  0
 10  5  1  0  0  0  0
  7 11  2  0  0  0  0
  3 12  1  0  0  0  0
  1 13  1  0  0  0  0
  9 14  1  0  0  0  0
 14 15  1  0  0  0  0
 15 16  2  0  0  0  0
 16 17  1  0  0  0  0
 17 18  2  0  0  0  0
 18 19  1  0  0  0  0
 19 14  2  0  0  0  0
 16 20  1  0  0  0  0
 20 21  1  0  0  0  0
 21 22  2  0  0  0  0
 22 23  1  0  0  0  0
 22 24  1  0  0  0  0
 17 25  1  0  0  0  0
 18 26  1  0  0  0  0
M  END
>  <cdx:fragmentId>
2084

$$$$
