315171.cdx
  Mrv1902 05222410262D          

 35 39  0  0  0  0            999 V2000
    4.7910   -8.5250    0.0000 C   0  0  0  0  0  0  0  0  0  0  0  0
    4.0765   -8.9375    0.0000 C   0  0  0  0  0  0  0  0  0  0  0  0
    4.0765   -9.7625    0.0000 C   0  0  1  0  0  0  0  0  0  0  0  0
    4.7910  -10.1750    0.0000 C   0  0  2  0  0  0  0  0  0  0  0  0
    5.5055   -9.7625    0.0000 C   0  0  2  0  0  0  0  0  0  0  0  0
    6.2199  -10.1750    0.0000 C   0  0  0  0  0  0  0  0  0  0  0  0
    6.9344   -9.7625    0.0000 C   0  0  0  0  0  0  0  0  0  0  0  0
    6.9344   -8.9375    0.0000 C   0  0  1  0  0  0  0  0  0  0  0  0
    7.6489   -8.5250    0.0000 C   0  0  2  0  0  0  0  0  0  0  0  0
    8.3633   -8.9375    0.0000 C   0  0  0  0  0  0  0  0  0  0  0  0
    9.0778   -8.5250    0.0000 C   0  0  1  0  0  0  0  0  0  0  0  0
    9.0778   -7.7000    0.0000 C   0  0  1  0  0  0  0  0  0  0  0  0
    9.7923   -7.2875    0.0000 C   0  0  0  0  0  0  0  0  0  0  0  0
    9.7923   -6.4625    0.0000 C   0  0  0  0  0  0  0  0  0  0  0  0
    9.0778   -6.0500    0.0000 C   0  0  1  0  0  0  0  0  0  0  0  0
    8.3633   -6.4625    0.0000 C   0  0  0  0  0  0  0  0  0  0  0  0
    8.3633   -7.2875    0.0000 C   0  0  0  0  0  0  0  0  0  0  0  0
    7.6489   -7.7000    0.0000 C   0  0  0  0  0  0  0  0  0  0  0  0
    6.9344   -7.2875    0.0000 C   0  0  0  0  0  0  0  0  0  0  0  0
    6.2199   -7.7000    0.0000 C   0  0  0  0  0  0  0  0  0  0  0  0
    6.2199   -8.5250    0.0000 C   0  0  2  0  0  0  0  0  0  0  0  0
    5.5055   -8.9375    0.0000 C   0  0  1  0  0  0  0  0  0  0  0  0
    3.3620  -10.1750    0.0000 O   0  0  0  0  0  0  0  0  0  0  0  0
    9.7923   -8.9375    0.0000 O   0  0  0  0  0  0  0  0  0  0  0  0
    5.5055   -8.1125    0.0000 C   0  0  0  0  0  0  0  0  0  0  0  0
    8.6653   -5.3355    0.0000 C   0  0  0  0  0  0  0  0  0  0  0  0
    9.4903   -5.3355    0.0000 C   0  0  0  0  0  0  0  0  0  0  0  0
    7.6489   -9.3500    0.0000 C   0  0  0  0  0  0  0  0  0  0  0  0
    6.9344   -8.1125    0.0000 C   0  0  0  0  0  0  0  0  0  0  0  0
    5.2035  -10.8895    0.0000 C   0  0  0  0  0  0  0  0  0  0  0  0
    4.3785  -10.8895    0.0000 C   0  0  0  0  0  0  0  0  0  0  0  0
    9.7923   -8.1125    0.0000 C   0  0  0  0  0  0  0  0  0  0  0  0
   10.5068   -7.7000    0.0000 O   0  0  0  0  0  0  0  0  0  0  0  0
    5.5055  -10.5875    0.0000 H   0  0  0  0  0  0  0  0  0  0  0  0
    6.2199   -9.3500    0.0000 H   0  0  0  0  0  0  0  0  0  0  0  0
  1  2  1  0  0  0  0
  2  3  1  0  0  0  0
  3  4  1  0  0  0  0
  4  5  1  0  0  0  0
  5  6  1  0  0  0  0
  6  7  1  0  0  0  0
  7  8  1  0  0  0  0
  8  9  1  0  0  0  0
  9 10  1  0  0  0  0
 10 11  1  0  0  0  0
 11 12  1  0  0  0  0
 12 13  1  0  0  0  0
 13 14  1  0  0  0  0
 14 15  1  0  0  0  0
 15 16  1  0  0  0  0
 16 17  1  0  0  0  0
 12 17  1  0  0  0  0
 17 18  2  0  0  0  0
  9 18  1  0  0  0  0
 18 19  1  0  0  0  0
 19 20  2  0  0  0  0
 20 21  1  0  0  0  0
  8 21  1  0  0  0  0
 21 22  1  0  0  0  0
  5 22  1  0  0  0  0
  1 22  1  0  0  0  0
  3 23  1  1  0  0  0
 11 24  1  1  0  0  0
 22 25  1  1  0  0  0
 15 26  1  1  0  0  0
 15 27  1  6  0  0  0
  9 28  1  6  0  0  0
  8 29  1  1  0  0  0
  4 30  1  6  0  0  0
  4 31  1  1  0  0  0
 32 33  1  0  0  0  0
 12 32  1  1  0  0  0
  5 34  1  6  0  0  0
 21 35  1  6  0  0  0
M  END
>  <cdx:fragmentId>
91297

$$$$
