1-O-dimethoxycinnamoylquinic acid.cdx
  Mrv1902 05222410212D          

 27 28  0  0  0  0            999 V2000
    7.3471   -5.4384    0.0000 C   0  0  0  0  0  0  0  0  0  0  0  0
    6.9346   -6.1529    0.0000 C   0  0  0  0  0  0  0  0  0  0  0  0
    7.7278   -5.9262    0.0000 C   0  0  0  0  0  0  0  0  0  0  0  0
    8.5259   -6.1529    0.0000 C   0  0  0  0  0  0  0  0  0  0  0  0
    8.9385   -5.4384    0.0000 C   0  0  0  0  0  0  0  0  0  0  0  0
    8.1452   -5.6650    0.0000 C   0  0  0  0  0  0  0  0  0  0  0  0
    9.7354   -5.6519    0.0000 O   0  0  0  0  0  0  0  0  0  0  0  0
    8.5577   -4.9506    0.0000 O   0  0  0  0  0  0  0  0  0  0  0  0
    6.1377   -5.9393    0.0000 C   0  0  0  0  0  0  0  0  0  0  0  0
    5.5543   -6.5227    0.0000 O   0  0  0  0  0  0  0  0  0  0  0  0
    5.9242   -5.1425    0.0000 O   0  0  0  0  0  0  0  0  0  0  0  0
    6.9346   -6.9779    0.0000 O   0  0  0  0  0  0  0  0  0  0  0  0
    8.5259   -6.9779    0.0000 O   0  0  0  0  0  0  0  0  0  0  0  0
    7.3086   -7.7893    0.0000 C   0  0  0  0  0  0  0  0  0  0  0  0
    6.8345   -8.4644    0.0000 C   0  0  0  0  0  0  0  0  0  0  0  0
    7.1821   -9.2126    0.0000 C   0  0  0  0  0  0  0  0  0  0  0  0
    6.7080   -9.8878    0.0000 C   0  0  0  0  0  0  0  0  0  0  0  0
    5.8862   -9.8148    0.0000 C   0  0  0  0  0  0  0  0  0  0  0  0
    5.4121  -10.4899    0.0000 C   0  0  0  0  0  0  0  0  0  0  0  0
    5.7598  -11.2381    0.0000 C   0  0  0  0  0  0  0  0  0  0  0  0
    6.5816  -11.3111    0.0000 C   0  0  0  0  0  0  0  0  0  0  0  0
    7.0557  -10.6359    0.0000 C   0  0  0  0  0  0  0  0  0  0  0  0
    5.2857  -11.9133    0.0000 O   0  0  0  0  0  0  0  0  0  0  0  0
    4.4730  -12.0554    0.0000 C   0  0  0  0  0  0  0  0  0  0  0  0
    6.9292  -12.0593    0.0000 O   0  0  0  0  0  0  0  0  0  0  0  0
    7.7041  -12.3425    0.0000 C   0  0  0  0  0  0  0  0  0  0  0  0
    8.1303   -7.8623    0.0000 O   0  0  0  0  0  0  0  0  0  0  0  0
  1  2  1  0  0  0  0
  2  3  1  0  0  0  0
  3  4  1  0  0  0  0
  4  5  1  0  0  0  0
  5  6  1  0  0  0  0
  6  1  1  0  0  0  0
  5  7  1  0  0  0  0
  6  8  1  0  0  0  0
  2  9  1  0  0  0  0
  2 12  1  0  0  0  0
  4 13  1  0  0  0  0
 14 15  1  0  0  0  0
 15 16  2  0  0  0  0
 16 17  1  0  0  0  0
 17 18  2  0  0  0  0
 18 19  1  0  0  0  0
 19 20  2  0  0  0  0
 20 21  1  0  0  0  0
 21 22  2  0  0  0  0
 22 17  1  0  0  0  0
 20 23  1  0  0  0  0
 23 24  1  0  0  0  0
 21 25  1  0  0  0  0
 25 26  1  0  0  0  0
 14 27  2  0  0  0  0
 14 12  1  0  0  0  0
  9 10  2  0  0  0  0
  9 11  1  0  0  0  0
M  STY  1   1 SUP
M  SAL   1  3   9  10  11
M  SBL   1  1   9
M  SMT   1 COOH
M  SAP   1  1   9   2  1
M  END
>  <cdx:fragmentId>
64

$$$$
