315296.cdx
  Mrv1902 05222410222D          

 28 29  0  0  0  0            999 V2000
    4.8617   -8.7483    0.0000 C   0  0  0  0  0  0  0  0  0  0  0  0
    4.1459   -8.3382    0.0000 C   0  0  0  0  0  0  0  0  0  0  0  0
    4.1431   -7.5132    0.0000 C   0  0  0  0  0  0  0  0  0  0  0  0
    4.8561   -7.0983    0.0000 C   0  0  0  0  0  0  0  0  0  0  0  0
    5.5720   -7.5084    0.0000 C   0  0  0  0  0  0  0  0  0  0  0  0
    5.5748   -8.3334    0.0000 C   0  0  0  0  0  0  0  0  0  0  0  0
    4.8645   -9.5733    0.0000 O   0  0  0  0  0  0  0  0  0  0  0  0
    3.4272   -7.1032    0.0000 O   0  0  0  0  0  0  0  0  0  0  0  0
    3.4328   -8.7531    0.0000 O   0  0  0  0  0  0  0  0  0  0  0  0
    2.7169   -8.3431    0.0000 C   0  0  0  0  0  0  0  0  0  0  0  0
    6.2851   -7.0935    0.0000 C   0  0  0  0  0  0  0  0  0  0  0  0
    7.0009   -7.5036    0.0000 C   0  0  2  0  0  0  0  0  0  0  0  0
    7.7140   -7.0887    0.0000 C   0  0  2  0  0  0  0  0  0  0  0  0
    8.4299   -7.4988    0.0000 C   0  0  0  0  0  0  0  0  0  0  0  0
    7.7112   -6.2637    0.0000 C   0  0  0  0  0  0  0  0  0  0  0  0
    7.0037   -8.3286    0.0000 C   0  0  0  0  0  0  0  0  0  0  0  0
    9.1429   -7.0839    0.0000 C   0  0  0  0  0  0  0  0  0  0  0  0
    9.1402   -6.2589    0.0000 C   0  0  0  0  0  0  0  0  0  0  0  0
    9.8532   -5.8440    0.0000 C   0  0  0  0  0  0  0  0  0  0  0  0
   10.5691   -6.2540    0.0000 C   0  0  0  0  0  0  0  0  0  0  0  0
   10.5719   -7.0790    0.0000 C   0  0  0  0  0  0  0  0  0  0  0  0
    9.8588   -7.4940    0.0000 C   0  0  0  0  0  0  0  0  0  0  0  0
   11.2877   -7.4891    0.0000 O   0  0  0  0  0  0  0  0  0  0  0  0
   11.2822   -5.8391    0.0000 O   0  0  0  0  0  0  0  0  0  0  0  0
   11.9980   -6.2492    0.0000 C   0  0  0  0  0  0  0  0  0  0  0  0
    9.8504   -5.0190    0.0000 O   0  0  0  0  0  0  0  0  0  0  0  0
    5.5804   -9.9834    0.0000 C   0  0  0  0  0  0  0  0  0  0  0  0
    9.1346   -4.6089    0.0000 C   0  0  0  0  0  0  0  0  0  0  0  0
  1  2  1  0  0  0  0
  2  3  2  0  0  0  0
  3  4  1  0  0  0  0
  4  5  2  0  0  0  0
  5  6  1  0  0  0  0
  1  6  2  0  0  0  0
  1  7  1  0  0  0  0
  3  8  1  0  0  0  0
  9 10  1  0  0  0  0
  2  9  1  0  0  0  0
 11 12  1  0  0  0  0
 12 13  1  0  0  0  0
 13 14  1  0  0  0  0
 13 15  1  1  0  0  0
 12 16  1  6  0  0  0
 17 18  1  0  0  0  0
 18 19  2  0  0  0  0
 19 20  1  0  0  0  0
 20 21  2  0  0  0  0
 21 22  1  0  0  0  0
 17 22  2  0  0  0  0
 21 23  1  0  0  0  0
 24 25  1  0  0  0  0
 20 24  1  0  0  0  0
 19 26  1  0  0  0  0
 14 17  1  0  0  0  0
  5 11  1  0  0  0  0
  7 27  1  0  0  0  0
 26 28  1  0  0  0  0
M  END
>  <cdx:fragmentId>
7994

$$$$
