315350.cdx
  Mrv1902 05222410182D          

 29 31  0  0  0  0            999 V2000
    7.7739  -14.6349    0.0000 C   0  0  1  0  0  0  0  0  0  0  0  0
    8.4884  -14.2224    0.0000 C   0  0  1  0  0  0  0  0  0  0  0  0
    8.4884  -13.3974    0.0000 C   0  0  1  0  0  0  0  0  0  0  0  0
    7.7739  -12.9849    0.0000 C   0  0  0  0  0  0  0  0  0  0  0  0
    7.0595  -13.3974    0.0000 C   0  0  0  0  0  0  0  0  0  0  0  0
    7.0595  -14.2224    0.0000 O   0  0  0  0  0  0  0  0  0  0  0  0
    9.2730  -13.1425    0.0000 C   0  0  2  0  0  0  0  0  0  0  0  0
    9.7579  -13.8099    0.0000 C   0  0  0  0  0  0  0  0  0  0  0  0
    9.2730  -14.4774    0.0000 C   0  0  0  0  0  0  0  0  0  0  0  0
    7.7739  -12.1599    0.0000 C   0  0  0  0  0  0  0  0  0  0  0  0
    8.4884  -11.7474    0.0000 O   0  0  0  0  0  0  0  0  0  0  0  0
    7.0595  -11.7474    0.0000 O   0  0  0  0  0  0  0  0  0  0  0  0
    7.7739  -15.4599    0.0000 O   0  0  0  0  0  0  0  0  0  0  0  0
    6.3450  -15.4599    0.0000 O   0  0  0  0  0  0  0  0  0  0  0  0
    7.0595  -15.8724    0.0000 C   0  0  2  0  0  0  0  0  0  0  0  0
    7.0595  -16.6974    0.0000 C   0  0  1  0  0  0  0  0  0  0  0  0
    6.3450  -17.1099    0.0000 C   0  0  2  0  0  0  0  0  0  0  0  0
    5.6305  -16.6974    0.0000 C   0  0  1  0  0  0  0  0  0  0  0  0
    5.6305  -15.8724    0.0000 C   0  0  1  0  0  0  0  0  0  0  0  0
    4.9160  -15.4599    0.0000 C   0  0  0  0  0  0  0  0  0  0  0  0
    4.2016  -15.8724    0.0000 O   0  0  0  0  0  0  0  0  0  0  0  0
    4.9160  -17.1099    0.0000 O   0  0  0  0  0  0  0  0  0  0  0  0
    6.3450  -17.9349    0.0000 O   0  0  0  0  0  0  0  0  0  0  0  0
    7.7739  -17.1099    0.0000 O   0  0  0  0  0  0  0  0  0  0  0  0
    9.5280  -15.2620    0.0000 C   0  0  0  0  0  0  0  0  0  0  0  0
   10.3349  -15.4335    0.0000 O   0  0  0  0  0  0  0  0  0  0  0  0
    9.5280  -12.3579    0.0000 O   0  0  0  0  0  0  0  0  0  0  0  0
    8.5746  -12.5769    0.0000 H   0  0  0  0  0  0  0  0  0  0  0  0
    8.5746  -15.0429    0.0000 H   0  0  0  0  0  0  0  0  0  0  0  0
  1  2  1  0  0  0  0
  2  3  1  0  0  0  0
  3  4  1  0  0  0  0
  4  5  2  0  0  0  0
  5  6  1  0  0  0  0
  1  6  1  0  0  0  0
  7  8  1  0  0  0  0
  8  9  2  0  0  0  0
  9  2  1  0  0  0  0
  7  3  1  0  0  0  0
 10 11  2  0  0  0  0
 10 12  1  0  0  0  0
  4 10  1  0  0  0  0
 14 15  1  0  0  0  0
 15 16  1  0  0  0  0
 16 17  1  0  0  0  0
 17 18  1  0  0  0  0
 18 19  1  0  0  0  0
 14 19  1  0  0  0  0
 20 21  1  0  0  0  0
 19 20  1  1  0  0  0
 18 22  1  6  0  0  0
 17 23  1  1  0  0  0
 16 24  1  6  0  0  0
 15 13  1  1  0  0  0
  1 13  1  6  0  0  0
 25 26  1  0  0  0  0
  9 25  1  0  0  0  0
  7 27  1  1  0  0  0
  3 28  1  6  0  0  0
  2 29  1  6  0  0  0
M  END
>  <cdx:fragmentId>
91481

$$$$
