315459.cdx
  Mrv1902 05222410252D          

 41 46  0  0  0  0            999 V2000
    9.1422   -6.4828    0.0000 C   0  0  0  0  0  0  0  0  0  0  0  0
    9.1422   -5.6578    0.0000 C   0  0  0  0  0  0  0  0  0  0  0  0
    8.4277   -5.2453    0.0000 C   0  0  0  0  0  0  0  0  0  0  0  0
    7.7132   -5.6578    0.0000 C   0  0  0  0  0  0  0  0  0  0  0  0
    6.9988   -5.2453    0.0000 C   0  0  0  0  0  0  0  0  0  0  0  0
    6.2843   -5.6578    0.0000 C   0  0  0  0  0  0  0  0  0  0  0  0
    6.2843   -6.4828    0.0000 C   0  0  0  0  0  0  0  0  0  0  0  0
    6.9988   -6.8953    0.0000 C   0  0  0  0  0  0  0  0  0  0  0  0
    7.7132   -6.4828    0.0000 C   0  0  0  0  0  0  0  0  0  0  0  0
    8.4277   -6.8953    0.0000 O   0  0  0  0  0  0  0  0  0  0  0  0
    8.4277   -4.4203    0.0000 O   0  0  0  0  0  0  0  0  0  0  0  0
    9.8566   -6.8953    0.0000 C   0  0  0  0  0  0  0  0  0  0  0  0
   10.5711   -6.4828    0.0000 C   0  0  0  0  0  0  0  0  0  0  0  0
   11.2856   -6.8953    0.0000 C   0  0  0  0  0  0  0  0  0  0  0  0
   11.2856   -7.7203    0.0000 C   0  0  0  0  0  0  0  0  0  0  0  0
   10.5711   -8.1328    0.0000 C   0  0  0  0  0  0  0  0  0  0  0  0
    9.8566   -7.7203    0.0000 C   0  0  0  0  0  0  0  0  0  0  0  0
   12.0001   -8.1328    0.0000 O   0  0  0  0  0  0  0  0  0  0  0  0
    5.5698   -6.8953    0.0000 O   0  0  0  0  0  0  0  0  0  0  0  0
    6.9988   -4.4203    0.0000 O   0  0  0  0  0  0  0  0  0  0  0  0
    6.9988   -7.7203    0.0000 C   0  0  0  0  0  0  0  0  0  0  0  0
    6.2843   -8.1328    0.0000 C   0  0  0  0  0  0  0  0  0  0  0  0
    6.2843   -8.9578    0.0000 C   0  0  0  0  0  0  0  0  0  0  0  0
    6.9988   -9.3703    0.0000 C   0  0  0  0  0  0  0  0  0  0  0  0
    7.7132   -8.9578    0.0000 C   0  0  0  0  0  0  0  0  0  0  0  0
    7.7132   -8.1328    0.0000 C   0  0  0  0  0  0  0  0  0  0  0  0
    5.5698   -7.7203    0.0000 O   0  0  0  0  0  0  0  0  0  0  0  0
    4.8553   -8.1328    0.0000 C   0  0  0  0  0  0  0  0  0  0  0  0
    8.4277   -9.3703    0.0000 C   0  0  0  0  0  0  0  0  0  0  0  0
    8.4277  -10.1953    0.0000 C   0  0  0  0  0  0  0  0  0  0  0  0
    9.1422  -10.6078    0.0000 C   0  0  0  0  0  0  0  0  0  0  0  0
    9.8566  -10.1953    0.0000 C   0  0  0  0  0  0  0  0  0  0  0  0
   10.5711  -10.6078    0.0000 C   0  0  0  0  0  0  0  0  0  0  0  0
   11.2856  -10.1953    0.0000 C   0  0  0  0  0  0  0  0  0  0  0  0
   11.2856   -9.3703    0.0000 C   0  0  0  0  0  0  0  0  0  0  0  0
   10.5711   -8.9578    0.0000 C   0  0  0  0  0  0  0  0  0  0  0  0
    9.8566   -9.3703    0.0000 C   0  0  0  0  0  0  0  0  0  0  0  0
    9.1422   -8.9578    0.0000 O   0  0  0  0  0  0  0  0  0  0  0  0
    9.1422  -11.4328    0.0000 O   0  0  0  0  0  0  0  0  0  0  0  0
   12.0001   -8.9578    0.0000 O   0  0  0  0  0  0  0  0  0  0  0  0
   10.5711  -11.4328    0.0000 O   0  0  0  0  0  0  0  0  0  0  0  0
  1  2  2  0  0  0  0
  2  3  1  0  0  0  0
  3  4  1  0  0  0  0
  4  5  1  0  0  0  0
  5  6  2  0  0  0  0
  6  7  1  0  0  0  0
  7  8  2  0  0  0  0
  8  9  1  0  0  0  0
  4  9  2  0  0  0  0
  9 10  1  0  0  0  0
  1 10  1  0  0  0  0
  3 11  2  0  0  0  0
 12 13  1  0  0  0  0
 13 14  2  0  0  0  0
 14 15  1  0  0  0  0
 15 16  2  0  0  0  0
 16 17  1  0  0  0  0
 12 17  2  0  0  0  0
 15 18  1  0  0  0  0
  1 12  1  0  0  0  0
  7 19  1  0  0  0  0
  5 20  1  0  0  0  0
 21 22  1  0  0  0  0
 22 23  2  0  0  0  0
 23 24  1  0  0  0  0
 24 25  2  0  0  0  0
 25 26  1  0  0  0  0
 21 26  2  0  0  0  0
 27 28  1  0  0  0  0
 22 27  1  0  0  0  0
 29 30  2  0  0  0  0
 30 31  1  0  0  0  0
 31 32  1  0  0  0  0
 32 33  1  0  0  0  0
 33 34  2  0  0  0  0
 34 35  1  0  0  0  0
 35 36  2  0  0  0  0
 36 37  1  0  0  0  0
 32 37  2  0  0  0  0
 37 38  1  0  0  0  0
 29 38  1  0  0  0  0
 31 39  2  0  0  0  0
 35 40  1  0  0  0  0
 33 41  1  0  0  0  0
 25 29  1  0  0  0  0
  8 21  1  0  0  0  0
M  END
>  <cdx:fragmentId>
2530

$$$$
