315469.cdx
  Mrv1902 05222410212D          

 16 16  0  0  0  0            999 V2000
   10.9289   -7.1718    0.0000 C   0  0  0  0  0  0  0  0  0  0  0  0
    4.4986   -5.9343    0.0000 C   0  0  0  0  0  0  0  0  0  0  0  0
    5.9276   -7.5843    0.0000 C   0  0  0  0  0  0  0  0  0  0  0  0
    5.2131   -7.1718    0.0000 C   0  0  0  0  0  0  0  0  0  0  0  0
    5.2131   -6.3468    0.0000 C   0  0  0  0  0  0  0  0  0  0  0  0
    5.9276   -5.9343    0.0000 C   0  0  0  0  0  0  0  0  0  0  0  0
    6.6420   -6.3468    0.0000 C   0  0  0  0  0  0  0  0  0  0  0  0
    6.6420   -7.1718    0.0000 C   0  0  0  0  0  0  0  0  0  0  0  0
    8.7855   -8.4093    0.0000 O   0  0  0  0  0  0  0  0  0  0  0  0
    7.3565   -8.4093    0.0000 C   0  0  0  0  0  0  0  0  0  0  0  0
    7.3565   -7.5843    0.0000 C   0  0  0  0  0  0  0  0  0  0  0  0
    8.0710   -7.1718    0.0000 C   0  0  0  0  0  0  0  0  0  0  0  0
    8.7855   -7.5843    0.0000 C   0  0  0  0  0  0  0  0  0  0  0  0
    9.4999   -7.1718    0.0000 C   0  0  0  0  0  0  0  0  0  0  0  0
   10.2144   -7.5843    0.0000 C   0  0  0  0  0  0  0  0  0  0  0  0
   10.2144   -8.4093    0.0000 C   0  0  0  0  0  0  0  0  0  0  0  0
 15  1  1  0  0  0  0
 11  8  1  0  0  0  0
  5  2  1  0  0  0  0
  8  3  2  0  0  0  0
  4  3  1  0  0  0  0
  5  4  2  0  0  0  0
  6  5  1  0  0  0  0
  7  6  2  0  0  0  0
  8  7  1  0  0  0  0
 13  9  1  0  0  0  0
 11 10  1  0  0  0  0
 12 11  1  0  0  0  0
 13 12  1  0  0  0  0
 14 13  1  0  0  0  0
 15 14  2  0  0  0  0
 16 15  1  0  0  0  0
M  END
>  <cdx:fragmentId>
2614

$$$$
