315501.cdx
  Mrv1902 05222410242D          

 29 31  0  0  0  0            999 V2000
    7.8001   -8.6605    0.0000 C   0  0  2  0  0  0  0  0  0  0  0  0
    8.1577   -7.9171    0.0000 C   0  0  2  0  0  0  0  0  0  0  0  0
    7.7995   -7.1739    0.0000 C   0  0  0  0  0  0  0  0  0  0  0  0
    6.9951   -6.9906    0.0000 C   0  0  2  0  0  0  0  0  0  0  0  0
    6.3503   -7.5052    0.0000 C   0  0  1  0  0  0  0  0  0  0  0  0
    6.3506   -8.3302    0.0000 C   0  0  2  0  0  0  0  0  0  0  0  0
    6.9958   -8.8444    0.0000 C   0  0  1  0  0  0  0  0  0  0  0  0
    8.3966   -9.2304    0.0000 C   0  0  0  0  0  0  0  0  0  0  0  0
    9.1229   -8.8392    0.0000 C   0  0  0  0  0  0  0  0  0  0  0  0
    8.9753   -8.0275    0.0000 O   0  0  0  0  0  0  0  0  0  0  0  0
    5.5656   -7.2506    0.0000 C   0  0  2  0  0  0  0  0  0  0  0  0
    5.0809   -7.9182    0.0000 C   0  0  0  0  0  0  0  0  0  0  0  0
    5.5722   -8.6029    0.0000 C   0  0  2  0  0  0  0  0  0  0  0  0
    6.3506   -9.1552    0.0000 C   0  0  0  0  0  0  0  0  0  0  0  0
    6.3503   -6.6802    0.0000 H   0  0  0  0  0  0  0  0  0  0  0  0
    6.8112   -6.1864    0.0000 C   0  0  0  0  0  0  0  0  0  0  0  0
    8.5154   -7.1736    0.0000 H   0  0  0  0  0  0  0  0  0  0  0  0
    9.8664   -9.1968    0.0000 O   0  0  0  0  0  0  0  0  0  0  0  0
    8.1830  -10.0273    0.0000 C   0  0  0  0  0  0  0  0  0  0  0  0
    7.4424   -9.4039    0.0000 H   0  0  0  0  0  0  0  0  0  0  0  0
    6.8125   -9.6488    0.0000 O   0  0  0  0  0  0  0  0  0  0  0  0
    7.0853  -10.4274    0.0000 C   0  0  0  0  0  0  0  0  0  0  0  0
    6.5474  -11.0529    0.0000 C   0  0  0  0  0  0  0  0  0  0  0  0
    7.8960  -10.5804    0.0000 O   0  0  0  0  0  0  0  0  0  0  0  0
    5.3239   -9.3897    0.0000 O   0  0  0  0  0  0  0  0  0  0  0  0
    5.3103   -6.4661    0.0000 O   0  0  0  0  0  0  0  0  0  0  0  0
    4.4997   -6.3130    0.0000 C   0  0  0  0  0  0  0  0  0  0  0  0
    4.2269   -5.5344    0.0000 C   0  0  0  0  0  0  0  0  0  0  0  0
    3.9618   -6.9385    0.0000 O   0  0  0  0  0  0  0  0  0  0  0  0
  1  2  1  0  0  0  0
  2  3  1  0  0  0  0
  3  4  1  0  0  0  0
  4  5  1  0  0  0  0
  5  6  1  0  0  0  0
  6  7  1  0  0  0  0
  7  1  1  0  0  0  0
  1  8  1  0  0  0  0
  8  9  1  0  0  0  0
  9 10  1  0  0  0  0
 10  2  1  0  0  0  0
  5 11  1  0  0  0  0
 11 12  1  0  0  0  0
 12 13  1  0  0  0  0
 13  6  1  0  0  0  0
  6 14  1  1  0  0  0
  5 15  1  6  0  0  0
  4 16  1  6  0  0  0
  2 17  1  1  0  0  0
  9 18  2  0  0  0  0
  8 19  2  0  0  0  0
  1 20  1  6  0  0  0
  7 21  1  6  0  0  0
 21 22  1  0  0  0  0
 22 23  1  0  0  0  0
 22 24  2  0  0  0  0
 13 25  1  1  0  0  0
 11 26  1  6  0  0  0
 26 27  1  0  0  0  0
 27 28  1  0  0  0  0
 27 29  2  0  0  0  0
M  END
>  <cdx:fragmentId>
2748

$$$$
