315597.cdx
  Mrv1902 05222410182D          

 25 30  0  0  0  0            999 V2000
    7.1539   -6.9371    0.0000 C   0  0  0  0  0  0  0  0  0  0  0  0
    7.1575   -7.7621    0.0000 C   0  0  0  0  0  0  0  0  0  0  0  0
    6.4449   -8.1778    0.0000 C   0  0  0  0  0  0  0  0  0  0  0  0
    5.7286   -7.7685    0.0000 C   0  0  0  0  0  0  0  0  0  0  0  0
    5.0160   -8.1841    0.0000 C   0  0  0  0  0  0  0  0  0  0  0  0
    5.0197   -9.0091    0.0000 C   0  0  0  0  0  0  0  0  0  0  0  0
    4.4090   -9.5639    0.0000 O   0  0  0  0  0  0  0  0  0  0  0  0
    4.7479  -10.3161    0.0000 C   0  0  0  0  0  0  0  0  0  0  0  0
    5.5680  -10.2262    0.0000 O   0  0  0  0  0  0  0  0  0  0  0  0
    5.7360   -9.4185    0.0000 C   0  0  0  0  0  0  0  0  0  0  0  0
    6.4486   -9.0028    0.0000 C   0  0  0  0  0  0  0  0  0  0  0  0
    7.1649   -9.4121    0.0000 C   0  0  0  0  0  0  0  0  0  0  0  0
    7.8775   -8.9964    0.0000 N   0  0  0  0  0  0  0  0  0  0  0  0
    8.5938   -9.4057    0.0000 C   0  0  0  0  0  0  0  0  0  0  0  0
    9.3065   -8.9901    0.0000 C   0  0  0  0  0  0  0  0  0  0  0  0
    9.3028   -8.1651    0.0000 C   0  0  0  0  0  0  0  0  0  0  0  0
   10.0154   -7.7494    0.0000 C   0  0  0  0  0  0  0  0  0  0  0  0
   10.0117   -6.9244    0.0000 C   0  0  0  0  0  0  0  0  0  0  0  0
   10.6224   -6.3696    0.0000 O   0  0  0  0  0  0  0  0  0  0  0  0
   10.2835   -5.6175    0.0000 C   0  0  0  0  0  0  0  0  0  0  0  0
    9.4634   -5.7073    0.0000 O   0  0  0  0  0  0  0  0  0  0  0  0
    9.2954   -6.5151    0.0000 C   0  0  0  0  0  0  0  0  0  0  0  0
    8.5828   -6.9308    0.0000 C   0  0  0  0  0  0  0  0  0  0  0  0
    8.5865   -7.7557    0.0000 C   0  0  0  0  0  0  0  0  0  0  0  0
    7.8739   -8.1714    0.0000 C   0  0  0  0  0  0  0  0  0  0  0  0
  2  1  1  0  0  0  0
 22 18  2  0  0  0  0
 24 16  1  0  0  0  0
 10  6  2  0  0  0  0
 11  3  2  0  0  0  0
 25 13  1  0  0  0  0
 25  2  1  0  0  0  0
  3  2  1  0  0  0  0
  4  3  1  0  0  0  0
  5  4  2  0  0  0  0
  6  5  1  0  0  0  0
  7  6  1  0  0  0  0
  8  7  1  0  0  0  0
  9  8  1  0  0  0  0
 10  9  1  0  0  0  0
 11 10  1  0  0  0  0
 12 11  1  0  0  0  0
 13 12  1  0  0  0  0
 14 13  1  0  0  0  0
 15 14  1  0  0  0  0
 16 15  1  0  0  0  0
 17 16  2  0  0  0  0
 18 17  1  0  0  0  0
 19 18  1  0  0  0  0
 20 19  1  0  0  0  0
 21 20  1  0  0  0  0
 22 21  1  0  0  0  0
 23 22  1  0  0  0  0
 24 23  2  0  0  0  0
 25 24  1  0  0  0  0
M  END
>  <cdx:fragmentId>
105307

$$$$
