12315507.cdx
  Mrv1902 05222410262D          

 33 36  0  0  0  0            999 V2000
   10.4332  -13.5960    0.0000 C   0  0  1  0  0  0  0  0  0  0  0  0
   11.1477  -14.0085    0.0000 C   0  0  0  0  0  0  0  0  0  0  0  0
   11.1477  -14.8335    0.0000 C   0  0  0  0  0  0  0  0  0  0  0  0
   10.4332  -15.2460    0.0000 C   0  0  0  0  0  0  0  0  0  0  0  0
    9.7187  -14.8335    0.0000 C   0  0  1  0  0  0  0  0  0  0  0  0
    9.0042  -15.2460    0.0000 C   0  0  2  0  0  0  0  0  0  0  0  0
    9.0042  -16.0710    0.0000 C   0  0  0  0  0  0  0  0  0  0  0  0
    8.2898  -16.4835    0.0000 C   0  0  0  0  0  0  0  0  0  0  0  0
    7.5753  -16.0710    0.0000 C   0  0  1  0  0  0  0  0  0  0  0  0
    6.8608  -16.4835    0.0000 C   0  0  0  0  0  0  0  0  0  0  0  0
    6.1464  -16.0710    0.0000 C   0  0  1  0  0  0  0  0  0  0  0  0
    6.1464  -15.2460    0.0000 C   0  0  0  0  0  0  0  0  0  0  0  0
    6.8608  -14.8335    0.0000 C   0  0  0  0  0  0  0  0  0  0  0  0
    7.5753  -15.2460    0.0000 C   0  0  2  0  0  0  0  0  0  0  0  0
    8.2898  -14.8335    0.0000 C   0  0  1  0  0  0  0  0  0  0  0  0
    8.2898  -14.0085    0.0000 C   0  0  0  0  0  0  0  0  0  0  0  0
    9.0042  -13.5960    0.0000 C   0  0  0  0  0  0  0  0  0  0  0  0
    9.7187  -14.0085    0.0000 C   0  0  2  0  0  0  0  0  0  0  0  0
   11.8621  -13.5960    0.0000 O   0  0  0  0  0  0  0  0  0  0  0  0
    5.4319  -16.4835    0.0000 C   0  0  0  0  0  0  0  0  0  0  0  0
    4.7174  -16.0710    0.0000 C   0  0  0  0  0  0  0  0  0  0  0  0
    4.0029  -16.4835    0.0000 C   0  0  0  0  0  0  0  0  0  0  0  0
    3.2885  -16.0710    0.0000 C   0  0  0  0  0  0  0  0  0  0  0  0
    2.5740  -16.4835    0.0000 C   0  0  0  0  0  0  0  0  0  0  0  0
    3.2885  -15.2460    0.0000 C   0  0  0  0  0  0  0  0  0  0  0  0
    9.7187  -13.1835    0.0000 C   0  0  0  0  0  0  0  0  0  0  0  0
    7.5753  -14.4210    0.0000 C   0  0  0  0  0  0  0  0  0  0  0  0
    6.1464  -16.8960    0.0000 C   0  0  0  0  0  0  0  0  0  0  0  0
    7.5753  -16.8960    0.0000 C   0  0  0  0  0  0  0  0  0  0  0  0
    9.0042  -14.4210    0.0000 C   0  0  0  0  0  0  0  0  0  0  0  0
   10.4332  -12.7710    0.0000 C   0  0  0  0  0  0  0  0  0  0  0  0
    9.7187  -15.6585    0.0000 H   0  0  0  0  0  0  0  0  0  0  0  0
    8.2898  -15.6585    0.0000 H   0  0  0  0  0  0  0  0  0  0  0  0
  1  2  1  0  0  0  0
  2  3  1  0  0  0  0
  3  4  1  0  0  0  0
  4  5  1  0  0  0  0
  5  6  1  0  0  0  0
  6  7  1  0  0  0  0
  7  8  1  0  0  0  0
  8  9  1  0  0  0  0
  9 10  1  0  0  0  0
 10 11  1  0  0  0  0
 11 12  1  0  0  0  0
 12 13  1  0  0  0  0
 13 14  1  0  0  0  0
  9 14  1  0  0  0  0
 14 15  1  0  0  0  0
  6 15  1  0  0  0  0
 15 16  1  0  0  0  0
 16 17  1  0  0  0  0
 17 18  1  0  0  0  0
  5 18  1  0  0  0  0
  1 18  1  0  0  0  0
  2 19  2  0  0  0  0
 20 21  1  0  0  0  0
 21 22  1  0  0  0  0
 22 23  2  0  0  0  0
 23 24  1  0  0  0  0
 23 25  1  0  0  0  0
 11 20  1  0  0  0  0
 18 26  1  1  0  0  0
 14 27  1  1  0  0  0
 11 28  1  1  0  0  0
  9 29  1  6  0  0  0
  6 30  1  1  0  0  0
  1 31  1  1  0  0  0
  5 32  1  6  0  0  0
 15 33  1  6  0  0  0
M  END
>  <cdx:groupId>
91676

>  <cdx:fragmentId>
91577

$$$$
