315502.cdx
  Mrv1902 05222410232D          

 19 20  0  0  0  0            999 V2000
    3.1124   -7.0304    0.0000 C   0  0  0  0  0  0  0  0  0  0  0  0
    3.8268   -7.4429    0.0000 O   0  0  0  0  0  0  0  0  0  0  0  0
    4.5413   -7.0304    0.0000 C   0  0  0  0  0  0  0  0  0  0  0  0
    5.2558   -7.4429    0.0000 C   0  0  0  0  0  0  0  0  0  0  0  0
    5.9703   -7.0304    0.0000 C   0  0  0  0  0  0  0  0  0  0  0  0
    5.9703   -6.2054    0.0000 C   0  0  0  0  0  0  0  0  0  0  0  0
    5.2558   -5.7929    0.0000 C   0  0  0  0  0  0  0  0  0  0  0  0
    4.5413   -6.2054    0.0000 C   0  0  0  0  0  0  0  0  0  0  0  0
    6.6847   -5.7929    0.0000 C   0  0  0  0  0  0  0  0  0  0  0  0
    7.3992   -6.2054    0.0000 C   0  0  0  0  0  0  0  0  0  0  0  0
    8.1137   -5.7929    0.0000 C   0  0  0  0  0  0  0  0  0  0  0  0
    8.8281   -6.2054    0.0000 C   0  0  0  0  0  0  0  0  0  0  0  0
    9.5426   -5.7929    0.0000 C   0  0  0  0  0  0  0  0  0  0  0  0
   10.2571   -6.2054    0.0000 C   0  0  0  0  0  0  0  0  0  0  0  0
   10.2571   -7.0304    0.0000 C   0  0  0  0  0  0  0  0  0  0  0  0
    9.5426   -7.4429    0.0000 C   0  0  0  0  0  0  0  0  0  0  0  0
    8.8281   -7.0304    0.0000 C   0  0  0  0  0  0  0  0  0  0  0  0
   10.9716   -7.4429    0.0000 O   0  0  0  0  0  0  0  0  0  0  0  0
    6.6847   -7.4429    0.0000 O   0  0  0  0  0  0  0  0  0  0  0  0
  1  2  1  0  0  0  0
  2  3  1  0  0  0  0
  3  4  2  0  0  0  0
  4  5  1  0  0  0  0
  5  6  2  0  0  0  0
  6  7  1  0  0  0  0
  7  8  2  0  0  0  0
  3  8  1  0  0  0  0
  6  9  1  0  0  0  0
  9 10  1  0  0  0  0
 10 11  1  0  0  0  0
 11 12  1  0  0  0  0
 12 13  2  0  0  0  0
 13 14  1  0  0  0  0
 14 15  2  0  0  0  0
 15 16  1  0  0  0  0
 16 17  2  0  0  0  0
 12 17  1  0  0  0  0
 15 18  1  0  0  0  0
  5 19  1  0  0  0  0
M  END
>  <cdx:fragmentId>
2830

$$$$
