5315675.cdx
  Mrv1902 05222410232D          

 13 13  0  0  0  0            999 V2000
   14.7586   -8.1413    0.0000 C   0  0  0  0  0  0  0  0  0  0  0  0
   15.4731   -8.5538    0.0000 C   0  0  0  0  0  0  0  0  0  0  0  0
   16.1875   -8.1413    0.0000 C   0  0  0  0  0  0  0  0  0  0  0  0
   16.9020   -8.5538    0.0000 C   0  0  0  0  0  0  0  0  0  0  0  0
   17.6165   -8.1413    0.0000 C   0  0  0  0  0  0  0  0  0  0  0  0
   18.3309   -8.5538    0.0000 C   0  0  0  0  0  0  0  0  0  0  0  0
   14.7586   -7.3163    0.0000 O   0  0  0  0  0  0  0  0  0  0  0  0
   14.0441   -8.5538    0.0000 C   0  0  0  0  0  0  0  0  0  0  0  0
   14.0441   -9.3788    0.0000 C   0  0  0  0  0  0  0  0  0  0  0  0
   13.3296   -9.7913    0.0000 C   0  0  0  0  0  0  0  0  0  0  0  0
   12.6152   -9.3788    0.0000 C   0  0  0  0  0  0  0  0  0  0  0  0
   12.6152   -8.5538    0.0000 C   0  0  0  0  0  0  0  0  0  0  0  0
   13.3296   -8.1413    0.0000 C   0  0  0  0  0  0  0  0  0  0  0  0
  1  2  1  0  0  0  0
  2  3  2  0  0  0  0
  3  4  1  0  0  0  0
  4  5  2  0  0  0  0
  5  6  1  0  0  0  0
  1  7  2  0  0  0  0
  8  9  1  0  0  0  0
  9 10  2  0  0  0  0
 10 11  1  0  0  0  0
 11 12  2  0  0  0  0
 12 13  1  0  0  0  0
  8 13  2  0  0  0  0
  1  8  1  0  0  0  0
M  END
>  <cdx:groupId>
3251

>  <cdx:fragmentId>
3215

$$$$
