315651.cdx
  Mrv1902 05222410222D          

 46 49  0  0  0  0            999 V2000
    5.4758   -8.8772    0.0000 C   0  0  0  0  0  0  0  0  0  0  0  0
    4.7613   -9.2897    0.0000 C   0  0  0  0  0  0  0  0  0  0  0  0
    4.0468   -8.8772    0.0000 C   0  0  0  0  0  0  0  0  0  0  0  0
    5.4758   -8.0522    0.0000 O   0  0  0  0  0  0  0  0  0  0  0  0
    6.1903   -9.2897    0.0000 O   0  0  0  0  0  0  0  0  0  0  0  0
    3.3324   -9.2897    0.0000 C   0  0  0  0  0  0  0  0  0  0  0  0
    2.6179   -8.8772    0.0000 C   0  0  0  0  0  0  0  0  0  0  0  0
    1.9034   -9.2897    0.0000 C   0  0  0  0  0  0  0  0  0  0  0  0
    1.9034  -10.1147    0.0000 C   0  0  0  0  0  0  0  0  0  0  0  0
    2.6179  -10.5272    0.0000 C   0  0  0  0  0  0  0  0  0  0  0  0
    3.3324  -10.1147    0.0000 C   0  0  0  0  0  0  0  0  0  0  0  0
    1.1890  -10.5272    0.0000 O   0  0  0  0  0  0  0  0  0  0  0  0
    1.1890   -8.8772    0.0000 O   0  0  0  0  0  0  0  0  0  0  0  0
    7.6192   -7.6397    0.0000 O   0  0  0  0  0  0  0  0  0  0  0  0
    6.9047   -8.0522    0.0000 C   0  0  1  0  0  0  0  0  0  0  0  0
    6.9047   -8.8772    0.0000 C   0  0  2  0  0  0  0  0  0  0  0  0
    7.6192   -9.2897    0.0000 C   0  0  1  0  0  0  0  0  0  0  0  0
    8.3337   -8.8772    0.0000 C   0  0  2  0  0  0  0  0  0  0  0  0
    8.3337   -8.0522    0.0000 C   0  0  2  0  0  0  0  0  0  0  0  0
    7.6192  -10.1147    0.0000 O   0  0  0  0  0  0  0  0  0  0  0  0
    6.1903  -10.1147    0.0000 O   0  0  0  0  0  0  0  0  0  0  0  0
    6.9047  -10.5272    0.0000 C   0  0  2  0  0  0  0  0  0  0  0  0
    6.9047  -11.3522    0.0000 C   0  0  1  0  0  0  0  0  0  0  0  0
    6.1903  -11.7647    0.0000 C   0  0  1  0  0  0  0  0  0  0  0  0
    5.4758  -11.3522    0.0000 C   0  0  2  0  0  0  0  0  0  0  0  0
    5.4758  -10.5272    0.0000 C   0  0  2  0  0  0  0  0  0  0  0  0
    4.7613  -10.1147    0.0000 C   0  0  0  0  0  0  0  0  0  0  0  0
    4.7613  -11.7647    0.0000 O   0  0  0  0  0  0  0  0  0  0  0  0
    6.1903  -12.5897    0.0000 O   0  0  0  0  0  0  0  0  0  0  0  0
    7.6192  -11.7647    0.0000 O   0  0  0  0  0  0  0  0  0  0  0  0
    6.1903   -7.6397    0.0000 C   0  0  0  0  0  0  0  0  0  0  0  0
    6.1903   -6.8147    0.0000 O   0  0  0  0  0  0  0  0  0  0  0  0
    9.0481   -9.2897    0.0000 O   0  0  0  0  0  0  0  0  0  0  0  0
    9.0481   -7.6397    0.0000 O   0  0  0  0  0  0  0  0  0  0  0  0
    9.7626   -8.0522    0.0000 C   0  0  0  0  0  0  0  0  0  0  0  0
   11.1915   -8.0522    0.0000 C   0  0  0  0  0  0  0  0  0  0  0  0
   11.9060   -7.6397    0.0000 C   0  0  0  0  0  0  0  0  0  0  0  0
   12.6205   -8.0522    0.0000 C   0  0  0  0  0  0  0  0  0  0  0  0
   12.6205   -8.8772    0.0000 C   0  0  0  0  0  0  0  0  0  0  0  0
   11.9060   -9.2897    0.0000 C   0  0  0  0  0  0  0  0  0  0  0  0
   11.1915   -8.8772    0.0000 C   0  0  0  0  0  0  0  0  0  0  0  0
   13.3350   -9.2897    0.0000 O   0  0  0  0  0  0  0  0  0  0  0  0
   13.3350   -7.6397    0.0000 O   0  0  0  0  0  0  0  0  0  0  0  0
   11.1915   -6.4022    0.0000 C   0  0  0  0  0  0  0  0  0  0  0  0
   10.4771   -6.8147    0.0000 O   0  0  0  0  0  0  0  0  0  0  0  0
   10.4771   -7.6397    0.0000 C   0  0  0  0  0  0  0  0  0  0  0  0
 46 36  1  0  0  0  0
 46 45  1  0  0  0  0
 45 44  1  0  0  0  0
  1  2  1  0  0  0  0
  2  3  2  0  0  0  0
  1  4  2  0  0  0  0
  1  5  1  0  0  0  0
  6  7  1  0  0  0  0
  7  8  2  0  0  0  0
  8  9  1  0  0  0  0
  9 10  2  0  0  0  0
 10 11  1  0  0  0  0
  6 11  2  0  0  0  0
  9 12  1  0  0  0  0
  8 13  1  0  0  0  0
  3  6  1  0  0  0  0
 14 15  1  0  0  0  0
 15 16  1  0  0  0  0
 16 17  1  0  0  0  0
 17 18  1  0  0  0  0
 18 19  1  0  0  0  0
 14 19  1  0  0  0  0
 21 22  1  0  0  0  0
 22 23  1  0  0  0  0
 23 24  1  0  0  0  0
 24 25  1  0  0  0  0
 25 26  1  0  0  0  0
 21 26  1  0  0  0  0
 26 27  1  6  0  0  0
 25 28  1  1  0  0  0
 24 29  1  6  0  0  0
 23 30  1  6  0  0  0
 22 20  1  1  0  0  0
 17 20  1  1  0  0  0
 31 32  1  0  0  0  0
 15 31  1  1  0  0  0
 18 33  1  6  0  0  0
 35 46  1  0  0  0  0
 34 35  1  0  0  0  0
 36 37  1  0  0  0  0
 37 38  2  0  0  0  0
 38 39  1  0  0  0  0
 39 40  2  0  0  0  0
 40 41  1  0  0  0  0
 36 41  2  0  0  0  0
 39 42  1  0  0  0  0
 38 43  1  0  0  0  0
 19 34  1  1  0  0  0
 16  5  1  6  0  0  0
M  END
>  <cdx:fragmentId>
45

$$$$
