315729.cdx
  Mrv1902 05222410232D          

 36 40  0  0  0  0            999 V2000
   11.2376   -8.3929    0.0000 C   0  0  0  0  0  0  0  0  0  0  0  0
   11.2376   -7.5682    0.0000 C   0  0  0  0  0  0  0  0  0  0  0  0
   10.5234   -7.1558    0.0000 C   0  0  0  0  0  0  0  0  0  0  0  0
    9.8091   -7.5682    0.0000 C   0  0  0  0  0  0  0  0  0  0  0  0
    9.8091   -8.3929    0.0000 C   0  0  0  0  0  0  0  0  0  0  0  0
   10.5234   -8.8053    0.0000 C   0  0  0  0  0  0  0  0  0  0  0  0
   11.9519   -8.8053    0.0000 O   0  0  0  0  0  0  0  0  0  0  0  0
   11.9519   -7.1558    0.0000 O   0  0  0  0  0  0  0  0  0  0  0  0
    8.3806   -5.9187    0.0000 O   0  0  0  0  0  0  0  0  0  0  0  0
    9.0949   -6.3311    0.0000 C   0  0  1  0  0  0  0  0  0  0  0  0
    9.0949   -7.1558    0.0000 C   0  0  2  0  0  0  0  0  0  0  0  0
    8.3806   -7.5682    0.0000 O   0  0  0  0  0  0  0  0  0  0  0  0
    7.6664   -7.1558    0.0000 C   0  0  0  0  0  0  0  0  0  0  0  0
    7.6664   -6.3311    0.0000 C   0  0  0  0  0  0  0  0  0  0  0  0
    6.9521   -7.5682    0.0000 C   0  0  0  0  0  0  0  0  0  0  0  0
    6.2379   -7.1558    0.0000 C   0  0  0  0  0  0  0  0  0  0  0  0
    6.2379   -6.3311    0.0000 C   0  0  0  0  0  0  0  0  0  0  0  0
    6.9521   -5.9187    0.0000 C   0  0  0  0  0  0  0  0  0  0  0  0
    5.5237   -7.5682    0.0000 C   0  0  0  0  0  0  0  0  0  0  0  0
    4.8094   -7.1558    0.0000 C   0  0  0  0  0  0  0  0  0  0  0  0
    4.0952   -7.5682    0.0000 C   0  0  0  0  0  0  0  0  0  0  0  0
    4.0952   -8.3929    0.0000 C   0  0  0  0  0  0  0  0  0  0  0  0
    3.3809   -8.8053    0.0000 C   0  0  0  0  0  0  0  0  0  0  0  0
    2.6667   -8.3929    0.0000 C   0  0  0  0  0  0  0  0  0  0  0  0
    2.6667   -7.5682    0.0000 C   0  0  0  0  0  0  0  0  0  0  0  0
    3.3809   -7.1558    0.0000 C   0  0  0  0  0  0  0  0  0  0  0  0
    1.9524   -7.1558    0.0000 O   0  0  0  0  0  0  0  0  0  0  0  0
    3.3809   -9.6301    0.0000 O   0  0  0  0  0  0  0  0  0  0  0  0
    9.8091   -5.9187    0.0000 C   0  0  0  0  0  0  0  0  0  0  0  0
    9.8091   -5.0940    0.0000 C   0  0  0  0  0  0  0  0  0  0  0  0
   10.5234   -4.6816    0.0000 C   0  0  0  0  0  0  0  0  0  0  0  0
   11.2376   -5.0940    0.0000 C   0  0  0  0  0  0  0  0  0  0  0  0
   11.2376   -5.9187    0.0000 C   0  0  0  0  0  0  0  0  0  0  0  0
   10.5234   -6.3311    0.0000 C   0  0  0  0  0  0  0  0  0  0  0  0
   11.9519   -6.3311    0.0000 O   0  0  0  0  0  0  0  0  0  0  0  0
   10.5234   -3.8569    0.0000 O   0  0  0  0  0  0  0  0  0  0  0  0
  1  2  1  0  0  0  0
  2  3  2  0  0  0  0
  3  4  1  0  0  0  0
  4  5  2  0  0  0  0
  5  6  1  0  0  0  0
  1  6  2  0  0  0  0
  1  7  1  0  0  0  0
  2  8  1  0  0  0  0
  9 10  1  0  0  0  0
 10 11  1  0  0  0  0
 11 12  1  0  0  0  0
 12 13  1  0  0  0  0
 13 14  1  0  0  0  0
  9 14  1  0  0  0  0
 15 16  1  0  0  0  0
 16 17  2  0  0  0  0
 17 18  1  0  0  0  0
 18 14  2  0  0  0  0
 15 13  2  0  0  0  0
 19 20  2  0  0  0  0
 21 22  1  0  0  0  0
 22 23  2  0  0  0  0
 23 24  1  0  0  0  0
 24 25  2  0  0  0  0
 25 26  1  0  0  0  0
 21 26  2  0  0  0  0
 25 27  1  0  0  0  0
 23 28  1  0  0  0  0
 20 21  1  0  0  0  0
 16 19  1  0  0  0  0
 29 30  1  0  0  0  0
 30 31  2  0  0  0  0
 31 32  1  0  0  0  0
 32 33  2  0  0  0  0
 33 34  1  0  0  0  0
 29 34  2  0  0  0  0
 33 35  1  0  0  0  0
 31 36  1  0  0  0  0
 10 29  1  6  0  0  0
 11  4  1  1  0  0  0
M  END
>  <cdx:fragmentId>
3275

$$$$
