315870.cdx
  Mrv1902 05222410212D          

 22 23  0  0  0  0            999 V2000
    7.6638   -6.7784    0.0000 O   0  0  0  0  0  0  0  0  0  0  0  0
    6.9493   -7.1908    0.0000 C   0  0  1  0  0  0  0  0  0  0  0  0
    6.9493   -8.0158    0.0000 C   0  0  2  0  0  0  0  0  0  0  0  0
    7.6637   -8.4284    0.0000 O   0  0  0  0  0  0  0  0  0  0  0  0
    6.2347   -8.4283    0.0000 C   0  0  1  0  0  0  0  0  0  0  0  0
    6.2347   -9.2533    0.0000 O   0  0  0  0  0  0  0  0  0  0  0  0
    5.5203   -8.0157    0.0000 C   0  0  2  0  0  0  0  0  0  0  0  0
    4.8058   -8.4281    0.0000 O   0  0  0  0  0  0  0  0  0  0  0  0
    5.5204   -7.1907    0.0000 C   0  0  2  0  0  0  0  0  0  0  0  0
    6.2349   -6.7783    0.0000 O   0  0  0  0  0  0  0  0  0  0  0  0
    4.8060   -6.7781    0.0000 C   0  0  0  0  0  0  0  0  0  0  0  0
    4.0914   -7.1905    0.0000 O   0  0  0  0  0  0  0  0  0  0  0  0
    8.3783   -7.1910    0.0000 C   0  0  0  0  0  0  0  0  0  0  0  0
    9.0928   -6.7785    0.0000 C   0  0  0  0  0  0  0  0  0  0  0  0
    9.8072   -7.1911    0.0000 C   0  0  0  0  0  0  0  0  0  0  0  0
    9.8071   -8.0161    0.0000 C   0  0  0  0  0  0  0  0  0  0  0  0
    9.0926   -8.4285    0.0000 C   0  0  0  0  0  0  0  0  0  0  0  0
    8.3782   -8.0160    0.0000 C   0  0  0  0  0  0  0  0  0  0  0  0
    9.0925   -9.2535    0.0000 C   0  0  0  0  0  0  0  0  0  0  0  0
    9.8070   -9.6661    0.0000 C   0  0  0  0  0  0  0  0  0  0  0  0
    9.8069  -10.4911    0.0000 O   0  0  0  0  0  0  0  0  0  0  0  0
    9.0929   -5.9535    0.0000 O   0  0  0  0  0  0  0  0  0  0  0  0
  2  1  1  1  0  0  0
  2  3  1  0  0  0  0
  3  4  1  6  0  0  0
  3  5  1  0  0  0  0
  5  6  1  1  0  0  0
  5  7  1  0  0  0  0
  7  8  1  6  0  0  0
  7  9  1  0  0  0  0
  9 10  1  0  0  0  0
  9 11  1  1  0  0  0
 11 12  1  0  0  0  0
  2 10  1  0  0  0  0
 13 14  1  0  0  0  0
 14 15  2  0  0  0  0
 15 16  1  0  0  0  0
 16 17  2  0  0  0  0
 17 18  1  0  0  0  0
 13 18  2  0  0  0  0
 19 20  1  0  0  0  0
 20 21  1  0  0  0  0
 17 19  1  0  0  0  0
 14 22  1  0  0  0  0
  1 13  1  0  0  0  0
M  END
>  <cdx:fragmentId>
3375

$$$$
