315892.cdx
  Mrv1902 05222410242D          

 10 10  0  0  0  0            999 V2000
    8.7896   -5.3589    0.0000 O   0  0  0  0  0  0  0  0  0  0  0  0
    8.0625   -8.2432    0.0000 C   0  0  0  0  0  0  0  0  0  0  0  0
    8.0588   -9.0682    0.0000 C   0  0  0  0  0  0  0  0  0  0  0  0
    7.3426   -9.4776    0.0000 C   0  0  0  0  0  0  0  0  0  0  0  0
    6.6299   -9.0620    0.0000 C   0  0  0  0  0  0  0  0  0  0  0  0
    6.6335   -8.2370    0.0000 C   0  0  0  0  0  0  0  0  0  0  0  0
    7.3498   -7.8276    0.0000 C   0  0  0  0  0  0  0  0  0  0  0  0
    7.3534   -7.0026    0.0000 C   0  0  0  0  0  0  0  0  0  0  0  0
    8.0697   -6.5933    0.0000 C   0  0  0  0  0  0  0  0  0  0  0  0
    8.0734   -5.7683    0.0000 C   0  0  0  0  0  0  0  0  0  0  0  0
 10  1  1  0  0  0  0
  7  2  2  0  0  0  0
  3  2  1  0  0  0  0
  4  3  2  0  0  0  0
  5  4  1  0  0  0  0
  6  5  2  0  0  0  0
  7  6  1  0  0  0  0
  8  7  1  0  0  0  0
  9  8  2  0  0  0  0
 10  9  1  0  0  0  0
M  END
>  <cdx:fragmentId>
3512

$$$$
