315874.cdx
  Mrv1902 05222410222D          

 26 27  0  0  0  0            999 V2000
    6.9047   -8.0641    0.0000 C   0  0  0  0  0  0  0  0  0  0  0  0
    6.1903   -7.6516    0.0000 C   0  0  0  0  0  0  0  0  0  0  0  0
    5.4758   -8.0641    0.0000 C   0  0  0  0  0  0  0  0  0  0  0  0
    6.9047   -8.8891    0.0000 O   0  0  0  0  0  0  0  0  0  0  0  0
    7.6192   -7.6516    0.0000 O   0  0  0  0  0  0  0  0  0  0  0  0
    4.7613   -7.6516    0.0000 C   0  0  0  0  0  0  0  0  0  0  0  0
    4.0468   -8.0641    0.0000 C   0  0  0  0  0  0  0  0  0  0  0  0
    3.3324   -7.6516    0.0000 C   0  0  0  0  0  0  0  0  0  0  0  0
    3.3324   -6.8266    0.0000 C   0  0  0  0  0  0  0  0  0  0  0  0
    4.0468   -6.4141    0.0000 C   0  0  0  0  0  0  0  0  0  0  0  0
    4.7613   -6.8266    0.0000 C   0  0  0  0  0  0  0  0  0  0  0  0
    2.6179   -6.4141    0.0000 O   0  0  0  0  0  0  0  0  0  0  0  0
    1.9034   -6.8266    0.0000 C   0  0  0  0  0  0  0  0  0  0  0  0
    2.6179   -8.0641    0.0000 O   0  0  0  0  0  0  0  0  0  0  0  0
    8.3337   -8.0641    0.0000 C   0  0  0  0  0  0  0  0  0  0  0  0
    9.0481   -7.6516    0.0000 C   0  0  0  0  0  0  0  0  0  0  0  0
    9.7626   -8.0641    0.0000 C   0  0  0  0  0  0  0  0  0  0  0  0
    9.0481   -6.8266    0.0000 O   0  0  0  0  0  0  0  0  0  0  0  0
   10.4771   -7.6516    0.0000 C   0  0  0  0  0  0  0  0  0  0  0  0
   11.1916   -8.0641    0.0000 C   0  0  0  0  0  0  0  0  0  0  0  0
   11.9060   -7.6516    0.0000 C   0  0  0  0  0  0  0  0  0  0  0  0
   11.9060   -6.8266    0.0000 C   0  0  0  0  0  0  0  0  0  0  0  0
   11.1916   -6.4141    0.0000 C   0  0  0  0  0  0  0  0  0  0  0  0
   10.4771   -6.8266    0.0000 C   0  0  0  0  0  0  0  0  0  0  0  0
   12.6205   -6.4141    0.0000 O   0  0  0  0  0  0  0  0  0  0  0  0
   12.6205   -8.0641    0.0000 O   0  0  0  0  0  0  0  0  0  0  0  0
  1  2  1  0  0  0  0
  2  3  2  0  0  0  0
  1  4  2  0  0  0  0
  1  5  1  0  0  0  0
  6  7  1  0  0  0  0
  7  8  2  0  0  0  0
  8  9  1  0  0  0  0
  9 10  2  0  0  0  0
 10 11  1  0  0  0  0
  6 11  2  0  0  0  0
 12 13  1  0  0  0  0
  9 12  1  0  0  0  0
  8 14  1  0  0  0  0
  3  6  1  0  0  0  0
 15 16  1  0  0  0  0
 16 17  1  0  0  0  0
 16 18  2  0  0  0  0
 19 20  1  0  0  0  0
 20 21  2  0  0  0  0
 21 22  1  0  0  0  0
 22 23  2  0  0  0  0
 23 24  1  0  0  0  0
 19 24  2  0  0  0  0
 22 25  1  0  0  0  0
 21 26  1  0  0  0  0
 17 19  1  0  0  0  0
  5 15  1  0  0  0  0
M  END
>  <cdx:fragmentId>
3438

$$$$
