315829.cdx
  Mrv1902 05222410202D          

 27 30  0  0  0  0            999 V2000
    8.6128  -11.7790    0.0000 C   0  0  0  0  0  0  0  0  0  0  0  0
    7.8983  -11.3665    0.0000 C   0  0  0  0  0  0  0  0  0  0  0  0
    7.8983  -10.5415    0.0000 C   0  0  0  0  0  0  0  0  0  0  0  0
    8.6128  -10.1290    0.0000 C   0  0  0  0  0  0  0  0  0  0  0  0
    9.3272  -11.3665    0.0000 C   0  0  0  0  0  0  0  0  0  0  0  0
    9.3272  -10.5415    0.0000 C   0  0  0  0  0  0  0  0  0  0  0  0
   10.1119  -10.2865    0.0000 O   0  0  0  0  0  0  0  0  0  0  0  0
   10.5968  -10.9540    0.0000 C   0  0  0  0  0  0  0  0  0  0  0  0
   10.1119  -11.6214    0.0000 O   0  0  0  0  0  0  0  0  0  0  0  0
    7.1838  -10.1290    0.0000 C   0  0  0  0  0  0  0  0  0  0  0  0
    7.0404   -6.1289    0.0000 C   0  0  0  0  0  0  0  0  0  0  0  0
    6.4273   -6.6809    0.0000 O   0  0  0  0  0  0  0  0  0  0  0  0
    7.8250   -6.3838    0.0000 C   0  0  0  0  0  0  0  0  0  0  0  0
    7.9965   -7.1908    0.0000 O   0  0  0  0  0  0  0  0  0  0  0  0
    6.9419   -9.1018    0.0000 C   0  0  0  0  0  0  0  0  0  0  0  0
    7.5550   -8.5498    0.0000 C   0  0  0  0  0  0  0  0  0  0  0  0
    7.3834   -7.7428    0.0000 C   0  0  0  0  0  0  0  0  0  0  0  0
    6.5988   -7.4879    0.0000 C   0  0  0  0  0  0  0  0  0  0  0  0
    5.9857   -8.0399    0.0000 C   0  0  0  0  0  0  0  0  0  0  0  0
    6.1573   -8.8469    0.0000 C   0  0  0  0  0  0  0  0  0  0  0  0
    5.5442   -9.3989    0.0000 C   0  0  0  0  0  0  0  0  0  0  0  0
    4.3432  -10.7328    0.0000 O   0  0  0  0  0  0  0  0  0  0  0  0
    6.3831  -11.3619    0.0000 C   0  0  0  0  0  0  0  0  0  0  0  0
    6.4694  -10.5415    0.0000 C   0  0  1  0  0  0  0  0  0  0  0  0
    5.7157  -10.2059    0.0000 C   0  0  0  0  0  0  0  0  0  0  0  0
    5.1636  -10.8190    0.0000 C   0  0  0  0  0  0  0  0  0  0  0  0
    5.5761  -11.5335    0.0000 O   0  0  0  0  0  0  0  0  0  0  0  0
 24 10  1  1  0  0  0
 10  3  1  0  0  0  0
  4  6  2  0  0  0  0
  1  5  2  0  0  0  0
  2  1  1  0  0  0  0
  3  2  2  0  0  0  0
  4  3  1  0  0  0  0
  9  5  1  0  0  0  0
  6  5  1  0  0  0  0
  7  6  1  0  0  0  0
  8  7  1  0  0  0  0
  9  8  1  0  0  0  0
 25 21  2  0  0  0  0
 21 20  1  0  0  0  0
 18 12  1  0  0  0  0
 12 11  1  0  0  0  0
 17 14  1  0  0  0  0
 14 13  1  0  0  0  0
 20 15  2  0  0  0  0
 16 15  1  0  0  0  0
 17 16  2  0  0  0  0
 18 17  1  0  0  0  0
 19 18  2  0  0  0  0
 20 19  1  0  0  0  0
 26 22  2  0  0  0  0
 27 23  1  0  0  0  0
 24 23  1  0  0  0  0
 25 24  1  0  0  0  0
 26 25  1  0  0  0  0
 27 26  1  0  0  0  0
M  END
>  <cdx:fragmentId>
133

$$$$
