315930.cdx
  Mrv1902 05222410242D          

 46 49  0  0  0  0            999 V2000
    8.9252   -7.3648    0.0000 O   0  0  0  0  0  0  0  0  0  0  0  0
   13.2120   -7.3946    0.0000 O   0  0  0  0  0  0  0  0  0  0  0  0
   13.9350   -6.1620    0.0000 C   0  0  0  0  0  0  0  0  0  0  0  0
   13.2234   -5.7446    0.0000 O   0  0  0  0  0  0  0  0  0  0  0  0
   11.0715   -6.9672    0.0000 C   0  0  0  0  0  0  0  0  0  0  0  0
   11.7831   -7.3847    0.0000 C   0  0  0  0  0  0  0  0  0  0  0  0
   12.5004   -6.9771    0.0000 C   0  0  0  0  0  0  0  0  0  0  0  0
   12.5061   -6.1521    0.0000 C   0  0  0  0  0  0  0  0  0  0  0  0
   11.7945   -5.7347    0.0000 C   0  0  0  0  0  0  0  0  0  0  0  0
   11.0772   -6.1422    0.0000 C   0  0  0  0  0  0  0  0  0  0  0  0
   10.3656   -5.7248    0.0000 C   0  0  0  0  0  0  0  0  0  0  0  0
    9.6483   -6.1323    0.0000 C   0  0  0  0  0  0  0  0  0  0  0  0
    8.9367   -5.7149    0.0000 O   0  0  0  0  0  0  0  0  0  0  0  0
    6.0846   -4.8701    0.0000 O   0  0  0  0  0  0  0  0  0  0  0  0
    6.0789   -5.6951    0.0000 C   0  0  0  0  0  0  0  0  0  0  0  0
    7.4792   -9.8299    0.0000 O   0  0  0  0  0  0  0  0  0  0  0  0
    6.0445  -10.6449    0.0000 O   0  0  0  0  0  0  0  0  0  0  0  0
    4.6214   -9.8101    0.0000 O   0  0  0  0  0  0  0  0  0  0  0  0
    4.6328   -8.1601    0.0000 C   0  0  0  0  0  0  0  0  0  0  0  0
    5.3444   -8.5775    0.0000 C   0  0  1  0  0  0  0  0  0  0  0  0
    5.3387   -9.4025    0.0000 C   0  0  1  0  0  0  0  0  0  0  0  0
    6.0503   -9.8200    0.0000 C   0  0  2  0  0  0  0  0  0  0  0  0
    6.7676   -9.4124    0.0000 C   0  0  2  0  0  0  0  0  0  0  0  0
    6.7733   -8.5875    0.0000 C   0  0  1  0  0  0  0  0  0  0  0  0
    6.0617   -8.1700    0.0000 O   0  0  0  0  0  0  0  0  0  0  0  0
    7.4906   -8.1799    0.0000 O   0  0  0  0  0  0  0  0  0  0  0  0
    8.2194   -6.1224    0.0000 C   0  0  1  0  0  0  0  0  0  0  0  0
    8.2136   -6.9474    0.0000 C   0  0  1  0  0  0  0  0  0  0  0  0
    7.4963   -7.3549    0.0000 C   0  0  2  0  0  0  0  0  0  0  0  0
    6.7847   -6.9375    0.0000 C   0  0  1  0  0  0  0  0  0  0  0  0
    6.7905   -6.1125    0.0000 C   0  0  2  0  0  0  0  0  0  0  0  0
    7.5078   -5.7050    0.0000 O   0  0  0  0  0  0  0  0  0  0  0  0
    1.0577   -8.5478    0.0000 O   0  0  0  0  0  0  0  0  0  0  0  0
    0.3518   -7.3054    0.0000 C   0  0  0  0  0  0  0  0  0  0  0  0
    1.0691   -6.8979    0.0000 O   0  0  0  0  0  0  0  0  0  0  0  0
    3.2039   -8.1502    0.0000 C   0  0  0  0  0  0  0  0  0  0  0  0
    2.4866   -8.5577    0.0000 C   0  0  0  0  0  0  0  0  0  0  0  0
    1.7750   -8.1403    0.0000 C   0  0  0  0  0  0  0  0  0  0  0  0
    1.7807   -7.3153    0.0000 C   0  0  0  0  0  0  0  0  0  0  0  0
    2.4980   -6.9078    0.0000 C   0  0  0  0  0  0  0  0  0  0  0  0
    3.2096   -7.3252    0.0000 C   0  0  0  0  0  0  0  0  0  0  0  0
    6.0674   -7.3450    0.0000 O   0  0  0  0  0  0  0  0  0  0  0  0
    5.3615   -6.1026    0.0000 O   0  0  0  0  0  0  0  0  0  0  0  0
    3.9269   -6.9177    0.0000 C   0  0  0  0  0  0  0  0  0  0  0  0
    4.6385   -7.3351    0.0000 C   0  0  0  0  0  0  0  0  0  0  0  0
    5.3558   -6.9276    0.0000 C   0  0  0  0  0  0  0  0  0  0  0  0
 30 42  1  6  0  0  0
 28  1  1  6  0  0  0
 27 13  1  1  0  0  0
 11 10  1  0  0  0  0
  7  2  1  0  0  0  0
  8  4  1  0  0  0  0
  4  3  1  0  0  0  0
 10  5  2  0  0  0  0
  6  5  1  0  0  0  0
  7  6  2  0  0  0  0
  8  7  1  0  0  0  0
  9  8  2  0  0  0  0
 10  9  1  0  0  0  0
 13 12  1  0  0  0  0
 12 11  1  0  0  0  0
 31 15  1  1  0  0  0
 15 14  1  0  0  0  0
 29 26  1  1  0  0  0
 24 26  1  1  0  0  0
 23 16  1  6  0  0  0
 22 17  1  6  0  0  0
 21 18  1  1  0  0  0
 20 19  1  6  0  0  0
 25 20  1  0  0  0  0
 21 20  1  0  0  0  0
 22 21  1  0  0  0  0
 23 22  1  0  0  0  0
 24 23  1  0  0  0  0
 25 24  1  0  0  0  0
 32 27  1  0  0  0  0
 28 27  1  0  0  0  0
 29 28  1  0  0  0  0
 30 29  1  0  0  0  0
 31 30  1  0  0  0  0
 32 31  1  0  0  0  0
 44 41  1  0  0  0  0
 38 33  1  0  0  0  0
 39 35  1  0  0  0  0
 35 34  1  0  0  0  0
 41 36  2  0  0  0  0
 37 36  1  0  0  0  0
 38 37  2  0  0  0  0
 39 38  1  0  0  0  0
 40 39  2  0  0  0  0
 41 40  1  0  0  0  0
 46 42  1  0  0  0  0
 46 43  2  0  0  0  0
 45 44  2  0  0  0  0
 46 45  1  0  0  0  0
M  END
>  <cdx:fragmentId>
3700

$$$$
