315932.cdx
  Mrv1902 05222410232D          

 40 43  0  0  0  0            999 V2000
    4.1194   -8.6502    0.0000 C   0  0  0  0  0  0  0  0  0  0  0  0
    4.1251   -7.8252    0.0000 C   0  0  0  0  0  0  0  0  0  0  0  0
    3.4135   -7.4078    0.0000 C   0  0  0  0  0  0  0  0  0  0  0  0
    3.4193   -6.5828    0.0000 C   0  0  0  0  0  0  0  0  0  0  0  0
    4.1366   -6.1752    0.0000 C   0  0  0  0  0  0  0  0  0  0  0  0
    4.8482   -6.5927    0.0000 C   0  0  0  0  0  0  0  0  0  0  0  0
    4.8425   -7.4177    0.0000 C   0  0  0  0  0  0  0  0  0  0  0  0
    4.1423   -5.3503    0.0000 O   0  0  0  0  0  0  0  0  0  0  0  0
    9.1177   -9.0973    0.0000 O   0  0  0  0  0  0  0  0  0  0  0  0
   10.5581   -7.4573    0.0000 C   0  0  0  0  0  0  0  0  0  0  0  0
    9.8408   -7.8648    0.0000 C   0  0  0  0  0  0  0  0  0  0  0  0
    9.1292   -7.4474    0.0000 O   0  0  0  0  0  0  0  0  0  0  0  0
    6.2771   -6.6026    0.0000 O   0  0  0  0  0  0  0  0  0  0  0  0
    6.2714   -7.4276    0.0000 C   0  0  0  0  0  0  0  0  0  0  0  0
    7.6717  -11.5624    0.0000 O   0  0  0  0  0  0  0  0  0  0  0  0
    6.2370  -12.3774    0.0000 O   0  0  0  0  0  0  0  0  0  0  0  0
    4.8139  -11.5426    0.0000 O   0  0  0  0  0  0  0  0  0  0  0  0
    4.8253   -9.8926    0.0000 C   0  0  0  0  0  0  0  0  0  0  0  0
    5.5369  -10.3100    0.0000 C   0  0  1  0  0  0  0  0  0  0  0  0
    5.5312  -11.1350    0.0000 C   0  0  1  0  0  0  0  0  0  0  0  0
    6.2428  -11.5525    0.0000 C   0  0  2  0  0  0  0  0  0  0  0  0
    6.9601  -11.1449    0.0000 C   0  0  2  0  0  0  0  0  0  0  0  0
    6.9658  -10.3200    0.0000 C   0  0  1  0  0  0  0  0  0  0  0  0
    6.2542   -9.9025    0.0000 O   0  0  0  0  0  0  0  0  0  0  0  0
    7.6831   -9.9124    0.0000 O   0  0  0  0  0  0  0  0  0  0  0  0
    8.4119   -7.8549    0.0000 C   0  0  1  0  0  0  0  0  0  0  0  0
    8.4061   -8.6799    0.0000 C   0  0  1  0  0  0  0  0  0  0  0  0
    7.6888   -9.0874    0.0000 C   0  0  2  0  0  0  0  0  0  0  0  0
    6.9772   -8.6700    0.0000 C   0  0  1  0  0  0  0  0  0  0  0  0
    6.9830   -7.8450    0.0000 C   0  0  2  0  0  0  0  0  0  0  0  0
    7.7003   -7.4375    0.0000 O   0  0  0  0  0  0  0  0  0  0  0  0
    6.2599   -9.0775    0.0000 O   0  0  0  0  0  0  0  0  0  0  0  0
    5.5540   -7.8351    0.0000 O   0  0  0  0  0  0  0  0  0  0  0  0
    4.8310   -9.0676    0.0000 C   0  0  0  0  0  0  0  0  0  0  0  0
    5.5483   -8.6601    0.0000 C   0  0  0  0  0  0  0  0  0  0  0  0
   11.2668   -7.8797    0.0000 C   0  0  0  0  0  0  0  0  0  0  0  0
   11.9869   -7.4573    0.0000 C   0  0  0  0  0  0  0  0  0  0  0  0
   11.9869   -6.6324    0.0000 C   0  0  0  0  0  0  0  0  0  0  0  0
   11.2668   -6.2100    0.0000 C   0  0  0  0  0  0  0  0  0  0  0  0
   10.5581   -6.6324    0.0000 C   0  0  0  0  0  0  0  0  0  0  0  0
 29 32  1  6  0  0  0
 27  9  1  6  0  0  0
 26 12  1  1  0  0  0
 12 11  1  0  0  0  0
 11 10  1  0  0  0  0
 30 14  1  1  0  0  0
 14 13  1  0  0  0  0
 28 25  1  1  0  0  0
 23 25  1  1  0  0  0
 22 15  1  6  0  0  0
 21 16  1  6  0  0  0
 20 17  1  1  0  0  0
 19 18  1  6  0  0  0
 24 19  1  0  0  0  0
 20 19  1  0  0  0  0
 21 20  1  0  0  0  0
 22 21  1  0  0  0  0
 23 22  1  0  0  0  0
 24 23  1  0  0  0  0
 31 26  1  0  0  0  0
 27 26  1  0  0  0  0
 28 27  1  0  0  0  0
 29 28  1  0  0  0  0
 30 29  1  0  0  0  0
 31 30  1  0  0  0  0
 35 32  1  0  0  0  0
 35 33  2  0  0  0  0
 34  1  2  0  0  0  0
 35 34  1  0  0  0  0
  2  3  1  0  0  0  0
  3  4  2  0  0  0  0
  4  5  1  0  0  0  0
  5  6  2  0  0  0  0
  6  7  1  0  0  0  0
  2  7  2  0  0  0  0
  5  8  1  0  0  0  0
  1  2  1  0  0  0  0
 10 36  2  0  0  0  0
 36 37  1  0  0  0  0
 37 38  2  0  0  0  0
 38 39  1  0  0  0  0
 39 40  2  0  0  0  0
 40 10  1  0  0  0  0
M  END
>  <cdx:fragmentId>
3700

$$$$
