315957.cdx
  Mrv1902 05222410272D          

 27 28  0  0  0  0            999 V2000
    5.6801   -3.6416    0.0000 O   0  0  0  0  0  0  0  0  0  0  0  0
    6.3988   -4.0466    0.0000 C   0  0  2  0  0  0  0  0  0  0  0  0
    6.4075   -4.8715    0.0000 C   0  0  1  0  0  0  0  0  0  0  0  0
    5.6974   -5.2915    0.0000 C   0  0  1  0  0  0  0  0  0  0  0  0
    4.9786   -4.8865    0.0000 C   0  0  2  0  0  0  0  0  0  0  0  0
    4.9700   -4.0616    0.0000 C   0  0  2  0  0  0  0  0  0  0  0  0
    4.2512   -3.6566    0.0000 C   0  0  0  0  0  0  0  0  0  0  0  0
    4.2685   -5.3065    0.0000 O   0  0  0  0  0  0  0  0  0  0  0  0
    7.1089   -3.6266    0.0000 O   0  0  0  0  0  0  0  0  0  0  0  0
    5.7060   -6.1165    0.0000 O   0  0  0  0  0  0  0  0  0  0  0  0
    4.9959   -6.5364    0.0000 C   0  0  0  0  0  0  0  0  0  0  0  0
    5.0046   -7.3614    0.0000 O   0  0  0  0  0  0  0  0  0  0  0  0
    4.2772   -6.1314    0.0000 C   0  0  0  0  0  0  0  0  0  0  0  0
   12.1403   -6.4615    0.0000 O   0  0  0  0  0  0  0  0  0  0  0  0
   12.8417   -5.2165    0.0000 C   0  0  0  0  0  0  0  0  0  0  0  0
   12.1229   -4.8116    0.0000 O   0  0  0  0  0  0  0  0  0  0  0  0
    9.9926   -6.0715    0.0000 C   0  0  0  0  0  0  0  0  0  0  0  0
   10.7114   -6.4765    0.0000 C   0  0  0  0  0  0  0  0  0  0  0  0
   11.4215   -6.0565    0.0000 C   0  0  0  0  0  0  0  0  0  0  0  0
   11.4128   -5.2315    0.0000 C   0  0  0  0  0  0  0  0  0  0  0  0
   10.6941   -4.8266    0.0000 C   0  0  0  0  0  0  0  0  0  0  0  0
    9.9840   -5.2465    0.0000 C   0  0  0  0  0  0  0  0  0  0  0  0
    7.1262   -5.2765    0.0000 O   0  0  0  0  0  0  0  0  0  0  0  0
    7.8277   -4.0316    0.0000 O   0  0  0  0  0  0  0  0  0  0  0  0
    9.2652   -4.8415    0.0000 C   0  0  0  0  0  0  0  0  0  0  0  0
    8.5551   -5.2615    0.0000 C   0  0  0  0  0  0  0  0  0  0  0  0
    7.8364   -4.8565    0.0000 C   0  0  0  0  0  0  0  0  0  0  0  0
 25 22  1  0  0  0  0
 19 14  1  0  0  0  0
 20 16  1  0  0  0  0
 16 15  1  0  0  0  0
 22 17  2  0  0  0  0
 18 17  1  0  0  0  0
 19 18  2  0  0  0  0
 20 19  1  0  0  0  0
 21 20  2  0  0  0  0
 22 21  1  0  0  0  0
 27 23  1  0  0  0  0
 27 24  2  0  0  0  0
 26 25  2  0  0  0  0
 27 26  1  0  0  0  0
  1  2  1  0  0  0  0
  2  3  1  0  0  0  0
  3  4  1  0  0  0  0
  4  5  1  0  0  0  0
  5  6  1  0  0  0  0
  1  6  1  0  0  0  0
  6  7  1  6  0  0  0
  5  8  1  1  0  0  0
  2  9  1  1  0  0  0
 11 12  2  0  0  0  0
 11 13  1  0  0  0  0
 10 11  1  0  0  0  0
  4 10  1  6  0  0  0
  3 23  1  6  0  0  0
M  END
>  <cdx:fragmentId>
3824

$$$$
