315931.cdx
  Mrv1902 05222410242D          

 40 43  0  0  0  0            999 V2000
    9.9702   -8.1073    0.0000 O   0  0  0  0  0  0  0  0  0  0  0  0
   11.4106   -6.4673    0.0000 C   0  0  0  0  0  0  0  0  0  0  0  0
   10.6933   -6.8748    0.0000 C   0  0  0  0  0  0  0  0  0  0  0  0
    9.9817   -6.4574    0.0000 O   0  0  0  0  0  0  0  0  0  0  0  0
    7.1296   -5.6126    0.0000 O   0  0  0  0  0  0  0  0  0  0  0  0
    7.1239   -6.4376    0.0000 C   0  0  0  0  0  0  0  0  0  0  0  0
    8.5242  -10.5724    0.0000 O   0  0  0  0  0  0  0  0  0  0  0  0
    7.0895  -11.3874    0.0000 O   0  0  0  0  0  0  0  0  0  0  0  0
    5.6664  -10.5526    0.0000 O   0  0  0  0  0  0  0  0  0  0  0  0
    5.6778   -8.9026    0.0000 C   0  0  0  0  0  0  0  0  0  0  0  0
    6.3894   -9.3200    0.0000 C   0  0  1  0  0  0  0  0  0  0  0  0
    6.3837  -10.1450    0.0000 C   0  0  1  0  0  0  0  0  0  0  0  0
    7.0953  -10.5625    0.0000 C   0  0  2  0  0  0  0  0  0  0  0  0
    7.8126  -10.1549    0.0000 C   0  0  2  0  0  0  0  0  0  0  0  0
    7.8183   -9.3300    0.0000 C   0  0  1  0  0  0  0  0  0  0  0  0
    7.1067   -8.9125    0.0000 O   0  0  0  0  0  0  0  0  0  0  0  0
    8.5356   -8.9224    0.0000 O   0  0  0  0  0  0  0  0  0  0  0  0
    9.2644   -6.8649    0.0000 C   0  0  1  0  0  0  0  0  0  0  0  0
    9.2586   -7.6899    0.0000 C   0  0  1  0  0  0  0  0  0  0  0  0
    8.5413   -8.0974    0.0000 C   0  0  2  0  0  0  0  0  0  0  0  0
    7.8297   -7.6800    0.0000 C   0  0  1  0  0  0  0  0  0  0  0  0
    7.8355   -6.8550    0.0000 C   0  0  2  0  0  0  0  0  0  0  0  0
    8.5528   -6.4475    0.0000 O   0  0  0  0  0  0  0  0  0  0  0  0
    2.1027   -9.2903    0.0000 O   0  0  0  0  0  0  0  0  0  0  0  0
    4.2489   -8.8927    0.0000 C   0  0  0  0  0  0  0  0  0  0  0  0
    3.5316   -9.3002    0.0000 C   0  0  0  0  0  0  0  0  0  0  0  0
    2.8200   -8.8828    0.0000 C   0  0  0  0  0  0  0  0  0  0  0  0
    2.8257   -8.0578    0.0000 C   0  0  0  0  0  0  0  0  0  0  0  0
    3.5430   -7.6503    0.0000 C   0  0  0  0  0  0  0  0  0  0  0  0
    4.2546   -8.0677    0.0000 C   0  0  0  0  0  0  0  0  0  0  0  0
    7.1124   -8.0875    0.0000 O   0  0  0  0  0  0  0  0  0  0  0  0
    6.4065   -6.8451    0.0000 O   0  0  0  0  0  0  0  0  0  0  0  0
    4.9719   -7.6602    0.0000 C   0  0  0  0  0  0  0  0  0  0  0  0
    5.6835   -8.0776    0.0000 C   0  0  0  0  0  0  0  0  0  0  0  0
    6.4008   -7.6701    0.0000 C   0  0  0  0  0  0  0  0  0  0  0  0
   12.1193   -6.8897    0.0000 C   0  0  0  0  0  0  0  0  0  0  0  0
   12.8394   -6.4673    0.0000 C   0  0  0  0  0  0  0  0  0  0  0  0
   12.8394   -5.6424    0.0000 C   0  0  0  0  0  0  0  0  0  0  0  0
   12.1193   -5.2200    0.0000 C   0  0  0  0  0  0  0  0  0  0  0  0
   11.4106   -5.6424    0.0000 C   0  0  0  0  0  0  0  0  0  0  0  0
 21 31  1  6  0  0  0
 19  1  1  6  0  0  0
 18  4  1  1  0  0  0
  4  3  1  0  0  0  0
  3  2  1  0  0  0  0
 22  6  1  1  0  0  0
  6  5  1  0  0  0  0
 20 17  1  1  0  0  0
 15 17  1  1  0  0  0
 14  7  1  6  0  0  0
 13  8  1  6  0  0  0
 12  9  1  1  0  0  0
 11 10  1  6  0  0  0
 16 11  1  0  0  0  0
 12 11  1  0  0  0  0
 13 12  1  0  0  0  0
 14 13  1  0  0  0  0
 15 14  1  0  0  0  0
 16 15  1  0  0  0  0
 23 18  1  0  0  0  0
 19 18  1  0  0  0  0
 20 19  1  0  0  0  0
 21 20  1  0  0  0  0
 22 21  1  0  0  0  0
 23 22  1  0  0  0  0
 33 30  1  0  0  0  0
 27 24  1  0  0  0  0
 30 25  2  0  0  0  0
 26 25  1  0  0  0  0
 27 26  2  0  0  0  0
 28 27  1  0  0  0  0
 29 28  2  0  0  0  0
 30 29  1  0  0  0  0
 35 31  1  0  0  0  0
 35 32  2  0  0  0  0
 34 33  2  0  0  0  0
 35 34  1  0  0  0  0
  2 36  2  0  0  0  0
 36 37  1  0  0  0  0
 37 38  2  0  0  0  0
 38 39  1  0  0  0  0
 39 40  2  0  0  0  0
 40  2  1  0  0  0  0
M  END
>  <cdx:fragmentId>
3700

$$$$
