316096.cdx
  Mrv1902 05222410262D          

 27 31  0  0  0  0            999 V2000
    7.5865   -6.8295    0.0000 C   0  0  0  0  0  0  0  0  0  0  0  0
    8.3010   -7.2420    0.0000 C   0  0  0  0  0  0  0  0  0  0  0  0
    8.4725   -8.0489    0.0000 O   0  0  0  0  0  0  0  0  0  0  0  0
    9.2930   -8.1352    0.0000 C   0  0  0  0  0  0  0  0  0  0  0  0
    9.7779   -8.8026    0.0000 C   0  0  0  0  0  0  0  0  0  0  0  0
   10.5984   -8.7164    0.0000 C   0  0  0  0  0  0  0  0  0  0  0  0
   10.9340   -7.9627    0.0000 C   0  0  0  0  0  0  0  0  0  0  0  0
   10.4490   -7.2953    0.0000 C   0  0  0  0  0  0  0  0  0  0  0  0
    9.6286   -7.3815    0.0000 C   0  0  0  0  0  0  0  0  0  0  0  0
    9.0155   -6.8295    0.0000 C   0  0  0  0  0  0  0  0  0  0  0  0
    9.0155   -6.0045    0.0000 C   0  0  0  0  0  0  0  0  0  0  0  0
    8.3010   -5.5920    0.0000 O   0  0  0  0  0  0  0  0  0  0  0  0
    7.5865   -6.0045    0.0000 C   0  0  0  0  0  0  0  0  0  0  0  0
    6.8721   -5.5920    0.0000 C   0  0  0  0  0  0  0  0  0  0  0  0
    6.1576   -6.0045    0.0000 C   0  0  0  0  0  0  0  0  0  0  0  0
    5.4431   -5.5920    0.0000 O   0  0  0  0  0  0  0  0  0  0  0  0
    4.7286   -6.0045    0.0000 C   0  0  0  0  0  0  0  0  0  0  0  0
    4.7286   -6.8295    0.0000 C   0  0  0  0  0  0  0  0  0  0  0  0
    5.4431   -7.2420    0.0000 C   0  0  0  0  0  0  0  0  0  0  0  0
    6.1576   -6.8295    0.0000 C   0  0  0  0  0  0  0  0  0  0  0  0
    6.8721   -7.2420    0.0000 C   0  0  0  0  0  0  0  0  0  0  0  0
    9.7299   -5.5920    0.0000 O   0  0  0  0  0  0  0  0  0  0  0  0
    4.3161   -5.2900    0.0000 C   0  0  0  0  0  0  0  0  0  0  0  0
    3.9036   -6.0045    0.0000 C   0  0  0  0  0  0  0  0  0  0  0  0
    5.4431   -8.0670    0.0000 O   0  0  0  0  0  0  0  0  0  0  0  0
    4.0142   -7.2420    0.0000 O   0  0  0  0  0  0  0  0  0  0  0  0
   11.0833   -9.3838    0.0000 O   0  0  0  0  0  0  0  0  0  0  0  0
  1  2  1  0  0  0  0
  2  3  1  0  0  0  0
  3  4  1  0  0  0  0
  4  5  1  0  0  0  0
  5  6  2  0  0  0  0
  6  7  1  0  0  0  0
  7  8  2  0  0  0  0
  8  9  1  0  0  0  0
  9 10  1  0  0  0  0
 10 11  1  0  0  0  0
 11 12  1  0  0  0  0
 12 13  1  0  0  0  0
 13 14  2  0  0  0  0
 14 15  1  0  0  0  0
 15 16  1  0  0  0  0
 16 17  1  0  0  0  0
 17 18  1  0  0  0  0
 18 19  1  0  0  0  0
 19 20  1  0  0  0  0
 20 21  1  0  0  0  0
  1 21  2  0  0  0  0
  1 13  1  0  0  0  0
 15 20  2  0  0  0  0
  2 10  2  0  0  0  0
  4  9  2  0  0  0  0
 11 22  2  0  0  0  0
 17 23  1  0  0  0  0
 17 24  1  0  0  0  0
 19 25  1  0  0  0  0
 18 26  1  0  0  0  0
  6 27  1  0  0  0  0
M  END
>  <cdx:groupId>
4023

>  <cdx:fragmentId>
3941

$$$$
