5316074.cdx
  Mrv1902 05222410182D          

 15 16  0  0  0  0            999 V2000
   15.8302   -7.5264    0.0000 C   0  0  0  0  0  0  0  0  0  0  0  0
   16.5447   -7.9389    0.0000 C   0  0  0  0  0  0  0  0  0  0  0  0
   16.5447   -8.7639    0.0000 C   0  0  0  0  0  0  0  0  0  0  0  0
   15.8302   -9.1764    0.0000 C   0  0  0  0  0  0  0  0  0  0  0  0
   15.1158   -8.7639    0.0000 C   0  0  0  0  0  0  0  0  0  0  0  0
   14.4013   -9.1764    0.0000 C   0  0  0  0  0  0  0  0  0  0  0  0
   13.6869   -8.7639    0.0000 C   0  0  0  0  0  0  0  0  0  0  0  0
   13.6869   -7.9389    0.0000 C   0  0  0  0  0  0  0  0  0  0  0  0
   14.4013   -7.5264    0.0000 C   0  0  0  0  0  0  0  0  0  0  0  0
   15.1158   -7.9389    0.0000 C   0  0  0  0  0  0  0  0  0  0  0  0
   14.4013  -10.0014    0.0000 C   0  0  0  0  0  0  0  0  0  0  0  0
   15.1158  -10.4139    0.0000 C   0  0  0  0  0  0  0  0  0  0  0  0
   13.6869  -10.4139    0.0000 C   0  0  0  0  0  0  0  0  0  0  0  0
   14.4013   -6.7014    0.0000 C   0  0  0  0  0  0  0  0  0  0  0  0
   17.2592   -9.1764    0.0000 C   0  0  0  0  0  0  0  0  0  0  0  0
  1  2  1  0  0  0  0
  2  3  1  0  0  0  0
  3  4  2  0  0  0  0
  4  5  1  0  0  0  0
  5  6  1  0  0  0  0
  6  7  2  0  0  0  0
  7  8  1  0  0  0  0
  8  9  2  0  0  0  0
  9 10  1  0  0  0  0
  1 10  1  0  0  0  0
  5 10  2  0  0  0  0
 11 12  1  0  0  0  0
 11 13  1  0  0  0  0
  6 11  1  0  0  0  0
  9 14  1  0  0  0  0
  3 15  1  0  0  0  0
M  END
>  <cdx:fragmentId>
3902

$$$$
