5316141.cdx
  Mrv1902 05222410242D          

 14 15  0  0  0  0            999 V2000
   17.3984   -7.3250    0.0000 O   0  0  0  0  0  0  0  0  0  0  0  0
   17.8834   -7.9924    0.0000 C   0  0  0  0  0  0  0  0  0  0  0  0
   17.3984   -8.6598    0.0000 O   0  0  0  0  0  0  0  0  0  0  0  0
   16.6138   -8.4049    0.0000 C   0  0  0  0  0  0  0  0  0  0  0  0
   16.6138   -7.5799    0.0000 C   0  0  0  0  0  0  0  0  0  0  0  0
   15.8994   -8.8174    0.0000 C   0  0  0  0  0  0  0  0  0  0  0  0
   15.1849   -8.4049    0.0000 C   0  0  0  0  0  0  0  0  0  0  0  0
   15.1849   -7.5799    0.0000 C   0  0  0  0  0  0  0  0  0  0  0  0
   15.8994   -7.1674    0.0000 C   0  0  0  0  0  0  0  0  0  0  0  0
   14.4704   -8.8174    0.0000 C   0  0  0  0  0  0  0  0  0  0  0  0
   13.7559   -8.4049    0.0000 C   0  0  0  0  0  0  0  0  0  0  0  0
   13.0415   -8.8174    0.0000 C   0  0  0  0  0  0  0  0  0  0  0  0
   15.8994   -9.6424    0.0000 O   0  0  0  0  0  0  0  0  0  0  0  0
   15.1849  -10.0549    0.0000 C   0  0  0  0  0  0  0  0  0  0  0  0
  1  2  1  0  0  0  0
  2  3  1  0  0  0  0
  3  4  1  0  0  0  0
  4  5  1  0  0  0  0
  1  5  1  0  0  0  0
  6  7  1  0  0  0  0
  7  8  2  0  0  0  0
  8  9  1  0  0  0  0
  5  9  2  0  0  0  0
  4  6  2  0  0  0  0
 10 11  1  0  0  0  0
 11 12  2  0  0  0  0
  7 10  1  0  0  0  0
 13 14  1  0  0  0  0
  6 13  1  0  0  0  0
M  END
>  <cdx:fragmentId>
4105

$$$$
