316181.cdx
  Mrv1902 05222410232D          

 27 30  0  0  0  0            999 V2000
    6.8740   -9.4160    0.0000 C   0  0  0  0  0  0  0  0  0  0  0  0
    7.5885   -9.0035    0.0000 N   0  0  0  0  0  0  0  0  0  0  0  0
    7.5885   -8.1785    0.0000 C   0  0  2  0  0  0  0  0  0  0  0  0
    6.8740   -7.7660    0.0000 C   0  0  2  0  0  0  0  0  0  0  0  0
    6.1595   -8.1785    0.0000 C   0  0  0  0  0  0  0  0  0  0  0  0
    5.4451   -7.7660    0.0000 C   0  0  0  0  0  0  0  0  0  0  0  0
    4.7306   -8.1785    0.0000 C   0  0  0  0  0  0  0  0  0  0  0  0
    4.7306   -9.0035    0.0000 C   0  0  0  0  0  0  0  0  0  0  0  0
    5.4451   -9.4160    0.0000 C   0  0  0  0  0  0  0  0  0  0  0  0
    6.1595   -9.0035    0.0000 C   0  0  0  0  0  0  0  0  0  0  0  0
    8.3030   -9.4160    0.0000 C   0  0  0  0  0  0  0  0  0  0  0  0
    9.0174   -9.0035    0.0000 C   0  0  0  0  0  0  0  0  0  0  0  0
    9.0174   -8.1785    0.0000 C   0  0  0  0  0  0  0  0  0  0  0  0
    9.7319   -7.7660    0.0000 C   0  0  0  0  0  0  0  0  0  0  0  0
    9.7319   -6.9410    0.0000 C   0  0  0  0  0  0  0  0  0  0  0  0
    9.0174   -6.5285    0.0000 C   0  0  0  0  0  0  0  0  0  0  0  0
    8.3030   -6.9410    0.0000 C   0  0  0  0  0  0  0  0  0  0  0  0
    8.3030   -7.7660    0.0000 C   0  0  0  0  0  0  0  0  0  0  0  0
   10.4464   -6.5285    0.0000 O   0  0  0  0  0  0  0  0  0  0  0  0
    6.8740   -6.9410    0.0000 C   0  0  0  0  0  0  0  0  0  0  0  0
    4.0161   -9.4160    0.0000 O   0  0  0  0  0  0  0  0  0  0  0  0
    3.3017   -9.0035    0.0000 C   0  0  0  0  0  0  0  0  0  0  0  0
    5.4451  -10.2410    0.0000 O   0  0  0  0  0  0  0  0  0  0  0  0
    4.7306  -10.6535    0.0000 C   0  0  0  0  0  0  0  0  0  0  0  0
    9.0174   -5.7035    0.0000 O   0  0  0  0  0  0  0  0  0  0  0  0
    9.7319   -5.2910    0.0000 C   0  0  0  0  0  0  0  0  0  0  0  0
    7.5885   -7.3535    0.0000 H   0  0  0  0  0  0  0  0  0  0  0  0
  1  2  1  0  0  0  0
  2  3  1  0  0  0  0
  3  4  1  0  0  0  0
  4  5  1  0  0  0  0
  5  6  1  0  0  0  0
  6  7  2  0  0  0  0
  7  8  1  0  0  0  0
  8  9  2  0  0  0  0
  9 10  1  0  0  0  0
  1 10  1  0  0  0  0
  5 10  2  0  0  0  0
 11 12  1  0  0  0  0
 12 13  1  0  0  0  0
 13 14  1  0  0  0  0
 14 15  2  0  0  0  0
 15 16  1  0  0  0  0
 16 17  2  0  0  0  0
 17 18  1  0  0  0  0
 13 18  2  0  0  0  0
 11  2  1  0  0  0  0
 18  3  1  0  0  0  0
 15 19  1  0  0  0  0
  4 20  1  6  0  0  0
 21 22  1  0  0  0  0
  8 21  1  0  0  0  0
 23 24  1  0  0  0  0
  9 23  1  0  0  0  0
 25 26  1  0  0  0  0
 16 25  1  0  0  0  0
  3 27  1  1  0  0  0
M  END
>  <cdx:fragmentId>
44498

$$$$
