316377.cdx
  Mrv1902 05222410212D          

 16 18  0  0  0  0            999 V2000
    5.0358   -5.1563    0.0000 C   0  0  0  0  0  0  0  0  0  0  0  0
    5.0358   -5.9813    0.0000 C   0  0  0  0  0  0  0  0  0  0  0  0
    5.9152   -6.5587    0.0000 C   0  0  0  0  0  0  0  0  0  0  0  0
    6.7741   -5.5481    0.0000 C   0  0  0  0  0  0  0  0  0  0  0  0
    5.7502   -4.7438    0.0000 C   0  0  0  0  0  0  0  0  0  0  0  0
    6.7741   -6.3731    0.0000 C   0  0  0  0  0  0  0  0  0  0  0  0
    7.6175   -6.3800    0.0000 C   0  0  0  0  0  0  0  0  0  0  0  0
    8.1400   -5.2525    0.0000 C   0  0  0  0  0  0  0  0  0  0  0  0
    7.5625   -5.7475    0.0000 C   0  0  0  0  0  0  0  0  0  0  0  0
    5.9152   -5.7338    0.0000 C   0  0  0  0  0  0  0  0  0  0  0  0
    5.3319   -5.1504    0.0000 C   0  0  0  0  0  0  0  0  0  0  0  0
    5.7502   -3.9188    0.0000 O   0  0  0  0  0  0  0  0  0  0  0  0
    4.3213   -6.3937    0.0000 C   0  0  0  0  0  0  0  0  0  0  0  0
    8.4144   -6.1665    0.0000 C   0  0  0  0  0  0  0  0  0  0  0  0
    8.9978   -6.7498    0.0000 C   0  0  0  0  0  0  0  0  0  0  0  0
    8.6279   -5.3696    0.0000 C   0  0  0  0  0  0  0  0  0  0  0  0
  1  2  2  0  0  0  0
  2  3  1  0  0  0  0
  4  5  1  0  0  0  0
  5  1  1  0  0  0  0
  4  6  1  0  0  0  0
  3  6  1  0  0  0  0
  6  7  1  0  0  0  0
  7  8  1  0  0  0  0
  8  9  1  0  0  0  0
 10  3  1  1  0  0  0
 10  4  1  1  0  0  0
 10  9  1  1  0  0  0
 10 11  1  1  0  0  0
  5 12  2  0  0  0  0
  2 13  1  0  0  0  0
  7 14  1  0  0  0  0
 14 15  1  0  0  0  0
 14 16  1  0  0  0  0
M  END
>  <cdx:fragmentId>
5

$$$$
