102316455.cdx
  Mrv1902 05222410282D          

102112  0  0  0  0            999 V2000
    2.4610  -13.2770    0.0000 O   0  0  0  0  0  0  0  0  0  0  0  0
    1.7465  -12.8645    0.0000 C   0  0  1  0  0  0  0  0  0  0  0  0
    1.7465  -12.0395    0.0000 C   0  0  2  0  0  0  0  0  0  0  0  0
    2.4610  -11.6270    0.0000 C   0  0  1  0  0  0  0  0  0  0  0  0
    3.1755  -12.0395    0.0000 C   0  0  2  0  0  0  0  0  0  0  0  0
    3.1755  -12.8645    0.0000 C   0  0  2  0  0  0  0  0  0  0  0  0
    1.0321  -13.2770    0.0000 C   0  0  0  0  0  0  0  0  0  0  0  0
    1.0321  -14.1020    0.0000 O   0  0  0  0  0  0  0  0  0  0  0  0
    0.3176  -12.8645    0.0000 O   0  0  0  0  0  0  0  0  0  0  0  0
    3.8900  -11.6270    0.0000 O   0  0  0  0  0  0  0  0  0  0  0  0
    3.1755  -10.3895    0.0000 O   0  0  0  0  0  0  0  0  0  0  0  0
    3.8900  -10.8020    0.0000 C   0  0  2  0  0  0  0  0  0  0  0  0
    4.6044  -10.3895    0.0000 C   0  0  1  0  0  0  0  0  0  0  0  0
    4.6044   -9.5645    0.0000 C   0  0  2  0  0  0  0  0  0  0  0  0
    3.8900   -9.1520    0.0000 C   0  0  2  0  0  0  0  0  0  0  0  0
    3.1755   -9.5645    0.0000 C   0  0  1  0  0  0  0  0  0  0  0  0
    2.4610   -9.1520    0.0000 C   0  0  0  0  0  0  0  0  0  0  0  0
    1.7465   -9.5645    0.0000 O   0  0  0  0  0  0  0  0  0  0  0  0
    3.8900   -8.3270    0.0000 O   0  0  0  0  0  0  0  0  0  0  0  0
    5.3189   -9.1520    0.0000 O   0  0  0  0  0  0  0  0  0  0  0  0
    5.3189  -10.8020    0.0000 O   0  0  0  0  0  0  0  0  0  0  0  0
    2.4610  -10.8020    0.0000 O   0  0  0  0  0  0  0  0  0  0  0  0
    1.0321  -11.6270    0.0000 O   0  0  0  0  0  0  0  0  0  0  0  0
    3.8900  -13.2770    0.0000 O   0  0  0  0  0  0  0  0  0  0  0  0
    5.3189  -11.6270    0.0000 C   0  0  0  0  0  0  0  0  0  0  0  0
    4.6044  -12.0395    0.0000 C   0  0  0  0  0  0  0  0  0  0  0  0
    4.6044  -12.8645    0.0000 C   0  0  1  0  0  0  0  0  0  0  0  0
    5.3189  -13.2770    0.0000 C   0  0  1  0  0  0  0  0  0  0  0  0
    6.0334  -12.8645    0.0000 C   0  0  2  0  0  0  0  0  0  0  0  0
    6.7478  -13.2770    0.0000 C   0  0  0  0  0  0  0  0  0  0  0  0
    7.4623  -12.8645    0.0000 C   0  0  0  0  0  0  0  0  0  0  0  0
    7.4623  -12.0395    0.0000 C   0  0  1  0  0  0  0  0  0  0  0  0
    8.1768  -11.6270    0.0000 C   0  0  2  0  0  0  0  0  0  0  0  0
    8.8913  -12.0395    0.0000 C   0  0  0  0  0  0  0  0  0  0  0  0
    9.6057  -11.6270    0.0000 C   0  0  2  0  0  0  0  0  0  0  0  0
    9.6057  -10.8020    0.0000 C   0  0  1  0  0  0  0  0  0  0  0  0
   10.3202  -10.3895    0.0000 C   0  0  0  0  0  0  0  0  0  0  0  0
   10.3202   -9.5645    0.0000 C   0  0  0  0  0  0  0  0  0  0  0  0
    9.6057   -9.1520    0.0000 C   0  0  0  0  0  0  0  0  0  0  0  0
    8.8913   -9.5645    0.0000 C   0  0  0  0  0  0  0  0  0  0  0  0
    8.8913  -10.3895    0.0000 C   0  0  1  0  0  0  0  0  0  0  0  0
    8.1768  -10.8020    0.0000 C   0  0  0  0  0  0  0  0  0  0  0  0
    7.4623  -10.3895    0.0000 C   0  0  0  0  0  0  0  0  0  0  0  0
    6.7478  -10.8020    0.0000 C   0  0  0  0  0  0  0  0  0  0  0  0
    6.7478  -11.6270    0.0000 C   0  0  2  0  0  0  0  0  0  0  0  0
    6.0334  -12.0395    0.0000 C   0  0  1  0  0  0  0  0  0  0  0  0
    6.0334  -11.2145    0.0000 C   0  0  0  0  0  0  0  0  0  0  0  0
    9.1932   -8.4375    0.0000 C   0  0  0  0  0  0  0  0  0  0  0  0
   10.0182   -8.4375    0.0000 C   0  0  0  0  0  0  0  0  0  0  0  0
    8.1768  -12.4520    0.0000 C   0  0  0  0  0  0  0  0  0  0  0  0
    7.4623  -11.2145    0.0000 C   0  0  0  0  0  0  0  0  0  0  0  0
    4.9064  -13.9914    0.0000 C   0  0  0  0  0  0  0  0  0  0  0  0
   10.3202  -12.0395    0.0000 O   0  0  0  0  0  0  0  0  0  0  0  0
    5.7314  -13.9914    0.0000 C   0  0  0  0  0  0  0  0  0  0  0  0
    5.3189  -14.7059    0.0000 O   0  0  0  0  0  0  0  0  0  0  0  0
   10.7489  -11.4620    0.0000 C   0  0  0  0  0  0  0  0  0  0  0  0
   10.7489  -12.2870    0.0000 O   0  0  0  0  0  0  0  0  0  0  0  0
   11.4633  -11.0495    0.0000 O   0  0  0  0  0  0  0  0  0  0  0  0
   12.1778  -12.2870    0.0000 O   0  0  0  0  0  0  0  0  0  0  0  0
   12.1778  -11.4620    0.0000 C   0  0  2  0  0  0  0  0  0  0  0  0
   12.8923  -11.0495    0.0000 C   0  0  1  0  0  0  0  0  0  0  0  0
   13.6068  -11.4620    0.0000 C   0  0  2  0  0  0  0  0  0  0  0  0
   13.6068  -12.2870    0.0000 C   0  0  2  0  0  0  0  0  0  0  0  0
   12.8923  -12.6995    0.0000 C   0  0  1  0  0  0  0  0  0  0  0  0
   12.8923  -13.5245    0.0000 C   0  0  0  0  0  0  0  0  0  0  0  0
   12.8923   -9.9770    0.0000 O   0  0  0  0  0  0  0  0  0  0  0  0
   14.5356   -9.8532    0.0000 O   0  0  0  0  0  0  0  0  0  0  0  0
   13.8211   -9.4407    0.0000 C   0  0  2  0  0  0  0  0  0  0  0  0
   13.8211   -8.6157    0.0000 C   0  0  1  0  0  0  0  0  0  0  0  0
   14.5356   -8.2032    0.0000 C   0  0  1  0  0  0  0  0  0  0  0  0
   15.2500   -8.6157    0.0000 C   0  0  2  0  0  0  0  0  0  0  0  0
   15.2500   -9.4407    0.0000 C   0  0  2  0  0  0  0  0  0  0  0  0
   15.9645   -8.2032    0.0000 O   0  0  0  0  0  0  0  0  0  0  0  0
   16.6790   -9.4407    0.0000 O   0  0  0  0  0  0  0  0  0  0  0  0
   16.6790   -8.6157    0.0000 C   0  0  2  0  0  0  0  0  0  0  0  0
   17.3935   -8.2032    0.0000 C   0  0  1  0  0  0  0  0  0  0  0  0
   18.1079   -8.6157    0.0000 C   0  0  2  0  0  0  0  0  0  0  0  0
   18.1079   -9.4407    0.0000 C   0  0  1  0  0  0  0  0  0  0  0  0
   17.3935   -9.8532    0.0000 C   0  0  0  0  0  0  0  0  0  0  0  0
   18.8224   -9.8532    0.0000 O   0  0  0  0  0  0  0  0  0  0  0  0
   18.8224   -8.2032    0.0000 O   0  0  0  0  0  0  0  0  0  0  0  0
   17.3935   -7.3782    0.0000 O   0  0  0  0  0  0  0  0  0  0  0  0
   15.9645   -9.8532    0.0000 C   0  0  0  0  0  0  0  0  0  0  0  0
   14.5356   -7.3782    0.0000 O   0  0  0  0  0  0  0  0  0  0  0  0
   13.1066   -8.2032    0.0000 O   0  0  0  0  0  0  0  0  0  0  0  0
   14.3212  -11.0495    0.0000 O   0  0  0  0  0  0  0  0  0  0  0  0
   15.1219  -12.2824    0.0000 O   0  0  0  0  0  0  0  0  0  0  0  0
   15.0357  -11.4620    0.0000 C   0  0  2  0  0  0  0  0  0  0  0  0
   15.7894  -11.1264    0.0000 C   0  0  2  0  0  0  0  0  0  0  0  0
   16.3414  -11.7395    0.0000 C   0  0  1  0  0  0  0  0  0  0  0  0
   15.9289  -12.4540    0.0000 C   0  0  1  0  0  0  0  0  0  0  0  0
   16.2645  -13.2076    0.0000 C   0  0  0  0  0  0  0  0  0  0  0  0
   17.0849  -13.2939    0.0000 O   0  0  0  0  0  0  0  0  0  0  0  0
   17.1619  -11.6533    0.0000 O   0  0  0  0  0  0  0  0  0  0  0  0
   15.9609  -10.3194    0.0000 O   0  0  0  0  0  0  0  0  0  0  0  0
   14.3212  -12.6995    0.0000 O   0  0  0  0  0  0  0  0  0  0  0  0
   14.3212  -13.5245    0.0000 C   0  0  0  0  0  0  0  0  0  0  0  0
   13.6068  -13.9370    0.0000 O   0  0  0  0  0  0  0  0  0  0  0  0
   15.0357  -13.9370    0.0000 C   0  0  0  0  0  0  0  0  0  0  0  0
    6.0334  -13.6895    0.0000 H   0  0  0  0  0  0  0  0  0  0  0  0
    8.8913  -11.2145    0.0000 H   0  0  0  0  0  0  0  0  0  0  0  0
    6.7478  -12.4520    0.0000 H   0  0  0  0  0  0  0  0  0  0  0  0
  1  2  1  0  0  0  0
  2  3  1  0  0  0  0
  3  4  1  0  0  0  0
  4  5  1  0  0  0  0
  5  6  1  0  0  0  0
  1  6  1  0  0  0  0
  7  8  2  0  0  0  0
  7  9  1  0  0  0  0
  2  7  1  6  0  0  0
 11 12  1  0  0  0  0
 12 13  1  0  0  0  0
 13 14  1  0  0  0  0
 14 15  1  0  0  0  0
 15 16  1  0  0  0  0
 11 16  1  0  0  0  0
 17 18  1  0  0  0  0
 16 17  1  6  0  0  0
 15 19  1  6  0  0  0
 14 20  1  6  0  0  0
 13 21  1  1  0  0  0
 12 10  1  6  0  0  0
  5 10  1  1  0  0  0
  4 22  1  6  0  0  0
  3 23  1  1  0  0  0
 25 26  1  0  0  0  0
 26 27  1  0  0  0  0
 27 28  1  0  0  0  0
 28 29  1  0  0  0  0
 29 30  1  0  0  0  0
 30 31  1  0  0  0  0
 31 32  1  0  0  0  0
 32 33  1  0  0  0  0
 33 34  1  0  0  0  0
 34 35  1  0  0  0  0
 35 36  1  0  0  0  0
 36 37  1  0  0  0  0
 37 38  1  0  0  0  0
 38 39  1  0  0  0  0
 39 40  1  0  0  0  0
 40 41  1  0  0  0  0
 36 41  1  0  0  0  0
 41 42  1  0  0  0  0
 33 42  1  0  0  0  0
 42 43  2  0  0  0  0
 43 44  1  0  0  0  0
 44 45  1  0  0  0  0
 32 45  1  0  0  0  0
 45 46  1  0  0  0  0
 29 46  1  0  0  0  0
 25 46  1  0  0  0  0
 46 47  1  1  0  0  0
 39 48  1  0  0  0  0
 39 49  1  0  0  0  0
 33 50  1  6  0  0  0
 32 51  1  1  0  0  0
 28 52  1  1  0  0  0
 35 53  1  6  0  0  0
 54 55  2  0  0  0  0
 28 54  1  6  0  0  0
 56 57  2  0  0  0  0
 59 60  1  0  0  0  0
 60 61  1  0  0  0  0
 61 62  1  0  0  0  0
 62 63  1  0  0  0  0
 63 64  1  0  0  0  0
 59 64  1  0  0  0  0
 64 65  1  1  0  0  0
 67 68  1  0  0  0  0
 68 69  1  0  0  0  0
 69 70  1  0  0  0  0
 70 71  1  0  0  0  0
 71 72  1  0  0  0  0
 67 72  1  0  0  0  0
 74 75  1  0  0  0  0
 75 76  1  0  0  0  0
 76 77  1  0  0  0  0
 77 78  1  0  0  0  0
 78 79  1  0  0  0  0
 74 79  1  0  0  0  0
 78 80  1  6  0  0  0
 77 81  1  1  0  0  0
 76 82  1  6  0  0  0
 75 73  1  1  0  0  0
 71 73  1  1  0  0  0
 72 83  1  6  0  0  0
 70 84  1  6  0  0  0
 69 85  1  6  0  0  0
 68 66  1  1  0  0  0
 61 66  1  6  0  0  0
 87 88  1  0  0  0  0
 88 89  1  0  0  0  0
 89 90  1  0  0  0  0
 90 91  1  0  0  0  0
 87 91  1  0  0  0  0
 92 93  1  0  0  0  0
 91 92  1  1  0  0  0
 90 94  1  6  0  0  0
 89 95  1  1  0  0  0
 88 86  1  1  0  0  0
 62 86  1  1  0  0  0
 97 98  2  0  0  0  0
 97 99  1  0  0  0  0
 96 97  1  0  0  0  0
 63 96  1  1  0  0  0
 60 58  1  1  0  0  0
 56 58  1  0  0  0  0
 36 56  1  1  0  0  0
 27 24  1  1  0  0  0
  6 24  1  6  0  0  0
 29100  1  6  0  0  0
 41101  1  1  0  0  0
 45102  1  6  0  0  0
M  END
>  <cdx:groupId>
33100

>  <cdx:fragmentId>
32933

$$$$
