316446.cdx
  Mrv1902 05222410272D          

 43 48  0  0  0  0            999 V2000
    9.5705   -6.1325    0.0000 C   0  0  2  0  0  0  0  0  0  0  0  0
    9.5705   -6.9575    0.0000 C   0  0  0  0  0  0  0  0  0  0  0  0
   10.2850   -7.3700    0.0000 C   0  0  1  0  0  0  0  0  0  0  0  0
   10.9995   -6.9575    0.0000 C   0  0  0  0  0  0  0  0  0  0  0  0
   10.9995   -6.1325    0.0000 C   0  0  0  0  0  0  0  0  0  0  0  0
   10.2850   -5.7200    0.0000 C   0  0  1  0  0  0  0  0  0  0  0  0
   10.2850   -4.8950    0.0000 C   0  0  0  0  0  0  0  0  0  0  0  0
   11.6325   -5.7475    0.0000 O   0  0  0  0  0  0  0  0  0  0  0  0
   10.2850   -6.5450    0.0000 C   0  0  2  0  0  0  0  0  0  0  0  0
    8.8561   -5.7200    0.0000 O   0  0  0  0  0  0  0  0  0  0  0  0
    9.6800   -7.3150    0.0000 C   0  0  0  0  0  0  0  0  0  0  0  0
    9.6800   -8.1400    0.0000 O   0  0  0  0  0  0  0  0  0  0  0  0
   11.6325   -6.5450    0.0000 C   0  0  1  0  0  0  0  0  0  0  0  0
    8.9615   -8.5455    0.0000 C   0  0  0  0  0  0  0  0  0  0  0  0
    8.2511   -8.1260    0.0000 O   0  0  0  0  0  0  0  0  0  0  0  0
    8.9534   -9.3704    0.0000 C   0  0  0  0  0  0  0  0  0  0  0  0
    9.6638   -9.7899    0.0000 C   0  0  0  0  0  0  0  0  0  0  0  0
    9.6557  -10.6149    0.0000 C   0  0  0  0  0  0  0  0  0  0  0  0
    8.9373  -11.0204    0.0000 C   0  0  0  0  0  0  0  0  0  0  0  0
    8.2269  -10.6009    0.0000 C   0  0  0  0  0  0  0  0  0  0  0  0
    8.2350   -9.7759    0.0000 C   0  0  0  0  0  0  0  0  0  0  0  0
    8.1416   -6.1325    0.0000 C   0  0  2  0  0  0  0  0  0  0  0  0
    7.4271   -5.7200    0.0000 O   0  0  0  0  0  0  0  0  0  0  0  0
    6.7126   -6.1325    0.0000 C   0  0  1  0  0  0  0  0  0  0  0  0
    6.7126   -6.9575    0.0000 C   0  0  2  0  0  0  0  0  0  0  0  0
    7.4271   -7.3700    0.0000 C   0  0  1  0  0  0  0  0  0  0  0  0
    8.1416   -6.9575    0.0000 C   0  0  1  0  0  0  0  0  0  0  0  0
    5.9982   -5.7200    0.0000 C   0  0  0  0  0  0  0  0  0  0  0  0
    7.4271   -8.1950    0.0000 O   0  0  0  0  0  0  0  0  0  0  0  0
    8.8561   -7.3700    0.0000 O   0  0  0  0  0  0  0  0  0  0  0  0
    5.9982   -7.3700    0.0000 O   0  0  0  0  0  0  0  0  0  0  0  0
    5.2837   -6.1325    0.0000 O   0  0  0  0  0  0  0  0  0  0  0  0
   10.2850   -8.1950    0.0000 H   0  0  0  0  0  0  0  0  0  0  0  0
   11.7139   -7.3700    0.0000 O   0  0  0  0  0  0  0  0  0  0  0  0
   12.3470   -6.9575    0.0000 O   0  0  0  0  0  0  0  0  0  0  0  0
    4.5692   -5.7200    0.0000 C   0  0  0  0  0  0  0  0  0  0  0  0
    3.8548   -6.1325    0.0000 C   0  0  0  0  0  0  0  0  0  0  0  0
    4.5692   -4.8950    0.0000 O   0  0  0  0  0  0  0  0  0  0  0  0
    3.1403   -5.7200    0.0000 C   0  0  0  0  0  0  0  0  0  0  0  0
    2.4258   -6.1325    0.0000 C   0  0  0  0  0  0  0  0  0  0  0  0
    2.4258   -6.9575    0.0000 C   0  0  0  0  0  0  0  0  0  0  0  0
    3.1403   -7.3700    0.0000 C   0  0  0  0  0  0  0  0  0  0  0  0
    3.8548   -6.9575    0.0000 C   0  0  0  0  0  0  0  0  0  0  0  0
  1  2  1  0  0  0  0
  2  3  1  0  0  0  0
  3  4  1  0  0  0  0
  4  5  1  0  0  0  0
  5  6  1  0  0  0  0
  6  1  1  0  0  0  0
  6  7  1  6  0  0  0
  6  8  1  0  0  0  0
  3  9  1  0  0  0  0
  1 10  1  1  0  0  0
  9  1  1  0  0  0  0
  9 11  1  1  0  0  0
 11 12  1  0  0  0  0
  8 13  1  0  0  0  0
  9 13  1  0  0  0  0
 12 14  1  0  0  0  0
 14 15  2  0  0  0  0
 14 16  1  0  0  0  0
 16 17  2  0  0  0  0
 17 18  1  0  0  0  0
 18 19  2  0  0  0  0
 19 20  1  0  0  0  0
 20 21  2  0  0  0  0
 21 16  1  0  0  0  0
 22 10  1  1  0  0  0
 22 23  1  0  0  0  0
 23 24  1  0  0  0  0
 24 25  1  0  0  0  0
 25 26  1  0  0  0  0
 26 27  1  0  0  0  0
 27 22  1  0  0  0  0
 24 28  1  1  0  0  0
 26 29  1  1  0  0  0
 27 30  1  6  0  0  0
 25 31  1  6  0  0  0
 28 32  1  0  0  0  0
  3 33  1  1  0  0  0
  4 34  2  0  0  0  0
 13 35  1  6  0  0  0
 32 36  1  0  0  0  0
 36 37  1  0  0  0  0
 36 38  2  0  0  0  0
 37 39  2  0  0  0  0
 39 40  1  0  0  0  0
 40 41  2  0  0  0  0
 41 42  1  0  0  0  0
 42 43  2  0  0  0  0
 43 37  1  0  0  0  0
M  END
>  <cdx:fragmentId>
157

$$$$
