102316464.cdx
  Mrv1902 05222410182D          

101111  0  0  0  0            999 V2000
    2.4609  -14.3990    0.0000 O   0  0  0  0  0  0  0  0  0  0  0  0
    1.7464  -13.9865    0.0000 C   0  0  1  0  0  0  0  0  0  0  0  0
    1.7464  -13.1615    0.0000 C   0  0  2  0  0  0  0  0  0  0  0  0
    2.4609  -12.7490    0.0000 C   0  0  1  0  0  0  0  0  0  0  0  0
    3.1753  -13.1615    0.0000 C   0  0  2  0  0  0  0  0  0  0  0  0
    3.1753  -13.9865    0.0000 C   0  0  2  0  0  0  0  0  0  0  0  0
    1.0319  -14.3990    0.0000 C   0  0  0  0  0  0  0  0  0  0  0  0
    1.0319  -15.2240    0.0000 O   0  0  0  0  0  0  0  0  0  0  0  0
    0.3174  -13.9865    0.0000 O   0  0  0  0  0  0  0  0  0  0  0  0
    3.8898  -12.7490    0.0000 O   0  0  0  0  0  0  0  0  0  0  0  0
    3.1753  -11.5115    0.0000 O   0  0  0  0  0  0  0  0  0  0  0  0
    3.8898  -11.9240    0.0000 C   0  0  2  0  0  0  0  0  0  0  0  0
    4.6043  -11.5115    0.0000 C   0  0  1  0  0  0  0  0  0  0  0  0
    4.6043  -10.6865    0.0000 C   0  0  2  0  0  0  0  0  0  0  0  0
    3.8898  -10.2740    0.0000 C   0  0  2  0  0  0  0  0  0  0  0  0
    3.1753  -10.6865    0.0000 C   0  0  1  0  0  0  0  0  0  0  0  0
    2.4609  -10.2740    0.0000 C   0  0  0  0  0  0  0  0  0  0  0  0
    1.7464  -10.6865    0.0000 O   0  0  0  0  0  0  0  0  0  0  0  0
    3.8898   -9.4490    0.0000 O   0  0  0  0  0  0  0  0  0  0  0  0
    5.3187  -10.2740    0.0000 O   0  0  0  0  0  0  0  0  0  0  0  0
    5.3187  -11.9240    0.0000 O   0  0  0  0  0  0  0  0  0  0  0  0
    2.4609  -11.9240    0.0000 O   0  0  0  0  0  0  0  0  0  0  0  0
    1.0319  -12.7490    0.0000 O   0  0  0  0  0  0  0  0  0  0  0  0
    3.8898  -14.3990    0.0000 O   0  0  0  0  0  0  0  0  0  0  0  0
    5.3187  -12.7490    0.0000 C   0  0  0  0  0  0  0  0  0  0  0  0
    4.6043  -13.1615    0.0000 C   0  0  0  0  0  0  0  0  0  0  0  0
    4.6043  -13.9865    0.0000 C   0  0  1  0  0  0  0  0  0  0  0  0
    5.3187  -14.3990    0.0000 C   0  0  1  0  0  0  0  0  0  0  0  0
    6.0332  -13.9865    0.0000 C   0  0  2  0  0  0  0  0  0  0  0  0
    6.7477  -14.3990    0.0000 C   0  0  0  0  0  0  0  0  0  0  0  0
    7.4622  -13.9865    0.0000 C   0  0  0  0  0  0  0  0  0  0  0  0
    7.4622  -13.1615    0.0000 C   0  0  1  0  0  0  0  0  0  0  0  0
    8.1766  -12.7490    0.0000 C   0  0  2  0  0  0  0  0  0  0  0  0
    8.8911  -13.1615    0.0000 C   0  0  0  0  0  0  0  0  0  0  0  0
    9.6056  -12.7490    0.0000 C   0  0  0  0  0  0  0  0  0  0  0  0
    9.6056  -11.9240    0.0000 C   0  0  1  0  0  0  0  0  0  0  0  0
   10.3200  -11.5115    0.0000 C   0  0  0  0  0  0  0  0  0  0  0  0
   10.3200  -10.6865    0.0000 C   0  0  0  0  0  0  0  0  0  0  0  0
    9.6056  -10.2740    0.0000 C   0  0  0  0  0  0  0  0  0  0  0  0
    8.8911  -10.6865    0.0000 C   0  0  0  0  0  0  0  0  0  0  0  0
    8.8911  -11.5115    0.0000 C   0  0  1  0  0  0  0  0  0  0  0  0
    8.1766  -11.9240    0.0000 C   0  0  0  0  0  0  0  0  0  0  0  0
    7.4622  -11.5115    0.0000 C   0  0  0  0  0  0  0  0  0  0  0  0
    6.7477  -11.9240    0.0000 C   0  0  0  0  0  0  0  0  0  0  0  0
    6.7477  -12.7490    0.0000 C   0  0  2  0  0  0  0  0  0  0  0  0
    6.0332  -13.1615    0.0000 C   0  0  1  0  0  0  0  0  0  0  0  0
    6.0332  -12.3365    0.0000 C   0  0  0  0  0  0  0  0  0  0  0  0
    9.1931   -9.5595    0.0000 C   0  0  0  0  0  0  0  0  0  0  0  0
   10.0181   -9.5595    0.0000 C   0  0  0  0  0  0  0  0  0  0  0  0
    8.1766  -13.5740    0.0000 C   0  0  0  0  0  0  0  0  0  0  0  0
    7.4622  -12.3365    0.0000 C   0  0  0  0  0  0  0  0  0  0  0  0
    4.9062  -15.1134    0.0000 C   0  0  0  0  0  0  0  0  0  0  0  0
    5.7312  -15.1134    0.0000 C   0  0  0  0  0  0  0  0  0  0  0  0
    5.3187  -15.8279    0.0000 O   0  0  0  0  0  0  0  0  0  0  0  0
   10.3200  -12.3365    0.0000 C   0  0  0  0  0  0  0  0  0  0  0  0
   10.3200  -13.1615    0.0000 O   0  0  0  0  0  0  0  0  0  0  0  0
   11.0345  -11.9240    0.0000 O   0  0  0  0  0  0  0  0  0  0  0  0
   11.7490  -13.1615    0.0000 O   0  0  0  0  0  0  0  0  0  0  0  0
   11.7490  -12.3365    0.0000 C   0  0  2  0  0  0  0  0  0  0  0  0
   12.4634  -11.9240    0.0000 C   0  0  1  0  0  0  0  0  0  0  0  0
   13.1779  -12.3365    0.0000 C   0  0  2  0  0  0  0  0  0  0  0  0
   13.1779  -13.1615    0.0000 C   0  0  2  0  0  0  0  0  0  0  0  0
   12.4634  -13.5740    0.0000 C   0  0  1  0  0  0  0  0  0  0  0  0
   12.4634  -14.3990    0.0000 C   0  0  0  0  0  0  0  0  0  0  0  0
   12.4634  -10.8515    0.0000 O   0  0  0  0  0  0  0  0  0  0  0  0
   14.1067  -10.7277    0.0000 O   0  0  0  0  0  0  0  0  0  0  0  0
   13.3923  -10.3152    0.0000 C   0  0  2  0  0  0  0  0  0  0  0  0
   13.3923   -9.4902    0.0000 C   0  0  1  0  0  0  0  0  0  0  0  0
   14.1067   -9.0777    0.0000 C   0  0  1  0  0  0  0  0  0  0  0  0
   14.8212   -9.4902    0.0000 C   0  0  2  0  0  0  0  0  0  0  0  0
   14.8212  -10.3152    0.0000 C   0  0  2  0  0  0  0  0  0  0  0  0
   15.5357   -9.0777    0.0000 O   0  0  0  0  0  0  0  0  0  0  0  0
   16.2501  -10.3152    0.0000 O   0  0  0  0  0  0  0  0  0  0  0  0
   16.2501   -9.4902    0.0000 C   0  0  2  0  0  0  0  0  0  0  0  0
   16.9646   -9.0777    0.0000 C   0  0  1  0  0  0  0  0  0  0  0  0
   17.6791   -9.4902    0.0000 C   0  0  2  0  0  0  0  0  0  0  0  0
   17.6791  -10.3152    0.0000 C   0  0  1  0  0  0  0  0  0  0  0  0
   16.9646  -10.7277    0.0000 C   0  0  0  0  0  0  0  0  0  0  0  0
   18.3936  -10.7277    0.0000 O   0  0  0  0  0  0  0  0  0  0  0  0
   18.3936   -9.0777    0.0000 O   0  0  0  0  0  0  0  0  0  0  0  0
   16.9646   -8.2527    0.0000 O   0  0  0  0  0  0  0  0  0  0  0  0
   15.5357  -10.7277    0.0000 C   0  0  0  0  0  0  0  0  0  0  0  0
   14.1067   -8.2527    0.0000 O   0  0  0  0  0  0  0  0  0  0  0  0
   12.6778   -9.0777    0.0000 O   0  0  0  0  0  0  0  0  0  0  0  0
   13.8924  -11.9240    0.0000 O   0  0  0  0  0  0  0  0  0  0  0  0
   14.6931  -13.1569    0.0000 O   0  0  0  0  0  0  0  0  0  0  0  0
   14.6069  -12.3365    0.0000 C   0  0  2  0  0  0  0  0  0  0  0  0
   15.3605  -12.0009    0.0000 C   0  0  2  0  0  0  0  0  0  0  0  0
   15.9126  -12.6140    0.0000 C   0  0  1  0  0  0  0  0  0  0  0  0
   15.5001  -13.3285    0.0000 C   0  0  1  0  0  0  0  0  0  0  0  0
   15.8356  -14.0821    0.0000 C   0  0  0  0  0  0  0  0  0  0  0  0
   16.6561  -14.1684    0.0000 O   0  0  0  0  0  0  0  0  0  0  0  0
   16.7330  -12.5278    0.0000 O   0  0  0  0  0  0  0  0  0  0  0  0
   15.5321  -11.1939    0.0000 O   0  0  0  0  0  0  0  0  0  0  0  0
   13.8924  -13.5740    0.0000 O   0  0  0  0  0  0  0  0  0  0  0  0
   13.8924  -14.3990    0.0000 C   0  0  0  0  0  0  0  0  0  0  0  0
   13.1779  -14.8115    0.0000 O   0  0  0  0  0  0  0  0  0  0  0  0
   14.6069  -14.8115    0.0000 C   0  0  0  0  0  0  0  0  0  0  0  0
    6.0332  -14.8115    0.0000 H   0  0  0  0  0  0  0  0  0  0  0  0
    8.8911  -12.3365    0.0000 H   0  0  0  0  0  0  0  0  0  0  0  0
    6.7477  -13.5740    0.0000 H   0  0  0  0  0  0  0  0  0  0  0  0
  1  2  1  0  0  0  0
  2  3  1  0  0  0  0
  3  4  1  0  0  0  0
  4  5  1  0  0  0  0
  5  6  1  0  0  0  0
  1  6  1  0  0  0  0
  7  8  2  0  0  0  0
  7  9  1  0  0  0  0
  2  7  1  6  0  0  0
 11 12  1  0  0  0  0
 12 13  1  0  0  0  0
 13 14  1  0  0  0  0
 14 15  1  0  0  0  0
 15 16  1  0  0  0  0
 11 16  1  0  0  0  0
 17 18  1  0  0  0  0
 16 17  1  6  0  0  0
 15 19  1  6  0  0  0
 14 20  1  6  0  0  0
 13 21  1  1  0  0  0
 12 10  1  6  0  0  0
  5 10  1  1  0  0  0
  4 22  1  6  0  0  0
  3 23  1  1  0  0  0
 25 26  1  0  0  0  0
 26 27  1  0  0  0  0
 27 28  1  0  0  0  0
 28 29  1  0  0  0  0
 29 30  1  0  0  0  0
 30 31  1  0  0  0  0
 31 32  1  0  0  0  0
 32 33  1  0  0  0  0
 33 34  1  0  0  0  0
 34 35  1  0  0  0  0
 35 36  1  0  0  0  0
 36 37  1  0  0  0  0
 37 38  1  0  0  0  0
 38 39  1  0  0  0  0
 39 40  1  0  0  0  0
 40 41  1  0  0  0  0
 36 41  1  0  0  0  0
 41 42  1  0  0  0  0
 33 42  1  0  0  0  0
 42 43  2  0  0  0  0
 43 44  1  0  0  0  0
 44 45  1  0  0  0  0
 32 45  1  0  0  0  0
 45 46  1  0  0  0  0
 29 46  1  0  0  0  0
 25 46  1  0  0  0  0
 46 47  1  1  0  0  0
 39 48  1  0  0  0  0
 39 49  1  0  0  0  0
 33 50  1  6  0  0  0
 32 51  1  1  0  0  0
 28 52  1  1  0  0  0
 53 54  2  0  0  0  0
 28 53  1  6  0  0  0
 55 56  2  0  0  0  0
 58 59  1  0  0  0  0
 59 60  1  0  0  0  0
 60 61  1  0  0  0  0
 61 62  1  0  0  0  0
 62 63  1  0  0  0  0
 58 63  1  0  0  0  0
 63 64  1  1  0  0  0
 66 67  1  0  0  0  0
 67 68  1  0  0  0  0
 68 69  1  0  0  0  0
 69 70  1  0  0  0  0
 70 71  1  0  0  0  0
 66 71  1  0  0  0  0
 73 74  1  0  0  0  0
 74 75  1  0  0  0  0
 75 76  1  0  0  0  0
 76 77  1  0  0  0  0
 77 78  1  0  0  0  0
 73 78  1  0  0  0  0
 77 79  1  6  0  0  0
 76 80  1  1  0  0  0
 75 81  1  6  0  0  0
 74 72  1  1  0  0  0
 70 72  1  1  0  0  0
 71 82  1  6  0  0  0
 69 83  1  6  0  0  0
 68 84  1  6  0  0  0
 67 65  1  1  0  0  0
 60 65  1  6  0  0  0
 86 87  1  0  0  0  0
 87 88  1  0  0  0  0
 88 89  1  0  0  0  0
 89 90  1  0  0  0  0
 86 90  1  0  0  0  0
 91 92  1  0  0  0  0
 90 91  1  1  0  0  0
 89 93  1  6  0  0  0
 88 94  1  1  0  0  0
 87 85  1  1  0  0  0
 61 85  1  1  0  0  0
 96 97  2  0  0  0  0
 96 98  1  0  0  0  0
 95 96  1  0  0  0  0
 62 95  1  1  0  0  0
 59 57  1  1  0  0  0
 55 57  1  0  0  0  0
 36 55  1  1  0  0  0
 27 24  1  1  0  0  0
  6 24  1  6  0  0  0
 29 99  1  6  0  0  0
 41100  1  1  0  0  0
 45101  1  6  0  0  0
M  END
>  <cdx:groupId>
33778

>  <cdx:fragmentId>
33612

$$$$
