5316534.cdx
  Mrv1902 05222410282D          

 16 16  0  0  0  0            999 V2000
   18.7297   -8.5071    0.0000 C   0  0  0  0  0  0  0  0  0  0  0  0
   18.7297   -9.3321    0.0000 C   0  0  0  0  0  0  0  0  0  0  0  0
   19.4441   -9.7446    0.0000 C   0  0  0  0  0  0  0  0  0  0  0  0
   18.0152   -9.7446    0.0000 C   0  0  0  0  0  0  0  0  0  0  0  0
   17.3008   -9.3321    0.0000 C   0  0  0  0  0  0  0  0  0  0  0  0
   16.5863   -9.7446    0.0000 C   0  0  0  0  0  0  0  0  0  0  0  0
   15.8718   -9.3321    0.0000 C   0  0  0  0  0  0  0  0  0  0  0  0
   15.8718   -8.5071    0.0000 C   0  0  0  0  0  0  0  0  0  0  0  0
   15.1573   -9.7446    0.0000 C   0  0  0  0  0  0  0  0  0  0  0  0
   14.4428   -9.3321    0.0000 C   0  0  0  0  0  0  0  0  0  0  0  0
   13.7284   -9.7446    0.0000 C   0  0  0  0  0  0  0  0  0  0  0  0
   13.0139   -9.3321    0.0000 C   0  0  0  0  0  0  0  0  0  0  0  0
   12.2603   -9.6676    0.0000 C   0  0  0  0  0  0  0  0  0  0  0  0
   11.7082   -9.0546    0.0000 O   0  0  0  0  0  0  0  0  0  0  0  0
   12.1207   -8.3401    0.0000 C   0  0  0  0  0  0  0  0  0  0  0  0
   12.9277   -8.5116    0.0000 C   0  0  0  0  0  0  0  0  0  0  0  0
  1  2  1  0  0  0  0
  2  3  1  0  0  0  0
  2  4  2  0  0  0  0
  4  5  1  0  0  0  0
  5  6  1  0  0  0  0
  6  7  1  0  0  0  0
  7  8  1  0  0  0  0
  7  9  2  0  0  0  0
  9 10  1  0  0  0  0
 10 11  1  0  0  0  0
 11 12  1  0  0  0  0
 12 13  2  0  0  0  0
 13 14  1  0  0  0  0
 14 15  1  0  0  0  0
 15 16  2  0  0  0  0
 12 16  1  0  0  0  0
M  END
>  <cdx:fragmentId>
4672

$$$$
