316586.cdx
  Mrv1902 05222410242D          

 10  9  0  0  0  0            999 V2000
    5.5728   -7.4332    0.0000 C   0  0  0  0  0  0  0  0  0  0  0  0
    5.5728   -6.6082    0.0000 C   0  0  0  0  0  0  0  0  0  0  0  0
    6.2873   -6.1957    0.0000 C   0  0  0  0  0  0  0  0  0  0  0  0
    7.0018   -6.6082    0.0000 C   0  0  0  0  0  0  0  0  0  0  0  0
    7.7162   -6.1957    0.0000 C   0  0  0  0  0  0  0  0  0  0  0  0
    8.4307   -5.7832    0.0000 C   0  0  0  0  0  0  0  0  0  0  0  0
    9.1452   -5.3707    0.0000 C   0  0  0  0  0  0  0  0  0  0  0  0
    9.1452   -4.5457    0.0000 C   0  0  0  0  0  0  0  0  0  0  0  0
    9.8596   -5.7832    0.0000 C   0  0  0  0  0  0  0  0  0  0  0  0
    4.8584   -6.1957    0.0000 C   0  0  0  0  0  0  0  0  0  0  0  0
  1  2  1  0  0  0  0
  2  3  1  0  0  0  0
  3  4  2  0  0  0  0
  4  5  1  0  0  0  0
  5  6  3  0  0  0  0
  6  7  1  0  0  0  0
  7  8  1  0  0  0  0
  7  9  1  0  0  0  0
  2 10  1  0  0  0  0
M  END
>  <cdx:fragmentId>
5

$$$$
