316542.cdx
  Mrv1902 05222410262D          

  7  6  0  0  0  0            999 V2000
   16.2262  -13.4869    0.0000 C   0  0  0  0  0  0  0  0  0  0  0  0
   14.7972  -13.4869    0.0000 N   0  0  0  0  0  0  0  0  0  0  0  0
   15.5117  -13.8994    0.0000 C   0  0  0  0  0  0  0  0  0  0  0  0
   16.2262  -12.6619    0.0000 O   0  0  0  0  0  0  0  0  0  0  0  0
   16.9406  -13.8994    0.0000 O   0  0  0  0  0  0  0  0  0  0  0  0
   14.0828  -13.8994    0.0000 C   0  0  0  0  0  0  0  0  0  0  0  0
   13.3683  -13.4869    0.0000 C   0  0  0  0  0  0  0  0  0  0  0  0
  2  3  1  0  0  0  0
  1  3  1  0  0  0  0
  1  4  2  0  0  0  0
  1  5  1  0  0  0  0
  6  7  1  0  0  0  0
  2  6  1  0  0  0  0
M  END
>  <cdx:groupId>
836

>  <cdx:fragmentId>
821

$$$$
