102316547.cdx
  Mrv1902 05222410242D          

 36 38  0  0  0  0            999 V2000
    6.2212  -13.9486    0.0000 C   0  0  0  0  0  0  0  0  0  0  0  0
    5.5067  -14.3611    0.0000 C   0  0  0  0  0  0  0  0  0  0  0  0
    4.7922  -13.9486    0.0000 C   0  0  0  0  0  0  0  0  0  0  0  0
    6.2212  -13.1236    0.0000 O   0  0  0  0  0  0  0  0  0  0  0  0
    6.9356  -14.3611    0.0000 O   0  0  0  0  0  0  0  0  0  0  0  0
    4.0778  -14.3611    0.0000 C   0  0  0  0  0  0  0  0  0  0  0  0
    3.3633  -13.9486    0.0000 C   0  0  0  0  0  0  0  0  0  0  0  0
    2.6488  -14.3611    0.0000 C   0  0  0  0  0  0  0  0  0  0  0  0
    2.6488  -15.1861    0.0000 C   0  0  0  0  0  0  0  0  0  0  0  0
    3.3633  -15.5986    0.0000 C   0  0  0  0  0  0  0  0  0  0  0  0
    4.0778  -15.1861    0.0000 C   0  0  0  0  0  0  0  0  0  0  0  0
    1.9343  -13.9486    0.0000 O   0  0  0  0  0  0  0  0  0  0  0  0
    1.2199  -14.3611    0.0000 C   0  0  0  0  0  0  0  0  0  0  0  0
    1.9343  -15.5986    0.0000 O   0  0  0  0  0  0  0  0  0  0  0  0
    7.6501  -13.9486    0.0000 C   0  0  0  0  0  0  0  0  0  0  0  0
    9.0791  -13.9486    0.0000 O   0  0  0  0  0  0  0  0  0  0  0  0
    8.3646  -14.3611    0.0000 C   0  0  1  0  0  0  0  0  0  0  0  0
    8.3646  -15.1861    0.0000 C   0  0  2  0  0  0  0  0  0  0  0  0
    9.0791  -15.5986    0.0000 C   0  0  1  0  0  0  0  0  0  0  0  0
    9.7935  -15.1861    0.0000 C   0  0  2  0  0  0  0  0  0  0  0  0
    9.7935  -14.3611    0.0000 C   0  0  1  0  0  0  0  0  0  0  0  0
   10.5080  -15.5986    0.0000 O   0  0  0  0  0  0  0  0  0  0  0  0
    9.0791  -16.4236    0.0000 O   0  0  0  0  0  0  0  0  0  0  0  0
    7.6501  -15.5986    0.0000 O   0  0  0  0  0  0  0  0  0  0  0  0
   10.5080  -13.9486    0.0000 O   0  0  0  0  0  0  0  0  0  0  0  0
   10.8869  -15.1147    0.0000 O   0  0  0  0  0  0  0  0  0  0  0  0
   11.2225  -14.3611    0.0000 C   0  0  2  0  0  0  0  0  0  0  0  0
   12.0430  -14.4473    0.0000 C   0  0  2  0  0  0  0  0  0  0  0  0
   12.2145  -15.2543    0.0000 C   0  0  1  0  0  0  0  0  0  0  0  0
   11.5000  -15.6668    0.0000 C   0  0  1  0  0  0  0  0  0  0  0  0
   11.4138  -16.4872    0.0000 C   0  0  0  0  0  0  0  0  0  0  0  0
   10.6601  -16.8228    0.0000 O   0  0  0  0  0  0  0  0  0  0  0  0
   11.2225  -13.5361    0.0000 C   0  0  0  0  0  0  0  0  0  0  0  0
   11.9369  -13.1236    0.0000 O   0  0  0  0  0  0  0  0  0  0  0  0
   12.9682  -15.5898    0.0000 O   0  0  0  0  0  0  0  0  0  0  0  0
   12.5950  -13.8342    0.0000 O   0  0  0  0  0  0  0  0  0  0  0  0
  1  2  1  0  0  0  0
  2  3  1  0  0  0  0
  1  4  2  0  0  0  0
  1  5  1  0  0  0  0
  6  7  1  0  0  0  0
  7  8  2  0  0  0  0
  8  9  1  0  0  0  0
  9 10  2  0  0  0  0
 10 11  1  0  0  0  0
  6 11  2  0  0  0  0
 12 13  1  0  0  0  0
  8 12  1  0  0  0  0
  9 14  1  0  0  0  0
  3  6  1  0  0  0  0
 16 17  1  0  0  0  0
 17 18  1  0  0  0  0
 18 19  1  0  0  0  0
 19 20  1  0  0  0  0
 20 21  1  0  0  0  0
 16 21  1  0  0  0  0
 20 22  1  6  0  0  0
 19 23  1  1  0  0  0
 18 24  1  6  0  0  0
 26 27  1  0  0  0  0
 27 28  1  0  0  0  0
 28 29  1  0  0  0  0
 29 30  1  0  0  0  0
 26 30  1  0  0  0  0
 31 32  1  0  0  0  0
 30 31  1  1  0  0  0
 33 34  1  0  0  0  0
 27 33  1  6  0  0  0
 29 35  1  6  0  0  0
 28 36  1  1  0  0  0
 27 25  1  1  0  0  0
 21 25  1  6  0  0  0
 17 15  1  1  0  0  0
  5 15  1  0  0  0  0
M  END
>  <cdx:groupId>
34459

>  <cdx:fragmentId>
34402

$$$$
