316527.cdx
  Mrv1902 05222410272D          

 58 62  0  0  0  0            999 V2000
    7.8830   -7.7277    0.0000 O   0  0  0  0  0  0  0  0  0  0  0  0
    7.1636   -8.1317    0.0000 C   0  0  1  0  0  0  0  0  0  0  0  0
    7.1538   -8.9566    0.0000 C   0  0  2  0  0  0  0  0  0  0  0  0
    7.8633   -9.3776    0.0000 C   0  0  1  0  0  0  0  0  0  0  0  0
    8.5826   -8.9737    0.0000 C   0  0  2  0  0  0  0  0  0  0  0  0
    8.5925   -8.1487    0.0000 C   0  0  2  0  0  0  0  0  0  0  0  0
    9.3118   -7.7448    0.0000 O   0  0  0  0  0  0  0  0  0  0  0  0
   10.0198   -8.1683    0.0000 C   0  0  0  0  0  0  0  0  0  0  0  0
   10.7406   -7.7670    0.0000 C   0  0  0  0  0  0  0  0  0  0  0  0
    9.2922   -9.3946    0.0000 O   0  0  0  0  0  0  0  0  0  0  0  0
    6.4345   -9.3606    0.0000 O   0  0  0  0  0  0  0  0  0  0  0  0
    6.4541   -7.7107    0.0000 C   0  0  0  0  0  0  0  0  0  0  0  0
    0.7191   -9.2925    0.0000 O   0  0  0  0  0  0  0  0  0  0  0  0
    0.0194   -8.0466    0.0000 C   0  0  0  0  0  0  0  0  0  0  0  0
    0.7388   -7.6426    0.0000 O   0  0  0  0  0  0  0  0  0  0  0  0
    2.8673   -8.9056    0.0000 C   0  0  0  0  0  0  0  0  0  0  0  0
    2.1479   -9.3095    0.0000 C   0  0  0  0  0  0  0  0  0  0  0  0
    1.4384   -8.8886    0.0000 C   0  0  0  0  0  0  0  0  0  0  0  0
    1.4483   -8.0636    0.0000 C   0  0  0  0  0  0  0  0  0  0  0  0
    2.1676   -7.6597    0.0000 C   0  0  0  0  0  0  0  0  0  0  0  0
    2.8771   -8.0806    0.0000 C   0  0  0  0  0  0  0  0  0  0  0  0
    5.7348   -8.1147    0.0000 O   0  0  0  0  0  0  0  0  0  0  0  0
    5.0351   -6.8688    0.0000 O   0  0  0  0  0  0  0  0  0  0  0  0
    3.5964   -7.6767    0.0000 C   0  0  0  0  0  0  0  0  0  0  0  0
    4.3059   -8.0977    0.0000 C   0  0  0  0  0  0  0  0  0  0  0  0
   13.5981   -7.8116    0.0000 O   0  0  0  0  0  0  0  0  0  0  0  0
   14.2932   -9.0601    0.0000 C   0  0  0  0  0  0  0  0  0  0  0  0
   13.5724   -9.4614    0.0000 O   0  0  0  0  0  0  0  0  0  0  0  0
   11.4357   -9.0155    0.0000 C   0  0  0  0  0  0  0  0  0  0  0  0
   12.1436   -9.4391    0.0000 C   0  0  0  0  0  0  0  0  0  0  0  0
   12.8644   -9.0378    0.0000 C   0  0  0  0  0  0  0  0  0  0  0  0
   12.8773   -8.2129    0.0000 C   0  0  0  0  0  0  0  0  0  0  0  0
   12.1693   -7.7893    0.0000 C   0  0  0  0  0  0  0  0  0  0  0  0
   11.4485   -8.1906    0.0000 C   0  0  0  0  0  0  0  0  0  0  0  0
    6.3952  -12.6604    0.0000 O   0  0  0  0  0  0  0  0  0  0  0  0
    4.9762  -11.8184    0.0000 O   0  0  0  0  0  0  0  0  0  0  0  0
    4.2765  -10.5725    0.0000 O   0  0  0  0  0  0  0  0  0  0  0  0
    4.9958  -10.1685    0.0000 C   0  0  0  0  0  0  0  0  0  0  0  0
    9.2571  -12.6873    0.0000 O   0  0  0  0  0  0  0  0  0  0  0  0
    9.2457  -14.3372    0.0000 O   0  0  0  0  0  0  0  0  0  0  0  0
    7.8111  -15.1524    0.0000 O   0  0  0  0  0  0  0  0  0  0  0  0
    6.3822  -15.1425    0.0000 O   0  0  0  0  0  0  0  0  0  0  0  0
    6.3879  -14.3175    0.0000 C   0  0  0  0  0  0  0  0  0  0  0  0
    7.1052  -13.9100    0.0000 C   0  0  2  0  0  0  0  0  0  0  0  0
    7.8168  -14.3274    0.0000 C   0  0  2  0  0  0  0  0  0  0  0  0
    8.5341  -13.9198    0.0000 C   0  0  1  0  0  0  0  0  0  0  0  0
    8.5398  -13.0948    0.0000 C   0  0  2  0  0  0  0  0  0  0  0  0
    7.8281  -12.6774    0.0000 C   0  0  1  0  0  0  0  0  0  0  0  0
    7.1108  -13.0850    0.0000 O   0  0  0  0  0  0  0  0  0  0  0  0
    7.8338  -11.8524    0.0000 O   0  0  0  0  0  0  0  0  0  0  0  0
    5.7053  -10.5895    0.0000 C   0  0  2  0  0  0  0  0  0  0  0  0
    5.6955  -11.4144    0.0000 C   0  0  2  0  0  0  0  0  0  0  0  0
    6.4050  -11.8354    0.0000 C   0  0  1  0  0  0  0  0  0  0  0  0
    7.1243  -11.4315    0.0000 C   0  0  2  0  0  0  0  0  0  0  0  0
    7.1342  -10.6065    0.0000 C   0  0  1  0  0  0  0  0  0  0  0  0
    6.4246  -10.1855    0.0000 O   0  0  0  0  0  0  0  0  0  0  0  0
    7.8535  -10.2026    0.0000 O   0  0  0  0  0  0  0  0  0  0  0  0
    5.0253   -7.6937    0.0000 C   0  0  0  0  0  0  0  0  0  0  0  0
 22 12  1  0  0  0  0
 24 21  1  0  0  0  0
 18 13  1  0  0  0  0
 19 15  1  0  0  0  0
 15 14  1  0  0  0  0
 21 16  2  0  0  0  0
 17 16  1  0  0  0  0
 18 17  2  0  0  0  0
 19 18  1  0  0  0  0
 20 19  2  0  0  0  0
 21 20  1  0  0  0  0
 58 22  1  0  0  0  0
 58 23  2  0  0  0  0
 25 24  2  0  0  0  0
 58 25  1  0  0  0  0
 32 26  1  0  0  0  0
 31 28  1  0  0  0  0
 28 27  1  0  0  0  0
 34 29  2  0  0  0  0
 30 29  1  0  0  0  0
 31 30  2  0  0  0  0
 32 31  1  0  0  0  0
 33 32  2  0  0  0  0
 34 33  1  0  0  0  0
 55 57  1  1  0  0  0
 53 35  1  1  0  0  0
 52 36  1  6  0  0  0
 51 38  1  1  0  0  0
 38 37  1  0  0  0  0
 54 50  1  6  0  0  0
 48 50  1  1  0  0  0
 47 39  1  6  0  0  0
 46 40  1  1  0  0  0
 45 41  1  6  0  0  0
 44 43  1  1  0  0  0
 43 42  1  0  0  0  0
 49 44  1  0  0  0  0
 45 44  1  0  0  0  0
 46 45  1  0  0  0  0
 47 46  1  0  0  0  0
 48 47  1  0  0  0  0
 49 48  1  0  0  0  0
 56 51  1  0  0  0  0
 52 51  1  0  0  0  0
 53 52  1  0  0  0  0
 54 53  1  0  0  0  0
 55 54  1  0  0  0  0
  1  2  1  0  0  0  0
  2  3  1  0  0  0  0
  3  4  1  0  0  0  0
  4  5  1  0  0  0  0
  5  6  1  0  0  0  0
  1  6  1  0  0  0  0
  8  9  1  0  0  0  0
  7  8  1  0  0  0  0
  9 34  1  0  0  0  0
  6  7  1  1  0  0  0
  5 10  1  6  0  0  0
  3 11  1  6  0  0  0
 56 55  1  0  0  0  0
  4 57  1  1  0  0  0
  2 12  1  1  0  0  0
M  END
>  <cdx:fragmentId>
34241

$$$$
