102316584.cdx
  Mrv1902 05222410242D          

 34 37  0  0  0  0            999 V2000
    7.2435  -13.3702    0.0000 C   0  0  0  0  0  0  0  0  0  0  0  0
    7.9580  -13.7827    0.0000 C   0  0  0  0  0  0  0  0  0  0  0  0
    7.9580  -14.6077    0.0000 C   0  0  0  0  0  0  0  0  0  0  0  0
    7.2435  -15.0202    0.0000 C   0  0  0  0  0  0  0  0  0  0  0  0
    6.5290  -14.6077    0.0000 C   0  0  0  0  0  0  0  0  0  0  0  0
    6.5290  -13.7827    0.0000 C   0  0  0  0  0  0  0  0  0  0  0  0
    7.2435  -12.5452    0.0000 O   0  0  0  0  0  0  0  0  0  0  0  0
    5.8146  -15.0202    0.0000 O   0  0  0  0  0  0  0  0  0  0  0  0
    5.8146  -15.8452    0.0000 C   0  0  0  0  0  0  0  0  0  0  0  0
    5.8146  -13.3702    0.0000 C   0  0  0  0  0  0  0  0  0  0  0  0
    5.1001  -13.7827    0.0000 C   0  0  0  0  0  0  0  0  0  0  0  0
    5.1001  -14.6077    0.0000 C   0  0  0  0  0  0  0  0  0  0  0  0
    4.3856  -15.0202    0.0000 C   0  0  0  0  0  0  0  0  0  0  0  0
    3.6711  -14.6077    0.0000 C   0  0  0  0  0  0  0  0  0  0  0  0
    3.6711  -13.7827    0.0000 C   0  0  0  0  0  0  0  0  0  0  0  0
    4.3856  -13.3702    0.0000 C   0  0  0  0  0  0  0  0  0  0  0  0
    2.9567  -15.0202    0.0000 O   0  0  0  0  0  0  0  0  0  0  0  0
    8.6724  -13.3702    0.0000 C   0  0  0  0  0  0  0  0  0  0  0  0
    9.3869  -13.7827    0.0000 C   0  0  0  0  0  0  0  0  0  0  0  0
   10.1014  -13.3702    0.0000 C   0  0  0  0  0  0  0  0  0  0  0  0
   10.8159  -13.7827    0.0000 C   0  0  0  0  0  0  0  0  0  0  0  0
   10.8159  -14.6077    0.0000 C   0  0  0  0  0  0  0  0  0  0  0  0
   10.1014  -15.0202    0.0000 C   0  0  0  0  0  0  0  0  0  0  0  0
    9.3869  -14.6077    0.0000 C   0  0  0  0  0  0  0  0  0  0  0  0
   11.5303  -15.0202    0.0000 O   0  0  0  0  0  0  0  0  0  0  0  0
    8.6724  -15.0202    0.0000 C   0  0  0  0  0  0  0  0  0  0  0  0
    8.6724  -15.8452    0.0000 C   0  0  0  0  0  0  0  0  0  0  0  0
    9.3869  -16.2577    0.0000 C   0  0  0  0  0  0  0  0  0  0  0  0
   10.1014  -15.8452    0.0000 C   0  0  0  0  0  0  0  0  0  0  0  0
   10.8159  -16.2577    0.0000 C   0  0  0  0  0  0  0  0  0  0  0  0
   10.8159  -17.0827    0.0000 C   0  0  0  0  0  0  0  0  0  0  0  0
   10.1014  -17.4952    0.0000 C   0  0  0  0  0  0  0  0  0  0  0  0
    9.3869  -17.0827    0.0000 C   0  0  0  0  0  0  0  0  0  0  0  0
   11.5303  -15.8452    0.0000 O   0  0  0  0  0  0  0  0  0  0  0  0
  1  2  1  0  0  0  0
  2  3  2  0  0  0  0
  3  4  1  0  0  0  0
  4  5  2  0  0  0  0
  5  6  1  0  0  0  0
  1  6  2  0  0  0  0
  1  7  1  0  0  0  0
  8  9  1  0  0  0  0
  5  8  1  0  0  0  0
 11 12  1  0  0  0  0
 12 13  2  0  0  0  0
 13 14  1  0  0  0  0
 14 15  2  0  0  0  0
 15 16  1  0  0  0  0
 11 16  2  0  0  0  0
 14 17  1  0  0  0  0
 10 11  1  0  0  0  0
  6 10  1  0  0  0  0
 19 20  1  0  0  0  0
 20 21  2  0  0  0  0
 21 22  1  0  0  0  0
 22 23  2  0  0  0  0
 23 24  1  0  0  0  0
 19 24  2  0  0  0  0
 22 25  1  0  0  0  0
 18 19  1  0  0  0  0
  2 18  1  0  0  0  0
 26 27  1  0  0  0  0
 28 29  1  0  0  0  0
 29 30  2  0  0  0  0
 30 31  1  0  0  0  0
 31 32  2  0  0  0  0
 32 33  1  0  0  0  0
 28 33  2  0  0  0  0
 30 34  1  0  0  0  0
 27 28  1  0  0  0  0
  3 26  1  0  0  0  0
M  END
>  <cdx:groupId>
34575

>  <cdx:fragmentId>
34473

$$$$
