102316663.cdx
  Mrv1902 05222410202D          

 24 27  0  0  0  0            999 V2000
    6.9856  -16.4092    0.0000 C   0  0  0  0  0  0  0  0  0  0  0  0
    7.7000  -15.9967    0.0000 N   0  3  0  0  0  0  0  0  0  0  0  0
    7.7000  -15.1717    0.0000 C   0  0  0  0  0  0  0  0  0  0  0  0
    6.9856  -14.7592    0.0000 C   0  0  0  0  0  0  0  0  0  0  0  0
    6.2711  -15.1717    0.0000 C   0  0  0  0  0  0  0  0  0  0  0  0
    5.5566  -14.7592    0.0000 C   0  0  0  0  0  0  0  0  0  0  0  0
    4.8421  -15.1717    0.0000 C   0  0  0  0  0  0  0  0  0  0  0  0
    4.8421  -15.9967    0.0000 C   0  0  0  0  0  0  0  0  0  0  0  0
    5.5566  -16.4092    0.0000 C   0  0  0  0  0  0  0  0  0  0  0  0
    6.2711  -15.9967    0.0000 C   0  0  0  0  0  0  0  0  0  0  0  0
    8.4145  -16.4092    0.0000 C   0  0  0  0  0  0  0  0  0  0  0  0
    9.1290  -15.9967    0.0000 C   0  0  0  0  0  0  0  0  0  0  0  0
    9.1290  -15.1717    0.0000 C   0  0  0  0  0  0  0  0  0  0  0  0
    9.8434  -14.7592    0.0000 C   0  0  0  0  0  0  0  0  0  0  0  0
    9.8434  -13.9342    0.0000 C   0  0  0  0  0  0  0  0  0  0  0  0
    9.1290  -13.5217    0.0000 C   0  0  0  0  0  0  0  0  0  0  0  0
    8.4145  -13.9342    0.0000 C   0  0  0  0  0  0  0  0  0  0  0  0
    8.4145  -14.7592    0.0000 C   0  0  0  0  0  0  0  0  0  0  0  0
   10.5579  -13.5217    0.0000 O   0  0  0  0  0  0  0  0  0  0  0  0
    5.5566  -17.2342    0.0000 O   0  0  0  0  0  0  0  0  0  0  0  0
    4.8421  -17.6467    0.0000 C   0  0  0  0  0  0  0  0  0  0  0  0
    9.1290  -12.6967    0.0000 O   0  0  0  0  0  0  0  0  0  0  0  0
    9.8434  -12.2842    0.0000 C   0  0  0  0  0  0  0  0  0  0  0  0
    4.1277  -16.4092    0.0000 O   0  0  0  0  0  0  0  0  0  0  0  0
  1  2  1  0  0  0  0
  2  3  1  0  0  0  0
  3  4  1  0  0  0  0
  4  5  2  0  0  0  0
  5  6  1  0  0  0  0
  6  7  2  0  0  0  0
  7  8  1  0  0  0  0
  8  9  2  0  0  0  0
  9 10  1  0  0  0  0
  1 10  2  0  0  0  0
  5 10  1  0  0  0  0
 11 12  1  0  0  0  0
 12 13  1  0  0  0  0
 13 14  2  0  0  0  0
 14 15  1  0  0  0  0
 15 16  1  0  0  0  0
 16 17  2  0  0  0  0
 17 18  1  0  0  0  0
 13 18  1  0  0  0  0
 11  2  1  0  0  0  0
 18  3  2  0  0  0  0
 15 19  2  0  0  0  0
 20 21  1  0  0  0  0
  9 20  1  0  0  0  0
 22 23  1  0  0  0  0
 16 22  1  0  0  0  0
  8 24  1  0  0  0  0
M  CHG  1   2   1
M  END
>  <cdx:groupId>
34658

>  <cdx:fragmentId>
34586

$$$$
