316743.cdx
  Mrv1902 05222410252D          

 21 24  0  0  0  0            999 V2000
    9.4309   -9.7639    0.0000 O   0  0  0  0  0  0  0  0  0  0  0  0
    9.9158   -9.0964    0.0000 C   0  0  0  0  0  0  0  0  0  0  0  0
    9.4309   -8.4290    0.0000 C   0  0  0  0  0  0  0  0  0  0  0  0
    8.6463   -8.6839    0.0000 C   0  0  0  0  0  0  0  0  0  0  0  0
    7.9318   -8.2714    0.0000 C   0  0  0  0  0  0  0  0  0  0  0  0
    7.2173   -8.6839    0.0000 C   0  0  0  0  0  0  0  0  0  0  0  0
    7.2173   -9.5089    0.0000 C   0  0  0  0  0  0  0  0  0  0  0  0
    7.9318   -9.9214    0.0000 C   0  0  0  0  0  0  0  0  0  0  0  0
    8.6463   -9.5089    0.0000 C   0  0  0  0  0  0  0  0  0  0  0  0
    7.9318  -10.7464    0.0000 C   0  0  0  0  0  0  0  0  0  0  0  0
    7.2173  -11.1589    0.0000 C   0  0  0  0  0  0  0  0  0  0  0  0
    6.5029  -10.7464    0.0000 C   0  0  0  0  0  0  0  0  0  0  0  0
    5.7884  -11.1589    0.0000 C   0  0  0  0  0  0  0  0  0  0  0  0
    5.0739  -10.7464    0.0000 C   0  0  0  0  0  0  0  0  0  0  0  0
    5.0739   -9.9214    0.0000 C   0  0  0  0  0  0  0  0  0  0  0  0
    5.7884   -9.5089    0.0000 C   0  0  0  0  0  0  0  0  0  0  0  0
    6.5029   -9.9214    0.0000 C   0  0  0  0  0  0  0  0  0  0  0  0
    6.5029   -8.2714    0.0000 O   0  0  0  0  0  0  0  0  0  0  0  0
    7.9318   -7.4464    0.0000 O   0  0  0  0  0  0  0  0  0  0  0  0
    5.7884  -11.9839    0.0000 C   0  0  0  0  0  0  0  0  0  0  0  0
    9.6858   -7.6444    0.0000 C   0  0  0  0  0  0  0  0  0  0  0  0
  1  2  1  0  0  0  0
  2  3  1  0  0  0  0
  3  4  1  0  0  0  0
  4  5  1  0  0  0  0
  5  6  1  0  0  0  0
  6  7  1  0  0  0  0
  7  8  2  0  0  0  0
  8  9  1  0  0  0  0
  4  9  2  0  0  0  0
  1  9  1  0  0  0  0
 10 11  2  0  0  0  0
 11 12  1  0  0  0  0
 12 13  1  0  0  0  0
 13 14  2  0  0  0  0
 14 15  1  0  0  0  0
 15 16  2  0  0  0  0
 16 17  1  0  0  0  0
 12 17  2  0  0  0  0
 17  7  1  0  0  0  0
 10  8  1  0  0  0  0
  6 18  2  0  0  0  0
  5 19  2  0  0  0  0
 13 20  1  0  0  0  0
  3 21  1  0  0  0  0
M  END
>  <cdx:fragmentId>
8510

$$$$
