3167.cdx
  Mrv1902 05222410232D          

 17 18  0  0  0  0            999 V2000
    6.8095   -7.4525    0.0000 C   0  0  1  0  0  0  0  0  0  0  0  0
    6.8095   -8.2775    0.0000 C   0  0  2  0  0  0  0  0  0  0  0  0
    7.5240   -8.6900    0.0000 C   0  0  1  0  0  0  0  0  0  0  0  0
    8.2385   -8.2775    0.0000 O   0  0  0  0  0  0  0  0  0  0  0  0
    8.2385   -7.4525    0.0000 C   0  0  0  0  0  0  0  0  0  0  0  0
    7.5240   -7.0400    0.0000 C   0  0  0  0  0  0  0  0  0  0  0  0
    6.0249   -7.1976    0.0000 C   0  0  0  0  0  0  0  0  0  0  0  0
    5.5400   -7.8650    0.0000 C   0  0  1  0  0  0  0  0  0  0  0  0
    6.0249   -8.5324    0.0000 C   0  0  2  0  0  0  0  0  0  0  0  0
    4.7150   -7.8650    0.0000 O   0  0  0  0  0  0  0  0  0  0  0  0
    5.8114   -9.3293    0.0000 C   0  0  0  0  0  0  0  0  0  0  0  0
    7.5240   -9.5150    0.0000 O   0  0  0  0  0  0  0  0  0  0  0  0
    8.2385   -9.9275    0.0000 C   0  0  0  0  0  0  0  0  0  0  0  0
    7.5240   -6.2150    0.0000 C   0  0  0  0  0  0  0  0  0  0  0  0
    8.2385   -5.8025    0.0000 O   0  0  0  0  0  0  0  0  0  0  0  0
    6.7233   -9.0980    0.0000 H   0  0  0  0  0  0  0  0  0  0  0  0
    6.7233   -6.6320    0.0000 H   0  0  0  0  0  0  0  0  0  0  0  0
  1  2  1  0  0  0  0
  2  3  1  0  0  0  0
  3  4  1  0  0  0  0
  4  5  1  0  0  0  0
  5  6  2  0  0  0  0
  6  1  1  0  0  0  0
  1  7  1  0  0  0  0
  7  8  1  0  0  0  0
  8  9  1  0  0  0  0
  9  2  1  0  0  0  0
  8 10  1  1  0  0  0
  9 11  1  1  0  0  0
  3 12  1  1  0  0  0
 12 13  1  0  0  0  0
  6 14  1  0  0  0  0
 14 15  2  0  0  0  0
  2 16  1  1  0  0  0
  1 17  1  1  0  0  0
M  END
>  <cdx:fragmentId>
5

$$$$
