101316793.cdx
  Mrv1902 05222410232D          

 20 22  0  0  0  0            999 V2000
    7.4445  -13.9113    0.0000 O   0  0  0  0  0  0  0  0  0  0  0  0
    8.2650  -13.8251    0.0000 C   0  0  0  0  0  0  0  0  0  0  0  0
    8.6006  -14.5787    0.0000 C   0  0  0  0  0  0  0  0  0  0  0  0
    7.9875  -15.1308    0.0000 C   0  0  1  0  0  0  0  0  0  0  0  0
    7.9875  -15.9558    0.0000 C   0  0  0  0  0  0  0  0  0  0  0  0
    7.2730  -16.3683    0.0000 C   0  0  0  0  0  0  0  0  0  0  0  0
    6.5585  -15.9558    0.0000 C   0  0  2  0  0  0  0  0  0  0  0  0
    6.5585  -15.1308    0.0000 C   0  0  1  0  0  0  0  0  0  0  0  0
    7.2730  -14.7183    0.0000 C   0  0  1  0  0  0  0  0  0  0  0  0
    5.8440  -14.7183    0.0000 C   0  0  0  0  0  0  0  0  0  0  0  0
    5.1296  -15.1308    0.0000 C   0  0  0  0  0  0  0  0  0  0  0  0
    5.1296  -15.9558    0.0000 C   0  0  0  0  0  0  0  0  0  0  0  0
    5.8440  -16.3683    0.0000 C   0  0  0  0  0  0  0  0  0  0  0  0
    8.6775  -13.1106    0.0000 O   0  0  0  0  0  0  0  0  0  0  0  0
    9.4075  -14.7503    0.0000 C   0  0  0  0  0  0  0  0  0  0  0  0
    5.8440  -13.8933    0.0000 C   0  0  0  0  0  0  0  0  0  0  0  0
    6.5585  -16.7808    0.0000 C   0  0  0  0  0  0  0  0  0  0  0  0
    8.7411  -15.4663    0.0000 H   0  0  0  0  0  0  0  0  0  0  0  0
    6.5585  -14.3058    0.0000 H   0  0  0  0  0  0  0  0  0  0  0  0
    7.2730  -15.5433    0.0000 H   0  0  0  0  0  0  0  0  0  0  0  0
  1  2  1  0  0  0  0
  2  3  1  0  0  0  0
  3  4  1  0  0  0  0
  4  5  1  0  0  0  0
  5  6  1  0  0  0  0
  6  7  1  0  0  0  0
  7  8  1  0  0  0  0
  8  9  1  0  0  0  0
  4  9  1  0  0  0  0
  1  9  1  0  0  0  0
 10 11  2  0  0  0  0
 11 12  1  0  0  0  0
 12 13  1  0  0  0  0
 13  7  1  0  0  0  0
 10  8  1  0  0  0  0
  2 14  2  0  0  0  0
  3 15  2  0  0  0  0
 10 16  1  0  0  0  0
  7 17  1  6  0  0  0
  4 18  1  6  0  0  0
  8 19  1  1  0  0  0
  9 20  1  6  0  0  0
M  END
>  <cdx:groupId>
238516

>  <cdx:fragmentId>
238457

$$$$
