316773.cdx
  Mrv1902 05222410212D          

 20 22  0  0  0  0            999 V2000
    5.9069   -5.8629    0.0000 C   0  0  0  0  0  0  0  0  0  0  0  0
    6.6214   -6.2754    0.0000 C   0  0  0  0  0  0  0  0  0  0  0  0
   10.1854   -7.5367    0.0000 C   0  0  0  0  0  0  0  0  0  0  0  0
    5.1870   -7.0909    0.0000 C   0  0  0  0  0  0  0  0  0  0  0  0
    5.1760   -8.7408    0.0000 O   0  0  0  0  0  0  0  0  0  0  0  0
   10.1964   -5.8868    0.0000 O   0  0  0  0  0  0  0  0  0  0  0  0
    8.7565   -7.5272    0.0000 C   0  0  0  0  0  0  0  0  0  0  0  0
    8.7510   -8.3522    0.0000 C   0  0  0  0  0  0  0  0  0  0  0  0
    8.0338   -8.7599    0.0000 C   0  0  0  0  0  0  0  0  0  0  0  0
    7.3221   -8.3426    0.0000 C   0  0  0  0  0  0  0  0  0  0  0  0
    6.6049   -8.7504    0.0000 C   0  0  0  0  0  0  0  0  0  0  0  0
    5.8932   -8.3331    0.0000 C   0  0  0  0  0  0  0  0  0  0  0  0
    5.8987   -7.5081    0.0000 C   0  0  0  0  0  0  0  0  0  0  0  0
    6.6159   -7.1004    0.0000 C   0  0  0  0  0  0  0  0  0  0  0  0
    7.3276   -7.5177    0.0000 C   0  0  0  0  0  0  0  0  0  0  0  0
    8.0448   -7.1099    0.0000 C   0  0  0  0  0  0  0  0  0  0  0  0
    8.0503   -6.2850    0.0000 C   0  0  0  0  0  0  0  0  0  0  0  0
    8.7675   -5.8772    0.0000 C   0  0  0  0  0  0  0  0  0  0  0  0
    9.4792   -6.2945    0.0000 C   0  0  0  0  0  0  0  0  0  0  0  0
    9.4737   -7.1195    0.0000 C   0  0  0  0  0  0  0  0  0  0  0  0
 14  2  1  0  0  0  0
  2  1  2  0  0  0  0
 20  3  1  0  0  0  0
 13  4  1  0  0  0  0
 12  5  1  0  0  0  0
 19  6  1  0  0  0  0
 16  7  1  0  0  0  0
 20  7  2  0  0  0  0
  8  7  1  0  0  0  0
  9  8  2  0  0  0  0
 10  9  1  0  0  0  0
 15 10  1  0  0  0  0
 11 10  2  0  0  0  0
 12 11  1  0  0  0  0
 13 12  2  0  0  0  0
 14 13  1  0  0  0  0
 15 14  2  0  0  0  0
 16 15  1  0  0  0  0
 17 16  2  0  0  0  0
 18 17  1  0  0  0  0
 19 18  2  0  0  0  0
 20 19  1  0  0  0  0
M  END
>  <cdx:fragmentId>
5123

$$$$
