101316852.cdx
  Mrv1902 05222410192D          

 36 39  0  0  0  0            999 V2000
    8.0366  -13.1271    0.0000 C   0  0  0  0  0  0  0  0  0  0  0  0
    8.4491  -12.4127    0.0000 C   0  0  0  0  0  0  0  0  0  0  0  0
    7.2116  -13.1271    0.0000 O   0  0  0  0  0  0  0  0  0  0  0  0
    8.4491  -13.8416    0.0000 O   0  0  0  0  0  0  0  0  0  0  0  0
    6.6972  -15.2011    0.0000 C   0  0  1  0  0  0  0  0  0  0  0  0
    7.2116  -14.5561    0.0000 C   0  0  0  0  0  0  0  0  0  0  0  0
    8.0366  -14.5561    0.0000 C   0  0  2  0  0  0  0  0  0  0  0  0
    8.5509  -15.2011    0.0000 C   0  0  2  0  0  0  0  0  0  0  0  0
    9.3726  -15.1271    0.0000 C   0  0  0  0  0  0  0  0  0  0  0  0
    9.6969  -15.8857    0.0000 C   0  0  2  0  0  0  0  0  0  0  0  0
    9.0756  -16.4285    0.0000 C   0  0  1  0  0  0  0  0  0  0  0  0
    8.3674  -16.0054    0.0000 C   0  0  1  0  0  0  0  0  0  0  0  0
    7.6241  -16.3634    0.0000 C   0  0  2  0  0  0  0  0  0  0  0  0
    6.8808  -16.0054    0.0000 C   0  0  2  0  0  0  0  0  0  0  0  0
    6.3664  -16.6504    0.0000 C   0  0  0  0  0  0  0  0  0  0  0  0
    5.5414  -16.6504    0.0000 C   0  0  0  0  0  0  0  0  0  0  0  0
    5.0270  -16.0054    0.0000 C   0  0  1  0  0  0  0  0  0  0  0  0
    5.2106  -15.2011    0.0000 C   0  0  2  0  0  0  0  0  0  0  0  0
    5.9539  -14.8431    0.0000 C   0  0  0  0  0  0  0  0  0  0  0  0
    5.6310  -15.1212    0.0000 C   0  0  1  0  0  0  0  0  0  0  0  0
    4.9092  -14.4331    0.0000 C   0  0  0  0  0  0  0  0  0  0  0  0
    7.3419  -17.1386    0.0000 C   0  0  0  0  0  0  0  0  0  0  0  0
    9.3726  -14.3021    0.0000 C   0  0  0  0  0  0  0  0  0  0  0  0
   10.0871  -14.7146    0.0000 C   0  0  0  0  0  0  0  0  0  0  0  0
    4.3948  -15.0781    0.0000 O   0  0  0  0  0  0  0  0  0  0  0  0
    8.0973  -17.0392    0.0000 O   0  0  0  0  0  0  0  0  0  0  0  0
    9.1495  -17.2502    0.0000 O   0  0  0  0  0  0  0  0  0  0  0  0
   10.5012  -16.0693    0.0000 O   0  0  0  0  0  0  0  0  0  0  0  0
    8.8752  -14.4425    0.0000 O   0  0  0  0  0  0  0  0  0  0  0  0
    5.1795  -13.8808    0.0000 O   0  0  0  0  0  0  0  0  0  0  0  0
    4.3670  -13.7375    0.0000 C   0  0  0  0  0  0  0  0  0  0  0  0
    3.8367  -14.3695    0.0000 O   0  0  0  0  0  0  0  0  0  0  0  0
    4.0849  -12.9623    0.0000 C   0  0  0  0  0  0  0  0  0  0  0  0
    7.7223  -15.4910    0.0000 H   0  0  0  0  0  0  0  0  0  0  0  0
    6.9219  -16.8294    0.0000 H   0  0  0  0  0  0  0  0  0  0  0  0
    4.2227  -16.1890    0.0000 H   0  0  0  0  0  0  0  0  0  0  0  0
  1  2  1  0  0  0  0
  1  3  2  0  0  0  0
  1  4  1  0  0  0  0
  5  6  1  0  0  0  0
  6  7  1  0  0  0  0
  7  8  1  0  0  0  0
  8  9  1  0  0  0  0
  9 10  1  0  0  0  0
 10 11  1  0  0  0  0
 11 12  1  0  0  0  0
 12 13  1  0  0  0  0
 13 14  1  0  0  0  0
 14 15  1  0  0  0  0
 15 16  1  0  0  0  0
 16 17  1  0  0  0  0
 17 18  1  0  0  0  0
 18 19  1  0  0  0  0
  5 19  1  1  0  0  0
  5 20  1  0  0  0  0
 20 17  1  0  0  0  0
  5 14  1  0  0  0  0
  8 12  1  0  0  0  0
 18 21  1  1  0  0  0
 13 22  1  1  0  0  0
  9 23  1  0  0  0  0
  9 24  1  0  0  0  0
 18 25  1  6  0  0  0
 13 26  1  6  0  0  0
 11 27  1  6  0  0  0
 10 28  1  1  0  0  0
  8 29  1  1  0  0  0
 31 32  2  0  0  0  0
 31 33  1  0  0  0  0
 30 31  1  0  0  0  0
 20 30  1  1  0  0  0
  7  4  1  1  0  0  0
 12 34  1  6  0  0  0
 14 35  1  1  0  0  0
 17 36  1  6  0  0  0
M  END
>  <cdx:groupId>
238635

>  <cdx:fragmentId>
238535

$$$$
