5316879.cdx
  Mrv1902 05222410202D          

 15 15  0  0  0  0            999 V2000
    7.4250   -7.0393    0.0000 C   0  0  0  0  0  0  0  0  0  0  0  0
    7.4250   -6.2143    0.0000 C   0  0  0  0  0  0  0  0  0  0  0  0
    8.1395   -5.8018    0.0000 C   0  0  0  0  0  0  0  0  0  0  0  0
    8.8539   -6.2143    0.0000 C   0  0  0  0  0  0  0  0  0  0  0  0
    8.8539   -7.0393    0.0000 C   0  0  0  0  0  0  0  0  0  0  0  0
    8.1395   -7.4518    0.0000 C   0  0  0  0  0  0  0  0  0  0  0  0
    9.5684   -5.8018    0.0000 C   0  0  0  0  0  0  0  0  0  0  0  0
   10.2829   -6.2143    0.0000 C   0  0  0  0  0  0  0  0  0  0  0  0
   10.9974   -5.8018    0.0000 C   0  0  0  0  0  0  0  0  0  0  0  0
    6.7105   -7.4518    0.0000 O   0  0  0  0  0  0  0  0  0  0  0  0
    5.9961   -7.0393    0.0000 C   0  0  0  0  0  0  0  0  0  0  0  0
    5.2816   -7.4518    0.0000 C   0  0  0  0  0  0  0  0  0  0  0  0
    4.5671   -7.0393    0.0000 C   0  0  0  0  0  0  0  0  0  0  0  0
    3.8526   -7.4518    0.0000 C   0  0  0  0  0  0  0  0  0  0  0  0
    4.5671   -6.2143    0.0000 C   0  0  0  0  0  0  0  0  0  0  0  0
  1  2  1  0  0  0  0
  2  3  2  0  0  0  0
  3  4  1  0  0  0  0
  4  5  2  0  0  0  0
  5  6  1  0  0  0  0
  1  6  2  0  0  0  0
  7  8  2  0  0  0  0
  8  9  1  0  0  0  0
  4  7  1  0  0  0  0
 11 12  1  0  0  0  0
 12 13  2  0  0  0  0
 13 14  1  0  0  0  0
 10 11  1  0  0  0  0
 13 15  1  0  0  0  0
  1 10  1  0  0  0  0
M  END
>  <cdx:groupId>
47

>  <cdx:fragmentId>
5

$$$$
