316870.cdx
  Mrv1902 05222410282D          

 51 56  0  0  0  0            999 V2000
   15.7872   -6.9880    0.0000 C   0  0  0  0  0  0  0  0  0  0  0  0
   16.5017   -6.5755    0.0000 C   0  0  0  0  0  0  0  0  0  0  0  0
   17.2162   -6.9880    0.0000 C   0  0  2  0  0  0  0  0  0  0  0  0
   17.2162   -7.8130    0.0000 C   0  0  0  0  0  0  0  0  0  0  0  0
   16.5017   -8.2255    0.0000 C   0  0  2  0  0  0  0  0  0  0  0  0
   16.5017   -9.0505    0.0000 C   0  0  1  0  0  0  0  0  0  0  0  0
   15.7872   -9.4630    0.0000 C   0  0  0  0  0  0  0  0  0  0  0  0
   15.0727   -9.0505    0.0000 C   0  0  1  0  0  0  0  0  0  0  0  0
   14.3583   -9.4630    0.0000 C   0  0  2  0  0  0  0  0  0  0  0  0
   14.3583  -10.2880    0.0000 C   0  0  0  0  0  0  0  0  0  0  0  0
   13.6438  -10.7005    0.0000 C   0  0  0  0  0  0  0  0  0  0  0  0
   12.9293  -10.2880    0.0000 C   0  0  1  0  0  0  0  0  0  0  0  0
   12.2149  -10.7005    0.0000 C   0  0  0  0  0  0  0  0  0  0  0  0
   11.5004  -10.2880    0.0000 C   0  0  2  0  0  0  0  0  0  0  0  0
   11.5004   -9.4630    0.0000 C   0  0  0  0  0  0  0  0  0  0  0  0
   12.2149   -9.0505    0.0000 C   0  0  0  0  0  0  0  0  0  0  0  0
   12.9293   -9.4630    0.0000 C   0  0  2  0  0  0  0  0  0  0  0  0
   13.6438   -9.0505    0.0000 C   0  0  1  0  0  0  0  0  0  0  0  0
   13.6438   -8.2255    0.0000 C   0  0  0  0  0  0  0  0  0  0  0  0
   14.3583   -7.8130    0.0000 C   0  0  0  0  0  0  0  0  0  0  0  0
   15.0727   -8.2255    0.0000 C   0  0  0  0  0  0  0  0  0  0  0  0
   15.7872   -7.8130    0.0000 C   0  0  2  0  0  0  0  0  0  0  0  0
   17.2162   -8.6380    0.0000 C   0  0  0  0  0  0  0  0  0  0  0  0
   17.2162   -9.4630    0.0000 O   0  0  0  0  0  0  0  0  0  0  0  0
   17.9306   -8.2255    0.0000 O   0  0  0  0  0  0  0  0  0  0  0  0
   12.6274  -11.4150    0.0000 C   0  0  0  0  0  0  0  0  0  0  0  0
   11.8024  -11.4150    0.0000 C   0  0  0  0  0  0  0  0  0  0  0  0
   16.0892   -5.8610    0.0000 C   0  0  0  0  0  0  0  0  0  0  0  0
   16.9142   -5.8610    0.0000 C   0  0  0  0  0  0  0  0  0  0  0  0
   17.9306   -6.5755    0.0000 O   0  0  0  0  0  0  0  0  0  0  0  0
   10.7859  -10.7005    0.0000 O   0  0  0  0  0  0  0  0  0  0  0  0
   12.9293  -11.1130    0.0000 H   0  0  0  0  0  0  0  0  0  0  0  0
   15.7872   -8.6380    0.0000 H   0  0  0  0  0  0  0  0  0  0  0  0
   12.9293   -8.6380    0.0000 C   0  0  0  0  0  0  0  0  0  0  0  0
   14.3583   -8.6380    0.0000 C   0  0  0  0  0  0  0  0  0  0  0  0
   15.0727   -9.8755    0.0000 C   0  0  0  0  0  0  0  0  0  0  0  0
   13.6438   -9.8755    0.0000 H   0  0  0  0  0  0  0  0  0  0  0  0
   16.5017   -9.8755    0.0000 O   0  0  0  0  0  0  0  0  0  0  0  0
   18.6451   -8.6380    0.0000 C   0  0  0  0  0  0  0  0  0  0  0  0
   18.6451   -6.9880    0.0000 C   0  0  0  0  0  0  0  0  0  0  0  0
   19.3596   -6.5755    0.0000 C   0  0  0  0  0  0  0  0  0  0  0  0
   18.6451   -7.8130    0.0000 O   0  0  0  0  0  0  0  0  0  0  0  0
   20.0740   -6.9880    0.0000 C   0  0  0  0  0  0  0  0  0  0  0  0
   20.7885   -6.5755    0.0000 C   0  0  0  0  0  0  0  0  0  0  0  0
   21.5422   -6.9111    0.0000 C   0  0  0  0  0  0  0  0  0  0  0  0
   22.0942   -6.2980    0.0000 C   0  0  0  0  0  0  0  0  0  0  0  0
   21.6817   -5.5835    0.0000 C   0  0  0  0  0  0  0  0  0  0  0  0
   20.8748   -5.7550    0.0000 O   0  0  0  0  0  0  0  0  0  0  0  0
   22.9147   -6.3842    0.0000 C   0  0  0  0  0  0  0  0  0  0  0  0
   23.3996   -5.7168    0.0000 C   0  0  0  0  0  0  0  0  0  0  0  0
   19.3596   -5.7505    0.0000 C   0  0  0  0  0  0  0  0  0  0  0  0
  1  2  1  0  0  0  0
  2  3  1  0  0  0  0
  3  4  1  0  0  0  0
  4  5  1  0  0  0  0
  5  6  1  0  0  0  0
  6  7  1  0  0  0  0
  7  8  1  0  0  0  0
  8  9  1  0  0  0  0
  9 10  1  0  0  0  0
 10 11  1  0  0  0  0
 11 12  1  0  0  0  0
 12 13  1  0  0  0  0
 13 14  1  0  0  0  0
 14 15  1  0  0  0  0
 15 16  1  0  0  0  0
 16 17  1  0  0  0  0
 12 17  1  0  0  0  0
 17 18  1  0  0  0  0
  9 18  1  0  0  0  0
 18 19  1  0  0  0  0
 19 20  1  0  0  0  0
 20 21  2  0  0  0  0
  8 21  1  0  0  0  0
 21 22  1  0  0  0  0
  5 22  1  0  0  0  0
  1 22  1  0  0  0  0
 23 24  2  0  0  0  0
 23 25  1  0  0  0  0
  5 23  1  1  0  0  0
 13 26  1  0  0  0  0
 13 27  1  0  0  0  0
  2 28  1  0  0  0  0
  2 29  1  0  0  0  0
  3 30  1  1  0  0  0
 14 31  1  1  0  0  0
 12 32  1  6  0  0  0
 22 33  1  1  0  0  0
 17 34  1  1  0  0  0
  9 35  1  1  0  0  0
  8 36  1  6  0  0  0
 18 37  1  6  0  0  0
  6 38  1  6  0  0  0
 25 39  1  0  0  0  0
 30 40  1  0  0  0  0
 40 41  1  0  0  0  0
 40 42  2  0  0  0  0
 41 43  2  0  0  0  0
 43 44  1  0  0  0  0
 44 45  1  0  0  0  0
 45 46  1  0  0  0  0
 46 47  1  0  0  0  0
 47 48  1  0  0  0  0
 48 44  1  0  0  0  0
 46 49  2  0  0  0  0
 49 50  1  0  0  0  0
 41 51  1  0  0  0  0
M  END
>  <cdx:fragmentId>
166833

$$$$
