316810.cdx
  Mrv1902 05222410252D          

 19 21  0  0  0  0            999 V2000
    5.3501   -6.5989    0.0000 C   0  0  0  0  0  0  0  0  0  0  0  0
    5.3501   -7.4239    0.0000 C   0  0  0  0  0  0  0  0  0  0  0  0
    6.0646   -7.8363    0.0000 C   0  0  0  0  0  0  0  0  0  0  0  0
    6.7791   -7.4239    0.0000 C   0  0  0  0  0  0  0  0  0  0  0  0
    6.7791   -6.5989    0.0000 C   0  0  0  0  0  0  0  0  0  0  0  0
    6.0646   -6.1865    0.0000 C   0  0  0  0  0  0  0  0  0  0  0  0
    7.4934   -7.8363    0.0000 C   0  0  0  0  0  0  0  0  0  0  0  0
    8.2079   -7.4239    0.0000 C   0  0  0  0  0  0  0  0  0  0  0  0
    8.2079   -6.5989    0.0000 C   0  0  0  0  0  0  0  0  0  0  0  0
    7.4934   -6.1865    0.0000 C   0  0  0  0  0  0  0  0  0  0  0  0
    8.9224   -6.1865    0.0000 C   0  0  0  0  0  0  0  0  0  0  0  0
    8.9224   -5.3615    0.0000 C   0  0  0  0  0  0  0  0  0  0  0  0
    8.2079   -4.9491    0.0000 C   0  0  0  0  0  0  0  0  0  0  0  0
    7.4934   -5.3615    0.0000 C   0  0  0  0  0  0  0  0  0  0  0  0
    9.6368   -4.9491    0.0000 O   0  0  0  0  0  0  0  0  0  0  0  0
    6.0646   -5.3615    0.0000 C   0  0  0  0  0  0  0  0  0  0  0  0
    5.3501   -4.9491    0.0000 C   0  0  0  0  0  0  0  0  0  0  0  0
    4.6357   -7.8363    0.0000 O   0  0  0  0  0  0  0  0  0  0  0  0
    9.6368   -6.5989    0.0000 C   0  0  0  0  0  0  0  0  0  0  0  0
  1  2  2  0  0  0  0
  2  3  1  0  0  0  0
  3  4  2  0  0  0  0
  4  5  1  0  0  0  0
  5  6  2  0  0  0  0
  6  1  1  0  0  0  0
  4  7  1  0  0  0  0
  7  8  2  0  0  0  0
  8  9  1  0  0  0  0
  9 10  2  0  0  0  0
 10  5  1  0  0  0  0
  9 11  1  0  0  0  0
 11 12  2  0  0  0  0
 12 13  1  0  0  0  0
 13 14  2  0  0  0  0
 14 10  1  0  0  0  0
 12 15  1  0  0  0  0
  6 16  1  0  0  0  0
 16 17  2  0  0  0  0
  2 18  1  0  0  0  0
 11 19  1  0  0  0  0
M  END
>  <cdx:fragmentId>
5349

$$$$
