5316952.cdx
  Mrv1902 05222410232D          

 35 35  0  0  0  0            999 V2000
    6.4100   -8.0740    0.0000 C   0  0  0  0  0  0  0  0  0  0  0  0
    5.6956   -8.4865    0.0000 C   0  0  0  0  0  0  0  0  0  0  0  0
    4.9811   -8.0740    0.0000 C   0  0  0  0  0  0  0  0  0  0  0  0
    4.2666   -8.4865    0.0000 C   0  0  0  0  0  0  0  0  0  0  0  0
    3.5522   -8.0740    0.0000 C   0  0  0  0  0  0  0  0  0  0  0  0
    2.8377   -8.4865    0.0000 C   0  0  0  0  0  0  0  0  0  0  0  0
    2.1232   -8.0740    0.0000 O   0  0  0  0  0  0  0  0  0  0  0  0
    2.8377   -9.3115    0.0000 C   0  0  0  0  0  0  0  0  0  0  0  0
    2.1232   -9.7240    0.0000 O   0  0  0  0  0  0  0  0  0  0  0  0
    3.5522   -9.7240    0.0000 C   0  0  0  0  0  0  0  0  0  0  0  0
    4.2666   -9.3115    0.0000 C   0  0  0  0  0  0  0  0  0  0  0  0
    6.4100   -7.2490    0.0000 O   0  0  0  0  0  0  0  0  0  0  0  0
    7.1245   -8.4865    0.0000 O   0  0  0  0  0  0  0  0  0  0  0  0
    7.8390   -8.0740    0.0000 C   0  0  0  0  0  0  0  0  0  0  0  0
    8.5535   -8.4865    0.0000 C   0  0  0  0  0  0  0  0  0  0  0  0
    9.2679   -8.0740    0.0000 C   0  0  0  0  0  0  0  0  0  0  0  0
    9.9824   -8.4865    0.0000 C   0  0  0  0  0  0  0  0  0  0  0  0
   10.6969   -8.0740    0.0000 C   0  0  0  0  0  0  0  0  0  0  0  0
   11.4113   -8.4865    0.0000 C   0  0  0  0  0  0  0  0  0  0  0  0
   12.1258   -8.0740    0.0000 C   0  0  0  0  0  0  0  0  0  0  0  0
   12.8403   -8.4865    0.0000 C   0  0  0  0  0  0  0  0  0  0  0  0
   13.5548   -8.0740    0.0000 C   0  0  0  0  0  0  0  0  0  0  0  0
   14.2692   -8.4865    0.0000 C   0  0  0  0  0  0  0  0  0  0  0  0
   14.9837   -8.0740    0.0000 C   0  0  0  0  0  0  0  0  0  0  0  0
   15.6982   -8.4865    0.0000 C   0  0  0  0  0  0  0  0  0  0  0  0
   16.4126   -8.0740    0.0000 C   0  0  0  0  0  0  0  0  0  0  0  0
   17.1271   -8.4865    0.0000 C   0  0  0  0  0  0  0  0  0  0  0  0
   17.8416   -8.0740    0.0000 C   0  0  0  0  0  0  0  0  0  0  0  0
   18.5561   -8.4865    0.0000 C   0  0  0  0  0  0  0  0  0  0  0  0
   19.2705   -8.0740    0.0000 C   0  0  0  0  0  0  0  0  0  0  0  0
   19.9850   -8.4865    0.0000 C   0  0  0  0  0  0  0  0  0  0  0  0
   20.6995   -8.0740    0.0000 C   0  0  0  0  0  0  0  0  0  0  0  0
   21.4139   -8.4865    0.0000 C   0  0  0  0  0  0  0  0  0  0  0  0
   22.1284   -8.0740    0.0000 C   0  0  0  0  0  0  0  0  0  0  0  0
   22.8429   -8.4865    0.0000 C   0  0  0  0  0  0  0  0  0  0  0  0
  1  2  1  0  0  0  0
  2  3  2  0  0  0  0
  3  4  1  0  0  0  0
  4  5  1  0  0  0  0
  5  6  2  0  0  0  0
  6  7  1  0  0  0  0
  6  8  1  0  0  0  0
  8  9  1  0  0  0  0
  8 10  2  0  0  0  0
 10 11  1  0  0  0  0
  4 11  2  0  0  0  0
  1 12  2  0  0  0  0
  1 13  1  0  0  0  0
 14 15  1  0  0  0  0
 15 16  1  0  0  0  0
 16 17  1  0  0  0  0
 17 18  1  0  0  0  0
 18 19  1  0  0  0  0
 19 20  1  0  0  0  0
 20 21  1  0  0  0  0
 21 22  1  0  0  0  0
 22 23  1  0  0  0  0
 23 24  1  0  0  0  0
 24 25  1  0  0  0  0
 25 26  1  0  0  0  0
 26 27  1  0  0  0  0
 27 28  1  0  0  0  0
 28 29  1  0  0  0  0
 29 30  1  0  0  0  0
 30 31  1  0  0  0  0
 31 32  1  0  0  0  0
 32 33  1  0  0  0  0
 33 34  1  0  0  0  0
 34 35  1  0  0  0  0
 13 14  1  0  0  0  0
M  END
>  <cdx:fragmentId>
5691

$$$$
