101316962.cdx
  Mrv1902 05222410232D          

 31 32  0  0  0  0            999 V2000
    8.6989  -14.1773    0.0000 C   0  0  0  0  0  0  0  0  0  0  0  0
    9.2292  -13.5453    0.0000 C   0  0  0  0  0  0  0  0  0  0  0  0
    8.9471  -12.7700    0.0000 C   0  0  0  0  0  0  0  0  0  0  0  0
    8.1346  -12.6268    0.0000 C   0  0  0  0  0  0  0  0  0  0  0  0
    7.8865  -14.0340    0.0000 O   0  0  0  0  0  0  0  0  0  0  0  0
    8.9811  -14.9525    0.0000 O   0  0  0  0  0  0  0  0  0  0  0  0
   10.0417  -13.6885    0.0000 C   0  0  0  0  0  0  0  0  0  0  0  0
    7.8524  -11.8515    0.0000 O   0  0  0  0  0  0  0  0  0  0  0  0
    8.8105  -17.3716    0.0000 O   0  0  0  0  0  0  0  0  0  0  0  0
    8.0259  -17.1167    0.0000 C   0  0  1  0  0  0  0  0  0  0  0  0
    8.0259  -16.2917    0.0000 C   0  0  2  0  0  0  0  0  0  0  0  0
    8.8105  -16.0367    0.0000 C   0  0  0  0  0  0  0  0  0  0  0  0
    9.2954  -16.7042    0.0000 C   0  0  0  0  0  0  0  0  0  0  0  0
    8.4508  -15.5845    0.0000 C   0  0  1  0  0  0  0  0  0  0  0  0
    7.9095  -14.9619    0.0000 C   0  0  0  0  0  0  0  0  0  0  0  0
    7.1501  -15.2842    0.0000 C   0  0  0  0  0  0  0  0  0  0  0  0
    6.3463  -15.0986    0.0000 C   0  0  0  0  0  0  0  0  0  0  0  0
    5.9214  -15.8058    0.0000 C   0  0  0  0  0  0  0  0  0  0  0  0
    6.4591  -16.4287    0.0000 C   0  0  1  0  0  0  0  0  0  0  0  0
    6.6024  -17.2412    0.0000 C   0  0  0  0  0  0  0  0  0  0  0  0
    7.3501  -17.5899    0.0000 C   0  0  0  0  0  0  0  0  0  0  0  0
   10.1204  -16.7042    0.0000 O   0  0  0  0  0  0  0  0  0  0  0  0
    9.3184  -15.3866    0.0000 C   0  0  0  0  0  0  0  0  0  0  0  0
    5.9479  -17.7434    0.0000 C   0  0  0  0  0  0  0  0  0  0  0  0
    6.9366  -16.0811    0.0000 C   0  0  0  0  0  0  0  0  0  0  0  0
    5.7446  -16.8412    0.0000 O   0  0  0  0  0  0  0  0  0  0  0  0
    5.0302  -16.4287    0.0000 C   0  0  0  0  0  0  0  0  0  0  0  0
    5.0302  -15.6037    0.0000 O   0  0  0  0  0  0  0  0  0  0  0  0
    4.3157  -16.8412    0.0000 C   0  0  0  0  0  0  0  0  0  0  0  0
    7.2272  -16.4982    0.0000 H   0  0  0  0  0  0  0  0  0  0  0  0
    8.1478  -17.9326    0.0000 H   0  0  0  0  0  0  0  0  0  0  0  0
  1  2  1  0  0  0  0
  2  3  2  0  0  0  0
  3  4  1  0  0  0  0
  1  5  2  0  0  0  0
  1  6  1  0  0  0  0
  2  7  1  0  0  0  0
  4  8  1  0  0  0  0
  9 10  1  0  0  0  0
 10 11  1  0  0  0  0
 11 12  1  0  0  0  0
 12 13  1  0  0  0  0
  9 13  1  0  0  0  0
 14 15  1  0  0  0  0
 15 16  1  0  0  0  0
 16 17  2  0  0  0  0
 17 18  1  0  0  0  0
 18 19  1  0  0  0  0
 19 20  1  0  0  0  0
 20 21  2  0  0  0  0
 21 10  1  0  0  0  0
 14 11  1  0  0  0  0
 13 22  2  0  0  0  0
 12 23  2  0  0  0  0
 20 24  1  0  0  0  0
 16 25  1  0  0  0  0
 27 28  2  0  0  0  0
 27 29  1  0  0  0  0
 26 27  1  0  0  0  0
 19 26  1  6  0  0  0
 14  6  1  1  0  0  0
 11 30  1  6  0  0  0
 10 31  1  1  0  0  0
M  END
>  <cdx:groupId>
239012

>  <cdx:fragmentId>
238947

$$$$
