316929.cdx
  Mrv1902 05222410262D          

 24 26  0  0  0  0            999 V2000
   11.6470   -7.2739    0.0000 C   0  0  0  0  0  0  0  0  0  0  0  0
   10.8220   -7.2739    0.0000 O   0  0  0  0  0  0  0  0  0  0  0  0
   10.4095   -6.5594    0.0000 C   0  0  0  0  0  0  0  0  0  0  0  0
   10.8220   -5.8449    0.0000 C   0  0  0  0  0  0  0  0  0  0  0  0
   10.4095   -5.1305    0.0000 C   0  0  0  0  0  0  0  0  0  0  0  0
    9.5845   -5.1305    0.0000 C   0  0  0  0  0  0  0  0  0  0  0  0
    9.1720   -5.8449    0.0000 C   0  0  0  0  0  0  0  0  0  0  0  0
    9.5845   -6.5594    0.0000 C   0  0  0  0  0  0  0  0  0  0  0  0
    8.3470   -5.8449    0.0000 C   0  0  0  0  0  0  0  0  0  0  0  0
    7.8620   -5.1775    0.0000 C   0  0  0  0  0  0  0  0  0  0  0  0
    7.0774   -5.4324    0.0000 C   0  0  0  0  0  0  0  0  0  0  0  0
    6.3628   -5.0199    0.0000 C   0  0  0  0  0  0  0  0  0  0  0  0
    5.6485   -5.4324    0.0000 C   0  0  0  0  0  0  0  0  0  0  0  0
    5.6485   -6.2574    0.0000 C   0  0  0  0  0  0  0  0  0  0  0  0
    6.3628   -6.6699    0.0000 C   0  0  0  0  0  0  0  0  0  0  0  0
    7.0774   -6.2574    0.0000 C   0  0  0  0  0  0  0  0  0  0  0  0
    7.8620   -6.5122    0.0000 O   0  0  0  0  0  0  0  0  0  0  0  0
    6.3628   -7.4949    0.0000 O   0  0  0  0  0  0  0  0  0  0  0  0
    5.6485   -7.9074    0.0000 C   0  0  0  0  0  0  0  0  0  0  0  0
    4.9339   -5.0199    0.0000 C   0  0  0  0  0  0  0  0  0  0  0  0
    4.2194   -5.4324    0.0000 C   0  0  0  0  0  0  0  0  0  0  0  0
    3.5050   -5.0199    0.0000 C   0  0  0  0  0  0  0  0  0  0  0  0
    2.7905   -5.4324    0.0000 O   0  0  0  0  0  0  0  0  0  0  0  0
   11.6470   -5.8449    0.0000 O   0  0  0  0  0  0  0  0  0  0  0  0
  1  2  1  0  0  0  0
  2  3  1  0  0  0  0
  3  4  2  0  0  0  0
  4  5  1  0  0  0  0
  5  6  2  0  0  0  0
  6  7  1  0  0  0  0
  7  8  2  0  0  0  0
  3  8  1  0  0  0  0
  7  9  1  0  0  0  0
  9 10  2  0  0  0  0
 10 11  1  0  0  0  0
 11 12  2  0  0  0  0
 12 13  1  0  0  0  0
 13 14  2  0  0  0  0
 14 15  1  0  0  0  0
 15 16  2  0  0  0  0
 11 16  1  0  0  0  0
 16 17  1  0  0  0  0
  9 17  1  0  0  0  0
 15 18  1  0  0  0  0
 18 19  1  0  0  0  0
 13 20  1  0  0  0  0
 20 21  2  0  0  0  0
 21 22  1  0  0  0  0
 22 23  1  0  0  0  0
  4 24  1  0  0  0  0
M  END
>  <cdx:fragmentId>
5539

$$$$
