xanthine.cdx
  Mrv1902 05222410192D          

 11 12  0  0  0  0            999 V2000
    6.3464   -8.8316    0.0000 N   0  0  0  0  0  0  0  0  0  0  0  0
    6.3464   -9.6566    0.0000 C   0  0  0  0  0  0  0  0  0  0  0  0
    7.0609  -10.0691    0.0000 N   0  0  0  0  0  0  0  0  0  0  0  0
    7.7754   -9.6566    0.0000 C   0  0  0  0  0  0  0  0  0  0  0  0
    7.7754   -8.8316    0.0000 C   0  0  0  0  0  0  0  0  0  0  0  0
    7.0609   -8.4191    0.0000 C   0  0  0  0  0  0  0  0  0  0  0  0
    8.5600   -9.9115    0.0000 N   0  0  0  0  0  0  0  0  0  0  0  0
    9.0449   -9.2441    0.0000 C   0  0  0  0  0  0  0  0  0  0  0  0
    8.5600   -8.5766    0.0000 N   0  0  0  0  0  0  0  0  0  0  0  0
    7.0609   -7.5941    0.0000 O   0  0  0  0  0  0  0  0  0  0  0  0
    5.6319  -10.0691    0.0000 O   0  0  0  0  0  0  0  0  0  0  0  0
  1  2  1  0  0  0  0
  2  3  2  0  0  0  0
  3  4  1  0  0  0  0
  4  5  2  0  0  0  0
  5  6  1  0  0  0  0
  6  1  2  0  0  0  0
  4  7  1  0  0  0  0
  7  8  1  0  0  0  0
  8  9  2  0  0  0  0
  9  5  1  0  0  0  0
  6 10  1  0  0  0  0
  2 11  1  0  0  0  0
M  END
>  <cdx:fragmentId>
5

$$$$
