317013.cdx
  Mrv1902 05222410272D          

 28 30  0  0  0  0            999 V2000
    5.7571   -7.9566    0.0000 C   0  0  0  0  0  0  0  0  0  0  0  0
    5.2051   -7.3435    0.0000 C   0  0  0  0  0  0  0  0  0  0  0  0
    4.3981   -7.5150    0.0000 C   0  0  0  0  0  0  0  0  0  0  0  0
    4.1431   -8.2996    0.0000 C   0  0  0  0  0  0  0  0  0  0  0  0
    5.5021   -8.7412    0.0000 O   0  0  0  0  0  0  0  0  0  0  0  0
    6.5641   -7.7850    0.0000 O   0  0  0  0  0  0  0  0  0  0  0  0
    5.4600   -6.5588    0.0000 C   0  0  0  0  0  0  0  0  0  0  0  0
    4.8012   -9.6176    0.0000 C   0  0  0  0  0  0  0  0  0  0  0  0
    4.8012  -10.4426    0.0000 C   0  0  0  0  0  0  0  0  0  0  0  0
    5.5156  -10.8551    0.0000 C   0  0  0  0  0  0  0  0  0  0  0  0
    6.2301  -10.4426    0.0000 C   0  0  0  0  0  0  0  0  0  0  0  0
    6.9446  -10.8551    0.0000 C   0  0  0  0  0  0  0  0  0  0  0  0
    7.6590  -10.4426    0.0000 C   0  0  0  0  0  0  0  0  0  0  0  0
    7.6590   -9.6176    0.0000 C   0  0  0  0  0  0  0  0  0  0  0  0
    6.9446   -9.2051    0.0000 C   0  0  0  0  0  0  0  0  0  0  0  0
    6.2301   -9.6176    0.0000 C   0  0  0  0  0  0  0  0  0  0  0  0
    5.5156   -9.2051    0.0000 O   0  0  0  0  0  0  0  0  0  0  0  0
    8.2721   -9.0656    0.0000 O   0  0  0  0  0  0  0  0  0  0  0  0
    7.1161   -8.3981    0.0000 C   0  0  2  0  0  0  0  0  0  0  0  0
    7.9366   -8.3119    0.0000 C   0  0  1  0  0  0  0  0  0  0  0  0
    4.0867   -9.2051    0.0000 O   0  0  0  0  0  0  0  0  0  0  0  0
    7.6346   -7.1849    0.0000 C   0  0  0  0  0  0  0  0  0  0  0  0
    8.3491   -7.5974    0.0000 C   0  0  0  0  0  0  0  0  0  0  0  0
    8.3491   -6.7724    0.0000 C   0  0  0  0  0  0  0  0  0  0  0  0
    9.1741   -7.5974    0.0000 O   0  0  0  0  0  0  0  0  0  0  0  0
    9.5866   -6.8830    0.0000 C   0  0  0  0  0  0  0  0  0  0  0  0
    9.1741   -6.1685    0.0000 O   0  0  0  0  0  0  0  0  0  0  0  0
   10.4116   -6.8830    0.0000 C   0  0  0  0  0  0  0  0  0  0  0  0
  1  2  1  0  0  0  0
  2  3  2  0  0  0  0
  3  4  1  0  0  0  0
  1  5  2  0  0  0  0
  1  6  1  0  0  0  0
  2  7  1  0  0  0  0
  8  9  1  0  0  0  0
  9 10  2  0  0  0  0
 10 11  1  0  0  0  0
 11 12  1  0  0  0  0
 12 13  2  0  0  0  0
 13 14  1  0  0  0  0
 14 15  2  0  0  0  0
 15 16  1  0  0  0  0
 11 16  2  0  0  0  0
 16 17  1  0  0  0  0
  8 17  1  0  0  0  0
 19 20  1  0  0  0  0
 18 20  1  0  0  0  0
 18 14  1  0  0  0  0
 19 15  1  0  0  0  0
  8 21  2  0  0  0  0
 22 23  1  0  0  0  0
 23 24  1  0  0  0  0
 26 27  2  0  0  0  0
 26 28  1  0  0  0  0
 25 26  1  0  0  0  0
 23 25  1  0  0  0  0
 20 23  1  1  0  0  0
 19  6  1  1  0  0  0
M  END
>  <cdx:fragmentId>
19

$$$$
