102317032.cdx
  Mrv1902 05222410192D          

 81 88  0  0  0  0            999 V2000
   34.6295  -10.2492    0.0000 C   0  0  0  0  0  0  0  0  0  0  0  0
   33.9151   -9.8367    0.0000 C   0  0  0  0  0  0  0  0  0  0  0  0
   33.9151   -9.0117    0.0000 C   0  0  0  0  0  0  0  0  0  0  0  0
   34.6295  -11.0742    0.0000 O   0  0  0  0  0  0  0  0  0  0  0  0
   35.3440   -9.8367    0.0000 O   0  0  0  0  0  0  0  0  0  0  0  0
   32.4861   -9.8367    0.0000 C   0  0  2  0  0  0  0  0  0  0  0  0
   33.2006  -10.2492    0.0000 C   0  0  1  0  0  0  0  0  0  0  0  0
   33.2006  -11.0742    0.0000 C   0  0  0  0  0  0  0  0  0  0  0  0
   32.4861  -11.4867    0.0000 C   0  0  0  0  0  0  0  0  0  0  0  0
   31.7716  -11.0742    0.0000 C   0  0  1  0  0  0  0  0  0  0  0  0
   31.0572  -11.4867    0.0000 C   0  0  2  0  0  0  0  0  0  0  0  0
   31.0572  -12.3117    0.0000 C   0  0  0  0  0  0  0  0  0  0  0  0
   30.3427  -12.7242    0.0000 C   0  0  0  0  0  0  0  0  0  0  0  0
   29.6282  -12.3117    0.0000 C   0  0  1  0  0  0  0  0  0  0  0  0
   28.9138  -12.7242    0.0000 C   0  0  0  0  0  0  0  0  0  0  0  0
   28.1993  -12.3117    0.0000 C   0  0  0  0  0  0  0  0  0  0  0  0
   28.1993  -11.4867    0.0000 C   0  0  0  0  0  0  0  0  0  0  0  0
   28.9138  -11.0742    0.0000 C   0  0  0  0  0  0  0  0  0  0  0  0
   29.6282  -11.4867    0.0000 C   0  0  1  0  0  0  0  0  0  0  0  0
   30.3427  -11.0742    0.0000 C   0  0  0  0  0  0  0  0  0  0  0  0
   30.3427  -10.2492    0.0000 C   0  0  0  0  0  0  0  0  0  0  0  0
   31.0572   -9.8367    0.0000 C   0  0  0  0  0  0  0  0  0  0  0  0
   31.7716  -10.2492    0.0000 C   0  0  2  0  0  0  0  0  0  0  0  0
   27.3743  -11.4867    0.0000 C   0  0  0  0  0  0  0  0  0  0  0  0
   27.7868  -10.7723    0.0000 C   0  0  0  0  0  0  0  0  0  0  0  0
   31.0572  -10.6617    0.0000 C   0  0  0  0  0  0  0  0  0  0  0  0
   31.7716  -11.8992    0.0000 C   0  0  0  0  0  0  0  0  0  0  0  0
   33.2006   -9.4242    0.0000 C   0  0  0  0  0  0  0  0  0  0  0  0
   32.4861   -9.0117    0.0000 C   0  0  0  0  0  0  0  0  0  0  0  0
   33.2006   -8.5992    0.0000 C   0  0  0  0  0  0  0  0  0  0  0  0
   33.2006   -7.7742    0.0000 C   0  0  0  0  0  0  0  0  0  0  0  0
   33.9151   -7.3617    0.0000 O   0  0  0  0  0  0  0  0  0  0  0  0
   29.6282  -13.1367    0.0000 C   0  0  0  0  0  0  0  0  0  0  0  0
   30.3427  -13.5492    0.0000 O   0  0  0  0  0  0  0  0  0  0  0  0
   28.9138  -13.5492    0.0000 O   0  0  0  0  0  0  0  0  0  0  0  0
   28.1993  -14.7867    0.0000 O   0  0  0  0  0  0  0  0  0  0  0  0
   28.9138  -14.3742    0.0000 C   0  0  2  0  0  0  0  0  0  0  0  0
   29.6282  -14.7867    0.0000 C   0  0  1  0  0  0  0  0  0  0  0  0
   29.6282  -15.6117    0.0000 C   0  0  2  0  0  0  0  0  0  0  0  0
   28.9138  -16.0242    0.0000 C   0  0  1  0  0  0  0  0  0  0  0  0
   28.1993  -15.6117    0.0000 C   0  0  1  0  0  0  0  0  0  0  0  0
   30.3427  -16.0242    0.0000 O   0  0  0  0  0  0  0  0  0  0  0  0
   31.0572  -14.7867    0.0000 O   0  0  0  0  0  0  0  0  0  0  0  0
   31.0572  -15.6117    0.0000 C   0  0  2  0  0  0  0  0  0  0  0  0
   31.7716  -16.0242    0.0000 C   0  0  1  0  0  0  0  0  0  0  0  0
   32.4861  -15.6117    0.0000 C   0  0  2  0  0  0  0  0  0  0  0  0
   32.4861  -14.7867    0.0000 C   0  0  1  0  0  0  0  0  0  0  0  0
   31.7716  -14.3742    0.0000 C   0  0  1  0  0  0  0  0  0  0  0  0
   31.7716  -13.5492    0.0000 C   0  0  0  0  0  0  0  0  0  0  0  0
   32.4861  -13.1367    0.0000 O   0  0  0  0  0  0  0  0  0  0  0  0
   33.2006  -14.3742    0.0000 O   0  0  0  0  0  0  0  0  0  0  0  0
   33.2006  -16.0242    0.0000 O   0  0  0  0  0  0  0  0  0  0  0  0
   31.7716  -16.8492    0.0000 O   0  0  0  0  0  0  0  0  0  0  0  0
   28.9138  -16.8492    0.0000 O   0  0  0  0  0  0  0  0  0  0  0  0
   30.3427  -14.3742    0.0000 O   0  0  0  0  0  0  0  0  0  0  0  0
   27.4848  -16.0242    0.0000 C   0  0  0  0  0  0  0  0  0  0  0  0
   26.7704  -15.6117    0.0000 O   0  0  0  0  0  0  0  0  0  0  0  0
   25.3414  -15.6117    0.0000 O   0  0  0  0  0  0  0  0  0  0  0  0
   26.0559  -16.0242    0.0000 C   0  0  2  0  0  0  0  0  0  0  0  0
   26.0559  -16.8492    0.0000 C   0  0  1  0  0  0  0  0  0  0  0  0
   25.3414  -17.2617    0.0000 C   0  0  2  0  0  0  0  0  0  0  0  0
   24.6269  -16.8492    0.0000 C   0  0  1  0  0  0  0  0  0  0  0  0
   24.6269  -16.0242    0.0000 C   0  0  1  0  0  0  0  0  0  0  0  0
   26.7704  -17.2617    0.0000 O   0  0  0  0  0  0  0  0  0  0  0  0
   26.0559  -18.4992    0.0000 O   0  0  0  0  0  0  0  0  0  0  0  0
   26.7704  -18.0867    0.0000 C   0  0  2  0  0  0  0  0  0  0  0  0
   27.4848  -18.4992    0.0000 C   0  0  1  0  0  0  0  0  0  0  0  0
   27.4848  -19.3242    0.0000 C   0  0  2  0  0  0  0  0  0  0  0  0
   26.7704  -19.7367    0.0000 C   0  0  1  0  0  0  0  0  0  0  0  0
   26.0559  -19.3242    0.0000 C   0  0  1  0  0  0  0  0  0  0  0  0
   25.3414  -19.7367    0.0000 C   0  0  0  0  0  0  0  0  0  0  0  0
   24.6269  -19.3242    0.0000 O   0  0  0  0  0  0  0  0  0  0  0  0
   26.7704  -20.5617    0.0000 O   0  0  0  0  0  0  0  0  0  0  0  0
   28.1993  -19.7367    0.0000 O   0  0  0  0  0  0  0  0  0  0  0  0
   28.1993  -18.0867    0.0000 O   0  0  0  0  0  0  0  0  0  0  0  0
   23.9125  -15.6117    0.0000 C   0  0  0  0  0  0  0  0  0  0  0  0
   23.1980  -16.0242    0.0000 O   0  0  0  0  0  0  0  0  0  0  0  0
   23.9125  -17.2617    0.0000 O   0  0  0  0  0  0  0  0  0  0  0  0
   25.3414  -18.0867    0.0000 O   0  0  0  0  0  0  0  0  0  0  0  0
   29.6282  -10.6617    0.0000 H   0  0  0  0  0  0  0  0  0  0  0  0
   31.7716   -9.4242    0.0000 H   0  0  0  0  0  0  0  0  0  0  0  0
  1  2  1  0  0  0  0
  2  3  2  0  0  0  0
  1  4  2  0  0  0  0
  1  5  1  0  0  0  0
  6  7  1  0  0  0  0
  7  8  1  0  0  0  0
  8  9  1  0  0  0  0
  9 10  1  0  0  0  0
 10 11  1  0  0  0  0
 11 12  1  0  0  0  0
 12 13  1  0  0  0  0
 13 14  1  0  0  0  0
 14 15  1  0  0  0  0
 15 16  1  0  0  0  0
 16 17  1  0  0  0  0
 17 18  1  0  0  0  0
 18 19  1  0  0  0  0
 14 19  1  0  0  0  0
 19 20  1  0  0  0  0
 11 20  1  0  0  0  0
 20 21  2  0  0  0  0
 21 22  1  0  0  0  0
 22 23  1  0  0  0  0
 10 23  1  0  0  0  0
  6 23  1  0  0  0  0
 17 24  1  0  0  0  0
 17 25  1  0  0  0  0
 11 26  1  1  0  0  0
 10 27  1  6  0  0  0
  6 28  1  6  0  0  0
 29 30  1  0  0  0  0
 30 31  1  0  0  0  0
 31 32  1  0  0  0  0
  6 29  1  0  0  0  0
 33 34  2  0  0  0  0
 36 37  1  0  0  0  0
 37 38  1  0  0  0  0
 38 39  1  0  0  0  0
 39 40  1  0  0  0  0
 40 41  1  0  0  0  0
 36 41  1  0  0  0  0
 43 44  1  0  0  0  0
 44 45  1  0  0  0  0
 45 46  1  0  0  0  0
 46 47  1  0  0  0  0
 47 48  1  0  0  0  0
 43 48  1  0  0  0  0
 49 50  1  0  0  0  0
 48 49  1  6  0  0  0
 47 51  1  1  0  0  0
 46 52  1  6  0  0  0
 45 53  1  1  0  0  0
 44 42  1  6  0  0  0
 39 42  1  1  0  0  0
 40 54  1  6  0  0  0
 38 55  1  6  0  0  0
 58 59  1  0  0  0  0
 59 60  1  0  0  0  0
 60 61  1  0  0  0  0
 61 62  1  0  0  0  0
 62 63  1  0  0  0  0
 58 63  1  0  0  0  0
 65 66  1  0  0  0  0
 66 67  1  0  0  0  0
 67 68  1  0  0  0  0
 68 69  1  0  0  0  0
 69 70  1  0  0  0  0
 65 70  1  0  0  0  0
 71 72  1  0  0  0  0
 70 71  1  1  0  0  0
 69 73  1  6  0  0  0
 68 74  1  1  0  0  0
 67 75  1  6  0  0  0
 66 64  1  1  0  0  0
 60 64  1  6  0  0  0
 76 77  1  0  0  0  0
 63 76  1  1  0  0  0
 62 78  1  6  0  0  0
 61 79  1  1  0  0  0
 59 57  1  1  0  0  0
 56 57  1  0  0  0  0
 41 56  1  1  0  0  0
 37 35  1  1  0  0  0
 33 35  1  0  0  0  0
 14 33  1  6  0  0  0
  7  2  1  6  0  0  0
 19 80  1  6  0  0  0
 23 81  1  1  0  0  0
M  END
>  <cdx:groupId>
35221

>  <cdx:fragmentId>
35102

$$$$
