317081.cdx
  Mrv1902 05222410212D          

 30 33  0  0  0  0            999 V2000
    5.1116   -8.2799    0.0000 C   0  0  0  0  0  0  0  0  0  0  0  0
    5.7890   -7.8090    0.0000 O   0  0  0  0  0  0  0  0  0  0  0  0
    5.3054   -9.9634    0.0000 C   0  0  0  0  0  0  0  0  0  0  0  0
    5.5216   -9.1672    0.0000 O   0  0  0  0  0  0  0  0  0  0  0  0
    7.2657  -10.9233    0.0000 C   0  0  0  0  0  0  0  0  0  0  0  0
    6.6844  -10.3379    0.0000 O   0  0  0  0  0  0  0  0  0  0  0  0
    5.1168   -6.7788    0.0000 C   0  0  0  0  0  0  0  0  0  0  0  0
    5.7909   -7.2543    0.0000 O   0  0  0  0  0  0  0  0  0  0  0  0
   10.0860   -8.2747    0.0000 C   0  0  0  0  0  0  0  0  0  0  0  0
   10.0910   -6.8183    0.0000 C   0  0  0  0  0  0  0  0  0  0  0  0
    9.0526   -9.3010    0.0000 O   0  0  0  0  0  0  0  0  0  0  0  0
    6.5398   -6.9082    0.0000 C   0  0  0  0  0  0  0  0  0  0  0  0
    6.3291   -6.1106    0.0000 C   0  0  0  0  0  0  0  0  0  0  0  0
    5.5953   -5.7335    0.0000 O   0  0  0  0  0  0  0  0  0  0  0  0
    5.7271   -4.9191    0.0000 C   0  0  0  0  0  0  0  0  0  0  0  0
    6.5424   -4.7929    0.0000 O   0  0  0  0  0  0  0  0  0  0  0  0
    6.9144   -5.5293    0.0000 C   0  0  0  0  0  0  0  0  0  0  0  0
    7.7106   -5.7455    0.0000 C   0  0  0  0  0  0  0  0  0  0  0  0
    7.9214   -6.5431    0.0000 C   0  0  0  0  0  0  0  0  0  0  0  0
    8.7464   -6.5460    0.0000 C   0  0  0  0  0  0  0  0  0  0  0  0
    9.3277   -7.1313    0.0000 C   0  0  1  0  0  0  0  0  0  0  0  0
    9.3249   -7.9563    0.0000 C   0  0  1  0  0  0  0  0  0  0  0  0
    8.7395   -8.5377    0.0000 C   0  0  1  0  0  0  0  0  0  0  0  0
    7.9145   -8.5349    0.0000 C   0  0  0  0  0  0  0  0  0  0  0  0
    7.6982   -9.3310    0.0000 C   0  0  0  0  0  0  0  0  0  0  0  0
    6.9006   -9.5418    0.0000 C   0  0  0  0  0  0  0  0  0  0  0  0
    6.3193   -8.9564    0.0000 C   0  0  0  0  0  0  0  0  0  0  0  0
    6.5355   -8.1603    0.0000 C   0  0  0  0  0  0  0  0  0  0  0  0
    7.3331   -7.9495    0.0000 C   0  0  0  0  0  0  0  0  0  0  0  0
    7.3360   -7.1245    0.0000 C   0  0  0  0  0  0  0  0  0  0  0  0
 28  2  1  0  0  0  0
  2  1  1  0  0  0  0
 27  4  1  0  0  0  0
  4  3  1  0  0  0  0
 26  6  1  0  0  0  0
  6  5  1  0  0  0  0
 12  8  1  0  0  0  0
  8  7  1  0  0  0  0
 22  9  1  6  0  0  0
 21 10  1  6  0  0  0
 23 11  1  6  0  0  0
 29 24  1  0  0  0  0
 17 13  2  0  0  0  0
 30 19  1  0  0  0  0
 30 12  2  0  0  0  0
 13 12  1  0  0  0  0
 14 13  1  0  0  0  0
 15 14  1  0  0  0  0
 16 15  1  0  0  0  0
 17 16  1  0  0  0  0
 18 17  1  0  0  0  0
 19 18  2  0  0  0  0
 20 19  1  0  0  0  0
 21 20  1  0  0  0  0
 22 21  1  0  0  0  0
 23 22  1  0  0  0  0
 24 23  1  0  0  0  0
 25 24  2  0  0  0  0
 26 25  1  0  0  0  0
 27 26  2  0  0  0  0
 28 27  1  0  0  0  0
 29 28  2  0  0  0  0
 30 29  1  0  0  0  0
M  END
>  <cdx:fragmentId>
6167

$$$$
