102317031.cdx
  Mrv1902 05222410202D          

 93102  0  0  0  0            999 V2000
    3.1664  -12.8242    0.0000 C   0  0  0  0  0  0  0  0  0  0  0  0
    2.4519  -13.2367    0.0000 C   0  0  0  0  0  0  0  0  0  0  0  0
    2.4519  -14.0617    0.0000 C   0  0  1  0  0  0  0  0  0  0  0  0
    3.1664  -14.4742    0.0000 C   0  0  2  0  0  0  0  0  0  0  0  0
    3.8808  -14.0617    0.0000 C   0  0  2  0  0  0  0  0  0  0  0  0
    4.5953  -14.4742    0.0000 C   0  0  0  0  0  0  0  0  0  0  0  0
    5.3098  -14.0617    0.0000 C   0  0  0  0  0  0  0  0  0  0  0  0
    5.3098  -13.2367    0.0000 C   0  0  1  0  0  0  0  0  0  0  0  0
    6.0242  -12.8242    0.0000 C   0  0  2  0  0  0  0  0  0  0  0  0
    6.7387  -13.2367    0.0000 C   0  0  0  0  0  0  0  0  0  0  0  0
    7.4532  -12.8242    0.0000 C   0  0  0  0  0  0  0  0  0  0  0  0
    7.4532  -11.9992    0.0000 C   0  0  1  0  0  0  0  0  0  0  0  0
    8.1677  -11.5867    0.0000 C   0  0  0  0  0  0  0  0  0  0  0  0
    8.1677  -10.7617    0.0000 C   0  0  0  0  0  0  0  0  0  0  0  0
    7.4532  -10.3492    0.0000 C   0  0  0  0  0  0  0  0  0  0  0  0
    6.7387  -10.7617    0.0000 C   0  0  0  0  0  0  0  0  0  0  0  0
    6.7387  -11.5867    0.0000 C   0  0  1  0  0  0  0  0  0  0  0  0
    6.0242  -11.9992    0.0000 C   0  0  0  0  0  0  0  0  0  0  0  0
    5.3098  -11.5867    0.0000 C   0  0  0  0  0  0  0  0  0  0  0  0
    4.5953  -11.9992    0.0000 C   0  0  0  0  0  0  0  0  0  0  0  0
    4.5953  -12.8242    0.0000 C   0  0  2  0  0  0  0  0  0  0  0  0
    3.8808  -13.2367    0.0000 C   0  0  1  0  0  0  0  0  0  0  0  0
    3.1664  -15.2992    0.0000 C   0  0  0  0  0  0  0  0  0  0  0  0
    3.8808  -15.7117    0.0000 O   0  0  0  0  0  0  0  0  0  0  0  0
    2.4519  -15.7117    0.0000 O   0  0  0  0  0  0  0  0  0  0  0  0
    8.1677  -12.4117    0.0000 C   0  0  0  0  0  0  0  0  0  0  0  0
    8.1677  -13.2367    0.0000 O   0  0  0  0  0  0  0  0  0  0  0  0
    8.8821  -11.9992    0.0000 O   0  0  0  0  0  0  0  0  0  0  0  0
    3.8808  -12.4117    0.0000 C   0  0  0  0  0  0  0  0  0  0  0  0
    7.0407   -9.6348    0.0000 C   0  0  0  0  0  0  0  0  0  0  0  0
    7.8657   -9.6348    0.0000 C   0  0  0  0  0  0  0  0  0  0  0  0
    6.0242  -13.6492    0.0000 C   0  0  0  0  0  0  0  0  0  0  0  0
    5.3098  -12.4117    0.0000 C   0  0  0  0  0  0  0  0  0  0  0  0
    2.4519  -14.8867    0.0000 C   0  0  0  0  0  0  0  0  0  0  0  0
    1.7374  -14.4742    0.0000 O   0  0  0  0  0  0  0  0  0  0  0  0
    3.8808  -14.8867    0.0000 H   0  0  0  0  0  0  0  0  0  0  0  0
    6.7387  -12.4117    0.0000 H   0  0  0  0  0  0  0  0  0  0  0  0
    4.5953  -13.6492    0.0000 H   0  0  0  0  0  0  0  0  0  0  0  0
    1.7374  -16.9492    0.0000 O   0  0  0  0  0  0  0  0  0  0  0  0
    2.4519  -16.5367    0.0000 C   0  0  2  0  0  0  0  0  0  0  0  0
    3.1664  -16.9492    0.0000 C   0  0  1  0  0  0  0  0  0  0  0  0
    3.1664  -17.7742    0.0000 C   0  0  2  0  0  0  0  0  0  0  0  0
    2.4519  -18.1867    0.0000 C   0  0  1  0  0  0  0  0  0  0  0  0
    1.7374  -17.7742    0.0000 C   0  0  1  0  0  0  0  0  0  0  0  0
    1.0229  -18.1867    0.0000 C   0  0  0  0  0  0  0  0  0  0  0  0
    0.3085  -17.7742    0.0000 O   0  0  0  0  0  0  0  0  0  0  0  0
    2.4519  -19.0117    0.0000 O   0  0  0  0  0  0  0  0  0  0  0  0
    3.8808  -18.1867    0.0000 O   0  0  0  0  0  0  0  0  0  0  0  0
    3.8808  -16.5367    0.0000 O   0  0  0  0  0  0  0  0  0  0  0  0
    9.5966  -13.2367    0.0000 O   0  0  0  0  0  0  0  0  0  0  0  0
    9.5966  -12.4117    0.0000 C   0  0  2  0  0  0  0  0  0  0  0  0
   10.3111  -11.9992    0.0000 C   0  0  1  0  0  0  0  0  0  0  0  0
   11.0255  -12.4117    0.0000 C   0  0  2  0  0  0  0  0  0  0  0  0
   11.0255  -13.2367    0.0000 C   0  0  1  0  0  0  0  0  0  0  0  0
   10.3111  -13.6492    0.0000 C   0  0  1  0  0  0  0  0  0  0  0  0
   11.7400  -11.9992    0.0000 O   0  0  0  0  0  0  0  0  0  0  0  0
   12.4545  -13.2367    0.0000 O   0  0  0  0  0  0  0  0  0  0  0  0
   12.4545  -12.4117    0.0000 C   0  0  2  0  0  0  0  0  0  0  0  0
   13.1690  -11.9992    0.0000 C   0  0  1  0  0  0  0  0  0  0  0  0
   13.8834  -12.4117    0.0000 C   0  0  2  0  0  0  0  0  0  0  0  0
   13.8834  -13.2367    0.0000 C   0  0  1  0  0  0  0  0  0  0  0  0
   13.1690  -13.6492    0.0000 C   0  0  1  0  0  0  0  0  0  0  0  0
   13.1690  -14.4742    0.0000 C   0  0  0  0  0  0  0  0  0  0  0  0
   13.8834  -14.8867    0.0000 O   0  0  0  0  0  0  0  0  0  0  0  0
   14.5979  -13.6492    0.0000 O   0  0  0  0  0  0  0  0  0  0  0  0
   14.5979  -11.9992    0.0000 O   0  0  0  0  0  0  0  0  0  0  0  0
   13.1690  -11.1742    0.0000 O   0  0  0  0  0  0  0  0  0  0  0  0
   11.7400  -13.6492    0.0000 O   0  0  0  0  0  0  0  0  0  0  0  0
   10.3111  -11.1742    0.0000 O   0  0  0  0  0  0  0  0  0  0  0  0
   10.3111  -14.4742    0.0000 C   0  0  0  0  0  0  0  0  0  0  0  0
   11.0255  -14.8867    0.0000 O   0  0  0  0  0  0  0  0  0  0  0  0
   10.3111  -16.1242    0.0000 O   0  0  0  0  0  0  0  0  0  0  0  0
   11.0255  -15.7117    0.0000 C   0  0  2  0  0  0  0  0  0  0  0  0
   11.7400  -16.1242    0.0000 C   0  0  1  0  0  0  0  0  0  0  0  0
   11.7400  -16.9492    0.0000 C   0  0  2  0  0  0  0  0  0  0  0  0
   11.0255  -17.3617    0.0000 C   0  0  1  0  0  0  0  0  0  0  0  0
   10.3111  -16.9492    0.0000 C   0  0  1  0  0  0  0  0  0  0  0  0
   12.6688  -15.5880    0.0000 O   0  0  0  0  0  0  0  0  0  0  0  0
   14.3121  -15.7117    0.0000 O   0  0  0  0  0  0  0  0  0  0  0  0
   13.5976  -16.1242    0.0000 C   0  0  2  0  0  0  0  0  0  0  0  0
   13.5976  -16.9492    0.0000 C   0  0  1  0  0  0  0  0  0  0  0  0
   14.3121  -17.3617    0.0000 C   0  0  2  0  0  0  0  0  0  0  0  0
   15.0266  -16.9492    0.0000 C   0  0  1  0  0  0  0  0  0  0  0  0
   15.0266  -16.1242    0.0000 C   0  0  1  0  0  0  0  0  0  0  0  0
   15.7411  -15.7117    0.0000 C   0  0  0  0  0  0  0  0  0  0  0  0
   16.4555  -16.1242    0.0000 O   0  0  0  0  0  0  0  0  0  0  0  0
   15.7411  -17.3617    0.0000 O   0  0  0  0  0  0  0  0  0  0  0  0
   14.3121  -18.1867    0.0000 O   0  0  0  0  0  0  0  0  0  0  0  0
   12.8832  -17.3617    0.0000 O   0  0  0  0  0  0  0  0  0  0  0  0
    9.5966  -17.3617    0.0000 C   0  0  0  0  0  0  0  0  0  0  0  0
    8.8821  -16.9492    0.0000 O   0  0  0  0  0  0  0  0  0  0  0  0
   11.0255  -18.1867    0.0000 O   0  0  0  0  0  0  0  0  0  0  0  0
   12.4545  -17.3617    0.0000 O   0  0  0  0  0  0  0  0  0  0  0  0
  1  2  1  0  0  0  0
  2  3  1  0  0  0  0
  3  4  1  0  0  0  0
  4  5  1  0  0  0  0
  5  6  1  0  0  0  0
  6  7  1  0  0  0  0
  7  8  1  0  0  0  0
  8  9  1  0  0  0  0
  9 10  1  0  0  0  0
 10 11  1  0  0  0  0
 11 12  1  0  0  0  0
 12 13  1  0  0  0  0
 13 14  1  0  0  0  0
 14 15  1  0  0  0  0
 15 16  1  0  0  0  0
 16 17  1  0  0  0  0
 12 17  1  0  0  0  0
 17 18  1  0  0  0  0
  9 18  1  0  0  0  0
 18 19  2  0  0  0  0
 19 20  1  0  0  0  0
 20 21  1  0  0  0  0
  8 21  1  0  0  0  0
 21 22  1  0  0  0  0
  5 22  1  0  0  0  0
  1 22  1  0  0  0  0
 23 24  2  0  0  0  0
 23 25  1  0  0  0  0
  4 23  1  0  0  0  0
 26 27  2  0  0  0  0
 26 28  1  0  0  0  0
 12 26  1  1  0  0  0
 22 29  1  1  0  0  0
 15 30  1  0  0  0  0
 15 31  1  0  0  0  0
  9 32  1  6  0  0  0
  8 33  1  1  0  0  0
  4 34  1  1  0  0  0
  3 35  1  1  0  0  0
  5 36  1  6  0  0  0
 17 37  1  1  0  0  0
 21 38  1  6  0  0  0
 39 40  1  0  0  0  0
 40 41  1  0  0  0  0
 41 42  1  0  0  0  0
 42 43  1  0  0  0  0
 43 44  1  0  0  0  0
 39 44  1  0  0  0  0
 45 46  1  0  0  0  0
 44 45  1  1  0  0  0
 43 47  1  6  0  0  0
 42 48  1  1  0  0  0
 41 49  1  6  0  0  0
 40 25  1  1  0  0  0
 50 51  1  0  0  0  0
 51 52  1  0  0  0  0
 52 53  1  0  0  0  0
 53 54  1  0  0  0  0
 54 55  1  0  0  0  0
 50 55  1  0  0  0  0
 57 58  1  0  0  0  0
 58 59  1  0  0  0  0
 59 60  1  0  0  0  0
 60 61  1  0  0  0  0
 61 62  1  0  0  0  0
 57 62  1  0  0  0  0
 63 64  1  0  0  0  0
 62 63  1  1  0  0  0
 61 65  1  6  0  0  0
 60 66  1  1  0  0  0
 59 67  1  6  0  0  0
 58 56  1  1  0  0  0
 53 56  1  1  0  0  0
 54 68  1  6  0  0  0
 52 69  1  6  0  0  0
 72 73  1  0  0  0  0
 73 74  1  0  0  0  0
 74 75  1  0  0  0  0
 75 76  1  0  0  0  0
 76 77  1  0  0  0  0
 72 77  1  0  0  0  0
 79 80  1  0  0  0  0
 80 81  1  0  0  0  0
 81 82  1  0  0  0  0
 82 83  1  0  0  0  0
 83 84  1  0  0  0  0
 79 84  1  0  0  0  0
 85 86  1  0  0  0  0
 84 85  1  6  0  0  0
 83 87  1  1  0  0  0
 82 88  1  6  0  0  0
 81 89  1  1  0  0  0
 80 78  1  6  0  0  0
 74 78  1  6  0  0  0
 90 91  1  0  0  0  0
 77 90  1  1  0  0  0
 76 92  1  6  0  0  0
 75 93  1  1  0  0  0
 73 71  1  1  0  0  0
 70 71  1  0  0  0  0
 55 70  1  1  0  0  0
 51 28  1  1  0  0  0
M  END
>  <cdx:groupId>
34954

>  <cdx:fragmentId>
34669

$$$$
