317062.cdx
  Mrv1902 05222410232D          

 31 34  0  0  0  0            999 V2000
    7.4250   -7.3584    0.0000 O   0  0  0  0  0  0  0  0  0  0  0  0
   12.4263   -7.7709    0.0000 O   0  0  0  0  0  0  0  0  0  0  0  0
   10.9974   -6.1209    0.0000 C   0  0  0  0  0  0  0  0  0  0  0  0
   11.7118   -6.5334    0.0000 C   0  0  0  0  0  0  0  0  0  0  0  0
   11.7118   -7.3584    0.0000 C   0  0  0  0  0  0  0  0  0  0  0  0
   10.9974   -7.7709    0.0000 C   0  0  0  0  0  0  0  0  0  0  0  0
   10.2829   -7.3584    0.0000 C   0  0  0  0  0  0  0  0  0  0  0  0
   10.2829   -6.5334    0.0000 C   0  0  0  0  0  0  0  0  0  0  0  0
    5.9961   -6.5334    0.0000 O   0  0  0  0  0  0  0  0  0  0  0  0
    4.5671   -7.3584    0.0000 O   0  0  0  0  0  0  0  0  0  0  0  0
    3.1382   -6.5334    0.0000 O   0  0  0  0  0  0  0  0  0  0  0  0
    2.4237   -5.2959    0.0000 O   0  0  0  0  0  0  0  0  0  0  0  0
    3.1382   -4.8834    0.0000 C   0  0  0  0  0  0  0  0  0  0  0  0
    3.8526   -5.2959    0.0000 C   0  0  2  0  0  0  0  0  0  0  0  0
    3.8526   -6.1209    0.0000 C   0  0  2  0  0  0  0  0  0  0  0  0
    4.5671   -6.5334    0.0000 C   0  0  1  0  0  0  0  0  0  0  0  0
    5.2816   -6.1209    0.0000 C   0  0  2  0  0  0  0  0  0  0  0  0
    5.2816   -5.2959    0.0000 C   0  0  1  0  0  0  0  0  0  0  0  0
    4.5671   -4.8834    0.0000 O   0  0  0  0  0  0  0  0  0  0  0  0
    5.9961   -4.8834    0.0000 O   0  0  0  0  0  0  0  0  0  0  0  0
    8.8539   -7.3584    0.0000 O   0  0  0  0  0  0  0  0  0  0  0  0
    8.8539   -4.8834    0.0000 O   0  0  0  0  0  0  0  0  0  0  0  0
    8.1395   -5.2959    0.0000 C   0  0  0  0  0  0  0  0  0  0  0  0
    7.4250   -4.8834    0.0000 C   0  0  0  0  0  0  0  0  0  0  0  0
    6.7105   -5.2959    0.0000 C   0  0  0  0  0  0  0  0  0  0  0  0
    6.7105   -6.1209    0.0000 C   0  0  0  0  0  0  0  0  0  0  0  0
    7.4250   -6.5334    0.0000 C   0  0  0  0  0  0  0  0  0  0  0  0
    8.1395   -6.1209    0.0000 C   0  0  0  0  0  0  0  0  0  0  0  0
    8.8539   -6.5334    0.0000 C   0  0  0  0  0  0  0  0  0  0  0  0
    9.5684   -6.1209    0.0000 C   0  0  0  0  0  0  0  0  0  0  0  0
    9.5684   -5.2959    0.0000 C   0  0  0  0  0  0  0  0  0  0  0  0
 27  1  1  0  0  0  0
 30  8  1  0  0  0  0
  5  2  1  0  0  0  0
  8  3  2  0  0  0  0
  4  3  1  0  0  0  0
  5  4  2  0  0  0  0
  6  5  1  0  0  0  0
  7  6  2  0  0  0  0
  8  7  1  0  0  0  0
 25 20  1  0  0  0  0
 18 20  1  1  0  0  0
 17  9  1  6  0  0  0
 16 10  1  1  0  0  0
 15 11  1  6  0  0  0
 14 13  1  1  0  0  0
 13 12  1  0  0  0  0
 19 14  1  0  0  0  0
 15 14  1  0  0  0  0
 16 15  1  0  0  0  0
 17 16  1  0  0  0  0
 18 17  1  0  0  0  0
 19 18  1  0  0  0  0
 29 21  2  0  0  0  0
 31 22  1  0  0  0  0
 23 22  1  0  0  0  0
 28 23  2  0  0  0  0
 24 23  1  0  0  0  0
 25 24  2  0  0  0  0
 26 25  1  0  0  0  0
 27 26  2  0  0  0  0
 28 27  1  0  0  0  0
 29 28  1  0  0  0  0
 30 29  1  0  0  0  0
 31 30  2  0  0  0  0
M  END
>  <cdx:fragmentId>
29

$$$$
