317052.cdx
  Mrv1902 05222410222D          

 41 47  0  0  0  0            999 V2000
    8.5299   -8.6075    0.0000 C   0  0  0  0  0  0  0  0  0  0  0  0
    8.5299   -9.4325    0.0000 C   0  0  0  0  0  0  0  0  0  0  0  0
    9.2444   -9.8450    0.0000 C   0  0  0  0  0  0  0  0  0  0  0  0
    9.9589   -9.4325    0.0000 C   0  0  0  0  0  0  0  0  0  0  0  0
    9.9589   -8.6075    0.0000 C   0  0  0  0  0  0  0  0  0  0  0  0
    9.2444   -8.1950    0.0000 C   0  0  0  0  0  0  0  0  0  0  0  0
    7.8155   -9.8450    0.0000 O   0  0  0  0  0  0  0  0  0  0  0  0
    7.8155  -10.6700    0.0000 C   0  0  1  0  0  0  0  0  0  0  0  0
    8.5299  -11.0825    0.0000 C   0  0  1  0  0  0  0  0  0  0  0  0
    9.2444  -10.6700    0.0000 C   0  0  0  0  0  0  0  0  0  0  0  0
    7.1010  -11.0825    0.0000 C   0  0  0  0  0  0  0  0  0  0  0  0
    7.1010  -11.9075    0.0000 C   0  0  0  0  0  0  0  0  0  0  0  0
    8.5299  -11.9075    0.0000 O   0  0  0  0  0  0  0  0  0  0  0  0
    6.3865  -10.6700    0.0000 C   0  0  0  0  0  0  0  0  0  0  0  0
    5.6720  -11.0825    0.0000 C   0  0  0  0  0  0  0  0  0  0  0  0
    5.6720  -11.9075    0.0000 C   0  0  0  0  0  0  0  0  0  0  0  0
    6.3865  -12.3200    0.0000 C   0  0  0  0  0  0  0  0  0  0  0  0
    6.3865   -9.8450    0.0000 O   0  0  0  0  0  0  0  0  0  0  0  0
    5.6720   -9.4325    0.0000 C   0  0  0  0  0  0  0  0  0  0  0  0
    4.9576   -9.8450    0.0000 C   0  0  0  0  0  0  0  0  0  0  0  0
    5.6720   -8.6075    0.0000 C   0  0  0  0  0  0  0  0  0  0  0  0
    4.9576   -8.1950    0.0000 C   0  0  0  0  0  0  0  0  0  0  0  0
    4.2431   -8.6075    0.0000 C   0  0  0  0  0  0  0  0  0  0  0  0
    4.2431   -9.4325    0.0000 C   0  0  0  0  0  0  0  0  0  0  0  0
    4.9576   -7.3700    0.0000 O   0  0  0  0  0  0  0  0  0  0  0  0
    9.2444   -7.3700    0.0000 O   0  0  0  0  0  0  0  0  0  0  0  0
    4.9576  -12.3200    0.0000 O   0  0  0  0  0  0  0  0  0  0  0  0
   10.6733   -9.8450    0.0000 O   0  0  0  0  0  0  0  0  0  0  0  0
    3.5286   -9.8450    0.0000 O   0  0  0  0  0  0  0  0  0  0  0  0
    7.1084   -7.9269    0.0000 C   0  0  2  0  0  0  0  0  0  0  0  0
    7.0127   -6.7306    0.0000 C   0  0  1  0  0  0  0  0  0  0  0  0
    7.0033   -5.9057    0.0000 C   0  0  0  0  0  0  0  0  0  0  0  0
    7.7201   -5.4971    0.0000 C   0  0  0  0  0  0  0  0  0  0  0  0
    7.7201   -4.6721    0.0000 C   0  0  0  0  0  0  0  0  0  0  0  0
    7.0033   -4.2557    0.0000 C   0  0  0  0  0  0  0  0  0  0  0  0
    6.2866   -4.6721    0.0000 C   0  0  0  0  0  0  0  0  0  0  0  0
    6.2866   -5.4971    0.0000 C   0  0  0  0  0  0  0  0  0  0  0  0
    7.0033   -3.4307    0.0000 O   0  0  0  0  0  0  0  0  0  0  0  0
    8.3385   -6.1737    0.0000 C   0  0  1  0  0  0  0  0  0  0  0  0
    8.9809   -5.6561    0.0000 O   0  0  0  0  0  0  0  0  0  0  0  0
    7.3219   -8.7238    0.0000 H   0  0  0  0  0  0  0  0  0  0  0  0
  1  2  1  0  0  0  0
  2  3  2  0  0  0  0
  3  4  1  0  0  0  0
  4  5  2  0  0  0  0
  5  6  1  0  0  0  0
  6  1  2  0  0  0  0
  2  7  1  0  0  0  0
  7  8  1  0  0  0  0
  8  9  1  0  0  0  0
  9 10  1  0  0  0  0
 10  3  1  0  0  0  0
  8 11  1  1  0  0  0
 11 12  2  0  0  0  0
  9 13  1  1  0  0  0
 11 14  1  0  0  0  0
 14 15  2  0  0  0  0
 15 16  1  0  0  0  0
 16 17  2  0  0  0  0
 17 12  1  0  0  0  0
 18 19  1  0  0  0  0
 19 20  1  0  0  0  0
 19 21  2  0  0  0  0
 21 22  1  0  0  0  0
 22 23  2  0  0  0  0
 23 24  1  0  0  0  0
 24 20  2  0  0  0  0
 22 25  1  0  0  0  0
  6 26  1  0  0  0  0
 16 27  1  0  0  0  0
  4 28  1  0  0  0  0
 24 29  1  0  0  0  0
 21 30  1  0  0  0  0
  1 30  1  0  0  0  0
 25 31  1  0  0  0  0
 31 26  1  0  0  0  0
 31 32  1  6  0  0  0
 32 33  2  0  0  0  0
 33 34  1  0  0  0  0
 34 35  2  0  0  0  0
 35 36  1  0  0  0  0
 36 37  2  0  0  0  0
 37 32  1  0  0  0  0
 35 38  1  0  0  0  0
 30 39  1  0  0  0  0
 31 39  1  0  0  0  0
 39 40  1  1  0  0  0
 30 41  1  1  0  0  0
M  END
>  <cdx:fragmentId>
5

$$$$
