317160.cdx
  Mrv1902 05222410262D          

 66 73  0  0  0  0            999 V2000
    4.5237  -10.7420    0.0000 O   0  0  0  0  0  0  0  0  0  0  0  0
    3.0007  -10.8145    0.0000 O   0  0  0  0  0  0  0  0  0  0  0  0
    3.7179  -11.2222    0.0000 C   0  0  2  0  0  0  0  0  0  0  0  0
    3.7235  -12.0472    0.0000 C   0  0  1  0  0  0  0  0  0  0  0  0
    3.0118  -12.4645    0.0000 C   0  0  2  0  0  0  0  0  0  0  0  0
    2.2946  -12.0568    0.0000 C   0  0  1  0  0  0  0  0  0  0  0  0
    2.2890  -11.2318    0.0000 C   0  0  0  0  0  0  0  0  0  0  0  0
    4.4407  -12.4548    0.0000 O   0  0  0  0  0  0  0  0  0  0  0  0
    3.7346  -13.6971    0.0000 O   0  0  0  0  0  0  0  0  0  0  0  0
    4.4463  -13.2798    0.0000 C   0  0  2  0  0  0  0  0  0  0  0  0
    5.1635  -13.6875    0.0000 C   0  0  1  0  0  0  0  0  0  0  0  0
    5.1691  -14.5125    0.0000 C   0  0  1  0  0  0  0  0  0  0  0  0
    4.4574  -14.9298    0.0000 C   0  0  2  0  0  0  0  0  0  0  0  0
    3.7402  -14.5221    0.0000 C   0  0  2  0  0  0  0  0  0  0  0  0
    3.0285  -14.9394    0.0000 C   0  0  0  0  0  0  0  0  0  0  0  0
    4.4630  -15.7548    0.0000 O   0  0  0  0  0  0  0  0  0  0  0  0
    5.8863  -14.9202    0.0000 O   0  0  0  0  0  0  0  0  0  0  0  0
    5.8752  -13.2702    0.0000 O   0  0  0  0  0  0  0  0  0  0  0  0
    1.5829  -12.4741    0.0000 O   0  0  0  0  0  0  0  0  0  0  0  0
    3.0174  -13.2895    0.0000 O   0  0  0  0  0  0  0  0  0  0  0  0
    7.3810   -8.2659    0.0000 C   0  0  0  0  0  0  0  0  0  0  0  0
    6.6665   -8.6784    0.0000 C   0  0  0  0  0  0  0  0  0  0  0  0
    6.6665   -9.5034    0.0000 C   0  0  1  0  0  0  0  0  0  0  0  0
    7.3810   -9.9159    0.0000 C   0  0  0  0  0  0  0  0  0  0  0  0
    8.0955   -9.5034    0.0000 C   0  0  2  0  0  0  0  0  0  0  0  0
    8.8099   -9.9159    0.0000 C   0  0  0  0  0  0  0  0  0  0  0  0
    9.5244   -9.5034    0.0000 C   0  0  0  0  0  0  0  0  0  0  0  0
    9.5244   -8.6784    0.0000 C   0  0  1  0  0  0  0  0  0  0  0  0
   10.2389   -8.2659    0.0000 C   0  0  2  0  0  0  0  0  0  0  0  0
   10.9534   -8.6784    0.0000 C   0  0  0  0  0  0  0  0  0  0  0  0
   11.6678   -8.2659    0.0000 C   0  0  0  0  0  0  0  0  0  0  0  0
   11.6678   -7.4409    0.0000 C   0  0  1  0  0  0  0  0  0  0  0  0
   12.3823   -7.0284    0.0000 C   0  0  1  0  0  0  0  0  0  0  0  0
   12.3823   -6.2034    0.0000 C   0  0  0  0  0  0  0  0  0  0  0  0
   11.6678   -5.7909    0.0000 C   0  0  0  0  0  0  0  0  0  0  0  0
   10.9534   -6.2034    0.0000 C   0  0  0  0  0  0  0  0  0  0  0  0
   10.9534   -7.0284    0.0000 C   0  0  1  0  0  0  0  0  0  0  0  0
   10.2389   -7.4409    0.0000 C   0  0  0  0  0  0  0  0  0  0  0  0
    9.5244   -7.0284    0.0000 C   0  0  0  0  0  0  0  0  0  0  0  0
    8.8099   -7.4409    0.0000 C   0  0  0  0  0  0  0  0  0  0  0  0
    8.8099   -8.2659    0.0000 C   0  0  2  0  0  0  0  0  0  0  0  0
    8.0955   -8.6784    0.0000 C   0  0  1  0  0  0  0  0  0  0  0  0
    8.0955   -7.8534    0.0000 C   0  0  0  0  0  0  0  0  0  0  0  0
   11.2553   -5.0765    0.0000 C   0  0  0  0  0  0  0  0  0  0  0  0
   12.0803   -5.0765    0.0000 C   0  0  0  0  0  0  0  0  0  0  0  0
   12.3823   -7.8534    0.0000 C   0  0  0  0  0  0  0  0  0  0  0  0
   10.2389   -9.0909    0.0000 C   0  0  0  0  0  0  0  0  0  0  0  0
    9.5244   -7.8534    0.0000 C   0  0  0  0  0  0  0  0  0  0  0  0
    7.7935  -10.6304    0.0000 C   0  0  0  0  0  0  0  0  0  0  0  0
    6.9685  -10.6304    0.0000 C   0  0  0  0  0  0  0  0  0  0  0  0
   13.0968   -7.4409    0.0000 O   0  0  0  0  0  0  0  0  0  0  0  0
    8.0955  -10.3284    0.0000 H   0  0  0  0  0  0  0  0  0  0  0  0
   10.9534   -7.8534    0.0000 H   0  0  0  0  0  0  0  0  0  0  0  0
    8.8099   -9.0909    0.0000 H   0  0  0  0  0  0  0  0  0  0  0  0
    5.9521   -9.9159    0.0000 O   0  0  0  0  0  0  0  0  0  0  0  0
    3.0929   -8.2681    0.0000 O   0  0  0  0  0  0  0  0  0  0  0  0
    3.0942   -9.9181    0.0000 O   0  0  0  0  0  0  0  0  0  0  0  0
    3.8064   -7.0301    0.0000 O   0  0  0  0  0  0  0  0  0  0  0  0
    5.2354   -7.0290    0.0000 O   0  0  0  0  0  0  0  0  0  0  0  0
    4.5212   -7.4420    0.0000 C   0  0  0  0  0  0  0  0  0  0  0  0
    5.2373   -9.5040    0.0000 C   0  0  1  0  0  0  0  0  0  0  0  0
    4.5231   -9.9170    0.0000 C   0  0  1  0  0  0  0  0  0  0  0  0
    3.8083   -9.5051    0.0000 C   0  0  2  0  0  0  0  0  0  0  0  0
    3.8077   -8.6801    0.0000 C   0  0  1  0  0  0  0  0  0  0  0  0
    4.5219   -8.2670    0.0000 C   0  0  2  0  0  0  0  0  0  0  0  0
    5.2366   -8.6790    0.0000 O   0  0  0  0  0  0  0  0  0  0  0  0
 61 55  1  1  0  0  0
 62  1  1  6  0  0  0
  2  3  1  0  0  0  0
 64 56  1  6  0  0  0
 63 57  1  1  0  0  0
 65 60  1  1  0  0  0
 60 58  1  0  0  0  0
 60 59  2  0  0  0  0
 66 61  1  0  0  0  0
 62 61  1  0  0  0  0
 63 62  1  0  0  0  0
 64 63  1  0  0  0  0
 65 64  1  0  0  0  0
 66 65  1  0  0  0  0
  3  4  1  0  0  0  0
  4  5  1  0  0  0  0
  5  6  1  0  0  0  0
  6  7  1  0  0  0  0
  2  7  1  0  0  0  0
  9 10  1  0  0  0  0
 10 11  1  0  0  0  0
 11 12  1  0  0  0  0
 12 13  1  0  0  0  0
 13 14  1  0  0  0  0
  9 14  1  0  0  0  0
 14 15  1  6  0  0  0
 13 16  1  1  0  0  0
 12 17  1  6  0  0  0
 11 18  1  6  0  0  0
 10  8  1  1  0  0  0
  4  8  1  6  0  0  0
  6 19  1  6  0  0  0
  5 20  1  1  0  0  0
  3  1  1  1  0  0  0
 21 22  1  0  0  0  0
 22 23  1  0  0  0  0
 23 24  1  0  0  0  0
 24 25  1  0  0  0  0
 25 26  1  0  0  0  0
 26 27  1  0  0  0  0
 27 28  1  0  0  0  0
 28 29  1  0  0  0  0
 29 30  1  0  0  0  0
 30 31  1  0  0  0  0
 31 32  1  0  0  0  0
 32 33  1  0  0  0  0
 33 34  1  0  0  0  0
 34 35  1  0  0  0  0
 35 36  1  0  0  0  0
 36 37  1  0  0  0  0
 32 37  1  0  0  0  0
 37 38  1  0  0  0  0
 29 38  1  0  0  0  0
 38 39  2  0  0  0  0
 39 40  1  0  0  0  0
 40 41  1  0  0  0  0
 28 41  1  0  0  0  0
 41 42  1  0  0  0  0
 25 42  1  0  0  0  0
 21 42  1  0  0  0  0
 42 43  1  1  0  0  0
 35 44  1  0  0  0  0
 35 45  1  0  0  0  0
 32 46  1  1  0  0  0
 29 47  1  6  0  0  0
 28 48  1  1  0  0  0
 24 49  1  0  0  0  0
 24 50  1  0  0  0  0
 33 51  1  1  0  0  0
 23 55  1  1  0  0  0
 25 52  1  6  0  0  0
 37 53  1  1  0  0  0
 41 54  1  6  0  0  0
M  END
>  <cdx:groupId>
35452

>  <cdx:fragmentId>
35314

$$$$
