317241.cdx
  Mrv1902 05222410202D          

 38 41  0  0  0  0            999 V2000
    3.7983   -7.5694    0.0000 C   0  0  0  0  0  0  0  0  0  0  0  0
    3.7983   -8.3944    0.0000 C   0  0  2  0  0  0  0  0  0  0  0  0
    4.5127   -8.8069    0.0000 C   0  0  1  0  0  0  0  0  0  0  0  0
    5.2272   -8.3944    0.0000 C   0  0  0  0  0  0  0  0  0  0  0  0
    5.2272   -7.5694    0.0000 C   0  0  2  0  0  0  0  0  0  0  0  0
    4.5127   -7.1569    0.0000 C   0  0  2  0  0  0  0  0  0  0  0  0
    5.9417   -8.8069    0.0000 C   0  0  1  0  0  0  0  0  0  0  0  0
    6.6562   -8.3944    0.0000 C   0  0  0  0  0  0  0  0  0  0  0  0
    6.6562   -7.5694    0.0000 C   0  0  2  0  0  0  0  0  0  0  0  0
    5.9417   -7.1569    0.0000 C   0  0  0  0  0  0  0  0  0  0  0  0
    7.3706   -7.1569    0.0000 C   0  0  0  0  0  0  0  0  0  0  0  0
    7.3706   -6.3319    0.0000 C   0  0  1  0  0  0  0  0  0  0  0  0
    6.6562   -5.9194    0.0000 C   0  0  1  0  0  0  0  0  0  0  0  0
    5.9417   -6.3319    0.0000 C   0  0  1  0  0  0  0  0  0  0  0  0
    4.5127   -6.3319    0.0000 O   0  0  0  0  0  0  0  0  0  0  0  0
    5.2272   -6.7444    0.0000 C   0  0  0  0  0  0  0  0  0  0  0  0
    6.6562   -5.0944    0.0000 O   0  0  0  0  0  0  0  0  0  0  0  0
    8.0851   -5.9194    0.0000 C   0  0  0  0  0  0  0  0  0  0  0  0
    7.3706   -7.9819    0.0000 O   0  0  0  0  0  0  0  0  0  0  0  0
    5.9417   -9.6319    0.0000 O   0  0  0  0  0  0  0  0  0  0  0  0
    4.1002   -9.5213    0.0000 C   0  0  0  0  0  0  0  0  0  0  0  0
    3.0838   -8.8069    0.0000 O   0  0  0  0  0  0  0  0  0  0  0  0
    4.9252   -9.5213    0.0000 C   0  0  0  0  0  0  0  0  0  0  0  0
    5.2272   -5.9194    0.0000 O   0  0  0  0  0  0  0  0  0  0  0  0
    8.0851   -6.7444    0.0000 C   0  0  0  0  0  0  0  0  0  0  0  0
    8.7996   -6.3319    0.0000 C   0  0  0  0  0  0  0  0  0  0  0  0
    4.5127  -10.2358    0.0000 O   0  0  0  0  0  0  0  0  0  0  0  0
    7.3706   -4.6819    0.0000 C   0  0  2  0  0  0  0  0  0  0  0  0
    8.0851   -5.0944    0.0000 O   0  0  0  0  0  0  0  0  0  0  0  0
    8.7996   -4.6819    0.0000 C   0  0  1  0  0  0  0  0  0  0  0  0
    8.7996   -3.8569    0.0000 C   0  0  2  0  0  0  0  0  0  0  0  0
    8.0851   -3.4444    0.0000 C   0  0  1  0  0  0  0  0  0  0  0  0
    7.3706   -3.8569    0.0000 C   0  0  1  0  0  0  0  0  0  0  0  0
    9.5140   -5.0944    0.0000 C   0  0  0  0  0  0  0  0  0  0  0  0
    8.0851   -2.6194    0.0000 O   0  0  0  0  0  0  0  0  0  0  0  0
    9.5140   -3.4444    0.0000 O   0  0  0  0  0  0  0  0  0  0  0  0
    6.6562   -3.4444    0.0000 O   0  0  0  0  0  0  0  0  0  0  0  0
   10.2285   -4.6819    0.0000 O   0  0  0  0  0  0  0  0  0  0  0  0
  1  2  1  0  0  0  0
  2  3  1  0  0  0  0
  3  4  1  0  0  0  0
  4  5  1  0  0  0  0
  5  6  1  0  0  0  0
  6  1  1  0  0  0  0
  4  7  1  0  0  0  0
  7  8  1  0  0  0  0
  8  9  1  0  0  0  0
  9 10  1  0  0  0  0
 10  5  1  0  0  0  0
  9 11  1  0  0  0  0
 11 12  1  0  0  0  0
 12 13  1  0  0  0  0
 13 14  1  0  0  0  0
 14 10  1  0  0  0  0
  6 15  1  1  0  0  0
  5 16  1  1  0  0  0
 13 17  1  1  0  0  0
 12 18  1  1  0  0  0
  9 19  1  1  0  0  0
  7 20  1  1  0  0  0
  3 21  1  1  0  0  0
  2 22  1  6  0  0  0
  3 23  1  6  0  0  0
 14 24  1  6  0  0  0
 12 25  1  6  0  0  0
 25 26  2  0  0  0  0
 21 27  1  0  0  0  0
 28 17  1  1  0  0  0
 28 29  1  0  0  0  0
 29 30  1  0  0  0  0
 30 31  1  0  0  0  0
 31 32  1  0  0  0  0
 32 33  1  0  0  0  0
 33 28  1  0  0  0  0
 30 34  1  1  0  0  0
 32 35  1  1  0  0  0
 31 36  1  6  0  0  0
 33 37  1  6  0  0  0
 34 38  1  0  0  0  0
M  END
>  <cdx:fragmentId>
5

$$$$
