317269.cdx
  Mrv1902 05222410202D          

 18 19  0  0  0  0            999 V2000
    8.1269   -6.7689    0.0000 H   0  0  0  0  0  0  0  0  0  0  0  0
    9.2424   -7.9072    0.0000 C   0  0  0  0  0  0  0  0  0  0  0  0
    8.4318   -6.4700    0.0000 C   0  0  0  0  0  0  0  0  0  0  0  0
    8.8371   -7.1886    0.0000 C   0  0  0  0  0  0  0  0  0  0  0  0
    9.5557   -6.7833    0.0000 O   0  0  0  0  0  0  0  0  0  0  0  0
    7.4083   -7.1742    0.0000 C   0  0  0  0  0  0  0  0  0  0  0  0
    8.1186   -7.5939    0.0000 C   0  0  1  0  0  0  0  0  0  0  0  0
    8.1103   -8.4189    0.0000 C   0  0  0  0  0  0  0  0  0  0  0  0
    7.3917   -8.8242    0.0000 C   0  0  0  0  0  0  0  0  0  0  0  0
    6.6814   -8.4045    0.0000 C   0  0  1  0  0  0  0  0  0  0  0  0
    5.9628   -8.8098    0.0000 C   0  0  0  0  0  0  0  0  0  0  0  0
    5.2525   -8.3901    0.0000 C   0  0  0  0  0  0  0  0  0  0  0  0
    5.2608   -7.5652    0.0000 C   0  0  0  0  0  0  0  0  0  0  0  0
    5.9794   -7.1599    0.0000 C   0  0  0  0  0  0  0  0  0  0  0  0
    6.6897   -7.5795    0.0000 C   0  0  2  0  0  0  0  0  0  0  0  0
    5.9877   -6.3349    0.0000 C   0  0  0  0  0  0  0  0  0  0  0  0
    6.6731   -9.2294    0.0000 C   0  0  0  0  0  0  0  0  0  0  0  0
    6.6980   -6.7546    0.0000 H   0  0  0  0  0  0  0  0  0  0  0  0
  7  1  1  1  0  0  0
  4  2  1  0  0  0  0
  4  3  1  0  0  0  0
  4  5  1  0  0  0  0
  6  7  1  0  0  0  0
  7  8  1  0  0  0  0
  8  9  1  0  0  0  0
  9 10  1  0  0  0  0
 10 11  1  0  0  0  0
 11 12  1  0  0  0  0
 12 13  1  0  0  0  0
 13 14  2  0  0  0  0
 14 15  1  0  0  0  0
  6 15  1  0  0  0  0
 10 15  1  0  0  0  0
 14 16  1  0  0  0  0
 10 17  1  6  0  0  0
  7  4  1  0  0  0  0
 15 18  1  1  0  0  0
M  END
>  <cdx:fragmentId>
13

$$$$
