317235.cdx
  Mrv1902 05222410192D          

 28 33  0  0  0  0            999 V2000
    7.3810   -5.6158    0.0000 C   0  0  0  0  0  0  0  0  0  0  0  0
    8.0912   -5.1961    0.0000 C   0  0  0  0  0  0  0  0  0  0  0  0
    8.8098   -5.6013    0.0000 C   0  0  0  0  0  0  0  0  0  0  0  0
    9.5201   -5.1816    0.0000 C   0  0  0  0  0  0  0  0  0  0  0  0
   10.3073   -5.4285    0.0000 O   0  0  0  0  0  0  0  0  0  0  0  0
   10.7854   -4.7562    0.0000 C   0  0  0  0  0  0  0  0  0  0  0  0
   10.2937   -4.0937    0.0000 O   0  0  0  0  0  0  0  0  0  0  0  0
    9.5117   -4.3566    0.0000 C   0  0  0  0  0  0  0  0  0  0  0  0
    8.7931   -3.9514    0.0000 C   0  0  0  0  0  0  0  0  0  0  0  0
    8.0829   -4.3711    0.0000 C   0  0  0  0  0  0  0  0  0  0  0  0
    7.3642   -3.9659    0.0000 C   0  0  0  0  0  0  0  0  0  0  0  0
    6.6540   -4.3856    0.0000 C   0  0  0  0  0  0  0  0  0  0  0  0
    6.6624   -5.2106    0.0000 C   0  0  0  0  0  0  0  0  0  0  0  0
    5.9521   -5.6303    0.0000 C   0  0  0  0  0  0  0  0  0  0  0  0
    5.2335   -5.2251    0.0000 C   0  0  0  0  0  0  0  0  0  0  0  0
    4.5232   -5.6448    0.0000 C   0  0  0  0  0  0  0  0  0  0  0  0
    4.5316   -6.4697    0.0000 C   0  0  0  0  0  0  0  0  0  0  0  0
    3.9241   -7.0280    0.0000 O   0  0  0  0  0  0  0  0  0  0  0  0
    4.2673   -7.7782    0.0000 C   0  0  0  0  0  0  0  0  0  0  0  0
    5.0869   -7.6836    0.0000 O   0  0  0  0  0  0  0  0  0  0  0  0
    5.2502   -6.8750    0.0000 C   0  0  0  0  0  0  0  0  0  0  0  0
    5.9605   -6.4552    0.0000 C   0  0  0  0  0  0  0  0  0  0  0  0
    6.6791   -6.8605    0.0000 C   0  0  0  0  0  0  0  0  0  0  0  0
    7.3893   -6.4407    0.0000 N   0  0  0  0  0  0  0  0  0  0  0  0
    8.1080   -6.8460    0.0000 C   0  0  0  0  0  0  0  0  0  0  0  0
    7.4145   -8.9156    0.0000 C   0  0  0  0  0  0  0  0  0  0  0  0
    7.4061   -8.0907    0.0000 C   0  0  0  0  0  0  0  0  0  0  0  0
    6.6875   -7.6854    0.0000 O   0  0  0  0  0  0  0  0  0  0  0  0
 28 27  1  0  0  0  0
 27 26  1  0  0  0  0
  1  2  1  0  0  0  0
  2  3  2  0  0  0  0
  3  4  1  0  0  0  0
  4  5  1  0  0  0  0
  5  6  1  0  0  0  0
  6  7  1  0  0  0  0
  7  8  1  0  0  0  0
  8  9  1  0  0  0  0
  9 10  2  0  0  0  0
 10 11  1  0  0  0  0
 11 12  2  0  0  0  0
 12 13  1  0  0  0  0
 13 14  1  0  0  0  0
 14 15  1  0  0  0  0
 15 16  2  0  0  0  0
 16 17  1  0  0  0  0
 17 18  1  0  0  0  0
 18 19  1  0  0  0  0
 19 20  1  0  0  0  0
 20 21  1  0  0  0  0
 21 22  1  0  0  0  0
 22 23  1  0  0  0  0
 23 24  1  0  0  0  0
  1 24  1  0  0  0  0
  1 13  2  0  0  0  0
 14 22  2  0  0  0  0
 17 21  2  0  0  0  0
  2 10  1  0  0  0  0
  4  8  2  0  0  0  0
 24 25  1  0  0  0  0
 23 28  1  0  0  0  0
M  END
>  <cdx:fragmentId>
6430

$$$$
