317357.cdx
  Mrv1902 05222410182D          

 44 48  0  0  0  0            999 V2000
   10.3108   -4.2024    0.0000 O   0  0  0  0  0  0  0  0  0  0  0  0
   11.0263   -5.4393    0.0000 O   0  0  0  0  0  0  0  0  0  0  0  0
   11.0257   -4.6143    0.0000 C   0  0  2  0  0  0  0  0  0  0  0  0
   11.7398   -4.2012    0.0000 C   0  0  1  0  0  0  0  0  0  0  0  0
   12.4546   -4.6131    0.0000 C   0  0  2  0  0  0  0  0  0  0  0  0
   12.4553   -5.4381    0.0000 C   0  0  1  0  0  0  0  0  0  0  0  0
   11.7412   -5.8512    0.0000 C   0  0  1  0  0  0  0  0  0  0  0  0
   11.7418   -6.6762    0.0000 C   0  0  0  0  0  0  0  0  0  0  0  0
   12.4567   -7.0881    0.0000 O   0  0  0  0  0  0  0  0  0  0  0  0
   13.1701   -5.8500    0.0000 O   0  0  0  0  0  0  0  0  0  0  0  0
   13.1687   -4.2000    0.0000 O   0  0  0  0  0  0  0  0  0  0  0  0
   11.7391   -3.3762    0.0000 O   0  0  0  0  0  0  0  0  0  0  0  0
    5.2681   -7.8584    0.0000 O   0  0  0  0  0  0  0  0  0  0  0  0
    3.1480   -5.7720    0.0000 C   0  0  0  0  0  0  0  0  0  0  0  0
    3.8671   -5.3675    0.0000 O   0  0  0  0  0  0  0  0  0  0  0  0
    4.5491   -8.2629    0.0000 O   0  0  0  0  0  0  0  0  0  0  0  0
    3.1110   -9.0718    0.0000 O   0  0  0  0  0  0  0  0  0  0  0  0
    1.6914   -8.2308    0.0000 O   0  0  0  0  0  0  0  0  0  0  0  0
    0.9909   -6.9853    0.0000 O   0  0  0  0  0  0  0  0  0  0  0  0
    1.7099   -6.5809    0.0000 C   0  0  0  0  0  0  0  0  0  0  0  0
    2.4197   -7.0014    0.0000 C   0  0  2  0  0  0  0  0  0  0  0  0
    2.4104   -7.8263    0.0000 C   0  0  2  0  0  0  0  0  0  0  0  0
    3.1202   -8.2468    0.0000 C   0  0  1  0  0  0  0  0  0  0  0  0
    3.8393   -7.8424    0.0000 C   0  0  2  0  0  0  0  0  0  0  0  0
    3.8486   -7.0174    0.0000 C   0  0  1  0  0  0  0  0  0  0  0  0
    3.1388   -6.5969    0.0000 O   0  0  0  0  0  0  0  0  0  0  0  0
    8.1629   -4.5907    0.0000 C   0  0  0  0  0  0  0  0  0  0  0  0
    8.8820   -4.1863    0.0000 C   0  0  0  0  0  0  0  0  0  0  0  0
    9.5918   -4.6068    0.0000 C   0  0  0  0  0  0  0  0  0  0  0  0
    9.5825   -5.4317    0.0000 C   0  0  0  0  0  0  0  0  0  0  0  0
    8.8635   -5.8362    0.0000 C   0  0  0  0  0  0  0  0  0  0  0  0
    8.1537   -5.4157    0.0000 C   0  0  0  0  0  0  0  0  0  0  0  0
    6.6970   -7.8745    0.0000 O   0  0  0  0  0  0  0  0  0  0  0  0
    6.7248   -5.3996    0.0000 O   0  0  0  0  0  0  0  0  0  0  0  0
    6.0058   -5.8041    0.0000 C   0  0  0  0  0  0  0  0  0  0  0  0
    5.2960   -5.3836    0.0000 C   0  0  0  0  0  0  0  0  0  0  0  0
    4.5769   -5.7880    0.0000 C   0  0  0  0  0  0  0  0  0  0  0  0
    4.5676   -6.6130    0.0000 C   0  0  0  0  0  0  0  0  0  0  0  0
    5.2774   -7.0335    0.0000 C   0  0  0  0  0  0  0  0  0  0  0  0
    5.9965   -6.6290    0.0000 C   0  0  0  0  0  0  0  0  0  0  0  0
    6.7063   -7.0495    0.0000 C   0  0  0  0  0  0  0  0  0  0  0  0
    7.4253   -6.6451    0.0000 C   0  0  0  0  0  0  0  0  0  0  0  0
    7.4346   -5.8201    0.0000 C   0  0  0  0  0  0  0  0  0  0  0  0
    3.8578   -6.1925    0.0000 H   0  0  0  0  0  0  0  0  0  0  0  0
 39 13  1  0  0  0  0
 37 15  1  0  0  0  0
 15 14  1  0  0  0  0
 25 38  1  0  0  0  0
 24 16  1  6  0  0  0
 23 17  1  1  0  0  0
 22 18  1  6  0  0  0
 21 20  1  1  0  0  0
 20 19  1  0  0  0  0
 26 21  1  0  0  0  0
 22 21  1  0  0  0  0
 23 22  1  0  0  0  0
 24 23  1  0  0  0  0
 25 24  1  0  0  0  0
 26 25  1  0  0  0  0
 43 32  1  0  0  0  0
 29  1  1  0  0  0  0
 32 27  2  0  0  0  0
 28 27  1  0  0  0  0
 29 28  2  0  0  0  0
 30 29  1  0  0  0  0
 31 30  2  0  0  0  0
 32 31  1  0  0  0  0
 41 33  2  0  0  0  0
 43 34  1  0  0  0  0
 35 34  1  0  0  0  0
 40 35  2  0  0  0  0
 36 35  1  0  0  0  0
 37 36  2  0  0  0  0
 38 37  1  0  0  0  0
 39 38  2  0  0  0  0
 40 39  1  0  0  0  0
 41 40  1  0  0  0  0
 42 41  1  0  0  0  0
 43 42  2  0  0  0  0
  2  3  1  0  0  0  0
  3  4  1  0  0  0  0
  4  5  1  0  0  0  0
  5  6  1  0  0  0  0
  6  7  1  0  0  0  0
  2  7  1  0  0  0  0
  8  9  1  0  0  0  0
  7  8  1  1  0  0  0
  6 10  1  6  0  0  0
  5 11  1  1  0  0  0
  4 12  1  6  0  0  0
  3  1  1  1  0  0  0
 25 44  1  6  0  0  0
M  END
>  <cdx:fragmentId>
41

$$$$
