317369.cdx
  Mrv1902 05222410182D          

 24 28  0  0  0  0            999 V2000
    7.6052   -6.6412    0.0000 C   0  0  0  0  0  0  0  0  0  0  0  0
    8.3197   -6.2287    0.0000 C   0  0  0  0  0  0  0  0  0  0  0  0
    8.4912   -5.4217    0.0000 N   0  0  0  0  0  0  0  0  0  0  0  0
    9.3117   -5.3355    0.0000 C   0  0  0  0  0  0  0  0  0  0  0  0
    9.7966   -4.6680    0.0000 C   0  0  0  0  0  0  0  0  0  0  0  0
   10.6171   -4.7543    0.0000 C   0  0  0  0  0  0  0  0  0  0  0  0
   10.9526   -5.5079    0.0000 C   0  0  0  0  0  0  0  0  0  0  0  0
   10.4677   -6.1754    0.0000 C   0  0  0  0  0  0  0  0  0  0  0  0
    9.6472   -6.0891    0.0000 C   0  0  0  0  0  0  0  0  0  0  0  0
    9.0341   -6.6412    0.0000 C   0  0  0  0  0  0  0  0  0  0  0  0
    9.0341   -7.4662    0.0000 C   0  0  0  0  0  0  0  0  0  0  0  0
    8.3197   -7.8787    0.0000 C   0  0  0  0  0  0  0  0  0  0  0  0
    7.6052   -7.4662    0.0000 N   0  0  0  0  0  0  0  0  0  0  0  0
    6.8907   -7.8787    0.0000 C   0  0  0  0  0  0  0  0  0  0  0  0
    6.1763   -7.4662    0.0000 C   0  0  0  0  0  0  0  0  0  0  0  0
    5.4618   -7.8787    0.0000 C   0  0  0  0  0  0  0  0  0  0  0  0
    4.7473   -7.4662    0.0000 C   0  0  0  0  0  0  0  0  0  0  0  0
    4.7473   -6.6412    0.0000 C   0  0  0  0  0  0  0  0  0  0  0  0
    5.4618   -6.2287    0.0000 C   0  0  0  0  0  0  0  0  0  0  0  0
    6.1763   -6.6412    0.0000 C   0  0  0  0  0  0  0  0  0  0  0  0
    6.8907   -6.2287    0.0000 C   0  0  0  0  0  0  0  0  0  0  0  0
    6.8907   -5.4037    0.0000 C   0  0  0  0  0  0  0  0  0  0  0  0
    6.1763   -4.9912    0.0000 O   0  0  0  0  0  0  0  0  0  0  0  0
    6.8907   -8.7037    0.0000 O   0  0  0  0  0  0  0  0  0  0  0  0
  1  2  1  0  0  0  0
  2  3  1  0  0  0  0
  3  4  1  0  0  0  0
  4  5  2  0  0  0  0
  5  6  1  0  0  0  0
  6  7  2  0  0  0  0
  7  8  1  0  0  0  0
  8  9  2  0  0  0  0
  9 10  1  0  0  0  0
 10 11  1  0  0  0  0
 11 12  1  0  0  0  0
 12 13  1  0  0  0  0
 13 14  1  0  0  0  0
 14 15  1  0  0  0  0
 15 16  2  0  0  0  0
 16 17  1  0  0  0  0
 17 18  2  0  0  0  0
 18 19  1  0  0  0  0
 19 20  2  0  0  0  0
 20 21  1  0  0  0  0
  1 21  1  0  0  0  0
  1 13  1  0  0  0  0
 15 20  1  0  0  0  0
  2 10  1  0  0  0  0
  4  9  1  0  0  0  0
 22 23  2  0  0  0  0
 21 22  1  0  0  0  0
 14 24  2  0  0  0  0
M  END
>  <cdx:fragmentId>
6965

$$$$
