317469.cdx
  Mrv1902 05222410222D          

 10  9  0  0  0  0            999 V2000
    9.2146   -7.0455    0.0000 C   0  0  0  0  0  0  0  0  0  0  0  0
    8.5001   -7.4580    0.0000 C   0  0  0  0  0  0  0  0  0  0  0  0
    7.7857   -7.0455    0.0000 C   0  0  0  0  0  0  0  0  0  0  0  0
    7.7857   -6.2205    0.0000 C   0  0  0  0  0  0  0  0  0  0  0  0
    7.0712   -5.8080    0.0000 C   0  0  0  0  0  0  0  0  0  0  0  0
    6.3567   -6.2205    0.0000 C   0  0  0  0  0  0  0  0  0  0  0  0
    5.6423   -5.8080    0.0000 C   0  0  0  0  0  0  0  0  0  0  0  0
    5.6423   -4.9830    0.0000 C   0  0  0  0  0  0  0  0  0  0  0  0
    6.3567   -7.0455    0.0000 C   0  0  0  0  0  0  0  0  0  0  0  0
    8.5001   -8.2830    0.0000 C   0  0  0  0  0  0  0  0  0  0  0  0
  1  2  1  0  0  0  0
  2  3  2  0  0  0  0
  3  4  1  0  0  0  0
  4  5  2  0  0  0  0
  5  6  1  0  0  0  0
  6  7  2  0  0  0  0
  7  8  1  0  0  0  0
  6  9  1  0  0  0  0
  2 10  1  0  0  0  0
M  END
>  <cdx:fragmentId>
5

$$$$
