317480.cdx
  Mrv1902 05222410232D          

 25 27  0  0  0  0            999 V2000
    7.7135   -7.2716    0.0000 C   0  0  0  0  0  0  0  0  0  0  0  0
    7.7135   -8.0966    0.0000 C   0  0  0  0  0  0  0  0  0  0  0  0
    6.9990   -8.5091    0.0000 C   0  0  0  0  0  0  0  0  0  0  0  0
    6.9990   -9.3341    0.0000 O   0  0  0  0  0  0  0  0  0  0  0  0
    6.2846   -8.0966    0.0000 C   0  0  0  0  0  0  0  0  0  0  0  0
    5.5700   -8.5091    0.0000 C   0  0  0  0  0  0  0  0  0  0  0  0
    5.5700   -9.3341    0.0000 O   0  0  0  0  0  0  0  0  0  0  0  0
    4.8556   -8.0966    0.0000 C   0  0  0  0  0  0  0  0  0  0  0  0
    4.8556   -7.2716    0.0000 C   0  0  0  0  0  0  0  0  0  0  0  0
    4.1411   -6.8591    0.0000 O   0  0  0  0  0  0  0  0  0  0  0  0
    5.5700   -6.8591    0.0000 C   0  0  0  0  0  0  0  0  0  0  0  0
    6.2846   -7.2716    0.0000 C   0  0  0  0  0  0  0  0  0  0  0  0
    6.9990   -6.8591    0.0000 O   0  0  0  0  0  0  0  0  0  0  0  0
    8.4280   -8.5091    0.0000 C   0  0  0  0  0  0  0  0  0  0  0  0
    9.1424   -8.0966    0.0000 C   0  0  0  0  0  0  0  0  0  0  0  0
    9.8569   -8.5091    0.0000 C   0  0  0  0  0  0  0  0  0  0  0  0
    9.8569   -9.3341    0.0000 C   0  0  0  0  0  0  0  0  0  0  0  0
   10.5714   -9.7466    0.0000 O   0  0  0  0  0  0  0  0  0  0  0  0
    9.1424   -9.7466    0.0000 C   0  0  0  0  0  0  0  0  0  0  0  0
    8.4280   -9.3341    0.0000 C   0  0  0  0  0  0  0  0  0  0  0  0
    5.5700   -6.0341    0.0000 C   0  0  0  0  0  0  0  0  0  0  0  0
    4.8556   -5.6216    0.0000 C   0  0  0  0  0  0  0  0  0  0  0  0
    4.8556   -4.7967    0.0000 C   0  0  0  0  0  0  0  0  0  0  0  0
    4.1411   -4.3841    0.0000 C   0  0  0  0  0  0  0  0  0  0  0  0
    5.5700   -4.3841    0.0000 C   0  0  0  0  0  0  0  0  0  0  0  0
  1  2  2  0  0  0  0
  2  3  1  0  0  0  0
  3  4  2  0  0  0  0
  3  5  1  0  0  0  0
  5  6  1  0  0  0  0
  6  7  1  0  0  0  0
  6  8  2  0  0  0  0
  8  9  1  0  0  0  0
  9 10  1  0  0  0  0
  9 11  2  0  0  0  0
 11 12  1  0  0  0  0
  5 12  2  0  0  0  0
 12 13  1  0  0  0  0
  1 13  1  0  0  0  0
  2 14  1  0  0  0  0
 14 15  1  0  0  0  0
 15 16  2  0  0  0  0
 16 17  1  0  0  0  0
 17 18  1  0  0  0  0
 17 19  2  0  0  0  0
 19 20  1  0  0  0  0
 14 20  2  0  0  0  0
 21 22  1  0  0  0  0
 22 23  2  0  0  0  0
 23 24  1  0  0  0  0
 23 25  1  0  0  0  0
 11 21  1  0  0  0  0
M  END
>  <cdx:fragmentId>
7210

$$$$
