5317481.cdx
  Mrv1902 05222410222D          

 28 30  0  0  0  0            999 V2000
    7.3405   -8.7478    0.0000 C   0  0  0  0  0  0  0  0  0  0  0  0
    7.3405   -7.9228    0.0000 C   0  0  0  0  0  0  0  0  0  0  0  0
    6.6261   -7.5103    0.0000 C   0  0  0  0  0  0  0  0  0  0  0  0
    5.9116   -7.9228    0.0000 C   0  0  0  0  0  0  0  0  0  0  0  0
    5.1971   -7.5103    0.0000 C   0  0  0  0  0  0  0  0  0  0  0  0
    4.4827   -7.9228    0.0000 C   0  0  0  0  0  0  0  0  0  0  0  0
    4.4827   -8.7478    0.0000 C   0  0  0  0  0  0  0  0  0  0  0  0
    5.1971   -9.1603    0.0000 C   0  0  0  0  0  0  0  0  0  0  0  0
    5.9116   -8.7478    0.0000 C   0  0  0  0  0  0  0  0  0  0  0  0
    6.6261   -9.1603    0.0000 O   0  0  0  0  0  0  0  0  0  0  0  0
    6.6261   -6.6853    0.0000 O   0  0  0  0  0  0  0  0  0  0  0  0
    5.1971   -9.9853    0.0000 C   0  0  0  0  0  0  0  0  0  0  0  0
    4.4827  -10.3978    0.0000 C   0  0  0  0  0  0  0  0  0  0  0  0
    4.4827  -11.2228    0.0000 C   0  0  0  0  0  0  0  0  0  0  0  0
    3.7682  -11.6353    0.0000 C   0  0  0  0  0  0  0  0  0  0  0  0
    5.1971  -11.6353    0.0000 C   0  0  0  0  0  0  0  0  0  0  0  0
    3.7682  -12.4603    0.0000 O   0  0  0  0  0  0  0  0  0  0  0  0
    8.0550   -7.5103    0.0000 C   0  0  0  0  0  0  0  0  0  0  0  0
    8.7695   -7.9228    0.0000 C   0  0  0  0  0  0  0  0  0  0  0  0
    9.4840   -7.5103    0.0000 C   0  0  0  0  0  0  0  0  0  0  0  0
    9.4840   -6.6853    0.0000 C   0  0  0  0  0  0  0  0  0  0  0  0
    8.7695   -6.2728    0.0000 C   0  0  0  0  0  0  0  0  0  0  0  0
    8.0550   -6.6853    0.0000 C   0  0  0  0  0  0  0  0  0  0  0  0
   10.1984   -6.2728    0.0000 O   0  0  0  0  0  0  0  0  0  0  0  0
   10.9129   -6.6853    0.0000 C   0  0  0  0  0  0  0  0  0  0  0  0
   10.1984   -7.9228    0.0000 O   0  0  0  0  0  0  0  0  0  0  0  0
    3.7682   -9.1603    0.0000 O   0  0  0  0  0  0  0  0  0  0  0  0
    5.1971   -6.6853    0.0000 O   0  0  0  0  0  0  0  0  0  0  0  0
  1  2  2  0  0  0  0
  2  3  1  0  0  0  0
  3  4  1  0  0  0  0
  4  5  1  0  0  0  0
  5  6  2  0  0  0  0
  6  7  1  0  0  0  0
  7  8  2  0  0  0  0
  8  9  1  0  0  0  0
  4  9  2  0  0  0  0
  9 10  1  0  0  0  0
  1 10  1  0  0  0  0
  3 11  2  0  0  0  0
 12 13  1  0  0  0  0
 13 14  2  0  0  0  0
 14 15  1  0  0  0  0
 14 16  1  0  0  0  0
 15 17  1  0  0  0  0
  8 12  1  0  0  0  0
 18 19  1  0  0  0  0
 19 20  2  0  0  0  0
 20 21  1  0  0  0  0
 21 22  2  0  0  0  0
 22 23  1  0  0  0  0
 18 23  2  0  0  0  0
 24 25  1  0  0  0  0
 21 24  1  0  0  0  0
 20 26  1  0  0  0  0
  2 18  1  0  0  0  0
  7 27  1  0  0  0  0
  5 28  1  0  0  0  0
M  END
>  <cdx:fragmentId>
7275

$$$$
