317436.cdx
  Mrv1902 05222410192D          

 20 22  0  0  0  0            999 V2000
    5.7954   -8.9160    0.0000 C   0  0  0  0  0  0  0  0  0  0  0  0
    5.7954   -9.7410    0.0000 C   0  0  0  0  0  0  0  0  0  0  0  0
    6.5099  -10.1535    0.0000 C   0  0  0  0  0  0  0  0  0  0  0  0
    7.2243   -9.7410    0.0000 C   0  0  0  0  0  0  0  0  0  0  0  0
    7.9388  -10.1535    0.0000 C   0  0  0  0  0  0  0  0  0  0  0  0
    8.6533   -9.7410    0.0000 C   0  0  0  0  0  0  0  0  0  0  0  0
    8.6533   -8.9160    0.0000 C   0  0  0  0  0  0  0  0  0  0  0  0
    7.9388   -8.5035    0.0000 C   0  0  0  0  0  0  0  0  0  0  0  0
    7.2243   -8.9160    0.0000 C   0  0  0  0  0  0  0  0  0  0  0  0
    6.5099   -8.5035    0.0000 O   0  0  0  0  0  0  0  0  0  0  0  0
    9.4379   -8.6610    0.0000 O   0  0  0  0  0  0  0  0  0  0  0  0
    9.4379   -9.9959    0.0000 C   0  0  0  0  0  0  0  0  0  0  0  0
    9.9228   -9.3285    0.0000 C   0  0  0  0  0  0  0  0  0  0  0  0
    5.0809   -8.5035    0.0000 O   0  0  0  0  0  0  0  0  0  0  0  0
    7.9388   -7.6785    0.0000 C   0  0  0  0  0  0  0  0  0  0  0  0
    8.6533   -7.2660    0.0000 C   0  0  0  0  0  0  0  0  0  0  0  0
    8.6533   -6.4410    0.0000 C   0  0  0  0  0  0  0  0  0  0  0  0
    7.9388   -6.0285    0.0000 C   0  0  0  0  0  0  0  0  0  0  0  0
    9.3678   -6.0285    0.0000 C   0  0  0  0  0  0  0  0  0  0  0  0
    7.9388  -10.9785    0.0000 O   0  0  0  0  0  0  0  0  0  0  0  0
  1  2  1  0  0  0  0
  2  3  2  0  0  0  0
  3  4  1  0  0  0  0
  4  5  2  0  0  0  0
  5  6  1  0  0  0  0
  6  7  2  0  0  0  0
  7  8  1  0  0  0  0
  8  9  2  0  0  0  0
  4  9  1  0  0  0  0
  9 10  1  0  0  0  0
  1 10  1  0  0  0  0
 12 13  2  0  0  0  0
 11 13  1  0  0  0  0
 12  6  1  0  0  0  0
 11  7  1  0  0  0  0
  1 14  2  0  0  0  0
 15 16  1  0  0  0  0
 16 17  2  0  0  0  0
 17 18  1  0  0  0  0
 17 19  1  0  0  0  0
  8 15  1  0  0  0  0
  5 20  1  0  0  0  0
M  END
>  <cdx:fragmentId>
5

$$$$
