5317482.cdx
  Mrv1902 05222410222D          

 27 31  0  0  0  0            999 V2000
    6.9382   -6.7942    0.0000 C   0  0  0  0  0  0  0  0  0  0  0  0
    7.6527   -6.3817    0.0000 C   0  0  0  0  0  0  0  0  0  0  0  0
    7.8242   -5.5748    0.0000 O   0  0  0  0  0  0  0  0  0  0  0  0
    8.6447   -5.4885    0.0000 C   0  0  0  0  0  0  0  0  0  0  0  0
    9.1296   -4.8211    0.0000 C   0  0  0  0  0  0  0  0  0  0  0  0
    9.9501   -4.9073    0.0000 C   0  0  0  0  0  0  0  0  0  0  0  0
   10.2856   -5.6610    0.0000 C   0  0  0  0  0  0  0  0  0  0  0  0
    9.8007   -6.3285    0.0000 C   0  0  0  0  0  0  0  0  0  0  0  0
    8.9802   -6.2422    0.0000 C   0  0  0  0  0  0  0  0  0  0  0  0
    8.3671   -6.7942    0.0000 C   0  0  0  0  0  0  0  0  0  0  0  0
    8.3671   -7.6192    0.0000 C   0  0  0  0  0  0  0  0  0  0  0  0
    7.6527   -8.0317    0.0000 O   0  0  0  0  0  0  0  0  0  0  0  0
    6.9382   -7.6192    0.0000 C   0  0  0  0  0  0  0  0  0  0  0  0
    6.2237   -8.0317    0.0000 C   0  0  0  0  0  0  0  0  0  0  0  0
    5.5093   -7.6192    0.0000 C   0  0  0  0  0  0  0  0  0  0  0  0
    4.7948   -8.0317    0.0000 O   0  0  0  0  0  0  0  0  0  0  0  0
    4.0803   -7.6192    0.0000 C   0  0  0  0  0  0  0  0  0  0  0  0
    4.0803   -6.7942    0.0000 C   0  0  0  0  0  0  0  0  0  0  0  0
    4.7948   -6.3817    0.0000 C   0  0  0  0  0  0  0  0  0  0  0  0
    5.5093   -6.7942    0.0000 C   0  0  0  0  0  0  0  0  0  0  0  0
    6.2237   -6.3817    0.0000 C   0  0  0  0  0  0  0  0  0  0  0  0
    9.0816   -8.0317    0.0000 O   0  0  0  0  0  0  0  0  0  0  0  0
    3.6678   -8.3337    0.0000 C   0  0  0  0  0  0  0  0  0  0  0  0
    3.2553   -7.6192    0.0000 C   0  0  0  0  0  0  0  0  0  0  0  0
    6.2237   -5.5567    0.0000 O   0  0  0  0  0  0  0  0  0  0  0  0
    5.5093   -5.1442    0.0000 C   0  0  0  0  0  0  0  0  0  0  0  0
   10.4350   -4.2399    0.0000 O   0  0  0  0  0  0  0  0  0  0  0  0
  1  2  1  0  0  0  0
  2  3  1  0  0  0  0
  3  4  1  0  0  0  0
  4  5  1  0  0  0  0
  5  6  2  0  0  0  0
  6  7  1  0  0  0  0
  7  8  2  0  0  0  0
  8  9  1  0  0  0  0
  9 10  1  0  0  0  0
 10 11  1  0  0  0  0
 11 12  1  0  0  0  0
 12 13  1  0  0  0  0
 13 14  2  0  0  0  0
 14 15  1  0  0  0  0
 15 16  1  0  0  0  0
 16 17  1  0  0  0  0
 17 18  1  0  0  0  0
 18 19  2  0  0  0  0
 19 20  1  0  0  0  0
 20 21  1  0  0  0  0
  1 21  2  0  0  0  0
  1 13  1  0  0  0  0
 15 20  2  0  0  0  0
  2 10  2  0  0  0  0
  4  9  2  0  0  0  0
 11 22  2  0  0  0  0
 17 23  1  0  0  0  0
 17 24  1  0  0  0  0
 25 26  1  0  0  0  0
 21 25  1  0  0  0  0
  6 27  1  0  0  0  0
M  END
>  <cdx:fragmentId>
7369

$$$$
