317478.cdx
  Mrv1902 05222410212D          

 26 28  0  0  0  0            999 V2000
    8.2905   -5.8328    0.0000 C   0  0  0  0  0  0  0  0  0  0  0  0
    8.2905   -6.6578    0.0000 C   0  0  0  0  0  0  0  0  0  0  0  0
    7.5760   -7.0703    0.0000 C   0  0  0  0  0  0  0  0  0  0  0  0
    6.8615   -6.6578    0.0000 C   0  0  0  0  0  0  0  0  0  0  0  0
    6.1470   -7.0703    0.0000 C   0  0  0  0  0  0  0  0  0  0  0  0
    5.4326   -6.6578    0.0000 C   0  0  0  0  0  0  0  0  0  0  0  0
    5.4326   -5.8328    0.0000 C   0  0  0  0  0  0  0  0  0  0  0  0
    6.1470   -5.4203    0.0000 C   0  0  0  0  0  0  0  0  0  0  0  0
    6.8615   -5.8328    0.0000 C   0  0  0  0  0  0  0  0  0  0  0  0
    7.5760   -5.4203    0.0000 O   0  0  0  0  0  0  0  0  0  0  0  0
    7.5760   -7.8953    0.0000 O   0  0  0  0  0  0  0  0  0  0  0  0
    4.7181   -7.0703    0.0000 C   0  0  0  0  0  0  0  0  0  0  0  0
    4.0036   -6.6578    0.0000 C   0  0  0  0  0  0  0  0  0  0  0  0
    3.2892   -7.0703    0.0000 C   0  0  0  0  0  0  0  0  0  0  0  0
    3.2892   -7.8953    0.0000 C   0  0  0  0  0  0  0  0  0  0  0  0
    2.5747   -6.6578    0.0000 C   0  0  0  0  0  0  0  0  0  0  0  0
    9.0049   -7.0703    0.0000 C   0  0  0  0  0  0  0  0  0  0  0  0
    9.0049   -7.8953    0.0000 C   0  0  0  0  0  0  0  0  0  0  0  0
    9.7194   -8.3078    0.0000 C   0  0  0  0  0  0  0  0  0  0  0  0
   10.4339   -7.8953    0.0000 C   0  0  0  0  0  0  0  0  0  0  0  0
   10.4339   -7.0703    0.0000 C   0  0  0  0  0  0  0  0  0  0  0  0
    9.7194   -6.6578    0.0000 C   0  0  0  0  0  0  0  0  0  0  0  0
   11.1483   -8.3078    0.0000 O   0  0  0  0  0  0  0  0  0  0  0  0
   11.8628   -7.8953    0.0000 C   0  0  0  0  0  0  0  0  0  0  0  0
    4.7181   -5.4203    0.0000 O   0  0  0  0  0  0  0  0  0  0  0  0
    6.1470   -7.8953    0.0000 O   0  0  0  0  0  0  0  0  0  0  0  0
  1  2  2  0  0  0  0
  2  3  1  0  0  0  0
  3  4  1  0  0  0  0
  4  5  1  0  0  0  0
  5  6  2  0  0  0  0
  6  7  1  0  0  0  0
  7  8  2  0  0  0  0
  8  9  1  0  0  0  0
  4  9  2  0  0  0  0
  9 10  1  0  0  0  0
  1 10  1  0  0  0  0
  3 11  2  0  0  0  0
 12 13  1  0  0  0  0
 13 14  2  0  0  0  0
 14 15  1  0  0  0  0
 14 16  1  0  0  0  0
  6 12  1  0  0  0  0
 17 18  1  0  0  0  0
 18 19  2  0  0  0  0
 19 20  1  0  0  0  0
 20 21  2  0  0  0  0
 21 22  1  0  0  0  0
 17 22  2  0  0  0  0
 23 24  1  0  0  0  0
 20 23  1  0  0  0  0
  2 17  1  0  0  0  0
  7 25  1  0  0  0  0
  5 26  1  0  0  0  0
M  END
>  <cdx:groupId>
7200

>  <cdx:fragmentId>
7123

$$$$
