317564.cdx
  Mrv1902 05222410262D          

 25 27  0  0  0  0            999 V2000
    4.7450  -10.9233    0.0000 C   0  0  0  0  0  0  0  0  0  0  0  0
    4.7450  -11.7483    0.0000 C   0  0  0  0  0  0  0  0  0  0  0  0
    5.4595  -12.1608    0.0000 C   0  0  0  0  0  0  0  0  0  0  0  0
    6.1740  -11.7483    0.0000 C   0  0  0  0  0  0  0  0  0  0  0  0
    6.8885  -12.1608    0.0000 C   0  0  0  0  0  0  0  0  0  0  0  0
    7.6029  -11.7483    0.0000 C   0  0  0  0  0  0  0  0  0  0  0  0
    7.6029  -10.9233    0.0000 C   0  0  0  0  0  0  0  0  0  0  0  0
    6.8885  -10.5108    0.0000 C   0  0  0  0  0  0  0  0  0  0  0  0
    6.1740  -10.9233    0.0000 C   0  0  0  0  0  0  0  0  0  0  0  0
    5.4595  -10.5108    0.0000 O   0  0  0  0  0  0  0  0  0  0  0  0
    8.3875  -10.6684    0.0000 O   0  0  0  0  0  0  0  0  0  0  0  0
    8.3875  -12.0033    0.0000 C   0  0  0  0  0  0  0  0  0  0  0  0
    8.8725  -11.3358    0.0000 C   0  0  0  0  0  0  0  0  0  0  0  0
    4.0306  -10.5108    0.0000 O   0  0  0  0  0  0  0  0  0  0  0  0
    6.8885   -9.6858    0.0000 O   0  0  0  0  0  0  0  0  0  0  0  0
    7.6029   -9.2733    0.0000 C   0  0  0  0  0  0  0  0  0  0  0  0
    7.6029   -8.4483    0.0000 C   0  0  0  0  0  0  0  0  0  0  0  0
    8.3174   -8.0358    0.0000 C   0  0  0  0  0  0  0  0  0  0  0  0
    8.3174   -7.2108    0.0000 C   0  0  0  0  0  0  0  0  0  0  0  0
    9.0319   -6.7983    0.0000 C   0  0  0  0  0  0  0  0  0  0  0  0
    9.0319   -5.9733    0.0000 C   0  0  0  0  0  0  0  0  0  0  0  0
    9.7463   -5.5608    0.0000 C   0  0  0  0  0  0  0  0  0  0  0  0
    9.7463   -4.7358    0.0000 C   0  0  0  0  0  0  0  0  0  0  0  0
   10.4608   -5.9733    0.0000 C   0  0  0  0  0  0  0  0  0  0  0  0
    9.0319   -8.4483    0.0000 C   0  0  0  0  0  0  0  0  0  0  0  0
  1  2  1  0  0  0  0
  2  3  2  0  0  0  0
  3  4  1  0  0  0  0
  4  5  2  0  0  0  0
  5  6  1  0  0  0  0
  6  7  2  0  0  0  0
  7  8  1  0  0  0  0
  8  9  2  0  0  0  0
  4  9  1  0  0  0  0
  9 10  1  0  0  0  0
  1 10  1  0  0  0  0
 12 13  2  0  0  0  0
 11 13  1  0  0  0  0
 12  6  1  0  0  0  0
 11  7  1  0  0  0  0
  1 14  2  0  0  0  0
 16 17  1  0  0  0  0
 17 18  2  0  0  0  0
 18 19  1  0  0  0  0
 19 20  1  0  0  0  0
 20 21  1  0  0  0  0
 21 22  2  0  0  0  0
 22 23  1  0  0  0  0
 15 16  1  0  0  0  0
 22 24  1  0  0  0  0
 18 25  1  0  0  0  0
  8 15  1  0  0  0  0
M  END
>  <cdx:fragmentId>
5

$$$$
