5317634.cdx
  Mrv1902 05222410192D          

 20 19  0  0  0  0            999 V2000
   21.1845   -7.4178    0.0000 C   0  0  0  0  0  0  0  0  0  0  0  0
   20.4701   -7.8303    0.0000 C   0  0  0  0  0  0  0  0  0  0  0  0
   19.7556   -7.4178    0.0000 C   0  0  0  0  0  0  0  0  0  0  0  0
   19.0411   -7.8303    0.0000 C   0  0  0  0  0  0  0  0  0  0  0  0
   18.3266   -8.2428    0.0000 C   0  0  0  0  0  0  0  0  0  0  0  0
   17.6122   -8.6553    0.0000 C   0  0  0  0  0  0  0  0  0  0  0  0
   16.8977   -9.0678    0.0000 C   0  0  0  0  0  0  0  0  0  0  0  0
   16.1832   -9.4803    0.0000 C   0  0  0  0  0  0  0  0  0  0  0  0
   15.4688   -9.0678    0.0000 C   0  0  0  0  0  0  0  0  0  0  0  0
   14.7543   -9.4803    0.0000 C   0  0  0  0  0  0  0  0  0  0  0  0
   14.0398   -9.0678    0.0000 C   0  0  0  0  0  0  0  0  0  0  0  0
   13.3253   -9.4803    0.0000 C   0  0  0  0  0  0  0  0  0  0  0  0
   12.6109   -9.0678    0.0000 C   0  0  0  0  0  0  0  0  0  0  0  0
   11.8964   -9.4803    0.0000 C   0  0  0  0  0  0  0  0  0  0  0  0
   11.1819   -9.0678    0.0000 C   0  0  0  0  0  0  0  0  0  0  0  0
   10.4675   -9.4803    0.0000 C   0  0  0  0  0  0  0  0  0  0  0  0
    9.7530   -9.0678    0.0000 C   0  0  0  0  0  0  0  0  0  0  0  0
   19.7556   -6.5928    0.0000 O   0  0  0  0  0  0  0  0  0  0  0  0
   15.4688   -8.2428    0.0000 O   0  0  0  0  0  0  0  0  0  0  0  0
   14.7543  -10.3053    0.0000 O   0  0  0  0  0  0  0  0  0  0  0  0
  1  2  2  0  0  0  0
  2  3  1  0  0  0  0
  3  4  1  0  0  0  0
  4  5  3  0  0  0  0
  5  6  1  0  0  0  0
  6  7  3  0  0  0  0
  7  8  1  0  0  0  0
  8  9  1  0  0  0  0
  9 10  1  0  0  0  0
 10 11  1  0  0  0  0
 11 12  1  0  0  0  0
 12 13  1  0  0  0  0
 13 14  1  0  0  0  0
 14 15  1  0  0  0  0
 15 16  1  0  0  0  0
 16 17  2  0  0  0  0
  3 18  1  0  0  0  0
  9 19  1  0  0  0  0
 10 20  1  0  0  0  0
M  END
>  <cdx:groupId>
7974

>  <cdx:fragmentId>
7918

$$$$
