5317635.cdx
  Mrv1902 05222410202D          

 19 19  0  0  0  0            999 V2000
   21.2398   -7.9350    0.0000 C   0  0  0  0  0  0  0  0  0  0  0  0
   20.5253   -8.3475    0.0000 C   0  0  0  0  0  0  0  0  0  0  0  0
   19.8108   -7.9350    0.0000 C   0  0  0  0  0  0  0  0  0  0  0  0
   19.0964   -8.3475    0.0000 C   0  0  0  0  0  0  0  0  0  0  0  0
   18.3819   -8.7600    0.0000 C   0  0  0  0  0  0  0  0  0  0  0  0
   17.6674   -9.1725    0.0000 C   0  0  0  0  0  0  0  0  0  0  0  0
   16.9530   -9.5850    0.0000 C   0  0  0  0  0  0  0  0  0  0  0  0
   16.2385   -9.9975    0.0000 C   0  0  0  0  0  0  0  0  0  0  0  0
   19.8108   -7.1100    0.0000 O   0  0  0  0  0  0  0  0  0  0  0  0
   15.1115   -8.8705    0.0000 O   0  0  0  0  0  0  0  0  0  0  0  0
   15.5240   -9.5850    0.0000 C   0  0  0  0  0  0  0  0  0  0  0  0
   14.6990   -9.5850    0.0000 C   0  0  0  0  0  0  0  0  0  0  0  0
   13.9845   -9.9975    0.0000 C   0  0  0  0  0  0  0  0  0  0  0  0
   13.2701   -9.5850    0.0000 C   0  0  0  0  0  0  0  0  0  0  0  0
   12.5556   -9.9975    0.0000 C   0  0  0  0  0  0  0  0  0  0  0  0
   11.8411   -9.5850    0.0000 C   0  0  0  0  0  0  0  0  0  0  0  0
   11.1267   -9.9975    0.0000 C   0  0  0  0  0  0  0  0  0  0  0  0
   10.4122   -9.5850    0.0000 C   0  0  0  0  0  0  0  0  0  0  0  0
    9.6977   -9.9975    0.0000 C   0  0  0  0  0  0  0  0  0  0  0  0
  1  2  1  0  0  0  0
  2  3  1  0  0  0  0
  3  4  1  0  0  0  0
  4  5  3  0  0  0  0
  5  6  1  0  0  0  0
  6  7  3  0  0  0  0
  7  8  1  0  0  0  0
  3  9  1  0  0  0  0
 10 11  1  0  0  0  0
 11 12  1  0  0  0  0
 10 12  1  0  0  0  0
 13 14  1  0  0  0  0
 14 15  1  0  0  0  0
 15 16  1  0  0  0  0
 16 17  1  0  0  0  0
 17 18  1  0  0  0  0
 18 19  1  0  0  0  0
 12 13  1  0  0  0  0
  8 11  1  0  0  0  0
M  END
>  <cdx:groupId>
8038

>  <cdx:fragmentId>
8008

$$$$
