5317632.cdx
  Mrv1902 05222410182D          

 19 19  0  0  0  0            999 V2000
   19.8108   -7.1819    0.0000 O   0  0  0  0  0  0  0  0  0  0  0  0
   19.8108   -8.0069    0.0000 C   0  0  0  0  0  0  0  0  0  0  0  0
   20.5252   -8.4194    0.0000 C   0  0  0  0  0  0  0  0  0  0  0  0
   21.2397   -8.0069    0.0000 C   0  0  0  0  0  0  0  0  0  0  0  0
   19.0963   -8.4194    0.0000 C   0  0  0  0  0  0  0  0  0  0  0  0
   18.3818   -8.8319    0.0000 C   0  0  0  0  0  0  0  0  0  0  0  0
   17.6674   -9.2443    0.0000 C   0  0  0  0  0  0  0  0  0  0  0  0
   16.9529   -9.6568    0.0000 C   0  0  0  0  0  0  0  0  0  0  0  0
   16.2385  -10.0693    0.0000 C   0  0  0  0  0  0  0  0  0  0  0  0
   15.5240   -9.6568    0.0000 C   0  0  0  0  0  0  0  0  0  0  0  0
   15.1115   -8.9424    0.0000 O   0  0  0  0  0  0  0  0  0  0  0  0
   14.6990   -9.6568    0.0000 C   0  0  0  0  0  0  0  0  0  0  0  0
   13.9846  -10.0693    0.0000 C   0  0  0  0  0  0  0  0  0  0  0  0
   13.2701   -9.6568    0.0000 C   0  0  0  0  0  0  0  0  0  0  0  0
   12.5557  -10.0693    0.0000 C   0  0  0  0  0  0  0  0  0  0  0  0
   11.8412   -9.6568    0.0000 C   0  0  0  0  0  0  0  0  0  0  0  0
   11.1268  -10.0693    0.0000 C   0  0  0  0  0  0  0  0  0  0  0  0
   10.4123   -9.6568    0.0000 C   0  0  0  0  0  0  0  0  0  0  0  0
    9.6979  -10.0693    0.0000 C   0  0  0  0  0  0  0  0  0  0  0  0
  1  2  1  0  0  0  0
  2  3  1  0  0  0  0
  3  4  2  0  0  0  0
  2  5  1  0  0  0  0
  5  6  3  0  0  0  0
  6  7  1  0  0  0  0
  7  8  3  0  0  0  0
  8  9  1  0  0  0  0
  9 10  1  0  0  0  0
 10 11  1  0  0  0  0
 11 12  1  0  0  0  0
 10 12  1  0  0  0  0
 12 13  1  0  0  0  0
 13 14  1  0  0  0  0
 14 15  1  0  0  0  0
 15 16  1  0  0  0  0
 16 17  1  0  0  0  0
 17 18  1  0  0  0  0
 18 19  2  0  0  0  0
M  END
>  <cdx:fragmentId>
7803

$$$$
