317652.cdx
  Mrv1902 05222410212D          

 99109  0  0  0  0            999 V2000
    9.3230   -9.8450    0.0000 C   0  0  2  0  0  0  0  0  0  0  0  0
    9.3230  -10.6700    0.0000 C   0  0  1  0  0  0  0  0  0  0  0  0
   10.0375  -11.0825    0.0000 C   0  0  0  0  0  0  0  0  0  0  0  0
   10.7520  -10.6700    0.0000 C   0  0  1  0  0  0  0  0  0  0  0  0
   10.7520   -9.8450    0.0000 C   0  0  2  0  0  0  0  0  0  0  0  0
   10.0375   -9.4325    0.0000 C   0  0  0  0  0  0  0  0  0  0  0  0
   11.4664  -11.0825    0.0000 C   0  0  0  0  0  0  0  0  0  0  0  0
   12.1809  -10.6700    0.0000 C   0  0  0  0  0  0  0  0  0  0  0  0
   12.1809   -9.8450    0.0000 C   0  0  2  0  0  0  0  0  0  0  0  0
   11.4664   -9.4325    0.0000 C   0  0  2  0  0  0  0  0  0  0  0  0
   12.8954   -9.4325    0.0000 C   0  0  1  0  0  0  0  0  0  0  0  0
   12.8954   -8.6075    0.0000 C   0  0  0  0  0  0  0  0  0  0  0  0
   12.1809   -8.1950    0.0000 C   0  0  0  0  0  0  0  0  0  0  0  0
   11.4664   -8.6075    0.0000 C   0  0  0  0  0  0  0  0  0  0  0  0
   13.6099   -9.8450    0.0000 C   0  0  0  0  0  0  0  0  0  0  0  0
   14.3243   -9.4325    0.0000 C   0  0  2  0  0  0  0  0  0  0  0  0
   14.3243   -8.6075    0.0000 C   0  0  2  0  0  0  0  0  0  0  0  0
   13.6099   -8.1950    0.0000 C   0  0  1  0  0  0  0  0  0  0  0  0
   15.0388   -8.1950    0.0000 C   0  0  0  0  0  0  0  0  0  0  0  0
   15.0388   -7.3700    0.0000 C   0  0  0  0  0  0  0  0  0  0  0  0
   14.3243   -6.9575    0.0000 C   0  0  0  0  0  0  0  0  0  0  0  0
   13.6099   -7.3700    0.0000 C   0  0  0  0  0  0  0  0  0  0  0  0
    8.6086   -9.4325    0.0000 O   0  0  0  0  0  0  0  0  0  0  0  0
    8.6086  -11.0825    0.0000 O   0  0  0  0  0  0  0  0  0  0  0  0
    7.8941  -10.6700    0.0000 C   0  0  2  0  0  0  0  0  0  0  0  0
    7.8941   -9.8450    0.0000 O   0  0  0  0  0  0  0  0  0  0  0  0
    7.1796   -9.4325    0.0000 C   0  0  1  0  0  0  0  0  0  0  0  0
    6.4651   -9.8450    0.0000 C   0  0  2  0  0  0  0  0  0  0  0  0
    6.4651  -10.6700    0.0000 C   0  0  1  0  0  0  0  0  0  0  0  0
    7.1796  -11.0825    0.0000 C   0  0  1  0  0  0  0  0  0  0  0  0
    7.1796   -8.6075    0.0000 C   0  0  0  0  0  0  0  0  0  0  0  0
    5.7507  -11.0825    0.0000 O   0  0  0  0  0  0  0  0  0  0  0  0
    7.1796  -11.9075    0.0000 O   0  0  0  0  0  0  0  0  0  0  0  0
    5.7507   -9.4325    0.0000 O   0  0  0  0  0  0  0  0  0  0  0  0
    6.4651   -8.1950    0.0000 O   0  0  0  0  0  0  0  0  0  0  0  0
    9.6250  -11.7970    0.0000 C   0  0  0  0  0  0  0  0  0  0  0  0
   10.4500  -11.7970    0.0000 C   0  0  0  0  0  0  0  0  0  0  0  0
   10.0375  -12.5114    0.0000 O   0  0  0  0  0  0  0  0  0  0  0  0
   10.7520   -9.0200    0.0000 C   0  0  0  0  0  0  0  0  0  0  0  0
   10.7520  -11.4950    0.0000 H   0  0  0  0  0  0  0  0  0  0  0  0
   11.4664  -10.2575    0.0000 H   0  0  0  0  0  0  0  0  0  0  0  0
   12.1809   -9.0200    0.0000 C   0  0  0  0  0  0  0  0  0  0  0  0
   12.8954  -10.2575    0.0000 C   0  0  0  0  0  0  0  0  0  0  0  0
   13.6099   -9.0200    0.0000 H   0  0  0  0  0  0  0  0  0  0  0  0
   14.3243  -10.2575    0.0000 O   0  0  0  0  0  0  0  0  0  0  0  0
   15.0388   -9.0200    0.0000 C   0  0  0  0  0  0  0  0  0  0  0  0
   15.7533   -8.6075    0.0000 O   0  0  0  0  0  0  0  0  0  0  0  0
   15.0388   -9.8450    0.0000 O   0  0  0  0  0  0  0  0  0  0  0  0
   13.9118   -6.2430    0.0000 C   0  0  0  0  0  0  0  0  0  0  0  0
   14.7368   -6.2430    0.0000 C   0  0  0  0  0  0  0  0  0  0  0  0
   16.4677   -9.0200    0.0000 C   0  0  2  0  0  0  0  0  0  0  0  0
   16.4677   -9.8450    0.0000 O   0  0  0  0  0  0  0  0  0  0  0  0
   17.1822  -10.2575    0.0000 C   0  0  0  0  0  0  0  0  0  0  0  0
   17.8967   -9.8450    0.0000 C   0  0  1  0  0  0  0  0  0  0  0  0
   17.8967   -9.0200    0.0000 C   0  0  1  0  0  0  0  0  0  0  0  0
   17.1822   -8.6075    0.0000 C   0  0  1  0  0  0  0  0  0  0  0  0
   17.1822   -7.7825    0.0000 O   0  0  0  0  0  0  0  0  0  0  0  0
   18.6112   -8.6075    0.0000 O   0  0  0  0  0  0  0  0  0  0  0  0
   18.6112  -10.2575    0.0000 O   0  0  0  0  0  0  0  0  0  0  0  0
   17.8967   -7.3700    0.0000 C   0  0  2  0  0  0  0  0  0  0  0  0
   18.6112   -7.7825    0.0000 O   0  0  0  0  0  0  0  0  0  0  0  0
   19.3256   -7.3700    0.0000 C   0  0  2  0  0  0  0  0  0  0  0  0
   19.3256   -6.5450    0.0000 C   0  0  1  0  0  0  0  0  0  0  0  0
   18.6112   -6.1325    0.0000 C   0  0  2  0  0  0  0  0  0  0  0  0
   17.8967   -6.5450    0.0000 C   0  0  1  0  0  0  0  0  0  0  0  0
   17.1822   -6.1325    0.0000 O   0  0  0  0  0  0  0  0  0  0  0  0
   18.6112   -5.3075    0.0000 O   0  0  0  0  0  0  0  0  0  0  0  0
   20.0401   -6.1325    0.0000 O   0  0  0  0  0  0  0  0  0  0  0  0
   20.0401   -7.7825    0.0000 C   0  0  0  0  0  0  0  0  0  0  0  0
   20.7546   -6.5450    0.0000 C   0  0  2  0  0  0  0  0  0  0  0  0
   20.7546   -7.3700    0.0000 O   0  0  0  0  0  0  0  0  0  0  0  0
   21.4690   -7.7825    0.0000 C   0  0  0  0  0  0  0  0  0  0  0  0
   22.1835   -7.3700    0.0000 C   0  0  2  0  0  0  0  0  0  0  0  0
   22.1835   -6.5450    0.0000 C   0  0  1  0  0  0  0  0  0  0  0  0
   21.4690   -6.1325    0.0000 C   0  0  1  0  0  0  0  0  0  0  0  0
   21.4690   -5.3075    0.0000 O   0  0  0  0  0  0  0  0  0  0  0  0
   22.8980   -7.7825    0.0000 O   0  0  0  0  0  0  0  0  0  0  0  0
   25.4344   -7.5777    0.0000 C   0  0  0  0  0  0  0  0  0  0  0  0
   25.6479   -6.7808    0.0000 O   0  0  0  0  0  0  0  0  0  0  0  0
   24.5675   -5.5390    0.0000 O   0  0  0  0  0  0  0  0  0  0  0  0
   23.5893   -7.4300    0.0000 O   0  0  0  0  0  0  0  0  0  0  0  0
   24.3784   -7.6705    0.0000 C   0  0  0  0  0  0  0  0  0  0  0  0
   24.8511   -6.9943    0.0000 C   0  0  1  0  0  0  0  0  0  0  0  0
   24.3540   -6.3359    0.0000 C   0  0  2  0  0  0  0  0  0  0  0  0
   23.5742   -6.6051    0.0000 C   0  0  2  0  0  0  0  0  0  0  0  0
   22.8980   -6.1325    0.0000 O   0  0  0  0  0  0  0  0  0  0  0  0
   26.2313   -7.3642    0.0000 O   0  0  0  0  0  0  0  0  0  0  0  0
    5.0362  -10.6700    0.0000 C   0  0  2  0  0  0  0  0  0  0  0  0
    5.0362   -9.8450    0.0000 O   0  0  0  0  0  0  0  0  0  0  0  0
    4.3217   -9.4325    0.0000 C   0  0  1  0  0  0  0  0  0  0  0  0
    3.6073   -9.8450    0.0000 C   0  0  2  0  0  0  0  0  0  0  0  0
    3.6073  -10.6700    0.0000 C   0  0  1  0  0  0  0  0  0  0  0  0
    4.3217  -11.0825    0.0000 C   0  0  1  0  0  0  0  0  0  0  0  0
    4.3217   -8.6075    0.0000 C   0  0  0  0  0  0  0  0  0  0  0  0
    2.8928  -11.0825    0.0000 O   0  0  0  0  0  0  0  0  0  0  0  0
    4.3217  -11.9075    0.0000 O   0  0  0  0  0  0  0  0  0  0  0  0
    2.8928   -9.4325    0.0000 O   0  0  0  0  0  0  0  0  0  0  0  0
    3.6073   -8.1950    0.0000 O   0  0  0  0  0  0  0  0  0  0  0  0
    8.8281  -12.0105    0.0000 O   0  0  0  0  0  0  0  0  0  0  0  0
  1  2  1  0  0  0  0
  2  3  1  0  0  0  0
  3  4  1  0  0  0  0
  4  5  1  0  0  0  0
  5  6  1  0  0  0  0
  6  1  1  0  0  0  0
  4  7  1  0  0  0  0
  7  8  1  0  0  0  0
  8  9  1  0  0  0  0
  9 10  1  0  0  0  0
 10  5  1  0  0  0  0
  9 11  1  0  0  0  0
 11 12  1  0  0  0  0
 12 13  2  0  0  0  0
 13 14  1  0  0  0  0
 14 10  1  0  0  0  0
 11 15  1  0  0  0  0
 15 16  1  0  0  0  0
 16 17  1  0  0  0  0
 17 18  1  0  0  0  0
 18 12  1  0  0  0  0
 17 19  1  0  0  0  0
 19 20  1  0  0  0  0
 20 21  1  0  0  0  0
 21 22  1  0  0  0  0
 22 18  1  0  0  0  0
  1 23  1  1  0  0  0
  2 24  1  1  0  0  0
 25 24  1  1  0  0  0
 25 26  1  0  0  0  0
 26 27  1  0  0  0  0
 27 28  1  0  0  0  0
 28 29  1  0  0  0  0
 29 30  1  0  0  0  0
 30 25  1  0  0  0  0
 27 31  1  1  0  0  0
 29 32  1  1  0  0  0
 30 33  1  6  0  0  0
 28 34  1  6  0  0  0
 31 35  1  0  0  0  0
  3 36  1  0  0  0  0
  3 37  1  0  0  0  0
 37 38  1  0  0  0  0
  5 39  1  1  0  0  0
  4 40  1  6  0  0  0
 10 41  1  6  0  0  0
  9 42  1  1  0  0  0
 11 43  1  6  0  0  0
 18 44  1  1  0  0  0
 16 45  1  6  0  0  0
 17 46  1  1  0  0  0
 46 47  1  0  0  0  0
 46 48  2  0  0  0  0
 21 49  1  0  0  0  0
 21 50  1  0  0  0  0
 51 47  1  1  0  0  0
 51 52  1  0  0  0  0
 52 53  1  0  0  0  0
 53 54  1  0  0  0  0
 54 55  1  0  0  0  0
 55 56  1  0  0  0  0
 56 51  1  0  0  0  0
 56 57  1  6  0  0  0
 55 58  1  1  0  0  0
 54 59  1  1  0  0  0
 60 57  1  1  0  0  0
 60 61  1  0  0  0  0
 61 62  1  0  0  0  0
 62 63  1  0  0  0  0
 63 64  1  0  0  0  0
 64 65  1  0  0  0  0
 65 60  1  0  0  0  0
 65 66  1  6  0  0  0
 64 67  1  6  0  0  0
 63 68  1  1  0  0  0
 62 69  1  6  0  0  0
 70 68  1  1  0  0  0
 70 71  1  0  0  0  0
 71 72  1  0  0  0  0
 72 73  1  0  0  0  0
 73 74  1  0  0  0  0
 74 75  1  0  0  0  0
 75 70  1  0  0  0  0
 75 76  1  6  0  0  0
 74 86  1  1  0  0  0
 73 77  1  6  0  0  0
 83 78  1  0  0  0  0
 83 79  1  6  0  0  0
 84 80  1  6  0  0  0
 81 85  1  0  0  0  0
 82 81  1  0  0  0  0
 83 82  1  0  0  0  0
 84 83  1  0  0  0  0
 85 84  1  0  0  0  0
 85 86  1  1  0  0  0
 78 87  1  0  0  0  0
 88 32  1  1  0  0  0
 88 89  1  0  0  0  0
 89 90  1  0  0  0  0
 90 91  1  0  0  0  0
 91 92  1  0  0  0  0
 92 93  1  0  0  0  0
 93 88  1  0  0  0  0
 90 94  1  1  0  0  0
 92 95  1  1  0  0  0
 93 96  1  6  0  0  0
 91 97  1  6  0  0  0
 94 98  1  0  0  0  0
 36 99  1  0  0  0  0
M  END
>  <cdx:fragmentId>
189

$$$$
