317799.cdx
  Mrv1902 05222410262D          

 38 42  0  0  0  0            999 V2000
    9.3753   -6.9712    0.0000 C   0  0  0  0  0  0  0  0  0  0  0  0
    9.5140   -5.1504    0.0000 C   0  0  0  0  0  0  0  0  0  0  0  0
    9.5889   -6.1743    0.0000 O   0  0  0  0  0  0  0  0  0  0  0  0
    8.4096   -7.7646    0.0000 O   0  0  0  0  0  0  0  0  0  0  0  0
    6.0276   -3.2086    0.0000 O   0  0  0  0  0  0  0  0  0  0  0  0
    5.2116   -3.3302    0.0000 C   0  0  0  0  0  0  0  0  0  0  0  0
    5.0751   -4.1439    0.0000 O   0  0  0  0  0  0  0  0  0  0  0  0
    3.8775   -6.2150    0.0000 C   0  0  0  0  0  0  0  0  0  0  0  0
    4.5727   -6.5629    0.0000 C   0  0  0  0  0  0  0  0  0  0  0  0
    5.2909   -6.1569    0.0000 O   0  0  0  0  0  0  0  0  0  0  0  0
    5.2948   -5.7299    0.0000 O   0  0  0  0  0  0  0  0  0  0  0  0
    4.7611   -8.3720    0.0000 C   0  0  0  0  0  0  0  0  0  0  0  0
    4.9819   -7.5770    0.0000 O   0  0  0  0  0  0  0  0  0  0  0  0
    6.7160   -9.3430    0.0000 C   0  0  0  0  0  0  0  0  0  0  0  0
    6.1380   -8.7544    0.0000 O   0  0  0  0  0  0  0  0  0  0  0  0
    7.1903   -4.1679    0.0000 C   0  0  0  0  0  0  0  0  0  0  0  0
    6.3954   -3.9471    0.0000 C   0  0  0  0  0  0  0  0  0  0  0  0
    5.8067   -4.5251    0.0000 C   0  0  0  0  0  0  0  0  0  0  0  0
    6.0130   -5.3239    0.0000 C   0  0  0  0  0  0  0  0  0  0  0  0
    6.0015   -6.5759    0.0000 C   0  0  0  0  0  0  0  0  0  0  0  0
    5.7807   -7.3708    0.0000 C   0  0  0  0  0  0  0  0  0  0  0  0
    6.3588   -7.9595    0.0000 C   0  0  0  0  0  0  0  0  0  0  0  0
    7.1576   -7.7532    0.0000 C   0  0  0  0  0  0  0  0  0  0  0  0
    6.8003   -6.3696    0.0000 C   0  0  0  0  0  0  0  0  0  0  0  0
    7.3784   -6.9583    0.0000 C   0  0  0  0  0  0  0  0  0  0  0  0
    8.2033   -6.9658    0.0000 C   0  0  1  0  0  0  0  0  0  0  0  0
    8.7920   -6.3878    0.0000 C   0  0  1  0  0  0  0  0  0  0  0  0
    8.7995   -5.5629    0.0000 C   0  0  2  0  0  0  0  0  0  0  0  0
    8.2215   -4.9742    0.0000 C   0  0  0  0  0  0  0  0  0  0  0  0
    7.3965   -4.9667    0.0000 C   0  0  0  0  0  0  0  0  0  0  0  0
    6.8079   -5.5447    0.0000 C   0  0  0  0  0  0  0  0  0  0  0  0
    7.5625   -9.6800    0.0000 C   0  0  0  0  0  0  0  0  0  0  0  0
    7.9750  -10.3945    0.0000 O   0  0  0  0  0  0  0  0  0  0  0  0
    3.9050   -8.6900    0.0000 C   0  0  2  0  0  0  0  0  0  0  0  0
    4.9500   -9.7350    0.0000 C   0  0  2  0  0  0  0  0  0  0  0  0
    4.2355  -10.1475    0.0000 C   0  0  0  0  0  0  0  0  0  0  0  0
    4.9500  -10.5600    0.0000 O   0  0  0  0  0  0  0  0  0  0  0  0
    3.1905   -9.1025    0.0000 C   0  0  0  0  0  0  0  0  0  0  0  0
 27  1  1  1  0  0  0
 28  2  1  6  0  0  0
 27  3  1  6  0  0  0
 26  4  1  1  0  0  0
  5 17  1  0  0  0  0
  6  5  1  0  0  0  0
  7  6  1  0  0  0  0
 18  7  1  0  0  0  0
 11  8  1  0  0  0  0
 10  9  1  0  0  0  0
 20 10  1  0  0  0  0
 19 11  1  0  0  0  0
 13 12  1  0  0  0  0
 21 13  1  0  0  0  0
 15 14  1  0  0  0  0
 22 15  1  0  0  0  0
 16 30  1  0  0  0  0
 17 16  2  0  0  0  0
 18 17  1  0  0  0  0
 19 18  2  0  0  0  0
 31 19  1  0  0  0  0
 20 24  1  0  0  0  0
 21 20  2  0  0  0  0
 22 21  1  0  0  0  0
 23 22  2  0  0  0  0
 25 23  1  0  0  0  0
 24 31  1  0  0  0  0
 25 24  2  0  0  0  0
 26 25  1  0  0  0  0
 27 26  1  0  0  0  0
 28 27  1  0  0  0  0
 29 28  1  0  0  0  0
 30 29  1  0  0  0  0
 31 30  2  0  0  0  0
  4 32  1  0  0  0  0
 32 33  2  0  0  0  0
 34 35  1  0  0  0  0
 35 36  1  1  0  0  0
 35 37  1  6  0  0  0
 34 38  1  6  0  0  0
  8 34  1  0  0  0  0
 32 35  1  0  0  0  0
M  END
>  <cdx:fragmentId>
8636

$$$$
