5317777.cdx
  Mrv1902 05222410282D          

 22 25  0  0  0  0            999 V2000
    7.2214   -6.7616    0.0000 C   0  0  0  0  0  0  0  0  0  0  0  0
    7.2214   -5.9366    0.0000 C   0  0  0  0  0  0  0  0  0  0  0  0
    6.5070   -5.5241    0.0000 C   0  0  0  0  0  0  0  0  0  0  0  0
    5.7925   -5.9366    0.0000 C   0  0  0  0  0  0  0  0  0  0  0  0
    5.0780   -5.5241    0.0000 C   0  0  0  0  0  0  0  0  0  0  0  0
    4.3635   -5.9366    0.0000 C   0  0  0  0  0  0  0  0  0  0  0  0
    4.3635   -6.7616    0.0000 C   0  0  0  0  0  0  0  0  0  0  0  0
    5.0780   -7.1741    0.0000 C   0  0  0  0  0  0  0  0  0  0  0  0
    5.7925   -6.7616    0.0000 C   0  0  0  0  0  0  0  0  0  0  0  0
    6.5070   -7.1741    0.0000 O   0  0  0  0  0  0  0  0  0  0  0  0
    6.5070   -4.6991    0.0000 O   0  0  0  0  0  0  0  0  0  0  0  0
   10.1495   -4.4441    0.0000 O   0  0  0  0  0  0  0  0  0  0  0  0
   10.6344   -5.1116    0.0000 C   0  0  0  0  0  0  0  0  0  0  0  0
   10.1495   -5.7790    0.0000 O   0  0  0  0  0  0  0  0  0  0  0  0
    9.3648   -5.5241    0.0000 C   0  0  0  0  0  0  0  0  0  0  0  0
    9.3648   -4.6991    0.0000 C   0  0  0  0  0  0  0  0  0  0  0  0
    8.6504   -5.9366    0.0000 C   0  0  0  0  0  0  0  0  0  0  0  0
    7.9359   -5.5241    0.0000 C   0  0  0  0  0  0  0  0  0  0  0  0
    7.9359   -4.6991    0.0000 C   0  0  0  0  0  0  0  0  0  0  0  0
    8.6504   -4.2866    0.0000 C   0  0  0  0  0  0  0  0  0  0  0  0
    8.6504   -6.7616    0.0000 O   0  0  0  0  0  0  0  0  0  0  0  0
    3.6491   -7.1741    0.0000 O   0  0  0  0  0  0  0  0  0  0  0  0
  1  2  2  0  0  0  0
  2  3  1  0  0  0  0
  3  4  1  0  0  0  0
  4  5  1  0  0  0  0
  5  6  2  0  0  0  0
  6  7  1  0  0  0  0
  7  8  2  0  0  0  0
  8  9  1  0  0  0  0
  4  9  2  0  0  0  0
  9 10  1  0  0  0  0
  1 10  1  0  0  0  0
  3 11  2  0  0  0  0
 12 13  1  0  0  0  0
 13 14  1  0  0  0  0
 14 15  1  0  0  0  0
 15 16  1  0  0  0  0
 12 16  1  0  0  0  0
 17 18  1  0  0  0  0
 18 19  2  0  0  0  0
 19 20  1  0  0  0  0
 20 16  2  0  0  0  0
 17 15  2  0  0  0  0
 17 21  1  0  0  0  0
  2 18  1  0  0  0  0
  7 22  1  0  0  0  0
M  END
>  <cdx:fragmentId>
8402

$$$$
