5317762.cdx
  Mrv1902 05222410282D          

 27 30  0  0  0  0            999 V2000
    7.4777   -8.9303    0.0000 C   0  0  0  0  0  0  0  0  0  0  0  0
    7.4777   -8.1053    0.0000 C   0  0  0  0  0  0  0  0  0  0  0  0
    8.1921   -7.6928    0.0000 C   0  0  0  0  0  0  0  0  0  0  0  0
    8.9066   -8.1053    0.0000 C   0  0  0  0  0  0  0  0  0  0  0  0
    9.6211   -7.6928    0.0000 C   0  0  0  0  0  0  0  0  0  0  0  0
   10.3355   -8.1053    0.0000 C   0  0  0  0  0  0  0  0  0  0  0  0
   10.3355   -8.9303    0.0000 C   0  0  0  0  0  0  0  0  0  0  0  0
    9.6211   -9.3428    0.0000 C   0  0  0  0  0  0  0  0  0  0  0  0
    8.9066   -8.9303    0.0000 C   0  0  0  0  0  0  0  0  0  0  0  0
    8.1921   -9.3428    0.0000 O   0  0  0  0  0  0  0  0  0  0  0  0
    8.1921   -6.8678    0.0000 O   0  0  0  0  0  0  0  0  0  0  0  0
    9.6211   -6.8678    0.0000 O   0  0  0  0  0  0  0  0  0  0  0  0
   10.3355   -6.4553    0.0000 C   0  0  0  0  0  0  0  0  0  0  0  0
    3.9053   -6.8678    0.0000 C   0  0  0  0  0  0  0  0  0  0  0  0
    3.9053   -7.6928    0.0000 C   0  0  0  0  0  0  0  0  0  0  0  0
    4.6198   -8.1053    0.0000 C   0  0  0  0  0  0  0  0  0  0  0  0
    5.3343   -7.6928    0.0000 C   0  0  0  0  0  0  0  0  0  0  0  0
    6.0487   -8.1053    0.0000 C   0  0  0  0  0  0  0  0  0  0  0  0
    6.7632   -7.6928    0.0000 C   0  0  0  0  0  0  0  0  0  0  0  0
    6.7632   -6.8678    0.0000 C   0  0  0  0  0  0  0  0  0  0  0  0
    6.0487   -6.4553    0.0000 C   0  0  0  0  0  0  0  0  0  0  0  0
    5.3343   -6.8678    0.0000 C   0  0  0  0  0  0  0  0  0  0  0  0
    4.6198   -6.4553    0.0000 O   0  0  0  0  0  0  0  0  0  0  0  0
    3.0803   -6.8678    0.0000 C   0  0  0  0  0  0  0  0  0  0  0  0
    3.4928   -6.1534    0.0000 C   0  0  0  0  0  0  0  0  0  0  0  0
    6.0487   -5.6303    0.0000 O   0  0  0  0  0  0  0  0  0  0  0  0
   11.0500   -9.3428    0.0000 O   0  0  0  0  0  0  0  0  0  0  0  0
  1  2  1  0  0  0  0
  2  3  1  0  0  0  0
  3  4  1  0  0  0  0
  4  5  1  0  0  0  0
  5  6  2  0  0  0  0
  6  7  1  0  0  0  0
  7  8  2  0  0  0  0
  8  9  1  0  0  0  0
  4  9  2  0  0  0  0
  9 10  1  0  0  0  0
  1 10  1  0  0  0  0
  3 11  2  0  0  0  0
 12 13  1  0  0  0  0
  5 12  1  0  0  0  0
 14 15  1  0  0  0  0
 15 16  2  0  0  0  0
 16 17  1  0  0  0  0
 17 18  1  0  0  0  0
 18 19  2  0  0  0  0
 19 20  1  0  0  0  0
 20 21  2  0  0  0  0
 21 22  1  0  0  0  0
 17 22  2  0  0  0  0
 22 23  1  0  0  0  0
 14 23  1  0  0  0  0
 14 24  1  0  0  0  0
 14 25  1  0  0  0  0
 21 26  1  0  0  0  0
  2 19  1  0  0  0  0
  7 27  1  0  0  0  0
M  END
>  <cdx:fragmentId>
8270

$$$$
