317805.cdx
  Mrv1902 05222410202D          

 29 31  0  0  0  0            999 V2000
    7.0679   -6.1334    0.0000 C   0  0  0  0  0  0  0  0  0  0  0  0
    7.0477   -6.9582    0.0000 C   0  0  0  0  0  0  0  0  0  0  0  0
    6.2458   -7.1521    0.0000 C   0  0  0  0  0  0  0  0  0  0  0  0
    6.0129   -7.9436    0.0000 C   0  0  0  0  0  0  0  0  0  0  0  0
    6.5818   -8.5410    0.0000 C   0  0  0  0  0  0  0  0  0  0  0  0
    7.3837   -8.3470    0.0000 C   0  0  0  0  0  0  0  0  0  0  0  0
    7.6166   -7.5556    0.0000 C   0  0  0  0  0  0  0  0  0  0  0  0
    8.4414   -7.5758    0.0000 C   0  0  0  0  0  0  0  0  0  0  0  0
    9.0388   -7.0068    0.0000 C   0  0  2  0  0  0  0  0  0  0  0  0
    9.0590   -6.1821    0.0000 C   0  0  2  0  0  0  0  0  0  0  0  0
    8.4901   -5.5846    0.0000 C   0  0  0  0  0  0  0  0  0  0  0  0
    7.6653   -5.5645    0.0000 C   0  0  0  0  0  0  0  0  0  0  0  0
    7.4713   -4.7626    0.0000 C   0  0  0  0  0  0  0  0  0  0  0  0
    6.6799   -4.5297    0.0000 C   0  0  0  0  0  0  0  0  0  0  0  0
    6.0825   -5.0986    0.0000 C   0  0  0  0  0  0  0  0  0  0  0  0
    6.2764   -5.9005    0.0000 C   0  0  0  0  0  0  0  0  0  0  0  0
    6.3489   -9.3325    0.0000 O   0  0  0  0  0  0  0  0  0  0  0  0
    9.8287   -5.8851    0.0000 C   0  0  0  0  0  0  0  0  0  0  0  0
    9.7931   -7.3411    0.0000 C   0  0  0  0  0  0  0  0  0  0  0  0
    5.5204   -6.2308    0.0000 O   0  0  0  0  0  0  0  0  0  0  0  0
    4.8564   -5.7412    0.0000 C   0  0  0  0  0  0  0  0  0  0  0  0
    5.2910   -4.8657    0.0000 O   0  0  0  0  0  0  0  0  0  0  0  0
    5.0970   -4.0638    0.0000 C   0  0  0  0  0  0  0  0  0  0  0  0
    6.4859   -3.7278    0.0000 O   0  0  0  0  0  0  0  0  0  0  0  0
    5.2110   -8.1376    0.0000 O   0  0  0  0  0  0  0  0  0  0  0  0
    4.9781   -8.9290    0.0000 C   0  0  0  0  0  0  0  0  0  0  0  0
    5.5069   -6.7853    0.0000 O   0  0  0  0  0  0  0  0  0  0  0  0
    4.8197   -7.2419    0.0000 C   0  0  0  0  0  0  0  0  0  0  0  0
    6.9178   -9.9299    0.0000 C   0  0  0  0  0  0  0  0  0  0  0  0
  1  2  1  0  0  0  0
  2  3  2  0  0  0  0
  3  4  1  0  0  0  0
  4  5  2  0  0  0  0
  5  6  1  0  0  0  0
  6  7  2  0  0  0  0
  7  8  1  0  0  0  0
  8  9  1  0  0  0  0
  9 10  1  0  0  0  0
 10 11  1  0  0  0  0
 11 12  1  0  0  0  0
 12 13  1  0  0  0  0
 13 14  2  0  0  0  0
 14 15  1  0  0  0  0
 15 16  2  0  0  0  0
  1 16  1  0  0  0  0
  1 12  2  0  0  0  0
  2  7  1  0  0  0  0
  5 17  1  0  0  0  0
 10 18  1  6  0  0  0
  9 19  1  6  0  0  0
 20 21  1  0  0  0  0
 16 20  1  0  0  0  0
 22 23  1  0  0  0  0
 15 22  1  0  0  0  0
 14 24  1  0  0  0  0
 25 26  1  0  0  0  0
  4 25  1  0  0  0  0
 27 28  1  0  0  0  0
  3 27  1  0  0  0  0
 17 29  1  0  0  0  0
M  END
>  <cdx:fragmentId>
112679

$$$$
