318.cdx
  Mrv1902 05222410262D          

 10 11  0  0  0  0            999 V2000
    5.9854   -8.8316    0.0000 N   0  0  0  0  0  0  0  0  0  0  0  0
    5.9854   -9.6566    0.0000 C   0  0  0  0  0  0  0  0  0  0  0  0
    6.6998  -10.0691    0.0000 N   0  0  0  0  0  0  0  0  0  0  0  0
    7.4143   -9.6566    0.0000 C   0  0  0  0  0  0  0  0  0  0  0  0
    7.4143   -8.8316    0.0000 C   0  0  0  0  0  0  0  0  0  0  0  0
    6.6998   -8.4191    0.0000 C   0  0  0  0  0  0  0  0  0  0  0  0
    8.1989   -9.9115    0.0000 N   0  0  0  0  0  0  0  0  0  0  0  0
    8.6838   -9.2441    0.0000 C   0  0  0  0  0  0  0  0  0  0  0  0
    8.1989   -8.5766    0.0000 N   0  0  0  0  0  0  0  0  0  0  0  0
    6.6998   -7.5941    0.0000 O   0  0  0  0  0  0  0  0  0  0  0  0
  1  2  1  0  0  0  0
  2  3  2  0  0  0  0
  3  4  1  0  0  0  0
  4  5  2  0  0  0  0
  5  6  1  0  0  0  0
  6  1  1  0  0  0  0
  4  7  1  0  0  0  0
  7  8  2  0  0  0  0
  8  9  1  0  0  0  0
  9  5  1  0  0  0  0
  6 10  2  0  0  0  0
M  END
>  <cdx:fragmentId>
5

$$$$
