318157.cdx
  Mrv1902 05222410252D          

 18 19  0  0  0  0            999 V2000
   10.7521   -5.5425    0.0000 C   0  0  0  0  0  0  0  0  0  0  0  0
   10.7521   -6.3675    0.0000 C   0  0  0  0  0  0  0  0  0  0  0  0
   10.0376   -6.7800    0.0000 C   0  0  0  0  0  0  0  0  0  0  0  0
    9.3231   -6.3675    0.0000 C   0  0  0  0  0  0  0  0  0  0  0  0
    9.3231   -5.5425    0.0000 C   0  0  0  0  0  0  0  0  0  0  0  0
   10.0376   -5.1300    0.0000 C   0  0  0  0  0  0  0  0  0  0  0  0
   11.4666   -5.1300    0.0000 O   0  0  0  0  0  0  0  0  0  0  0  0
    8.6087   -6.7800    0.0000 C   0  0  0  0  0  0  0  0  0  0  0  0
    7.8942   -6.3675    0.0000 O   0  0  0  0  0  0  0  0  0  0  0  0
    7.1797   -6.7800    0.0000 C   0  0  0  0  0  0  0  0  0  0  0  0
    7.1797   -7.6050    0.0000 C   0  0  0  0  0  0  0  0  0  0  0  0
    6.4653   -8.0175    0.0000 C   0  0  0  0  0  0  0  0  0  0  0  0
    5.7508   -7.6050    0.0000 C   0  0  0  0  0  0  0  0  0  0  0  0
    5.7508   -6.7800    0.0000 C   0  0  0  0  0  0  0  0  0  0  0  0
    6.4653   -6.3675    0.0000 C   0  0  0  0  0  0  0  0  0  0  0  0
    5.0363   -8.0175    0.0000 C   0  0  0  0  0  0  0  0  0  0  0  0
    4.3218   -7.6050    0.0000 O   0  0  0  0  0  0  0  0  0  0  0  0
    3.6074   -8.0175    0.0000 C   0  0  0  0  0  0  0  0  0  0  0  0
  1  2  1  0  0  0  0
  2  3  2  0  0  0  0
  3  4  1  0  0  0  0
  4  5  2  0  0  0  0
  5  6  1  0  0  0  0
  1  6  2  0  0  0  0
  1  7  1  0  0  0  0
 10 11  1  0  0  0  0
 11 12  2  0  0  0  0
 12 13  1  0  0  0  0
 13 14  2  0  0  0  0
 14 15  1  0  0  0  0
 10 15  2  0  0  0  0
  9 10  1  0  0  0  0
 17 18  1  0  0  0  0
 16 17  1  0  0  0  0
 13 16  1  0  0  0  0
  8  9  1  0  0  0  0
  4  8  1  0  0  0  0
M  END
>  <cdx:fragmentId>
9512

$$$$
