5318116.cdx
  Mrv1902 05222410192D          

 19 20  0  0  0  0            999 V2000
   14.4443   -7.4178    0.0000 C   0  0  0  0  0  0  0  0  0  0  0  0
   13.7298   -7.8303    0.0000 C   0  0  0  0  0  0  0  0  0  0  0  0
   13.0153   -7.4178    0.0000 C   0  0  0  0  0  0  0  0  0  0  0  0
   12.3009   -7.8303    0.0000 C   0  0  0  0  0  0  0  0  0  0  0  0
   12.3009   -8.6553    0.0000 C   0  0  0  0  0  0  0  0  0  0  0  0
   13.0153   -9.0678    0.0000 C   0  0  0  0  0  0  0  0  0  0  0  0
   13.7298   -8.6553    0.0000 C   0  0  0  0  0  0  0  0  0  0  0  0
   14.4443   -6.5928    0.0000 O   0  0  0  0  0  0  0  0  0  0  0  0
   15.1588   -7.8303    0.0000 O   0  0  0  0  0  0  0  0  0  0  0  0
   14.4443   -9.0678    0.0000 C   0  0  0  0  0  0  0  0  0  0  0  0
   15.1588   -8.6553    0.0000 C   0  0  0  0  0  0  0  0  0  0  0  0
   15.8732   -9.0678    0.0000 C   0  0  0  0  0  0  0  0  0  0  0  0
   16.5877   -8.6553    0.0000 C   0  0  0  0  0  0  0  0  0  0  0  0
   17.3022   -9.0678    0.0000 C   0  0  0  0  0  0  0  0  0  0  0  0
   17.3022   -9.8928    0.0000 C   0  0  0  0  0  0  0  0  0  0  0  0
   16.5877  -10.3053    0.0000 C   0  0  0  0  0  0  0  0  0  0  0  0
   15.8732   -9.8928    0.0000 C   0  0  0  0  0  0  0  0  0  0  0  0
   18.0166  -10.3053    0.0000 O   0  0  0  0  0  0  0  0  0  0  0  0
   13.0153   -6.5928    0.0000 O   0  0  0  0  0  0  0  0  0  0  0  0
  1  2  1  0  0  0  0
  2  3  1  0  0  0  0
  3  4  2  0  0  0  0
  4  5  1  0  0  0  0
  5  6  2  0  0  0  0
  6  7  1  0  0  0  0
  2  7  2  0  0  0  0
  1  8  2  0  0  0  0
  1  9  1  0  0  0  0
 10 11  2  0  0  0  0
 12 13  1  0  0  0  0
 13 14  2  0  0  0  0
 14 15  1  0  0  0  0
 15 16  2  0  0  0  0
 16 17  1  0  0  0  0
 12 17  2  0  0  0  0
 15 18  1  0  0  0  0
 11 12  1  0  0  0  0
  7 10  1  0  0  0  0
  3 19  1  0  0  0  0
M  END
>  <cdx:groupId>
9392

>  <cdx:fragmentId>
9359

$$$$
