318156.cdx
  Mrv1902 05222410252D          

 38 41  0  0  0  0            999 V2000
    7.7418   -6.3646    0.0000 C   0  0  0  0  0  0  0  0  0  0  0  0
    6.9168   -6.3646    0.0000 C   0  0  0  0  0  0  0  0  0  0  0  0
    6.0918   -6.3646    0.0000 C   0  0  0  0  0  0  0  0  0  0  0  0
    6.9168   -5.5396    0.0000 O   0  0  0  0  0  0  0  0  0  0  0  0
    6.9168   -7.1896    0.0000 C   0  0  0  0  0  0  0  0  0  0  0  0
    7.6313   -7.6021    0.0000 C   0  0  0  0  0  0  0  0  0  0  0  0
    7.6313   -8.4271    0.0000 C   0  0  0  0  0  0  0  0  0  0  0  0
    6.9168   -8.8396    0.0000 C   0  0  0  0  0  0  0  0  0  0  0  0
    6.2024   -8.4271    0.0000 O   0  0  0  0  0  0  0  0  0  0  0  0
    5.4879   -8.8396    0.0000 C   0  0  2  0  0  0  0  0  0  0  0  0
    4.7734   -8.4271    0.0000 O   0  0  0  0  0  0  0  0  0  0  0  0
    4.0589   -8.8396    0.0000 C   0  0  2  0  0  0  0  0  0  0  0  0
    3.3445   -8.4271    0.0000 C   0  0  0  0  0  0  0  0  0  0  0  0
    2.6300   -8.8396    0.0000 O   0  0  0  0  0  0  0  0  0  0  0  0
    4.0589   -9.6646    0.0000 C   0  0  1  0  0  0  0  0  0  0  0  0
    3.3445  -10.0771    0.0000 O   0  0  0  0  0  0  0  0  0  0  0  0
    4.7734  -10.0771    0.0000 C   0  0  2  0  0  0  0  0  0  0  0  0
    4.7734  -10.9021    0.0000 O   0  0  0  0  0  0  0  0  0  0  0  0
    5.4879   -9.6646    0.0000 C   0  0  1  0  0  0  0  0  0  0  0  0
    6.2024  -10.0771    0.0000 O   0  0  0  0  0  0  0  0  0  0  0  0
    6.9168   -9.6646    0.0000 C   0  0  0  0  0  0  0  0  0  0  0  0
    7.6313  -10.0771    0.0000 C   0  0  0  0  0  0  0  0  0  0  0  0
    7.6313  -10.9021    0.0000 O   0  0  0  0  0  0  0  0  0  0  0  0
    8.3458   -9.6646    0.0000 C   0  0  0  0  0  0  0  0  0  0  0  0
    8.3458   -8.8396    0.0000 C   0  0  0  0  0  0  0  0  0  0  0  0
    9.0602   -8.4271    0.0000 O   0  0  0  0  0  0  0  0  0  0  0  0
    9.7747   -8.8396    0.0000 C   0  0  0  0  0  0  0  0  0  0  0  0
    9.7747   -9.6646    0.0000 C   0  0  0  0  0  0  0  0  0  0  0  0
   10.4892  -10.0771    0.0000 O   0  0  0  0  0  0  0  0  0  0  0  0
    9.0602  -10.0771    0.0000 C   0  0  0  0  0  0  0  0  0  0  0  0
    9.0602  -10.9021    0.0000 O   0  0  0  0  0  0  0  0  0  0  0  0
   10.4892   -8.4271    0.0000 C   0  0  0  0  0  0  0  0  0  0  0  0
   10.4892   -7.6021    0.0000 C   0  0  0  0  0  0  0  0  0  0  0  0
   11.2037   -7.1896    0.0000 C   0  0  0  0  0  0  0  0  0  0  0  0
   11.9181   -7.6021    0.0000 C   0  0  0  0  0  0  0  0  0  0  0  0
   12.6326   -7.1896    0.0000 O   0  0  0  0  0  0  0  0  0  0  0  0
   11.9181   -8.4271    0.0000 C   0  0  0  0  0  0  0  0  0  0  0  0
   11.2037   -8.8396    0.0000 C   0  0  0  0  0  0  0  0  0  0  0  0
  1  2  1  0  0  0  0
  2  3  1  0  0  0  0
  2  4  1  0  0  0  0
  2  5  1  0  0  0  0
  5  6  1  0  0  0  0
  6  7  1  0  0  0  0
  7  8  2  0  0  0  0
  8  9  1  0  0  0  0
 10  9  1  1  0  0  0
 10 11  1  0  0  0  0
 11 12  1  0  0  0  0
 12 13  1  1  0  0  0
 13 14  1  0  0  0  0
 12 15  1  0  0  0  0
 15 16  1  6  0  0  0
 15 17  1  0  0  0  0
 17 18  1  1  0  0  0
 17 19  1  0  0  0  0
 10 19  1  0  0  0  0
 19 20  1  6  0  0  0
  8 21  1  0  0  0  0
 21 22  2  0  0  0  0
 22 23  1  0  0  0  0
 22 24  1  0  0  0  0
 24 25  2  0  0  0  0
  7 25  1  0  0  0  0
 25 26  1  0  0  0  0
 26 27  1  0  0  0  0
 27 28  2  0  0  0  0
 28 29  1  0  0  0  0
 28 30  1  0  0  0  0
 24 30  1  0  0  0  0
 30 31  2  0  0  0  0
 27 32  1  0  0  0  0
 32 33  2  0  0  0  0
 33 34  1  0  0  0  0
 34 35  2  0  0  0  0
 35 36  1  0  0  0  0
 35 37  1  0  0  0  0
 37 38  2  0  0  0  0
 32 38  1  0  0  0  0
M  END
>  <cdx:fragmentId>
9399

$$$$
