3181.cdx
  Mrv1902 05222410232D          

 22 23  0  0  0  0            999 V2000
    7.2083   -6.3422    0.0000 O   0  0  0  0  0  0  0  0  0  0  0  0
    7.9228   -5.9297    0.0000 C   0  0  0  0  0  0  0  0  0  0  0  0
    8.6372   -6.3422    0.0000 C   0  0  0  0  0  0  0  0  0  0  0  0
    9.3517   -5.9297    0.0000 C   0  0  0  0  0  0  0  0  0  0  0  0
    9.3517   -5.1047    0.0000 C   0  0  0  0  0  0  0  0  0  0  0  0
    8.6372   -4.6922    0.0000 C   0  0  0  0  0  0  0  0  0  0  0  0
    7.9228   -5.1047    0.0000 C   0  0  0  0  0  0  0  0  0  0  0  0
   10.0662   -4.6922    0.0000 C   0  0  0  0  0  0  0  0  0  0  0  0
   10.7807   -5.1047    0.0000 C   0  0  0  0  0  0  0  0  0  0  0  0
   11.4951   -4.6922    0.0000 C   0  0  0  0  0  0  0  0  0  0  0  0
    6.4985   -8.4082    0.0000 C   0  0  2  0  0  0  0  0  0  0  0  0
    7.2135   -8.8197    0.0000 C   0  0  2  0  0  0  0  0  0  0  0  0
    7.9274   -8.4062    0.0000 C   0  0  1  0  0  0  0  0  0  0  0  0
    7.9263   -7.5812    0.0000 C   0  0  2  0  0  0  0  0  0  0  0  0
    7.2112   -7.1697    0.0000 C   0  0  1  0  0  0  0  0  0  0  0  0
    6.4973   -7.5832    0.0000 O   0  0  0  0  0  0  0  0  0  0  0  0
    5.7846   -8.8217    0.0000 C   0  0  0  0  0  0  0  0  0  0  0  0
    8.6424   -8.8177    0.0000 O   0  0  0  0  0  0  0  0  0  0  0  0
    7.2146   -9.6447    0.0000 O   0  0  0  0  0  0  0  0  0  0  0  0
    8.6402   -7.1677    0.0000 O   0  0  0  0  0  0  0  0  0  0  0  0
    5.7857   -9.6467    0.0000 O   0  0  0  0  0  0  0  0  0  0  0  0
    7.2083   -4.6922    0.0000 O   0  0  0  0  0  0  0  0  0  0  0  0
  1  2  1  0  0  0  0
  2  3  2  0  0  0  0
  3  4  1  0  0  0  0
  4  5  2  0  0  0  0
  5  6  1  0  0  0  0
  6  7  2  0  0  0  0
  7  2  1  0  0  0  0
  5  8  1  0  0  0  0
  8  9  1  0  0  0  0
  9 10  2  0  0  0  0
 11 12  1  0  0  0  0
 12 13  1  0  0  0  0
 13 14  1  0  0  0  0
 14 15  1  0  0  0  0
 15 16  1  0  0  0  0
 16 11  1  0  0  0  0
 11 17  1  1  0  0  0
 13 18  1  1  0  0  0
 12 19  1  6  0  0  0
 14 20  1  6  0  0  0
 17 21  1  0  0  0  0
 15  1  1  1  0  0  0
  7 22  1  0  0  0  0
M  END
>  <cdx:fragmentId>
717

$$$$
