3182.cdx
  Mrv1902 05222410222D          

 21 22  0  0  0  0            999 V2000
    5.7646   -7.7584    0.0000 O   0  0  0  0  0  0  0  0  0  0  0  0
    6.4790   -7.3459    0.0000 C   0  0  0  0  0  0  0  0  0  0  0  0
    7.1935   -7.7584    0.0000 C   0  0  0  0  0  0  0  0  0  0  0  0
    7.9080   -7.3459    0.0000 C   0  0  0  0  0  0  0  0  0  0  0  0
    7.9080   -6.5209    0.0000 C   0  0  0  0  0  0  0  0  0  0  0  0
    7.1935   -6.1084    0.0000 C   0  0  0  0  0  0  0  0  0  0  0  0
    6.4790   -6.5209    0.0000 C   0  0  0  0  0  0  0  0  0  0  0  0
    8.6224   -6.1084    0.0000 C   0  0  0  0  0  0  0  0  0  0  0  0
    9.3369   -6.5209    0.0000 C   0  0  0  0  0  0  0  0  0  0  0  0
   10.0514   -6.1084    0.0000 C   0  0  0  0  0  0  0  0  0  0  0  0
    5.0547   -9.8244    0.0000 C   0  0  2  0  0  0  0  0  0  0  0  0
    5.7697  -10.2359    0.0000 C   0  0  2  0  0  0  0  0  0  0  0  0
    6.4836   -9.8224    0.0000 C   0  0  1  0  0  0  0  0  0  0  0  0
    6.4825   -8.9974    0.0000 C   0  0  2  0  0  0  0  0  0  0  0  0
    5.7675   -8.5859    0.0000 C   0  0  1  0  0  0  0  0  0  0  0  0
    5.0536   -8.9994    0.0000 O   0  0  0  0  0  0  0  0  0  0  0  0
    4.3408  -10.2379    0.0000 C   0  0  0  0  0  0  0  0  0  0  0  0
    7.1987  -10.2340    0.0000 O   0  0  0  0  0  0  0  0  0  0  0  0
    5.7709  -11.0609    0.0000 O   0  0  0  0  0  0  0  0  0  0  0  0
    7.1964   -8.5840    0.0000 O   0  0  0  0  0  0  0  0  0  0  0  0
    4.3420  -11.0629    0.0000 O   0  0  0  0  0  0  0  0  0  0  0  0
  1  2  1  0  0  0  0
  2  3  2  0  0  0  0
  3  4  1  0  0  0  0
  4  5  2  0  0  0  0
  5  6  1  0  0  0  0
  6  7  2  0  0  0  0
  7  2  1  0  0  0  0
  5  8  1  0  0  0  0
  8  9  1  0  0  0  0
  9 10  2  0  0  0  0
 11 12  1  0  0  0  0
 12 13  1  0  0  0  0
 13 14  1  0  0  0  0
 14 15  1  0  0  0  0
 15 16  1  0  0  0  0
 16 11  1  0  0  0  0
 11 17  1  1  0  0  0
 13 18  1  1  0  0  0
 12 19  1  6  0  0  0
 14 20  1  6  0  0  0
 17 21  1  0  0  0  0
 15  1  1  1  0  0  0
M  END
>  <cdx:fragmentId>
717

$$$$
