318262.cdx
  Mrv1902 05222410202D          

 22 24  0  0  0  0            999 V2000
    6.7884  -10.3661    0.0000 O   0  0  0  0  0  0  0  0  0  0  0  0
    8.2173  -11.1911    0.0000 O   0  0  0  0  0  0  0  0  0  0  0  0
    8.9318   -9.1286    0.0000 C   0  0  0  0  0  0  0  0  0  0  0  0
    8.9318   -9.9536    0.0000 C   0  0  0  0  0  0  0  0  0  0  0  0
    8.2173  -10.3661    0.0000 C   0  0  0  0  0  0  0  0  0  0  0  0
    7.5028   -9.9536    0.0000 C   0  0  0  0  0  0  0  0  0  0  0  0
    7.5028   -9.1286    0.0000 C   0  0  0  0  0  0  0  0  0  0  0  0
    8.2173   -8.7161    0.0000 C   0  0  0  0  0  0  0  0  0  0  0  0
    5.3594   -7.8911    0.0000 O   0  0  0  0  0  0  0  0  0  0  0  0
    4.6450   -6.6536    0.0000 C   0  0  0  0  0  0  0  0  0  0  0  0
    5.3594   -6.2411    0.0000 O   0  0  0  0  0  0  0  0  0  0  0  0
    9.6463   -6.2411    0.0000 O   0  0  0  0  0  0  0  0  0  0  0  0
    8.2173   -6.2411    0.0000 O   0  0  0  0  0  0  0  0  0  0  0  0
    7.5028   -6.6536    0.0000 C   0  0  0  0  0  0  0  0  0  0  0  0
    6.7884   -6.2411    0.0000 C   0  0  0  0  0  0  0  0  0  0  0  0
    6.0739   -6.6536    0.0000 C   0  0  0  0  0  0  0  0  0  0  0  0
    6.0739   -7.4786    0.0000 C   0  0  0  0  0  0  0  0  0  0  0  0
    6.7884   -7.8911    0.0000 C   0  0  0  0  0  0  0  0  0  0  0  0
    7.5028   -7.4786    0.0000 C   0  0  0  0  0  0  0  0  0  0  0  0
    8.2173   -7.8911    0.0000 C   0  0  0  0  0  0  0  0  0  0  0  0
    8.9318   -7.4786    0.0000 C   0  0  0  0  0  0  0  0  0  0  0  0
    8.9318   -6.6536    0.0000 C   0  0  0  0  0  0  0  0  0  0  0  0
 20  8  1  0  0  0  0
  6  1  1  0  0  0  0
  5  2  1  0  0  0  0
  8  3  2  0  0  0  0
  4  3  1  0  0  0  0
  5  4  2  0  0  0  0
  6  5  1  0  0  0  0
  7  6  2  0  0  0  0
  8  7  1  0  0  0  0
 17  9  1  0  0  0  0
 16 11  1  0  0  0  0
 11 10  1  0  0  0  0
 22 12  2  0  0  0  0
 22 13  1  0  0  0  0
 14 13  1  0  0  0  0
 19 14  2  0  0  0  0
 15 14  1  0  0  0  0
 16 15  2  0  0  0  0
 17 16  1  0  0  0  0
 18 17  2  0  0  0  0
 19 18  1  0  0  0  0
 20 19  1  0  0  0  0
 21 20  2  0  0  0  0
 22 21  1  0  0  0  0
M  END
>  <cdx:fragmentId>
5

$$$$
