3183.cdx
  Mrv1902 05222410222D          

 34 38  0  0  0  0            999 V2000
    8.0402   -4.7506    0.0000 C   0  0  2  0  0  0  0  0  0  0  0  0
    8.0402   -5.5756    0.0000 C   0  0  0  0  0  0  0  0  0  0  0  0
    8.7546   -5.9881    0.0000 C   0  0  1  0  0  0  0  0  0  0  0  0
    9.4691   -5.5756    0.0000 C   0  0  0  0  0  0  0  0  0  0  0  0
    9.4691   -4.7506    0.0000 C   0  0  0  0  0  0  0  0  0  0  0  0
    8.7546   -4.3381    0.0000 C   0  0  1  0  0  0  0  0  0  0  0  0
    5.1114   -4.7506    0.0000 C   0  0  2  0  0  0  0  0  0  0  0  0
    5.1114   -5.5756    0.0000 C   0  0  2  0  0  0  0  0  0  0  0  0
    5.8259   -5.9881    0.0000 C   0  0  1  0  0  0  0  0  0  0  0  0
    6.5403   -5.5756    0.0000 C   0  0  2  0  0  0  0  0  0  0  0  0
    6.5403   -4.7506    0.0000 C   0  0  1  0  0  0  0  0  0  0  0  0
    5.8259   -4.3381    0.0000 O   0  0  0  0  0  0  0  0  0  0  0  0
    7.2548   -4.3381    0.0000 O   0  0  0  0  0  0  0  0  0  0  0  0
    4.3969   -4.3381    0.0000 C   0  0  0  0  0  0  0  0  0  0  0  0
    5.8259   -6.8131    0.0000 O   0  0  0  0  0  0  0  0  0  0  0  0
    7.2548   -5.9881    0.0000 O   0  0  0  0  0  0  0  0  0  0  0  0
    4.3969   -5.9881    0.0000 O   0  0  0  0  0  0  0  0  0  0  0  0
    3.6825   -4.7506    0.0000 O   0  0  0  0  0  0  0  0  0  0  0  0
    8.7546   -3.5131    0.0000 C   0  0  0  0  0  0  0  0  0  0  0  0
    8.7546   -5.1631    0.0000 C   0  0  2  0  0  0  0  0  0  0  0  0
    8.1125   -5.9950    0.0000 C   0  0  0  0  0  0  0  0  0  0  0  0
   10.2809   -4.3587    0.0000 O   0  0  0  0  0  0  0  0  0  0  0  0
   10.2809   -5.1631    0.0000 C   0  0  0  0  0  0  0  0  0  0  0  0
   10.1836   -5.9881    0.0000 O   0  0  0  0  0  0  0  0  0  0  0  0
    8.7546   -6.8131    0.0000 H   0  0  0  0  0  0  0  0  0  0  0  0
    8.1125   -6.8200    0.0000 O   0  0  0  0  0  0  0  0  0  0  0  0
    8.5722   -7.5051    0.0000 C   0  0  0  0  0  0  0  0  0  0  0  0
    9.3953   -7.4495    0.0000 O   0  0  0  0  0  0  0  0  0  0  0  0
    8.2087   -8.2457    0.0000 C   0  0  0  0  0  0  0  0  0  0  0  0
    7.3856   -8.3013    0.0000 C   0  0  0  0  0  0  0  0  0  0  0  0
    7.0222   -9.0419    0.0000 C   0  0  0  0  0  0  0  0  0  0  0  0
    7.4819   -9.7270    0.0000 C   0  0  0  0  0  0  0  0  0  0  0  0
    8.3050   -9.6714    0.0000 C   0  0  0  0  0  0  0  0  0  0  0  0
    8.6684   -8.9308    0.0000 C   0  0  0  0  0  0  0  0  0  0  0  0
  1  2  1  0  0  0  0
  2  3  1  0  0  0  0
  3  4  1  0  0  0  0
  4  5  1  0  0  0  0
  5  6  1  0  0  0  0
  6  1  1  0  0  0  0
  7  8  1  0  0  0  0
  8  9  1  0  0  0  0
  9 10  1  0  0  0  0
 10 11  1  0  0  0  0
 11 12  1  0  0  0  0
 12  7  1  0  0  0  0
 11 13  1  1  0  0  0
  7 14  1  1  0  0  0
  9 15  1  1  0  0  0
 10 16  1  6  0  0  0
  8 17  1  6  0  0  0
 14 18  1  0  0  0  0
  1 13  1  6  0  0  0
  6 19  1  6  0  0  0
  1 20  1  0  0  0  0
  3 20  1  0  0  0  0
 20 21  1  1  0  0  0
  6 22  1  0  0  0  0
 20 23  1  0  0  0  0
 22 23  1  0  0  0  0
  4 24  2  0  0  0  0
  3 25  1  1  0  0  0
 21 26  1  0  0  0  0
 26 27  1  0  0  0  0
 27 28  2  0  0  0  0
 27 29  1  0  0  0  0
 29 30  2  0  0  0  0
 30 31  1  0  0  0  0
 31 32  2  0  0  0  0
 32 33  1  0  0  0  0
 33 34  2  0  0  0  0
 34 29  1  0  0  0  0
M  END
>  <cdx:fragmentId>
5

$$$$
