31835.cdx
  Mrv1902 05222410182D          

 43 46  0  0  0  0            999 V2000
   11.0940   -8.1410    0.0000 C   0  0  0  0  0  0  0  0  0  0  0  0
   10.3754   -8.5463    0.0000 C   0  0  0  0  0  0  0  0  0  0  0  0
   10.3671   -9.3713    0.0000 C   0  0  0  0  0  0  0  0  0  0  0  0
   11.0774   -9.7909    0.0000 C   0  0  0  0  0  0  0  0  0  0  0  0
   11.7960   -9.3856    0.0000 C   0  0  0  0  0  0  0  0  0  0  0  0
   11.8043   -8.5607    0.0000 C   0  0  0  0  0  0  0  0  0  0  0  0
   11.0691  -10.6159    0.0000 O   0  0  0  0  0  0  0  0  0  0  0  0
   11.7794  -11.0355    0.0000 C   0  0  0  0  0  0  0  0  0  0  0  0
    9.6651   -8.1266    0.0000 O   0  0  0  0  0  0  0  0  0  0  0  0
   10.3920   -6.8964    0.0000 O   0  0  0  0  0  0  0  0  0  0  0  0
   11.8209   -6.9108    0.0000 C   0  0  0  0  0  0  0  0  0  0  0  0
    9.6485   -9.7765    0.0000 O   0  0  0  0  0  0  0  0  0  0  0  0
    6.7908   -9.7478    0.0000 O   0  0  0  0  0  0  0  0  0  0  0  0
    8.1948  -12.2370    0.0000 O   0  0  0  0  0  0  0  0  0  0  0  0
    6.7576  -13.0476    0.0000 O   0  0  0  0  0  0  0  0  0  0  0  0
    5.3370  -12.2083    0.0000 O   0  0  0  0  0  0  0  0  0  0  0  0
    4.6350  -10.9636    0.0000 O   0  0  0  0  0  0  0  0  0  0  0  0
    5.3536  -10.5584    0.0000 C   0  0  0  0  0  0  0  0  0  0  0  0
    6.0639  -10.9780    0.0000 C   0  0  2  0  0  0  0  0  0  0  0  0
    6.0556  -11.8030    0.0000 C   0  0  2  0  0  0  0  0  0  0  0  0
    6.7659  -12.2227    0.0000 C   0  0  1  0  0  0  0  0  0  0  0  0
    7.4845  -11.8174    0.0000 C   0  0  2  0  0  0  0  0  0  0  0  0
    7.4928  -10.9924    0.0000 C   0  0  1  0  0  0  0  0  0  0  0  0
    6.7825  -10.5727    0.0000 O   0  0  0  0  0  0  0  0  0  0  0  0
    8.2114  -10.5871    0.0000 O   0  0  0  0  0  0  0  0  0  0  0  0
    6.1054   -6.8532    0.0000 O   0  0  0  0  0  0  0  0  0  0  0  0
    4.6849   -6.0139    0.0000 O   0  0  0  0  0  0  0  0  0  0  0  0
    3.2477   -6.8245    0.0000 O   0  0  0  0  0  0  0  0  0  0  0  0
    3.9497   -8.0691    0.0000 C   0  0  0  0  0  0  0  0  0  0  0  0
    3.9580   -7.2441    0.0000 C   0  0  1  0  0  0  0  0  0  0  0  0
    4.6765   -6.8389    0.0000 C   0  0  1  0  0  0  0  0  0  0  0  0
    5.3868   -7.2585    0.0000 C   0  0  2  0  0  0  0  0  0  0  0  0
    5.3785   -8.0835    0.0000 C   0  0  1  0  0  0  0  0  0  0  0  0
    4.6599   -8.4888    0.0000 O   0  0  0  0  0  0  0  0  0  0  0  0
    6.0888   -8.5031    0.0000 O   0  0  0  0  0  0  0  0  0  0  0  0
    6.8074   -8.0979    0.0000 C   0  0  0  0  0  0  0  0  0  0  0  0
    7.5177   -8.5175    0.0000 C   0  0  2  0  0  0  0  0  0  0  0  0
    7.5094   -9.3425    0.0000 C   0  0  2  0  0  0  0  0  0  0  0  0
    8.2197   -9.7622    0.0000 C   0  0  1  0  0  0  0  0  0  0  0  0
    8.9382   -9.3569    0.0000 C   0  0  2  0  0  0  0  0  0  0  0  0
    8.9466   -8.5319    0.0000 C   0  0  1  0  0  0  0  0  0  0  0  0
    8.2363   -8.1122    0.0000 O   0  0  0  0  0  0  0  0  0  0  0  0
   11.1023   -7.3160    0.0000 C   0  0  0  0  0  0  0  0  0  0  0  0
 43 10  2  0  0  0  0
 43 11  1  0  0  0  0
 41  9  1  1  0  0  0
 40 12  1  6  0  0  0
 38 13  1  6  0  0  0
 39 25  1  1  0  0  0
 23 25  1  1  0  0  0
 22 14  1  6  0  0  0
 21 15  1  1  0  0  0
 20 16  1  6  0  0  0
 19 18  1  1  0  0  0
 18 17  1  0  0  0  0
 24 19  1  0  0  0  0
 20 19  1  0  0  0  0
 21 20  1  0  0  0  0
 22 21  1  0  0  0  0
 23 22  1  0  0  0  0
 24 23  1  0  0  0  0
 37 36  1  1  0  0  0
 36 35  1  0  0  0  0
 33 35  1  6  0  0  0
 32 26  1  1  0  0  0
 31 27  1  6  0  0  0
 30 28  1  6  0  0  0
 34 29  1  0  0  0  0
 30 29  1  0  0  0  0
 31 30  1  0  0  0  0
 32 31  1  0  0  0  0
 33 32  1  0  0  0  0
 34 33  1  0  0  0  0
 42 37  1  0  0  0  0
 38 37  1  0  0  0  0
 39 38  1  0  0  0  0
 40 39  1  0  0  0  0
 41 40  1  0  0  0  0
 42 41  1  0  0  0  0
  1  2  1  0  0  0  0
  2  3  2  0  0  0  0
  3  4  1  0  0  0  0
  4  5  2  0  0  0  0
  5  6  1  0  0  0  0
  1  6  2  0  0  0  0
  7  8  1  0  0  0  0
  4  7  1  0  0  0  0
  2  9  1  0  0  0  0
 43  1  1  0  0  0  0
M  END
>  <cdx:fragmentId>
36400

$$$$
