318393.cdx
  Mrv1902 05222410232D          

 18 17  0  0  0  0            999 V2000
   11.2378   -5.5555    0.0000 O   0  0  0  0  0  0  0  0  0  0  0  0
   11.9411   -6.7994    0.0000 O   0  0  0  0  0  0  0  0  0  0  0  0
    9.0535  -10.0735    0.0000 C   0  0  0  0  0  0  0  0  0  0  0  0
    9.0610   -9.2485    0.0000 C   0  0  0  0  0  0  0  0  0  0  0  0
    9.7792   -8.8425    0.0000 C   0  0  0  0  0  0  0  0  0  0  0  0
    9.7866   -8.0175    0.0000 C   0  0  0  0  0  0  0  0  0  0  0  0
   10.5048   -7.6115    0.0000 C   0  0  0  0  0  0  0  0  0  0  0  0
   10.5122   -6.7865    0.0000 C   0  0  0  0  0  0  0  0  0  0  0  0
   11.2304   -6.3805    0.0000 C   0  0  0  0  0  0  0  0  0  0  0  0
    2.6306  -10.4775    0.0000 C   0  0  0  0  0  0  0  0  0  0  0  0
    3.3451  -10.0650    0.0000 C   0  0  0  0  0  0  0  0  0  0  0  0
    4.0596  -10.4775    0.0000 C   0  0  0  0  0  0  0  0  0  0  0  0
    4.7741  -10.0650    0.0000 C   0  0  0  0  0  0  0  0  0  0  0  0
    5.4885  -10.4775    0.0000 C   0  0  0  0  0  0  0  0  0  0  0  0
    6.2030  -10.0650    0.0000 C   0  0  0  0  0  0  0  0  0  0  0  0
    6.9175  -10.4775    0.0000 C   0  0  0  0  0  0  0  0  0  0  0  0
    7.6319  -10.0650    0.0000 C   0  0  0  0  0  0  0  0  0  0  0  0
    8.3464  -10.4775    0.0000 C   0  0  0  0  0  0  0  0  0  0  0  0
  9  1  1  0  0  0  0
  9  2  2  0  0  0  0
  4  3  1  0  0  0  0
  5  4  1  0  0  0  0
  6  5  1  0  0  0  0
  7  6  1  0  0  0  0
  8  7  1  0  0  0  0
  9  8  1  0  0  0  0
 10 11  1  0  0  0  0
 11 12  1  0  0  0  0
 12 13  1  0  0  0  0
 13 14  1  0  0  0  0
 14 15  1  0  0  0  0
 15 16  1  0  0  0  0
 16 17  1  0  0  0  0
 17 18  1  0  0  0  0
 18  3  2  0  0  0  0
M  END
>  <cdx:fragmentId>
5

$$$$
