318484.cdx
  Mrv1902 05222410272D          

 33 36  0  0  0  0            999 V2000
    4.8409   -7.9321    0.0000 C   0  0  0  0  0  0  0  0  0  0  0  0
    5.5554   -7.5196    0.0000 O   0  0  0  0  0  0  0  0  0  0  0  0
    6.2698   -6.2821    0.0000 C   0  0  0  0  0  0  0  0  0  0  0  0
    6.9843   -6.6946    0.0000 O   0  0  0  0  0  0  0  0  0  0  0  0
    9.8422   -6.6946    0.0000 C   0  0  0  0  0  0  0  0  0  0  0  0
   10.5567   -6.2821    0.0000 C   0  0  0  0  0  0  0  0  0  0  0  0
   11.2711   -6.6946    0.0000 C   0  0  0  0  0  0  0  0  0  0  0  0
   11.2711   -7.5196    0.0000 C   0  0  0  0  0  0  0  0  0  0  0  0
   10.5567   -7.9321    0.0000 C   0  0  0  0  0  0  0  0  0  0  0  0
    9.8422   -7.5196    0.0000 C   0  0  0  0  0  0  0  0  0  0  0  0
    6.9843  -11.6446    0.0000 O   0  0  0  0  0  0  0  0  0  0  0  0
    5.5554  -12.4696    0.0000 O   0  0  0  0  0  0  0  0  0  0  0  0
    4.1264  -11.6446    0.0000 O   0  0  0  0  0  0  0  0  0  0  0  0
    3.4120  -10.4071    0.0000 O   0  0  0  0  0  0  0  0  0  0  0  0
    4.1264   -9.9946    0.0000 C   0  0  0  0  0  0  0  0  0  0  0  0
    4.8409  -10.4071    0.0000 C   0  0  2  0  0  0  0  0  0  0  0  0
    4.8409  -11.2321    0.0000 C   0  0  2  0  0  0  0  0  0  0  0  0
    5.5554  -11.6446    0.0000 C   0  0  1  0  0  0  0  0  0  0  0  0
    6.2698  -11.2321    0.0000 C   0  0  2  0  0  0  0  0  0  0  0  0
    6.2698  -10.4071    0.0000 C   0  0  1  0  0  0  0  0  0  0  0  0
    5.5554   -9.9946    0.0000 O   0  0  0  0  0  0  0  0  0  0  0  0
    6.9843   -9.9946    0.0000 O   0  0  0  0  0  0  0  0  0  0  0  0
    8.4133   -9.9946    0.0000 O   0  0  0  0  0  0  0  0  0  0  0  0
    8.4133   -7.5196    0.0000 O   0  0  0  0  0  0  0  0  0  0  0  0
    7.6988   -7.9321    0.0000 C   0  0  0  0  0  0  0  0  0  0  0  0
    6.9843   -7.5196    0.0000 C   0  0  0  0  0  0  0  0  0  0  0  0
    6.2698   -7.9321    0.0000 C   0  0  0  0  0  0  0  0  0  0  0  0
    6.2698   -8.7571    0.0000 C   0  0  0  0  0  0  0  0  0  0  0  0
    6.9843   -9.1696    0.0000 C   0  0  0  0  0  0  0  0  0  0  0  0
    7.6988   -8.7571    0.0000 C   0  0  0  0  0  0  0  0  0  0  0  0
    8.4133   -9.1696    0.0000 C   0  0  0  0  0  0  0  0  0  0  0  0
    9.1277   -8.7571    0.0000 C   0  0  0  0  0  0  0  0  0  0  0  0
    9.1277   -7.9321    0.0000 C   0  0  0  0  0  0  0  0  0  0  0  0
 27  2  1  0  0  0  0
  2  1  1  0  0  0  0
 26  4  1  0  0  0  0
  4  3  1  0  0  0  0
 33 10  1  0  0  0  0
 10  5  2  0  0  0  0
  6  5  1  0  0  0  0
  7  6  2  0  0  0  0
  8  7  1  0  0  0  0
  9  8  2  0  0  0  0
 10  9  1  0  0  0  0
 29 22  1  0  0  0  0
 20 22  1  1  0  0  0
 19 11  1  6  0  0  0
 18 12  1  1  0  0  0
 17 13  1  6  0  0  0
 16 15  1  1  0  0  0
 15 14  1  0  0  0  0
 21 16  1  0  0  0  0
 17 16  1  0  0  0  0
 18 17  1  0  0  0  0
 19 18  1  0  0  0  0
 20 19  1  0  0  0  0
 21 20  1  0  0  0  0
 31 23  2  0  0  0  0
 33 24  1  0  0  0  0
 25 24  1  0  0  0  0
 30 25  2  0  0  0  0
 26 25  1  0  0  0  0
 27 26  2  0  0  0  0
 28 27  1  0  0  0  0
 29 28  2  0  0  0  0
 30 29  1  0  0  0  0
 31 30  1  0  0  0  0
 32 31  1  0  0  0  0
 33 32  2  0  0  0  0
M  END
>  <cdx:fragmentId>
29

$$$$
