318487.cdx
  Mrv1902 05222410282D          

 35 38  0  0  0  0            999 V2000
    4.3038   -8.3869    0.0000 O   0  0  0  0  0  0  0  0  0  0  0  0
    5.0158   -7.1480    0.0000 O   0  0  0  0  0  0  0  0  0  0  0  0
    4.3022   -7.5619    0.0000 C   0  0  2  0  0  0  0  0  0  0  0  0
    3.5869   -7.1509    0.0000 C   0  0  1  0  0  0  0  0  0  0  0  0
    3.5852   -6.3259    0.0000 C   0  0  2  0  0  0  0  0  0  0  0  0
    4.2989   -5.9119    0.0000 C   0  0  1  0  0  0  0  0  0  0  0  0
    5.0142   -6.3230    0.0000 C   0  0  1  0  0  0  0  0  0  0  0  0
    5.7278   -5.9091    0.0000 C   0  0  0  0  0  0  0  0  0  0  0  0
    5.7278   -5.0841    0.0000 O   0  0  0  0  0  0  0  0  0  0  0  0
    4.2972   -5.0869    0.0000 O   0  0  0  0  0  0  0  0  0  0  0  0
    2.8700   -5.9148    0.0000 O   0  0  0  0  0  0  0  0  0  0  0  0
    2.8733   -7.5648    0.0000 O   0  0  0  0  0  0  0  0  0  0  0  0
    5.7328  -10.8619    0.0000 O   0  0  0  0  0  0  0  0  0  0  0  0
   10.7341  -11.2744    0.0000 O   0  0  0  0  0  0  0  0  0  0  0  0
   11.4485  -10.0369    0.0000 C   0  0  0  0  0  0  0  0  0  0  0  0
   10.7341   -9.6244    0.0000 O   0  0  0  0  0  0  0  0  0  0  0  0
    8.5907  -10.8619    0.0000 C   0  0  0  0  0  0  0  0  0  0  0  0
    9.3051  -11.2744    0.0000 C   0  0  0  0  0  0  0  0  0  0  0  0
   10.0196  -10.8619    0.0000 C   0  0  0  0  0  0  0  0  0  0  0  0
   10.0196  -10.0369    0.0000 C   0  0  0  0  0  0  0  0  0  0  0  0
    9.3051   -9.6244    0.0000 C   0  0  0  0  0  0  0  0  0  0  0  0
    8.5907  -10.0369    0.0000 C   0  0  0  0  0  0  0  0  0  0  0  0
    3.5894   -9.6244    0.0000 C   0  0  0  0  0  0  0  0  0  0  0  0
    4.3038  -10.0369    0.0000 O   0  0  0  0  0  0  0  0  0  0  0  0
    7.1617  -10.8619    0.0000 O   0  0  0  0  0  0  0  0  0  0  0  0
    7.1617   -8.3869    0.0000 O   0  0  0  0  0  0  0  0  0  0  0  0
    6.4472   -8.7994    0.0000 C   0  0  0  0  0  0  0  0  0  0  0  0
    5.7328   -8.3869    0.0000 C   0  0  0  0  0  0  0  0  0  0  0  0
    5.0183   -8.7994    0.0000 C   0  0  0  0  0  0  0  0  0  0  0  0
    5.0183   -9.6244    0.0000 C   0  0  0  0  0  0  0  0  0  0  0  0
    5.7328  -10.0369    0.0000 C   0  0  0  0  0  0  0  0  0  0  0  0
    6.4472   -9.6244    0.0000 C   0  0  0  0  0  0  0  0  0  0  0  0
    7.1617  -10.0369    0.0000 C   0  0  0  0  0  0  0  0  0  0  0  0
    7.8762   -9.6244    0.0000 C   0  0  0  0  0  0  0  0  0  0  0  0
    7.8762   -8.7994    0.0000 C   0  0  0  0  0  0  0  0  0  0  0  0
 31 13  1  0  0  0  0
 34 22  1  0  0  0  0
 19 14  1  0  0  0  0
 20 16  1  0  0  0  0
 16 15  1  0  0  0  0
 22 17  2  0  0  0  0
 18 17  1  0  0  0  0
 19 18  2  0  0  0  0
 20 19  1  0  0  0  0
 21 20  2  0  0  0  0
 22 21  1  0  0  0  0
 30 24  1  0  0  0  0
 24 23  1  0  0  0  0
 29  1  1  0  0  0  0
 33 25  2  0  0  0  0
 35 26  1  0  0  0  0
 27 26  1  0  0  0  0
 32 27  2  0  0  0  0
 28 27  1  0  0  0  0
 29 28  2  0  0  0  0
 30 29  1  0  0  0  0
 31 30  2  0  0  0  0
 32 31  1  0  0  0  0
 33 32  1  0  0  0  0
 34 33  1  0  0  0  0
 35 34  2  0  0  0  0
  2  3  1  0  0  0  0
  3  4  1  0  0  0  0
  4  5  1  0  0  0  0
  5  6  1  0  0  0  0
  6  7  1  0  0  0  0
  2  7  1  0  0  0  0
  8  9  1  0  0  0  0
  7  8  1  1  0  0  0
  6 10  1  6  0  0  0
  5 11  1  1  0  0  0
  4 12  1  6  0  0  0
  3  1  1  1  0  0  0
M  END
>  <cdx:fragmentId>
29

$$$$
