318463.cdx
  Mrv1902 05222410192D          

 33 33  0  0  0  0            999 V2000
    5.0478   -9.9875    0.0000 C   0  0  0  0  0  0  0  0  0  0  0  0
    1.4658   -7.4048    0.0000 O   0  0  0  0  0  0  0  0  0  0  0  0
    3.1028   -8.8486    0.0000 C   0  0  0  0  0  0  0  0  0  0  0  0
    3.9278   -8.8560    0.0000 C   0  0  1  0  0  0  0  0  0  0  0  0
    3.9149  -10.2849    0.0000 C   0  0  1  0  0  0  0  0  0  0  0  0
    3.0900  -10.2774    0.0000 C   0  0  0  0  0  0  0  0  0  0  0  0
    2.6839   -9.5593    0.0000 C   0  0  0  0  0  0  0  0  0  0  0  0
    5.1321   -9.3113    0.0000 C   0  0  0  0  0  0  0  0  0  0  0  0
    5.7612   -9.8451    0.0000 C   0  0  0  0  0  0  0  0  0  0  0  0
    6.5380   -9.5673    0.0000 C   0  0  0  0  0  0  0  0  0  0  0  0
    7.1670  -10.1011    0.0000 C   0  0  0  0  0  0  0  0  0  0  0  0
    7.9438   -9.8232    0.0000 C   0  0  0  0  0  0  0  0  0  0  0  0
    8.5728  -10.3570    0.0000 C   0  0  0  0  0  0  0  0  0  0  0  0
    9.3496  -10.0792    0.0000 C   0  0  0  0  0  0  0  0  0  0  0  0
    9.9787  -10.6129    0.0000 C   0  0  0  0  0  0  0  0  0  0  0  0
   10.7555  -10.3351    0.0000 C   0  0  0  0  0  0  0  0  0  0  0  0
   11.3845  -10.8689    0.0000 C   0  0  0  0  0  0  0  0  0  0  0  0
   12.1613  -10.5910    0.0000 C   0  0  0  0  0  0  0  0  0  0  0  0
   12.7903  -11.1248    0.0000 C   0  0  0  0  0  0  0  0  0  0  0  0
   13.5671  -10.8470    0.0000 C   0  0  0  0  0  0  0  0  0  0  0  0
   12.6426  -11.9365    0.0000 C   0  0  0  0  0  0  0  0  0  0  0  0
    9.8309  -11.4246    0.0000 C   0  0  0  0  0  0  0  0  0  0  0  0
    3.9075  -11.1098    0.0000 O   0  0  0  0  0  0  0  0  0  0  0  0
    4.3467   -8.1453    0.0000 C   0  0  0  0  0  0  0  0  0  0  0  0
    3.9407   -7.4271    0.0000 C   0  0  0  0  0  0  0  0  0  0  0  0
    4.3596   -6.7164    0.0000 C   0  0  0  0  0  0  0  0  0  0  0  0
    3.9535   -5.9982    0.0000 O   0  0  0  0  0  0  0  0  0  0  0  0
    4.6256  -10.7038    0.0000 C   0  0  0  0  0  0  0  0  0  0  0  0
    3.1157   -7.4197    0.0000 C   0  0  0  0  0  0  0  0  0  0  0  0
    2.6968   -8.1304    0.0000 C   0  0  0  0  0  0  0  0  0  0  0  0
    1.8718   -8.1230    0.0000 C   0  0  0  0  0  0  0  0  0  0  0  0
    7.0192  -10.9127    0.0000 C   0  0  0  0  0  0  0  0  0  0  0  0
    4.3338   -9.5741    0.0000 C   0  0  1  0  0  0  0  0  0  0  0  0
 33  8  1  0  0  0  0
 33  1  1  6  0  0  0
 31  2  2  0  0  0  0
 30 29  1  0  0  0  0
 31 30  1  0  0  0  0
  3  4  1  0  0  0  0
  4 33  1  0  0  0  0
 33  5  1  0  0  0  0
  5  6  1  0  0  0  0
  6  7  1  0  0  0  0
  3  7  1  0  0  0  0
  8  9  1  0  0  0  0
  9 10  1  0  0  0  0
 10 11  2  0  0  0  0
 11 12  1  0  0  0  0
 12 13  1  0  0  0  0
 13 14  1  0  0  0  0
 14 15  2  0  0  0  0
 15 16  1  0  0  0  0
 16 17  1  0  0  0  0
 17 18  1  0  0  0  0
 18 19  2  0  0  0  0
 19 20  1  0  0  0  0
 19 21  1  0  0  0  0
 15 22  1  0  0  0  0
 11 32  1  0  0  0  0
  5 23  1  1  0  0  0
 24 25  1  0  0  0  0
 25 26  1  0  0  0  0
 26 27  1  0  0  0  0
  4 24  1  1  0  0  0
  5 28  1  0  0  0  0
 30  3  2  0  0  0  0
M  END
>  <cdx:fragmentId>
25

$$$$
