318585.cdx
  Mrv1902 05222410252D          

 26 28  0  0  0  0            999 V2000
   11.1604   -5.9290    0.0000 C   0  0  0  0  0  0  0  0  0  0  0  0
   11.1604   -6.7540    0.0000 C   0  0  0  0  0  0  0  0  0  0  0  0
   10.4460   -7.1665    0.0000 C   0  0  0  0  0  0  0  0  0  0  0  0
    9.7315   -6.7540    0.0000 C   0  0  0  0  0  0  0  0  0  0  0  0
    9.0170   -7.1665    0.0000 C   0  0  0  0  0  0  0  0  0  0  0  0
    9.0170   -7.9915    0.0000 C   0  0  0  0  0  0  0  0  0  0  0  0
    8.3026   -8.4040    0.0000 C   0  0  0  0  0  0  0  0  0  0  0  0
    7.5880   -7.9915    0.0000 C   0  0  0  0  0  0  0  0  0  0  0  0
    7.5880   -7.1665    0.0000 C   0  0  0  0  0  0  0  0  0  0  0  0
    8.3026   -6.7540    0.0000 C   0  0  0  0  0  0  0  0  0  0  0  0
    6.8736   -6.7540    0.0000 C   0  0  0  0  0  0  0  0  0  0  0  0
    6.8736   -5.9290    0.0000 C   0  0  0  0  0  0  0  0  0  0  0  0
    6.1591   -5.5165    0.0000 C   0  0  0  0  0  0  0  0  0  0  0  0
    6.1591   -4.6915    0.0000 O   0  0  0  0  0  0  0  0  0  0  0  0
    5.4446   -5.9290    0.0000 C   0  0  0  0  0  0  0  0  0  0  0  0
    4.7302   -5.5165    0.0000 C   0  0  0  0  0  0  0  0  0  0  0  0
    4.0157   -5.9290    0.0000 C   0  0  0  0  0  0  0  0  0  0  0  0
    4.0157   -6.7540    0.0000 C   0  0  0  0  0  0  0  0  0  0  0  0
    4.7302   -7.1665    0.0000 C   0  0  0  0  0  0  0  0  0  0  0  0
    5.4446   -6.7540    0.0000 C   0  0  0  0  0  0  0  0  0  0  0  0
    6.1591   -7.1665    0.0000 O   0  0  0  0  0  0  0  0  0  0  0  0
    3.3012   -7.1665    0.0000 O   0  0  0  0  0  0  0  0  0  0  0  0
    4.7302   -4.6915    0.0000 O   0  0  0  0  0  0  0  0  0  0  0  0
    7.5880   -5.5165    0.0000 O   0  0  0  0  0  0  0  0  0  0  0  0
    9.7315   -8.4040    0.0000 O   0  0  0  0  0  0  0  0  0  0  0  0
   11.8749   -7.1665    0.0000 C   0  0  0  0  0  0  0  0  0  0  0  0
  1  2  1  0  0  0  0
  2  3  2  0  0  0  0
  3  4  1  0  0  0  0
  4  5  1  0  0  0  0
  5  6  2  0  0  0  0
  6  7  1  0  0  0  0
  7  8  2  0  0  0  0
  8  9  1  0  0  0  0
  9 10  2  0  0  0  0
  5 10  1  0  0  0  0
  9 11  1  0  0  0  0
 11 12  2  0  0  0  0
 12 13  1  0  0  0  0
 13 14  2  0  0  0  0
 13 15  1  0  0  0  0
 15 16  2  0  0  0  0
 16 17  1  0  0  0  0
 17 18  2  0  0  0  0
 18 19  1  0  0  0  0
 19 20  2  0  0  0  0
 15 20  1  0  0  0  0
 20 21  1  0  0  0  0
 11 21  1  0  0  0  0
 18 22  1  0  0  0  0
 16 23  1  0  0  0  0
 12 24  1  0  0  0  0
  6 25  1  0  0  0  0
  2 26  1  0  0  0  0
M  END
>  <cdx:fragmentId>
10687

$$$$
