318597.cdx
  Mrv1902 05222410242D          

 31 34  0  0  0  0            999 V2000
   10.3704   -7.4448    0.0000 C   0  0  0  0  0  0  0  0  0  0  0  0
   10.3678   -6.6198    0.0000 C   0  0  0  0  0  0  0  0  0  0  0  0
    9.6521   -6.2096    0.0000 C   0  0  0  0  0  0  0  0  0  0  0  0
    8.9389   -6.6243    0.0000 C   0  0  0  0  0  0  0  0  0  0  0  0
    8.9415   -7.4493    0.0000 C   0  0  0  0  0  0  0  0  0  0  0  0
    9.6572   -7.8596    0.0000 C   0  0  0  0  0  0  0  0  0  0  0  0
    8.2231   -6.2140    0.0000 O   0  0  0  0  0  0  0  0  0  0  0  0
    7.5100   -6.6287    0.0000 C   0  0  0  0  0  0  0  0  0  0  0  0
    7.5125   -7.4537    0.0000 C   0  0  0  0  0  0  0  0  0  0  0  0
    8.2283   -7.8640    0.0000 C   0  0  0  0  0  0  0  0  0  0  0  0
    6.7942   -6.2184    0.0000 C   0  0  0  0  0  0  0  0  0  0  0  0
    6.0810   -6.6332    0.0000 C   0  0  0  0  0  0  0  0  0  0  0  0
    6.0836   -7.4581    0.0000 C   0  0  0  0  0  0  0  0  0  0  0  0
    6.7993   -7.8684    0.0000 C   0  0  0  0  0  0  0  0  0  0  0  0
    6.8019   -8.6934    0.0000 O   0  0  0  0  0  0  0  0  0  0  0  0
   11.0861   -7.8551    0.0000 O   0  0  0  0  0  0  0  0  0  0  0  0
   11.0810   -6.2051    0.0000 O   0  0  0  0  0  0  0  0  0  0  0  0
    8.2308   -8.6890    0.0000 O   0  0  0  0  0  0  0  0  0  0  0  0
    5.3653   -6.2229    0.0000 O   0  0  0  0  0  0  0  0  0  0  0  0
    6.7916   -5.3934    0.0000 C   0  0  2  0  0  0  0  0  0  0  0  0
    7.5068   -4.9820    0.0000 O   0  0  0  0  0  0  0  0  0  0  0  0
    7.5068   -4.1570    0.0000 C   0  0  1  0  0  0  0  0  0  0  0  0
    6.7916   -3.7434    0.0000 C   0  0  2  0  0  0  0  0  0  0  0  0
    6.0765   -4.1570    0.0000 C   0  0  1  0  0  0  0  0  0  0  0  0
    6.0765   -4.9820    0.0000 C   0  0  1  0  0  0  0  0  0  0  0  0
    8.2214   -3.7448    0.0000 C   0  0  0  0  0  0  0  0  0  0  0  0
    5.3619   -3.7448    0.0000 O   0  0  0  0  0  0  0  0  0  0  0  0
    6.7916   -2.9184    0.0000 O   0  0  0  0  0  0  0  0  0  0  0  0
    5.3624   -5.3951    0.0000 O   0  0  0  0  0  0  0  0  0  0  0  0
    8.2217   -2.9198    0.0000 O   0  0  0  0  0  0  0  0  0  0  0  0
    7.5061   -5.8059    0.0000 H   0  0  0  0  0  0  0  0  0  0  0  0
  1  2  2  0  0  0  0
  2  3  1  0  0  0  0
  3  4  2  0  0  0  0
  4  5  1  0  0  0  0
  5  6  2  0  0  0  0
  6  1  1  0  0  0  0
  4  7  1  0  0  0  0
  7  8  1  0  0  0  0
  8  9  2  0  0  0  0
  9 10  1  0  0  0  0
 10  5  1  0  0  0  0
  8 11  1  0  0  0  0
 11 12  2  0  0  0  0
 12 13  1  0  0  0  0
 13 14  2  0  0  0  0
 14  9  1  0  0  0  0
 15 14  1  0  0  0  0
  1 16  1  0  0  0  0
  2 17  1  0  0  0  0
 10 18  2  0  0  0  0
 12 19  1  0  0  0  0
 11 20  1  0  0  0  0
 20 21  1  0  0  0  0
 21 22  1  0  0  0  0
 22 23  1  0  0  0  0
 23 24  1  0  0  0  0
 24 25  1  0  0  0  0
 25 20  1  0  0  0  0
 22 26  1  1  0  0  0
 24 27  1  1  0  0  0
 23 28  1  6  0  0  0
 25 29  1  6  0  0  0
 26 30  1  0  0  0  0
 20 31  1  6  0  0  0
M  END
>  <cdx:fragmentId>
5

$$$$
