318569.cdx
  Mrv1902 05222410242D          

 42 47  0  0  0  0            999 V2000
    8.7019  -12.5490    0.0000 C   0  0  0  0  0  0  0  0  0  0  0  0
    9.4166  -12.1369    0.0000 C   0  0  0  0  0  0  0  0  0  0  0  0
    9.4170  -11.3119    0.0000 C   0  0  0  0  0  0  0  0  0  0  0  0
    8.7028  -10.8990    0.0000 C   0  0  0  0  0  0  0  0  0  0  0  0
    7.9881  -11.3111    0.0000 C   0  0  0  0  0  0  0  0  0  0  0  0
    7.9876  -12.1361    0.0000 C   0  0  0  0  0  0  0  0  0  0  0  0
    8.7032  -10.0740    0.0000 C   0  0  0  0  0  0  0  0  0  0  0  0
    7.9890   -9.6611    0.0000 C   0  0  0  0  0  0  0  0  0  0  0  0
    7.2743  -10.0732    0.0000 C   0  0  0  0  0  0  0  0  0  0  0  0
    7.2738  -10.8982    0.0000 O   0  0  0  0  0  0  0  0  0  0  0  0
    8.7014  -13.3740    0.0000 O   0  0  0  0  0  0  0  0  0  0  0  0
   10.1317  -10.8998    0.0000 O   0  0  0  0  0  0  0  0  0  0  0  0
    9.4179   -9.6619    0.0000 O   0  0  0  0  0  0  0  0  0  0  0  0
    6.5601   -9.6603    0.0000 C   0  0  0  0  0  0  0  0  0  0  0  0
    6.5605   -8.8353    0.0000 C   0  0  0  0  0  0  0  0  0  0  0  0
    5.8463   -8.4224    0.0000 C   0  0  0  0  0  0  0  0  0  0  0  0
    5.1316   -8.8345    0.0000 C   0  0  0  0  0  0  0  0  0  0  0  0
    5.1311   -9.6595    0.0000 C   0  0  0  0  0  0  0  0  0  0  0  0
    5.8454  -10.0724    0.0000 C   0  0  0  0  0  0  0  0  0  0  0  0
    5.8467   -7.5974    0.0000 C   0  0  0  0  0  0  0  0  0  0  0  0
    5.1325   -7.1845    0.0000 C   0  0  0  0  0  0  0  0  0  0  0  0
    5.1330   -6.3595    0.0000 C   0  0  0  0  0  0  0  0  0  0  0  0
    5.8477   -5.9474    0.0000 C   0  0  0  0  0  0  0  0  0  0  0  0
    6.5619   -6.3603    0.0000 C   0  0  0  0  0  0  0  0  0  0  0  0
    6.5614   -7.1853    0.0000 C   0  0  0  0  0  0  0  0  0  0  0  0
    7.2766   -5.9482    0.0000 C   0  0  0  0  0  0  0  0  0  0  0  0
    7.9908   -6.3611    0.0000 C   0  0  0  0  0  0  0  0  0  0  0  0
    7.9904   -7.1861    0.0000 C   0  0  0  0  0  0  0  0  0  0  0  0
    7.2757   -7.5982    0.0000 O   0  0  0  0  0  0  0  0  0  0  0  0
    4.4178   -7.5966    0.0000 O   0  0  0  0  0  0  0  0  0  0  0  0
    5.8481   -5.1224    0.0000 O   0  0  0  0  0  0  0  0  0  0  0  0
    7.2771   -5.1232    0.0000 O   0  0  0  0  0  0  0  0  0  0  0  0
    8.7046   -7.5990    0.0000 C   0  0  0  0  0  0  0  0  0  0  0  0
    4.4173   -8.4216    0.0000 O   0  0  0  0  0  0  0  0  0  0  0  0
    3.7026   -8.8337    0.0000 C   0  0  0  0  0  0  0  0  0  0  0  0
    9.4193   -7.1869    0.0000 C   0  0  0  0  0  0  0  0  0  0  0  0
   10.1336   -7.5998    0.0000 C   0  0  0  0  0  0  0  0  0  0  0  0
   10.1331   -8.4248    0.0000 C   0  0  0  0  0  0  0  0  0  0  0  0
    9.4184   -8.8369    0.0000 C   0  0  0  0  0  0  0  0  0  0  0  0
    8.7042   -8.4240    0.0000 C   0  0  0  0  0  0  0  0  0  0  0  0
   10.8473   -8.8377    0.0000 O   0  0  0  0  0  0  0  0  0  0  0  0
   11.5621   -8.4256    0.0000 C   0  0  0  0  0  0  0  0  0  0  0  0
  1  2  1  0  0  0  0
  2  3  2  0  0  0  0
  3  4  1  0  0  0  0
  4  5  2  0  0  0  0
  5  6  1  0  0  0  0
  6  1  2  0  0  0  0
  4  7  1  0  0  0  0
  7  8  1  0  0  0  0
  8  9  2  0  0  0  0
  9 10  1  0  0  0  0
 10  5  1  0  0  0  0
  1 11  1  0  0  0  0
  3 12  1  0  0  0  0
  7 13  2  0  0  0  0
  9 14  1  0  0  0  0
 14 15  1  0  0  0  0
 15 16  2  0  0  0  0
 16 17  1  0  0  0  0
 17 18  2  0  0  0  0
 18 19  1  0  0  0  0
 19 14  2  0  0  0  0
 16 20  1  0  0  0  0
 20 21  1  0  0  0  0
 21 22  2  0  0  0  0
 22 23  1  0  0  0  0
 23 24  2  0  0  0  0
 24 25  1  0  0  0  0
 25 20  2  0  0  0  0
 24 26  1  0  0  0  0
 26 27  1  0  0  0  0
 27 28  2  0  0  0  0
 28 29  1  0  0  0  0
 29 25  1  0  0  0  0
 21 30  1  0  0  0  0
 23 31  1  0  0  0  0
 26 32  2  0  0  0  0
 28 33  1  0  0  0  0
 17 34  1  0  0  0  0
 34 35  1  0  0  0  0
 33 36  2  0  0  0  0
 36 37  1  0  0  0  0
 37 38  2  0  0  0  0
 38 39  1  0  0  0  0
 39 40  2  0  0  0  0
 40 33  1  0  0  0  0
 38 41  1  0  0  0  0
 41 42  1  0  0  0  0
M  END
>  <cdx:fragmentId>
10587

$$$$
