318521.cdx
  Mrv1902 05222410262D          

 23 25  0  0  0  0            999 V2000
    5.4595   -9.0690    0.0000 C   0  0  0  0  0  0  0  0  0  0  0  0
    5.4595   -9.8940    0.0000 C   0  0  0  0  0  0  0  0  0  0  0  0
    6.1740  -10.3065    0.0000 C   0  0  0  0  0  0  0  0  0  0  0  0
    6.8885   -9.8940    0.0000 C   0  0  0  0  0  0  0  0  0  0  0  0
    7.6029  -10.3065    0.0000 C   0  0  0  0  0  0  0  0  0  0  0  0
    8.3174   -9.8940    0.0000 C   0  0  0  0  0  0  0  0  0  0  0  0
    8.3174   -9.0690    0.0000 C   0  0  0  0  0  0  0  0  0  0  0  0
    7.6029   -8.6565    0.0000 C   0  0  0  0  0  0  0  0  0  0  0  0
    6.8885   -9.0690    0.0000 C   0  0  0  0  0  0  0  0  0  0  0  0
    6.1740   -8.6565    0.0000 O   0  0  0  0  0  0  0  0  0  0  0  0
    9.1020   -8.8141    0.0000 O   0  0  0  0  0  0  0  0  0  0  0  0
    9.1020  -10.1490    0.0000 C   0  0  0  0  0  0  0  0  0  0  0  0
    9.5869   -9.4815    0.0000 C   0  0  0  0  0  0  0  0  0  0  0  0
    4.7450   -8.6565    0.0000 O   0  0  0  0  0  0  0  0  0  0  0  0
    7.6029   -7.8315    0.0000 O   0  0  0  0  0  0  0  0  0  0  0  0
    8.3174   -7.4190    0.0000 C   0  0  0  0  0  0  0  0  0  0  0  0
    8.3174   -6.5940    0.0000 C   0  0  0  0  0  0  0  0  0  0  0  0
    9.0319   -6.1815    0.0000 C   0  0  0  0  0  0  0  0  0  0  0  0
    9.0319   -5.3565    0.0000 C   0  0  0  0  0  0  0  0  0  0  0  0
    7.6029   -6.1815    0.0000 O   0  0  0  0  0  0  0  0  0  0  0  0
    9.7463   -6.5940    0.0000 C   0  0  0  0  0  0  0  0  0  0  0  0
    7.6029  -11.1315    0.0000 O   0  0  0  0  0  0  0  0  0  0  0  0
    8.3174  -11.5440    0.0000 C   0  0  0  0  0  0  0  0  0  0  0  0
  1  2  1  0  0  0  0
  2  3  2  0  0  0  0
  3  4  1  0  0  0  0
  4  5  2  0  0  0  0
  5  6  1  0  0  0  0
  6  7  2  0  0  0  0
  7  8  1  0  0  0  0
  8  9  2  0  0  0  0
  4  9  1  0  0  0  0
  9 10  1  0  0  0  0
  1 10  1  0  0  0  0
 12 13  2  0  0  0  0
 11 13  1  0  0  0  0
 12  6  1  0  0  0  0
 11  7  1  0  0  0  0
  1 14  2  0  0  0  0
 16 17  1  0  0  0  0
 17 18  1  0  0  0  0
 18 19  1  0  0  0  0
 15 16  1  0  0  0  0
 17 20  2  0  0  0  0
 18 21  1  0  0  0  0
  8 15  1  0  0  0  0
 22 23  1  0  0  0  0
  5 22  1  0  0  0  0
M  END
>  <cdx:fragmentId>
5

$$$$
