5318619.cdx
  Mrv1902 05222410252D          

 31 34  0  0  0  0            999 V2000
    7.2478   -7.2145    0.0000 C   0  0  0  0  0  0  0  0  0  0  0  0
    7.9594   -7.6319    0.0000 C   0  0  0  0  0  0  0  0  0  0  0  0
    8.6767   -7.2242    0.0000 C   0  0  0  0  0  0  0  0  0  0  0  0
    8.6823   -6.3993    0.0000 C   0  0  0  0  0  0  0  0  0  0  0  0
    9.3995   -5.9916    0.0000 C   0  0  0  0  0  0  0  0  0  0  0  0
    9.4052   -5.1666    0.0000 C   0  0  0  0  0  0  0  0  0  0  0  0
    8.6935   -4.7493    0.0000 C   0  0  0  0  0  0  0  0  0  0  0  0
    7.9762   -5.1569    0.0000 C   0  0  0  0  0  0  0  0  0  0  0  0
    7.9706   -5.9819    0.0000 C   0  0  0  0  0  0  0  0  0  0  0  0
    7.2534   -6.3895    0.0000 O   0  0  0  0  0  0  0  0  0  0  0  0
    9.3883   -7.6416    0.0000 O   0  0  0  0  0  0  0  0  0  0  0  0
    7.9538   -8.4568    0.0000 C   0  0  0  0  0  0  0  0  0  0  0  0
    8.6654   -8.8742    0.0000 C   0  0  0  0  0  0  0  0  0  0  0  0
    8.6598   -9.6992    0.0000 C   0  0  0  0  0  0  0  0  0  0  0  0
    7.9426  -10.1068    0.0000 C   0  0  0  0  0  0  0  0  0  0  0  0
    7.2309   -9.6895    0.0000 C   0  0  0  0  0  0  0  0  0  0  0  0
    7.2365   -8.8645    0.0000 C   0  0  0  0  0  0  0  0  0  0  0  0
    8.6991   -3.9243    0.0000 O   0  0  0  0  0  0  0  0  0  0  0  0
    9.4164   -3.5167    0.0000 C   0  0  0  0  0  0  0  0  0  0  0  0
    7.9641  -12.5816    0.0000 O   0  0  0  0  0  0  0  0  0  0  0  0
    6.5489  -13.4300    0.0000 O   0  0  0  0  0  0  0  0  0  0  0  0
    5.1066  -12.6286    0.0000 O   0  0  0  0  0  0  0  0  0  0  0  0
    4.3719  -11.4030    0.0000 O   0  0  0  0  0  0  0  0  0  0  0  0
    5.0795  -10.9788    0.0000 C   0  0  0  0  0  0  0  0  0  0  0  0
    5.8006  -11.3795    0.0000 C   0  0  2  0  0  0  0  0  0  0  0  0
    5.8142  -12.2044    0.0000 C   0  0  2  0  0  0  0  0  0  0  0  0
    6.5353  -12.6051    0.0000 C   0  0  1  0  0  0  0  0  0  0  0  0
    7.2429  -12.1809    0.0000 C   0  0  2  0  0  0  0  0  0  0  0  0
    7.2294  -11.3560    0.0000 C   0  0  1  0  0  0  0  0  0  0  0  0
    6.5082  -10.9553    0.0000 O   0  0  0  0  0  0  0  0  0  0  0  0
    7.9369  -10.9318    0.0000 O   0  0  0  0  0  0  0  0  0  0  0  0
 29 31  1  1  0  0  0
 28 20  1  6  0  0  0
 27 21  1  1  0  0  0
 26 22  1  6  0  0  0
 25 24  1  1  0  0  0
 24 23  1  0  0  0  0
 30 25  1  0  0  0  0
 26 25  1  0  0  0  0
 27 26  1  0  0  0  0
 28 27  1  0  0  0  0
 29 28  1  0  0  0  0
 30 29  1  0  0  0  0
  1  2  2  0  0  0  0
  2  3  1  0  0  0  0
  3  4  1  0  0  0  0
  4  5  1  0  0  0  0
  5  6  2  0  0  0  0
  6  7  1  0  0  0  0
  7  8  2  0  0  0  0
  8  9  1  0  0  0  0
  4  9  2  0  0  0  0
  9 10  1  0  0  0  0
  1 10  1  0  0  0  0
  3 11  2  0  0  0  0
 12 13  1  0  0  0  0
 13 14  2  0  0  0  0
 14 15  1  0  0  0  0
 15 16  2  0  0  0  0
 16 17  1  0  0  0  0
 12 17  2  0  0  0  0
 15 31  1  0  0  0  0
  2 12  1  0  0  0  0
 18 19  1  0  0  0  0
  7 18  1  0  0  0  0
M  END
>  <cdx:fragmentId>
10886

$$$$
