318659.cdx
  Mrv1902 05222410192D          

 31 33  0  0  0  0            999 V2000
    5.3476   -9.0827    0.0000 O   0  0  0  0  0  0  0  0  0  0  0  0
    3.9186   -6.6077    0.0000 O   0  0  0  0  0  0  0  0  0  0  0  0
    5.3476   -5.7827    0.0000 O   0  0  0  0  0  0  0  0  0  0  0  0
    5.3476   -4.1327    0.0000 O   0  0  0  0  0  0  0  0  0  0  0  0
    6.7765   -3.3077    0.0000 O   0  0  0  0  0  0  0  0  0  0  0  0
    8.2055   -3.3077    0.0000 O   0  0  0  0  0  0  0  0  0  0  0  0
    8.2055   -4.1327    0.0000 C   0  0  0  0  0  0  0  0  0  0  0  0
    7.4910   -4.5452    0.0000 C   0  0  2  0  0  0  0  0  0  0  0  0
    6.7765   -4.1327    0.0000 C   0  0  2  0  0  0  0  0  0  0  0  0
    6.0621   -4.5452    0.0000 C   0  0  1  0  0  0  0  0  0  0  0  0
    6.0621   -5.3702    0.0000 C   0  0  2  0  0  0  0  0  0  0  0  0
    6.7765   -5.7827    0.0000 C   0  0  1  0  0  0  0  0  0  0  0  0
    7.4910   -5.3702    0.0000 O   0  0  0  0  0  0  0  0  0  0  0  0
    6.7765   -6.6077    0.0000 O   0  0  0  0  0  0  0  0  0  0  0  0
    6.0621   -7.0202    0.0000 C   0  0  0  0  0  0  0  0  0  0  0  0
    5.3476   -6.6077    0.0000 C   0  0  0  0  0  0  0  0  0  0  0  0
    4.6331   -7.0202    0.0000 C   0  0  0  0  0  0  0  0  0  0  0  0
    4.6331   -7.8452    0.0000 C   0  0  0  0  0  0  0  0  0  0  0  0
    5.3476   -8.2577    0.0000 C   0  0  0  0  0  0  0  0  0  0  0  0
    6.0621   -7.8452    0.0000 C   0  0  0  0  0  0  0  0  0  0  0  0
   11.0634   -6.6077    0.0000 O   0  0  0  0  0  0  0  0  0  0  0  0
    8.9199   -7.0202    0.0000 C   0  0  0  0  0  0  0  0  0  0  0  0
    9.6344   -6.6077    0.0000 C   0  0  0  0  0  0  0  0  0  0  0  0
   10.3489   -7.0202    0.0000 C   0  0  0  0  0  0  0  0  0  0  0  0
   10.3489   -7.8452    0.0000 C   0  0  0  0  0  0  0  0  0  0  0  0
    9.6344   -8.2577    0.0000 C   0  0  0  0  0  0  0  0  0  0  0  0
    8.9199   -7.8452    0.0000 C   0  0  0  0  0  0  0  0  0  0  0  0
    6.7765   -9.0827    0.0000 O   0  0  0  0  0  0  0  0  0  0  0  0
    8.2055   -8.2577    0.0000 C   0  0  0  0  0  0  0  0  0  0  0  0
    7.4910   -7.8452    0.0000 C   0  0  0  0  0  0  0  0  0  0  0  0
    6.7765   -8.2577    0.0000 C   0  0  0  0  0  0  0  0  0  0  0  0
 31 20  1  0  0  0  0
 19  1  1  0  0  0  0
 17  2  1  0  0  0  0
 15 14  1  0  0  0  0
 12 14  1  1  0  0  0
 11  3  1  6  0  0  0
 10  4  1  1  0  0  0
  9  5  1  6  0  0  0
  8  7  1  1  0  0  0
  7  6  1  0  0  0  0
 13  8  1  0  0  0  0
  9  8  1  0  0  0  0
 10  9  1  0  0  0  0
 11 10  1  0  0  0  0
 12 11  1  0  0  0  0
 13 12  1  0  0  0  0
 20 15  2  0  0  0  0
 16 15  1  0  0  0  0
 17 16  2  0  0  0  0
 18 17  1  0  0  0  0
 19 18  2  0  0  0  0
 20 19  1  0  0  0  0
 29 27  1  0  0  0  0
 24 21  1  0  0  0  0
 27 22  2  0  0  0  0
 23 22  1  0  0  0  0
 24 23  2  0  0  0  0
 25 24  1  0  0  0  0
 26 25  2  0  0  0  0
 27 26  1  0  0  0  0
 31 28  2  0  0  0  0
 30 29  2  0  0  0  0
 31 30  1  0  0  0  0
M  END
>  <cdx:groupId>
97

>  <cdx:fragmentId>
41

$$$$
