318673.cdx
  Mrv1902 05222410202D          

 16 16  0  0  0  0            999 V2000
    8.8275   -5.1150    0.0000 C   0  0  0  0  0  0  0  0  0  0  0  0
    8.0025   -5.1150    0.0000 C   0  0  0  0  0  0  0  0  0  0  0  0
    7.2668   -5.1022    0.0000 C   0  0  0  0  0  0  0  0  0  0  0  0
    8.4223   -8.6969    0.0000 C   0  0  0  0  0  0  0  0  0  0  0  0
    7.7038   -8.2915    0.0000 C   0  0  0  0  0  0  0  0  0  0  0  0
    6.9935   -8.7111    0.0000 C   0  0  0  0  0  0  0  0  0  0  0  0
    6.2422   -5.0059    0.0000 C   0  0  0  0  0  0  0  0  0  0  0  0
    6.2504   -5.8308    0.0000 C   0  0  0  0  0  0  0  0  0  0  0  0
    5.5400   -6.2504    0.0000 C   0  0  0  0  0  0  0  0  0  0  0  0
    6.2667   -7.4807    0.0000 O   0  0  0  0  0  0  0  0  0  0  0  0
    7.6956   -7.4666    0.0000 C   0  0  2  0  0  0  0  0  0  0  0  0
    8.4060   -7.0470    0.0000 C   0  0  0  0  0  0  0  0  0  0  0  0
    8.3978   -6.2220    0.0000 C   0  0  0  0  0  0  0  0  0  0  0  0
    7.6793   -5.8166    0.0000 C   0  0  2  0  0  0  0  0  0  0  0  0
    6.9689   -6.2362    0.0000 C   0  0  0  0  0  0  0  0  0  0  0  0
    6.9771   -7.0612    0.0000 C   0  0  0  0  0  0  0  0  0  0  0  0
 14  2  1  0  0  0  0
  2  1  2  0  0  0  0
 14  3  1  1  0  0  0
 11  5  1  1  0  0  0
  5  4  1  0  0  0  0
  6  5  1  0  0  0  0
 15  8  2  0  0  0  0
  8  7  1  0  0  0  0
  9  8  1  0  0  0  0
 16 10  2  0  0  0  0
 16 11  1  0  0  0  0
 12 11  1  0  0  0  0
 13 12  1  0  0  0  0
 14 13  1  0  0  0  0
 15 14  1  0  0  0  0
 16 15  1  0  0  0  0
M  END
>  <cdx:fragmentId>
11237

$$$$
