318785.cdx
  Mrv1902 05222410252D          

 37 40  0  0  0  0            999 V2000
    9.4084   -7.2088    0.0000 O   0  0  0  0  0  0  0  0  0  0  0  0
    4.3974   -7.7352    0.0000 C   0  0  0  0  0  0  0  0  0  0  0  0
    5.0761   -7.2661    0.0000 O   0  0  0  0  0  0  0  0  0  0  0  0
    4.5869   -9.4191    0.0000 C   0  0  0  0  0  0  0  0  0  0  0  0
    4.8052   -8.6235    0.0000 O   0  0  0  0  0  0  0  0  0  0  0  0
    6.5448  -10.3841    0.0000 C   0  0  0  0  0  0  0  0  0  0  0  0
    5.9649   -9.7972    0.0000 O   0  0  0  0  0  0  0  0  0  0  0  0
    4.4064   -6.2341    0.0000 C   0  0  0  0  0  0  0  0  0  0  0  0
    5.0794   -6.7113    0.0000 O   0  0  0  0  0  0  0  0  0  0  0  0
    9.3260   -7.8349    0.0000 C   0  0  0  0  0  0  0  0  0  0  0  0
    9.3805   -6.2862    0.0000 C   0  0  0  0  0  0  0  0  0  0  0  0
    5.8292   -6.3672    0.0000 C   0  0  0  0  0  0  0  0  0  0  0  0
    5.6204   -5.5690    0.0000 C   0  0  0  0  0  0  0  0  0  0  0  0
    4.8876   -5.1901    0.0000 O   0  0  0  0  0  0  0  0  0  0  0  0
    5.0215   -4.3760    0.0000 C   0  0  0  0  0  0  0  0  0  0  0  0
    5.8371   -4.2518    0.0000 O   0  0  0  0  0  0  0  0  0  0  0  0
    6.2072   -4.9892    0.0000 C   0  0  0  0  0  0  0  0  0  0  0  0
    7.0028   -5.2074    0.0000 C   0  0  0  0  0  0  0  0  0  0  0  0
    7.2116   -6.0056    0.0000 C   0  0  0  0  0  0  0  0  0  0  0  0
    8.0366   -6.0105    0.0000 C   0  0  0  0  0  0  0  0  0  0  0  0
    8.6164   -6.5974    0.0000 C   0  0  1  0  0  0  0  0  0  0  0  0
    8.6115   -7.4224    0.0000 C   0  0  2  0  0  0  0  0  0  0  0  0
    8.0247   -8.0022    0.0000 C   0  0  1  0  0  0  0  0  0  0  0  0
    7.1997   -7.9973    0.0000 C   0  0  0  0  0  0  0  0  0  0  0  0
    6.9814   -8.7929    0.0000 C   0  0  0  0  0  0  0  0  0  0  0  0
    6.1832   -9.0016    0.0000 C   0  0  0  0  0  0  0  0  0  0  0  0
    5.6034   -8.4148    0.0000 C   0  0  0  0  0  0  0  0  0  0  0  0
    5.8217   -7.6192    0.0000 C   0  0  0  0  0  0  0  0  0  0  0  0
    6.6198   -7.4104    0.0000 C   0  0  0  0  0  0  0  0  0  0  0  0
    6.6248   -6.5855    0.0000 C   0  0  0  0  0  0  0  0  0  0  0  0
    8.9581  -10.2945    0.0000 C   0  0  0  0  0  0  0  0  0  0  0  0
    8.3358   -8.7663    0.0000 O   0  0  0  0  0  0  0  0  0  0  0  0
    9.6592   -8.2274    0.0000 O   0  0  0  0  0  0  0  0  0  0  0  0
   10.5927  -10.5196    0.0000 C   0  0  0  0  0  0  0  0  0  0  0  0
   10.2815   -9.7555    0.0000 C   0  0  0  0  0  0  0  0  0  0  0  0
    9.4642   -9.6430    0.0000 C   0  0  0  0  0  0  0  0  0  0  0  0
    9.1531   -8.8789    0.0000 C   0  0  0  0  0  0  0  0  0  0  0  0
 23 32  1  6  0  0  0
 22  1  1  1  0  0  0
 28  3  1  0  0  0  0
  3  2  1  0  0  0  0
 27  5  1  0  0  0  0
  5  4  1  0  0  0  0
 26  7  1  0  0  0  0
  7  6  1  0  0  0  0
 12  9  1  0  0  0  0
  9  8  1  0  0  0  0
 22 10  1  6  0  0  0
 21 11  1  6  0  0  0
 29 24  1  0  0  0  0
 17 13  2  0  0  0  0
 30 19  1  0  0  0  0
 30 12  2  0  0  0  0
 13 12  1  0  0  0  0
 14 13  1  0  0  0  0
 15 14  1  0  0  0  0
 16 15  1  0  0  0  0
 17 16  1  0  0  0  0
 18 17  1  0  0  0  0
 19 18  2  0  0  0  0
 20 19  1  0  0  0  0
 21 20  1  0  0  0  0
 22 21  1  0  0  0  0
 23 22  1  0  0  0  0
 24 23  1  0  0  0  0
 25 24  2  0  0  0  0
 26 25  1  0  0  0  0
 27 26  2  0  0  0  0
 28 27  1  0  0  0  0
 29 28  2  0  0  0  0
 30 29  1  0  0  0  0
 36 31  1  0  0  0  0
 37 32  1  0  0  0  0
 37 33  2  0  0  0  0
 35 34  1  0  0  0  0
 36 35  2  0  0  0  0
 37 36  1  0  0  0  0
M  END
>  <cdx:fragmentId>
11804

$$$$
