31876.cdx
  Mrv1902 05222410242D          

 14 15  0  0  0  0            999 V2000
    4.0564   -5.5587    0.0000 C   0  0  0  0  0  0  0  0  0  0  0  0
    3.3419   -5.1462    0.0000 C   0  0  0  0  0  0  0  0  0  0  0  0
    3.3419   -4.3212    0.0000 C   0  0  0  0  0  0  0  0  0  0  0  0
    4.0564   -3.9087    0.0000 C   0  0  0  0  0  0  0  0  0  0  0  0
    4.7708   -4.3212    0.0000 C   0  0  0  0  0  0  0  0  0  0  0  0
    5.4853   -3.9087    0.0000 C   0  0  0  0  0  0  0  0  0  0  0  0
    6.1998   -4.3212    0.0000 C   0  0  0  0  0  0  0  0  0  0  0  0
    6.1998   -5.1462    0.0000 C   0  0  0  0  0  0  0  0  0  0  0  0
    5.4853   -5.5587    0.0000 C   0  0  0  0  0  0  0  0  0  0  0  0
    4.7708   -5.1462    0.0000 C   0  0  0  0  0  0  0  0  0  0  0  0
    6.9142   -5.5587    0.0000 C   0  0  0  0  0  0  0  0  0  0  0  0
    5.4853   -3.0837    0.0000 C   0  0  0  0  0  0  0  0  0  0  0  0
    2.9294   -5.8607    0.0000 C   0  0  0  0  0  0  0  0  0  0  0  0
    2.5169   -5.1462    0.0000 C   0  0  0  0  0  0  0  0  0  0  0  0
  1  2  1  0  0  0  0
  2  3  1  0  0  0  0
  3  4  1  0  0  0  0
  4  5  1  0  0  0  0
  5  6  1  0  0  0  0
  6  7  2  0  0  0  0
  7  8  1  0  0  0  0
  8  9  2  0  0  0  0
  9 10  1  0  0  0  0
  1 10  1  0  0  0  0
  5 10  2  0  0  0  0
  8 11  1  0  0  0  0
  6 12  1  0  0  0  0
  2 13  1  0  0  0  0
  2 14  1  0  0  0  0
M  END
>  <cdx:groupId>
45

>  <cdx:fragmentId>
5

$$$$
