318776.cdx
  Mrv1902 05222410212D          

 36 39  0  0  0  0            999 V2000
    4.9624   -7.8117    0.0000 C   0  0  0  0  0  0  0  0  0  0  0  0
    5.6455   -7.3490    0.0000 O   0  0  0  0  0  0  0  0  0  0  0  0
    5.1359   -9.4973    0.0000 C   0  0  0  0  0  0  0  0  0  0  0  0
    5.3617   -8.7039    0.0000 O   0  0  0  0  0  0  0  0  0  0  0  0
    7.0845  -10.4808    0.0000 C   0  0  0  0  0  0  0  0  0  0  0  0
    6.5103   -9.8885    0.0000 O   0  0  0  0  0  0  0  0  0  0  0  0
    4.9857   -6.3107    0.0000 C   0  0  0  0  0  0  0  0  0  0  0  0
    5.6541   -6.7943    0.0000 O   0  0  0  0  0  0  0  0  0  0  0  0
    9.9365   -7.8664    0.0000 C   0  0  0  0  0  0  0  0  0  0  0  0
    9.9590   -6.4101    0.0000 C   0  0  0  0  0  0  0  0  0  0  0  0
    6.4071   -6.4573    0.0000 C   0  0  0  0  0  0  0  0  0  0  0  0
    6.2059   -5.6572    0.0000 C   0  0  0  0  0  0  0  0  0  0  0  0
    5.4767   -5.2713    0.0000 O   0  0  0  0  0  0  0  0  0  0  0  0
    5.6184   -4.4586    0.0000 C   0  0  0  0  0  0  0  0  0  0  0  0
    6.4351   -4.3422    0.0000 O   0  0  0  0  0  0  0  0  0  0  0  0
    6.7982   -5.0829    0.0000 C   0  0  0  0  0  0  0  0  0  0  0  0
    7.5917   -5.3088    0.0000 C   0  0  0  0  0  0  0  0  0  0  0  0
    7.7929   -6.1089    0.0000 C   0  0  0  0  0  0  0  0  0  0  0  0
    8.6178   -6.1217    0.0000 C   0  0  0  0  0  0  0  0  0  0  0  0
    9.1920   -6.7140    0.0000 C   0  0  1  0  0  0  0  0  0  0  0  0
    9.1793   -7.5389    0.0000 C   0  0  1  0  0  0  0  0  0  0  0  0
    8.5869   -8.1131    0.0000 C   0  0  2  0  0  0  0  0  0  0  0  0
    7.7620   -8.1004    0.0000 C   0  0  0  0  0  0  0  0  0  0  0  0
    7.5362   -8.8939    0.0000 C   0  0  0  0  0  0  0  0  0  0  0  0
    6.7361   -9.0950    0.0000 C   0  0  0  0  0  0  0  0  0  0  0  0
    6.1618   -8.5027    0.0000 C   0  0  0  0  0  0  0  0  0  0  0  0
    6.3877   -7.7092    0.0000 C   0  0  0  0  0  0  0  0  0  0  0  0
    7.1878   -7.5080    0.0000 C   0  0  0  0  0  0  0  0  0  0  0  0
    7.2006   -6.6831    0.0000 C   0  0  0  0  0  0  0  0  0  0  0  0
    9.4986  -10.4141    0.0000 C   0  0  0  0  0  0  0  0  0  0  0  0
    8.8908   -8.8801    0.0000 O   0  0  0  0  0  0  0  0  0  0  0  0
   10.2193   -8.3538    0.0000 O   0  0  0  0  0  0  0  0  0  0  0  0
   11.1309  -10.6548    0.0000 C   0  0  0  0  0  0  0  0  0  0  0  0
   10.8271   -9.8878    0.0000 C   0  0  0  0  0  0  0  0  0  0  0  0
   10.0109   -9.7675    0.0000 C   0  0  0  0  0  0  0  0  0  0  0  0
    9.7070   -9.0005    0.0000 C   0  0  0  0  0  0  0  0  0  0  0  0
 22 31  1  1  0  0  0
 27  2  1  0  0  0  0
  2  1  1  0  0  0  0
 26  4  1  0  0  0  0
  4  3  1  0  0  0  0
 25  6  1  0  0  0  0
  6  5  1  0  0  0  0
 11  8  1  0  0  0  0
  8  7  1  0  0  0  0
 21  9  1  6  0  0  0
 20 10  1  6  0  0  0
 28 23  1  0  0  0  0
 16 12  2  0  0  0  0
 29 18  1  0  0  0  0
 29 11  2  0  0  0  0
 12 11  1  0  0  0  0
 13 12  1  0  0  0  0
 14 13  1  0  0  0  0
 15 14  1  0  0  0  0
 16 15  1  0  0  0  0
 17 16  1  0  0  0  0
 18 17  2  0  0  0  0
 19 18  1  0  0  0  0
 20 19  1  0  0  0  0
 21 20  1  0  0  0  0
 22 21  1  0  0  0  0
 23 22  1  0  0  0  0
 24 23  2  0  0  0  0
 25 24  1  0  0  0  0
 26 25  2  0  0  0  0
 27 26  1  0  0  0  0
 28 27  2  0  0  0  0
 29 28  1  0  0  0  0
 35 30  1  0  0  0  0
 36 31  1  0  0  0  0
 36 32  2  0  0  0  0
 34 33  1  0  0  0  0
 35 34  2  0  0  0  0
 36 35  1  0  0  0  0
M  END
>  <cdx:fragmentId>
11680

$$$$
