318766.cdx
  Mrv1902 05222410222D          

 36 38  0  0  0  0            999 V2000
    4.8237   -9.5333    0.0000 C   0  0  0  0  0  0  0  0  0  0  0  0
    5.5015   -9.0629    0.0000 O   0  0  0  0  0  0  0  0  0  0  0  0
    5.0163  -11.2169    0.0000 C   0  0  0  0  0  0  0  0  0  0  0  0
    5.2331  -10.4209    0.0000 O   0  0  0  0  0  0  0  0  0  0  0  0
    6.9759  -12.1783    0.0000 C   0  0  0  0  0  0  0  0  0  0  0  0
    6.3950  -11.5925    0.0000 O   0  0  0  0  0  0  0  0  0  0  0  0
    5.5038   -8.5082    0.0000 O   0  0  0  0  0  0  0  0  0  0  0  0
    9.6163   -9.8004    0.0000 C   0  0  0  0  0  0  0  0  0  0  0  0
    9.8042   -8.0753    0.0000 C   0  0  0  0  0  0  0  0  0  0  0  0
    9.8357   -9.0051    0.0000 O   0  0  0  0  0  0  0  0  0  0  0  0
    6.2530   -8.1626    0.0000 C   0  0  0  0  0  0  0  0  0  0  0  0
    6.0428   -7.3649    0.0000 C   0  0  0  0  0  0  0  0  0  0  0  0
    6.6286   -6.7839    0.0000 C   0  0  0  0  0  0  0  0  0  0  0  0
    7.4246   -7.0008    0.0000 C   0  0  0  0  0  0  0  0  0  0  0  0
    7.6348   -7.7986    0.0000 C   0  0  0  0  0  0  0  0  0  0  0  0
    8.4598   -7.8020    0.0000 C   0  0  0  0  0  0  0  0  0  0  0  0
    9.0407   -8.3878    0.0000 C   0  0  1  0  0  0  0  0  0  0  0  0
    9.0372   -9.2128    0.0000 C   0  0  1  0  0  0  0  0  0  0  0  0
    8.4514   -9.7937    0.0000 C   0  0  0  0  0  0  0  0  0  0  0  0
    7.6264   -9.7903    0.0000 C   0  0  0  0  0  0  0  0  0  0  0  0
    7.4096  -10.5863    0.0000 C   0  0  0  0  0  0  0  0  0  0  0  0
    6.6118  -10.7965    0.0000 C   0  0  0  0  0  0  0  0  0  0  0  0
    6.0309  -10.2107    0.0000 C   0  0  0  0  0  0  0  0  0  0  0  0
    6.2477   -9.4147    0.0000 C   0  0  0  0  0  0  0  0  0  0  0  0
    7.0455   -9.2045    0.0000 C   0  0  0  0  0  0  0  0  0  0  0  0
    7.0490   -8.3795    0.0000 C   0  0  0  0  0  0  0  0  0  0  0  0
    6.4184   -5.9862    0.0000 O   0  0  0  0  0  0  0  0  0  0  0  0
    5.2468   -7.1480    0.0000 O   0  0  0  0  0  0  0  0  0  0  0  0
    7.0042   -5.4053    0.0000 C   0  0  0  0  0  0  0  0  0  0  0  0
    5.0391   -6.3496    0.0000 C   0  0  0  0  0  0  0  0  0  0  0  0
    4.8300   -8.0321    0.0000 C   0  0  0  0  0  0  0  0  0  0  0  0
    4.0809   -8.3777    0.0000 C   0  0  0  0  0  0  0  0  0  0  0  0
    4.9054   -7.2106    0.0000 O   0  0  0  0  0  0  0  0  0  0  0  0
    3.4070   -7.9017    0.0000 C   0  0  0  0  0  0  0  0  0  0  0  0
    4.0055   -9.1992    0.0000 C   0  0  0  0  0  0  0  0  0  0  0  0
    2.6579   -8.2472    0.0000 C   0  0  0  0  0  0  0  0  0  0  0  0
 24  2  1  0  0  0  0
  2  1  1  0  0  0  0
 23  4  1  0  0  0  0
  4  3  1  0  0  0  0
 22  6  1  0  0  0  0
  6  5  1  0  0  0  0
 11  7  1  0  0  0  0
 18  8  1  6  0  0  0
 17  9  1  6  0  0  0
 18 10  1  1  0  0  0
 13 12  2  0  0  0  0
 25 20  1  0  0  0  0
 26 15  1  0  0  0  0
 26 11  2  0  0  0  0
 12 11  1  0  0  0  0
 14 13  1  0  0  0  0
 15 14  2  0  0  0  0
 16 15  1  0  0  0  0
 17 16  1  0  0  0  0
 18 17  1  0  0  0  0
 19 18  1  0  0  0  0
 20 19  1  0  0  0  0
 21 20  2  0  0  0  0
 22 21  1  0  0  0  0
 23 22  2  0  0  0  0
 24 23  1  0  0  0  0
 25 24  2  0  0  0  0
 26 25  1  0  0  0  0
 13 27  1  0  0  0  0
 12 28  1  0  0  0  0
 27 29  1  0  0  0  0
 28 30  1  0  0  0  0
  7 31  1  0  0  0  0
 31 32  1  0  0  0  0
 31 33  2  0  0  0  0
 32 34  2  0  0  0  0
 32 35  1  0  0  0  0
 34 36  1  0  0  0  0
M  END
>  <cdx:fragmentId>
8019

$$$$
