5318880.cdx
  Mrv1902 05222410192D          

 33 34  0  0  0  0            999 V2000
   15.1115   -6.9555    0.0000 C   0  0  0  0  0  0  0  0  0  0  0  0
   14.3970   -7.3680    0.0000 C   0  0  0  0  0  0  0  0  0  0  0  0
   13.6826   -6.9555    0.0000 C   0  0  0  0  0  0  0  0  0  0  0  0
   15.1115   -6.1305    0.0000 O   0  0  0  0  0  0  0  0  0  0  0  0
   12.9681   -7.3680    0.0000 C   0  0  0  0  0  0  0  0  0  0  0  0
   12.9681   -8.1930    0.0000 C   0  0  0  0  0  0  0  0  0  0  0  0
   12.2536   -8.6055    0.0000 C   0  0  0  0  0  0  0  0  0  0  0  0
   11.5392   -8.1930    0.0000 C   0  0  0  0  0  0  0  0  0  0  0  0
   11.5392   -7.3680    0.0000 C   0  0  0  0  0  0  0  0  0  0  0  0
   12.2536   -6.9555    0.0000 C   0  0  0  0  0  0  0  0  0  0  0  0
   10.8247   -8.6055    0.0000 O   0  0  0  0  0  0  0  0  0  0  0  0
   13.6826   -8.6055    0.0000 O   0  0  0  0  0  0  0  0  0  0  0  0
   15.8260   -7.3680    0.0000 C   0  0  0  0  0  0  0  0  0  0  0  0
   15.8260   -8.1930    0.0000 C   0  0  0  0  0  0  0  0  0  0  0  0
   16.5405   -8.6055    0.0000 C   0  0  0  0  0  0  0  0  0  0  0  0
   17.2549   -8.1930    0.0000 C   0  0  0  0  0  0  0  0  0  0  0  0
   17.2549   -7.3680    0.0000 C   0  0  0  0  0  0  0  0  0  0  0  0
   16.5405   -6.9555    0.0000 C   0  0  0  0  0  0  0  0  0  0  0  0
   16.5405   -6.1305    0.0000 O   0  0  0  0  0  0  0  0  0  0  0  0
   15.8260   -5.7180    0.0000 C   0  0  0  0  0  0  0  0  0  0  0  0
   16.5405   -9.4305    0.0000 C   0  0  0  0  0  0  0  0  0  0  0  0
   17.2549   -9.8430    0.0000 C   0  0  0  0  0  0  0  0  0  0  0  0
   17.9694   -9.4305    0.0000 C   0  0  0  0  0  0  0  0  0  0  0  0
   18.6839   -9.8430    0.0000 C   0  0  0  0  0  0  0  0  0  0  0  0
   19.3983   -9.4305    0.0000 C   0  0  0  0  0  0  0  0  0  0  0  0
   19.3983   -8.6055    0.0000 C   0  0  0  0  0  0  0  0  0  0  0  0
   17.9694  -11.0805    0.0000 C   0  0  0  0  0  0  0  0  0  0  0  0
   17.2549  -10.6680    0.0000 C   0  0  0  0  0  0  0  0  0  0  0  0
   16.5405  -11.0805    0.0000 C   0  0  0  0  0  0  0  0  0  0  0  0
   20.1128   -9.8430    0.0000 C   0  0  0  0  0  0  0  0  0  0  0  0
   20.1128   -9.0180    0.0000 O   0  0  0  0  0  0  0  0  0  0  0  0
   17.9694   -8.6055    0.0000 O   0  0  0  0  0  0  0  0  0  0  0  0
   15.1115   -8.6055    0.0000 O   0  0  0  0  0  0  0  0  0  0  0  0
  1  2  1  0  0  0  0
  2  3  2  0  0  0  0
  1  4  2  0  0  0  0
  5  6  1  0  0  0  0
  6  7  2  0  0  0  0
  7  8  1  0  0  0  0
  8  9  2  0  0  0  0
  9 10  1  0  0  0  0
  5 10  2  0  0  0  0
  8 11  1  0  0  0  0
  6 12  1  0  0  0  0
  3  5  1  0  0  0  0
 13 14  1  0  0  0  0
 14 15  2  0  0  0  0
 15 16  1  0  0  0  0
 16 17  2  0  0  0  0
 17 18  1  0  0  0  0
 13 18  2  0  0  0  0
 19 20  1  0  0  0  0
 18 19  1  0  0  0  0
 21 22  1  0  0  0  0
 22 23  1  0  0  0  0
 23 24  1  0  0  0  0
 24 25  1  0  0  0  0
 25 26  1  0  0  0  0
 27 28  2  0  0  0  0
 28 29  1  0  0  0  0
 22 28  1  0  0  0  0
 25 30  1  0  0  0  0
 25 31  1  0  0  0  0
 15 21  1  0  0  0  0
 16 32  1  0  0  0  0
 14 33  1  0  0  0  0
  1 13  1  0  0  0  0
M  END
>  <cdx:groupId>
12146

>  <cdx:fragmentId>
12089

$$$$
