5318893.cdx
  Mrv1902 05222410182D          

 33 34  0  0  0  0            999 V2000
   15.4258   -6.9555    0.0000 C   0  0  0  0  0  0  0  0  0  0  0  0
   14.7113   -7.3680    0.0000 C   0  0  0  0  0  0  0  0  0  0  0  0
   13.9969   -6.9555    0.0000 C   0  0  0  0  0  0  0  0  0  0  0  0
   15.4258   -6.1305    0.0000 O   0  0  0  0  0  0  0  0  0  0  0  0
   13.2824   -7.3680    0.0000 C   0  0  0  0  0  0  0  0  0  0  0  0
   13.2824   -8.1930    0.0000 C   0  0  0  0  0  0  0  0  0  0  0  0
   12.5679   -8.6055    0.0000 C   0  0  0  0  0  0  0  0  0  0  0  0
   11.8535   -8.1930    0.0000 C   0  0  0  0  0  0  0  0  0  0  0  0
   11.8535   -7.3680    0.0000 C   0  0  0  0  0  0  0  0  0  0  0  0
   12.5679   -6.9555    0.0000 C   0  0  0  0  0  0  0  0  0  0  0  0
   13.9969   -8.6055    0.0000 O   0  0  0  0  0  0  0  0  0  0  0  0
   14.7113   -8.1930    0.0000 C   0  0  0  0  0  0  0  0  0  0  0  0
   11.1390   -8.6055    0.0000 O   0  0  0  0  0  0  0  0  0  0  0  0
   16.1403   -7.3680    0.0000 C   0  0  0  0  0  0  0  0  0  0  0  0
   16.1403   -8.1930    0.0000 C   0  0  0  0  0  0  0  0  0  0  0  0
   16.8548   -8.6055    0.0000 C   0  0  0  0  0  0  0  0  0  0  0  0
   17.5692   -8.1930    0.0000 C   0  0  0  0  0  0  0  0  0  0  0  0
   17.5692   -7.3680    0.0000 C   0  0  0  0  0  0  0  0  0  0  0  0
   16.8548   -6.9555    0.0000 C   0  0  0  0  0  0  0  0  0  0  0  0
   16.8548   -9.4305    0.0000 C   0  0  0  0  0  0  0  0  0  0  0  0
   17.5692   -9.8430    0.0000 C   0  0  0  0  0  0  0  0  0  0  0  0
   18.2837   -9.4305    0.0000 C   0  0  0  0  0  0  0  0  0  0  0  0
   18.9982   -9.8430    0.0000 C   0  0  0  0  0  0  0  0  0  0  0  0
   19.7126   -9.4305    0.0000 C   0  0  0  0  0  0  0  0  0  0  0  0
   19.7126   -8.6055    0.0000 C   0  0  0  0  0  0  0  0  0  0  0  0
   18.2837  -11.0805    0.0000 C   0  0  0  0  0  0  0  0  0  0  0  0
   17.5692  -10.6680    0.0000 C   0  0  0  0  0  0  0  0  0  0  0  0
   16.8548  -11.0805    0.0000 C   0  0  0  0  0  0  0  0  0  0  0  0
   20.4271   -9.8430    0.0000 C   0  0  0  0  0  0  0  0  0  0  0  0
   16.8548   -6.1305    0.0000 O   0  0  0  0  0  0  0  0  0  0  0  0
   16.1403   -5.7180    0.0000 C   0  0  0  0  0  0  0  0  0  0  0  0
   18.2837   -8.6055    0.0000 O   0  0  0  0  0  0  0  0  0  0  0  0
   15.4258   -8.6055    0.0000 O   0  0  0  0  0  0  0  0  0  0  0  0
  1  2  1  0  0  0  0
  2  3  2  0  0  0  0
  1  4  2  0  0  0  0
  5  6  1  0  0  0  0
  6  7  2  0  0  0  0
  7  8  1  0  0  0  0
  8  9  2  0  0  0  0
  9 10  1  0  0  0  0
  5 10  2  0  0  0  0
 11 12  1  0  0  0  0
  6 11  1  0  0  0  0
  8 13  1  0  0  0  0
  3  5  1  0  0  0  0
 14 15  1  0  0  0  0
 15 16  2  0  0  0  0
 16 17  1  0  0  0  0
 17 18  2  0  0  0  0
 18 19  1  0  0  0  0
 14 19  2  0  0  0  0
 20 21  1  0  0  0  0
 21 22  1  0  0  0  0
 22 23  1  0  0  0  0
 23 24  2  0  0  0  0
 24 25  1  0  0  0  0
 26 27  2  0  0  0  0
 27 28  1  0  0  0  0
 21 27  1  0  0  0  0
 24 29  1  0  0  0  0
 16 20  1  0  0  0  0
 30 31  1  0  0  0  0
 19 30  1  0  0  0  0
 17 32  1  0  0  0  0
 15 33  1  0  0  0  0
  1 14  1  0  0  0  0
M  END
>  <cdx:groupId>
12256

>  <cdx:fragmentId>
12197

$$$$
