318980.cdx
  Mrv1902 05222410232D          

 27 29  0  0  0  0            999 V2000
    8.4987   -8.9001    0.0000 O   0  0  0  0  0  0  0  0  0  0  0  0
    5.6343   -9.7024    0.0000 O   0  0  0  0  0  0  0  0  0  0  0  0
    4.2251   -7.2161    0.0000 O   0  0  0  0  0  0  0  0  0  0  0  0
   11.3761   -6.4479    0.0000 C   0  0  0  0  0  0  0  0  0  0  0  0
   10.6650   -6.0297    0.0000 O   0  0  0  0  0  0  0  0  0  0  0  0
    8.5184   -6.4252    0.0000 C   0  0  0  0  0  0  0  0  0  0  0  0
    9.2361   -6.0184    0.0000 C   0  0  0  0  0  0  0  0  0  0  0  0
    9.9472   -6.4365    0.0000 C   0  0  0  0  0  0  0  0  0  0  0  0
    9.9407   -7.2615    0.0000 C   0  0  0  0  0  0  0  0  0  0  0  0
    9.2230   -7.6683    0.0000 C   0  0  0  0  0  0  0  0  0  0  0  0
    8.5118   -7.2501    0.0000 C   0  0  0  0  0  0  0  0  0  0  0  0
    4.2448   -4.7412    0.0000 C   0  0  0  0  0  0  0  0  0  0  0  0
    5.6737   -4.7525    0.0000 C   0  0  0  0  0  0  0  0  0  0  0  0
    4.9559   -5.1593    0.0000 C   0  0  0  0  0  0  0  0  0  0  0  0
    4.9494   -5.9843    0.0000 C   0  0  0  0  0  0  0  0  0  0  0  0
    5.6606   -6.4025    0.0000 C   0  0  0  0  0  0  0  0  0  0  0  0
    7.0632   -9.7137    0.0000 O   0  0  0  0  0  0  0  0  0  0  0  0
    5.6409   -8.8774    0.0000 C   0  0  0  0  0  0  0  0  0  0  0  0
    4.9297   -8.4592    0.0000 C   0  0  0  0  0  0  0  0  0  0  0  0
    4.9363   -7.6342    0.0000 C   0  0  0  0  0  0  0  0  0  0  0  0
    5.6540   -7.2274    0.0000 C   0  0  0  0  0  0  0  0  0  0  0  0
    7.0829   -7.2388    0.0000 O   0  0  0  0  0  0  0  0  0  0  0  0
    6.3652   -7.6456    0.0000 C   0  0  0  0  0  0  0  0  0  0  0  0
    6.3586   -8.4706    0.0000 C   0  0  0  0  0  0  0  0  0  0  0  0
    7.0698   -8.8887    0.0000 C   0  0  0  0  0  0  0  0  0  0  0  0
    7.7875   -8.4819    0.0000 C   0  0  0  0  0  0  0  0  0  0  0  0
    7.7940   -7.6570    0.0000 C   0  0  0  0  0  0  0  0  0  0  0  0
 26  1  1  0  0  0  0
 18  2  1  0  0  0  0
 20  3  1  0  0  0  0
 27 11  1  0  0  0  0
  8  5  1  0  0  0  0
  5  4  1  0  0  0  0
 11  6  2  0  0  0  0
  7  6  1  0  0  0  0
  8  7  2  0  0  0  0
  9  8  1  0  0  0  0
 10  9  2  0  0  0  0
 11 10  1  0  0  0  0
 21 16  1  0  0  0  0
 14 12  1  0  0  0  0
 14 13  1  0  0  0  0
 15 14  2  0  0  0  0
 16 15  1  0  0  0  0
 25 17  2  0  0  0  0
 23 21  2  0  0  0  0
 24 18  2  0  0  0  0
 19 18  1  0  0  0  0
 20 19  2  0  0  0  0
 21 20  1  0  0  0  0
 27 22  1  0  0  0  0
 23 22  1  0  0  0  0
 24 23  1  0  0  0  0
 25 24  1  0  0  0  0
 26 25  1  0  0  0  0
 27 26  2  0  0  0  0
M  END
>  <cdx:fragmentId>
12356

$$$$
