5318991.cdx
  Mrv1902 05222410212D          

 26 28  0  0  0  0            999 V2000
    9.4841   -6.1796    0.0000 C   0  0  0  0  0  0  0  0  0  0  0  0
    8.7697   -6.5921    0.0000 C   0  0  0  0  0  0  0  0  0  0  0  0
    8.0552   -6.1796    0.0000 C   0  0  0  0  0  0  0  0  0  0  0  0
    9.4841   -5.3546    0.0000 O   0  0  0  0  0  0  0  0  0  0  0  0
    5.1271   -7.6721    0.0000 O   0  0  0  0  0  0  0  0  0  0  0  0
    4.6422   -7.0046    0.0000 C   0  0  0  0  0  0  0  0  0  0  0  0
    5.1271   -6.3372    0.0000 C   0  0  0  0  0  0  0  0  0  0  0  0
    5.9118   -6.5921    0.0000 C   0  0  0  0  0  0  0  0  0  0  0  0
    6.6262   -6.1796    0.0000 C   0  0  0  0  0  0  0  0  0  0  0  0
    7.3407   -6.5921    0.0000 C   0  0  0  0  0  0  0  0  0  0  0  0
    7.3407   -7.4171    0.0000 C   0  0  0  0  0  0  0  0  0  0  0  0
    6.6262   -7.8296    0.0000 C   0  0  0  0  0  0  0  0  0  0  0  0
    5.9118   -7.4171    0.0000 C   0  0  0  0  0  0  0  0  0  0  0  0
    6.6262   -5.3546    0.0000 O   0  0  0  0  0  0  0  0  0  0  0  0
    7.3407   -4.9421    0.0000 C   0  0  0  0  0  0  0  0  0  0  0  0
    3.4047   -6.2901    0.0000 C   0  0  0  0  0  0  0  0  0  0  0  0
    3.8172   -7.0046    0.0000 C   0  0  0  0  0  0  0  0  0  0  0  0
    3.4047   -7.7191    0.0000 C   0  0  0  0  0  0  0  0  0  0  0  0
    2.9922   -7.0046    0.0000 O   0  0  0  0  0  0  0  0  0  0  0  0
   10.1986   -6.5921    0.0000 C   0  0  0  0  0  0  0  0  0  0  0  0
   10.9131   -6.1796    0.0000 C   0  0  0  0  0  0  0  0  0  0  0  0
   11.6275   -6.5921    0.0000 C   0  0  0  0  0  0  0  0  0  0  0  0
   11.6275   -7.4171    0.0000 C   0  0  0  0  0  0  0  0  0  0  0  0
   10.9131   -7.8296    0.0000 C   0  0  0  0  0  0  0  0  0  0  0  0
   10.1986   -7.4171    0.0000 C   0  0  0  0  0  0  0  0  0  0  0  0
   12.3420   -7.8296    0.0000 O   0  0  0  0  0  0  0  0  0  0  0  0
  1  2  1  0  0  0  0
  2  3  2  0  0  0  0
  1  4  2  0  0  0  0
  5  6  1  0  0  0  0
  6  7  1  0  0  0  0
  7  8  1  0  0  0  0
  8  9  1  0  0  0  0
  9 10  2  0  0  0  0
 10 11  1  0  0  0  0
 11 12  2  0  0  0  0
 12 13  1  0  0  0  0
  8 13  2  0  0  0  0
  5 13  1  0  0  0  0
 14 15  1  0  0  0  0
  9 14  1  0  0  0  0
 16 17  1  0  0  0  0
 17 18  1  0  0  0  0
 17 19  1  0  0  0  0
  6 17  1  0  0  0  0
  3 10  1  0  0  0  0
 20 21  1  0  0  0  0
 21 22  2  0  0  0  0
 22 23  1  0  0  0  0
 23 24  2  0  0  0  0
 24 25  1  0  0  0  0
 20 25  2  0  0  0  0
 23 26  1  0  0  0  0
  1 20  1  0  0  0  0
M  END
>  <cdx:fragmentId>
12668

$$$$
