318989.cdx
  Mrv1902 05222410262D          

 25 27  0  0  0  0            999 V2000
    3.1440   -8.0223    0.0000 O   0  0  0  0  0  0  0  0  0  0  0  0
    5.2874   -7.6098    0.0000 C   0  0  0  0  0  0  0  0  0  0  0  0
    4.5730   -8.0223    0.0000 C   0  0  0  0  0  0  0  0  0  0  0  0
    3.8585   -7.6098    0.0000 C   0  0  0  0  0  0  0  0  0  0  0  0
    3.8585   -6.7848    0.0000 C   0  0  0  0  0  0  0  0  0  0  0  0
    4.5730   -6.3723    0.0000 C   0  0  0  0  0  0  0  0  0  0  0  0
    5.2874   -6.7848    0.0000 C   0  0  0  0  0  0  0  0  0  0  0  0
    8.1453   -5.1348    0.0000 C   0  0  0  0  0  0  0  0  0  0  0  0
    8.8598   -5.5473    0.0000 O   0  0  0  0  0  0  0  0  0  0  0  0
   11.8282   -7.6098    0.0000 C   0  0  0  0  0  0  0  0  0  0  0  0
   11.4157   -8.3243    0.0000 C   0  0  0  0  0  0  0  0  0  0  0  0
   10.2887   -8.0223    0.0000 O   0  0  0  0  0  0  0  0  0  0  0  0
    9.5743   -7.6098    0.0000 C   0  0  0  0  0  0  0  0  0  0  0  0
    8.8598   -8.0223    0.0000 C   0  0  0  0  0  0  0  0  0  0  0  0
    8.1453   -7.6098    0.0000 C   0  0  0  0  0  0  0  0  0  0  0  0
    8.1453   -6.7848    0.0000 C   0  0  0  0  0  0  0  0  0  0  0  0
    8.8598   -6.3723    0.0000 C   0  0  0  0  0  0  0  0  0  0  0  0
    9.5743   -6.7848    0.0000 C   0  0  0  0  0  0  0  0  0  0  0  0
   10.2887   -6.3723    0.0000 C   0  0  0  0  0  0  0  0  0  0  0  0
   11.0032   -6.7848    0.0000 C   0  0  0  0  0  0  0  0  0  0  0  0
   11.0032   -7.6098    0.0000 C   0  0  0  0  0  0  0  0  0  0  0  0
    6.0019   -5.5473    0.0000 O   0  0  0  0  0  0  0  0  0  0  0  0
    7.4309   -6.3723    0.0000 C   0  0  0  0  0  0  0  0  0  0  0  0
    6.7164   -6.7848    0.0000 C   0  0  0  0  0  0  0  0  0  0  0  0
    6.0019   -6.3723    0.0000 C   0  0  0  0  0  0  0  0  0  0  0  0
 25  7  1  0  0  0  0
  4  1  1  0  0  0  0
  7  2  2  0  0  0  0
  3  2  1  0  0  0  0
  4  3  2  0  0  0  0
  5  4  1  0  0  0  0
  6  5  2  0  0  0  0
  7  6  1  0  0  0  0
 23 16  1  0  0  0  0
 17  9  1  0  0  0  0
  9  8  1  0  0  0  0
 21 10  1  0  0  0  0
 21 11  1  0  0  0  0
 21 12  1  0  0  0  0
 13 12  1  0  0  0  0
 18 13  2  0  0  0  0
 14 13  1  0  0  0  0
 15 14  2  0  0  0  0
 16 15  1  0  0  0  0
 17 16  2  0  0  0  0
 18 17  1  0  0  0  0
 19 18  1  0  0  0  0
 20 19  2  0  0  0  0
 21 20  1  0  0  0  0
 25 22  2  0  0  0  0
 24 23  2  0  0  0  0
 25 24  1  0  0  0  0
M  END
>  <cdx:groupId>
12652

>  <cdx:fragmentId>
12586

$$$$
