318962.cdx
  Mrv1902 05222410252D          

 27 29  0  0  0  0            999 V2000
    5.0881   -6.0926    0.0000 C   0  0  0  0  0  0  0  0  0  0  0  0
    4.3737   -5.6801    0.0000 C   0  0  0  0  0  0  0  0  0  0  0  0
    4.3737   -4.8551    0.0000 C   0  0  0  0  0  0  0  0  0  0  0  0
    5.0881   -4.4426    0.0000 C   0  0  0  0  0  0  0  0  0  0  0  0
    5.8026   -5.6801    0.0000 O   0  0  0  0  0  0  0  0  0  0  0  0
    5.0881   -6.9176    0.0000 O   0  0  0  0  0  0  0  0  0  0  0  0
    7.9460   -6.0926    0.0000 O   0  0  0  0  0  0  0  0  0  0  0  0
   11.5184   -8.1551    0.0000 O   0  0  0  0  0  0  0  0  0  0  0  0
   10.8039   -8.5676    0.0000 C   0  0  0  0  0  0  0  0  0  0  0  0
    4.9776   -8.1551    0.0000 C   0  0  0  0  0  0  0  0  0  0  0  0
    5.3901   -8.8696    0.0000 C   0  0  0  0  0  0  0  0  0  0  0  0
    9.3750   -6.0926    0.0000 O   0  0  0  0  0  0  0  0  0  0  0  0
    9.3750   -8.5676    0.0000 O   0  0  0  0  0  0  0  0  0  0  0  0
   10.0894   -8.1551    0.0000 C   0  0  0  0  0  0  0  0  0  0  0  0
   10.0894   -7.3301    0.0000 C   0  0  0  0  0  0  0  0  0  0  0  0
    9.3750   -6.9176    0.0000 C   0  0  0  0  0  0  0  0  0  0  0  0
    6.5171   -8.5676    0.0000 O   0  0  0  0  0  0  0  0  0  0  0  0
    7.2315   -8.1551    0.0000 C   0  0  0  0  0  0  0  0  0  0  0  0
    7.9460   -8.5676    0.0000 C   0  0  0  0  0  0  0  0  0  0  0  0
    8.6605   -8.1551    0.0000 C   0  0  0  0  0  0  0  0  0  0  0  0
    8.6605   -7.3301    0.0000 C   0  0  0  0  0  0  0  0  0  0  0  0
    7.9460   -6.9176    0.0000 C   0  0  0  0  0  0  0  0  0  0  0  0
    7.2315   -7.3301    0.0000 C   0  0  0  0  0  0  0  0  0  0  0  0
    6.5171   -6.9176    0.0000 C   0  0  0  0  0  0  0  0  0  0  0  0
    5.8026   -7.3301    0.0000 C   0  0  1  0  0  0  0  0  0  0  0  0
    5.8026   -8.1551    0.0000 C   0  0  0  0  0  0  0  0  0  0  0  0
    3.6592   -6.0926    0.0000 C   0  0  0  0  0  0  0  0  0  0  0  0
 25  6  1  1  0  0  0
 22  7  1  0  0  0  0
 14  9  1  0  0  0  0
  9  8  1  0  0  0  0
 26 10  1  0  0  0  0
 26 11  1  0  0  0  0
 16 12  2  0  0  0  0
 13 20  1  0  0  0  0
 16 21  1  0  0  0  0
 14 13  1  0  0  0  0
 15 14  2  0  0  0  0
 16 15  1  0  0  0  0
 26 17  1  0  0  0  0
 18 17  1  0  0  0  0
 23 18  2  0  0  0  0
 19 18  1  0  0  0  0
 20 19  2  0  0  0  0
 21 20  1  0  0  0  0
 22 21  2  0  0  0  0
 23 22  1  0  0  0  0
 24 23  1  0  0  0  0
 25 24  1  0  0  0  0
 26 25  1  0  0  0  0
  1  2  1  0  0  0  0
  2  3  2  0  0  0  0
  3  4  1  0  0  0  0
  1  5  2  0  0  0  0
  1  6  1  0  0  0  0
  2 27  1  0  0  0  0
M  END
>  <cdx:fragmentId>
12283

$$$$
