319.cdx
  Mrv1902 05222410262D          

 18 20  0  0  0  0            999 V2000
    7.2532   -8.7808    0.0000 N   0  0  0  0  0  0  0  0  0  0  0  0
    8.0366   -8.5221    0.0000 C   0  0  0  0  0  0  0  0  0  0  0  0
    8.0327   -7.6971    0.0000 C   0  0  0  0  0  0  0  0  0  0  0  0
    7.2469   -7.4459    0.0000 N   0  0  0  0  0  0  0  0  0  0  0  0
    6.7651   -8.1157    0.0000 C   0  0  0  0  0  0  0  0  0  0  0  0
    8.7531   -8.9312    0.0000 N   0  0  0  0  0  0  0  0  0  0  0  0
    9.4656   -8.5221    0.0000 C   0  0  0  0  0  0  0  0  0  0  0  0
    9.4656   -7.6971    0.0000 N   0  0  0  0  0  0  0  0  0  0  0  0
    8.7531   -7.2880    0.0000 C   0  0  0  0  0  0  0  0  0  0  0  0
    8.7531   -6.4630    0.0000 O   0  0  0  0  0  0  0  0  0  0  0  0
    7.0020   -9.5666    0.0000 C   0  0  2  0  0  0  0  0  0  0  0  0
    6.2192   -9.8271    0.0000 O   0  0  0  0  0  0  0  0  0  0  0  0
    6.2192  -10.6521    0.0000 C   0  0  1  0  0  0  0  0  0  0  0  0
    7.0020  -10.9015    0.0000 C   0  0  2  0  0  0  0  0  0  0  0  0
    7.4822  -10.2306    0.0000 C   0  0  0  0  0  0  0  0  0  0  0  0
    5.5532  -11.1390    0.0000 C   0  0  0  0  0  0  0  0  0  0  0  0
    7.2620  -11.6844    0.0000 O   0  0  0  0  0  0  0  0  0  0  0  0
    5.6418  -11.9592    0.0000 O   0  0  0  0  0  0  0  0  0  0  0  0
  1  2  1  0  0  0  0
  2  3  2  0  0  0  0
  3  4  1  0  0  0  0
  4  5  2  0  0  0  0
  5  1  1  0  0  0  0
  2  6  1  0  0  0  0
  6  7  2  0  0  0  0
  7  8  1  0  0  0  0
  8  9  1  0  0  0  0
  9  3  1  0  0  0  0
  9 10  2  0  0  0  0
 11  1  1  1  0  0  0
 11 12  1  0  0  0  0
 12 13  1  0  0  0  0
 13 14  1  0  0  0  0
 14 15  1  0  0  0  0
 15 11  1  0  0  0  0
 13 16  1  1  0  0  0
 14 17  1  6  0  0  0
 16 18  1  0  0  0  0
M  END
>  <cdx:fragmentId>
409

$$$$
