5319013.cdx
  Mrv1902 05222410272D          

 28 30  0  0  0  0            999 V2000
    5.7191   -8.8165    0.0000 O   0  0  0  0  0  0  0  0  0  0  0  0
    5.7191   -7.9915    0.0000 C   0  0  0  0  0  0  0  0  0  0  0  0
    5.0046   -7.5790    0.0000 C   0  0  0  0  0  0  0  0  0  0  0  0
    4.2902   -7.9915    0.0000 C   0  0  0  0  0  0  0  0  0  0  0  0
    3.5757   -7.5790    0.0000 C   0  0  0  0  0  0  0  0  0  0  0  0
    3.5757   -6.7540    0.0000 C   0  0  0  0  0  0  0  0  0  0  0  0
    2.8612   -6.3415    0.0000 O   0  0  0  0  0  0  0  0  0  0  0  0
    4.2902   -6.3415    0.0000 C   0  0  0  0  0  0  0  0  0  0  0  0
    5.0046   -6.7540    0.0000 C   0  0  0  0  0  0  0  0  0  0  0  0
    5.7191   -6.3415    0.0000 O   0  0  0  0  0  0  0  0  0  0  0  0
    6.4336   -6.7540    0.0000 C   0  0  0  0  0  0  0  0  0  0  0  0
    6.4336   -7.5790    0.0000 C   0  0  0  0  0  0  0  0  0  0  0  0
    7.1480   -7.9915    0.0000 C   0  0  0  0  0  0  0  0  0  0  0  0
    7.8625   -7.5790    0.0000 C   0  0  0  0  0  0  0  0  0  0  0  0
    7.8625   -6.7540    0.0000 O   0  0  0  0  0  0  0  0  0  0  0  0
    8.5770   -6.3415    0.0000 C   0  0  0  0  0  0  0  0  0  0  0  0
    8.5770   -7.9915    0.0000 C   0  0  0  0  0  0  0  0  0  0  0  0
    9.2915   -7.5790    0.0000 C   0  0  0  0  0  0  0  0  0  0  0  0
   10.0060   -7.9915    0.0000 C   0  0  0  0  0  0  0  0  0  0  0  0
   10.7204   -7.5790    0.0000 C   0  0  0  0  0  0  0  0  0  0  0  0
   10.7204   -6.7540    0.0000 C   0  0  0  0  0  0  0  0  0  0  0  0
   11.4349   -7.9915    0.0000 C   0  0  0  0  0  0  0  0  0  0  0  0
    8.5770   -8.8165    0.0000 C   0  0  0  0  0  0  0  0  0  0  0  0
    9.2915   -9.2290    0.0000 O   0  0  0  0  0  0  0  0  0  0  0  0
   10.0060   -8.8165    0.0000 C   0  0  0  0  0  0  0  0  0  0  0  0
    7.8625   -9.2290    0.0000 C   0  0  0  0  0  0  0  0  0  0  0  0
    7.1480   -8.8165    0.0000 C   0  0  0  0  0  0  0  0  0  0  0  0
    6.4336   -9.2290    0.0000 O   0  0  0  0  0  0  0  0  0  0  0  0
  1  2  2  0  0  0  0
  2  3  1  0  0  0  0
  3  4  2  0  0  0  0
  4  5  1  0  0  0  0
  5  6  2  0  0  0  0
  6  7  1  0  0  0  0
  6  8  1  0  0  0  0
  8  9  2  0  0  0  0
  3  9  1  0  0  0  0
  9 10  1  0  0  0  0
 10 11  1  0  0  0  0
 11 12  2  0  0  0  0
  2 12  1  0  0  0  0
 12 13  1  0  0  0  0
 13 14  2  0  0  0  0
 14 15  1  0  0  0  0
 15 16  1  0  0  0  0
 14 17  1  0  0  0  0
 17 18  1  0  0  0  0
 18 19  1  0  0  0  0
 19 20  2  0  0  0  0
 20 21  1  0  0  0  0
 20 22  1  0  0  0  0
 17 23  2  0  0  0  0
 23 24  1  0  0  0  0
 24 25  1  0  0  0  0
 23 26  1  0  0  0  0
 26 27  2  0  0  0  0
 13 27  1  0  0  0  0
 27 28  1  0  0  0  0
M  END
>  <cdx:fragmentId>
12956

$$$$
