5319057.cdx
  Mrv1902 05222410232D          

 28 29  0  0  0  0            999 V2000
   14.0828  -14.6185    0.0000 C   0  0  0  0  0  0  0  0  0  0  0  0
   13.3683  -15.0310    0.0000 C   0  0  0  0  0  0  0  0  0  0  0  0
   12.6538  -14.6185    0.0000 C   0  0  0  0  0  0  0  0  0  0  0  0
   12.6538  -13.7935    0.0000 C   0  0  0  0  0  0  0  0  0  0  0  0
   14.0828  -13.7935    0.0000 O   0  0  0  0  0  0  0  0  0  0  0  0
   14.7972  -15.0310    0.0000 O   0  0  0  0  0  0  0  0  0  0  0  0
   11.9393  -15.0310    0.0000 C   0  0  0  0  0  0  0  0  0  0  0  0
   15.5117  -14.6185    0.0000 C   0  0  0  0  0  0  0  0  0  0  0  0
   16.2262  -15.0310    0.0000 C   0  0  0  0  0  0  0  0  0  0  0  0
   16.9406  -14.6185    0.0000 C   0  0  0  0  0  0  0  0  0  0  0  0
   17.6551  -15.0310    0.0000 C   0  0  0  0  0  0  0  0  0  0  0  0
   17.6551  -15.8560    0.0000 C   0  0  0  0  0  0  0  0  0  0  0  0
   18.3696  -14.6185    0.0000 C   0  0  0  0  0  0  0  0  0  0  0  0
   18.3696  -15.4435    0.0000 O   0  0  0  0  0  0  0  0  0  0  0  0
   16.2262  -13.3810    0.0000 C   0  0  0  0  0  0  0  0  0  0  0  0
   15.5117  -13.7935    0.0000 C   0  0  0  0  0  0  0  0  0  0  0  0
   14.7972  -13.3810    0.0000 C   0  0  0  0  0  0  0  0  0  0  0  0
   14.7972  -12.5560    0.0000 C   0  0  0  0  0  0  0  0  0  0  0  0
   15.5117  -12.1435    0.0000 C   0  0  0  0  0  0  0  0  0  0  0  0
   15.5117  -11.3185    0.0000 C   0  0  0  0  0  0  0  0  0  0  0  0
   16.2262  -10.9060    0.0000 C   0  0  0  0  0  0  0  0  0  0  0  0
   16.9406  -11.3185    0.0000 C   0  0  0  0  0  0  0  0  0  0  0  0
   16.9406  -12.1435    0.0000 C   0  0  0  0  0  0  0  0  0  0  0  0
   16.2262  -12.5560    0.0000 C   0  0  0  0  0  0  0  0  0  0  0  0
   14.0828  -12.1435    0.0000 O   0  0  0  0  0  0  0  0  0  0  0  0
   16.9406  -13.7935    0.0000 O   0  0  0  0  0  0  0  0  0  0  0  0
   17.6551  -12.5560    0.0000 O   0  0  0  0  0  0  0  0  0  0  0  0
   14.7972  -10.9060    0.0000 O   0  0  0  0  0  0  0  0  0  0  0  0
  1  2  1  0  0  0  0
  2  3  1  0  0  0  0
  3  4  1  0  0  0  0
  1  5  2  0  0  0  0
  1  6  1  0  0  0  0
  3  7  1  0  0  0  0
  8  9  1  0  0  0  0
  9 10  2  0  0  0  0
 10 11  1  0  0  0  0
 11 12  1  0  0  0  0
 11 13  1  0  0  0  0
 11 14  1  0  0  0  0
 15 16  1  0  0  0  0
 16 17  2  0  0  0  0
 17 18  1  0  0  0  0
 18 19  1  0  0  0  0
 19 20  1  0  0  0  0
 20 21  2  0  0  0  0
 21 22  1  0  0  0  0
 22 23  2  0  0  0  0
 23 24  1  0  0  0  0
 15 24  1  0  0  0  0
 19 24  2  0  0  0  0
 18 25  2  0  0  0  0
 15 26  2  0  0  0  0
 23 27  1  0  0  0  0
 20 28  1  0  0  0  0
  8 16  1  0  0  0  0
  6  8  1  0  0  0  0
M  END
>  <cdx:groupId>
1284

>  <cdx:fragmentId>
1230

$$$$
