5319001.cdx
  Mrv1902 05222410282D          

 28 31  0  0  0  0            999 V2000
    5.7590   -6.4828    0.0000 C   0  0  0  0  0  0  0  0  0  0  0  0
    5.7590   -7.3078    0.0000 C   0  0  0  0  0  0  0  0  0  0  0  0
    6.4735   -7.7203    0.0000 C   0  0  0  0  0  0  0  0  0  0  0  0
    7.1879   -7.3078    0.0000 C   0  0  0  0  0  0  0  0  0  0  0  0
    7.9024   -7.7203    0.0000 C   0  0  0  0  0  0  0  0  0  0  0  0
    8.6169   -7.3078    0.0000 C   0  0  0  0  0  0  0  0  0  0  0  0
    8.6169   -6.4828    0.0000 C   0  0  0  0  0  0  0  0  0  0  0  0
    7.9024   -6.0703    0.0000 C   0  0  0  0  0  0  0  0  0  0  0  0
    7.1879   -6.4828    0.0000 C   0  0  0  0  0  0  0  0  0  0  0  0
    6.4735   -6.0703    0.0000 O   0  0  0  0  0  0  0  0  0  0  0  0
    9.4015   -6.2279    0.0000 O   0  0  0  0  0  0  0  0  0  0  0  0
    9.4015   -7.5628    0.0000 C   0  0  0  0  0  0  0  0  0  0  0  0
    9.8864   -6.8953    0.0000 C   0  0  0  0  0  0  0  0  0  0  0  0
    5.0445   -6.0703    0.0000 O   0  0  0  0  0  0  0  0  0  0  0  0
    7.9024   -8.5453    0.0000 O   0  0  0  0  0  0  0  0  0  0  0  0
    8.6169   -8.9578    0.0000 C   0  0  0  0  0  0  0  0  0  0  0  0
   11.1239   -7.6098    0.0000 C   0  0  0  0  0  0  0  0  0  0  0  0
   10.7114   -6.8953    0.0000 C   0  0  0  0  0  0  0  0  0  0  0  0
   11.1239   -6.1809    0.0000 C   0  0  0  0  0  0  0  0  0  0  0  0
   11.5364   -6.8953    0.0000 O   0  0  0  0  0  0  0  0  0  0  0  0
    5.0445   -7.7203    0.0000 C   0  0  0  0  0  0  0  0  0  0  0  0
    5.0445   -8.5453    0.0000 C   0  0  0  0  0  0  0  0  0  0  0  0
    4.3300   -8.9578    0.0000 C   0  0  0  0  0  0  0  0  0  0  0  0
    3.6156   -8.5453    0.0000 C   0  0  0  0  0  0  0  0  0  0  0  0
    3.6156   -7.7203    0.0000 C   0  0  0  0  0  0  0  0  0  0  0  0
    4.3300   -7.3078    0.0000 C   0  0  0  0  0  0  0  0  0  0  0  0
    2.9011   -8.9578    0.0000 O   0  0  0  0  0  0  0  0  0  0  0  0
    5.7590   -8.9578    0.0000 O   0  0  0  0  0  0  0  0  0  0  0  0
  1  2  1  0  0  0  0
  2  3  2  0  0  0  0
  3  4  1  0  0  0  0
  4  5  2  0  0  0  0
  5  6  1  0  0  0  0
  6  7  2  0  0  0  0
  7  8  1  0  0  0  0
  8  9  2  0  0  0  0
  4  9  1  0  0  0  0
  9 10  1  0  0  0  0
  1 10  1  0  0  0  0
 12 13  1  0  0  0  0
 11 13  1  0  0  0  0
 12  6  1  0  0  0  0
 11  7  1  0  0  0  0
  1 14  2  0  0  0  0
 15 16  1  0  0  0  0
  5 15  1  0  0  0  0
 17 18  1  0  0  0  0
 18 19  1  0  0  0  0
 18 20  1  0  0  0  0
 13 18  1  0  0  0  0
 21 22  1  0  0  0  0
 22 23  2  0  0  0  0
 23 24  1  0  0  0  0
 24 25  2  0  0  0  0
 25 26  1  0  0  0  0
 21 26  2  0  0  0  0
 24 27  1  0  0  0  0
 22 28  1  0  0  0  0
  2 21  1  0  0  0  0
M  END
>  <cdx:fragmentId>
12864

$$$$
