319081.cdx
  Mrv1902 05222410232D          

 21 22  0  0  0  0            999 V2000
   10.9957   -7.0428    0.0000 O   0  0  0  0  0  0  0  0  0  0  0  0
    6.7088   -4.5678    0.0000 O   0  0  0  0  0  0  0  0  0  0  0  0
    3.8510   -7.0428    0.0000 O   0  0  0  0  0  0  0  0  0  0  0  0
    8.1378   -5.3928    0.0000 C   0  0  0  0  0  0  0  0  0  0  0  0
    7.4233   -5.8053    0.0000 C   0  0  0  0  0  0  0  0  0  0  0  0
    8.8523   -5.8053    0.0000 C   0  0  0  0  0  0  0  0  0  0  0  0
    9.5667   -5.3928    0.0000 C   0  0  0  0  0  0  0  0  0  0  0  0
    6.7088   -5.3928    0.0000 C   0  0  0  0  0  0  0  0  0  0  0  0
    8.8523   -6.6303    0.0000 C   0  0  0  0  0  0  0  0  0  0  0  0
    5.9944   -5.8053    0.0000 C   0  0  0  0  0  0  0  0  0  0  0  0
   10.2812   -5.8053    0.0000 C   0  0  0  0  0  0  0  0  0  0  0  0
    9.5667   -7.0428    0.0000 C   0  0  0  0  0  0  0  0  0  0  0  0
   10.2812   -6.6303    0.0000 C   0  0  0  0  0  0  0  0  0  0  0  0
    5.2799   -5.3928    0.0000 C   0  0  0  0  0  0  0  0  0  0  0  0
    5.9944   -6.6303    0.0000 C   0  0  0  0  0  0  0  0  0  0  0  0
    4.5654   -5.8053    0.0000 C   0  0  0  0  0  0  0  0  0  0  0  0
    5.2799   -7.0428    0.0000 C   0  0  0  0  0  0  0  0  0  0  0  0
    4.5654   -6.6303    0.0000 C   0  0  0  0  0  0  0  0  0  0  0  0
   11.7101   -6.6303    0.0000 C   0  0  0  0  0  0  0  0  0  0  0  0
    8.1378   -7.0428    0.0000 O   0  0  0  0  0  0  0  0  0  0  0  0
    7.4233   -6.6303    0.0000 C   0  0  0  0  0  0  0  0  0  0  0  0
  1 13  1  0  0  0  0
  1 19  1  0  0  0  0
  2  8  2  0  0  0  0
  3 18  1  0  0  0  0
  4  5  1  0  0  0  0
  4  6  1  0  0  0  0
  5  8  1  0  0  0  0
  6  7  2  0  0  0  0
  6  9  1  0  0  0  0
  7 11  1  0  0  0  0
  8 10  1  0  0  0  0
  9 12  2  0  0  0  0
 10 14  2  0  0  0  0
 10 15  1  0  0  0  0
 11 13  2  0  0  0  0
 12 13  1  0  0  0  0
 14 16  1  0  0  0  0
 15 17  2  0  0  0  0
 16 18  2  0  0  0  0
 17 18  1  0  0  0  0
  9 20  1  0  0  0  0
 20 21  1  0  0  0  0
M  END
>  <cdx:fragmentId>
13060

$$$$
