319187.cdx
  Mrv1902 05222410182D          

 21 22  0  0  0  0            999 V2000
   10.8154   -8.5419    0.0000 C   0  0  0  0  0  0  0  0  0  0  0  0
   10.3994   -7.8295    0.0000 C   0  0  0  0  0  0  0  0  0  0  0  0
    9.5744   -7.8335    0.0000 C   0  0  0  0  0  0  0  0  0  0  0  0
   11.6404   -8.5379    0.0000 O   0  0  0  0  0  0  0  0  0  0  0  0
    9.1584   -7.1211    0.0000 C   0  0  0  0  0  0  0  0  0  0  0  0
    8.3334   -7.1251    0.0000 C   0  0  0  0  0  0  0  0  0  0  0  0
    7.9174   -6.4127    0.0000 C   0  0  0  0  0  0  0  0  0  0  0  0
    8.3264   -5.6962    0.0000 C   0  0  0  0  0  0  0  0  0  0  0  0
    9.1514   -5.6922    0.0000 C   0  0  0  0  0  0  0  0  0  0  0  0
    9.5674   -6.4046    0.0000 C   0  0  0  0  0  0  0  0  0  0  0  0
    7.9104   -4.9837    0.0000 O   0  0  0  0  0  0  0  0  0  0  0  0
    4.6175   -6.4288    0.0000 O   0  0  0  0  0  0  0  0  0  0  0  0
    4.2155   -8.5742    0.0000 C   0  0  0  0  0  0  0  0  0  0  0  0
    4.6245   -7.8577    0.0000 C   0  0  0  0  0  0  0  0  0  0  0  0
    5.4494   -7.8537    0.0000 C   0  0  0  0  0  0  0  0  0  0  0  0
    6.6765   -5.7043    0.0000 C   0  0  0  0  0  0  0  0  0  0  0  0
    5.8515   -5.7083    0.0000 C   0  0  0  0  0  0  0  0  0  0  0  0
    5.4425   -6.4248    0.0000 C   0  0  0  0  0  0  0  0  0  0  0  0
    5.8584   -7.1372    0.0000 C   0  0  0  0  0  0  0  0  0  0  0  0
    6.6834   -7.1332    0.0000 C   0  0  0  0  0  0  0  0  0  0  0  0
    7.0924   -6.4167    0.0000 C   0  0  0  0  0  0  0  0  0  0  0  0
 18 12  1  0  0  0  0
 19 15  1  0  0  0  0
 14 13  2  0  0  0  0
 15 14  1  0  0  0  0
 21 16  2  0  0  0  0
 17 16  1  0  0  0  0
 18 17  2  0  0  0  0
 19 18  1  0  0  0  0
 20 19  2  0  0  0  0
 21 20  1  0  0  0  0
  1  2  1  0  0  0  0
  2  3  2  0  0  0  0
  1  4  2  0  0  0  0
  5  6  1  0  0  0  0
  6  7  2  0  0  0  0
  7  8  1  0  0  0  0
  8  9  2  0  0  0  0
  9 10  1  0  0  0  0
  5 10  2  0  0  0  0
  7 21  1  0  0  0  0
  8 11  1  0  0  0  0
  3  5  1  0  0  0  0
M  END
>  <cdx:fragmentId>
25

$$$$
