319116.cdx
  Mrv1902 05222410252D          

 32 35  0  0  0  0            999 V2000
    4.2099   -8.9094    0.0000 O   0  0  0  0  0  0  0  0  0  0  0  0
    2.7809   -6.4344    0.0000 O   0  0  0  0  0  0  0  0  0  0  0  0
   10.6401   -4.3719    0.0000 O   0  0  0  0  0  0  0  0  0  0  0  0
   12.0691   -5.1969    0.0000 O   0  0  0  0  0  0  0  0  0  0  0  0
   12.0691   -6.8469    0.0000 O   0  0  0  0  0  0  0  0  0  0  0  0
   11.3546   -8.0844    0.0000 O   0  0  0  0  0  0  0  0  0  0  0  0
   10.6401   -7.6719    0.0000 C   0  0  0  0  0  0  0  0  0  0  0  0
   10.6401   -6.8469    0.0000 C   0  0  2  0  0  0  0  0  0  0  0  0
   11.3546   -6.4344    0.0000 C   0  0  2  0  0  0  0  0  0  0  0  0
   11.3546   -5.6094    0.0000 C   0  0  1  0  0  0  0  0  0  0  0  0
   10.6401   -5.1969    0.0000 C   0  0  2  0  0  0  0  0  0  0  0  0
    9.9256   -5.6094    0.0000 C   0  0  1  0  0  0  0  0  0  0  0  0
    9.9256   -6.4344    0.0000 O   0  0  0  0  0  0  0  0  0  0  0  0
    9.2112   -5.1969    0.0000 O   0  0  0  0  0  0  0  0  0  0  0  0
    7.0678   -5.6094    0.0000 C   0  0  0  0  0  0  0  0  0  0  0  0
    7.7822   -5.1969    0.0000 C   0  0  0  0  0  0  0  0  0  0  0  0
    8.4967   -5.6094    0.0000 C   0  0  0  0  0  0  0  0  0  0  0  0
    8.4967   -6.4344    0.0000 C   0  0  0  0  0  0  0  0  0  0  0  0
    7.7822   -6.8469    0.0000 C   0  0  0  0  0  0  0  0  0  0  0  0
    7.0678   -6.4344    0.0000 C   0  0  0  0  0  0  0  0  0  0  0  0
    5.6388   -8.9094    0.0000 O   0  0  0  0  0  0  0  0  0  0  0  0
    5.6388   -6.4344    0.0000 O   0  0  0  0  0  0  0  0  0  0  0  0
    4.9244   -6.8469    0.0000 C   0  0  0  0  0  0  0  0  0  0  0  0
    4.2099   -6.4344    0.0000 C   0  0  0  0  0  0  0  0  0  0  0  0
    3.4954   -6.8469    0.0000 C   0  0  0  0  0  0  0  0  0  0  0  0
    3.4954   -7.6719    0.0000 C   0  0  0  0  0  0  0  0  0  0  0  0
    4.2099   -8.0844    0.0000 C   0  0  0  0  0  0  0  0  0  0  0  0
    4.9244   -7.6719    0.0000 C   0  0  0  0  0  0  0  0  0  0  0  0
    5.6388   -8.0844    0.0000 C   0  0  0  0  0  0  0  0  0  0  0  0
    6.3533   -7.6719    0.0000 C   0  0  0  0  0  0  0  0  0  0  0  0
    6.3533   -6.8469    0.0000 C   0  0  0  0  0  0  0  0  0  0  0  0
    7.7822   -4.3719    0.0000 O   0  0  0  0  0  0  0  0  0  0  0  0
 27  1  1  0  0  0  0
 25  2  1  0  0  0  0
 31 20  1  0  0  0  0
 17 14  1  0  0  0  0
 12 14  1  1  0  0  0
 11  3  1  6  0  0  0
 10  4  1  1  0  0  0
  9  5  1  6  0  0  0
  8  7  1  1  0  0  0
  7  6  1  0  0  0  0
 13  8  1  0  0  0  0
  9  8  1  0  0  0  0
 10  9  1  0  0  0  0
 11 10  1  0  0  0  0
 12 11  1  0  0  0  0
 13 12  1  0  0  0  0
 20 15  2  0  0  0  0
 16 15  1  0  0  0  0
 17 16  2  0  0  0  0
 18 17  1  0  0  0  0
 19 18  2  0  0  0  0
 20 19  1  0  0  0  0
 29 21  2  0  0  0  0
 31 22  1  0  0  0  0
 23 22  1  0  0  0  0
 28 23  2  0  0  0  0
 24 23  1  0  0  0  0
 25 24  2  0  0  0  0
 26 25  1  0  0  0  0
 27 26  2  0  0  0  0
 28 27  1  0  0  0  0
 29 28  1  0  0  0  0
 30 29  1  0  0  0  0
 31 30  2  0  0  0  0
 16 32  1  0  0  0  0
M  END
>  <cdx:fragmentId>
41

$$$$
