319292.cdx
  Mrv1902 05222410212D          

 46 49  0  0  0  0            999 V2000
    8.9736   -7.4130    0.0000 O   0  0  0  0  0  0  0  0  0  0  0  0
   13.2601   -7.3688    0.0000 O   0  0  0  0  0  0  0  0  0  0  0  0
   13.2431   -5.7189    0.0000 O   0  0  0  0  0  0  0  0  0  0  0  0
   11.1126   -6.9784    0.0000 C   0  0  0  0  0  0  0  0  0  0  0  0
   11.8313   -7.3835    0.0000 C   0  0  0  0  0  0  0  0  0  0  0  0
   12.5414   -6.9637    0.0000 C   0  0  0  0  0  0  0  0  0  0  0  0
   12.5329   -6.1387    0.0000 C   0  0  0  0  0  0  0  0  0  0  0  0
   11.8143   -5.7336    0.0000 C   0  0  0  0  0  0  0  0  0  0  0  0
   11.1041   -6.1534    0.0000 C   0  0  0  0  0  0  0  0  0  0  0  0
   10.3854   -5.7483    0.0000 C   0  0  0  0  0  0  0  0  0  0  0  0
    9.6752   -6.1682    0.0000 C   0  0  0  0  0  0  0  0  0  0  0  0
    8.9566   -5.7631    0.0000 O   0  0  0  0  0  0  0  0  0  0  0  0
    6.0903   -4.9676    0.0000 O   0  0  0  0  0  0  0  0  0  0  0  0
    6.0988   -5.7926    0.0000 C   0  0  0  0  0  0  0  0  0  0  0  0
    7.5702   -9.9026    0.0000 O   0  0  0  0  0  0  0  0  0  0  0  0
    6.1499  -10.7423    0.0000 O   0  0  0  0  0  0  0  0  0  0  0  0
    4.7125   -9.9321    0.0000 O   0  0  0  0  0  0  0  0  0  0  0  0
    4.6955   -8.2822    0.0000 C   0  0  0  0  0  0  0  0  0  0  0  0
    5.4142   -8.6873    0.0000 C   0  0  1  0  0  0  0  0  0  0  0  0
    5.4227   -9.5122    0.0000 C   0  0  1  0  0  0  0  0  0  0  0  0
    6.1414   -9.9173    0.0000 C   0  0  2  0  0  0  0  0  0  0  0  0
    6.8516   -9.4975    0.0000 C   0  0  2  0  0  0  0  0  0  0  0  0
    6.8431   -8.6725    0.0000 C   0  0  1  0  0  0  0  0  0  0  0  0
    6.1243   -8.2674    0.0000 O   0  0  0  0  0  0  0  0  0  0  0  0
    7.5532   -8.2527    0.0000 O   0  0  0  0  0  0  0  0  0  0  0  0
    8.2464   -6.1829    0.0000 C   0  0  1  0  0  0  0  0  0  0  0  0
    8.2549   -7.0079    0.0000 C   0  0  1  0  0  0  0  0  0  0  0  0
    7.5447   -7.4277    0.0000 C   0  0  2  0  0  0  0  0  0  0  0  0
    6.8260   -7.0226    0.0000 C   0  0  1  0  0  0  0  0  0  0  0  0
    6.8175   -6.1977    0.0000 C   0  0  2  0  0  0  0  0  0  0  0  0
    7.5277   -5.7778    0.0000 O   0  0  0  0  0  0  0  0  0  0  0  0
    1.1106   -7.0816    0.0000 O   0  0  0  0  0  0  0  0  0  0  0  0
    1.1276   -8.7315    0.0000 O   0  0  0  0  0  0  0  0  0  0  0  0
    3.2666   -8.2969    0.0000 C   0  0  0  0  0  0  0  0  0  0  0  0
    2.5565   -8.7167    0.0000 C   0  0  0  0  0  0  0  0  0  0  0  0
    1.8378   -8.3116    0.0000 C   0  0  0  0  0  0  0  0  0  0  0  0
    1.8293   -7.4867    0.0000 C   0  0  0  0  0  0  0  0  0  0  0  0
    2.5395   -7.0669    0.0000 C   0  0  0  0  0  0  0  0  0  0  0  0
    3.2581   -7.4720    0.0000 C   0  0  0  0  0  0  0  0  0  0  0  0
    6.1158   -7.4425    0.0000 O   0  0  0  0  0  0  0  0  0  0  0  0
    5.3887   -6.2124    0.0000 O   0  0  0  0  0  0  0  0  0  0  0  0
    3.9683   -7.0521    0.0000 C   0  0  0  0  0  0  0  0  0  0  0  0
    4.6870   -7.4572    0.0000 C   0  0  0  0  0  0  0  0  0  0  0  0
    5.3972   -7.0374    0.0000 C   0  0  0  0  0  0  0  0  0  0  0  0
   13.9703   -6.9489    0.0000 C   0  0  0  0  0  0  0  0  0  0  0  0
    1.1021   -6.2566    0.0000 C   0  0  0  0  0  0  0  0  0  0  0  0
 29 40  1  6  0  0  0
 27  1  1  6  0  0  0
 26 12  1  1  0  0  0
 10  9  1  0  0  0  0
  6  2  1  0  0  0  0
  7  3  1  0  0  0  0
  9  4  2  0  0  0  0
  5  4  1  0  0  0  0
  6  5  2  0  0  0  0
  7  6  1  0  0  0  0
  8  7  2  0  0  0  0
  9  8  1  0  0  0  0
 12 11  1  0  0  0  0
 11 10  1  0  0  0  0
 30 14  1  1  0  0  0
 14 13  1  0  0  0  0
 28 25  1  1  0  0  0
 23 25  1  1  0  0  0
 22 15  1  6  0  0  0
 21 16  1  6  0  0  0
 20 17  1  1  0  0  0
 19 18  1  6  0  0  0
 24 19  1  0  0  0  0
 20 19  1  0  0  0  0
 21 20  1  0  0  0  0
 22 21  1  0  0  0  0
 23 22  1  0  0  0  0
 24 23  1  0  0  0  0
 31 26  1  0  0  0  0
 27 26  1  0  0  0  0
 28 27  1  0  0  0  0
 29 28  1  0  0  0  0
 30 29  1  0  0  0  0
 31 30  1  0  0  0  0
 42 39  1  0  0  0  0
 37 32  1  0  0  0  0
 36 33  1  0  0  0  0
 39 34  2  0  0  0  0
 35 34  1  0  0  0  0
 36 35  2  0  0  0  0
 37 36  1  0  0  0  0
 38 37  2  0  0  0  0
 39 38  1  0  0  0  0
 44 40  1  0  0  0  0
 44 41  2  0  0  0  0
 43 42  2  0  0  0  0
 44 43  1  0  0  0  0
  2 45  1  0  0  0  0
 32 46  1  0  0  0  0
M  END
>  <cdx:fragmentId>
13439

$$$$
