319362.cdx
  Mrv1902 05222410282D          

 17 19  0  0  0  0            999 V2000
    5.7666   -5.5771    0.0000 C   0  0  0  0  0  0  0  0  0  0  0  0
    5.2710   -6.2367    0.0000 C   0  0  0  0  0  0  0  0  0  0  0  0
    5.7451   -6.9118    0.0000 C   0  0  1  0  0  0  0  0  0  0  0  0
    6.5338   -6.6695    0.0000 C   0  0  1  0  0  0  0  0  0  0  0  0
    6.5470   -5.8446    0.0000 C   0  0  0  0  0  0  0  0  0  0  0  0
    7.1077   -7.2621    0.0000 C   0  0  0  0  0  0  0  0  0  0  0  0
    7.9326   -7.2754    0.0000 C   0  0  0  0  0  0  0  0  0  0  0  0
    8.5252   -6.7014    0.0000 C   0  0  2  0  0  0  0  0  0  0  0  0
    8.5385   -5.8765    0.0000 C   0  0  1  0  0  0  0  0  0  0  0  0
    7.9645   -5.2839    0.0000 C   0  0  0  0  0  0  0  0  0  0  0  0
    7.1396   -5.2707    0.0000 C   0  0  0  0  0  0  0  0  0  0  0  0
    5.1832   -4.9937    0.0000 C   0  0  0  0  0  0  0  0  0  0  0  0
    5.9801   -4.7802    0.0000 C   0  0  0  0  0  0  0  0  0  0  0  0
    5.4777   -7.6922    0.0000 O   0  0  0  0  0  0  0  0  0  0  0  0
    9.3056   -5.5731    0.0000 C   0  0  0  0  0  0  0  0  0  0  0  0
    9.2823   -7.0293    0.0000 O   0  0  0  0  0  0  0  0  0  0  0  0
    7.3425   -5.9125    0.0000 C   0  0  0  0  0  0  0  0  0  0  0  0
  1  2  1  0  0  0  0
  2  3  1  0  0  0  0
  3  4  1  0  0  0  0
  4  5  1  0  0  0  0
  5  1  1  0  0  0  0
  4  6  1  1  0  0  0
  6  7  1  0  0  0  0
  7  8  1  0  0  0  0
  8  9  1  0  0  0  0
  9 10  1  0  0  0  0
 10 11  1  0  0  0  0
 11  5  1  0  0  0  0
  1 12  1  0  0  0  0
  1 13  1  0  0  0  0
  3 14  1  1  0  0  0
  9 15  1  6  0  0  0
  8 16  1  6  0  0  0
  4 17  1  0  0  0  0
 17  9  1  0  0  0  0
M  END
>  <cdx:fragmentId>
208059

$$$$
