5319350.cdx
  Mrv1902 05222410182D          

 24 27  0  0  0  0            999 V2000
   15.9023   -9.7118    0.0000 C   0  0  0  0  0  0  0  0  0  0  0  0
   15.3503   -9.0987    0.0000 C   0  0  0  0  0  0  0  0  0  0  0  0
   15.6052   -8.3141    0.0000 C   0  0  0  0  0  0  0  0  0  0  0  0
   16.4122   -8.1425    0.0000 C   0  0  0  0  0  0  0  0  0  0  0  0
   16.6672   -7.3579    0.0000 C   0  0  0  0  0  0  0  0  0  0  0  0
   17.4741   -7.1864    0.0000 C   0  0  0  0  0  0  0  0  0  0  0  0
   18.0262   -7.7995    0.0000 C   0  0  0  0  0  0  0  0  0  0  0  0
   17.7712   -8.5841    0.0000 C   0  0  0  0  0  0  0  0  0  0  0  0
   16.9642   -8.7556    0.0000 C   0  0  0  0  0  0  0  0  0  0  0  0
   16.7093   -9.5403    0.0000 O   0  0  0  0  0  0  0  0  0  0  0  0
   14.9378   -7.8291    0.0000 O   0  0  0  0  0  0  0  0  0  0  0  0
   14.5253   -9.0987    0.0000 C   0  0  0  0  0  0  0  0  0  0  0  0
   13.9733   -9.7118    0.0000 C   0  0  0  0  0  0  0  0  0  0  0  0
   13.1663   -9.5403    0.0000 C   0  0  0  0  0  0  0  0  0  0  0  0
   12.9114   -8.7556    0.0000 C   0  0  0  0  0  0  0  0  0  0  0  0
   13.4634   -8.1425    0.0000 C   0  0  0  0  0  0  0  0  0  0  0  0
   14.2704   -8.3141    0.0000 C   0  0  0  0  0  0  0  0  0  0  0  0
   18.3232   -9.1972    0.0000 O   0  0  0  0  0  0  0  0  0  0  0  0
   13.2085   -7.3579    0.0000 O   0  0  0  0  0  0  0  0  0  0  0  0
   12.4015   -7.1864    0.0000 C   0  0  0  0  0  0  0  0  0  0  0  0
   12.1044   -8.5841    0.0000 O   0  0  0  0  0  0  0  0  0  0  0  0
   11.5524   -9.1972    0.0000 C   0  0  0  0  0  0  0  0  0  0  0  0
   18.8331   -7.6280    0.0000 O   0  0  0  0  0  0  0  0  0  0  0  0
   19.3852   -8.2411    0.0000 C   0  0  0  0  0  0  0  0  0  0  0  0
  1  2  1  0  0  0  0
  2  3  1  0  0  0  0
  3  4  1  0  0  0  0
  4  5  1  0  0  0  0
  5  6  2  0  0  0  0
  6  7  1  0  0  0  0
  7  8  2  0  0  0  0
  8  9  1  0  0  0  0
  4  9  2  0  0  0  0
  9 10  1  0  0  0  0
  1 10  1  0  0  0  0
 12 13  1  0  0  0  0
 13 14  2  0  0  0  0
 14 15  1  0  0  0  0
 15 16  2  0  0  0  0
 16 17  1  0  0  0  0
 12 17  2  0  0  0  0
 11 17  1  0  0  0  0
 12  2  1  0  0  0  0
 11  3  1  0  0  0  0
  8 18  1  0  0  0  0
 19 20  1  0  0  0  0
 16 19  1  0  0  0  0
 21 22  1  0  0  0  0
 15 21  1  0  0  0  0
 23 24  1  0  0  0  0
  7 23  1  0  0  0  0
M  END
>  <cdx:groupId>
13901

>  <cdx:fragmentId>
13829

$$$$
