5319322.cdx
  Mrv1902 05222410222D          

 22 26  0  0  0  0            999 V2000
   18.7858   -8.2171    0.0000 O   0  0  0  0  0  0  0  0  0  0  0  0
   17.9653   -8.1309    0.0000 C   0  0  0  0  0  0  0  0  0  0  0  0
   17.4804   -8.7983    0.0000 C   0  0  0  0  0  0  0  0  0  0  0  0
   16.6599   -8.7121    0.0000 C   0  0  0  0  0  0  0  0  0  0  0  0
   16.3243   -7.9584    0.0000 C   0  0  0  0  0  0  0  0  0  0  0  0
   16.8093   -7.2910    0.0000 C   0  0  0  0  0  0  0  0  0  0  0  0
   17.6298   -7.3772    0.0000 C   0  0  0  0  0  0  0  0  0  0  0  0
   15.5038   -7.8722    0.0000 C   0  0  0  0  0  0  0  0  0  0  0  0
   15.0189   -8.5396    0.0000 C   0  0  0  0  0  0  0  0  0  0  0  0
   14.2342   -8.2847    0.0000 C   0  0  0  0  0  0  0  0  0  0  0  0
   14.2342   -7.4597    0.0000 C   0  0  0  0  0  0  0  0  0  0  0  0
   15.0189   -7.2048    0.0000 O   0  0  0  0  0  0  0  0  0  0  0  0
   13.5198   -7.0472    0.0000 C   0  0  0  0  0  0  0  0  0  0  0  0
   12.8053   -7.4597    0.0000 C   0  0  0  0  0  0  0  0  0  0  0  0
   12.0207   -7.2048    0.0000 O   0  0  0  0  0  0  0  0  0  0  0  0
   11.5357   -7.8722    0.0000 C   0  0  0  0  0  0  0  0  0  0  0  0
   12.0207   -8.5396    0.0000 O   0  0  0  0  0  0  0  0  0  0  0  0
   12.8053   -8.2847    0.0000 C   0  0  0  0  0  0  0  0  0  0  0  0
   13.5198   -8.6972    0.0000 C   0  0  0  0  0  0  0  0  0  0  0  0
   15.3545   -9.2933    0.0000 C   0  0  0  0  0  0  0  0  0  0  0  0
   14.8696   -9.9608    0.0000 O   0  0  0  0  0  0  0  0  0  0  0  0
   16.1750   -9.3796    0.0000 O   0  0  0  0  0  0  0  0  0  0  0  0
  1  2  1  0  0  0  0
  2  3  2  0  0  0  0
  3  4  1  0  0  0  0
  4  5  2  0  0  0  0
  5  6  1  0  0  0  0
  6  7  2  0  0  0  0
  2  7  1  0  0  0  0
  5  8  1  0  0  0  0
  8  9  2  0  0  0  0
  9 10  1  0  0  0  0
 10 11  2  0  0  0  0
 11 12  1  0  0  0  0
  8 12  1  0  0  0  0
 11 13  1  0  0  0  0
 13 14  2  0  0  0  0
 14 15  1  0  0  0  0
 15 16  1  0  0  0  0
 16 17  1  0  0  0  0
 17 18  1  0  0  0  0
 14 18  1  0  0  0  0
 18 19  2  0  0  0  0
 10 19  1  0  0  0  0
  9 20  1  0  0  0  0
 20 21  2  0  0  0  0
 20 22  1  0  0  0  0
  4 22  1  0  0  0  0
M  END
>  <cdx:fragmentId>
13551

$$$$
