319493.cdx
  Mrv1902 05222410222D          

 21 22  0  0  0  0            999 V2000
    4.7460   -5.5843    0.0000 C   0  0  0  0  0  0  0  0  0  0  0  0
    4.7460   -6.4093    0.0000 C   0  0  0  0  0  0  0  0  0  0  0  0
    5.4605   -6.8218    0.0000 C   0  0  0  0  0  0  0  0  0  0  0  0
    6.1749   -6.4093    0.0000 C   0  0  0  0  0  0  0  0  0  0  0  0
    6.1749   -5.5843    0.0000 C   0  0  0  0  0  0  0  0  0  0  0  0
    5.4605   -5.1718    0.0000 C   0  0  0  0  0  0  0  0  0  0  0  0
    6.8893   -5.1718    0.0000 C   0  0  0  0  0  0  0  0  0  0  0  0
    7.6038   -5.5843    0.0000 C   0  0  0  0  0  0  0  0  0  0  0  0
    8.3182   -5.1718    0.0000 C   0  0  0  0  0  0  0  0  0  0  0  0
    6.8893   -4.3468    0.0000 O   0  0  0  0  0  0  0  0  0  0  0  0
    4.0315   -6.8218    0.0000 O   0  0  0  0  0  0  0  0  0  0  0  0
    5.4605   -4.3468    0.0000 O   0  0  0  0  0  0  0  0  0  0  0  0
    4.7460   -3.9343    0.0000 C   0  0  0  0  0  0  0  0  0  0  0  0
   11.1759   -5.1719    0.0000 O   0  0  0  0  0  0  0  0  0  0  0  0
   11.1759   -6.8219    0.0000 O   0  0  0  0  0  0  0  0  0  0  0  0
    9.0326   -6.4092    0.0000 C   0  0  0  0  0  0  0  0  0  0  0  0
    9.7470   -6.8218    0.0000 C   0  0  0  0  0  0  0  0  0  0  0  0
   10.4615   -6.4093    0.0000 C   0  0  0  0  0  0  0  0  0  0  0  0
   10.4615   -5.5843    0.0000 C   0  0  0  0  0  0  0  0  0  0  0  0
    9.7471   -5.1718    0.0000 C   0  0  0  0  0  0  0  0  0  0  0  0
    9.0326   -5.5843    0.0000 C   0  0  0  0  0  0  0  0  0  0  0  0
 19 14  1  0  0  0  0
 18 15  1  0  0  0  0
 16 21  1  0  0  0  0
 17 16  2  0  0  0  0
 18 17  1  0  0  0  0
 19 18  2  0  0  0  0
 20 19  1  0  0  0  0
 21 20  2  0  0  0  0
  1  2  2  0  0  0  0
  2  3  1  0  0  0  0
  3  4  2  0  0  0  0
  4  5  1  0  0  0  0
  5  6  2  0  0  0  0
  6  1  1  0  0  0  0
  7  5  1  0  0  0  0
  8  7  1  0  0  0  0
  9  8  2  0  0  0  0
 21  9  1  0  0  0  0
  7 10  2  0  0  0  0
  2 11  1  0  0  0  0
 12  6  1  0  0  0  0
 12 13  1  0  0  0  0
M  END
>  <cdx:fragmentId>
14203

$$$$
