5319518.cdx
  Mrv1902 05222410222D          

 22 24  0  0  0  0            999 V2000
   16.7518   -9.5514    0.0000 O   0  0  0  0  0  0  0  0  0  0  0  0
   16.7518   -8.7264    0.0000 C   0  0  0  0  0  0  0  0  0  0  0  0
   16.0373   -8.3139    0.0000 C   0  0  0  0  0  0  0  0  0  0  0  0
   15.3228   -8.7264    0.0000 C   0  0  0  0  0  0  0  0  0  0  0  0
   14.6084   -8.3139    0.0000 C   0  0  0  0  0  0  0  0  0  0  0  0
   13.8939   -8.7264    0.0000 C   0  0  0  0  0  0  0  0  0  0  0  0
   13.8939   -9.5514    0.0000 C   0  0  0  0  0  0  0  0  0  0  0  0
   14.6084   -9.9639    0.0000 C   0  0  0  0  0  0  0  0  0  0  0  0
   15.3228   -9.5514    0.0000 C   0  0  0  0  0  0  0  0  0  0  0  0
   16.0373   -9.9639    0.0000 C   0  0  0  0  0  0  0  0  0  0  0  0
   16.2088   -7.5070    0.0000 C   0  0  0  0  0  0  0  0  0  0  0  0
   17.0293   -7.4207    0.0000 C   0  0  0  0  0  0  0  0  0  0  0  0
   17.3649   -8.1744    0.0000 C   0  0  0  0  0  0  0  0  0  0  0  0
   15.6568   -6.8939    0.0000 C   0  0  0  0  0  0  0  0  0  0  0  0
   15.9117   -6.1092    0.0000 O   0  0  0  0  0  0  0  0  0  0  0  0
   14.8498   -7.0654    0.0000 O   0  0  0  0  0  0  0  0  0  0  0  0
   16.0373  -10.7889    0.0000 O   0  0  0  0  0  0  0  0  0  0  0  0
   18.1718   -8.3459    0.0000 O   0  0  0  0  0  0  0  0  0  0  0  0
   14.6084   -7.4889    0.0000 O   0  0  0  0  0  0  0  0  0  0  0  0
   13.1794   -8.3139    0.0000 O   0  0  0  0  0  0  0  0  0  0  0  0
   13.1794   -9.9639    0.0000 O   0  0  0  0  0  0  0  0  0  0  0  0
   14.2665   -6.4820    0.0000 C   0  0  0  0  0  0  0  0  0  0  0  0
  1  2  1  0  0  0  0
  2  3  2  0  0  0  0
  3  4  1  0  0  0  0
  4  5  1  0  0  0  0
  5  6  2  0  0  0  0
  6  7  1  0  0  0  0
  7  8  2  0  0  0  0
  8  9  1  0  0  0  0
  4  9  2  0  0  0  0
  9 10  1  0  0  0  0
  1 10  1  0  0  0  0
 11 12  1  0  0  0  0
 12 13  1  0  0  0  0
 13  2  1  0  0  0  0
 11  3  1  0  0  0  0
 14 15  2  0  0  0  0
 14 16  1  0  0  0  0
 11 14  1  0  0  0  0
 10 17  2  0  0  0  0
 13 18  2  0  0  0  0
  5 19  1  0  0  0  0
  6 20  1  0  0  0  0
  7 21  1  0  0  0  0
 16 22  1  0  0  0  0
M  END
>  <cdx:groupId>
14322

>  <cdx:fragmentId>
14257

$$$$
