319688.cdx
  Mrv1902 05222410242D          

 20 21  0  0  0  0            999 V2000
    7.2197   -6.1494    0.0000 C   0  0  0  0  0  0  0  0  0  0  0  0
    7.9341   -6.5619    0.0000 C   0  0  0  0  0  0  0  0  0  0  0  0
    7.2197   -5.3244    0.0000 O   0  0  0  0  0  0  0  0  0  0  0  0
    6.5052   -6.5619    0.0000 C   0  0  0  0  0  0  0  0  0  0  0  0
    8.6486   -6.1494    0.0000 C   0  0  0  0  0  0  0  0  0  0  0  0
    5.7924   -6.1482    0.0000 C   0  0  0  0  0  0  0  0  0  0  0  0
    6.5048   -7.3934    0.0000 C   0  0  0  0  0  0  0  0  0  0  0  0
    5.7924   -5.3232    0.0000 O   0  0  0  0  0  0  0  0  0  0  0  0
    5.0800   -6.5612    0.0000 C   0  0  0  0  0  0  0  0  0  0  0  0
    5.7924   -7.8095    0.0000 C   0  0  0  0  0  0  0  0  0  0  0  0
    5.0796   -7.3925    0.0000 C   0  0  0  0  0  0  0  0  0  0  0  0
    4.3652   -7.8050    0.0000 O   0  0  0  0  0  0  0  0  0  0  0  0
    5.0152   -4.8744    0.0000 C   0  0  0  0  0  0  0  0  0  0  0  0
   11.5106   -7.7922    0.0000 O   0  0  0  0  0  0  0  0  0  0  0  0
   10.7962   -7.3797    0.0000 C   0  0  0  0  0  0  0  0  0  0  0  0
   10.0755   -7.7958    0.0000 C   0  0  0  0  0  0  0  0  0  0  0  0
   10.8003   -6.5547    0.0000 C   0  0  0  0  0  0  0  0  0  0  0  0
    9.3611   -7.3869    0.0000 C   0  0  0  0  0  0  0  0  0  0  0  0
   10.0837   -6.1458    0.0000 C   0  0  0  0  0  0  0  0  0  0  0  0
    9.3631   -6.5619    0.0000 C   0  0  0  0  0  0  0  0  0  0  0  0
 15 14  1  0  0  0  0
 16 15  1  0  0  0  0
 17 15  2  0  0  0  0
 18 16  2  0  0  0  0
 19 17  1  0  0  0  0
 20 18  1  0  0  0  0
 20 19  2  0  0  0  0
  1  2  1  0  0  0  0
  1  3  2  0  0  0  0
  1  4  1  0  0  0  0
  2  5  2  0  0  0  0
  4  6  2  0  0  0  0
  4  7  1  0  0  0  0
  5 20  1  0  0  0  0
  6  8  1  0  0  0  0
  6  9  1  0  0  0  0
  7 10  2  0  0  0  0
  9 11  2  0  0  0  0
 10 11  1  0  0  0  0
 11 12  1  0  0  0  0
  8 13  1  0  0  0  0
M  END
>  <cdx:fragmentId>
14782

$$$$
