5319664.cdx
  Mrv1902 05222410252D          

 25 28  0  0  0  0            999 V2000
    8.3139   -4.8884    0.0000 C   0  0  0  0  0  0  0  0  0  0  0  0
    8.3139   -5.7134    0.0000 C   0  0  0  0  0  0  0  0  0  0  0  0
    9.0284   -6.1259    0.0000 C   0  0  0  0  0  0  0  0  0  0  0  0
    9.7429   -5.7134    0.0000 C   0  0  0  0  0  0  0  0  0  0  0  0
    9.7429   -4.8884    0.0000 C   0  0  0  0  0  0  0  0  0  0  0  0
    9.0284   -4.4759    0.0000 C   0  0  0  0  0  0  0  0  0  0  0  0
    7.5995   -4.4759    0.0000 O   0  0  0  0  0  0  0  0  0  0  0  0
   10.4573   -4.4759    0.0000 O   0  0  0  0  0  0  0  0  0  0  0  0
   11.1718   -4.8884    0.0000 C   0  0  0  0  0  0  0  0  0  0  0  0
    4.0271   -8.1884    0.0000 C   0  0  0  0  0  0  0  0  0  0  0  0
    4.0271   -7.3634    0.0000 C   0  0  0  0  0  0  0  0  0  0  0  0
    4.7416   -6.9509    0.0000 C   0  0  0  0  0  0  0  0  0  0  0  0
    5.4560   -7.3634    0.0000 C   0  0  0  0  0  0  0  0  0  0  0  0
    6.1705   -6.9509    0.0000 C   0  0  0  0  0  0  0  0  0  0  0  0
    6.8850   -7.3634    0.0000 C   0  0  0  0  0  0  0  0  0  0  0  0
    6.8850   -8.1884    0.0000 C   0  0  0  0  0  0  0  0  0  0  0  0
    6.1705   -8.6009    0.0000 C   0  0  0  0  0  0  0  0  0  0  0  0
    5.4560   -8.1884    0.0000 C   0  0  0  0  0  0  0  0  0  0  0  0
    4.7416   -8.6009    0.0000 O   0  0  0  0  0  0  0  0  0  0  0  0
    7.5995   -6.9509    0.0000 C   0  0  0  0  0  0  0  0  0  0  0  0
    7.5995   -6.1259    0.0000 C   0  0  0  0  0  0  0  0  0  0  0  0
    6.8850   -5.7134    0.0000 C   0  0  0  0  0  0  0  0  0  0  0  0
    6.1705   -6.1259    0.0000 O   0  0  0  0  0  0  0  0  0  0  0  0
    3.6146   -8.9029    0.0000 C   0  0  0  0  0  0  0  0  0  0  0  0
    3.2021   -8.1884    0.0000 C   0  0  0  0  0  0  0  0  0  0  0  0
  1  2  1  0  0  0  0
  2  3  2  0  0  0  0
  3  4  1  0  0  0  0
  4  5  2  0  0  0  0
  5  6  1  0  0  0  0
  1  6  2  0  0  0  0
  1  7  1  0  0  0  0
  8  9  1  0  0  0  0
  5  8  1  0  0  0  0
 10 11  1  0  0  0  0
 11 12  2  0  0  0  0
 12 13  1  0  0  0  0
 13 14  1  0  0  0  0
 14 15  2  0  0  0  0
 15 16  1  0  0  0  0
 16 17  2  0  0  0  0
 17 18  1  0  0  0  0
 13 18  2  0  0  0  0
 18 19  1  0  0  0  0
 10 19  1  0  0  0  0
 20 21  1  0  0  0  0
 21 22  1  0  0  0  0
 22 23  1  0  0  0  0
 23 14  1  0  0  0  0
 20 15  1  0  0  0  0
 10 24  1  0  0  0  0
 10 25  1  0  0  0  0
  2 21  1  0  0  0  0
M  END
>  <cdx:fragmentId>
14719

$$$$
