3196.cdx
  Mrv1902 05222410222D          

 10 10  0  0  0  0            999 V2000
    6.4177   -8.5388    0.0000 C   0  0  0  0  0  0  0  0  0  0  0  0
    6.4177   -9.3637    0.0000 C   0  0  0  0  0  0  0  0  0  0  0  0
    7.1321   -9.7763    0.0000 C   0  0  0  0  0  0  0  0  0  0  0  0
    7.8466   -9.3637    0.0000 C   0  0  0  0  0  0  0  0  0  0  0  0
    7.8466   -8.5388    0.0000 C   0  0  0  0  0  0  0  0  0  0  0  0
    7.1321   -8.1263    0.0000 C   0  0  0  0  0  0  0  0  0  0  0  0
    7.1321   -7.3012    0.0000 C   0  0  0  0  0  0  0  0  0  0  0  0
    6.4177   -6.8888    0.0000 C   0  0  0  0  0  0  0  0  0  0  0  0
    6.4177   -6.0638    0.0000 C   0  0  0  0  0  0  0  0  0  0  0  0
    7.8466   -6.8888    0.0000 O   0  0  0  0  0  0  0  0  0  0  0  0
  1  2  2  0  0  0  0
  2  3  1  0  0  0  0
  3  4  2  0  0  0  0
  4  5  1  0  0  0  0
  5  6  2  0  0  0  0
  6  1  1  0  0  0  0
  6  7  1  0  0  0  0
  7  8  1  0  0  0  0
  8  9  1  0  0  0  0
  7 10  1  0  0  0  0
M  END
>  <cdx:fragmentId>
5

$$$$
