319601.cdx
  Mrv1902 05222410262D          

 24 25  0  0  0  0            999 V2000
    3.4840   -9.7187    0.0000 C   0  0  0  0  0  0  0  0  0  0  0  0
   12.7721   -8.4812    0.0000 C   0  0  0  0  0  0  0  0  0  0  0  0
   12.0576   -8.8937    0.0000 C   0  0  0  0  0  0  0  0  0  0  0  0
   11.3432   -8.4812    0.0000 C   0  0  0  0  0  0  0  0  0  0  0  0
   10.6287   -8.8937    0.0000 C   0  0  0  0  0  0  0  0  0  0  0  0
    9.9142   -8.4812    0.0000 C   0  0  0  0  0  0  0  0  0  0  0  0
    9.1997   -8.8937    0.0000 C   0  0  0  0  0  0  0  0  0  0  0  0
    8.4853   -8.4812    0.0000 C   0  0  0  0  0  0  0  0  0  0  0  0
    7.7708   -8.8937    0.0000 C   0  0  0  0  0  0  0  0  0  0  0  0
    7.0563   -8.4812    0.0000 C   0  0  0  0  0  0  0  0  0  0  0  0
    6.3419   -8.8937    0.0000 C   0  0  0  0  0  0  0  0  0  0  0  0
    5.6274   -8.4812    0.0000 C   0  0  0  0  0  0  0  0  0  0  0  0
    4.9129   -8.8937    0.0000 C   0  0  0  0  0  0  0  0  0  0  0  0
    3.4840   -6.4187    0.0000 O   0  0  0  0  0  0  0  0  0  0  0  0
    2.7695   -8.4812    0.0000 C   0  0  0  0  0  0  0  0  0  0  0  0
    2.0550   -8.8937    0.0000 C   0  0  0  0  0  0  0  0  0  0  0  0
    1.3406   -8.4812    0.0000 C   0  0  0  0  0  0  0  0  0  0  0  0
    1.3406   -7.6562    0.0000 C   0  0  0  0  0  0  0  0  0  0  0  0
    2.0550   -7.2437    0.0000 C   0  0  0  0  0  0  0  0  0  0  0  0
    2.7695   -7.6562    0.0000 C   0  0  0  0  0  0  0  0  0  0  0  0
    3.4840   -7.2437    0.0000 C   0  0  0  0  0  0  0  0  0  0  0  0
    4.1984   -7.6562    0.0000 C   0  0  0  0  0  0  0  0  0  0  0  0
    4.1984   -8.4812    0.0000 C   0  0  0  0  0  0  0  0  0  0  0  0
    3.4840   -8.8937    0.0000 N   0  0  0  0  0  0  0  0  0  0  0  0
 24  1  1  0  0  0  0
 23 13  1  0  0  0  0
  3  2  1  0  0  0  0
  4  3  1  0  0  0  0
  5  4  1  0  0  0  0
  6  5  1  0  0  0  0
  7  6  1  0  0  0  0
  8  7  1  0  0  0  0
  9  8  1  0  0  0  0
 10  9  1  0  0  0  0
 11 10  1  0  0  0  0
 12 11  1  0  0  0  0
 13 12  1  0  0  0  0
 21 14  2  0  0  0  0
 20 15  2  0  0  0  0
 24 15  1  0  0  0  0
 16 15  1  0  0  0  0
 17 16  2  0  0  0  0
 18 17  1  0  0  0  0
 19 18  2  0  0  0  0
 20 19  1  0  0  0  0
 21 20  1  0  0  0  0
 22 21  1  0  0  0  0
 23 22  2  0  0  0  0
 24 23  1  0  0  0  0
M  END
>  <cdx:fragmentId>
14472

$$$$
