5319744.cdx
  Mrv1902 05222410192D          

 22 24  0  0  0  0            999 V2000
   15.7830   -7.4178    0.0000 C   0  0  0  0  0  0  0  0  0  0  0  0
   15.7830   -8.2428    0.0000 C   0  0  0  0  0  0  0  0  0  0  0  0
   15.0686   -8.6553    0.0000 C   0  0  0  0  0  0  0  0  0  0  0  0
   15.0686   -9.4803    0.0000 O   0  0  0  0  0  0  0  0  0  0  0  0
   14.3541   -8.2428    0.0000 C   0  0  0  0  0  0  0  0  0  0  0  0
   13.6396   -8.6553    0.0000 C   0  0  0  0  0  0  0  0  0  0  0  0
   12.9252   -8.2428    0.0000 C   0  0  0  0  0  0  0  0  0  0  0  0
   12.9252   -7.4178    0.0000 C   0  0  0  0  0  0  0  0  0  0  0  0
   13.6396   -7.0053    0.0000 C   0  0  0  0  0  0  0  0  0  0  0  0
   14.3541   -7.4178    0.0000 C   0  0  0  0  0  0  0  0  0  0  0  0
   15.0686   -7.0053    0.0000 O   0  0  0  0  0  0  0  0  0  0  0  0
   16.4975   -8.6553    0.0000 C   0  0  0  0  0  0  0  0  0  0  0  0
   17.2120   -8.2428    0.0000 C   0  0  0  0  0  0  0  0  0  0  0  0
   17.9265   -8.6553    0.0000 C   0  0  0  0  0  0  0  0  0  0  0  0
   17.9265   -9.4803    0.0000 C   0  0  0  0  0  0  0  0  0  0  0  0
   17.2120   -9.8928    0.0000 C   0  0  0  0  0  0  0  0  0  0  0  0
   16.4975   -9.4803    0.0000 C   0  0  0  0  0  0  0  0  0  0  0  0
   18.6409   -8.2428    0.0000 O   0  0  0  0  0  0  0  0  0  0  0  0
   19.3554   -8.6553    0.0000 C   0  0  0  0  0  0  0  0  0  0  0  0
   18.6409   -9.8928    0.0000 O   0  0  0  0  0  0  0  0  0  0  0  0
   12.2107   -7.0053    0.0000 O   0  0  0  0  0  0  0  0  0  0  0  0
   13.6396   -9.4803    0.0000 O   0  0  0  0  0  0  0  0  0  0  0  0
  1  2  2  0  0  0  0
  2  3  1  0  0  0  0
  3  4  2  0  0  0  0
  3  5  1  0  0  0  0
  5  6  1  0  0  0  0
  6  7  2  0  0  0  0
  7  8  1  0  0  0  0
  8  9  2  0  0  0  0
  9 10  1  0  0  0  0
  5 10  2  0  0  0  0
 10 11  1  0  0  0  0
  1 11  1  0  0  0  0
  2 12  1  0  0  0  0
 12 13  1  0  0  0  0
 13 14  2  0  0  0  0
 14 15  1  0  0  0  0
 15 16  2  0  0  0  0
 16 17  1  0  0  0  0
 12 17  2  0  0  0  0
 18 19  1  0  0  0  0
 14 18  1  0  0  0  0
 15 20  1  0  0  0  0
  8 21  1  0  0  0  0
  6 22  1  0  0  0  0
M  END
>  <cdx:groupId>
15107

>  <cdx:fragmentId>
15042

$$$$
