319765.cdx
  Mrv1902 05222410272D          

  7  6  0  0  0  0            999 V2000
    6.6418   -4.3928    0.0000 S   0  0  0  0  0  0  0  0  0  0  0  0
    7.3563   -3.9803    0.0000 S   0  0  0  0  0  0  0  0  0  0  0  0
    5.9273   -3.9803    0.0000 S   0  0  0  0  0  0  0  0  0  0  0  0
    8.0707   -4.3928    0.0000 C   0  0  0  0  0  0  0  0  0  0  0  0
    8.7852   -3.9803    0.0000 C   0  0  0  0  0  0  0  0  0  0  0  0
    9.4997   -4.3928    0.0000 C   0  0  0  0  0  0  0  0  0  0  0  0
    5.2128   -4.3928    0.0000 C   0  0  0  0  0  0  0  0  0  0  0  0
  1  2  1  0  0  0  0
  1  3  1  0  0  0  0
  4  5  1  0  0  0  0
  5  6  1  0  0  0  0
  2  4  1  0  0  0  0
  3  7  1  0  0  0  0
M  END
>  <cdx:groupId>
15132

>  <cdx:fragmentId>
15121

$$$$
