319741.cdx
  Mrv1902 05222410192D          

 25 28  0  0  0  0            999 V2000
    9.1674   -4.9593    0.0000 C   0  0  0  0  0  0  0  0  0  0  0  0
    8.4553   -5.3760    0.0000 C   0  0  0  0  0  0  0  0  0  0  0  0
    8.4602   -6.2010    0.0000 C   0  0  0  0  0  0  0  0  0  0  0  0
    9.1770   -6.6093    0.0000 C   0  0  0  0  0  0  0  0  0  0  0  0
    9.8842   -5.3676    0.0000 C   0  0  0  0  0  0  0  0  0  0  0  0
    9.8891   -6.1926    0.0000 C   0  0  0  0  0  0  0  0  0  0  0  0
   10.6752   -6.4429    0.0000 O   0  0  0  0  0  0  0  0  0  0  0  0
   11.1562   -5.7727    0.0000 C   0  0  0  0  0  0  0  0  0  0  0  0
   10.6674   -5.1081    0.0000 O   0  0  0  0  0  0  0  0  0  0  0  0
    7.7481   -6.6177    0.0000 C   0  0  0  0  0  0  0  0  0  0  0  0
    4.8951   -7.4594    0.0000 O   0  0  0  0  0  0  0  0  0  0  0  0
    3.4517   -4.9928    0.0000 O   0  0  0  0  0  0  0  0  0  0  0  0
    3.4614   -6.6428    0.0000 C   0  0  0  0  0  0  0  0  0  0  0  0
    4.8758   -4.1594    0.0000 C   0  0  0  0  0  0  0  0  0  0  0  0
    6.3240   -7.4510    0.0000 O   0  0  0  0  0  0  0  0  0  0  0  0
    6.3095   -4.9761    0.0000 O   0  0  0  0  0  0  0  0  0  0  0  0
    5.5975   -5.3927    0.0000 C   0  0  0  0  0  0  0  0  0  0  0  0
    4.8806   -4.9844    0.0000 C   0  0  0  0  0  0  0  0  0  0  0  0
    4.1686   -5.4011    0.0000 C   0  0  0  0  0  0  0  0  0  0  0  0
    4.1734   -6.2261    0.0000 C   0  0  0  0  0  0  0  0  0  0  0  0
    4.8903   -6.6344    0.0000 C   0  0  0  0  0  0  0  0  0  0  0  0
    5.6023   -6.2177    0.0000 C   0  0  0  0  0  0  0  0  0  0  0  0
    6.3192   -6.6260    0.0000 C   0  0  0  0  0  0  0  0  0  0  0  0
    7.0312   -6.2093    0.0000 C   0  0  0  0  0  0  0  0  0  0  0  0
    7.0264   -5.3844    0.0000 C   0  0  0  0  0  0  0  0  0  0  0  0
 24 10  1  0  0  0  0
 10  3  1  0  0  0  0
  4  6  2  0  0  0  0
  1  5  2  0  0  0  0
  2  1  1  0  0  0  0
  3  2  2  0  0  0  0
  4  3  1  0  0  0  0
  9  5  1  0  0  0  0
  6  5  1  0  0  0  0
  7  6  1  0  0  0  0
  8  7  1  0  0  0  0
  9  8  1  0  0  0  0
 21 11  1  0  0  0  0
 19 12  1  0  0  0  0
 20 13  1  0  0  0  0
 18 14  1  0  0  0  0
 23 15  2  0  0  0  0
 25 16  1  0  0  0  0
 17 16  1  0  0  0  0
 22 17  2  0  0  0  0
 18 17  1  0  0  0  0
 19 18  2  0  0  0  0
 20 19  1  0  0  0  0
 21 20  2  0  0  0  0
 22 21  1  0  0  0  0
 23 22  1  0  0  0  0
 24 23  1  0  0  0  0
 25 24  1  0  0  0  0
M  END
>  <cdx:groupId>
15032

>  <cdx:fragmentId>
14957

$$$$
