5319771.cdx
  Mrv1902 05222410272D          

 22 24  0  0  0  0            999 V2000
   15.7830   -9.4462    0.0000 C   0  0  0  0  0  0  0  0  0  0  0  0
   15.7830   -8.6212    0.0000 C   0  0  0  0  0  0  0  0  0  0  0  0
   15.0686   -8.2087    0.0000 C   0  0  0  0  0  0  0  0  0  0  0  0
   14.3541   -8.6212    0.0000 C   0  0  0  0  0  0  0  0  0  0  0  0
   13.6396   -8.2087    0.0000 C   0  0  0  0  0  0  0  0  0  0  0  0
   12.9252   -8.6212    0.0000 C   0  0  0  0  0  0  0  0  0  0  0  0
   12.9252   -9.4462    0.0000 C   0  0  0  0  0  0  0  0  0  0  0  0
   13.6396   -9.8587    0.0000 C   0  0  0  0  0  0  0  0  0  0  0  0
   14.3541   -9.4462    0.0000 C   0  0  0  0  0  0  0  0  0  0  0  0
   15.0686   -9.8587    0.0000 O   0  0  0  0  0  0  0  0  0  0  0  0
   15.0686   -7.3837    0.0000 O   0  0  0  0  0  0  0  0  0  0  0  0
   16.4975   -8.2087    0.0000 C   0  0  0  0  0  0  0  0  0  0  0  0
   16.4975   -7.3837    0.0000 C   0  0  0  0  0  0  0  0  0  0  0  0
   17.2120   -6.9712    0.0000 C   0  0  0  0  0  0  0  0  0  0  0  0
   17.9265   -7.3837    0.0000 C   0  0  0  0  0  0  0  0  0  0  0  0
   17.9265   -8.2087    0.0000 C   0  0  0  0  0  0  0  0  0  0  0  0
   17.2120   -8.6212    0.0000 C   0  0  0  0  0  0  0  0  0  0  0  0
   18.6409   -6.9712    0.0000 O   0  0  0  0  0  0  0  0  0  0  0  0
   19.3554   -7.3837    0.0000 C   0  0  0  0  0  0  0  0  0  0  0  0
   13.6396  -10.6837    0.0000 O   0  0  0  0  0  0  0  0  0  0  0  0
   12.9252  -11.0962    0.0000 C   0  0  0  0  0  0  0  0  0  0  0  0
   12.2107   -9.8587    0.0000 O   0  0  0  0  0  0  0  0  0  0  0  0
  1  2  2  0  0  0  0
  2  3  1  0  0  0  0
  3  4  1  0  0  0  0
  4  5  1  0  0  0  0
  5  6  2  0  0  0  0
  6  7  1  0  0  0  0
  7  8  2  0  0  0  0
  8  9  1  0  0  0  0
  4  9  2  0  0  0  0
  9 10  1  0  0  0  0
  1 10  1  0  0  0  0
  3 11  2  0  0  0  0
 12 13  1  0  0  0  0
 13 14  2  0  0  0  0
 14 15  1  0  0  0  0
 15 16  2  0  0  0  0
 16 17  1  0  0  0  0
 12 17  2  0  0  0  0
 18 19  1  0  0  0  0
 15 18  1  0  0  0  0
  2 12  1  0  0  0  0
 20 21  1  0  0  0  0
  8 20  1  0  0  0  0
  7 22  1  0  0  0  0
M  END
>  <cdx:groupId>
15204

>  <cdx:fragmentId>
15139

$$$$
