319806.cdx
  Mrv1902 05222410192D          

 34 33  0  0  0  0            999 V2000
    2.9922   -9.8928    0.0000 C   0  0  0  0  0  0  0  0  0  0  0  0
    3.7067   -9.4803    0.0000 C   0  0  0  0  0  0  0  0  0  0  0  0
    4.4212   -9.8928    0.0000 C   0  0  0  0  0  0  0  0  0  0  0  0
    5.1356   -9.4803    0.0000 C   0  0  0  0  0  0  0  0  0  0  0  0
    5.8501   -9.8928    0.0000 C   0  0  0  0  0  0  0  0  0  0  0  0
    6.5646   -9.4803    0.0000 C   0  0  0  0  0  0  0  0  0  0  0  0
    7.2790   -9.8928    0.0000 C   0  0  0  0  0  0  0  0  0  0  0  0
    7.9935   -9.4803    0.0000 C   0  0  0  0  0  0  0  0  0  0  0  0
    8.7080   -9.8928    0.0000 C   0  0  0  0  0  0  0  0  0  0  0  0
    9.4225   -9.4803    0.0000 C   0  0  0  0  0  0  0  0  0  0  0  0
   10.1369   -9.8928    0.0000 C   0  0  0  0  0  0  0  0  0  0  0  0
   10.8514   -9.4803    0.0000 C   0  0  0  0  0  0  0  0  0  0  0  0
   11.5659   -9.8928    0.0000 C   0  0  0  0  0  0  0  0  0  0  0  0
   12.2803   -9.4803    0.0000 C   0  0  0  0  0  0  0  0  0  0  0  0
   12.9948   -9.8928    0.0000 C   0  0  0  0  0  0  0  0  0  0  0  0
   13.7093   -9.4803    0.0000 C   0  0  0  0  0  0  0  0  0  0  0  0
   14.4238   -9.8928    0.0000 C   0  0  0  0  0  0  0  0  0  0  0  0
   15.1382   -9.4803    0.0000 C   0  0  0  0  0  0  0  0  0  0  0  0
   15.8527   -9.8928    0.0000 C   0  0  0  0  0  0  0  0  0  0  0  0
   16.5672   -9.4803    0.0000 C   0  0  0  0  0  0  0  0  0  0  0  0
   17.2816   -9.8928    0.0000 C   0  0  0  0  0  0  0  0  0  0  0  0
   17.9961   -9.4803    0.0000 C   0  0  0  0  0  0  0  0  0  0  0  0
   18.7106   -9.8928    0.0000 C   0  0  0  0  0  0  0  0  0  0  0  0
   19.4251   -9.4803    0.0000 C   0  0  0  0  0  0  0  0  0  0  0  0
   20.1395   -9.8928    0.0000 C   0  0  0  0  0  0  0  0  0  0  0  0
   20.8540   -9.4803    0.0000 C   0  0  0  0  0  0  0  0  0  0  0  0
   21.5685   -9.8928    0.0000 C   0  0  0  0  0  0  0  0  0  0  0  0
   22.2829   -9.4803    0.0000 C   0  0  0  0  0  0  0  0  0  0  0  0
   22.9974   -9.8928    0.0000 C   0  0  0  0  0  0  0  0  0  0  0  0
   23.7119   -9.4803    0.0000 C   0  0  0  0  0  0  0  0  0  0  0  0
   24.4263   -9.8928    0.0000 C   0  0  0  0  0  0  0  0  0  0  0  0
   25.1408   -9.4803    0.0000 C   0  0  0  0  0  0  0  0  0  0  0  0
   25.8553   -9.8928    0.0000 C   0  0  0  0  0  0  0  0  0  0  0  0
    6.5646   -8.6553    0.0000 C   0  0  0  0  0  0  0  0  0  0  0  0
  1  2  1  0  0  0  0
  2  3  1  0  0  0  0
  3  4  1  0  0  0  0
  4  5  1  0  0  0  0
  5  6  1  0  0  0  0
  6  7  1  0  0  0  0
  7  8  1  0  0  0  0
  8  9  1  0  0  0  0
  9 10  1  0  0  0  0
 10 11  1  0  0  0  0
 11 12  1  0  0  0  0
 12 13  1  0  0  0  0
 13 14  1  0  0  0  0
 14 15  1  0  0  0  0
 15 16  1  0  0  0  0
 16 17  1  0  0  0  0
 17 18  1  0  0  0  0
 18 19  1  0  0  0  0
 19 20  1  0  0  0  0
 20 21  1  0  0  0  0
 21 22  1  0  0  0  0
 22 23  1  0  0  0  0
 23 24  1  0  0  0  0
 24 25  1  0  0  0  0
 25 26  1  0  0  0  0
 26 27  1  0  0  0  0
 27 28  1  0  0  0  0
 28 29  1  0  0  0  0
 29 30  1  0  0  0  0
 30 31  1  0  0  0  0
 31 32  1  0  0  0  0
 32 33  1  0  0  0  0
  6 34  1  0  0  0  0
M  END
>  <cdx:fragmentId>
15280

$$$$
