319888.cdx
  Mrv1902 05222410232D          

 23 26  0  0  0  0            999 V2000
    9.7317   -4.6558    0.0000 C   0  0  0  0  0  0  0  0  0  0  0  0
   10.4515   -5.0589    0.0000 C   0  0  0  0  0  0  0  0  0  0  0  0
   10.2016   -9.0474    0.0000 O   0  0  0  0  0  0  0  0  0  0  0  0
   10.1643   -6.1897    0.0000 O   0  0  0  0  0  0  0  0  0  0  0  0
    9.7612   -6.9095    0.0000 C   0  0  0  0  0  0  0  0  0  0  0  0
   10.1830   -7.6186    0.0000 C   0  0  0  0  0  0  0  0  0  0  0  0
    9.7798   -8.3384    0.0000 C   0  0  0  0  0  0  0  0  0  0  0  0
    8.9549   -8.3491    0.0000 C   0  0  0  0  0  0  0  0  0  0  0  0
    8.5331   -7.6401    0.0000 C   0  0  0  0  0  0  0  0  0  0  0  0
    8.9362   -6.9203    0.0000 C   0  0  0  0  0  0  0  0  0  0  0  0
    8.5145   -6.2113    0.0000 C   0  0  0  0  0  0  0  0  0  0  0  0
    8.9176   -5.4915    0.0000 C   0  0  0  0  0  0  0  0  0  0  0  0
    9.7425   -5.4807    0.0000 C   0  0  0  0  0  0  0  0  0  0  0  0
    4.3063   -8.5204    0.0000 O   0  0  0  0  0  0  0  0  0  0  0  0
    6.4441   -8.0799    0.0000 C   0  0  0  0  0  0  0  0  0  0  0  0
    5.7351   -8.5017    0.0000 C   0  0  0  0  0  0  0  0  0  0  0  0
    5.0153   -8.0986    0.0000 C   0  0  0  0  0  0  0  0  0  0  0  0
    5.0045   -7.2737    0.0000 C   0  0  0  0  0  0  0  0  0  0  0  0
    5.7136   -6.8519    0.0000 C   0  0  0  0  0  0  0  0  0  0  0  0
    6.4334   -7.2550    0.0000 C   0  0  0  0  0  0  0  0  0  0  0  0
    7.2146   -6.9898    0.0000 C   0  0  0  0  0  0  0  0  0  0  0  0
    7.7082   -7.6509    0.0000 C   0  0  0  0  0  0  0  0  0  0  0  0
    7.2320   -8.3246    0.0000 O   0  0  0  0  0  0  0  0  0  0  0  0
 13  1  1  0  0  0  0
 13  2  1  0  0  0  0
  7  3  1  0  0  0  0
 13  4  1  0  0  0  0
  5  4  1  0  0  0  0
 10  5  2  0  0  0  0
  6  5  1  0  0  0  0
  7  6  2  0  0  0  0
  8  7  1  0  0  0  0
  9  8  2  0  0  0  0
 10  9  1  0  0  0  0
 11 10  1  0  0  0  0
 12 11  2  0  0  0  0
 17 14  1  0  0  0  0
 23 15  1  0  0  0  0
 20 15  2  0  0  0  0
 16 15  1  0  0  0  0
 17 16  2  0  0  0  0
 18 17  1  0  0  0  0
 19 18  2  0  0  0  0
 20 19  1  0  0  0  0
 21 20  1  0  0  0  0
 22 21  2  0  0  0  0
 13 12  1  0  0  0  0
 23 22  1  0  0  0  0
  9 22  1  0  0  0  0
M  END
>  <cdx:fragmentId>
15550

$$$$
