319813.cdx
  Mrv1902 05222410182D          

 24 26  0  0  0  0            999 V2000
    3.7726   -6.7027    0.0000 O   0  0  0  0  0  0  0  0  0  0  0  0
    7.3450  -10.4152    0.0000 C   0  0  0  0  0  0  0  0  0  0  0  0
    7.3450   -9.5902    0.0000 O   0  0  0  0  0  0  0  0  0  0  0  0
    9.4884  -10.8277    0.0000 C   0  0  0  0  0  0  0  0  0  0  0  0
    8.7739  -10.4152    0.0000 O   0  0  0  0  0  0  0  0  0  0  0  0
   10.9173   -9.1777    0.0000 C   0  0  0  0  0  0  0  0  0  0  0  0
   10.2029   -9.5902    0.0000 O   0  0  0  0  0  0  0  0  0  0  0  0
    8.7739   -7.9402    0.0000 C   0  0  0  0  0  0  0  0  0  0  0  0
    9.4884   -8.3527    0.0000 C   0  0  0  0  0  0  0  0  0  0  0  0
    9.4884   -9.1777    0.0000 C   0  0  0  0  0  0  0  0  0  0  0  0
    8.7739   -9.5902    0.0000 C   0  0  0  0  0  0  0  0  0  0  0  0
    8.0595   -9.1777    0.0000 C   0  0  0  0  0  0  0  0  0  0  0  0
    8.0595   -8.3527    0.0000 C   0  0  0  0  0  0  0  0  0  0  0  0
    6.6305   -9.1777    0.0000 O   0  0  0  0  0  0  0  0  0  0  0  0
    6.6305   -6.7027    0.0000 O   0  0  0  0  0  0  0  0  0  0  0  0
    5.9160   -7.1152    0.0000 C   0  0  0  0  0  0  0  0  0  0  0  0
    5.2016   -6.7027    0.0000 C   0  0  0  0  0  0  0  0  0  0  0  0
    4.4871   -7.1152    0.0000 C   0  0  0  0  0  0  0  0  0  0  0  0
    4.4871   -7.9402    0.0000 C   0  0  0  0  0  0  0  0  0  0  0  0
    5.2016   -8.3527    0.0000 C   0  0  0  0  0  0  0  0  0  0  0  0
    5.9160   -7.9402    0.0000 C   0  0  0  0  0  0  0  0  0  0  0  0
    6.6305   -8.3527    0.0000 C   0  0  0  0  0  0  0  0  0  0  0  0
    7.3450   -7.9402    0.0000 C   0  0  0  0  0  0  0  0  0  0  0  0
    7.3450   -7.1152    0.0000 C   0  0  0  0  0  0  0  0  0  0  0  0
 18  1  1  0  0  0  0
 23 13  1  0  0  0  0
 12  3  1  0  0  0  0
  3  2  1  0  0  0  0
 11  5  1  0  0  0  0
  5  4  1  0  0  0  0
 10  7  1  0  0  0  0
  7  6  1  0  0  0  0
 13  8  2  0  0  0  0
  9  8  1  0  0  0  0
 10  9  2  0  0  0  0
 11 10  1  0  0  0  0
 12 11  2  0  0  0  0
 13 12  1  0  0  0  0
 22 14  2  0  0  0  0
 24 15  1  0  0  0  0
 16 15  1  0  0  0  0
 21 16  2  0  0  0  0
 17 16  1  0  0  0  0
 18 17  2  0  0  0  0
 19 18  1  0  0  0  0
 20 19  2  0  0  0  0
 21 20  1  0  0  0  0
 22 21  1  0  0  0  0
 23 22  1  0  0  0  0
 24 23  1  0  0  0  0
M  END
>  <cdx:fragmentId>
27

$$$$
