319809.cdx
  Mrv1902 05222410282D          

 23 24  0  0  0  0            999 V2000
    4.6903  -10.3977    0.0000 C   0  0  0  0  0  0  0  0  0  0  0  0
   11.1206   -5.8602    0.0000 C   0  0  0  0  0  0  0  0  0  0  0  0
   11.1206   -6.6852    0.0000 C   0  0  0  0  0  0  0  0  0  0  0  0
   10.4061   -7.0977    0.0000 C   0  0  0  0  0  0  0  0  0  0  0  0
   10.4061   -7.9227    0.0000 C   0  0  0  0  0  0  0  0  0  0  0  0
    9.6916   -8.3352    0.0000 C   0  0  0  0  0  0  0  0  0  0  0  0
    9.6916   -9.1602    0.0000 C   0  0  0  0  0  0  0  0  0  0  0  0
    8.9772   -9.5727    0.0000 C   0  0  0  0  0  0  0  0  0  0  0  0
    8.2627   -9.1602    0.0000 C   0  0  0  0  0  0  0  0  0  0  0  0
    7.5482   -9.5727    0.0000 C   0  0  0  0  0  0  0  0  0  0  0  0
    6.8338   -9.1602    0.0000 C   0  0  0  0  0  0  0  0  0  0  0  0
    6.1193   -9.5727    0.0000 C   0  0  0  0  0  0  0  0  0  0  0  0
    4.6903   -7.0977    0.0000 O   0  0  0  0  0  0  0  0  0  0  0  0
    3.9759   -9.1602    0.0000 C   0  0  0  0  0  0  0  0  0  0  0  0
    3.2614   -9.5727    0.0000 C   0  0  0  0  0  0  0  0  0  0  0  0
    2.5469   -9.1602    0.0000 C   0  0  0  0  0  0  0  0  0  0  0  0
    2.5469   -8.3352    0.0000 C   0  0  0  0  0  0  0  0  0  0  0  0
    3.2614   -7.9227    0.0000 C   0  0  0  0  0  0  0  0  0  0  0  0
    3.9759   -8.3352    0.0000 C   0  0  0  0  0  0  0  0  0  0  0  0
    4.6903   -7.9227    0.0000 C   0  0  0  0  0  0  0  0  0  0  0  0
    5.4048   -8.3352    0.0000 C   0  0  0  0  0  0  0  0  0  0  0  0
    5.4048   -9.1602    0.0000 C   0  0  0  0  0  0  0  0  0  0  0  0
    4.6903   -9.5727    0.0000 N   0  0  0  0  0  0  0  0  0  0  0  0
 23  1  1  0  0  0  0
 22 12  1  0  0  0  0
  3  2  1  0  0  0  0
  4  3  1  0  0  0  0
  5  4  1  0  0  0  0
  6  5  1  0  0  0  0
  7  6  1  0  0  0  0
  8  7  2  0  0  0  0
  9  8  1  0  0  0  0
 10  9  1  0  0  0  0
 11 10  1  0  0  0  0
 12 11  1  0  0  0  0
 20 13  2  0  0  0  0
 19 14  2  0  0  0  0
 23 14  1  0  0  0  0
 15 14  1  0  0  0  0
 16 15  2  0  0  0  0
 17 16  1  0  0  0  0
 18 17  2  0  0  0  0
 19 18  1  0  0  0  0
 20 19  1  0  0  0  0
 21 20  1  0  0  0  0
 22 21  2  0  0  0  0
 23 22  1  0  0  0  0
M  END
>  <cdx:fragmentId>
15390

$$$$
