319925.cdx
  Mrv1902 05222410242D          

 31 34  0  0  0  0            999 V2000
    9.1778   -7.4728    0.0000 C   0  0  0  0  0  0  0  0  0  0  0  0
    9.1778   -8.2978    0.0000 C   0  0  0  0  0  0  0  0  0  0  0  0
    9.8923   -8.7103    0.0000 C   0  0  0  0  0  0  0  0  0  0  0  0
   10.6068   -8.2978    0.0000 C   0  0  0  0  0  0  0  0  0  0  0  0
    8.4634   -4.5853    0.0000 O   0  0  0  0  0  0  0  0  0  0  0  0
   11.3212   -4.5853    0.0000 O   0  0  0  0  0  0  0  0  0  0  0  0
    9.8923   -6.2353    0.0000 C   0  0  0  0  0  0  0  0  0  0  0  0
   10.6068   -5.8228    0.0000 C   0  0  0  0  0  0  0  0  0  0  0  0
   10.6068   -4.9978    0.0000 C   0  0  0  0  0  0  0  0  0  0  0  0
    9.8923   -4.5853    0.0000 C   0  0  0  0  0  0  0  0  0  0  0  0
    9.1778   -4.9978    0.0000 C   0  0  0  0  0  0  0  0  0  0  0  0
    9.1778   -5.8228    0.0000 C   0  0  0  0  0  0  0  0  0  0  0  0
    6.3199   -8.2978    0.0000 O   0  0  0  0  0  0  0  0  0  0  0  0
    3.3515   -6.2353    0.0000 C   0  0  0  0  0  0  0  0  0  0  0  0
    3.7640   -5.5209    0.0000 C   0  0  0  0  0  0  0  0  0  0  0  0
    9.8923   -9.5353    0.0000 C   0  0  0  0  0  0  0  0  0  0  0  0
    7.7489   -8.2978    0.0000 O   0  0  0  0  0  0  0  0  0  0  0  0
    7.7489   -5.8228    0.0000 O   0  0  0  0  0  0  0  0  0  0  0  0
    8.4634   -6.2353    0.0000 C   0  0  0  0  0  0  0  0  0  0  0  0
    8.4634   -7.0603    0.0000 C   0  0  0  0  0  0  0  0  0  0  0  0
    7.7489   -7.4728    0.0000 C   0  0  0  0  0  0  0  0  0  0  0  0
    4.8910   -5.8228    0.0000 O   0  0  0  0  0  0  0  0  0  0  0  0
    5.6055   -6.2353    0.0000 C   0  0  0  0  0  0  0  0  0  0  0  0
    6.3199   -5.8228    0.0000 C   0  0  0  0  0  0  0  0  0  0  0  0
    7.0344   -6.2353    0.0000 C   0  0  0  0  0  0  0  0  0  0  0  0
    7.0344   -7.0603    0.0000 C   0  0  0  0  0  0  0  0  0  0  0  0
    6.3199   -7.4728    0.0000 C   0  0  0  0  0  0  0  0  0  0  0  0
    5.6055   -7.0603    0.0000 C   0  0  0  0  0  0  0  0  0  0  0  0
    4.8910   -7.4728    0.0000 C   0  0  0  0  0  0  0  0  0  0  0  0
    4.1765   -7.0603    0.0000 C   0  0  0  0  0  0  0  0  0  0  0  0
    4.1765   -6.2353    0.0000 C   0  0  0  0  0  0  0  0  0  0  0  0
 19 12  1  0  0  0  0
 11  5  1  0  0  0  0
  9  6  1  0  0  0  0
 12  7  2  0  0  0  0
  8  7  1  0  0  0  0
  9  8  2  0  0  0  0
 10  9  1  0  0  0  0
 11 10  2  0  0  0  0
 12 11  1  0  0  0  0
 27 13  1  0  0  0  0
 31 14  1  0  0  0  0
 31 15  1  0  0  0  0
 20  1  1  0  0  0  0
 21 17  2  0  0  0  0
 18 25  1  0  0  0  0
 21 26  1  0  0  0  0
 19 18  1  0  0  0  0
 20 19  2  0  0  0  0
 21 20  1  0  0  0  0
 31 22  1  0  0  0  0
 23 22  1  0  0  0  0
 28 23  2  0  0  0  0
 24 23  1  0  0  0  0
 25 24  2  0  0  0  0
 26 25  1  0  0  0  0
 27 26  2  0  0  0  0
 28 27  1  0  0  0  0
 29 28  1  0  0  0  0
 30 29  2  0  0  0  0
 31 30  1  0  0  0  0
  1  2  1  0  0  0  0
  2  3  2  0  0  0  0
  3  4  1  0  0  0  0
  3 16  1  0  0  0  0
M  END
>  <cdx:fragmentId>
15629

$$$$
