5319964.cdx
  Mrv1902 05222410182D          

 19 20  0  0  0  0            999 V2000
   15.7173   -6.8864    0.0000 C   0  0  0  0  0  0  0  0  0  0  0  0
   15.7173   -7.7109    0.0000 C   0  0  0  0  0  0  0  0  0  0  0  0
   15.0054   -8.1232    0.0000 C   0  0  0  0  0  0  0  0  0  0  0  0
   14.2908   -7.7109    0.0000 C   0  0  0  0  0  0  0  0  0  0  0  0
   14.2908   -6.8864    0.0000 C   0  0  0  0  0  0  0  0  0  0  0  0
   15.0054   -6.4741    0.0000 C   0  0  0  0  0  0  0  0  0  0  0  0
   16.4319   -8.1232    0.0000 O   0  0  0  0  0  0  0  0  0  0  0  0
   17.1465   -7.7109    0.0000 C   0  0  0  0  0  0  0  0  0  0  0  0
   17.1465   -6.8864    0.0000 C   0  0  0  0  0  0  0  0  0  0  0  0
   16.4319   -6.4741    0.0000 C   0  0  0  0  0  0  0  0  0  0  0  0
   17.8611   -8.1232    0.0000 O   0  0  0  0  0  0  0  0  0  0  0  0
   13.5762   -8.1232    0.0000 O   0  0  0  0  0  0  0  0  0  0  0  0
   12.8616   -7.7109    0.0000 C   0  0  0  0  0  0  0  0  0  0  0  0
   15.0054   -8.9477    0.0000 C   0  0  0  0  0  0  0  0  0  0  0  0
   14.2908   -9.3600    0.0000 C   0  0  0  0  0  0  0  0  0  0  0  0
   13.5762   -8.9477    0.0000 O   0  0  0  0  0  0  0  0  0  0  0  0
   14.2908  -10.1845    0.0000 C   0  0  0  0  0  0  0  0  0  0  0  0
   13.5762  -10.5968    0.0000 C   0  0  0  0  0  0  0  0  0  0  0  0
   15.0054  -10.5968    0.0000 C   0  0  0  0  0  0  0  0  0  0  0  0
  1  2  2  0  0  0  0
  2  3  1  0  0  0  0
  3  4  2  0  0  0  0
  4  5  1  0  0  0  0
  5  6  2  0  0  0  0
  6  1  1  0  0  0  0
  2  7  1  0  0  0  0
  7  8  1  0  0  0  0
  8  9  1  0  0  0  0
  9 10  2  0  0  0  0
 10  1  1  0  0  0  0
  8 11  2  0  0  0  0
  4 12  1  0  0  0  0
 12 13  1  0  0  0  0
  3 14  1  0  0  0  0
 14 15  1  0  0  0  0
 15 16  2  0  0  0  0
 15 17  1  0  0  0  0
 17 18  1  0  0  0  0
 17 19  2  0  0  0  0
M  END
>  <cdx:fragmentId>
15730

$$$$
