320083.cdx
  Mrv1902 05222410262D          

 27 30  0  0  0  0            999 V2000
    9.6995   -4.3745    0.0000 C   0  0  0  0  0  0  0  0  0  0  0  0
   10.2828   -4.9579    0.0000 C   0  0  0  0  0  0  0  0  0  0  0  0
   10.0279   -5.7426    0.0000 C   0  0  0  0  0  0  0  0  0  0  0  0
    9.2210   -5.9140    0.0000 C   0  0  0  0  0  0  0  0  0  0  0  0
    8.9660   -6.6987    0.0000 C   0  0  0  0  0  0  0  0  0  0  0  0
    9.5181   -7.3118    0.0000 C   0  0  0  0  0  0  0  0  0  0  0  0
    9.2631   -8.0964    0.0000 C   0  0  0  0  0  0  0  0  0  0  0  0
    8.4561   -8.2679    0.0000 C   0  0  0  0  0  0  0  0  0  0  0  0
    7.9041   -7.6548    0.0000 C   0  0  0  0  0  0  0  0  0  0  0  0
    8.1591   -6.8702    0.0000 C   0  0  0  0  0  0  0  0  0  0  0  0
    7.6070   -6.2571    0.0000 O   0  0  0  0  0  0  0  0  0  0  0  0
    6.8001   -6.4287    0.0000 C   0  0  0  0  0  0  0  0  0  0  0  0
    7.0971   -7.8263    0.0000 C   0  0  0  0  0  0  0  0  0  0  0  0
    6.8422   -8.6109    0.0000 C   0  0  0  0  0  0  0  0  0  0  0  0
    6.0172   -8.6109    0.0000 C   0  0  0  0  0  0  0  0  0  0  0  0
    5.7623   -7.8263    0.0000 C   0  0  0  0  0  0  0  0  0  0  0  0
    6.4297   -7.3414    0.0000 O   0  0  0  0  0  0  0  0  0  0  0  0
    4.9553   -7.6548    0.0000 C   0  0  0  0  0  0  0  0  0  0  0  0
    4.4033   -8.2679    0.0000 C   0  0  0  0  0  0  0  0  0  0  0  0
    4.6582   -9.0525    0.0000 C   0  0  0  0  0  0  0  0  0  0  0  0
    5.4652   -9.2240    0.0000 C   0  0  0  0  0  0  0  0  0  0  0  0
    3.5963   -8.0964    0.0000 O   0  0  0  0  0  0  0  0  0  0  0  0
    7.3942   -9.2240    0.0000 C   0  0  0  0  0  0  0  0  0  0  0  0
    7.1393  -10.0087    0.0000 O   0  0  0  0  0  0  0  0  0  0  0  0
    8.2012   -9.0525    0.0000 O   0  0  0  0  0  0  0  0  0  0  0  0
   10.3250   -7.1402    0.0000 O   0  0  0  0  0  0  0  0  0  0  0  0
   11.0898   -4.7864    0.0000 C   0  0  0  0  0  0  0  0  0  0  0  0
  1  2  1  0  0  0  0
  2  3  2  0  0  0  0
  3  4  1  0  0  0  0
  4  5  1  0  0  0  0
  5  6  2  0  0  0  0
  6  7  1  0  0  0  0
  7  8  2  0  0  0  0
  8  9  1  0  0  0  0
  9 10  2  0  0  0  0
  5 10  1  0  0  0  0
 10 11  1  0  0  0  0
 11 12  1  0  0  0  0
  9 13  1  0  0  0  0
 13 14  2  0  0  0  0
 14 15  1  0  0  0  0
 15 16  2  0  0  0  0
 16 17  1  0  0  0  0
 13 17  1  0  0  0  0
 16 18  1  0  0  0  0
 18 19  2  0  0  0  0
 19 20  1  0  0  0  0
 20 21  2  0  0  0  0
 15 21  1  0  0  0  0
 19 22  1  0  0  0  0
 14 23  1  0  0  0  0
 23 24  2  0  0  0  0
 23 25  1  0  0  0  0
  8 25  1  0  0  0  0
  6 26  1  0  0  0  0
  2 27  1  0  0  0  0
M  END
>  <cdx:fragmentId>
15971

$$$$
