320053.cdx
  Mrv1902 05222410272D          

 24 26  0  0  0  0            999 V2000
    5.1146   -6.3415    0.0000 C   0  0  0  0  0  0  0  0  0  0  0  0
    5.1146   -5.5165    0.0000 C   0  0  0  0  0  0  0  0  0  0  0  0
    5.8291   -5.1040    0.0000 O   0  0  0  0  0  0  0  0  0  0  0  0
    6.5436   -5.5165    0.0000 C   0  0  0  0  0  0  0  0  0  0  0  0
    6.5436   -6.3415    0.0000 C   0  0  0  0  0  0  0  0  0  0  0  0
    5.8291   -6.7540    0.0000 C   0  0  0  0  0  0  0  0  0  0  0  0
    4.4002   -6.7540    0.0000 C   0  0  0  0  0  0  0  0  0  0  0  0
    3.6857   -6.3415    0.0000 C   0  0  0  0  0  0  0  0  0  0  0  0
    3.6857   -5.5165    0.0000 C   0  0  0  0  0  0  0  0  0  0  0  0
    4.4002   -5.1040    0.0000 C   0  0  0  0  0  0  0  0  0  0  0  0
    2.9712   -5.1040    0.0000 O   0  0  0  0  0  0  0  0  0  0  0  0
    5.8291   -7.5790    0.0000 O   0  0  0  0  0  0  0  0  0  0  0  0
    7.2580   -6.7540    0.0000 C   0  0  0  0  0  0  0  0  0  0  0  0
    7.9725   -6.3415    0.0000 C   0  0  0  0  0  0  0  0  0  0  0  0
    8.6870   -6.7540    0.0000 C   0  0  0  0  0  0  0  0  0  0  0  0
    8.6870   -7.5790    0.0000 C   0  0  0  0  0  0  0  0  0  0  0  0
    7.9725   -7.9915    0.0000 C   0  0  0  0  0  0  0  0  0  0  0  0
    7.2580   -7.5790    0.0000 C   0  0  0  0  0  0  0  0  0  0  0  0
    9.4015   -7.9915    0.0000 O   0  0  0  0  0  0  0  0  0  0  0  0
    9.4015   -6.3415    0.0000 C   0  0  0  0  0  0  0  0  0  0  0  0
   10.1159   -6.7540    0.0000 C   0  0  0  0  0  0  0  0  0  0  0  0
   10.8304   -6.3415    0.0000 C   0  0  0  0  0  0  0  0  0  0  0  0
   11.5449   -6.7540    0.0000 C   0  0  0  0  0  0  0  0  0  0  0  0
   10.8304   -5.5165    0.0000 C   0  0  0  0  0  0  0  0  0  0  0  0
  1  2  2  0  0  0  0
  2  3  1  0  0  0  0
  3  4  1  0  0  0  0
  4  5  2  0  0  0  0
  5  6  1  0  0  0  0
  6  1  1  0  0  0  0
  1  7  1  0  0  0  0
  7  8  2  0  0  0  0
  8  9  1  0  0  0  0
  9 10  2  0  0  0  0
 10  2  1  0  0  0  0
  9 11  1  0  0  0  0
  6 12  2  0  0  0  0
  5 13  1  0  0  0  0
 13 14  1  0  0  0  0
 14 15  2  0  0  0  0
 15 16  1  0  0  0  0
 16 17  2  0  0  0  0
 17 18  1  0  0  0  0
 18 13  2  0  0  0  0
 16 19  1  0  0  0  0
 15 20  1  0  0  0  0
 20 21  1  0  0  0  0
 21 22  2  0  0  0  0
 22 23  1  0  0  0  0
 22 24  1  0  0  0  0
M  END
>  <cdx:fragmentId>
15775

$$$$
