320114.cdx
  Mrv1902 05222410182D          

 19 21  0  0  0  0            999 V2000
    8.8602   -6.5424    0.0000 C   0  0  0  0  0  0  0  0  0  0  0  0
    8.8602   -5.7174    0.0000 C   0  0  0  0  0  0  0  0  0  0  0  0
    8.1457   -5.3049    0.0000 C   0  0  0  0  0  0  0  0  0  0  0  0
    7.4313   -5.7174    0.0000 C   0  0  0  0  0  0  0  0  0  0  0  0
    7.4313   -6.5424    0.0000 C   0  0  0  0  0  0  0  0  0  0  0  0
    6.7168   -6.9549    0.0000 C   0  0  0  0  0  0  0  0  0  0  0  0
    6.0023   -6.5424    0.0000 C   0  0  0  0  0  0  0  0  0  0  0  0
    5.2878   -6.9549    0.0000 C   0  0  0  0  0  0  0  0  0  0  0  0
    5.2878   -7.7799    0.0000 C   0  0  0  0  0  0  0  0  0  0  0  0
    6.0023   -8.1924    0.0000 C   0  0  0  0  0  0  0  0  0  0  0  0
    6.7168   -7.7799    0.0000 C   0  0  0  0  0  0  0  0  0  0  0  0
    7.4313   -8.1924    0.0000 C   0  0  0  0  0  0  0  0  0  0  0  0
    8.1457   -7.7799    0.0000 C   0  0  0  0  0  0  0  0  0  0  0  0
    8.1457   -6.9549    0.0000 C   0  0  0  0  0  0  0  0  0  0  0  0
    8.1457   -4.4799    0.0000 O   0  0  0  0  0  0  0  0  0  0  0  0
    6.7168   -5.3049    0.0000 O   0  0  0  0  0  0  0  0  0  0  0  0
    6.0023   -9.0174    0.0000 C   0  0  0  0  0  0  0  0  0  0  0  0
    9.5747   -5.3049    0.0000 C   0  0  0  0  0  0  0  0  0  0  0  0
    9.5747   -6.9549    0.0000 O   0  0  0  0  0  0  0  0  0  0  0  0
  1  2  2  0  0  0  0
  2  3  1  0  0  0  0
  3  4  1  0  0  0  0
  4  5  1  0  0  0  0
  5  6  1  0  0  0  0
  6  7  1  0  0  0  0
  7  8  2  0  0  0  0
  8  9  1  0  0  0  0
  9 10  2  0  0  0  0
 10 11  1  0  0  0  0
  6 11  2  0  0  0  0
 11 12  1  0  0  0  0
 12 13  2  0  0  0  0
 13 14  1  0  0  0  0
  1 14  1  0  0  0  0
  5 14  2  0  0  0  0
  3 15  2  0  0  0  0
  4 16  2  0  0  0  0
 10 17  1  0  0  0  0
  2 18  1  0  0  0  0
  1 19  1  0  0  0  0
M  END
>  <cdx:groupId>
16143

>  <cdx:fragmentId>
16144

$$$$
