320113.cdx
  Mrv1902 05222410192D          

 21 23  0  0  0  0            999 V2000
    5.5467   -9.5086    0.0000 C   0  0  0  0  0  0  0  0  0  0  0  0
    5.5467   -8.6836    0.0000 C   0  0  0  0  0  0  0  0  0  0  0  0
    4.8323   -8.2711    0.0000 C   0  0  0  0  0  0  0  0  0  0  0  0
    4.8323   -7.4461    0.0000 C   0  0  0  0  0  0  0  0  0  0  0  0
    5.5467   -7.0336    0.0000 C   0  0  0  0  0  0  0  0  0  0  0  0
    6.2612   -7.4461    0.0000 C   0  0  0  0  0  0  0  0  0  0  0  0
    6.2612   -8.2711    0.0000 C   0  0  0  0  0  0  0  0  0  0  0  0
    6.9758   -8.6836    0.0000 C   0  0  0  0  0  0  0  0  0  0  0  0
    7.6901   -8.2711    0.0000 C   0  0  0  0  0  0  0  0  0  0  0  0
    7.6901   -7.4461    0.0000 C   0  0  0  0  0  0  0  0  0  0  0  0
    6.9758   -7.0336    0.0000 C   0  0  0  0  0  0  0  0  0  0  0  0
    6.9758   -6.2086    0.0000 C   0  0  0  0  0  0  0  0  0  0  0  0
    6.2612   -5.7961    0.0000 O   0  0  0  0  0  0  0  0  0  0  0  0
    7.6901   -5.7961    0.0000 C   0  0  0  0  0  0  0  0  0  0  0  0
    7.6901   -4.9711    0.0000 O   0  0  0  0  0  0  0  0  0  0  0  0
    8.4049   -6.2086    0.0000 C   0  0  0  0  0  0  0  0  0  0  0  0
    8.4049   -7.0336    0.0000 C   0  0  0  0  0  0  0  0  0  0  0  0
    9.1192   -7.4461    0.0000 O   0  0  0  0  0  0  0  0  0  0  0  0
    9.1192   -5.7961    0.0000 C   0  0  0  0  0  0  0  0  0  0  0  0
    9.1192   -4.9711    0.0000 C   0  0  0  0  0  0  0  0  0  0  0  0
    9.8338   -6.2086    0.0000 C   0  0  0  0  0  0  0  0  0  0  0  0
  1  2  1  0  0  0  0
  2  3  2  0  0  0  0
  3  4  1  0  0  0  0
  4  5  2  0  0  0  0
  5  6  1  0  0  0  0
  6  7  2  0  0  0  0
  2  7  1  0  0  0  0
  7  8  1  0  0  0  0
  8  9  2  0  0  0  0
  9 10  1  0  0  0  0
 10 11  2  0  0  0  0
  6 11  1  0  0  0  0
 11 12  1  0  0  0  0
 12 13  2  0  0  0  0
 12 14  1  0  0  0  0
 14 15  2  0  0  0  0
 14 16  1  0  0  0  0
 16 17  2  0  0  0  0
 10 17  1  0  0  0  0
 17 18  1  0  0  0  0
 16 19  1  0  0  0  0
 19 20  1  0  0  0  0
 19 21  1  0  0  0  0
M  END
>  <cdx:fragmentId>
16034

$$$$
