320176.cdx
  Mrv1902 05222410212D          

 27 28  0  0  0  0            999 V2000
    2.0250   -6.9228    0.0000 C   0  0  0  0  0  0  0  0  0  0  0  0
    2.7394   -5.6853    0.0000 O   0  0  0  0  0  0  0  0  0  0  0  0
    2.7394   -6.5103    0.0000 C   0  0  0  0  0  0  0  0  0  0  0  0
    3.4539   -6.9228    0.0000 O   0  0  0  0  0  0  0  0  0  0  0  0
    6.3118   -5.2728    0.0000 O   0  0  0  0  0  0  0  0  0  0  0  0
    4.8828   -7.7478    0.0000 O   0  0  0  0  0  0  0  0  0  0  0  0
    3.4539   -5.2728    0.0000 C   0  0  0  0  0  0  0  0  0  0  0  0
    4.1684   -5.6853    0.0000 C   0  0  1  0  0  0  0  0  0  0  0  0
    4.1684   -6.5103    0.0000 C   0  0  1  0  0  0  0  0  0  0  0  0
    4.8828   -6.9228    0.0000 C   0  0  2  0  0  0  0  0  0  0  0  0
    5.5973   -6.5103    0.0000 C   0  0  2  0  0  0  0  0  0  0  0  0
    5.5973   -5.6853    0.0000 C   0  0  1  0  0  0  0  0  0  0  0  0
    4.8828   -5.2728    0.0000 O   0  0  0  0  0  0  0  0  0  0  0  0
   11.3131   -8.1603    0.0000 O   0  0  0  0  0  0  0  0  0  0  0  0
   12.0276   -6.9228    0.0000 C   0  0  0  0  0  0  0  0  0  0  0  0
   11.3131   -6.5103    0.0000 O   0  0  0  0  0  0  0  0  0  0  0  0
    9.1697   -7.7478    0.0000 C   0  0  0  0  0  0  0  0  0  0  0  0
    9.8841   -8.1603    0.0000 C   0  0  0  0  0  0  0  0  0  0  0  0
   10.5986   -7.7478    0.0000 C   0  0  0  0  0  0  0  0  0  0  0  0
   10.5986   -6.9228    0.0000 C   0  0  0  0  0  0  0  0  0  0  0  0
    9.8841   -6.5103    0.0000 C   0  0  0  0  0  0  0  0  0  0  0  0
    9.1697   -6.9228    0.0000 C   0  0  0  0  0  0  0  0  0  0  0  0
    6.3118   -6.9228    0.0000 O   0  0  0  0  0  0  0  0  0  0  0  0
    7.0263   -5.6853    0.0000 O   0  0  0  0  0  0  0  0  0  0  0  0
    8.4552   -6.5103    0.0000 C   0  0  0  0  0  0  0  0  0  0  0  0
    7.7407   -6.9228    0.0000 C   0  0  0  0  0  0  0  0  0  0  0  0
    7.0263   -6.5103    0.0000 C   0  0  0  0  0  0  0  0  0  0  0  0
 11 23  1  6  0  0  0
  9  4  1  1  0  0  0
  4  3  1  0  0  0  0
  3  1  1  0  0  0  0
  3  2  2  0  0  0  0
 12  5  1  1  0  0  0
 10  6  1  6  0  0  0
  8  7  1  6  0  0  0
 13  8  1  0  0  0  0
  9  8  1  0  0  0  0
 10  9  1  0  0  0  0
 11 10  1  0  0  0  0
 12 11  1  0  0  0  0
 13 12  1  0  0  0  0
 25 22  1  0  0  0  0
 19 14  1  0  0  0  0
 20 16  1  0  0  0  0
 16 15  1  0  0  0  0
 22 17  2  0  0  0  0
 18 17  1  0  0  0  0
 19 18  2  0  0  0  0
 20 19  1  0  0  0  0
 21 20  2  0  0  0  0
 22 21  1  0  0  0  0
 27 23  1  0  0  0  0
 27 24  2  0  0  0  0
 26 25  2  0  0  0  0
 27 26  1  0  0  0  0
M  END
>  <cdx:fragmentId>
16347

$$$$
