5320238.cdx
  Mrv1902 05222410232D          

 33 33  0  0  0  0            999 V2000
    6.6352   -6.8772    0.0000 C   0  0  0  0  0  0  0  0  0  0  0  0
    5.9207   -7.2897    0.0000 C   0  0  0  0  0  0  0  0  0  0  0  0
    5.2063   -6.8772    0.0000 C   0  0  0  0  0  0  0  0  0  0  0  0
    6.6352   -6.0522    0.0000 O   0  0  0  0  0  0  0  0  0  0  0  0
    7.3497   -7.2897    0.0000 O   0  0  0  0  0  0  0  0  0  0  0  0
    4.4918   -7.2897    0.0000 C   0  0  0  0  0  0  0  0  0  0  0  0
    3.7773   -6.8772    0.0000 C   0  0  0  0  0  0  0  0  0  0  0  0
    3.0628   -7.2897    0.0000 C   0  0  0  0  0  0  0  0  0  0  0  0
    3.0628   -8.1147    0.0000 C   0  0  0  0  0  0  0  0  0  0  0  0
    3.7773   -8.5272    0.0000 C   0  0  0  0  0  0  0  0  0  0  0  0
    4.4918   -8.1147    0.0000 C   0  0  0  0  0  0  0  0  0  0  0  0
    2.3484   -8.5272    0.0000 O   0  0  0  0  0  0  0  0  0  0  0  0
    2.3484   -6.8772    0.0000 O   0  0  0  0  0  0  0  0  0  0  0  0
    8.0641   -6.8772    0.0000 C   0  0  0  0  0  0  0  0  0  0  0  0
    8.7786   -7.2897    0.0000 C   0  0  0  0  0  0  0  0  0  0  0  0
    9.4931   -6.8772    0.0000 C   0  0  0  0  0  0  0  0  0  0  0  0
   10.2076   -7.2897    0.0000 C   0  0  0  0  0  0  0  0  0  0  0  0
   10.9220   -6.8772    0.0000 C   0  0  0  0  0  0  0  0  0  0  0  0
   11.6365   -7.2897    0.0000 C   0  0  0  0  0  0  0  0  0  0  0  0
   12.3510   -6.8772    0.0000 C   0  0  0  0  0  0  0  0  0  0  0  0
   13.0654   -7.2897    0.0000 C   0  0  0  0  0  0  0  0  0  0  0  0
   13.7799   -6.8772    0.0000 C   0  0  0  0  0  0  0  0  0  0  0  0
   14.4944   -7.2897    0.0000 C   0  0  0  0  0  0  0  0  0  0  0  0
   15.2089   -6.8772    0.0000 C   0  0  0  0  0  0  0  0  0  0  0  0
   15.9233   -7.2897    0.0000 C   0  0  0  0  0  0  0  0  0  0  0  0
   16.6378   -6.8772    0.0000 C   0  0  0  0  0  0  0  0  0  0  0  0
   17.3523   -7.2897    0.0000 C   0  0  0  0  0  0  0  0  0  0  0  0
   18.0667   -6.8772    0.0000 C   0  0  0  0  0  0  0  0  0  0  0  0
   18.7812   -7.2897    0.0000 C   0  0  0  0  0  0  0  0  0  0  0  0
   19.4957   -6.8772    0.0000 C   0  0  0  0  0  0  0  0  0  0  0  0
   20.2102   -7.2897    0.0000 C   0  0  0  0  0  0  0  0  0  0  0  0
   20.9246   -6.8772    0.0000 C   0  0  0  0  0  0  0  0  0  0  0  0
   21.6391   -7.2897    0.0000 C   0  0  0  0  0  0  0  0  0  0  0  0
  1  2  1  0  0  0  0
  2  3  2  0  0  0  0
  1  4  2  0  0  0  0
  1  5  1  0  0  0  0
  6  7  1  0  0  0  0
  7  8  2  0  0  0  0
  8  9  1  0  0  0  0
  9 10  2  0  0  0  0
 10 11  1  0  0  0  0
  6 11  2  0  0  0  0
  9 12  1  0  0  0  0
  8 13  1  0  0  0  0
  3  6  1  0  0  0  0
 14 15  1  0  0  0  0
 15 16  1  0  0  0  0
 16 17  1  0  0  0  0
 17 18  1  0  0  0  0
 18 19  1  0  0  0  0
 19 20  1  0  0  0  0
 20 21  1  0  0  0  0
 21 22  1  0  0  0  0
 22 23  1  0  0  0  0
 23 24  1  0  0  0  0
 24 25  1  0  0  0  0
 25 26  1  0  0  0  0
 26 27  1  0  0  0  0
 27 28  1  0  0  0  0
 28 29  1  0  0  0  0
 29 30  1  0  0  0  0
 30 31  1  0  0  0  0
 31 32  1  0  0  0  0
 32 33  1  0  0  0  0
  5 14  1  0  0  0  0
M  END
>  <cdx:fragmentId>
139

$$$$
