320228.cdx
  Mrv1902 05222410202D          

 26 28  0  0  0  0            999 V2000
    8.7089  -10.9040    0.0000 C   0  0  0  0  0  0  0  0  0  0  0  0
    8.7108  -10.0790    0.0000 C   0  0  0  0  0  0  0  0  0  0  0  0
    7.9972   -9.6649    0.0000 C   0  0  0  0  0  0  0  0  0  0  0  0
    7.2819  -10.0758    0.0000 C   0  0  0  0  0  0  0  0  0  0  0  0
    7.2800  -10.9008    0.0000 C   0  0  0  0  0  0  0  0  0  0  0  0
    7.9935  -11.3149    0.0000 O   0  0  0  0  0  0  0  0  0  0  0  0
    6.5646  -11.3117    0.0000 C   0  0  0  0  0  0  0  0  0  0  0  0
    5.8511  -10.8976    0.0000 C   0  0  0  0  0  0  0  0  0  0  0  0
    5.8529  -10.0726    0.0000 C   0  0  0  0  0  0  0  0  0  0  0  0
    6.5683   -9.6617    0.0000 C   0  0  0  0  0  0  0  0  0  0  0  0
    5.0659  -11.1508    0.0000 O   0  0  0  0  0  0  0  0  0  0  0  0
    5.0689   -9.8159    0.0000 C   0  0  0  0  0  0  0  0  0  0  0  0
    4.5824  -10.4823    0.0000 C   0  0  0  0  0  0  0  0  0  0  0  0
    9.4225  -11.3181    0.0000 O   0  0  0  0  0  0  0  0  0  0  0  0
   10.1526   -4.3072    0.0000 O   0  0  0  0  0  0  0  0  0  0  0  0
    8.7163   -7.6040    0.0000 C   0  0  0  0  0  0  0  0  0  0  0  0
    9.8831   -5.5215    0.0000 C   0  0  0  0  0  0  0  0  0  0  0  0
    9.0247   -4.0036    0.0000 C   0  0  0  0  0  0  0  0  0  0  0  0
    9.4372   -4.7181    0.0000 C   0  0  0  0  0  0  0  0  0  0  0  0
    8.7218   -5.1290    0.0000 C   0  0  0  0  0  0  0  0  0  0  0  0
    8.7200   -5.9540    0.0000 C   0  0  0  0  0  0  0  0  0  0  0  0
    8.0046   -6.3649    0.0000 C   0  0  0  0  0  0  0  0  0  0  0  0
    8.0028   -7.1899    0.0000 C   0  0  0  0  0  0  0  0  0  0  0  0
    7.2873   -7.6008    0.0000 C   0  0  0  0  0  0  0  0  0  0  0  0
    7.2855   -8.4258    0.0000 C   0  0  0  0  0  0  0  0  0  0  0  0
    6.5701   -8.8367    0.0000 O   0  0  0  0  0  0  0  0  0  0  0  0
 26 25  1  0  0  0  0
 19 15  1  0  0  0  0
 23 16  1  0  0  0  0
 19 17  1  0  0  0  0
 19 18  1  0  0  0  0
 20 19  1  0  0  0  0
 21 20  2  0  0  0  0
 22 21  1  0  0  0  0
 23 22  1  0  0  0  0
 24 23  2  0  0  0  0
 25 24  1  0  0  0  0
  1  2  1  0  0  0  0
  2  3  2  0  0  0  0
  3  4  1  0  0  0  0
  4  5  1  0  0  0  0
  5  6  1  0  0  0  0
  1  6  1  0  0  0  0
  7  8  1  0  0  0  0
  8  9  2  0  0  0  0
  9 10  1  0  0  0  0
 10  4  2  0  0  0  0
  7  5  2  0  0  0  0
 12 13  2  0  0  0  0
 11 13  1  0  0  0  0
 12  9  1  0  0  0  0
 11  8  1  0  0  0  0
  1 14  2  0  0  0  0
 10 26  1  0  0  0  0
M  END
>  <cdx:fragmentId>
16506

$$$$
