320236.cdx
  Mrv1902 05222410242D          

 31 31  0  0  0  0            999 V2000
    4.8719   -7.2457    0.0000 C   0  0  0  0  0  0  0  0  0  0  0  0
    4.1575   -6.8332    0.0000 C   0  0  0  0  0  0  0  0  0  0  0  0
    4.8719   -8.0707    0.0000 O   0  0  0  0  0  0  0  0  0  0  0  0
    5.5864   -6.8332    0.0000 O   0  0  0  0  0  0  0  0  0  0  0  0
    6.3009   -7.2457    0.0000 C   0  0  0  0  0  0  0  0  0  0  0  0
    7.0153   -6.8332    0.0000 C   0  0  0  0  0  0  0  0  0  0  0  0
    7.7298   -7.2457    0.0000 C   0  0  0  0  0  0  0  0  0  0  0  0
    8.4443   -6.8332    0.0000 C   0  0  0  0  0  0  0  0  0  0  0  0
    9.1588   -7.2457    0.0000 C   0  0  0  0  0  0  0  0  0  0  0  0
    9.8732   -6.8332    0.0000 C   0  0  0  0  0  0  0  0  0  0  0  0
   10.5877   -7.2457    0.0000 C   0  0  0  0  0  0  0  0  0  0  0  0
   11.3022   -6.8332    0.0000 C   0  0  0  0  0  0  0  0  0  0  0  0
   12.0166   -7.2457    0.0000 C   0  0  0  0  0  0  0  0  0  0  0  0
   12.7311   -6.8332    0.0000 C   0  0  0  0  0  0  0  0  0  0  0  0
   13.4456   -7.2457    0.0000 C   0  0  0  0  0  0  0  0  0  0  0  0
   14.1600   -6.8332    0.0000 C   0  0  0  0  0  0  0  0  0  0  0  0
   14.8745   -7.2457    0.0000 C   0  0  0  0  0  0  0  0  0  0  0  0
   15.5890   -6.8332    0.0000 C   0  0  0  0  0  0  0  0  0  0  0  0
   16.3035   -7.2457    0.0000 C   0  0  0  0  0  0  0  0  0  0  0  0
   17.0179   -6.8332    0.0000 C   0  0  0  0  0  0  0  0  0  0  0  0
   17.7324   -7.2457    0.0000 C   0  0  0  0  0  0  0  0  0  0  0  0
   18.4469   -6.8332    0.0000 C   0  0  0  0  0  0  0  0  0  0  0  0
    2.0140   -9.7207    0.0000 O   0  0  0  0  0  0  0  0  0  0  0  0
    3.4430  -10.5457    0.0000 O   0  0  0  0  0  0  0  0  0  0  0  0
    4.1575   -8.4832    0.0000 C   0  0  0  0  0  0  0  0  0  0  0  0
    4.1575   -9.3082    0.0000 C   0  0  0  0  0  0  0  0  0  0  0  0
    3.4430   -9.7207    0.0000 C   0  0  0  0  0  0  0  0  0  0  0  0
    2.7285   -9.3082    0.0000 C   0  0  0  0  0  0  0  0  0  0  0  0
    2.7285   -8.4832    0.0000 C   0  0  0  0  0  0  0  0  0  0  0  0
    3.4430   -8.0707    0.0000 C   0  0  0  0  0  0  0  0  0  0  0  0
    3.4430   -7.2457    0.0000 C   0  0  0  0  0  0  0  0  0  0  0  0
 31 30  1  0  0  0  0
 28 23  1  0  0  0  0
 27 24  1  0  0  0  0
 30 25  2  0  0  0  0
 26 25  1  0  0  0  0
 27 26  2  0  0  0  0
 28 27  1  0  0  0  0
 29 28  2  0  0  0  0
 30 29  1  0  0  0  0
  1  2  1  0  0  0  0
  2 31  2  0  0  0  0
  1  3  2  0  0  0  0
  1  4  1  0  0  0  0
  5  6  1  0  0  0  0
  6  7  1  0  0  0  0
  7  8  1  0  0  0  0
  8  9  1  0  0  0  0
  9 10  1  0  0  0  0
 10 11  1  0  0  0  0
 11 12  1  0  0  0  0
 12 13  1  0  0  0  0
 13 14  1  0  0  0  0
 14 15  1  0  0  0  0
 15 16  1  0  0  0  0
 16 17  1  0  0  0  0
 17 18  1  0  0  0  0
 18 19  1  0  0  0  0
 19 20  1  0  0  0  0
 20 21  1  0  0  0  0
 21 22  1  0  0  0  0
  4  5  1  0  0  0  0
M  END
>  <cdx:fragmentId>
133

$$$$
