5320287.cdx
  Mrv1902 05222410272D          

 24 26  0  0  0  0            999 V2000
   15.8260   -8.2428    0.0000 C   0  0  0  0  0  0  0  0  0  0  0  0
   15.8260   -9.0678    0.0000 C   0  0  0  0  0  0  0  0  0  0  0  0
   15.1115   -9.4803    0.0000 C   0  0  0  0  0  0  0  0  0  0  0  0
   15.1115  -10.3053    0.0000 O   0  0  0  0  0  0  0  0  0  0  0  0
   14.3970   -9.0678    0.0000 C   0  0  0  0  0  0  0  0  0  0  0  0
   13.6826   -9.4803    0.0000 C   0  0  0  0  0  0  0  0  0  0  0  0
   12.9681   -9.0678    0.0000 C   0  0  0  0  0  0  0  0  0  0  0  0
   12.9681   -8.2428    0.0000 C   0  0  0  0  0  0  0  0  0  0  0  0
   13.6826   -7.8303    0.0000 C   0  0  0  0  0  0  0  0  0  0  0  0
   14.3970   -8.2428    0.0000 C   0  0  0  0  0  0  0  0  0  0  0  0
   15.1115   -7.8303    0.0000 O   0  0  0  0  0  0  0  0  0  0  0  0
   16.5405   -7.8303    0.0000 C   0  0  0  0  0  0  0  0  0  0  0  0
   17.2549   -8.2428    0.0000 C   0  0  0  0  0  0  0  0  0  0  0  0
   17.9694   -7.8303    0.0000 C   0  0  0  0  0  0  0  0  0  0  0  0
   17.9694   -7.0053    0.0000 C   0  0  0  0  0  0  0  0  0  0  0  0
   17.2549   -6.5928    0.0000 C   0  0  0  0  0  0  0  0  0  0  0  0
   16.5405   -7.0053    0.0000 C   0  0  0  0  0  0  0  0  0  0  0  0
   18.6839   -6.5928    0.0000 O   0  0  0  0  0  0  0  0  0  0  0  0
   19.3983   -7.0053    0.0000 C   0  0  0  0  0  0  0  0  0  0  0  0
   12.2536   -7.8303    0.0000 O   0  0  0  0  0  0  0  0  0  0  0  0
   11.5392   -8.2428    0.0000 C   0  0  0  0  0  0  0  0  0  0  0  0
   18.6839   -8.2428    0.0000 O   0  0  0  0  0  0  0  0  0  0  0  0
   13.6826  -10.3053    0.0000 O   0  0  0  0  0  0  0  0  0  0  0  0
   16.5405   -9.4803    0.0000 O   0  0  0  0  0  0  0  0  0  0  0  0
  1  2  2  0  0  0  0
  2  3  1  0  0  0  0
  3  4  2  0  0  0  0
  3  5  1  0  0  0  0
  5  6  1  0  0  0  0
  6  7  2  0  0  0  0
  7  8  1  0  0  0  0
  8  9  2  0  0  0  0
  9 10  1  0  0  0  0
  5 10  2  0  0  0  0
 10 11  1  0  0  0  0
  1 11  1  0  0  0  0
  1 12  1  0  0  0  0
 12 13  1  0  0  0  0
 13 14  2  0  0  0  0
 14 15  1  0  0  0  0
 15 16  2  0  0  0  0
 16 17  1  0  0  0  0
 12 17  2  0  0  0  0
 18 19  1  0  0  0  0
 15 18  1  0  0  0  0
 20 21  1  0  0  0  0
  8 20  1  0  0  0  0
 14 22  1  0  0  0  0
  6 23  1  0  0  0  0
  2 24  1  0  0  0  0
M  END
>  <cdx:groupId>
16762

>  <cdx:fragmentId>
16691

$$$$
