320227.cdx
  Mrv1902 05222410242D          

 26 28  0  0  0  0            999 V2000
    9.7483   -2.7941    0.0000 C   0  0  0  0  0  0  0  0  0  0  0  0
    9.7483   -3.6191    0.0000 C   0  0  0  0  0  0  0  0  0  0  0  0
    9.0338   -4.0316    0.0000 C   0  0  0  0  0  0  0  0  0  0  0  0
   10.4627   -4.0316    0.0000 C   0  0  0  0  0  0  0  0  0  0  0  0
    9.0338   -4.8566    0.0000 C   0  0  0  0  0  0  0  0  0  0  0  0
    8.3193   -5.2691    0.0000 C   0  0  0  0  0  0  0  0  0  0  0  0
    9.7482   -5.2691    0.0000 O   0  0  0  0  0  0  0  0  0  0  0  0
    8.3193   -6.0940    0.0000 C   0  0  0  0  0  0  0  0  0  0  0  0
    7.6048   -6.5065    0.0000 C   0  0  0  0  0  0  0  0  0  0  0  0
    9.0337   -6.5066    0.0000 C   0  0  0  0  0  0  0  0  0  0  0  0
    6.8903   -7.7440    0.0000 O   0  0  0  0  0  0  0  0  0  0  0  0
    6.8903   -8.5690    0.0000 C   0  0  0  0  0  0  0  0  0  0  0  0
    6.1758   -8.9815    0.0000 C   0  0  0  0  0  0  0  0  0  0  0  0
    6.1758   -9.8065    0.0000 C   0  0  0  0  0  0  0  0  0  0  0  0
    6.8903  -10.2190    0.0000 C   0  0  0  0  0  0  0  0  0  0  0  0
    7.6048   -9.8065    0.0000 C   0  0  0  0  0  0  0  0  0  0  0  0
    7.6048   -8.9815    0.0000 C   0  0  0  0  0  0  0  0  0  0  0  0
    5.3912   -8.7265    0.0000 C   0  0  0  0  0  0  0  0  0  0  0  0
    4.9063   -9.3940    0.0000 C   0  0  0  0  0  0  0  0  0  0  0  0
    5.3912  -10.0614    0.0000 O   0  0  0  0  0  0  0  0  0  0  0  0
    8.3192  -10.2190    0.0000 O   0  0  0  0  0  0  0  0  0  0  0  0
    9.0337   -9.8065    0.0000 C   0  0  0  0  0  0  0  0  0  0  0  0
    9.0337   -8.9815    0.0000 C   0  0  0  0  0  0  0  0  0  0  0  0
    8.3192   -8.5690    0.0000 C   0  0  0  0  0  0  0  0  0  0  0  0
    9.7481  -10.2190    0.0000 O   0  0  0  0  0  0  0  0  0  0  0  0
    7.6048   -7.3315    0.0000 C   0  0  0  0  0  0  0  0  0  0  0  0
 26 11  1  0  0  0  0
  1  2  1  0  0  0  0
  2  3  2  0  0  0  0
  2  4  1  0  0  0  0
  3  5  1  0  0  0  0
  5  6  1  0  0  0  0
  5  7  1  0  0  0  0
  6  8  1  0  0  0  0
  8  9  2  0  0  0  0
  8 10  1  0  0  0  0
  9 26  1  0  0  0  0
 11 12  1  0  0  0  0
 12 13  1  0  0  0  0
 13 14  2  0  0  0  0
 14 15  1  0  0  0  0
 15 16  2  0  0  0  0
 16 17  1  0  0  0  0
 17 12  2  0  0  0  0
 13 18  1  0  0  0  0
 18 19  2  0  0  0  0
 19 20  1  0  0  0  0
 20 14  1  0  0  0  0
 16 21  1  0  0  0  0
 21 22  1  0  0  0  0
 22 23  1  0  0  0  0
 23 24  2  0  0  0  0
 24 17  1  0  0  0  0
 22 25  2  0  0  0  0
M  END
>  <cdx:fragmentId>
16424

$$$$
