320291.cdx
  Mrv1902 05222410282D          

 22 24  0  0  0  0            999 V2000
    7.4113   -5.8603    0.0000 C   0  0  0  0  0  0  0  0  0  0  0  0
    8.1258   -6.2728    0.0000 C   0  0  0  0  0  0  0  0  0  0  0  0
    8.8403   -5.8603    0.0000 C   0  0  0  0  0  0  0  0  0  0  0  0
    9.5549   -6.2728    0.0000 C   0  0  0  0  0  0  0  0  0  0  0  0
    9.5549   -7.0979    0.0000 C   0  0  0  0  0  0  0  0  0  0  0  0
    8.8403   -7.5103    0.0000 C   0  0  0  0  0  0  0  0  0  0  0  0
    8.1258   -7.0979    0.0000 C   0  0  0  0  0  0  0  0  0  0  0  0
    7.4113   -7.5103    0.0000 O   0  0  0  0  0  0  0  0  0  0  0  0
    6.6968   -7.0979    0.0000 C   0  0  0  0  0  0  0  0  0  0  0  0
    5.9823   -7.5103    0.0000 C   0  0  0  0  0  0  0  0  0  0  0  0
    5.2676   -7.0979    0.0000 C   0  0  0  0  0  0  0  0  0  0  0  0
    5.2676   -6.2728    0.0000 C   0  0  0  0  0  0  0  0  0  0  0  0
    5.9823   -5.8603    0.0000 C   0  0  0  0  0  0  0  0  0  0  0  0
    6.6968   -6.2728    0.0000 C   0  0  0  0  0  0  0  0  0  0  0  0
    7.4113   -5.0352    0.0000 O   0  0  0  0  0  0  0  0  0  0  0  0
    4.5531   -5.8603    0.0000 O   0  0  0  0  0  0  0  0  0  0  0  0
    3.8386   -6.2728    0.0000 C   0  0  0  0  0  0  0  0  0  0  0  0
   10.2694   -5.8603    0.0000 O   0  0  0  0  0  0  0  0  0  0  0  0
   10.9839   -6.2728    0.0000 C   0  0  0  0  0  0  0  0  0  0  0  0
    4.5531   -7.5103    0.0000 O   0  0  0  0  0  0  0  0  0  0  0  0
   10.2694   -7.5103    0.0000 O   0  0  0  0  0  0  0  0  0  0  0  0
    8.8403   -5.0352    0.0000 O   0  0  0  0  0  0  0  0  0  0  0  0
  1  2  1  0  0  0  0
  2  3  1  0  0  0  0
  3  4  2  0  0  0  0
  4  5  1  0  0  0  0
  5  6  2  0  0  0  0
  6  7  1  0  0  0  0
  2  7  2  0  0  0  0
  7  8  1  0  0  0  0
  8  9  1  0  0  0  0
  9 10  1  0  0  0  0
 10 11  2  0  0  0  0
 11 12  1  0  0  0  0
 12 13  2  0  0  0  0
 13 14  1  0  0  0  0
  9 14  2  0  0  0  0
  1 14  1  0  0  0  0
  1 15  2  0  0  0  0
 16 17  1  0  0  0  0
 12 16  1  0  0  0  0
 18 19  1  0  0  0  0
  4 18  1  0  0  0  0
 11 20  1  0  0  0  0
  5 21  1  0  0  0  0
  3 22  1  0  0  0  0
M  END
>  <cdx:fragmentId>
16771

$$$$
