101320297.cdx
  Mrv1902 05222410272D          

 20 21  0  0  0  0            999 V2000
    8.1766  -16.5930    0.0000 O   0  0  0  0  0  0  0  0  0  0  0  0
    7.3920  -16.3381    0.0000 C   0  0  1  0  0  0  0  0  0  0  0  0
    7.3920  -15.5131    0.0000 C   0  0  2  0  0  0  0  0  0  0  0  0
    8.1766  -15.2581    0.0000 C   0  0  0  0  0  0  0  0  0  0  0  0
    8.6615  -15.9256    0.0000 C   0  0  0  0  0  0  0  0  0  0  0  0
    6.6775  -15.1006    0.0000 C   0  0  0  0  0  0  0  0  0  0  0  0
    6.6775  -14.2756    0.0000 C   0  0  0  0  0  0  0  0  0  0  0  0
    5.9630  -13.8631    0.0000 C   0  0  0  0  0  0  0  0  0  0  0  0
    5.2486  -14.2756    0.0000 C   0  0  0  0  0  0  0  0  0  0  0  0
    5.2486  -15.1006    0.0000 C   0  0  0  0  0  0  0  0  0  0  0  0
    5.9630  -15.5131    0.0000 C   0  0  0  0  0  0  0  0  0  0  0  0
    5.9630  -16.3381    0.0000 C   0  0  0  0  0  0  0  0  0  0  0  0
    6.6775  -16.7506    0.0000 C   0  0  0  0  0  0  0  0  0  0  0  0
    9.4865  -15.9256    0.0000 O   0  0  0  0  0  0  0  0  0  0  0  0
    8.4315  -14.4735    0.0000 C   0  0  0  0  0  0  0  0  0  0  0  0
    5.2486  -16.7506    0.0000 C   0  0  0  0  0  0  0  0  0  0  0  0
    5.9630  -13.0381    0.0000 C   0  0  0  0  0  0  0  0  0  0  0  0
    5.2486  -12.6256    0.0000 O   0  0  0  0  0  0  0  0  0  0  0  0
    7.4782  -14.6926    0.0000 H   0  0  0  0  0  0  0  0  0  0  0  0
    7.4782  -17.1585    0.0000 H   0  0  0  0  0  0  0  0  0  0  0  0
  1  2  1  0  0  0  0
  2  3  1  0  0  0  0
  3  4  1  0  0  0  0
  4  5  1  0  0  0  0
  1  5  1  0  0  0  0
  6  7  1  0  0  0  0
  7  8  1  0  0  0  0
  8  9  2  0  0  0  0
  9 10  1  0  0  0  0
 10 11  1  0  0  0  0
 11 12  1  0  0  0  0
 12 13  2  0  0  0  0
 13  2  1  0  0  0  0
  6  3  1  0  0  0  0
  5 14  2  0  0  0  0
  4 15  2  0  0  0  0
 12 16  1  0  0  0  0
 17 18  1  0  0  0  0
  8 17  1  0  0  0  0
  3 19  1  6  0  0  0
  2 20  1  1  0  0  0
M  END
>  <cdx:groupId>
239081

>  <cdx:fragmentId>
239033

$$$$
