320237.cdx
  Mrv1902 05222410242D          

 31 31  0  0  0  0            999 V2000
    6.2469   -8.1532    0.0000 C   0  0  0  0  0  0  0  0  0  0  0  0
    5.5325   -8.5657    0.0000 C   0  0  0  0  0  0  0  0  0  0  0  0
    4.8180   -8.1532    0.0000 C   0  0  0  0  0  0  0  0  0  0  0  0
    6.2469   -7.3282    0.0000 O   0  0  0  0  0  0  0  0  0  0  0  0
    6.9614   -8.5657    0.0000 O   0  0  0  0  0  0  0  0  0  0  0  0
    4.1035   -8.5657    0.0000 C   0  0  0  0  0  0  0  0  0  0  0  0
    3.3890   -8.1532    0.0000 C   0  0  0  0  0  0  0  0  0  0  0  0
    2.6746   -8.5657    0.0000 C   0  0  0  0  0  0  0  0  0  0  0  0
    2.6746   -9.3907    0.0000 C   0  0  0  0  0  0  0  0  0  0  0  0
    3.3890   -9.8032    0.0000 C   0  0  0  0  0  0  0  0  0  0  0  0
    4.1035   -9.3907    0.0000 C   0  0  0  0  0  0  0  0  0  0  0  0
    1.9601   -9.8032    0.0000 O   0  0  0  0  0  0  0  0  0  0  0  0
    1.9601   -8.1532    0.0000 O   0  0  0  0  0  0  0  0  0  0  0  0
    7.6759   -8.1532    0.0000 C   0  0  0  0  0  0  0  0  0  0  0  0
    8.3903   -8.5657    0.0000 C   0  0  0  0  0  0  0  0  0  0  0  0
    9.1048   -8.1532    0.0000 C   0  0  0  0  0  0  0  0  0  0  0  0
    9.8193   -8.5657    0.0000 C   0  0  0  0  0  0  0  0  0  0  0  0
   10.5338   -8.1532    0.0000 C   0  0  0  0  0  0  0  0  0  0  0  0
   11.2482   -8.5657    0.0000 C   0  0  0  0  0  0  0  0  0  0  0  0
   11.9627   -8.1532    0.0000 C   0  0  0  0  0  0  0  0  0  0  0  0
   12.6772   -8.5657    0.0000 C   0  0  0  0  0  0  0  0  0  0  0  0
   13.3916   -8.1532    0.0000 C   0  0  0  0  0  0  0  0  0  0  0  0
   14.1061   -8.5657    0.0000 C   0  0  0  0  0  0  0  0  0  0  0  0
   14.8206   -8.1532    0.0000 C   0  0  0  0  0  0  0  0  0  0  0  0
   15.5350   -8.5657    0.0000 C   0  0  0  0  0  0  0  0  0  0  0  0
   16.2495   -8.1532    0.0000 C   0  0  0  0  0  0  0  0  0  0  0  0
   16.9640   -8.5657    0.0000 C   0  0  0  0  0  0  0  0  0  0  0  0
   17.6785   -8.1532    0.0000 C   0  0  0  0  0  0  0  0  0  0  0  0
   18.3929   -8.5657    0.0000 C   0  0  0  0  0  0  0  0  0  0  0  0
   19.1074   -8.1532    0.0000 C   0  0  0  0  0  0  0  0  0  0  0  0
   19.8219   -8.5657    0.0000 C   0  0  0  0  0  0  0  0  0  0  0  0
  1  2  1  0  0  0  0
  2  3  2  0  0  0  0
  1  4  2  0  0  0  0
  1  5  1  0  0  0  0
  6  7  1  0  0  0  0
  7  8  2  0  0  0  0
  8  9  1  0  0  0  0
  9 10  2  0  0  0  0
 10 11  1  0  0  0  0
  6 11  2  0  0  0  0
  9 12  1  0  0  0  0
  8 13  1  0  0  0  0
  3  6  1  0  0  0  0
 14 15  1  0  0  0  0
 15 16  1  0  0  0  0
 16 17  1  0  0  0  0
 17 18  1  0  0  0  0
 18 19  1  0  0  0  0
 19 20  1  0  0  0  0
 20 21  1  0  0  0  0
 21 22  1  0  0  0  0
 22 23  1  0  0  0  0
 23 24  1  0  0  0  0
 24 25  1  0  0  0  0
 25 26  1  0  0  0  0
 26 27  1  0  0  0  0
 27 28  1  0  0  0  0
 28 29  1  0  0  0  0
 29 30  1  0  0  0  0
 30 31  1  0  0  0  0
  5 14  1  0  0  0  0
M  END
>  <cdx:fragmentId>
101

$$$$
