320315.cdx
  Mrv1902 05222410192D          

 21 23  0  0  0  0            999 V2000
    8.4512   -5.5080    0.0000 C   0  0  0  0  0  0  0  0  0  0  0  0
    8.4512   -6.3330    0.0000 C   0  0  0  0  0  0  0  0  0  0  0  0
    7.7367   -6.7455    0.0000 C   0  0  0  0  0  0  0  0  0  0  0  0
    7.7367   -7.5705    0.0000 O   0  0  0  0  0  0  0  0  0  0  0  0
    7.0222   -6.3330    0.0000 C   0  0  0  0  0  0  0  0  0  0  0  0
    6.3078   -6.7455    0.0000 C   0  0  0  0  0  0  0  0  0  0  0  0
    5.5933   -6.3330    0.0000 C   0  0  0  0  0  0  0  0  0  0  0  0
    5.5933   -5.5080    0.0000 C   0  0  0  0  0  0  0  0  0  0  0  0
    6.3078   -5.0955    0.0000 C   0  0  0  0  0  0  0  0  0  0  0  0
    7.0222   -5.5080    0.0000 C   0  0  0  0  0  0  0  0  0  0  0  0
    7.7367   -5.0955    0.0000 O   0  0  0  0  0  0  0  0  0  0  0  0
    9.1656   -5.0955    0.0000 C   0  0  0  0  0  0  0  0  0  0  0  0
    9.1656   -4.2705    0.0000 C   0  0  0  0  0  0  0  0  0  0  0  0
    9.8801   -3.8580    0.0000 C   0  0  0  0  0  0  0  0  0  0  0  0
   10.5946   -4.2705    0.0000 C   0  0  0  0  0  0  0  0  0  0  0  0
   10.5946   -5.0955    0.0000 C   0  0  0  0  0  0  0  0  0  0  0  0
    9.8801   -5.5080    0.0000 C   0  0  0  0  0  0  0  0  0  0  0  0
    4.8788   -6.7455    0.0000 O   0  0  0  0  0  0  0  0  0  0  0  0
    4.1643   -6.3330    0.0000 C   0  0  0  0  0  0  0  0  0  0  0  0
    4.8788   -5.0955    0.0000 O   0  0  0  0  0  0  0  0  0  0  0  0
    6.3078   -7.5705    0.0000 O   0  0  0  0  0  0  0  0  0  0  0  0
  1  2  2  0  0  0  0
  2  3  1  0  0  0  0
  3  4  2  0  0  0  0
  3  5  1  0  0  0  0
  5  6  1  0  0  0  0
  6  7  2  0  0  0  0
  7  8  1  0  0  0  0
  8  9  2  0  0  0  0
  9 10  1  0  0  0  0
  5 10  2  0  0  0  0
 10 11  1  0  0  0  0
  1 11  1  0  0  0  0
  1 12  1  0  0  0  0
 12 13  1  0  0  0  0
 13 14  2  0  0  0  0
 14 15  1  0  0  0  0
 15 16  2  0  0  0  0
 16 17  1  0  0  0  0
 12 17  2  0  0  0  0
 18 19  1  0  0  0  0
  7 18  1  0  0  0  0
  8 20  1  0  0  0  0
  6 21  1  0  0  0  0
M  END
>  <cdx:fragmentId>
16931

$$$$
