320386.cdx
  Mrv1902 05222410252D          

 37 42  0  0  0  0            999 V2000
    8.7082   -4.2595    0.0000 O   0  0  0  0  0  0  0  0  0  0  0  0
    5.8504   -4.2884    0.0000 O   0  0  0  0  0  0  0  0  0  0  0  0
   10.1620   -6.7200    0.0000 C   0  0  0  0  0  0  0  0  0  0  0  0
    7.2793   -4.2740    0.0000 O   0  0  0  0  0  0  0  0  0  0  0  0
    8.0146   -6.3291    0.0000 C   0  0  0  0  0  0  0  0  0  0  0  0
    7.3043   -6.7488    0.0000 C   0  0  0  0  0  0  0  0  0  0  0  0
    6.5857   -6.3436    0.0000 C   0  0  0  0  0  0  0  0  0  0  0  0
    5.8754   -6.7633    0.0000 C   0  0  0  0  0  0  0  0  0  0  0  0
    5.1568   -6.3580    0.0000 C   0  0  0  0  0  0  0  0  0  0  0  0
    5.1485   -5.5330    0.0000 C   0  0  0  0  0  0  0  0  0  0  0  0
    5.8588   -5.1133    0.0000 C   0  0  0  0  0  0  0  0  0  0  0  0
    6.5774   -5.5186    0.0000 C   0  0  0  0  0  0  0  0  0  0  0  0
    7.2876   -5.0989    0.0000 C   0  0  0  0  0  0  0  0  0  0  0  0
    8.0062   -5.5042    0.0000 C   0  0  0  0  0  0  0  0  0  0  0  0
    8.7165   -5.0845    0.0000 C   0  0  0  0  0  0  0  0  0  0  0  0
    9.4351   -5.4897    0.0000 C   0  0  0  0  0  0  0  0  0  0  0  0
    9.4434   -6.3147    0.0000 C   0  0  0  0  0  0  0  0  0  0  0  0
    8.7332   -6.7344    0.0000 C   0  0  0  0  0  0  0  0  0  0  0  0
    8.7665  -10.0342    0.0000 O   0  0  0  0  0  0  0  0  0  0  0  0
   10.1704   -7.5449    0.0000 O   0  0  0  0  0  0  0  0  0  0  0  0
    5.9088  -10.0631    0.0000 O   0  0  0  0  0  0  0  0  0  0  0  0
    4.4549   -7.6027    0.0000 C   0  0  0  0  0  0  0  0  0  0  0  0
    7.3376  -10.0487    0.0000 O   0  0  0  0  0  0  0  0  0  0  0  0
    8.0396   -8.8040    0.0000 C   0  0  0  0  0  0  0  0  0  0  0  0
    7.3293   -9.2237    0.0000 C   0  0  0  0  0  0  0  0  0  0  0  0
    6.6107   -8.8184    0.0000 C   0  0  0  0  0  0  0  0  0  0  0  0
    5.9004   -9.2381    0.0000 C   0  0  0  0  0  0  0  0  0  0  0  0
    5.1818   -8.8329    0.0000 C   0  0  0  0  0  0  0  0  0  0  0  0
    5.1735   -8.0079    0.0000 C   0  0  0  0  0  0  0  0  0  0  0  0
    5.8838   -7.5882    0.0000 C   0  0  0  0  0  0  0  0  0  0  0  0
    6.6024   -7.9935    0.0000 C   0  0  0  0  0  0  0  0  0  0  0  0
    7.3126   -7.5738    0.0000 C   0  0  0  0  0  0  0  0  0  0  0  0
    8.0312   -7.9791    0.0000 C   0  0  0  0  0  0  0  0  0  0  0  0
    8.7415   -7.5594    0.0000 C   0  0  0  0  0  0  0  0  0  0  0  0
    9.4601   -7.9646    0.0000 C   0  0  0  0  0  0  0  0  0  0  0  0
    9.4684   -8.7896    0.0000 C   0  0  0  0  0  0  0  0  0  0  0  0
    8.7582   -9.2093    0.0000 C   0  0  0  0  0  0  0  0  0  0  0  0
 32  6  1  0  0  0  0
 15  1  1  0  0  0  0
 11  2  1  0  0  0  0
 17  3  1  0  0  0  0
 13  4  2  0  0  0  0
 18  5  2  0  0  0  0
 14  5  1  0  0  0  0
  6  5  1  0  0  0  0
  7  6  1  0  0  0  0
 12  7  2  0  0  0  0
  8  7  1  0  0  0  0
  9  8  2  0  0  0  0
 10  9  1  0  0  0  0
 11 10  2  0  0  0  0
 12 11  1  0  0  0  0
 13 12  1  0  0  0  0
 14 13  1  0  0  0  0
 15 14  2  0  0  0  0
 16 15  1  0  0  0  0
 17 16  2  0  0  0  0
 18 17  1  0  0  0  0
 37 19  1  0  0  0  0
 35 20  1  0  0  0  0
 27 21  1  0  0  0  0
 29 22  1  0  0  0  0
 25 23  2  0  0  0  0
 37 24  2  0  0  0  0
 33 24  1  0  0  0  0
 25 24  1  0  0  0  0
 26 25  1  0  0  0  0
 31 26  2  0  0  0  0
 27 26  1  0  0  0  0
 28 27  2  0  0  0  0
 29 28  1  0  0  0  0
 30 29  2  0  0  0  0
 31 30  1  0  0  0  0
 32 31  1  0  0  0  0
 33 32  1  0  0  0  0
 34 33  2  0  0  0  0
 35 34  1  0  0  0  0
 36 35  2  0  0  0  0
 37 36  1  0  0  0  0
M  END
>  <cdx:fragmentId>
17375

$$$$
