320370.cdx
  Mrv1902 05222410232D          

 30 32  0  0  0  0            999 V2000
    7.2747  -10.5068    0.0000 O   0  0  0  0  0  0  0  0  0  0  0  0
    6.5574  -10.9144    0.0000 C   0  0  1  0  0  0  0  0  0  0  0  0
    6.5518  -11.7394    0.0000 C   0  0  2  0  0  0  0  0  0  0  0  0
    7.2634  -12.1568    0.0000 C   0  0  1  0  0  0  0  0  0  0  0  0
    7.9807  -11.7492    0.0000 C   0  0  2  0  0  0  0  0  0  0  0  0
    7.9863  -10.9242    0.0000 C   0  0  2  0  0  0  0  0  0  0  0  0
    5.8345  -12.1470    0.0000 O   0  0  0  0  0  0  0  0  0  0  0  0
    7.2577  -12.9818    0.0000 O   0  0  0  0  0  0  0  0  0  0  0  0
    8.6923  -12.1666    0.0000 O   0  0  0  0  0  0  0  0  0  0  0  0
    8.7036  -10.5166    0.0000 O   0  0  0  0  0  0  0  0  0  0  0  0
    9.4152  -10.9340    0.0000 C   0  0  0  0  0  0  0  0  0  0  0  0
   10.1325  -10.5264    0.0000 C   0  0  0  0  0  0  0  0  0  0  0  0
   10.8441  -10.9438    0.0000 C   0  0  0  0  0  0  0  0  0  0  0  0
   11.5614  -10.5362    0.0000 C   0  0  0  0  0  0  0  0  0  0  0  0
   11.5671   -9.7112    0.0000 C   0  0  0  0  0  0  0  0  0  0  0  0
   12.2844   -9.3036    0.0000 C   0  0  0  0  0  0  0  0  0  0  0  0
   12.9960   -9.7210    0.0000 C   0  0  0  0  0  0  0  0  0  0  0  0
   12.9903  -10.5460    0.0000 C   0  0  0  0  0  0  0  0  0  0  0  0
   12.2731  -10.9536    0.0000 C   0  0  0  0  0  0  0  0  0  0  0  0
    5.8458  -10.4970    0.0000 C   0  0  0  0  0  0  0  0  0  0  0  0
    5.1285  -10.9046    0.0000 O   0  0  0  0  0  0  0  0  0  0  0  0
    3.6609  -10.8176    0.0000 O   0  0  0  0  0  0  0  0  0  0  0  0
    4.4169  -10.4872    0.0000 C   0  0  2  0  0  0  0  0  0  0  0  0
    4.3363   -9.6662    0.0000 C   0  0  1  0  0  0  0  0  0  0  0  0
    3.5305   -9.4891    0.0000 C   0  0  2  0  0  0  0  0  0  0  0  0
    3.1131  -10.2008    0.0000 C   0  0  2  0  0  0  0  0  0  0  0  0
    2.2921  -10.2814    0.0000 C   0  0  0  0  0  0  0  0  0  0  0  0
    1.8117   -9.6106    0.0000 O   0  0  0  0  0  0  0  0  0  0  0  0
    3.2001   -8.7332    0.0000 O   0  0  0  0  0  0  0  0  0  0  0  0
    4.9531   -9.1184    0.0000 O   0  0  0  0  0  0  0  0  0  0  0  0
  1  2  1  0  0  0  0
  2  3  1  0  0  0  0
  3  4  1  0  0  0  0
  4  5  1  0  0  0  0
  5  6  1  0  0  0  0
  1  6  1  0  0  0  0
  3  7  1  6  0  0  0
  4  8  1  1  0  0  0
  5  9  1  6  0  0  0
 11 12  1  0  0  0  0
 12 13  2  0  0  0  0
 10 11  1  0  0  0  0
 14 15  1  0  0  0  0
 15 16  2  0  0  0  0
 16 17  1  0  0  0  0
 17 18  2  0  0  0  0
 18 19  1  0  0  0  0
 14 19  2  0  0  0  0
 13 14  1  0  0  0  0
  6 10  1  1  0  0  0
 22 23  1  0  0  0  0
 23 24  1  0  0  0  0
 24 25  1  0  0  0  0
 25 26  1  0  0  0  0
 22 26  1  0  0  0  0
 27 28  1  0  0  0  0
 26 27  1  1  0  0  0
 25 29  1  6  0  0  0
 24 30  1  1  0  0  0
 23 21  1  6  0  0  0
 20 21  1  0  0  0  0
  2 20  1  1  0  0  0
M  END
>  <cdx:groupId>
44767

>  <cdx:fragmentId>
44704

$$$$
