320385.cdx
  Mrv1902 05222410252D          

 37 42  0  0  0  0            999 V2000
    8.3382   -5.2041    0.0000 C   0  0  0  0  0  0  0  0  0  0  0  0
    9.0527   -5.6166    0.0000 C   0  0  0  0  0  0  0  0  0  0  0  0
    9.0527   -6.4416    0.0000 C   0  0  0  0  0  0  0  0  0  0  0  0
    8.3382   -6.8541    0.0000 C   0  0  0  0  0  0  0  0  0  0  0  0
    7.6238   -6.4416    0.0000 C   0  0  0  0  0  0  0  0  0  0  0  0
    6.9093   -6.8541    0.0000 C   0  0  0  0  0  0  0  0  0  0  0  0
    6.1948   -6.4416    0.0000 C   0  0  0  0  0  0  0  0  0  0  0  0
    5.4803   -6.8541    0.0000 C   0  0  0  0  0  0  0  0  0  0  0  0
    4.7659   -6.4416    0.0000 C   0  0  0  0  0  0  0  0  0  0  0  0
    4.7659   -5.6166    0.0000 C   0  0  0  0  0  0  0  0  0  0  0  0
    5.4803   -5.2041    0.0000 C   0  0  0  0  0  0  0  0  0  0  0  0
    6.1948   -5.6166    0.0000 C   0  0  0  0  0  0  0  0  0  0  0  0
    6.9093   -5.2041    0.0000 C   0  0  0  0  0  0  0  0  0  0  0  0
    7.6238   -5.6166    0.0000 C   0  0  0  0  0  0  0  0  0  0  0  0
    6.9093   -4.3791    0.0000 O   0  0  0  0  0  0  0  0  0  0  0  0
    9.7672   -6.8541    0.0000 C   0  0  0  0  0  0  0  0  0  0  0  0
    5.4803   -4.3791    0.0000 O   0  0  0  0  0  0  0  0  0  0  0  0
    8.3382   -4.3791    0.0000 O   0  0  0  0  0  0  0  0  0  0  0  0
    8.3382   -7.6791    0.0000 C   0  0  0  0  0  0  0  0  0  0  0  0
    9.0527   -8.0916    0.0000 C   0  0  0  0  0  0  0  0  0  0  0  0
    9.0527   -8.9166    0.0000 C   0  0  0  0  0  0  0  0  0  0  0  0
    8.3382   -9.3291    0.0000 C   0  0  0  0  0  0  0  0  0  0  0  0
    7.6238   -8.9166    0.0000 C   0  0  0  0  0  0  0  0  0  0  0  0
    6.9093   -9.3291    0.0000 C   0  0  0  0  0  0  0  0  0  0  0  0
    6.1948   -8.9166    0.0000 C   0  0  0  0  0  0  0  0  0  0  0  0
    5.4803   -9.3291    0.0000 C   0  0  0  0  0  0  0  0  0  0  0  0
    4.7659   -8.9166    0.0000 C   0  0  0  0  0  0  0  0  0  0  0  0
    4.7659   -8.0916    0.0000 C   0  0  0  0  0  0  0  0  0  0  0  0
    5.4803   -7.6791    0.0000 C   0  0  0  0  0  0  0  0  0  0  0  0
    6.1948   -8.0916    0.0000 C   0  0  0  0  0  0  0  0  0  0  0  0
    6.9093   -7.6791    0.0000 C   0  0  0  0  0  0  0  0  0  0  0  0
    7.6238   -8.0916    0.0000 C   0  0  0  0  0  0  0  0  0  0  0  0
    6.9093  -10.1541    0.0000 O   0  0  0  0  0  0  0  0  0  0  0  0
    9.7672   -7.6791    0.0000 C   0  0  0  0  0  0  0  0  0  0  0  0
   10.4816   -8.0916    0.0000 O   0  0  0  0  0  0  0  0  0  0  0  0
    5.4803  -10.1541    0.0000 O   0  0  0  0  0  0  0  0  0  0  0  0
    8.3382  -10.1541    0.0000 O   0  0  0  0  0  0  0  0  0  0  0  0
  1  2  1  0  0  0  0
  2  3  2  0  0  0  0
  3  4  1  0  0  0  0
  4  5  2  0  0  0  0
  5  6  1  0  0  0  0
  6  7  1  0  0  0  0
  7  8  1  0  0  0  0
  8  9  2  0  0  0  0
  9 10  1  0  0  0  0
 10 11  2  0  0  0  0
 11 12  1  0  0  0  0
  7 12  2  0  0  0  0
 12 13  1  0  0  0  0
 13 14  1  0  0  0  0
  5 14  1  0  0  0  0
  1 14  2  0  0  0  0
 13 15  2  0  0  0  0
  3 16  1  0  0  0  0
 11 17  1  0  0  0  0
  1 18  1  0  0  0  0
 19 20  1  0  0  0  0
 20 21  2  0  0  0  0
 21 22  1  0  0  0  0
 22 23  2  0  0  0  0
 23 24  1  0  0  0  0
 24 25  1  0  0  0  0
 25 26  1  0  0  0  0
 26 27  2  0  0  0  0
 27 28  1  0  0  0  0
 28 29  2  0  0  0  0
 29 30  1  0  0  0  0
 25 30  2  0  0  0  0
 30 31  1  0  0  0  0
 31 32  1  0  0  0  0
 23 32  1  0  0  0  0
 19 32  2  0  0  0  0
 24 33  2  0  0  0  0
 34 35  1  0  0  0  0
 20 34  1  0  0  0  0
 26 36  1  0  0  0  0
 22 37  1  0  0  0  0
  6 31  1  0  0  0  0
M  END
>  <cdx:fragmentId>
17258

$$$$
