5320464.cdx
  Mrv1902 05222410182D          

 23 25  0  0  0  0            999 V2000
   17.2120   -9.6140    0.0000 C   0  0  0  0  0  0  0  0  0  0  0  0
   17.9265   -9.2015    0.0000 C   0  0  0  0  0  0  0  0  0  0  0  0
   17.9265   -8.3765    0.0000 C   0  0  0  0  0  0  0  0  0  0  0  0
   17.2120   -7.9640    0.0000 C   0  0  0  0  0  0  0  0  0  0  0  0
   16.4975   -8.3765    0.0000 C   0  0  0  0  0  0  0  0  0  0  0  0
   16.4975   -9.2015    0.0000 C   0  0  0  0  0  0  0  0  0  0  0  0
   17.2120  -10.4390    0.0000 O   0  0  0  0  0  0  0  0  0  0  0  0
   17.2120   -7.1390    0.0000 O   0  0  0  0  0  0  0  0  0  0  0  0
   18.6409   -7.9640    0.0000 O   0  0  0  0  0  0  0  0  0  0  0  0
   19.3554   -8.3765    0.0000 C   0  0  0  0  0  0  0  0  0  0  0  0
   18.6409   -9.6140    0.0000 O   0  0  0  0  0  0  0  0  0  0  0  0
   19.3554   -9.2015    0.0000 C   0  0  0  0  0  0  0  0  0  0  0  0
   15.7830   -7.1390    0.0000 C   0  0  0  0  0  0  0  0  0  0  0  0
   15.7830   -7.9640    0.0000 C   0  0  0  0  0  0  0  0  0  0  0  0
   15.0686   -8.3765    0.0000 C   0  0  0  0  0  0  0  0  0  0  0  0
   14.3541   -7.9640    0.0000 C   0  0  0  0  0  0  0  0  0  0  0  0
   14.3541   -7.1390    0.0000 C   0  0  0  0  0  0  0  0  0  0  0  0
   15.0686   -6.7265    0.0000 O   0  0  0  0  0  0  0  0  0  0  0  0
   13.6396   -6.7265    0.0000 C   0  0  0  0  0  0  0  0  0  0  0  0
   12.9252   -7.1390    0.0000 C   0  0  0  0  0  0  0  0  0  0  0  0
   12.9252   -7.9640    0.0000 C   0  0  0  0  0  0  0  0  0  0  0  0
   13.6396   -8.3765    0.0000 C   0  0  0  0  0  0  0  0  0  0  0  0
   12.2107   -6.7265    0.0000 O   0  0  0  0  0  0  0  0  0  0  0  0
  1  2  1  0  0  0  0
  2  3  2  0  0  0  0
  3  4  1  0  0  0  0
  4  5  1  0  0  0  0
  5  6  2  0  0  0  0
  1  6  1  0  0  0  0
  1  7  2  0  0  0  0
  4  8  2  0  0  0  0
  9 10  1  0  0  0  0
  3  9  1  0  0  0  0
 11 12  1  0  0  0  0
  2 11  1  0  0  0  0
 13 14  1  0  0  0  0
 14 15  1  0  0  0  0
 15 16  1  0  0  0  0
 16 17  1  0  0  0  0
 17 18  1  0  0  0  0
 13 18  1  0  0  0  0
 19 20  1  0  0  0  0
 20 21  2  0  0  0  0
 21 22  1  0  0  0  0
 16 22  2  0  0  0  0
 17 19  2  0  0  0  0
 20 23  1  0  0  0  0
  5 14  1  0  0  0  0
M  END
>  <cdx:fragmentId>
17606

$$$$
