11320433.cdx
  Mrv1902 05222410232D          

 63 70  0  0  0  0            999 V2000
   10.2518  -13.6122    0.0000 C   0  0  0  0  0  0  0  0  0  0  0  0
   10.2518  -12.7872    0.0000 C   0  0  0  0  0  0  0  0  0  0  0  0
    9.5374  -12.3747    0.0000 C   0  0  0  0  0  0  0  0  0  0  0  0
    9.5374  -11.5497    0.0000 C   0  0  0  0  0  0  0  0  0  0  0  0
   10.2518  -11.1372    0.0000 C   0  0  0  0  0  0  0  0  0  0  0  0
   10.9663  -11.5497    0.0000 C   0  0  0  0  0  0  0  0  0  0  0  0
   10.9663  -12.3747    0.0000 C   0  0  0  0  0  0  0  0  0  0  0  0
    9.5374  -14.0247    0.0000 O   0  0  0  0  0  0  0  0  0  0  0  0
   10.9663  -14.0247    0.0000 O   0  0  0  0  0  0  0  0  0  0  0  0
   10.9663  -16.4997    0.0000 C   0  0  2  0  0  0  0  0  0  0  0  0
   11.6808  -16.9122    0.0000 O   0  0  0  0  0  0  0  0  0  0  0  0
   11.6808  -16.0872    0.0000 C   0  0  1  0  0  0  0  0  0  0  0  0
   12.4654  -16.3421    0.0000 C   0  0  0  0  0  0  0  0  0  0  0  0
   12.9503  -15.6747    0.0000 C   0  0  0  0  0  0  0  0  0  0  0  0
   12.4654  -15.0072    0.0000 C   0  0  2  0  0  0  0  0  0  0  0  0
   11.6808  -15.2622    0.0000 C   0  0  1  0  0  0  0  0  0  0  0  0
   10.9663  -14.8497    0.0000 C   0  0  1  0  0  0  0  0  0  0  0  0
   10.2518  -15.2622    0.0000 C   0  0  2  0  0  0  0  0  0  0  0  0
   10.2518  -16.0872    0.0000 C   0  0  2  0  0  0  0  0  0  0  0  0
    9.5374  -16.4997    0.0000 C   0  0  1  0  0  0  0  0  0  0  0  0
    8.8229  -16.0872    0.0000 C   0  0  0  0  0  0  0  0  0  0  0  0
    8.1084  -16.4997    0.0000 C   0  0  0  0  0  0  0  0  0  0  0  0
    8.1084  -17.3247    0.0000 C   0  0  1  0  0  0  0  0  0  0  0  0
    8.8229  -17.7372    0.0000 C   0  0  0  0  0  0  0  0  0  0  0  0
    9.5374  -17.3247    0.0000 C   0  0  2  0  0  0  0  0  0  0  0  0
   10.2518  -17.7372    0.0000 C   0  0  0  0  0  0  0  0  0  0  0  0
   10.9663  -17.3247    0.0000 C   0  0  0  0  0  0  0  0  0  0  0  0
    9.1087  -14.6022    0.0000 O   0  0  0  0  0  0  0  0  0  0  0  0
    8.3942  -15.0147    0.0000 C   0  0  0  0  0  0  0  0  0  0  0  0
    7.6797  -14.6022    0.0000 C   0  0  0  0  0  0  0  0  0  0  0  0
    6.9653  -15.0147    0.0000 C   0  0  0  0  0  0  0  0  0  0  0  0
    6.2508  -14.6022    0.0000 C   0  0  0  0  0  0  0  0  0  0  0  0
    8.3942  -15.8397    0.0000 O   0  0  0  0  0  0  0  0  0  0  0  0
    7.6797  -13.7772    0.0000 C   0  0  0  0  0  0  0  0  0  0  0  0
    9.5374  -15.6747    0.0000 C   0  0  0  0  0  0  0  0  0  0  0  0
   11.7670  -14.4417    0.0000 C   0  0  0  0  0  0  0  0  0  0  0  0
    7.3939  -17.7372    0.0000 O   0  0  0  0  0  0  0  0  0  0  0  0
    6.6795  -16.4997    0.0000 O   0  0  0  0  0  0  0  0  0  0  0  0
    6.6795  -17.3247    0.0000 C   0  0  2  0  0  0  0  0  0  0  0  0
    5.9650  -17.7372    0.0000 C   0  0  0  0  0  0  0  0  0  0  0  0
    5.2505  -17.3247    0.0000 C   0  0  2  0  0  0  0  0  0  0  0  0
    5.2505  -16.4997    0.0000 C   0  0  1  0  0  0  0  0  0  0  0  0
    5.9650  -16.0872    0.0000 C   0  0  1  0  0  0  0  0  0  0  0  0
    5.9650  -15.2622    0.0000 C   0  0  0  0  0  0  0  0  0  0  0  0
    4.5361  -17.7372    0.0000 O   0  0  0  0  0  0  0  0  0  0  0  0
    4.5361  -18.5622    0.0000 C   0  0  0  0  0  0  0  0  0  0  0  0
    4.5361  -16.0872    0.0000 O   0  0  0  0  0  0  0  0  0  0  0  0
    3.8216  -17.3247    0.0000 O   0  0  0  0  0  0  0  0  0  0  0  0
    3.8216  -16.4997    0.0000 C   0  0  2  0  0  0  0  0  0  0  0  0
    3.1071  -16.0872    0.0000 C   0  0  1  0  0  0  0  0  0  0  0  0
    2.3927  -16.4997    0.0000 C   0  0  1  0  0  0  0  0  0  0  0  0
    2.3927  -17.3247    0.0000 C   0  0  1  0  0  0  0  0  0  0  0  0
    3.1071  -17.7372    0.0000 C   0  0  1  0  0  0  0  0  0  0  0  0
    3.1071  -18.5622    0.0000 C   0  0  0  0  0  0  0  0  0  0  0  0
    1.6782  -16.0872    0.0000 O   0  0  0  0  0  0  0  0  0  0  0  0
    0.9637  -16.4997    0.0000 C   0  0  0  0  0  0  0  0  0  0  0  0
    1.6782  -17.7372    0.0000 O   0  0  0  0  0  0  0  0  0  0  0  0
    3.1071  -15.2622    0.0000 O   0  0  0  0  0  0  0  0  0  0  0  0
   12.7203  -14.2226    0.0000 C   0  0  0  0  0  0  0  0  0  0  0  0
   12.1683  -13.6095    0.0000 O   0  0  0  0  0  0  0  0  0  0  0  0
   13.5273  -14.0511    0.0000 C   0  0  0  0  0  0  0  0  0  0  0  0
   10.2518  -16.9122    0.0000 H   0  0  0  0  0  0  0  0  0  0  0  0
    9.5374  -18.1497    0.0000 H   0  0  0  0  0  0  0  0  0  0  0  0
  1  2  1  0  0  0  0
  2  3  1  0  0  0  0
  3  4  2  0  0  0  0
  4  5  1  0  0  0  0
  5  6  2  0  0  0  0
  6  7  1  0  0  0  0
  2  7  2  0  0  0  0
  1  8  2  0  0  0  0
  1  9  1  0  0  0  0
 10 11  1  1  0  0  0
 12 11  1  1  0  0  0
 12 13  1  0  0  0  0
 13 14  1  0  0  0  0
 14 15  1  0  0  0  0
 15 16  1  0  0  0  0
 16 17  1  0  0  0  0
 17 18  1  0  0  0  0
 18 19  1  0  0  0  0
 19 20  1  0  0  0  0
 20 21  1  0  0  0  0
 21 22  1  0  0  0  0
 22 23  1  0  0  0  0
 23 24  1  0  0  0  0
 24 25  1  0  0  0  0
 25 26  1  0  0  0  0
 26 27  1  0  0  0  0
 10 27  1  0  0  0  0
 10 19  1  0  0  0  0
 20 25  1  0  0  0  0
 12 16  1  0  0  0  0
 10 12  1  0  0  0  0
 29 30  1  0  0  0  0
 30 31  1  0  0  0  0
 31 32  1  0  0  0  0
 29 33  2  0  0  0  0
 28 29  1  0  0  0  0
 30 34  1  0  0  0  0
 18 28  1  6  0  0  0
 20 35  1  1  0  0  0
 16 36  1  1  0  0  0
 38 39  1  0  0  0  0
 39 40  1  0  0  0  0
 40 41  1  0  0  0  0
 41 42  1  0  0  0  0
 42 43  1  0  0  0  0
 38 43  1  0  0  0  0
 43 44  1  1  0  0  0
 45 46  1  0  0  0  0
 41 45  1  1  0  0  0
 48 49  1  0  0  0  0
 49 50  1  0  0  0  0
 50 51  1  0  0  0  0
 51 52  1  0  0  0  0
 52 53  1  0  0  0  0
 48 53  1  0  0  0  0
 53 54  1  6  0  0  0
 55 56  1  0  0  0  0
 51 55  1  1  0  0  0
 52 57  1  1  0  0  0
 50 58  1  1  0  0  0
 49 47  1  6  0  0  0
 42 47  1  6  0  0  0
 39 37  1  1  0  0  0
 23 37  1  1  0  0  0
 59 60  2  0  0  0  0
 59 61  1  0  0  0  0
 15 59  1  6  0  0  0
 17  9  1  1  0  0  0
 19 62  1  6  0  0  0
 25 63  1  6  0  0  0
M  END
>  <cdx:groupId>
70294

>  <cdx:fragmentId>
70119

$$$$
