320625.cdx
  Mrv1902 05222410232D          

 34 36  0  0  0  0            999 V2000
    6.6160   -9.9882    0.0000 C   0  0  0  0  0  0  0  0  0  0  0  0
    6.6241  -10.8131    0.0000 C   0  0  0  0  0  0  0  0  0  0  0  0
    5.9137  -11.2326    0.0000 C   0  0  0  0  0  0  0  0  0  0  0  0
    5.8976   -9.5826    0.0000 O   0  0  0  0  0  0  0  0  0  0  0  0
    7.3265   -9.5687    0.0000 O   0  0  0  0  0  0  0  0  0  0  0  0
    5.9217  -12.0575    0.0000 C   0  0  0  0  0  0  0  0  0  0  0  0
    5.2113  -12.4770    0.0000 C   0  0  0  0  0  0  0  0  0  0  0  0
    5.2194  -13.3019    0.0000 C   0  0  0  0  0  0  0  0  0  0  0  0
    5.9378  -13.7075    0.0000 C   0  0  0  0  0  0  0  0  0  0  0  0
    6.6482  -13.2880    0.0000 C   0  0  0  0  0  0  0  0  0  0  0  0
    6.6402  -12.4630    0.0000 C   0  0  0  0  0  0  0  0  0  0  0  0
    5.9459  -14.5324    0.0000 O   0  0  0  0  0  0  0  0  0  0  0  0
    4.5090  -13.7214    0.0000 O   0  0  0  0  0  0  0  0  0  0  0  0
    7.3023   -7.0938    0.0000 O   0  0  0  0  0  0  0  0  0  0  0  0
    8.0208   -7.4993    0.0000 C   0  0  2  0  0  0  0  0  0  0  0  0
    8.0288   -8.3243    0.0000 C   0  0  1  0  0  0  0  0  0  0  0  0
    7.3184   -8.7437    0.0000 C   0  0  2  0  0  0  0  0  0  0  0  0
    6.5999   -8.3382    0.0000 C   0  0  1  0  0  0  0  0  0  0  0  0
    6.5919   -7.5133    0.0000 C   0  0  1  0  0  0  0  0  0  0  0  0
    5.8734   -7.1078    0.0000 C   0  0  0  0  0  0  0  0  0  0  0  0
    5.1590   -7.5203    0.0000 O   0  0  0  0  0  0  0  0  0  0  0  0
    5.8895   -8.7577    0.0000 O   0  0  0  0  0  0  0  0  0  0  0  0
    8.7473   -8.7298    0.0000 O   0  0  0  0  0  0  0  0  0  0  0  0
   13.0178   -7.0380    0.0000 O   0  0  0  0  0  0  0  0  0  0  0  0
   13.0339   -8.6880    0.0000 O   0  0  0  0  0  0  0  0  0  0  0  0
   10.8866   -8.2964    0.0000 C   0  0  0  0  0  0  0  0  0  0  0  0
   11.6050   -8.7019    0.0000 C   0  0  0  0  0  0  0  0  0  0  0  0
   12.3154   -8.2825    0.0000 C   0  0  0  0  0  0  0  0  0  0  0  0
   12.3074   -7.4575    0.0000 C   0  0  0  0  0  0  0  0  0  0  0  0
   11.5889   -7.0520    0.0000 C   0  0  0  0  0  0  0  0  0  0  0  0
   10.8785   -7.4714    0.0000 C   0  0  0  0  0  0  0  0  0  0  0  0
   10.1600   -7.0659    0.0000 C   0  0  0  0  0  0  0  0  0  0  0  0
    9.4496   -7.4854    0.0000 C   0  0  0  0  0  0  0  0  0  0  0  0
    8.7312   -7.0799    0.0000 O   0  0  0  0  0  0  0  0  0  0  0  0
 32 31  1  0  0  0  0
 29 24  1  0  0  0  0
 28 25  1  0  0  0  0
 31 26  2  0  0  0  0
 27 26  1  0  0  0  0
 28 27  2  0  0  0  0
 29 28  1  0  0  0  0
 30 29  2  0  0  0  0
 31 30  1  0  0  0  0
 34 33  1  0  0  0  0
 33 32  1  0  0  0  0
  1  2  1  0  0  0  0
  2  3  2  0  0  0  0
  1  4  2  0  0  0  0
  1  5  1  0  0  0  0
  6  7  1  0  0  0  0
  7  8  2  0  0  0  0
  8  9  1  0  0  0  0
  9 10  2  0  0  0  0
 10 11  1  0  0  0  0
  6 11  2  0  0  0  0
  9 12  1  0  0  0  0
  8 13  1  0  0  0  0
  3  6  1  0  0  0  0
 14 15  1  0  0  0  0
 15 16  1  0  0  0  0
 16 17  1  0  0  0  0
 17 18  1  0  0  0  0
 18 19  1  0  0  0  0
 14 19  1  0  0  0  0
 20 21  1  0  0  0  0
 19 20  1  1  0  0  0
 18 22  1  6  0  0  0
 16 23  1  6  0  0  0
 15 34  1  1  0  0  0
 17  5  1  1  0  0  0
M  END
>  <cdx:fragmentId>
18045

$$$$
