320618.cdx
  Mrv1902 05222410232D          

 21 23  0  0  0  0            999 V2000
    9.4954   -8.2491    0.0000 C   0  0  0  0  0  0  0  0  0  0  0  0
    8.7809   -7.8366    0.0000 C   0  0  0  0  0  0  0  0  0  0  0  0
    8.7809   -7.0116    0.0000 C   0  0  0  0  0  0  0  0  0  0  0  0
    9.4954   -6.5991    0.0000 C   0  0  0  0  0  0  0  0  0  0  0  0
   10.2099   -7.8366    0.0000 C   0  0  0  0  0  0  0  0  0  0  0  0
   10.2099   -7.0116    0.0000 C   0  0  0  0  0  0  0  0  0  0  0  0
   10.9945   -6.7566    0.0000 O   0  0  0  0  0  0  0  0  0  0  0  0
   11.4794   -7.4241    0.0000 C   0  0  0  0  0  0  0  0  0  0  0  0
   10.9945   -8.0915    0.0000 O   0  0  0  0  0  0  0  0  0  0  0  0
    3.7796   -6.5991    0.0000 C   0  0  0  0  0  0  0  0  0  0  0  0
    3.0651   -7.0116    0.0000 C   0  0  0  0  0  0  0  0  0  0  0  0
    3.0651   -7.8366    0.0000 C   0  0  0  0  0  0  0  0  0  0  0  0
    3.7796   -8.2491    0.0000 C   0  0  0  0  0  0  0  0  0  0  0  0
    4.4941   -7.8366    0.0000 C   0  0  0  0  0  0  0  0  0  0  0  0
    4.4941   -7.0116    0.0000 N   0  0  0  0  0  0  0  0  0  0  0  0
    5.2086   -5.7741    0.0000 O   0  0  0  0  0  0  0  0  0  0  0  0
    8.0664   -6.5991    0.0000 C   0  0  0  0  0  0  0  0  0  0  0  0
    7.3520   -7.0116    0.0000 C   0  0  0  0  0  0  0  0  0  0  0  0
    6.6375   -6.5991    0.0000 C   0  0  0  0  0  0  0  0  0  0  0  0
    5.9231   -7.0116    0.0000 C   0  0  0  0  0  0  0  0  0  0  0  0
    5.2086   -6.5991    0.0000 C   0  0  0  0  0  0  0  0  0  0  0  0
 17  3  1  0  0  0  0
  6  4  2  0  0  0  0
  5  1  2  0  0  0  0
  2  1  1  0  0  0  0
  3  2  2  0  0  0  0
  4  3  1  0  0  0  0
  9  5  1  0  0  0  0
  6  5  1  0  0  0  0
  7  6  1  0  0  0  0
  8  7  1  0  0  0  0
  9  8  1  0  0  0  0
 21 15  1  0  0  0  0
 15 10  1  0  0  0  0
 11 10  1  0  0  0  0
 12 11  1  0  0  0  0
 13 12  1  0  0  0  0
 14 13  1  0  0  0  0
 15 14  1  0  0  0  0
 21 16  2  0  0  0  0
 18 17  1  0  0  0  0
 19 18  1  0  0  0  0
 20 19  2  0  0  0  0
 21 20  1  0  0  0  0
M  END
>  <cdx:fragmentId>
17719

$$$$
