320621.cdx
  Mrv1902 05222410252D          

 20 21  0  0  0  0            999 V2000
    5.1507   -7.0405    0.0000 O   0  0  0  0  0  0  0  0  0  0  0  0
    5.1507   -7.8655    0.0000 C   0  0  0  0  0  0  0  0  0  0  0  0
    4.4362   -8.2780    0.0000 N   0  0  0  0  0  0  0  0  0  0  0  0
    3.0073   -9.1030    0.0000 C   0  0  0  0  0  0  0  0  0  0  0  0
    2.2928   -7.8655    0.0000 C   0  0  0  0  0  0  0  0  0  0  0  0
    9.4375   -7.8655    0.0000 C   0  0  0  0  0  0  0  0  0  0  0  0
   10.1520   -8.2780    0.0000 C   0  0  0  0  0  0  0  0  0  0  0  0
   10.9366   -8.0230    0.0000 O   0  0  0  0  0  0  0  0  0  0  0  0
   11.4216   -8.6905    0.0000 C   0  0  0  0  0  0  0  0  0  0  0  0
   10.9366   -9.3579    0.0000 O   0  0  0  0  0  0  0  0  0  0  0  0
   10.1520   -9.1030    0.0000 C   0  0  0  0  0  0  0  0  0  0  0  0
    9.4375   -9.5155    0.0000 C   0  0  0  0  0  0  0  0  0  0  0  0
    8.7231   -9.1030    0.0000 C   0  0  0  0  0  0  0  0  0  0  0  0
    8.7231   -8.2780    0.0000 C   0  0  0  0  0  0  0  0  0  0  0  0
    8.0086   -7.8655    0.0000 C   0  0  0  0  0  0  0  0  0  0  0  0
    7.2941   -8.2780    0.0000 C   0  0  0  0  0  0  0  0  0  0  0  0
    6.5797   -7.8655    0.0000 C   0  0  0  0  0  0  0  0  0  0  0  0
    5.8652   -8.2780    0.0000 C   0  0  0  0  0  0  0  0  0  0  0  0
    3.0073   -8.2780    0.0000 C   0  0  0  0  0  0  0  0  0  0  0  0
    3.7218   -7.8655    0.0000 C   0  0  0  0  0  0  0  0  0  0  0  0
 19  4  1  0  0  0  0
 19  5  1  0  0  0  0
 14  6  1  0  0  0  0
  7  6  2  0  0  0  0
  8  7  1  0  0  0  0
 11  7  1  0  0  0  0
  9  8  1  0  0  0  0
 10  9  1  0  0  0  0
 11 10  1  0  0  0  0
 12 11  2  0  0  0  0
 13 12  1  0  0  0  0
 14 13  2  0  0  0  0
 15 14  1  0  0  0  0
 16 15  2  0  0  0  0
 17 16  1  0  0  0  0
 18 17  2  0  0  0  0
  2 18  1  0  0  0  0
 20 19  1  0  0  0  0
  1  2  2  0  0  0  0
  2  3  1  0  0  0  0
  3 20  1  0  0  0  0
M  END
>  <cdx:fragmentId>
17771

$$$$
