320651.cdx
  Mrv1902 05222410272D          

 16 17  0  0  0  0            999 V2000
    6.0735   -7.6608    0.0000 C   0  0  0  0  0  0  0  0  0  0  0  0
    5.5886   -6.9934    0.0000 C   0  0  0  0  0  0  0  0  0  0  0  0
    6.0735   -6.3259    0.0000 C   0  0  0  0  0  0  0  0  0  0  0  0
    6.8581   -6.5808    0.0000 C   0  0  0  0  0  0  0  0  0  0  0  0
    7.5031   -6.0665    0.0000 C   0  0  0  0  0  0  0  0  0  0  0  0
    8.3075   -6.2500    0.0000 C   0  0  0  0  0  0  0  0  0  0  0  0
    8.6654   -6.9934    0.0000 C   0  0  0  0  0  0  0  0  0  0  0  0
    8.3075   -7.7366    0.0000 C   0  0  0  0  0  0  0  0  0  0  0  0
    7.5031   -7.9202    0.0000 C   0  0  0  0  0  0  0  0  0  0  0  0
    6.8581   -7.4058    0.0000 C   0  0  0  0  0  0  0  0  0  0  0  0
    6.9420   -5.4617    0.0000 O   0  0  0  0  0  0  0  0  0  0  0  0
    8.8218   -8.3817    0.0000 C   0  0  0  0  0  0  0  0  0  0  0  0
    8.5204   -9.1496    0.0000 C   0  0  0  0  0  0  0  0  0  0  0  0
    9.6376   -8.2587    0.0000 C   0  0  0  0  0  0  0  0  0  0  0  0
    7.7463   -5.2781    0.0000 C   0  0  0  0  0  0  0  0  0  0  0  0
    5.8186   -8.4454    0.0000 C   0  0  0  0  0  0  0  0  0  0  0  0
  1  2  1  0  0  0  0
  2  3  1  0  0  0  0
  3  4  1  0  0  0  0
  4  5  1  0  0  0  0
  5  6  1  0  0  0  0
  6  7  1  0  0  0  0
  7  8  1  0  0  0  0
  8  9  1  0  0  0  0
  9 10  1  0  0  0  0
  1 10  1  0  0  0  0
  4 10  1  0  0  0  0
  5 11  1  0  0  0  0
 12 13  2  0  0  0  0
 12 14  1  0  0  0  0
  8 12  1  0  0  0  0
  5 15  1  0  0  0  0
  1 16  1  0  0  0  0
M  END
>  <cdx:fragmentId>
18205

$$$$
