5320644.cdx
  Mrv1902 05222410272D          

 41 46  0  0  0  0            999 V2000
   13.3248   -7.7582    0.0000 C   0  0  0  0  0  0  0  0  0  0  0  0
   14.0394   -8.1705    0.0000 C   0  0  0  0  0  0  0  0  0  0  0  0
   13.3248   -6.9337    0.0000 C   0  0  0  0  0  0  0  0  0  0  0  0
   14.0394   -6.5214    0.0000 C   0  0  0  0  0  0  0  0  0  0  0  0
   14.7541   -6.9337    0.0000 C   0  0  0  0  0  0  0  0  0  0  0  0
   14.7541   -7.7582    0.0000 O   0  0  0  0  0  0  0  0  0  0  0  0
   14.0394   -5.6968    0.0000 C   0  0  0  0  0  0  0  0  0  0  0  0
   15.4687   -6.5214    0.0000 C   0  0  0  0  0  0  0  0  0  0  0  0
   15.4687   -5.6968    0.0000 C   0  0  0  0  0  0  0  0  0  0  0  0
   14.7541   -5.2844    0.0000 C   0  0  0  0  0  0  0  0  0  0  0  0
   12.6102   -6.5214    0.0000 O   0  0  0  0  0  0  0  0  0  0  0  0
   14.7541   -9.4074    0.0000 C   0  0  0  0  0  0  0  0  0  0  0  0
   14.0394   -8.9951    0.0000 C   0  0  0  0  0  0  0  0  0  0  0  0
   14.7541  -10.2320    0.0000 C   0  0  0  0  0  0  0  0  0  0  0  0
   14.0394  -10.6443    0.0000 C   0  0  0  0  0  0  0  0  0  0  0  0
   13.3248  -10.2320    0.0000 C   0  0  0  0  0  0  0  0  0  0  0  0
   13.3248   -9.4074    0.0000 C   0  0  0  0  0  0  0  0  0  0  0  0
   14.0394  -11.4689    0.0000 O   0  0  0  0  0  0  0  0  0  0  0  0
   16.1834   -5.2844    0.0000 O   0  0  0  0  0  0  0  0  0  0  0  0
   13.3248   -5.2844    0.0000 O   0  0  0  0  0  0  0  0  0  0  0  0
   16.8981   -6.5214    0.0000 C   0  0  0  0  0  0  0  0  0  0  0  0
   16.1834   -6.9337    0.0000 C   0  0  0  0  0  0  0  0  0  0  0  0
   17.6127   -6.9337    0.0000 C   0  0  0  0  0  0  0  0  0  0  0  0
   17.6127   -7.7582    0.0000 C   0  0  0  0  0  0  0  0  0  0  0  0
   16.8981   -8.1705    0.0000 C   0  0  0  0  0  0  0  0  0  0  0  0
   16.1834   -7.7582    0.0000 C   0  0  0  0  0  0  0  0  0  0  0  0
   16.8981   -5.6968    0.0000 O   0  0  0  0  0  0  0  0  0  0  0  0
   17.6127   -9.4074    0.0000 C   0  0  0  0  0  0  0  0  0  0  0  0
   16.8981   -8.9951    0.0000 C   0  0  0  0  0  0  0  0  0  0  0  0
   17.6127  -10.2320    0.0000 C   0  0  0  0  0  0  0  0  0  0  0  0
   16.8981  -10.6443    0.0000 C   0  0  0  0  0  0  0  0  0  0  0  0
   16.1834  -10.2320    0.0000 C   0  0  0  0  0  0  0  0  0  0  0  0
   16.1834   -9.4074    0.0000 O   0  0  0  0  0  0  0  0  0  0  0  0
   16.8981  -11.4689    0.0000 C   0  0  0  0  0  0  0  0  0  0  0  0
   15.4687  -10.6443    0.0000 C   0  0  0  0  0  0  0  0  0  0  0  0
   15.4687  -11.4689    0.0000 C   0  0  0  0  0  0  0  0  0  0  0  0
   16.1834  -11.8812    0.0000 C   0  0  0  0  0  0  0  0  0  0  0  0
   18.3273  -10.6443    0.0000 O   0  0  0  0  0  0  0  0  0  0  0  0
   14.7541  -11.8812    0.0000 O   0  0  0  0  0  0  0  0  0  0  0  0
   17.6127  -11.8812    0.0000 O   0  0  0  0  0  0  0  0  0  0  0  0
   13.2622  -11.9176    0.0000 C   0  0  0  0  0  0  0  0  0  0  0  0
  1  2  2  0  0  0  0
  1  3  1  0  0  0  0
  3  4  1  0  0  0  0
  4  5  1  0  0  0  0
  5  6  1  0  0  0  0
  2  6  1  0  0  0  0
  4  7  2  0  0  0  0
  5  8  2  0  0  0  0
  8  9  1  0  0  0  0
  9 10  2  0  0  0  0
  7 10  1  0  0  0  0
  3 11  2  0  0  0  0
 12 13  1  0  0  0  0
 12 14  2  0  0  0  0
 14 15  1  0  0  0  0
 15 16  2  0  0  0  0
 16 17  1  0  0  0  0
 13 17  2  0  0  0  0
 15 18  1  0  0  0  0
  2 13  1  0  0  0  0
  9 19  1  0  0  0  0
  7 20  1  0  0  0  0
 21 22  1  0  0  0  0
 21 23  2  0  0  0  0
 23 24  1  0  0  0  0
 24 25  2  0  0  0  0
 25 26  1  0  0  0  0
 22 26  2  0  0  0  0
 21 27  1  0  0  0  0
 28 29  2  0  0  0  0
 28 30  1  0  0  0  0
 30 31  1  0  0  0  0
 31 32  1  0  0  0  0
 32 33  1  0  0  0  0
 29 33  1  0  0  0  0
 31 34  2  0  0  0  0
 32 35  2  0  0  0  0
 35 36  1  0  0  0  0
 36 37  2  0  0  0  0
 34 37  1  0  0  0  0
 30 38  2  0  0  0  0
 36 39  1  0  0  0  0
 34 40  1  0  0  0  0
 25 29  1  0  0  0  0
  8 22  1  0  0  0  0
 18 41  1  0  0  0  0
M  END
>  <cdx:fragmentId>
18107

$$$$
