5320722.cdx
  Mrv1902 05222410282D          

  8  7  0  0  0  0            999 V2000
   14.3970   -8.6553    0.0000 C   0  0  0  0  0  0  0  0  0  0  0  0
   13.6826   -8.2428    0.0000 C   0  0  0  0  0  0  0  0  0  0  0  0
   12.9681   -8.6553    0.0000 C   0  0  0  0  0  0  0  0  0  0  0  0
   15.8260   -8.6553    0.0000 S   0  0  0  0  0  0  0  0  0  0  0  0
   15.1115   -8.2428    0.0000 S   0  0  0  0  0  0  0  0  0  0  0  0
   16.5405   -8.2428    0.0000 C   0  0  0  0  0  0  0  0  0  0  0  0
   17.2549   -8.6553    0.0000 C   0  0  0  0  0  0  0  0  0  0  0  0
   17.9694   -8.2428    0.0000 C   0  0  0  0  0  0  0  0  0  0  0  0
  1  2  1  0  0  0  0
  2  3  1  0  0  0  0
  4  5  1  0  0  0  0
  6  7  2  0  0  0  0
  7  8  1  0  0  0  0
  4  6  1  0  0  0  0
  1  5  1  0  0  0  0
M  END
>  <cdx:groupId>
18440

>  <cdx:fragmentId>
18430

$$$$
