320957.cdx
  Mrv1902 05222410202D          

 39 44  0  0  0  0            999 V2000
    6.5469   -6.6881    0.0000 C   0  0  0  0  0  0  0  0  0  0  0  0
    5.8313   -6.2774    0.0000 C   0  0  0  0  0  0  0  0  0  0  0  0
    5.8292   -5.4524    0.0000 C   0  0  0  0  0  0  0  0  0  0  0  0
    6.5426   -5.0381    0.0000 C   0  0  0  0  0  0  0  0  0  0  0  0
    7.2581   -5.4487    0.0000 C   0  0  0  0  0  0  0  0  0  0  0  0
    7.9715   -5.0344    0.0000 C   0  0  0  0  0  0  0  0  0  0  0  0
    8.6870   -5.4450    0.0000 C   0  0  0  0  0  0  0  0  0  0  0  0
    9.4004   -5.0306    0.0000 C   0  0  0  0  0  0  0  0  0  0  0  0
   10.1160   -5.4413    0.0000 C   0  0  0  0  0  0  0  0  0  0  0  0
   10.1181   -6.2663    0.0000 C   0  0  0  0  0  0  0  0  0  0  0  0
    9.4047   -6.6806    0.0000 C   0  0  0  0  0  0  0  0  0  0  0  0
    8.6892   -6.2700    0.0000 C   0  0  0  0  0  0  0  0  0  0  0  0
    7.9758   -6.6843    0.0000 C   0  0  0  0  0  0  0  0  0  0  0  0
    7.2603   -6.2737    0.0000 C   0  0  0  0  0  0  0  0  0  0  0  0
    5.1179   -6.6918    0.0000 C   0  0  0  0  0  0  0  0  0  0  0  0
    5.1201   -7.5168    0.0000 O   0  0  0  0  0  0  0  0  0  0  0  0
    4.4024   -6.2811    0.0000 O   0  0  0  0  0  0  0  0  0  0  0  0
    7.9694   -4.2094    0.0000 O   0  0  0  0  0  0  0  0  0  0  0  0
    9.3983   -4.2056    0.0000 O   0  0  0  0  0  0  0  0  0  0  0  0
    6.5404   -4.2131    0.0000 O   0  0  0  0  0  0  0  0  0  0  0  0
   10.8371   -7.9969    0.0000 O   0  0  0  0  0  0  0  0  0  0  0  0
    9.4146  -10.4756    0.0000 O   0  0  0  0  0  0  0  0  0  0  0  0
    6.5567  -10.4831    0.0000 O   0  0  0  0  0  0  0  0  0  0  0  0
    5.1214   -8.0118    0.0000 C   0  0  0  0  0  0  0  0  0  0  0  0
    7.9857  -10.4793    0.0000 O   0  0  0  0  0  0  0  0  0  0  0  0
    8.6948   -8.4150    0.0000 C   0  0  0  0  0  0  0  0  0  0  0  0
    7.9792   -8.0043    0.0000 C   0  0  0  0  0  0  0  0  0  0  0  0
    7.2658   -8.4187    0.0000 C   0  0  0  0  0  0  0  0  0  0  0  0
    6.5503   -8.0081    0.0000 C   0  0  0  0  0  0  0  0  0  0  0  0
    5.8369   -8.4224    0.0000 C   0  0  0  0  0  0  0  0  0  0  0  0
    5.8390   -9.2474    0.0000 C   0  0  0  0  0  0  0  0  0  0  0  0
    6.5546   -9.6581    0.0000 C   0  0  0  0  0  0  0  0  0  0  0  0
    7.2680   -9.2437    0.0000 C   0  0  0  0  0  0  0  0  0  0  0  0
    7.9835   -9.6543    0.0000 C   0  0  0  0  0  0  0  0  0  0  0  0
    8.6969   -9.2400    0.0000 C   0  0  0  0  0  0  0  0  0  0  0  0
    9.4125   -9.6506    0.0000 C   0  0  0  0  0  0  0  0  0  0  0  0
   10.1259   -9.2363    0.0000 C   0  0  0  0  0  0  0  0  0  0  0  0
   10.1237   -8.4113    0.0000 C   0  0  0  0  0  0  0  0  0  0  0  0
    9.4082   -8.0006    0.0000 C   0  0  0  0  0  0  0  0  0  0  0  0
 38 21  1  0  0  0  0
 36 22  1  0  0  0  0
 32 23  1  0  0  0  0
 30 24  1  0  0  0  0
 34 25  2  0  0  0  0
 39 26  2  0  0  0  0
 35 26  1  0  0  0  0
 27 26  1  0  0  0  0
 28 27  1  0  0  0  0
 33 28  2  0  0  0  0
 29 28  1  0  0  0  0
 30 29  2  0  0  0  0
 31 30  1  0  0  0  0
 32 31  2  0  0  0  0
 33 32  1  0  0  0  0
 34 33  1  0  0  0  0
 35 34  1  0  0  0  0
 36 35  2  0  0  0  0
 37 36  1  0  0  0  0
  1  2  1  0  0  0  0
  2  3  2  0  0  0  0
  3  4  1  0  0  0  0
  4  5  2  0  0  0  0
  5  6  1  0  0  0  0
  6  7  1  0  0  0  0
  7  8  1  0  0  0  0
  8  9  2  0  0  0  0
  9 10  1  0  0  0  0
 10 11  2  0  0  0  0
 11 12  1  0  0  0  0
  7 12  2  0  0  0  0
 12 13  1  0  0  0  0
 13 14  1  0  0  0  0
  5 14  1  0  0  0  0
  1 14  2  0  0  0  0
 15 16  2  0  0  0  0
 15 17  1  0  0  0  0
  2 15  1  0  0  0  0
 38 37  2  0  0  0  0
 39 38  1  0  0  0  0
 13 27  1  0  0  0  0
  6 18  2  0  0  0  0
  8 19  1  0  0  0  0
  4 20  1  0  0  0  0
M  END
>  <cdx:fragmentId>
18821

$$$$
