5321287.cdx
  Mrv1902 05222410232D          

 26 27  0  0  0  0            999 V2000
   14.4368   -9.9133    0.0000 C   0  0  0  0  0  0  0  0  0  0  0  0
   13.7223  -10.3258    0.0000 C   0  0  0  0  0  0  0  0  0  0  0  0
   13.0079   -9.9133    0.0000 C   0  0  0  0  0  0  0  0  0  0  0  0
   12.2934  -10.3258    0.0000 C   0  0  0  0  0  0  0  0  0  0  0  0
   14.4368   -9.0883    0.0000 O   0  0  0  0  0  0  0  0  0  0  0  0
   15.1513  -10.3258    0.0000 O   0  0  0  0  0  0  0  0  0  0  0  0
   13.7223  -11.1508    0.0000 C   0  0  0  0  0  0  0  0  0  0  0  0
   15.8658   -9.9133    0.0000 C   0  0  0  0  0  0  0  0  0  0  0  0
   16.5802  -10.3258    0.0000 C   0  0  0  0  0  0  0  0  0  0  0  0
   17.2947   -9.9133    0.0000 C   0  0  0  0  0  0  0  0  0  0  0  0
   18.0092  -10.3258    0.0000 C   0  0  0  0  0  0  0  0  0  0  0  0
   18.7236   -9.9133    0.0000 C   0  0  0  0  0  0  0  0  0  0  0  0
   18.0092  -11.1508    0.0000 C   0  0  0  0  0  0  0  0  0  0  0  0
   16.2783   -7.8187    0.0000 O   0  0  0  0  0  0  0  0  0  0  0  0
   16.5332   -8.6034    0.0000 C   0  0  0  0  0  0  0  0  0  0  0  0
   15.8658   -9.0883    0.0000 C   0  0  0  0  0  0  0  0  0  0  0  0
   15.1983   -8.6034    0.0000 C   0  0  0  0  0  0  0  0  0  0  0  0
   15.4533   -7.8187    0.0000 C   0  0  0  0  0  0  0  0  0  0  0  0
   14.9683   -7.1513    0.0000 C   0  0  0  0  0  0  0  0  0  0  0  0
   15.3039   -6.3976    0.0000 C   0  0  0  0  0  0  0  0  0  0  0  0
   14.8190   -5.7302    0.0000 C   0  0  0  0  0  0  0  0  0  0  0  0
   13.9985   -5.8164    0.0000 C   0  0  0  0  0  0  0  0  0  0  0  0
   13.6629   -6.5701    0.0000 C   0  0  0  0  0  0  0  0  0  0  0  0
   14.1479   -7.2375    0.0000 C   0  0  0  0  0  0  0  0  0  0  0  0
   12.8425   -6.6563    0.0000 O   0  0  0  0  0  0  0  0  0  0  0  0
   16.1244   -6.3114    0.0000 O   0  0  0  0  0  0  0  0  0  0  0  0
  1  2  1  0  0  0  0
  2  3  1  0  0  0  0
  3  4  1  0  0  0  0
  1  5  2  0  0  0  0
  1  6  1  0  0  0  0
  2  7  1  0  0  0  0
  8  9  1  0  0  0  0
  9 10  1  0  0  0  0
 10 11  2  0  0  0  0
 11 12  1  0  0  0  0
 11 13  1  0  0  0  0
 14 15  1  0  0  0  0
 15 16  2  0  0  0  0
 16 17  1  0  0  0  0
 17 18  2  0  0  0  0
 14 18  1  0  0  0  0
 19 20  1  0  0  0  0
 20 21  2  0  0  0  0
 21 22  1  0  0  0  0
 22 23  2  0  0  0  0
 23 24  1  0  0  0  0
 19 24  2  0  0  0  0
 23 25  1  0  0  0  0
 20 26  1  0  0  0  0
 18 19  1  0  0  0  0
  8 16  1  0  0  0  0
  6  8  1  0  0  0  0
M  END
>  <cdx:groupId>
19145

>  <cdx:fragmentId>
19105

$$$$
