5321290.cdx
  Mrv1902 05222410222D          

 26 27  0  0  0  0            999 V2000
   14.0000   -9.9133    0.0000 C   0  0  0  0  0  0  0  0  0  0  0  0
   13.2856  -10.3258    0.0000 C   0  0  0  0  0  0  0  0  0  0  0  0
   12.5711   -9.9133    0.0000 C   0  0  0  0  0  0  0  0  0  0  0  0
   12.5711   -9.0883    0.0000 C   0  0  0  0  0  0  0  0  0  0  0  0
   14.0000   -9.0883    0.0000 O   0  0  0  0  0  0  0  0  0  0  0  0
   14.7145  -10.3258    0.0000 O   0  0  0  0  0  0  0  0  0  0  0  0
   11.8566  -10.3258    0.0000 C   0  0  0  0  0  0  0  0  0  0  0  0
   15.4290   -9.9133    0.0000 C   0  0  0  0  0  0  0  0  0  0  0  0
   16.1435  -10.3258    0.0000 C   0  0  0  0  0  0  0  0  0  0  0  0
   16.8579   -9.9133    0.0000 C   0  0  0  0  0  0  0  0  0  0  0  0
   17.5724  -10.3258    0.0000 C   0  0  0  0  0  0  0  0  0  0  0  0
   17.5724  -11.1508    0.0000 C   0  0  0  0  0  0  0  0  0  0  0  0
   18.2869   -9.9133    0.0000 C   0  0  0  0  0  0  0  0  0  0  0  0
   15.0165   -7.8187    0.0000 O   0  0  0  0  0  0  0  0  0  0  0  0
   14.7615   -8.6034    0.0000 C   0  0  0  0  0  0  0  0  0  0  0  0
   15.4290   -9.0883    0.0000 C   0  0  0  0  0  0  0  0  0  0  0  0
   16.0964   -8.6034    0.0000 C   0  0  0  0  0  0  0  0  0  0  0  0
   15.8415   -7.8187    0.0000 C   0  0  0  0  0  0  0  0  0  0  0  0
   16.3264   -7.1513    0.0000 C   0  0  0  0  0  0  0  0  0  0  0  0
   15.9909   -6.3976    0.0000 C   0  0  0  0  0  0  0  0  0  0  0  0
   16.4758   -5.7302    0.0000 C   0  0  0  0  0  0  0  0  0  0  0  0
   17.2963   -5.8164    0.0000 C   0  0  0  0  0  0  0  0  0  0  0  0
   17.6318   -6.5701    0.0000 C   0  0  0  0  0  0  0  0  0  0  0  0
   17.1469   -7.2375    0.0000 C   0  0  0  0  0  0  0  0  0  0  0  0
   18.4523   -6.6563    0.0000 O   0  0  0  0  0  0  0  0  0  0  0  0
   15.1704   -6.3114    0.0000 O   0  0  0  0  0  0  0  0  0  0  0  0
  1  2  1  0  0  0  0
  2  3  2  0  0  0  0
  3  4  1  0  0  0  0
  1  5  2  0  0  0  0
  1  6  1  0  0  0  0
  3  7  1  0  0  0  0
  8  9  1  0  0  0  0
  9 10  1  0  0  0  0
 10 11  2  0  0  0  0
 11 12  1  0  0  0  0
 11 13  1  0  0  0  0
 14 15  1  0  0  0  0
 15 16  2  0  0  0  0
 16 17  1  0  0  0  0
 17 18  2  0  0  0  0
 14 18  1  0  0  0  0
 19 20  1  0  0  0  0
 20 21  2  0  0  0  0
 21 22  1  0  0  0  0
 22 23  2  0  0  0  0
 23 24  1  0  0  0  0
 19 24  2  0  0  0  0
 23 25  1  0  0  0  0
 20 26  1  0  0  0  0
 18 19  1  0  0  0  0
  8 16  1  0  0  0  0
  6  8  1  0  0  0  0
M  END
>  <cdx:groupId>
19403

>  <cdx:fragmentId>
19363

$$$$
