5321289.cdx
  Mrv1902 05222410242D          

 25 26  0  0  0  0            999 V2000
   14.4368   -9.9133    0.0000 C   0  0  0  0  0  0  0  0  0  0  0  0
   13.7223  -10.3258    0.0000 C   0  0  0  0  0  0  0  0  0  0  0  0
   13.7223  -11.1508    0.0000 C   0  0  0  0  0  0  0  0  0  0  0  0
   14.4368   -9.0883    0.0000 O   0  0  0  0  0  0  0  0  0  0  0  0
   15.1513  -10.3258    0.0000 O   0  0  0  0  0  0  0  0  0  0  0  0
   13.0079   -9.9133    0.0000 C   0  0  0  0  0  0  0  0  0  0  0  0
   15.8658   -9.9133    0.0000 C   0  0  0  0  0  0  0  0  0  0  0  0
   16.5802  -10.3258    0.0000 C   0  0  0  0  0  0  0  0  0  0  0  0
   17.2947   -9.9133    0.0000 C   0  0  0  0  0  0  0  0  0  0  0  0
   18.0092  -10.3258    0.0000 C   0  0  0  0  0  0  0  0  0  0  0  0
   18.7236   -9.9133    0.0000 C   0  0  0  0  0  0  0  0  0  0  0  0
   18.0092  -11.1508    0.0000 C   0  0  0  0  0  0  0  0  0  0  0  0
   16.2783   -7.8187    0.0000 O   0  0  0  0  0  0  0  0  0  0  0  0
   16.5332   -8.6034    0.0000 C   0  0  0  0  0  0  0  0  0  0  0  0
   15.8658   -9.0883    0.0000 C   0  0  0  0  0  0  0  0  0  0  0  0
   15.1983   -8.6034    0.0000 C   0  0  0  0  0  0  0  0  0  0  0  0
   15.4533   -7.8187    0.0000 C   0  0  0  0  0  0  0  0  0  0  0  0
   14.9683   -7.1513    0.0000 C   0  0  0  0  0  0  0  0  0  0  0  0
   15.3039   -6.3976    0.0000 C   0  0  0  0  0  0  0  0  0  0  0  0
   14.8190   -5.7302    0.0000 C   0  0  0  0  0  0  0  0  0  0  0  0
   13.9985   -5.8164    0.0000 C   0  0  0  0  0  0  0  0  0  0  0  0
   13.6629   -6.5701    0.0000 C   0  0  0  0  0  0  0  0  0  0  0  0
   14.1479   -7.2375    0.0000 C   0  0  0  0  0  0  0  0  0  0  0  0
   12.8425   -6.6563    0.0000 O   0  0  0  0  0  0  0  0  0  0  0  0
   16.1244   -6.3114    0.0000 O   0  0  0  0  0  0  0  0  0  0  0  0
  1  2  1  0  0  0  0
  2  3  1  0  0  0  0
  1  4  2  0  0  0  0
  1  5  1  0  0  0  0
  2  6  1  0  0  0  0
  7  8  1  0  0  0  0
  8  9  1  0  0  0  0
  9 10  2  0  0  0  0
 10 11  1  0  0  0  0
 10 12  1  0  0  0  0
 13 14  1  0  0  0  0
 14 15  2  0  0  0  0
 15 16  1  0  0  0  0
 16 17  2  0  0  0  0
 13 17  1  0  0  0  0
 18 19  1  0  0  0  0
 19 20  2  0  0  0  0
 20 21  1  0  0  0  0
 21 22  2  0  0  0  0
 22 23  1  0  0  0  0
 18 23  2  0  0  0  0
 22 24  1  0  0  0  0
 19 25  1  0  0  0  0
 17 18  1  0  0  0  0
  7 15  1  0  0  0  0
  5  7  1  0  0  0  0
M  END
>  <cdx:groupId>
19316

>  <cdx:fragmentId>
19277

$$$$
