5321394.cdx
  Mrv1902 05222410182D          

 34 36  0  0  0  0            999 V2000
   17.9184   -5.9830    0.0000 C   0  0  0  0  0  0  0  0  0  0  0  0
   17.2040   -6.3955    0.0000 C   0  0  0  0  0  0  0  0  0  0  0  0
   16.4895   -5.9830    0.0000 C   0  0  0  0  0  0  0  0  0  0  0  0
   17.2040   -7.2205    0.0000 C   0  0  0  0  0  0  0  0  0  0  0  0
   17.9184   -7.6330    0.0000 C   0  0  0  0  0  0  0  0  0  0  0  0
   17.9184   -8.4580    0.0000 C   0  0  0  0  0  0  0  0  0  0  0  0
   17.2040   -8.8705    0.0000 C   0  0  0  0  0  0  0  0  0  0  0  0
   17.2040   -9.6955    0.0000 C   0  0  0  0  0  0  0  0  0  0  0  0
   16.4895  -10.1080    0.0000 C   0  0  0  0  0  0  0  0  0  0  0  0
   15.7750   -9.6955    0.0000 C   0  0  0  0  0  0  0  0  0  0  0  0
   15.0606  -10.1080    0.0000 C   0  0  0  0  0  0  0  0  0  0  0  0
   15.0606  -10.9330    0.0000 O   0  0  0  0  0  0  0  0  0  0  0  0
   14.3461   -9.6955    0.0000 C   0  0  0  0  0  0  0  0  0  0  0  0
   13.6316  -10.1080    0.0000 C   0  0  0  0  0  0  0  0  0  0  0  0
   13.6316  -10.9330    0.0000 O   0  0  0  0  0  0  0  0  0  0  0  0
   12.9171   -9.6955    0.0000 C   0  0  0  0  0  0  0  0  0  0  0  0
   12.2027  -10.1080    0.0000 C   0  0  0  0  0  0  0  0  0  0  0  0
   11.4882   -9.6955    0.0000 C   0  0  0  0  0  0  0  0  0  0  0  0
   10.7737  -10.1080    0.0000 C   0  0  0  0  0  0  0  0  0  0  0  0
   10.7737  -10.9330    0.0000 C   0  0  0  0  0  0  0  0  0  0  0  0
   10.0593   -9.6955    0.0000 C   0  0  0  0  0  0  0  0  0  0  0  0
   12.9171   -8.8705    0.0000 C   0  0  0  0  0  0  0  0  0  0  0  0
   12.2027   -8.4580    0.0000 O   0  0  0  0  0  0  0  0  0  0  0  0
   13.6316   -8.4580    0.0000 C   0  0  0  0  0  0  0  0  0  0  0  0
   14.3461   -8.8705    0.0000 C   0  0  0  0  0  0  0  0  0  0  0  0
   17.9184  -10.1080    0.0000 C   0  0  0  0  0  0  0  0  0  0  0  0
   18.6329   -9.6955    0.0000 C   0  0  0  0  0  0  0  0  0  0  0  0
   18.6329   -8.8705    0.0000 C   0  0  0  0  0  0  0  0  0  0  0  0
   19.3474   -8.4580    0.0000 O   0  0  0  0  0  0  0  0  0  0  0  0
   20.0619   -8.8705    0.0000 C   0  0  0  0  0  0  0  0  0  0  0  0
   20.4744   -8.1560    0.0000 C   0  0  0  0  0  0  0  0  0  0  0  0
   20.8868   -8.8705    0.0000 C   0  0  0  0  0  0  0  0  0  0  0  0
   20.0619   -9.6955    0.0000 C   0  0  0  0  0  0  0  0  0  0  0  0
   19.3474  -10.1080    0.0000 C   0  0  0  0  0  0  0  0  0  0  0  0
  1  2  1  0  0  0  0
  2  3  1  0  0  0  0
  2  4  2  0  0  0  0
  4  5  1  0  0  0  0
  5  6  1  0  0  0  0
  6  7  2  0  0  0  0
  7  8  1  0  0  0  0
  8  9  1  0  0  0  0
  9 10  2  0  0  0  0
 10 11  1  0  0  0  0
 11 12  2  0  0  0  0
 11 13  1  0  0  0  0
 13 14  2  0  0  0  0
 14 15  1  0  0  0  0
 14 16  1  0  0  0  0
 16 17  1  0  0  0  0
 17 18  1  0  0  0  0
 18 19  2  0  0  0  0
 19 20  1  0  0  0  0
 19 21  1  0  0  0  0
 16 22  2  0  0  0  0
 22 23  1  0  0  0  0
 22 24  1  0  0  0  0
 24 25  2  0  0  0  0
 13 25  1  0  0  0  0
  8 26  2  0  0  0  0
 26 27  1  0  0  0  0
 27 28  2  0  0  0  0
  6 28  1  0  0  0  0
 28 29  1  0  0  0  0
 29 30  1  0  0  0  0
 30 31  1  0  0  0  0
 30 32  1  0  0  0  0
 30 33  1  0  0  0  0
 33 34  2  0  0  0  0
 27 34  1  0  0  0  0
M  END
>  <cdx:fragmentId>
19463

$$$$
