3213.cdx
  Mrv1902 05222410242D          

  9  9  0  0  0  0            999 V2000
    5.5995   -7.9187    0.0000 C   0  0  0  0  0  0  0  0  0  0  0  0
    5.8638   -8.7002    0.0000 C   0  0  0  0  0  0  0  0  0  0  0  0
    6.6887   -8.6904    0.0000 C   0  0  0  0  0  0  0  0  0  0  0  0
    6.9343   -7.9028    0.0000 C   0  0  0  0  0  0  0  0  0  0  0  0
    6.2611   -7.4259    0.0000 C   0  0  0  0  0  0  0  0  0  0  0  0
    6.2611   -6.6009    0.0000 C   0  0  0  0  0  0  0  0  0  0  0  0
    6.2611   -5.7759    0.0000 C   0  0  0  0  0  0  0  0  0  0  0  0
    5.4361   -6.6009    0.0000 C   0  0  0  0  0  0  0  0  0  0  0  0
    7.0861   -6.6009    0.0000 C   0  0  0  0  0  0  0  0  0  0  0  0
  1  2  2  0  0  0  0
  2  3  1  0  0  0  0
  3  4  2  0  0  0  0
  4  5  1  0  0  0  0
  5  1  1  0  0  0  0
  5  6  1  0  0  0  0
  6  7  1  0  0  0  0
  6  8  1  0  0  0  0
  6  9  1  0  0  0  0
M  END
>  <cdx:fragmentId>
5

$$$$
