321346.cdx
  Mrv1902 05222410202D          

 22 24  0  0  0  0            999 V2000
   15.8260  -13.0744    0.0000 C   0  0  0  0  0  0  0  0  0  0  0  0
   15.8260  -13.8994    0.0000 C   0  0  0  0  0  0  0  0  0  0  0  0
   15.1115  -14.3119    0.0000 C   0  0  0  0  0  0  0  0  0  0  0  0
   15.1115  -15.1369    0.0000 O   0  0  0  0  0  0  0  0  0  0  0  0
   14.3970  -13.8994    0.0000 C   0  0  0  0  0  0  0  0  0  0  0  0
   13.6826  -14.3119    0.0000 C   0  0  0  0  0  0  0  0  0  0  0  0
   12.9681  -13.8994    0.0000 C   0  0  0  0  0  0  0  0  0  0  0  0
   12.9681  -13.0744    0.0000 C   0  0  0  0  0  0  0  0  0  0  0  0
   13.6826  -12.6619    0.0000 C   0  0  0  0  0  0  0  0  0  0  0  0
   14.3970  -13.0744    0.0000 C   0  0  0  0  0  0  0  0  0  0  0  0
   15.1115  -12.6619    0.0000 O   0  0  0  0  0  0  0  0  0  0  0  0
   16.5405  -12.6619    0.0000 C   0  0  0  0  0  0  0  0  0  0  0  0
   16.5405  -11.8369    0.0000 C   0  0  0  0  0  0  0  0  0  0  0  0
   17.2549  -11.4244    0.0000 C   0  0  0  0  0  0  0  0  0  0  0  0
   17.9694  -11.8369    0.0000 C   0  0  0  0  0  0  0  0  0  0  0  0
   17.9694  -12.6619    0.0000 C   0  0  0  0  0  0  0  0  0  0  0  0
   17.2549  -13.0744    0.0000 C   0  0  0  0  0  0  0  0  0  0  0  0
   12.2536  -12.6619    0.0000 O   0  0  0  0  0  0  0  0  0  0  0  0
   11.5392  -13.0744    0.0000 C   0  0  0  0  0  0  0  0  0  0  0  0
   18.6839  -11.4244    0.0000 O   0  0  0  0  0  0  0  0  0  0  0  0
   19.3983  -11.8369    0.0000 C   0  0  0  0  0  0  0  0  0  0  0  0
   13.6826  -15.1369    0.0000 O   0  0  0  0  0  0  0  0  0  0  0  0
  1  2  1  0  0  0  0
  2  3  1  0  0  0  0
  3  4  2  0  0  0  0
  3  5  1  0  0  0  0
  5  6  1  0  0  0  0
  6  7  2  0  0  0  0
  7  8  1  0  0  0  0
  8  9  2  0  0  0  0
  9 10  1  0  0  0  0
  5 10  2  0  0  0  0
 10 11  1  0  0  0  0
  1 11  1  0  0  0  0
  1 12  1  0  0  0  0
 12 13  1  0  0  0  0
 13 14  2  0  0  0  0
 14 15  1  0  0  0  0
 15 16  2  0  0  0  0
 16 17  1  0  0  0  0
 12 17  2  0  0  0  0
 18 19  1  0  0  0  0
  8 18  1  0  0  0  0
 20 21  1  0  0  0  0
 15 20  1  0  0  0  0
  6 22  1  0  0  0  0
M  END
>  <cdx:groupId>
907

>  <cdx:fragmentId>
842

$$$$
