321484.cdx
  Mrv1902 05222410212D          

 21 23  0  0  0  0            999 V2000
    7.0930   -6.7664    0.0000 C   0  0  1  0  0  0  0  0  0  0  0  0
    7.0930   -7.5914    0.0000 C   0  0  2  0  0  0  0  0  0  0  0  0
    7.8075   -8.0039    0.0000 C   0  0  0  0  0  0  0  0  0  0  0  0
    8.5219   -7.5914    0.0000 C   0  0  2  0  0  0  0  0  0  0  0  0
    8.5219   -6.7664    0.0000 C   0  0  2  0  0  0  0  0  0  0  0  0
    7.8075   -6.3539    0.0000 C   0  0  0  0  0  0  0  0  0  0  0  0
    6.3785   -7.1789    0.0000 C   0  0  1  0  0  0  0  0  0  0  0  0
    9.3066   -7.8463    0.0000 O   0  0  0  0  0  0  0  0  0  0  0  0
    9.7915   -7.1789    0.0000 C   0  0  0  0  0  0  0  0  0  0  0  0
    9.3066   -6.5115    0.0000 C   0  0  0  0  0  0  0  0  0  0  0  0
   10.6165   -7.1789    0.0000 O   0  0  0  0  0  0  0  0  0  0  0  0
    9.5615   -5.7268    0.0000 C   0  0  0  0  0  0  0  0  0  0  0  0
    8.6082   -5.9459    0.0000 H   0  0  0  0  0  0  0  0  0  0  0  0
    8.6082   -8.4119    0.0000 H   0  0  0  0  0  0  0  0  0  0  0  0
    6.6805   -8.3059    0.0000 C   0  0  0  0  0  0  0  0  0  0  0  0
    6.6805   -6.0519    0.0000 H   0  0  0  0  0  0  0  0  0  0  0  0
    5.5535   -7.1789    0.0000 C   0  0  0  0  0  0  0  0  0  0  0  0
    5.1410   -7.8934    0.0000 C   0  0  0  0  0  0  0  0  0  0  0  0
    4.3160   -7.8934    0.0000 C   0  0  0  0  0  0  0  0  0  0  0  0
    3.9035   -8.6078    0.0000 C   0  0  0  0  0  0  0  0  0  0  0  0
    3.9035   -7.1789    0.0000 O   0  0  0  0  0  0  0  0  0  0  0  0
  1  2  1  0  0  0  0
  2  3  1  0  0  0  0
  3  4  1  0  0  0  0
  4  5  1  0  0  0  0
  5  6  1  0  0  0  0
  6  1  1  0  0  0  0
  1  7  1  0  0  0  0
  7  2  1  0  0  0  0
  4  8  1  0  0  0  0
  8  9  1  0  0  0  0
  9 10  1  0  0  0  0
 10  5  1  0  0  0  0
  9 11  2  0  0  0  0
 10 12  2  0  0  0  0
  5 13  1  1  0  0  0
  4 14  1  1  0  0  0
  2 15  1  1  0  0  0
  1 16  1  1  0  0  0
  7 17  1  1  0  0  0
 17 18  1  0  0  0  0
 18 19  1  0  0  0  0
 19 20  1  0  0  0  0
 19 21  2  0  0  0  0
M  END
>  <cdx:fragmentId>
3

$$$$
