321435.cdx
  Mrv1902 05222410202D          

 25 27  0  0  0  0            999 V2000
    8.4186   -9.4096    0.0000 O   0  0  0  0  0  0  0  0  0  0  0  0
    5.5543  -10.2120    0.0000 O   0  0  0  0  0  0  0  0  0  0  0  0
    4.1450   -7.7258    0.0000 O   0  0  0  0  0  0  0  0  0  0  0  0
   10.5848   -6.5392    0.0000 O   0  0  0  0  0  0  0  0  0  0  0  0
   11.2895   -7.7823    0.0000 C   0  0  0  0  0  0  0  0  0  0  0  0
   10.5718   -8.1891    0.0000 O   0  0  0  0  0  0  0  0  0  0  0  0
    8.4382   -6.9347    0.0000 C   0  0  0  0  0  0  0  0  0  0  0  0
    9.1559   -6.5279    0.0000 C   0  0  0  0  0  0  0  0  0  0  0  0
    9.8671   -6.9460    0.0000 C   0  0  0  0  0  0  0  0  0  0  0  0
    9.8606   -7.7710    0.0000 C   0  0  0  0  0  0  0  0  0  0  0  0
    9.1429   -8.1778    0.0000 C   0  0  0  0  0  0  0  0  0  0  0  0
    8.4317   -7.7597    0.0000 C   0  0  0  0  0  0  0  0  0  0  0  0
    3.4208   -8.9576    0.0000 C   0  0  0  0  0  0  0  0  0  0  0  0
    4.1320   -9.3757    0.0000 O   0  0  0  0  0  0  0  0  0  0  0  0
    6.9832  -10.2233    0.0000 O   0  0  0  0  0  0  0  0  0  0  0  0
    7.0028   -7.7484    0.0000 O   0  0  0  0  0  0  0  0  0  0  0  0
    6.2851   -8.1552    0.0000 C   0  0  0  0  0  0  0  0  0  0  0  0
    5.5739   -7.7371    0.0000 C   0  0  0  0  0  0  0  0  0  0  0  0
    4.8562   -8.1439    0.0000 C   0  0  0  0  0  0  0  0  0  0  0  0
    4.8497   -8.9689    0.0000 C   0  0  0  0  0  0  0  0  0  0  0  0
    5.5609   -9.3870    0.0000 C   0  0  0  0  0  0  0  0  0  0  0  0
    6.2786   -8.9802    0.0000 C   0  0  0  0  0  0  0  0  0  0  0  0
    6.9898   -9.3983    0.0000 C   0  0  0  0  0  0  0  0  0  0  0  0
    7.7075   -8.9915    0.0000 C   0  0  0  0  0  0  0  0  0  0  0  0
    7.7140   -8.1665    0.0000 C   0  0  0  0  0  0  0  0  0  0  0  0
 24  1  1  0  0  0  0
 21  2  1  0  0  0  0
 19  3  1  0  0  0  0
 25 12  1  0  0  0  0
  9  4  1  0  0  0  0
 10  6  1  0  0  0  0
  6  5  1  0  0  0  0
 12  7  2  0  0  0  0
  8  7  1  0  0  0  0
  9  8  2  0  0  0  0
 10  9  1  0  0  0  0
 11 10  2  0  0  0  0
 12 11  1  0  0  0  0
 20 14  1  0  0  0  0
 14 13  1  0  0  0  0
 23 15  2  0  0  0  0
 25 16  1  0  0  0  0
 17 16  1  0  0  0  0
 22 17  2  0  0  0  0
 18 17  1  0  0  0  0
 19 18  2  0  0  0  0
 20 19  1  0  0  0  0
 21 20  2  0  0  0  0
 22 21  1  0  0  0  0
 23 22  1  0  0  0  0
 24 23  1  0  0  0  0
 25 24  2  0  0  0  0
M  END
>  <cdx:fragmentId>
19544

$$$$
