321547.cdx
  Mrv1902 05222410192D          

 43 46  0  0  0  0            999 V2000
   11.6718   -7.0755    0.0000 C   0  0  0  0  0  0  0  0  0  0  0  0
   10.2430   -7.0540    0.0000 O   0  0  0  0  0  0  0  0  0  0  0  0
   10.9511   -7.4772    0.0000 C   0  0  0  0  0  0  0  0  0  0  0  0
   11.6095  -11.2001    0.0000 C   0  0  0  0  0  0  0  0  0  0  0  0
   10.9014  -10.7768    0.0000 O   0  0  0  0  0  0  0  0  0  0  0  0
   10.2057   -9.5287    0.0000 C   0  0  0  0  0  0  0  0  0  0  0  0
   10.9138   -9.9519    0.0000 C   0  0  0  0  0  0  0  0  0  0  0  0
   11.6344   -9.5503    0.0000 C   0  0  0  0  0  0  0  0  0  0  0  0
   11.6469   -8.7254    0.0000 C   0  0  0  0  0  0  0  0  0  0  0  0
   10.9387   -8.3021    0.0000 C   0  0  0  0  0  0  0  0  0  0  0  0
   10.2181   -8.7038    0.0000 C   0  0  0  0  0  0  0  0  0  0  0  0
    9.5099   -8.2806    0.0000 O   0  0  0  0  0  0  0  0  0  0  0  0
    8.0438  -10.7337    0.0000 O   0  0  0  0  0  0  0  0  0  0  0  0
    9.4850   -9.9304    0.0000 O   0  0  0  0  0  0  0  0  0  0  0  0
    6.6897   -5.7628    0.0000 O   0  0  0  0  0  0  0  0  0  0  0  0
    5.2734   -4.9163    0.0000 O   0  0  0  0  0  0  0  0  0  0  0  0
    3.8321   -5.7197    0.0000 O   0  0  0  0  0  0  0  0  0  0  0  0
    4.5279   -6.9678    0.0000 C   0  0  0  0  0  0  0  0  0  0  0  0
    4.5403   -6.1429    0.0000 C   0  0  1  0  0  0  0  0  0  0  0  0
    5.2609   -5.7412    0.0000 C   0  0  1  0  0  0  0  0  0  0  0  0
    5.9691   -6.1644    0.0000 C   0  0  2  0  0  0  0  0  0  0  0  0
    5.9566   -6.9893    0.0000 C   0  0  1  0  0  0  0  0  0  0  0  0
    5.2360   -7.3910    0.0000 O   0  0  0  0  0  0  0  0  0  0  0  0
    6.6648   -7.4126    0.0000 O   0  0  0  0  0  0  0  0  0  0  0  0
    6.6524   -8.2375    0.0000 C   0  0  0  0  0  0  0  0  0  0  0  0
    8.7893   -8.6823    0.0000 C   0  0  1  0  0  0  0  0  0  0  0  0
    8.7769   -9.5072    0.0000 C   0  0  1  0  0  0  0  0  0  0  0  0
    8.0563   -9.9088    0.0000 C   0  0  2  0  0  0  0  0  0  0  0  0
    7.3481   -9.4856    0.0000 C   0  0  1  0  0  0  0  0  0  0  0  0
    7.3605   -8.6607    0.0000 C   0  0  2  0  0  0  0  0  0  0  0  0
    8.0811   -8.2590    0.0000 O   0  0  0  0  0  0  0  0  0  0  0  0
    3.0618   -9.4210    0.0000 O   0  0  0  0  0  0  0  0  0  0  0  0
    3.0369  -11.0708    0.0000 O   0  0  0  0  0  0  0  0  0  0  0  0
    4.4532  -11.9172    0.0000 O   0  0  0  0  0  0  0  0  0  0  0  0
    6.6275   -9.8873    0.0000 O   0  0  0  0  0  0  0  0  0  0  0  0
    5.9318   -8.6392    0.0000 O   0  0  0  0  0  0  0  0  0  0  0  0
    5.1863  -10.6906    0.0000 C   0  0  0  0  0  0  0  0  0  0  0  0
    4.4657  -11.0923    0.0000 C   0  0  0  0  0  0  0  0  0  0  0  0
    3.7575  -10.6691    0.0000 C   0  0  0  0  0  0  0  0  0  0  0  0
    3.7699   -9.8442    0.0000 C   0  0  0  0  0  0  0  0  0  0  0  0
    4.4905   -9.4425    0.0000 C   0  0  0  0  0  0  0  0  0  0  0  0
    5.1987   -9.8657    0.0000 C   0  0  0  0  0  0  0  0  0  0  0  0
    5.9193   -9.4641    0.0000 C   0  0  0  0  0  0  0  0  0  0  0  0
 29 35  1  6  0  0  0
 26 12  1  1  0  0  0
 10  3  1  0  0  0  0
  3  1  1  0  0  0  0
  3  2  2  0  0  0  0
  7  5  1  0  0  0  0
  5  4  1  0  0  0  0
 12 11  1  0  0  0  0
 11  6  2  0  0  0  0
  7  6  1  0  0  0  0
  8  7  2  0  0  0  0
  9  8  1  0  0  0  0
 10  9  2  0  0  0  0
 11 10  1  0  0  0  0
 28 13  1  1  0  0  0
 27 14  1  6  0  0  0
 30 25  1  1  0  0  0
 25 24  1  0  0  0  0
 22 24  1  6  0  0  0
 21 15  1  1  0  0  0
 20 16  1  6  0  0  0
 19 17  1  6  0  0  0
 23 18  1  0  0  0  0
 19 18  1  0  0  0  0
 20 19  1  0  0  0  0
 21 20  1  0  0  0  0
 22 21  1  0  0  0  0
 23 22  1  0  0  0  0
 31 26  1  0  0  0  0
 27 26  1  0  0  0  0
 28 27  1  0  0  0  0
 29 28  1  0  0  0  0
 30 29  1  0  0  0  0
 31 30  1  0  0  0  0
 40 32  1  0  0  0  0
 39 33  1  0  0  0  0
 38 34  1  0  0  0  0
 43 35  1  0  0  0  0
 43 36  2  0  0  0  0
 42 37  2  0  0  0  0
 38 37  1  0  0  0  0
 39 38  2  0  0  0  0
 40 39  1  0  0  0  0
 41 40  2  0  0  0  0
 42 41  1  0  0  0  0
 43 42  1  0  0  0  0
M  END
>  <cdx:fragmentId>
19741

$$$$
