3216.cdx
  Mrv1902 05222410252D          

 14 13  0  0  0  0            999 V2000
    2.3677   -6.9712    0.0000 C   0  0  0  0  0  0  0  0  0  0  0  0
    3.0822   -6.5587    0.0000 C   0  0  0  0  0  0  0  0  0  0  0  0
    3.7967   -6.9712    0.0000 C   0  0  0  0  0  0  0  0  0  0  0  0
    4.5112   -6.5587    0.0000 C   0  0  0  0  0  0  0  0  0  0  0  0
    5.2256   -6.9712    0.0000 C   0  0  0  0  0  0  0  0  0  0  0  0
    5.9401   -6.5587    0.0000 C   0  0  0  0  0  0  0  0  0  0  0  0
    6.6546   -6.9712    0.0000 C   0  0  0  0  0  0  0  0  0  0  0  0
    7.3690   -6.5587    0.0000 C   0  0  0  0  0  0  0  0  0  0  0  0
    8.0835   -6.9712    0.0000 C   0  0  0  0  0  0  0  0  0  0  0  0
    8.7980   -6.5587    0.0000 C   0  0  0  0  0  0  0  0  0  0  0  0
    9.5125   -6.9712    0.0000 C   0  0  0  0  0  0  0  0  0  0  0  0
   10.2269   -6.5587    0.0000 C   0  0  0  0  0  0  0  0  0  0  0  0
   10.9414   -6.9712    0.0000 C   0  0  0  0  0  0  0  0  0  0  0  0
   11.6559   -6.5587    0.0000 C   0  0  0  0  0  0  0  0  0  0  0  0
  1  2  1  0  0  0  0
  2  3  1  0  0  0  0
  3  4  1  0  0  0  0
  4  5  1  0  0  0  0
  5  6  1  0  0  0  0
  6  7  1  0  0  0  0
  7  8  1  0  0  0  0
  8  9  1  0  0  0  0
  9 10  1  0  0  0  0
 10 11  1  0  0  0  0
 11 12  1  0  0  0  0
 12 13  1  0  0  0  0
 13 14  2  0  0  0  0
M  END
>  <cdx:fragmentId>
3

$$$$
