321620.cdx
  Mrv1902 05222410192D          

 23 26  0  0  0  0            999 V2000
    9.8750   -6.7380    0.0000 O   0  0  0  0  0  0  0  0  0  0  0  0
   10.3599   -6.0706    0.0000 C   0  0  0  0  0  0  0  0  0  0  0  0
    9.8750   -5.4032    0.0000 C   0  0  0  0  0  0  0  0  0  0  0  0
    9.0904   -5.6581    0.0000 C   0  0  0  0  0  0  0  0  0  0  0  0
    8.3759   -5.2456    0.0000 C   0  0  0  0  0  0  0  0  0  0  0  0
    7.6614   -5.6581    0.0000 C   0  0  0  0  0  0  0  0  0  0  0  0
    7.6614   -6.4831    0.0000 C   0  0  0  0  0  0  0  0  0  0  0  0
    8.3759   -6.8956    0.0000 C   0  0  0  0  0  0  0  0  0  0  0  0
    9.0904   -6.4831    0.0000 C   0  0  0  0  0  0  0  0  0  0  0  0
    8.3759   -7.7206    0.0000 C   0  0  0  0  0  0  0  0  0  0  0  0
    7.6614   -8.1331    0.0000 C   0  0  0  0  0  0  0  0  0  0  0  0
    6.9470   -7.7206    0.0000 C   0  0  0  0  0  0  0  0  0  0  0  0
    6.2325   -8.1331    0.0000 C   0  0  1  0  0  0  0  0  0  0  0  0
    5.5180   -7.7206    0.0000 C   0  0  2  0  0  0  0  0  0  0  0  0
    5.5180   -6.8956    0.0000 C   0  0  0  0  0  0  0  0  0  0  0  0
    6.2325   -6.4831    0.0000 C   0  0  0  0  0  0  0  0  0  0  0  0
    6.9470   -6.8956    0.0000 C   0  0  0  0  0  0  0  0  0  0  0  0
    6.9470   -5.2456    0.0000 O   0  0  0  0  0  0  0  0  0  0  0  0
    8.3759   -4.4206    0.0000 O   0  0  0  0  0  0  0  0  0  0  0  0
    6.6450   -8.8476    0.0000 C   0  0  0  0  0  0  0  0  0  0  0  0
   10.1299   -4.6185    0.0000 C   0  0  0  0  0  0  0  0  0  0  0  0
    4.8035   -8.1331    0.0000 O   0  0  0  0  0  0  0  0  0  0  0  0
    5.8200   -8.8476    0.0000 O   0  0  0  0  0  0  0  0  0  0  0  0
  1  2  1  0  0  0  0
  2  3  2  0  0  0  0
  3  4  1  0  0  0  0
  4  5  1  0  0  0  0
  5  6  1  0  0  0  0
  6  7  1  0  0  0  0
  7  8  1  0  0  0  0
  8  9  1  0  0  0  0
  4  9  2  0  0  0  0
  1  9  1  0  0  0  0
 10 11  1  0  0  0  0
 11 12  2  0  0  0  0
 12 13  1  0  0  0  0
 13 14  1  0  0  0  0
 14 15  1  0  0  0  0
 15 16  1  0  0  0  0
 16 17  1  0  0  0  0
 12 17  1  0  0  0  0
 17  7  2  0  0  0  0
 10  8  2  0  0  0  0
  6 18  2  0  0  0  0
  5 19  2  0  0  0  0
 13 20  1  6  0  0  0
  3 21  1  0  0  0  0
 14 22  1  1  0  0  0
 13 23  1  1  0  0  0
M  END
>  <cdx:fragmentId>
20011

$$$$
