321617.cdx
  Mrv1902 05222410282D          

 20 23  0  0  0  0            999 V2000
    5.1808   -7.2175    0.0000 C   0  0  0  0  0  0  0  0  0  0  0  0
    5.1808   -8.0425    0.0000 C   0  0  0  0  0  0  0  0  0  0  0  0
    5.8952   -8.4550    0.0000 C   0  0  0  0  0  0  0  0  0  0  0  0
    6.6097   -8.0425    0.0000 C   0  0  0  0  0  0  0  0  0  0  0  0
    6.6097   -7.2175    0.0000 C   0  0  0  0  0  0  0  0  0  0  0  0
    5.8952   -6.8050    0.0000 C   0  0  0  0  0  0  0  0  0  0  0  0
    7.3242   -8.4550    0.0000 C   0  0  0  0  0  0  0  0  0  0  0  0
    8.0387   -8.0425    0.0000 C   0  0  0  0  0  0  0  0  0  0  0  0
    8.0387   -7.2175    0.0000 C   0  0  0  0  0  0  0  0  0  0  0  0
    7.3242   -6.8050    0.0000 C   0  0  0  0  0  0  0  0  0  0  0  0
    8.7532   -6.8050    0.0000 C   0  0  0  0  0  0  0  0  0  0  0  0
    8.7532   -5.9800    0.0000 C   0  0  0  0  0  0  0  0  0  0  0  0
    8.0387   -5.5675    0.0000 O   0  0  0  0  0  0  0  0  0  0  0  0
    7.3242   -5.9800    0.0000 C   0  0  0  0  0  0  0  0  0  0  0  0
    9.5377   -7.0600    0.0000 O   0  0  0  0  0  0  0  0  0  0  0  0
   10.0227   -6.3925    0.0000 C   0  0  0  0  0  0  0  0  0  0  0  0
    9.5377   -5.7251    0.0000 C   0  0  0  0  0  0  0  0  0  0  0  0
    5.8952   -9.2800    0.0000 C   0  0  0  0  0  0  0  0  0  0  0  0
    6.6097   -5.5675    0.0000 O   0  0  0  0  0  0  0  0  0  0  0  0
    9.7927   -4.9405    0.0000 C   0  0  0  0  0  0  0  0  0  0  0  0
  1  2  1  0  0  0  0
  2  3  2  0  0  0  0
  3  4  1  0  0  0  0
  4  5  2  0  0  0  0
  5  6  1  0  0  0  0
  6  1  2  0  0  0  0
  4  7  1  0  0  0  0
  7  8  2  0  0  0  0
  8  9  1  0  0  0  0
  9 10  2  0  0  0  0
 10  5  1  0  0  0  0
  9 11  1  0  0  0  0
 11 12  2  0  0  0  0
 12 13  1  0  0  0  0
 13 14  1  0  0  0  0
 14 10  1  0  0  0  0
 11 15  1  0  0  0  0
 15 16  1  0  0  0  0
 16 17  2  0  0  0  0
 17 12  1  0  0  0  0
  3 18  1  0  0  0  0
 14 19  2  0  0  0  0
 17 20  1  0  0  0  0
M  END
>  <cdx:fragmentId>
19958

$$$$
