321710.cdx
  Mrv1902 05222410232D          

 10 11  0  0  0  0            999 V2000
    7.8150   -8.0861    0.0000 N   0  0  0  0  0  0  0  0  0  0  0  0
    8.2999   -7.4187    0.0000 C   0  0  0  0  0  0  0  0  0  0  0  0
    7.8150   -6.7512    0.0000 C   0  0  0  0  0  0  0  0  0  0  0  0
    7.0303   -7.0062    0.0000 C   0  0  0  0  0  0  0  0  0  0  0  0
    6.3159   -6.5937    0.0000 C   0  0  0  0  0  0  0  0  0  0  0  0
    5.6014   -7.0062    0.0000 C   0  0  0  0  0  0  0  0  0  0  0  0
    5.6014   -7.8312    0.0000 C   0  0  0  0  0  0  0  0  0  0  0  0
    6.3159   -8.2437    0.0000 C   0  0  0  0  0  0  0  0  0  0  0  0
    7.0303   -7.8312    0.0000 C   0  0  0  0  0  0  0  0  0  0  0  0
    9.1249   -7.4187    0.0000 O   0  0  0  0  0  0  0  0  0  0  0  0
  1  2  1  0  0  0  0
  2  3  1  0  0  0  0
  3  4  1  0  0  0  0
  4  5  1  0  0  0  0
  5  6  2  0  0  0  0
  6  7  1  0  0  0  0
  7  8  2  0  0  0  0
  8  9  1  0  0  0  0
  1  9  1  0  0  0  0
  4  9  2  0  0  0  0
  2 10  2  0  0  0  0
M  END
>  <cdx:groupId>
1024

>  <cdx:fragmentId>
996

$$$$
