321775.cdx
  Mrv1902 05222410272D          

 24 26  0  0  0  0            999 V2000
    5.1299   -6.5257    0.0000 C   0  0  0  0  0  0  0  0  0  0  0  0
    5.1261   -7.3507    0.0000 C   0  0  0  0  0  0  0  0  0  0  0  0
    4.4097   -7.7598    0.0000 C   0  0  0  0  0  0  0  0  0  0  0  0
    3.6971   -7.3440    0.0000 C   0  0  0  0  0  0  0  0  0  0  0  0
    5.1376   -4.8757    0.0000 O   0  0  0  0  0  0  0  0  0  0  0  0
   11.5735   -3.6681    0.0000 O   0  0  0  0  0  0  0  0  0  0  0  0
    9.4282   -4.0706    0.0000 C   0  0  0  0  0  0  0  0  0  0  0  0
   10.1446   -3.6615    0.0000 C   0  0  0  0  0  0  0  0  0  0  0  0
   10.8571   -4.0773    0.0000 C   0  0  0  0  0  0  0  0  0  0  0  0
   10.8533   -4.9023    0.0000 C   0  0  0  0  0  0  0  0  0  0  0  0
   10.1369   -5.3114    0.0000 C   0  0  0  0  0  0  0  0  0  0  0  0
    9.4244   -4.8956    0.0000 C   0  0  0  0  0  0  0  0  0  0  0  0
    4.4058   -8.5848    0.0000 C   0  0  0  0  0  0  0  0  0  0  0  0
    7.9839   -7.3640    0.0000 O   0  0  0  0  0  0  0  0  0  0  0  0
    7.9954   -4.8890    0.0000 O   0  0  0  0  0  0  0  0  0  0  0  0
    7.2790   -5.2982    0.0000 C   0  0  0  0  0  0  0  0  0  0  0  0
    6.5665   -4.8823    0.0000 C   0  0  0  0  0  0  0  0  0  0  0  0
    5.8501   -5.2915    0.0000 C   0  0  0  0  0  0  0  0  0  0  0  0
    5.8463   -6.1165    0.0000 C   0  0  0  0  0  0  0  0  0  0  0  0
    6.5588   -6.5323    0.0000 C   0  0  0  0  0  0  0  0  0  0  0  0
    7.2752   -6.1231    0.0000 C   0  0  0  0  0  0  0  0  0  0  0  0
    7.9878   -6.5390    0.0000 C   0  0  0  0  0  0  0  0  0  0  0  0
    8.7041   -6.1298    0.0000 C   0  0  0  0  0  0  0  0  0  0  0  0
    8.7080   -5.3048    0.0000 C   0  0  1  0  0  0  0  0  0  0  0  0
 18  5  1  0  0  0  0
 24 12  1  6  0  0  0
  9  6  1  0  0  0  0
 12  7  2  0  0  0  0
  8  7  1  0  0  0  0
  9  8  2  0  0  0  0
 10  9  1  0  0  0  0
 11 10  2  0  0  0  0
 12 11  1  0  0  0  0
 19  1  1  0  0  0  0
 22 14  2  0  0  0  0
 24 15  1  0  0  0  0
 16 15  1  0  0  0  0
 21 16  2  0  0  0  0
 17 16  1  0  0  0  0
 18 17  2  0  0  0  0
 19 18  1  0  0  0  0
 20 19  2  0  0  0  0
 21 20  1  0  0  0  0
 22 21  1  0  0  0  0
 23 22  1  0  0  0  0
 24 23  1  0  0  0  0
  1  2  1  0  0  0  0
  2  3  2  0  0  0  0
  3  4  1  0  0  0  0
  3 13  1  0  0  0  0
M  END
>  <cdx:groupId>
76

>  <cdx:fragmentId>
5

$$$$
