321809.cdx
  Mrv1902 05222410262D          

 27 28  0  0  0  0            999 V2000
    7.6327   -5.6585    0.0000 C   0  0  0  0  0  0  0  0  0  0  0  0
    6.9183   -6.0710    0.0000 C   0  0  0  0  0  0  0  0  0  0  0  0
    6.2038   -5.6585    0.0000 C   0  0  0  0  0  0  0  0  0  0  0  0
    7.6327   -4.8335    0.0000 O   0  0  0  0  0  0  0  0  0  0  0  0
    8.3472   -6.0710    0.0000 O   0  0  0  0  0  0  0  0  0  0  0  0
    5.4893   -6.0710    0.0000 C   0  0  0  0  0  0  0  0  0  0  0  0
    4.7749   -5.6585    0.0000 C   0  0  0  0  0  0  0  0  0  0  0  0
    4.0604   -6.0710    0.0000 C   0  0  0  0  0  0  0  0  0  0  0  0
    4.0604   -6.8960    0.0000 C   0  0  0  0  0  0  0  0  0  0  0  0
    4.7749   -7.3085    0.0000 C   0  0  0  0  0  0  0  0  0  0  0  0
    5.4893   -6.8960    0.0000 C   0  0  0  0  0  0  0  0  0  0  0  0
    4.7749   -8.1335    0.0000 O   0  0  0  0  0  0  0  0  0  0  0  0
    4.0604   -8.5460    0.0000 C   0  0  0  0  0  0  0  0  0  0  0  0
    3.3459   -7.3085    0.0000 O   0  0  0  0  0  0  0  0  0  0  0  0
    2.6315   -6.8960    0.0000 C   0  0  0  0  0  0  0  0  0  0  0  0
    3.3459   -5.6585    0.0000 O   0  0  0  0  0  0  0  0  0  0  0  0
    2.6315   -6.0710    0.0000 C   0  0  0  0  0  0  0  0  0  0  0  0
    9.0617   -5.6585    0.0000 C   0  0  0  0  0  0  0  0  0  0  0  0
   10.4906   -5.6585    0.0000 O   0  0  0  0  0  0  0  0  0  0  0  0
    9.7762   -6.0710    0.0000 C   0  0  1  0  0  0  0  0  0  0  0  0
    9.7762   -6.8960    0.0000 C   0  0  2  0  0  0  0  0  0  0  0  0
   10.4906   -7.3085    0.0000 C   0  0  1  0  0  0  0  0  0  0  0  0
   11.2051   -6.8960    0.0000 C   0  0  2  0  0  0  0  0  0  0  0  0
   11.2051   -6.0710    0.0000 C   0  0  0  0  0  0  0  0  0  0  0  0
   11.9196   -7.3085    0.0000 O   0  0  0  0  0  0  0  0  0  0  0  0
   10.4906   -8.1335    0.0000 O   0  0  0  0  0  0  0  0  0  0  0  0
    9.0617   -7.3085    0.0000 O   0  0  0  0  0  0  0  0  0  0  0  0
  1  2  1  0  0  0  0
  2  3  2  0  0  0  0
  1  4  2  0  0  0  0
  1  5  1  0  0  0  0
  6  7  1  0  0  0  0
  7  8  2  0  0  0  0
  8  9  1  0  0  0  0
  9 10  2  0  0  0  0
 10 11  1  0  0  0  0
  6 11  2  0  0  0  0
 12 13  1  0  0  0  0
 10 12  1  0  0  0  0
 14 15  1  0  0  0  0
  9 14  1  0  0  0  0
 16 17  1  0  0  0  0
  8 16  1  0  0  0  0
  3  6  1  0  0  0  0
 19 20  1  0  0  0  0
 20 21  1  0  0  0  0
 21 22  1  0  0  0  0
 22 23  1  0  0  0  0
 23 24  1  0  0  0  0
 19 24  1  0  0  0  0
 23 25  1  6  0  0  0
 22 26  1  1  0  0  0
 21 27  1  6  0  0  0
 20 18  1  1  0  0  0
  5 18  1  0  0  0  0
M  END
>  <cdx:fragmentId>
15

$$$$
