321800.cdx
  Mrv1902 05222410182D          

 24 26  0  0  0  0            999 V2000
    7.1992   -6.1621    0.0000 O   0  0  0  0  0  0  0  0  0  0  0  0
    2.8018   -6.5746    0.0000 C   0  0  0  0  0  0  0  0  0  0  0  0
    3.2143   -5.8602    0.0000 C   0  0  0  0  0  0  0  0  0  0  0  0
    4.3413   -6.1621    0.0000 O   0  0  0  0  0  0  0  0  0  0  0  0
    5.0557   -6.5746    0.0000 C   0  0  0  0  0  0  0  0  0  0  0  0
    5.7702   -6.1621    0.0000 C   0  0  0  0  0  0  0  0  0  0  0  0
    6.4847   -6.5746    0.0000 C   0  0  0  0  0  0  0  0  0  0  0  0
    6.4847   -7.3996    0.0000 C   0  0  0  0  0  0  0  0  0  0  0  0
    5.7702   -7.8121    0.0000 C   0  0  0  0  0  0  0  0  0  0  0  0
    5.0557   -7.3996    0.0000 C   0  0  0  0  0  0  0  0  0  0  0  0
    4.3413   -7.8121    0.0000 C   0  0  0  0  0  0  0  0  0  0  0  0
    3.6268   -7.3996    0.0000 C   0  0  0  0  0  0  0  0  0  0  0  0
    3.6268   -6.5746    0.0000 C   0  0  0  0  0  0  0  0  0  0  0  0
   11.4860   -6.1621    0.0000 O   0  0  0  0  0  0  0  0  0  0  0  0
    9.3426   -6.5746    0.0000 C   0  0  0  0  0  0  0  0  0  0  0  0
   10.0570   -6.1621    0.0000 C   0  0  0  0  0  0  0  0  0  0  0  0
   10.7715   -6.5746    0.0000 C   0  0  0  0  0  0  0  0  0  0  0  0
   10.7715   -7.3996    0.0000 C   0  0  0  0  0  0  0  0  0  0  0  0
   10.0570   -7.8121    0.0000 C   0  0  0  0  0  0  0  0  0  0  0  0
    9.3426   -7.3996    0.0000 C   0  0  0  0  0  0  0  0  0  0  0  0
    7.1992   -8.6371    0.0000 O   0  0  0  0  0  0  0  0  0  0  0  0
    8.6281   -7.8121    0.0000 C   0  0  0  0  0  0  0  0  0  0  0  0
    7.9136   -7.3996    0.0000 C   0  0  0  0  0  0  0  0  0  0  0  0
    7.1992   -7.8121    0.0000 C   0  0  0  0  0  0  0  0  0  0  0  0
 24  8  1  0  0  0  0
  7  1  1  0  0  0  0
 13  2  1  0  0  0  0
 13  3  1  0  0  0  0
 13  4  1  0  0  0  0
  5  4  1  0  0  0  0
 10  5  2  0  0  0  0
  6  5  1  0  0  0  0
  7  6  2  0  0  0  0
  8  7  1  0  0  0  0
  9  8  2  0  0  0  0
 10  9  1  0  0  0  0
 11 10  1  0  0  0  0
 12 11  2  0  0  0  0
 13 12  1  0  0  0  0
 22 20  1  0  0  0  0
 17 14  1  0  0  0  0
 20 15  2  0  0  0  0
 16 15  1  0  0  0  0
 17 16  2  0  0  0  0
 18 17  1  0  0  0  0
 19 18  2  0  0  0  0
 20 19  1  0  0  0  0
 24 21  2  0  0  0  0
 23 22  2  0  0  0  0
 24 23  1  0  0  0  0
M  END
>  <cdx:groupId>
20432

>  <cdx:fragmentId>
20383

$$$$
