321865.cdx
  Mrv1902 05222410222D          

 21 23  0  0  0  0            999 V2000
    8.2157   -6.2628    0.0000 C   0  0  0  0  0  0  0  0  0  0  0  0
    8.2157   -7.0878    0.0000 C   0  0  0  0  0  0  0  0  0  0  0  0
    7.5013   -7.5003    0.0000 C   0  0  0  0  0  0  0  0  0  0  0  0
    7.5013   -8.3253    0.0000 O   0  0  0  0  0  0  0  0  0  0  0  0
    6.7868   -7.0878    0.0000 C   0  0  0  0  0  0  0  0  0  0  0  0
    6.0723   -7.5003    0.0000 C   0  0  0  0  0  0  0  0  0  0  0  0
    5.3578   -7.0878    0.0000 C   0  0  0  0  0  0  0  0  0  0  0  0
    5.3578   -6.2628    0.0000 C   0  0  0  0  0  0  0  0  0  0  0  0
    6.0723   -5.8503    0.0000 C   0  0  0  0  0  0  0  0  0  0  0  0
    6.7868   -6.2628    0.0000 C   0  0  0  0  0  0  0  0  0  0  0  0
    7.5013   -5.8503    0.0000 O   0  0  0  0  0  0  0  0  0  0  0  0
    8.9302   -5.8503    0.0000 C   0  0  0  0  0  0  0  0  0  0  0  0
    8.9302   -5.0253    0.0000 C   0  0  0  0  0  0  0  0  0  0  0  0
    9.6447   -4.6128    0.0000 C   0  0  0  0  0  0  0  0  0  0  0  0
   10.3591   -5.0253    0.0000 C   0  0  0  0  0  0  0  0  0  0  0  0
   10.3591   -5.8503    0.0000 C   0  0  0  0  0  0  0  0  0  0  0  0
    9.6447   -6.2628    0.0000 C   0  0  0  0  0  0  0  0  0  0  0  0
    9.6447   -7.0878    0.0000 O   0  0  0  0  0  0  0  0  0  0  0  0
    8.2157   -4.6128    0.0000 O   0  0  0  0  0  0  0  0  0  0  0  0
    4.6434   -5.8503    0.0000 O   0  0  0  0  0  0  0  0  0  0  0  0
    6.0723   -8.3253    0.0000 O   0  0  0  0  0  0  0  0  0  0  0  0
  1  2  2  0  0  0  0
  2  3  1  0  0  0  0
  3  4  2  0  0  0  0
  3  5  1  0  0  0  0
  5  6  1  0  0  0  0
  6  7  2  0  0  0  0
  7  8  1  0  0  0  0
  8  9  2  0  0  0  0
  9 10  1  0  0  0  0
  5 10  2  0  0  0  0
 10 11  1  0  0  0  0
  1 11  1  0  0  0  0
  1 12  1  0  0  0  0
 12 13  1  0  0  0  0
 13 14  2  0  0  0  0
 14 15  1  0  0  0  0
 15 16  2  0  0  0  0
 16 17  1  0  0  0  0
 12 17  2  0  0  0  0
 17 18  1  0  0  0  0
 13 19  1  0  0  0  0
  8 20  1  0  0  0  0
  6 21  1  0  0  0  0
M  END
>  <cdx:fragmentId>
20775

$$$$
