321844.cdx
  Mrv1902 05222410242D          

 21 20  0  0  0  0            999 V2000
    9.9764   -8.7224    0.0000 C   0  0  0  0  0  0  0  0  0  0  0  0
    9.2619   -9.1349    0.0000 C   0  0  0  0  0  0  0  0  0  0  0  0
    8.5474   -8.7224    0.0000 C   0  0  0  0  0  0  0  0  0  0  0  0
    7.8330   -9.1349    0.0000 C   0  0  0  0  0  0  0  0  0  0  0  0
    7.1185   -8.7224    0.0000 C   0  0  0  0  0  0  0  0  0  0  0  0
    6.4040   -9.1349    0.0000 C   0  0  0  0  0  0  0  0  0  0  0  0
    5.6896   -8.7224    0.0000 C   0  0  0  0  0  0  0  0  0  0  0  0
    4.9751   -9.1349    0.0000 C   0  0  0  0  0  0  0  0  0  0  0  0
    4.2606   -8.7224    0.0000 C   0  0  0  0  0  0  0  0  0  0  0  0
    3.5461   -9.1349    0.0000 C   0  0  0  0  0  0  0  0  0  0  0  0
    2.8317   -8.7224    0.0000 C   0  0  0  0  0  0  0  0  0  0  0  0
    2.1172   -9.1349    0.0000 C   0  0  0  0  0  0  0  0  0  0  0  0
    1.4027   -8.7224    0.0000 C   0  0  0  0  0  0  0  0  0  0  0  0
    0.6883   -9.1349    0.0000 C   0  0  0  0  0  0  0  0  0  0  0  0
    9.9764   -7.8974    0.0000 O   0  0  0  0  0  0  0  0  0  0  0  0
   10.6909   -9.1349    0.0000 N   0  0  0  0  0  0  0  0  0  0  0  0
   11.4053   -8.7224    0.0000 C   0  0  0  0  0  0  0  0  0  0  0  0
   12.1198   -9.1349    0.0000 C   0  0  0  0  0  0  0  0  0  0  0  0
   12.8343   -8.7224    0.0000 C   0  0  0  0  0  0  0  0  0  0  0  0
   12.1198   -9.9599    0.0000 C   0  0  0  0  0  0  0  0  0  0  0  0
   12.8343   -9.5474    0.0000 O   0  0  0  0  0  0  0  0  0  0  0  0
  1  2  1  0  0  0  0
  2  3  2  0  0  0  0
  3  4  1  0  0  0  0
  4  5  2  0  0  0  0
  5  6  1  0  0  0  0
  6  7  1  0  0  0  0
  7  8  1  0  0  0  0
  8  9  1  0  0  0  0
  9 10  1  0  0  0  0
 10 11  1  0  0  0  0
 11 12  1  0  0  0  0
 12 13  1  0  0  0  0
 13 14  1  0  0  0  0
  1 15  2  0  0  0  0
  1 16  1  0  0  0  0
 17 18  1  0  0  0  0
 18 19  1  0  0  0  0
 18 20  1  0  0  0  0
 18 21  1  0  0  0  0
 16 17  1  0  0  0  0
M  END
>  <cdx:groupId>
101958

>  <cdx:fragmentId>
101899

$$$$
