321824.cdx
  Mrv1902 05222410282D          

 24 25  0  0  0  0            999 V2000
    7.0695   -9.9478    0.0000 C   0  0  0  0  0  0  0  0  0  0  0  0
    6.3550  -10.3603    0.0000 C   0  0  0  0  0  0  0  0  0  0  0  0
    5.6405   -9.9478    0.0000 C   0  0  0  0  0  0  0  0  0  0  0  0
    7.0695   -9.1228    0.0000 O   0  0  0  0  0  0  0  0  0  0  0  0
    7.7839  -10.3603    0.0000 N   0  0  0  0  0  0  0  0  0  0  0  0
    8.4984   -9.9478    0.0000 C   0  0  0  0  0  0  0  0  0  0  0  0
    9.2129  -10.3603    0.0000 C   0  0  0  0  0  0  0  0  0  0  0  0
    9.2129  -11.1853    0.0000 O   0  0  0  0  0  0  0  0  0  0  0  0
    9.9273   -9.9478    0.0000 C   0  0  0  0  0  0  0  0  0  0  0  0
    9.9273   -9.1228    0.0000 C   0  0  0  0  0  0  0  0  0  0  0  0
   10.6418   -8.7103    0.0000 C   0  0  0  0  0  0  0  0  0  0  0  0
   11.3563   -9.1228    0.0000 C   0  0  0  0  0  0  0  0  0  0  0  0
   11.3563   -9.9478    0.0000 C   0  0  0  0  0  0  0  0  0  0  0  0
   10.6418  -10.3603    0.0000 C   0  0  0  0  0  0  0  0  0  0  0  0
   12.0708   -8.7103    0.0000 O   0  0  0  0  0  0  0  0  0  0  0  0
    4.9260  -10.3603    0.0000 C   0  0  0  0  0  0  0  0  0  0  0  0
    4.2116   -9.9478    0.0000 C   0  0  0  0  0  0  0  0  0  0  0  0
    3.4971  -10.3603    0.0000 C   0  0  0  0  0  0  0  0  0  0  0  0
    3.4971  -11.1853    0.0000 C   0  0  0  0  0  0  0  0  0  0  0  0
    4.2116  -11.5978    0.0000 C   0  0  0  0  0  0  0  0  0  0  0  0
    4.9260  -11.1853    0.0000 C   0  0  0  0  0  0  0  0  0  0  0  0
    2.7826   -9.9478    0.0000 O   0  0  0  0  0  0  0  0  0  0  0  0
    2.0682  -10.3603    0.0000 C   0  0  0  0  0  0  0  0  0  0  0  0
    2.7826  -11.5978    0.0000 O   0  0  0  0  0  0  0  0  0  0  0  0
  1  2  1  0  0  0  0
  2  3  2  0  0  0  0
  1  4  2  0  0  0  0
  1  5  1  0  0  0  0
  6  7  1  0  0  0  0
  7  8  2  0  0  0  0
  9 10  1  0  0  0  0
 10 11  2  0  0  0  0
 11 12  1  0  0  0  0
 12 13  2  0  0  0  0
 13 14  1  0  0  0  0
  9 14  2  0  0  0  0
 12 15  1  0  0  0  0
  7  9  1  0  0  0  0
  5  6  1  0  0  0  0
 16 17  1  0  0  0  0
 17 18  2  0  0  0  0
 18 19  1  0  0  0  0
 19 20  2  0  0  0  0
 20 21  1  0  0  0  0
 16 21  2  0  0  0  0
 22 23  1  0  0  0  0
 18 22  1  0  0  0  0
 19 24  1  0  0  0  0
  3 16  1  0  0  0  0
M  END
>  <cdx:groupId>
20694

>  <cdx:fragmentId>
20640

$$$$
