321820.cdx
  Mrv1902 05222410262D          

 26 30  0  0  0  0            999 V2000
    3.6950   -8.6617    0.0000 O   0  0  0  0  0  0  0  0  0  0  0  0
   11.6220   -4.6009    0.0000 O   0  0  0  0  0  0  0  0  0  0  0  0
   11.2862   -5.6628    0.0000 C   0  0  0  0  0  0  0  0  0  0  0  0
   10.8737   -4.9483    0.0000 C   0  0  0  0  0  0  0  0  0  0  0  0
   10.4612   -4.2339    0.0000 C   0  0  0  0  0  0  0  0  0  0  0  0
    7.9813   -8.5940    0.0000 O   0  0  0  0  0  0  0  0  0  0  0  0
    7.2604   -8.1928    0.0000 C   0  0  0  0  0  0  0  0  0  0  0  0
    6.5525   -8.6166    0.0000 O   0  0  0  0  0  0  0  0  0  0  0  0
    5.8316   -8.2154    0.0000 C   0  0  0  0  0  0  0  0  0  0  0  0
    5.1237   -8.6392    0.0000 C   0  0  0  0  0  0  0  0  0  0  0  0
    4.4028   -8.2380    0.0000 C   0  0  0  0  0  0  0  0  0  0  0  0
    4.3898   -7.4131    0.0000 C   0  0  0  0  0  0  0  0  0  0  0  0
    5.0977   -6.9894    0.0000 C   0  0  0  0  0  0  0  0  0  0  0  0
    5.8186   -7.3905    0.0000 C   0  0  0  0  0  0  0  0  0  0  0  0
    6.5264   -6.9668    0.0000 C   0  0  0  0  0  0  0  0  0  0  0  0
    6.6852   -6.1572    0.0000 O   0  0  0  0  0  0  0  0  0  0  0  0
    7.5042   -6.0580    0.0000 C   0  0  0  0  0  0  0  0  0  0  0  0
    7.9785   -5.3830    0.0000 C   0  0  0  0  0  0  0  0  0  0  0  0
    8.8003   -5.4562    0.0000 C   0  0  0  0  0  0  0  0  0  0  0  0
    9.4045   -4.8946    0.0000 O   0  0  0  0  0  0  0  0  0  0  0  0
   10.1254   -5.2958    0.0000 C   0  0  0  0  0  0  0  0  0  0  0  0
    9.9667   -6.1053    0.0000 C   0  0  0  0  0  0  0  0  0  0  0  0
    9.1477   -6.2045    0.0000 C   0  0  0  0  0  0  0  0  0  0  0  0
    8.6734   -6.8795    0.0000 C   0  0  0  0  0  0  0  0  0  0  0  0
    7.8516   -6.8063    0.0000 C   0  0  0  0  0  0  0  0  0  0  0  0
    7.2473   -7.3679    0.0000 C   0  0  0  0  0  0  0  0  0  0  0  0
 11  1  1  0  0  0  0
 21  4  1  0  0  0  0
  4  2  1  0  0  0  0
  4  3  1  0  0  0  0
  5  4  1  0  0  0  0
  7  6  2  0  0  0  0
 23 19  1  0  0  0  0
 25 17  2  0  0  0  0
 14  9  2  0  0  0  0
 26 15  2  0  0  0  0
 26  7  1  0  0  0  0
  8  7  1  0  0  0  0
  9  8  1  0  0  0  0
 10  9  1  0  0  0  0
 11 10  2  0  0  0  0
 12 11  1  0  0  0  0
 13 12  2  0  0  0  0
 14 13  1  0  0  0  0
 15 14  1  0  0  0  0
 16 15  1  0  0  0  0
 17 16  1  0  0  0  0
 18 17  1  0  0  0  0
 19 18  2  0  0  0  0
 20 19  1  0  0  0  0
 21 20  1  0  0  0  0
 22 21  1  0  0  0  0
 23 22  1  0  0  0  0
 24 23  2  0  0  0  0
 25 24  1  0  0  0  0
 26 25  1  0  0  0  0
M  END
>  <cdx:groupId>
20613

>  <cdx:fragmentId>
20534

$$$$
