321811.cdx
  Mrv1902 05222410202D          

 26 30  0  0  0  0            999 V2000
   11.0684   -6.3307    0.0000 O   0  0  0  0  0  0  0  0  0  0  0  0
    3.4701   -9.2449    0.0000 O   0  0  0  0  0  0  0  0  0  0  0  0
    9.9881   -4.6772    0.0000 C   0  0  0  0  0  0  0  0  0  0  0  0
   10.6586   -5.1578    0.0000 C   0  0  0  0  0  0  0  0  0  0  0  0
    7.7569   -9.2176    0.0000 O   0  0  0  0  0  0  0  0  0  0  0  0
    7.0398   -8.8097    0.0000 C   0  0  0  0  0  0  0  0  0  0  0  0
    6.3280   -9.2267    0.0000 O   0  0  0  0  0  0  0  0  0  0  0  0
    5.6109   -8.8188    0.0000 C   0  0  0  0  0  0  0  0  0  0  0  0
    4.8991   -9.2358    0.0000 C   0  0  0  0  0  0  0  0  0  0  0  0
    4.1820   -8.8279    0.0000 C   0  0  0  0  0  0  0  0  0  0  0  0
    4.1767   -8.0029    0.0000 C   0  0  0  0  0  0  0  0  0  0  0  0
    4.8885   -7.5859    0.0000 C   0  0  0  0  0  0  0  0  0  0  0  0
    5.6056   -7.9938    0.0000 C   0  0  0  0  0  0  0  0  0  0  0  0
    6.3174   -7.5767    0.0000 C   0  0  0  0  0  0  0  0  0  0  0  0
    6.4838   -6.7687    0.0000 O   0  0  0  0  0  0  0  0  0  0  0  0
    7.3037   -6.6772    0.0000 C   0  0  0  0  0  0  0  0  0  0  0  0
    7.7844   -6.0067    0.0000 C   0  0  0  0  0  0  0  0  0  0  0  0
    8.6054   -6.0877    0.0000 C   0  0  0  0  0  0  0  0  0  0  0  0
    9.0861   -5.4172    0.0000 O   0  0  0  0  0  0  0  0  0  0  0  0
    9.9071   -5.4982    0.0000 C   0  0  0  0  0  0  0  0  0  0  0  0
   10.2474   -6.2497    0.0000 C   0  0  0  0  0  0  0  0  0  0  0  0
    9.7668   -6.9202    0.0000 C   0  0  0  0  0  0  0  0  0  0  0  0
    8.9458   -6.8392    0.0000 C   0  0  0  0  0  0  0  0  0  0  0  0
    8.4651   -7.5097    0.0000 C   0  0  0  0  0  0  0  0  0  0  0  0
    7.6441   -7.4287    0.0000 C   0  0  0  0  0  0  0  0  0  0  0  0
    7.0345   -7.9847    0.0000 C   0  0  0  0  0  0  0  0  0  0  0  0
 21  1  1  0  0  0  0
 10  2  1  0  0  0  0
 20  3  1  0  0  0  0
 20  4  1  0  0  0  0
  6  5  2  0  0  0  0
 23 18  1  0  0  0  0
 25 16  2  0  0  0  0
 13  8  2  0  0  0  0
 26 14  2  0  0  0  0
 26  6  1  0  0  0  0
  7  6  1  0  0  0  0
  8  7  1  0  0  0  0
  9  8  1  0  0  0  0
 10  9  2  0  0  0  0
 11 10  1  0  0  0  0
 12 11  2  0  0  0  0
 13 12  1  0  0  0  0
 14 13  1  0  0  0  0
 15 14  1  0  0  0  0
 16 15  1  0  0  0  0
 17 16  1  0  0  0  0
 18 17  2  0  0  0  0
 19 18  1  0  0  0  0
 20 19  1  0  0  0  0
 21 20  1  0  0  0  0
 22 21  1  0  0  0  0
 23 22  1  0  0  0  0
 24 23  2  0  0  0  0
 25 24  1  0  0  0  0
 26 25  1  0  0  0  0
M  END
>  <cdx:groupId>
20522

>  <cdx:fragmentId>
20443

$$$$
