321977.cdx
  Mrv1902 05222410182D          

 18 19  0  0  0  0            999 V2000
    9.8297   -5.0353    0.0000 C   0  0  0  0  0  0  0  0  0  0  0  0
   10.5441   -5.4478    0.0000 C   0  0  0  0  0  0  0  0  0  0  0  0
    8.4007   -5.0353    0.0000 C   0  0  0  0  0  0  0  0  0  0  0  0
    9.1152   -5.4478    0.0000 C   0  0  0  0  0  0  0  0  0  0  0  0
    9.1152   -6.2728    0.0000 C   0  0  0  0  0  0  0  0  0  0  0  0
    8.4007   -6.6853    0.0000 C   0  0  0  0  0  0  0  0  0  0  0  0
    7.6863   -6.2728    0.0000 C   0  0  0  0  0  0  0  0  0  0  0  0
    6.9718   -6.6853    0.0000 C   0  0  0  0  0  0  0  0  0  0  0  0
    6.2573   -6.2728    0.0000 C   0  0  0  0  0  0  0  0  0  0  0  0
    6.2573   -5.4478    0.0000 C   0  0  0  0  0  0  0  0  0  0  0  0
    6.9718   -5.0353    0.0000 C   0  0  0  0  0  0  0  0  0  0  0  0
    7.6863   -5.4478    0.0000 C   0  0  0  0  0  0  0  0  0  0  0  0
    9.8297   -6.6853    0.0000 C   0  0  0  0  0  0  0  0  0  0  0  0
    5.5428   -6.6853    0.0000 O   0  0  0  0  0  0  0  0  0  0  0  0
    4.8284   -6.2728    0.0000 C   0  0  0  0  0  0  0  0  0  0  0  0
    6.9718   -4.2103    0.0000 O   0  0  0  0  0  0  0  0  0  0  0  0
    8.4007   -4.2103    0.0000 O   0  0  0  0  0  0  0  0  0  0  0  0
    9.8297   -4.2103    0.0000 O   0  0  0  0  0  0  0  0  0  0  0  0
  1  2  1  0  0  0  0
  3  4  2  0  0  0  0
  4  5  1  0  0  0  0
  5  6  2  0  0  0  0
  6  7  1  0  0  0  0
  7  8  1  0  0  0  0
  8  9  2  0  0  0  0
  9 10  1  0  0  0  0
 10 11  2  0  0  0  0
 11 12  1  0  0  0  0
  3 12  1  0  0  0  0
  7 12  2  0  0  0  0
  5 13  1  0  0  0  0
 14 15  1  0  0  0  0
  9 14  1  0  0  0  0
 11 16  1  0  0  0  0
  3 17  1  0  0  0  0
  1  4  1  0  0  0  0
  1 18  2  0  0  0  0
M  END
>  <cdx:fragmentId>
21054

$$$$
