322064.cdx
  Mrv1902 05222410182D          

 20 22  0  0  0  0            999 V2000
    8.3532   -6.2628    0.0000 C   0  0  0  0  0  0  0  0  0  0  0  0
    8.3532   -7.0878    0.0000 C   0  0  0  0  0  0  0  0  0  0  0  0
    7.6388   -7.5003    0.0000 C   0  0  0  0  0  0  0  0  0  0  0  0
    7.6388   -8.3253    0.0000 O   0  0  0  0  0  0  0  0  0  0  0  0
    6.9243   -7.0878    0.0000 C   0  0  0  0  0  0  0  0  0  0  0  0
    6.2098   -7.5003    0.0000 C   0  0  0  0  0  0  0  0  0  0  0  0
    5.4953   -7.0878    0.0000 C   0  0  0  0  0  0  0  0  0  0  0  0
    5.4953   -6.2628    0.0000 C   0  0  0  0  0  0  0  0  0  0  0  0
    6.2098   -5.8503    0.0000 C   0  0  0  0  0  0  0  0  0  0  0  0
    6.9243   -6.2628    0.0000 C   0  0  0  0  0  0  0  0  0  0  0  0
    7.6388   -5.8503    0.0000 O   0  0  0  0  0  0  0  0  0  0  0  0
    4.7809   -5.8503    0.0000 O   0  0  0  0  0  0  0  0  0  0  0  0
    6.2098   -8.3253    0.0000 O   0  0  0  0  0  0  0  0  0  0  0  0
    9.7822   -7.0878    0.0000 O   0  0  0  0  0  0  0  0  0  0  0  0
    9.0677   -5.0253    0.0000 C   0  0  0  0  0  0  0  0  0  0  0  0
    9.7822   -4.6128    0.0000 C   0  0  0  0  0  0  0  0  0  0  0  0
   10.4966   -5.0253    0.0000 C   0  0  0  0  0  0  0  0  0  0  0  0
   10.4966   -5.8503    0.0000 C   0  0  0  0  0  0  0  0  0  0  0  0
    9.7822   -6.2628    0.0000 C   0  0  0  0  0  0  0  0  0  0  0  0
    9.0677   -5.8503    0.0000 C   0  0  0  0  0  0  0  0  0  0  0  0
 19 14  1  0  0  0  0
 20 15  2  0  0  0  0
 16 15  1  0  0  0  0
 17 16  2  0  0  0  0
 18 17  1  0  0  0  0
 19 18  2  0  0  0  0
 20 19  1  0  0  0  0
  1  2  2  0  0  0  0
  2  3  1  0  0  0  0
  3  4  2  0  0  0  0
  3  5  1  0  0  0  0
  5  6  1  0  0  0  0
  6  7  2  0  0  0  0
  7  8  1  0  0  0  0
  8  9  2  0  0  0  0
  9 10  1  0  0  0  0
  5 10  2  0  0  0  0
 10 11  1  0  0  0  0
  1 11  1  0  0  0  0
  1 20  1  0  0  0  0
  8 12  1  0  0  0  0
  6 13  1  0  0  0  0
M  END
>  <cdx:fragmentId>
21219

$$$$
