5322074.cdx
  Mrv1902 05222410202D          

 22 24  0  0  0  0            999 V2000
   15.8689   -8.2428    0.0000 C   0  0  0  0  0  0  0  0  0  0  0  0
   15.8689   -9.0678    0.0000 C   0  0  0  0  0  0  0  0  0  0  0  0
   15.1545   -9.4803    0.0000 C   0  0  0  0  0  0  0  0  0  0  0  0
   15.1545  -10.3053    0.0000 O   0  0  0  0  0  0  0  0  0  0  0  0
   14.4400   -9.0678    0.0000 C   0  0  0  0  0  0  0  0  0  0  0  0
   13.7255   -9.4803    0.0000 C   0  0  0  0  0  0  0  0  0  0  0  0
   13.7255  -10.3053    0.0000 O   0  0  0  0  0  0  0  0  0  0  0  0
   13.0111   -9.0678    0.0000 C   0  0  0  0  0  0  0  0  0  0  0  0
   13.0111   -8.2428    0.0000 C   0  0  0  0  0  0  0  0  0  0  0  0
   12.2966   -7.8303    0.0000 O   0  0  0  0  0  0  0  0  0  0  0  0
   13.7255   -7.8303    0.0000 C   0  0  0  0  0  0  0  0  0  0  0  0
   14.4400   -8.2428    0.0000 C   0  0  0  0  0  0  0  0  0  0  0  0
   15.1545   -7.8303    0.0000 O   0  0  0  0  0  0  0  0  0  0  0  0
   16.5834   -7.8303    0.0000 C   0  0  0  0  0  0  0  0  0  0  0  0
   16.5834   -7.0053    0.0000 C   0  0  0  0  0  0  0  0  0  0  0  0
   17.2979   -6.5928    0.0000 C   0  0  0  0  0  0  0  0  0  0  0  0
   18.0123   -7.0053    0.0000 C   0  0  0  0  0  0  0  0  0  0  0  0
   18.7268   -6.5928    0.0000 O   0  0  0  0  0  0  0  0  0  0  0  0
   18.0123   -7.8303    0.0000 C   0  0  0  0  0  0  0  0  0  0  0  0
   17.2979   -8.2428    0.0000 C   0  0  0  0  0  0  0  0  0  0  0  0
   12.2966   -9.4803    0.0000 O   0  0  0  0  0  0  0  0  0  0  0  0
   11.5821   -9.0678    0.0000 C   0  0  0  0  0  0  0  0  0  0  0  0
  1  2  1  0  0  0  0
  2  3  1  0  0  0  0
  3  4  2  0  0  0  0
  3  5  1  0  0  0  0
  5  6  1  0  0  0  0
  6  7  1  0  0  0  0
  6  8  2  0  0  0  0
  8  9  1  0  0  0  0
  9 10  1  0  0  0  0
  9 11  2  0  0  0  0
 11 12  1  0  0  0  0
  5 12  2  0  0  0  0
 12 13  1  0  0  0  0
  1 13  1  0  0  0  0
  1 14  1  0  0  0  0
 14 15  1  0  0  0  0
 15 16  2  0  0  0  0
 16 17  1  0  0  0  0
 17 18  1  0  0  0  0
 17 19  2  0  0  0  0
 19 20  1  0  0  0  0
 14 20  2  0  0  0  0
 21 22  1  0  0  0  0
  8 21  1  0  0  0  0
M  END
>  <cdx:groupId>
21421

>  <cdx:fragmentId>
21356

$$$$
