322031.cdx
  Mrv1902 05222410242D          

 25 26  0  0  0  0            999 V2000
    3.2941  -10.4289    0.0000 C   0  0  0  0  0  0  0  0  0  0  0  0
   13.2902   -9.6044    0.0000 C   0  0  0  0  0  0  0  0  0  0  0  0
   12.5784   -9.1921    0.0000 C   0  0  0  0  0  0  0  0  0  0  0  0
   11.8638   -9.6044    0.0000 C   0  0  0  0  0  0  0  0  0  0  0  0
   11.1492   -9.1921    0.0000 C   0  0  0  0  0  0  0  0  0  0  0  0
   10.4346   -9.6044    0.0000 C   0  0  0  0  0  0  0  0  0  0  0  0
    9.7200   -9.1921    0.0000 C   0  0  0  0  0  0  0  0  0  0  0  0
    9.0081   -9.6044    0.0000 C   0  0  0  0  0  0  0  0  0  0  0  0
    8.2935   -9.1921    0.0000 C   0  0  0  0  0  0  0  0  0  0  0  0
    7.5789   -9.6044    0.0000 C   0  0  0  0  0  0  0  0  0  0  0  0
    6.8643   -9.1921    0.0000 C   0  0  0  0  0  0  0  0  0  0  0  0
    6.1497   -9.6044    0.0000 C   0  0  0  0  0  0  0  0  0  0  0  0
    5.4379   -9.1921    0.0000 C   0  0  0  0  0  0  0  0  0  0  0  0
    4.7233   -9.6044    0.0000 C   0  0  0  0  0  0  0  0  0  0  0  0
    3.2941   -7.1308    0.0000 O   0  0  0  0  0  0  0  0  0  0  0  0
    2.5795   -9.1921    0.0000 C   0  0  0  0  0  0  0  0  0  0  0  0
    1.8676   -9.6044    0.0000 C   0  0  0  0  0  0  0  0  0  0  0  0
    1.1530   -9.1921    0.0000 C   0  0  0  0  0  0  0  0  0  0  0  0
    1.1530   -8.3676    0.0000 C   0  0  0  0  0  0  0  0  0  0  0  0
    1.8676   -7.9553    0.0000 C   0  0  0  0  0  0  0  0  0  0  0  0
    2.5795   -8.3676    0.0000 C   0  0  0  0  0  0  0  0  0  0  0  0
    3.2941   -7.9553    0.0000 C   0  0  0  0  0  0  0  0  0  0  0  0
    4.0087   -8.3676    0.0000 C   0  0  0  0  0  0  0  0  0  0  0  0
    4.0087   -9.1921    0.0000 C   0  0  0  0  0  0  0  0  0  0  0  0
    3.2941   -9.6044    0.0000 N   0  0  0  0  0  0  0  0  0  0  0  0
 25  1  1  0  0  0  0
 24 14  1  0  0  0  0
  3  2  1  0  0  0  0
  4  3  1  0  0  0  0
  5  4  1  0  0  0  0
  6  5  1  0  0  0  0
  7  6  1  0  0  0  0
  8  7  1  0  0  0  0
  9  8  1  0  0  0  0
 10  9  1  0  0  0  0
 11 10  1  0  0  0  0
 12 11  1  0  0  0  0
 13 12  1  0  0  0  0
 14 13  1  0  0  0  0
 22 15  2  0  0  0  0
 21 16  2  0  0  0  0
 25 16  1  0  0  0  0
 17 16  1  0  0  0  0
 18 17  2  0  0  0  0
 19 18  1  0  0  0  0
 20 19  2  0  0  0  0
 21 20  1  0  0  0  0
 22 21  1  0  0  0  0
 23 22  1  0  0  0  0
 24 23  2  0  0  0  0
 25 24  1  0  0  0  0
M  END
>  <cdx:fragmentId>
21098

$$$$
