3220.cdx
  Mrv1902 05222410232D          

 20 22  0  0  0  0            999 V2000
    8.2328   -4.0158    0.0000 C   0  0  0  0  0  0  0  0  0  0  0  0
    8.9473   -4.4283    0.0000 C   0  0  0  0  0  0  0  0  0  0  0  0
    8.9473   -5.2533    0.0000 C   0  0  0  0  0  0  0  0  0  0  0  0
    8.2328   -5.6658    0.0000 C   0  0  0  0  0  0  0  0  0  0  0  0
    7.5184   -5.2533    0.0000 C   0  0  0  0  0  0  0  0  0  0  0  0
    6.8039   -5.6658    0.0000 C   0  0  0  0  0  0  0  0  0  0  0  0
    6.0894   -5.2533    0.0000 C   0  0  0  0  0  0  0  0  0  0  0  0
    5.3749   -5.6658    0.0000 C   0  0  0  0  0  0  0  0  0  0  0  0
    4.6605   -5.2533    0.0000 C   0  0  0  0  0  0  0  0  0  0  0  0
    4.6605   -4.4283    0.0000 C   0  0  0  0  0  0  0  0  0  0  0  0
    5.3749   -4.0158    0.0000 C   0  0  0  0  0  0  0  0  0  0  0  0
    6.0894   -4.4283    0.0000 C   0  0  0  0  0  0  0  0  0  0  0  0
    6.8039   -4.0158    0.0000 C   0  0  0  0  0  0  0  0  0  0  0  0
    7.5184   -4.4283    0.0000 C   0  0  0  0  0  0  0  0  0  0  0  0
    6.8039   -3.1908    0.0000 O   0  0  0  0  0  0  0  0  0  0  0  0
    6.8039   -6.4908    0.0000 O   0  0  0  0  0  0  0  0  0  0  0  0
    3.9460   -5.6658    0.0000 C   0  0  0  0  0  0  0  0  0  0  0  0
    5.3749   -3.1908    0.0000 O   0  0  0  0  0  0  0  0  0  0  0  0
    9.6618   -5.6658    0.0000 O   0  0  0  0  0  0  0  0  0  0  0  0
    8.2328   -3.1908    0.0000 O   0  0  0  0  0  0  0  0  0  0  0  0
  1  2  1  0  0  0  0
  2  3  2  0  0  0  0
  3  4  1  0  0  0  0
  4  5  2  0  0  0  0
  5  6  1  0  0  0  0
  6  7  1  0  0  0  0
  7  8  1  0  0  0  0
  8  9  2  0  0  0  0
  9 10  1  0  0  0  0
 10 11  2  0  0  0  0
 11 12  1  0  0  0  0
  7 12  2  0  0  0  0
 12 13  1  0  0  0  0
 13 14  1  0  0  0  0
  5 14  1  0  0  0  0
  1 14  2  0  0  0  0
 13 15  2  0  0  0  0
  6 16  2  0  0  0  0
  9 17  1  0  0  0  0
 11 18  1  0  0  0  0
  3 19  1  0  0  0  0
  1 20  1  0  0  0  0
M  END
>  <cdx:fragmentId>
5

$$$$
