32232.cdx
  Mrv1902 05222410212D          

 46 49  0  0  0  0            999 V2000
   13.7407   -7.1384    0.0000 C   0  0  0  0  0  0  0  0  0  0  0  0
   13.0263   -6.7259    0.0000 O   0  0  0  0  0  0  0  0  0  0  0  0
   13.7407   -7.9634    0.0000 C   0  0  0  0  0  0  0  0  0  0  0  0
   13.0263   -8.3759    0.0000 O   0  0  0  0  0  0  0  0  0  0  0  0
   10.8828   -7.9634    0.0000 C   0  0  0  0  0  0  0  0  0  0  0  0
   11.5973   -8.3759    0.0000 C   0  0  0  0  0  0  0  0  0  0  0  0
   12.3118   -7.9634    0.0000 C   0  0  0  0  0  0  0  0  0  0  0  0
   12.3118   -7.1384    0.0000 C   0  0  0  0  0  0  0  0  0  0  0  0
   11.5973   -6.7259    0.0000 C   0  0  0  0  0  0  0  0  0  0  0  0
   10.8828   -7.1384    0.0000 C   0  0  0  0  0  0  0  0  0  0  0  0
   10.1684   -6.7259    0.0000 C   0  0  0  0  0  0  0  0  0  0  0  0
    9.4539   -7.1384    0.0000 C   0  0  0  0  0  0  0  0  0  0  0  0
    8.7394   -6.7259    0.0000 O   0  0  0  0  0  0  0  0  0  0  0  0
    8.7394   -8.3759    0.0000 O   0  0  0  0  0  0  0  0  0  0  0  0
    5.8815   -5.9009    0.0000 O   0  0  0  0  0  0  0  0  0  0  0  0
    5.8815   -6.7259    0.0000 C   0  0  0  0  0  0  0  0  0  0  0  0
    7.3105  -10.8509    0.0000 O   0  0  0  0  0  0  0  0  0  0  0  0
    5.8815  -11.6759    0.0000 O   0  0  0  0  0  0  0  0  0  0  0  0
    4.4526  -10.8509    0.0000 O   0  0  0  0  0  0  0  0  0  0  0  0
    4.4526   -9.2009    0.0000 C   0  0  0  0  0  0  0  0  0  0  0  0
    5.1671   -9.6134    0.0000 C   0  0  1  0  0  0  0  0  0  0  0  0
    5.1671  -10.4384    0.0000 C   0  0  1  0  0  0  0  0  0  0  0  0
    5.8815  -10.8509    0.0000 C   0  0  2  0  0  0  0  0  0  0  0  0
    6.5960  -10.4384    0.0000 C   0  0  2  0  0  0  0  0  0  0  0  0
    6.5960   -9.6134    0.0000 C   0  0  1  0  0  0  0  0  0  0  0  0
    5.8815   -9.2009    0.0000 O   0  0  0  0  0  0  0  0  0  0  0  0
    7.3105   -9.2009    0.0000 O   0  0  0  0  0  0  0  0  0  0  0  0
    8.0250   -7.1384    0.0000 C   0  0  1  0  0  0  0  0  0  0  0  0
    8.0250   -7.9634    0.0000 C   0  0  1  0  0  0  0  0  0  0  0  0
    7.3105   -8.3759    0.0000 C   0  0  2  0  0  0  0  0  0  0  0  0
    6.5960   -7.9634    0.0000 C   0  0  1  0  0  0  0  0  0  0  0  0
    6.5960   -7.1384    0.0000 C   0  0  2  0  0  0  0  0  0  0  0  0
    7.3105   -6.7259    0.0000 O   0  0  0  0  0  0  0  0  0  0  0  0
    0.8802   -7.9634    0.0000 O   0  0  0  0  0  0  0  0  0  0  0  0
    0.8802   -9.6134    0.0000 O   0  0  0  0  0  0  0  0  0  0  0  0
    3.0237   -9.2009    0.0000 C   0  0  0  0  0  0  0  0  0  0  0  0
    2.3092   -9.6134    0.0000 C   0  0  0  0  0  0  0  0  0  0  0  0
    1.5947   -9.2009    0.0000 C   0  0  0  0  0  0  0  0  0  0  0  0
    1.5947   -8.3759    0.0000 C   0  0  0  0  0  0  0  0  0  0  0  0
    2.3092   -7.9634    0.0000 C   0  0  0  0  0  0  0  0  0  0  0  0
    3.0237   -8.3759    0.0000 C   0  0  0  0  0  0  0  0  0  0  0  0
    5.8815   -8.3759    0.0000 O   0  0  0  0  0  0  0  0  0  0  0  0
    5.1671   -7.1384    0.0000 O   0  0  0  0  0  0  0  0  0  0  0  0
    3.7381   -7.9634    0.0000 C   0  0  0  0  0  0  0  0  0  0  0  0
    4.4526   -8.3759    0.0000 C   0  0  0  0  0  0  0  0  0  0  0  0
    5.1671   -7.9634    0.0000 C   0  0  0  0  0  0  0  0  0  0  0  0
 31 42  1  6  0  0  0
 28 13  1  1  0  0  0
 11 10  1  0  0  0  0
  8  2  1  0  0  0  0
  2  1  1  0  0  0  0
  7  4  1  0  0  0  0
  4  3  1  0  0  0  0
 10  5  2  0  0  0  0
  6  5  1  0  0  0  0
  7  6  2  0  0  0  0
  8  7  1  0  0  0  0
  9  8  2  0  0  0  0
 10  9  1  0  0  0  0
 13 12  1  0  0  0  0
 12 11  1  0  0  0  0
 29 14  1  6  0  0  0
 32 16  1  1  0  0  0
 16 15  1  0  0  0  0
 30 27  1  1  0  0  0
 25 27  1  1  0  0  0
 24 17  1  6  0  0  0
 23 18  1  6  0  0  0
 22 19  1  1  0  0  0
 21 20  1  6  0  0  0
 26 21  1  0  0  0  0
 22 21  1  0  0  0  0
 23 22  1  0  0  0  0
 24 23  1  0  0  0  0
 25 24  1  0  0  0  0
 26 25  1  0  0  0  0
 33 28  1  0  0  0  0
 29 28  1  0  0  0  0
 30 29  1  0  0  0  0
 31 30  1  0  0  0  0
 32 31  1  0  0  0  0
 33 32  1  0  0  0  0
 44 41  1  0  0  0  0
 39 34  1  0  0  0  0
 38 35  1  0  0  0  0
 41 36  2  0  0  0  0
 37 36  1  0  0  0  0
 38 37  2  0  0  0  0
 39 38  1  0  0  0  0
 40 39  2  0  0  0  0
 41 40  1  0  0  0  0
 46 42  1  0  0  0  0
 46 43  2  0  0  0  0
 45 44  2  0  0  0  0
 46 45  1  0  0  0  0
M  END
>  <cdx:groupId>
36645

>  <cdx:fragmentId>
36547

$$$$
