32240.cdx
  Mrv1902 05222410202D          

  9  9  0  0  0  0            999 V2000
    5.4584   -2.9903    0.0000 C   0  0  0  0  0  0  0  0  0  0  0  0
    4.6738   -3.2452    0.0000 C   0  0  0  0  0  0  0  0  0  0  0  0
    4.1889   -2.5778    0.0000 C   0  0  0  0  0  0  0  0  0  0  0  0
    4.6738   -1.9104    0.0000 C   0  0  0  0  0  0  0  0  0  0  0  0
    5.4584   -2.1653    0.0000 C   0  0  0  0  0  0  0  0  0  0  0  0
    6.1259   -3.4752    0.0000 O   0  0  0  0  0  0  0  0  0  0  0  0
    5.7940   -1.4116    0.0000 C   0  0  0  0  0  0  0  0  0  0  0  0
    6.2789   -2.0791    0.0000 C   0  0  0  0  0  0  0  0  0  0  0  0
    3.3639   -2.5778    0.0000 C   0  0  0  0  0  0  0  0  0  0  0  0
  1  2  1  0  0  0  0
  2  3  2  0  0  0  0
  3  4  1  0  0  0  0
  4  5  1  0  0  0  0
  1  5  1  0  0  0  0
  1  6  2  0  0  0  0
  5  7  1  0  0  0  0
  5  8  1  0  0  0  0
  3  9  1  0  0  0  0
M  END
>  <cdx:groupId>
29

>  <cdx:fragmentId>
5

$$$$
