32241.cdx
  Mrv1902 05222410202D          

 16 17  0  0  0  0            999 V2000
    5.9697   -1.8563    0.0000 C   0  0  0  0  0  0  0  0  0  0  0  0
    6.6842   -2.2687    0.0000 C   0  0  0  0  0  0  0  0  0  0  0  0
    6.6842   -3.0937    0.0000 C   0  0  0  0  0  0  0  0  0  0  0  0
    5.9697   -3.5062    0.0000 C   0  0  0  0  0  0  0  0  0  0  0  0
    5.2552   -3.0938    0.0000 C   0  0  0  0  0  0  0  0  0  0  0  0
    4.5408   -3.5062    0.0000 C   0  0  0  0  0  0  0  0  0  0  0  0
    3.8263   -3.0938    0.0000 C   0  0  0  0  0  0  0  0  0  0  0  0
    3.8263   -2.2688    0.0000 C   0  0  0  0  0  0  0  0  0  0  0  0
    4.5408   -1.8563    0.0000 C   0  0  0  0  0  0  0  0  0  0  0  0
    5.2552   -2.2688    0.0000 C   0  0  0  0  0  0  0  0  0  0  0  0
    3.1118   -3.5062    0.0000 C   0  0  0  0  0  0  0  0  0  0  0  0
    3.1118   -4.3313    0.0000 C   0  0  0  0  0  0  0  0  0  0  0  0
    2.3974   -3.0937    0.0000 C   0  0  0  0  0  0  0  0  0  0  0  0
    7.3987   -1.8562    0.0000 C   0  0  0  0  0  0  0  0  0  0  0  0
    7.3987   -1.0312    0.0000 C   0  0  0  0  0  0  0  0  0  0  0  0
    8.1131   -2.2688    0.0000 C   0  0  0  0  0  0  0  0  0  0  0  0
  1  2  1  0  0  0  0
  2  3  2  0  0  0  0
  3  4  1  0  0  0  0
  4  5  2  0  0  0  0
  5  6  1  0  0  0  0
  6  7  2  0  0  0  0
  7  8  1  0  0  0  0
  8  9  2  0  0  0  0
  9 10  1  0  0  0  0
  1 10  2  0  0  0  0
  5 10  1  0  0  0  0
 11 12  1  0  0  0  0
 11 13  1  0  0  0  0
  7 11  1  0  0  0  0
 14 15  1  0  0  0  0
 14 16  1  0  0  0  0
  2 14  1  0  0  0  0
M  END
>  <cdx:groupId>
51

>  <cdx:fragmentId>
5

$$$$
