102322866.cdx
  Mrv1902 05222410272D          

 26 28  0  0  0  0            999 V2000
    4.8175  -16.0074    0.0000 C   0  0  0  0  0  0  0  0  0  0  0  0
    4.1030  -15.5949    0.0000 C   0  0  0  0  0  0  0  0  0  0  0  0
    4.1030  -14.7699    0.0000 C   0  0  0  0  0  0  0  0  0  0  0  0
    4.8175  -14.3574    0.0000 C   0  0  0  0  0  0  0  0  0  0  0  0
    5.5320  -14.7699    0.0000 C   0  0  0  0  0  0  0  0  0  0  0  0
    5.5320  -15.5949    0.0000 C   0  0  0  0  0  0  0  0  0  0  0  0
    4.8175  -16.8324    0.0000 O   0  0  0  0  0  0  0  0  0  0  0  0
    3.3885  -14.3574    0.0000 O   0  0  0  0  0  0  0  0  0  0  0  0
    2.6741  -14.7699    0.0000 C   0  0  0  0  0  0  0  0  0  0  0  0
    3.3885  -16.0074    0.0000 O   0  0  0  0  0  0  0  0  0  0  0  0
    2.6741  -15.5949    0.0000 C   0  0  0  0  0  0  0  0  0  0  0  0
    6.2464  -14.3574    0.0000 C   0  0  0  0  0  0  0  0  0  0  0  0
    6.9609  -14.7699    0.0000 C   0  0  2  0  0  0  0  0  0  0  0  0
    7.6754  -14.3574    0.0000 C   0  0  2  0  0  0  0  0  0  0  0  0
    8.3898  -14.7699    0.0000 C   0  0  0  0  0  0  0  0  0  0  0  0
    7.6754  -13.5324    0.0000 C   0  0  0  0  0  0  0  0  0  0  0  0
    6.9609  -15.5949    0.0000 C   0  0  0  0  0  0  0  0  0  0  0  0
   11.3179  -13.2775    0.0000 O   0  0  0  0  0  0  0  0  0  0  0  0
   11.8028  -13.9449    0.0000 C   0  0  0  0  0  0  0  0  0  0  0  0
   11.3179  -14.6124    0.0000 O   0  0  0  0  0  0  0  0  0  0  0  0
   10.5333  -14.3574    0.0000 C   0  0  0  0  0  0  0  0  0  0  0  0
   10.5333  -13.5324    0.0000 C   0  0  0  0  0  0  0  0  0  0  0  0
    9.8188  -14.7699    0.0000 C   0  0  0  0  0  0  0  0  0  0  0  0
    9.1043  -14.3574    0.0000 C   0  0  0  0  0  0  0  0  0  0  0  0
    9.1043  -13.5324    0.0000 C   0  0  0  0  0  0  0  0  0  0  0  0
    9.8188  -13.1199    0.0000 C   0  0  0  0  0  0  0  0  0  0  0  0
  1  2  1  0  0  0  0
  2  3  2  0  0  0  0
  3  4  1  0  0  0  0
  4  5  2  0  0  0  0
  5  6  1  0  0  0  0
  1  6  2  0  0  0  0
  1  7  1  0  0  0  0
  8  9  1  0  0  0  0
  3  8  1  0  0  0  0
 10 11  1  0  0  0  0
  2 10  1  0  0  0  0
 12 13  1  0  0  0  0
 13 14  1  0  0  0  0
 14 15  1  0  0  0  0
 14 16  1  1  0  0  0
 13 17  1  6  0  0  0
 18 19  1  0  0  0  0
 19 20  1  0  0  0  0
 20 21  1  0  0  0  0
 21 22  1  0  0  0  0
 18 22  1  0  0  0  0
 23 24  1  0  0  0  0
 24 25  2  0  0  0  0
 25 26  1  0  0  0  0
 26 22  2  0  0  0  0
 23 21  2  0  0  0  0
 15 24  1  0  0  0  0
  5 12  1  0  0  0  0
M  END
>  <cdx:groupId>
35809

>  <cdx:fragmentId>
35766

$$$$
