322.cdx
  Mrv1902 05222410272D          

 11 12  0  0  0  0            999 V2000
    7.7355   -7.0507    0.0000 O   0  0  0  0  0  0  0  0  0  0  0  0
    8.4500   -7.4632    0.0000 C   0  0  0  0  0  0  0  0  0  0  0  0
    9.1644   -7.0507    0.0000 O   0  0  0  0  0  0  0  0  0  0  0  0
    8.4500   -8.2882    0.0000 C   0  0  0  0  0  0  0  0  0  0  0  0
    7.7355   -8.7007    0.0000 C   0  0  0  0  0  0  0  0  0  0  0  0
    7.0210   -8.2882    0.0000 C   0  0  0  0  0  0  0  0  0  0  0  0
    6.3065   -8.7007    0.0000 C   0  0  0  0  0  0  0  0  0  0  0  0
    5.5921   -8.2882    0.0000 C   0  0  0  0  0  0  0  0  0  0  0  0
    5.5921   -7.4632    0.0000 C   0  0  0  0  0  0  0  0  0  0  0  0
    6.3065   -7.0507    0.0000 C   0  0  0  0  0  0  0  0  0  0  0  0
    7.0210   -7.4632    0.0000 C   0  0  0  0  0  0  0  0  0  0  0  0
  1  2  1  0  0  0  0
  2  3  2  0  0  0  0
  2  4  1  0  0  0  0
  4  5  2  0  0  0  0
  5  6  1  0  0  0  0
  6  7  1  0  0  0  0
  7  8  2  0  0  0  0
  8  9  1  0  0  0  0
  9 10  2  0  0  0  0
 10 11  1  0  0  0  0
  1 11  1  0  0  0  0
  6 11  2  0  0  0  0
M  END
>  <cdx:groupId>
76

>  <cdx:fragmentId>
45

$$$$
