323894.cdx
  Mrv1902 05222410252D          

 39 43  0  0  0  0            999 V2000
    3.4156   -7.1424    0.0000 O   0  0  0  0  0  0  0  0  0  0  0  0
    3.7511   -7.8961    0.0000 C   0  0  0  0  0  0  0  0  0  0  0  0
    3.3386   -8.6105    0.0000 O   0  0  0  0  0  0  0  0  0  0  0  0
    3.8907   -9.2236    0.0000 C   0  0  0  0  0  0  0  0  0  0  0  0
    4.6443   -8.8881    0.0000 C   0  0  2  0  0  0  0  0  0  0  0  0
    5.3588   -9.3006    0.0000 C   0  0  0  0  0  0  0  0  0  0  0  0
    6.0733   -8.8881    0.0000 C   0  0  0  0  0  0  0  0  0  0  0  0
    6.0733   -8.0631    0.0000 C   0  0  0  0  0  0  0  0  0  0  0  0
    6.7878   -7.6506    0.0000 C   0  0  0  0  0  0  0  0  0  0  0  0
    6.7878   -6.8256    0.0000 O   0  0  0  0  0  0  0  0  0  0  0  0
    6.0733   -6.4131    0.0000 C   0  0  0  0  0  0  0  0  0  0  0  0
    7.5022   -8.0631    0.0000 C   0  0  0  0  0  0  0  0  0  0  0  0
    8.2868   -7.8081    0.0000 O   0  0  0  0  0  0  0  0  0  0  0  0
    8.7718   -8.4756    0.0000 C   0  0  2  0  0  0  0  0  0  0  0  0
    9.5968   -8.4756    0.0000 C   0  0  0  0  0  0  0  0  0  0  0  0
   10.0093   -7.7611    0.0000 C   0  0  0  0  0  0  0  0  0  0  0  0
   10.8343   -7.7611    0.0000 C   0  0  0  0  0  0  0  0  0  0  0  0
   11.2468   -8.4756    0.0000 C   0  0  0  0  0  0  0  0  0  0  0  0
   12.0718   -8.4756    0.0000 O   0  0  0  0  0  0  0  0  0  0  0  0
   10.8343   -9.1900    0.0000 C   0  0  0  0  0  0  0  0  0  0  0  0
   11.2468   -9.9045    0.0000 O   0  0  0  0  0  0  0  0  0  0  0  0
   12.0718   -9.9045    0.0000 C   0  0  0  0  0  0  0  0  0  0  0  0
   10.0093   -9.1900    0.0000 C   0  0  0  0  0  0  0  0  0  0  0  0
    8.2868   -9.1430    0.0000 C   0  0  1  0  0  0  0  0  0  0  0  0
    8.5418   -9.9276    0.0000 C   0  0  0  0  0  0  0  0  0  0  0  0
    9.3488  -10.0992    0.0000 O   0  0  0  0  0  0  0  0  0  0  0  0
    7.5022   -8.8881    0.0000 C   0  0  0  0  0  0  0  0  0  0  0  0
    6.7878   -9.3006    0.0000 C   0  0  0  0  0  0  0  0  0  0  0  0
    4.5581   -8.0676    0.0000 C   0  0  1  0  0  0  0  0  0  0  0  0
    5.1712   -7.5156    0.0000 C   0  0  0  0  0  0  0  0  0  0  0  0
    4.9997   -6.7086    0.0000 C   0  0  0  0  0  0  0  0  0  0  0  0
    4.2151   -6.4537    0.0000 C   0  0  0  0  0  0  0  0  0  0  0  0
    4.0435   -5.6467    0.0000 C   0  0  0  0  0  0  0  0  0  0  0  0
    4.6566   -5.0947    0.0000 C   0  0  0  0  0  0  0  0  0  0  0  0
    4.4851   -4.2877    0.0000 O   0  0  0  0  0  0  0  0  0  0  0  0
    5.4412   -5.3496    0.0000 C   0  0  0  0  0  0  0  0  0  0  0  0
    6.0543   -4.7976    0.0000 O   0  0  0  0  0  0  0  0  0  0  0  0
    6.8390   -5.0525    0.0000 C   0  0  0  0  0  0  0  0  0  0  0  0
    5.6128   -6.1566    0.0000 C   0  0  0  0  0  0  0  0  0  0  0  0
  1  2  2  0  0  0  0
  2  3  1  0  0  0  0
  3  4  1  0  0  0  0
  4  5  1  0  0  0  0
  5  6  1  1  0  0  0
  6  7  1  0  0  0  0
  7  8  2  0  0  0  0
  8  9  1  0  0  0  0
  9 10  1  0  0  0  0
 10 11  1  0  0  0  0
  9 12  2  0  0  0  0
 12 13  1  0  0  0  0
 13 14  1  0  0  0  0
 14 15  1  6  0  0  0
 15 16  2  0  0  0  0
 16 17  1  0  0  0  0
 17 18  2  0  0  0  0
 18 19  1  0  0  0  0
 18 20  1  0  0  0  0
 20 21  1  0  0  0  0
 21 22  1  0  0  0  0
 20 23  2  0  0  0  0
 15 23  1  0  0  0  0
 14 24  1  0  0  0  0
 24 25  1  1  0  0  0
 25 26  1  0  0  0  0
 12 27  1  0  0  0  0
 24 27  1  0  0  0  0
 27 28  2  0  0  0  0
  7 28  1  0  0  0  0
  5 29  1  0  0  0  0
  2 29  1  0  0  0  0
 29 30  1  6  0  0  0
 30 31  1  0  0  0  0
 31 32  2  0  0  0  0
 32 33  1  0  0  0  0
 33 34  2  0  0  0  0
 34 35  1  0  0  0  0
 34 36  1  0  0  0  0
 36 37  1  0  0  0  0
 37 38  1  0  0  0  0
 36 39  2  0  0  0  0
 31 39  1  0  0  0  0
M  END
>  <cdx:fragmentId>
6

$$$$
