324062.cdx
  Mrv1902 05222410232D          

 24 25  0  0  0  0            999 V2000
    4.3609   -6.3782    0.0000 C   0  0  0  0  0  0  0  0  0  0  0  0
    5.0753   -6.7907    0.0000 C   0  0  0  0  0  0  0  0  0  0  0  0
    5.7898   -6.3782    0.0000 C   0  0  0  0  0  0  0  0  0  0  0  0
    6.5043   -6.7907    0.0000 C   0  0  0  0  0  0  0  0  0  0  0  0
    7.2188   -6.3782    0.0000 C   0  0  0  0  0  0  0  0  0  0  0  0
    7.9332   -6.7907    0.0000 C   0  0  0  0  0  0  0  0  0  0  0  0
    8.6477   -6.3782    0.0000 C   0  0  0  0  0  0  0  0  0  0  0  0
    9.3622   -6.7907    0.0000 C   0  0  0  0  0  0  0  0  0  0  0  0
   10.0766   -6.3782    0.0000 C   0  0  0  0  0  0  0  0  0  0  0  0
    4.3609   -5.5532    0.0000 O   0  0  0  0  0  0  0  0  0  0  0  0
   10.7911   -6.7907    0.0000 C   0  0  0  0  0  0  0  0  0  0  0  0
   11.5056   -6.3782    0.0000 C   0  0  0  0  0  0  0  0  0  0  0  0
   12.2201   -6.7907    0.0000 C   0  0  0  0  0  0  0  0  0  0  0  0
   12.2201   -7.6157    0.0000 C   0  0  0  0  0  0  0  0  0  0  0  0
   11.5056   -8.0282    0.0000 C   0  0  0  0  0  0  0  0  0  0  0  0
   10.7911   -7.6157    0.0000 C   0  0  0  0  0  0  0  0  0  0  0  0
    3.6464   -6.7907    0.0000 C   0  0  0  0  0  0  0  0  0  0  0  0
    3.6464   -7.6157    0.0000 C   0  0  0  0  0  0  0  0  0  0  0  0
    2.9319   -8.0282    0.0000 C   0  0  0  0  0  0  0  0  0  0  0  0
    2.2175   -7.6157    0.0000 C   0  0  0  0  0  0  0  0  0  0  0  0
    2.2175   -6.7907    0.0000 C   0  0  0  0  0  0  0  0  0  0  0  0
    2.9319   -6.3782    0.0000 C   0  0  0  0  0  0  0  0  0  0  0  0
    2.9319   -5.5532    0.0000 O   0  0  0  0  0  0  0  0  0  0  0  0
    4.3609   -8.0282    0.0000 O   0  0  0  0  0  0  0  0  0  0  0  0
  1  2  1  0  0  0  0
  2  3  1  0  0  0  0
  3  4  1  0  0  0  0
  4  5  1  0  0  0  0
  5  6  1  0  0  0  0
  6  7  1  0  0  0  0
  7  8  1  0  0  0  0
  8  9  1  0  0  0  0
  1 10  2  0  0  0  0
 11 12  1  0  0  0  0
 12 13  2  0  0  0  0
 13 14  1  0  0  0  0
 14 15  2  0  0  0  0
 15 16  1  0  0  0  0
 11 16  2  0  0  0  0
  9 11  1  0  0  0  0
 17 18  1  0  0  0  0
 18 19  2  0  0  0  0
 19 20  1  0  0  0  0
 20 21  2  0  0  0  0
 21 22  1  0  0  0  0
 17 22  2  0  0  0  0
 22 23  1  0  0  0  0
 18 24  1  0  0  0  0
  1 17  1  0  0  0  0
M  END
>  <cdx:fragmentId>
1032

$$$$
