5324562.cdx
  Mrv1902 05222410182D          

 19 20  0  0  0  0            999 V2000
   18.1763   -7.7387    0.0000 C   0  0  0  0  0  0  0  0  0  0  0  0
   18.1763   -8.5637    0.0000 C   0  0  0  0  0  0  0  0  0  0  0  0
   17.4618   -8.9762    0.0000 C   0  0  0  0  0  0  0  0  0  0  0  0
   16.7473   -8.5637    0.0000 C   0  0  0  0  0  0  0  0  0  0  0  0
   16.0329   -8.9762    0.0000 C   0  0  0  0  0  0  0  0  0  0  0  0
   15.3184   -8.5637    0.0000 C   0  0  0  0  0  0  0  0  0  0  0  0
   15.3184   -7.7387    0.0000 C   0  0  0  0  0  0  0  0  0  0  0  0
   16.0329   -7.3262    0.0000 C   0  0  0  0  0  0  0  0  0  0  0  0
   16.7473   -7.7387    0.0000 C   0  0  0  0  0  0  0  0  0  0  0  0
   17.4618   -7.3262    0.0000 O   0  0  0  0  0  0  0  0  0  0  0  0
   18.8907   -7.3262    0.0000 O   0  0  0  0  0  0  0  0  0  0  0  0
   14.6039   -8.9762    0.0000 C   0  0  0  0  0  0  0  0  0  0  0  0
   13.8894   -8.5637    0.0000 C   0  0  0  0  0  0  0  0  0  0  0  0
   13.1750   -8.9762    0.0000 C   0  0  0  0  0  0  0  0  0  0  0  0
   13.1750   -9.8012    0.0000 C   0  0  0  0  0  0  0  0  0  0  0  0
   13.8894   -7.7387    0.0000 O   0  0  0  0  0  0  0  0  0  0  0  0
   12.4605   -8.5637    0.0000 C   0  0  0  0  0  0  0  0  0  0  0  0
   12.4605   -9.3887    0.0000 O   0  0  0  0  0  0  0  0  0  0  0  0
   14.6039   -7.3262    0.0000 O   0  0  0  0  0  0  0  0  0  0  0  0
  1  2  1  0  0  0  0
  2  3  2  0  0  0  0
  3  4  1  0  0  0  0
  4  5  1  0  0  0  0
  5  6  2  0  0  0  0
  6  7  1  0  0  0  0
  7  8  2  0  0  0  0
  8  9  1  0  0  0  0
  4  9  2  0  0  0  0
  9 10  1  0  0  0  0
  1 10  1  0  0  0  0
  1 11  2  0  0  0  0
 12 13  1  0  0  0  0
 13 14  1  0  0  0  0
 14 15  1  0  0  0  0
 13 16  2  0  0  0  0
 14 17  1  0  0  0  0
 14 18  1  0  0  0  0
  6 12  1  0  0  0  0
  7 19  1  0  0  0  0
M  END
>  <cdx:groupId>
22052

>  <cdx:fragmentId>
21997

$$$$
