3246.cdx
  Mrv1902 05222410182D          

 19 20  0  0  0  0            999 V2000
    8.7442   -5.5906    0.0000 C   0  0  0  0  0  0  0  0  0  0  0  0
    8.7327   -4.7657    0.0000 C   0  0  0  0  0  0  0  0  0  0  0  0
    8.0125   -4.3632    0.0000 C   0  0  0  0  0  0  0  0  0  0  0  0
    7.3039   -4.7856    0.0000 C   0  0  0  0  0  0  0  0  0  0  0  0
    7.3154   -5.6105    0.0000 C   0  0  2  0  0  0  0  0  0  0  0  0
    8.0355   -6.0130    0.0000 C   0  0  2  0  0  0  0  0  0  0  0  0
    6.5837   -4.3831    0.0000 C   0  0  1  0  0  0  0  0  0  0  0  0
    5.8751   -4.8056    0.0000 C   0  0  1  0  0  0  0  0  0  0  0  0
    5.8866   -5.6305    0.0000 C   0  0  0  0  0  0  0  0  0  0  0  0
    6.6067   -6.0330    0.0000 C   0  0  0  0  0  0  0  0  0  0  0  0
    8.0010   -3.5383    0.0000 C   0  0  0  0  0  0  0  0  0  0  0  0
    5.1549   -4.4031    0.0000 C   0  0  0  0  0  0  0  0  0  0  0  0
    4.4462   -4.8255    0.0000 C   0  0  0  0  0  0  0  0  0  0  0  0
    5.1434   -3.5782    0.0000 C   0  0  0  0  0  0  0  0  0  0  0  0
    8.0471   -6.8379    0.0000 O   0  0  0  0  0  0  0  0  0  0  0  0
    7.3269   -6.4355    0.0000 C   0  0  0  0  0  0  0  0  0  0  0  0
    5.8635   -3.9806    0.0000 H   0  0  0  0  0  0  0  0  0  0  0  0
    6.5722   -3.5582    0.0000 H   0  0  0  0  0  0  0  0  0  0  0  0
    9.4413   -4.3432    0.0000 O   0  0  0  0  0  0  0  0  0  0  0  0
  1  2  1  0  0  0  0
  2  3  1  0  0  0  0
  3  4  2  0  0  0  0
  4  5  1  0  0  0  0
  5  6  1  0  0  0  0
  6  1  1  0  0  0  0
  4  7  1  0  0  0  0
  7  8  1  0  0  0  0
  8  9  1  0  0  0  0
  9 10  1  0  0  0  0
 10  5  1  0  0  0  0
  3 11  1  0  0  0  0
  8 12  1  1  0  0  0
 12 13  2  0  0  0  0
 12 14  1  0  0  0  0
  6 15  1  1  0  0  0
  5 16  1  1  0  0  0
  8 17  1  6  0  0  0
  7 18  1  6  0  0  0
  2 19  2  0  0  0  0
M  END
>  <cdx:fragmentId>
5

$$$$
