5324707.cdx
  Mrv1902 05222410222D          

  6  5  0  0  0  0            999 V2000
   14.4959   -8.5487    0.0000 C   0  0  0  0  0  0  0  0  0  0  0  0
   15.2103   -8.9612    0.0000 C   0  0  0  0  0  0  0  0  0  0  0  0
   15.9248   -8.5487    0.0000 C   0  0  0  0  0  0  0  0  0  0  0  0
   16.6393   -8.9612    0.0000 C   0  0  0  0  0  0  0  0  0  0  0  0
   17.3538   -8.5487    0.0000 C   0  0  0  0  0  0  0  0  0  0  0  0
   13.7814   -8.1362    0.0000 N   0  0  0  0  0  0  0  0  0  0  0  0
  1  2  1  0  0  0  0
  2  3  1  0  0  0  0
  3  4  2  0  0  0  0
  4  5  1  0  0  0  0
  1  6  3  0  0  0  0
M  END
>  <cdx:groupId>
22073

>  <cdx:fragmentId>
22059

$$$$
