324793.cdx
  Mrv1902 05222410272D          

 29 35  0  0  0  0            999 V2000
    6.8384   -8.2717    0.0000 C   0  0  1  0  0  0  0  0  0  0  0  0
    6.1239   -8.6842    0.0000 C   0  0  0  0  0  0  0  0  0  0  0  0
    5.4095   -8.2717    0.0000 C   0  0  0  0  0  0  0  0  0  0  0  0
    4.6950   -8.6842    0.0000 C   0  0  0  0  0  0  0  0  0  0  0  0
    3.9104   -8.4292    0.0000 O   0  0  0  0  0  0  0  0  0  0  0  0
    3.4255   -9.0967    0.0000 C   0  0  0  0  0  0  0  0  0  0  0  0
    3.9104   -9.7641    0.0000 O   0  0  0  0  0  0  0  0  0  0  0  0
    4.6950   -9.5092    0.0000 C   0  0  0  0  0  0  0  0  0  0  0  0
    5.4095   -9.9217    0.0000 C   0  0  0  0  0  0  0  0  0  0  0  0
    6.1239   -9.5092    0.0000 C   0  0  0  0  0  0  0  0  0  0  0  0
    6.8384   -9.9217    0.0000 C   0  0  0  0  0  0  0  0  0  0  0  0
    7.5529   -9.5092    0.0000 C   0  0  0  0  0  0  0  0  0  0  0  0
    8.2674   -9.9217    0.0000 O   0  0  0  0  0  0  0  0  0  0  0  0
    8.9818   -9.5092    0.0000 C   0  0  2  0  0  0  0  0  0  0  0  0
    8.9818   -8.6842    0.0000 C   0  0  0  0  0  0  0  0  0  0  0  0
    9.6963   -8.2717    0.0000 C   0  0  0  0  0  0  0  0  0  0  0  0
   10.4809   -8.5266    0.0000 O   0  0  0  0  0  0  0  0  0  0  0  0
   10.9658   -7.8592    0.0000 C   0  0  0  0  0  0  0  0  0  0  0  0
   10.4809   -7.1917    0.0000 O   0  0  0  0  0  0  0  0  0  0  0  0
    9.6963   -7.4467    0.0000 C   0  0  0  0  0  0  0  0  0  0  0  0
    8.9818   -7.0342    0.0000 C   0  0  0  0  0  0  0  0  0  0  0  0
    8.2674   -7.4467    0.0000 C   0  0  0  0  0  0  0  0  0  0  0  0
    8.2674   -8.2717    0.0000 C   0  0  0  0  0  0  0  0  0  0  0  0
    7.5529   -8.6842    0.0000 C   0  0  2  0  0  0  0  0  0  0  0  0
    7.8650   -9.2675    0.0000 N   0  0  0  0  0  0  0  0  0  0  0  0
    7.6515  -10.0644    0.0000 C   0  0  0  0  0  0  0  0  0  0  0  0
    7.5529   -7.8592    0.0000 C   0  0  0  0  0  0  0  0  0  0  0  0
    6.8384   -7.4467    0.0000 H   0  0  0  0  0  0  0  0  0  0  0  0
    9.6963   -9.9217    0.0000 H   0  0  0  0  0  0  0  0  0  0  0  0
  1  2  1  0  0  0  0
  2  3  2  0  0  0  0
  3  4  1  0  0  0  0
  4  5  1  0  0  0  0
  5  6  1  0  0  0  0
  6  7  1  0  0  0  0
  7  8  1  0  0  0  0
  8  9  1  0  0  0  0
  9 10  2  0  0  0  0
 10 11  1  0  0  0  0
 11 12  1  0  0  0  0
 12 13  1  0  0  0  0
 13 14  1  0  0  0  0
 14 15  1  0  0  0  0
 15 16  1  0  0  0  0
 16 17  1  0  0  0  0
 17 18  1  0  0  0  0
 18 19  1  0  0  0  0
 19 20  1  0  0  0  0
 20 21  1  0  0  0  0
 21 22  2  0  0  0  0
 22 23  1  0  0  0  0
 23 24  1  0  0  0  0
  1 24  1  0  0  0  0
  1 25  1  0  0  0  0
 14 25  1  0  0  0  0
 12 24  1  0  0  0  0
 15 23  2  0  0  0  0
 16 20  2  0  0  0  0
  2 10  1  0  0  0  0
  4  8  2  0  0  0  0
 25 26  1  0  0  0  0
 24 27  1  6  0  0  0
  1 28  1  6  0  0  0
 14 29  1  6  0  0  0
M  END
>  <cdx:fragmentId>
103

$$$$
