101324831.cdx
  Mrv1902 05222410182D          

 19 21  0  0  0  0            999 V2000
    7.7588   -9.5694    0.0000 C   0  0  1  0  0  0  0  0  0  0  0  0
    7.1138  -10.0838    0.0000 C   0  0  2  0  0  0  0  0  0  0  0  0
    6.3291   -9.8289    0.0000 C   0  0  0  0  0  0  0  0  0  0  0  0
    5.8442  -10.4963    0.0000 C   0  0  0  0  0  0  0  0  0  0  0  0
    6.3291  -11.1637    0.0000 C   0  0  2  0  0  0  0  0  0  0  0  0
    7.1138  -10.9088    0.0000 C   0  0  2  0  0  0  0  0  0  0  0  0
    7.7588  -11.4232    0.0000 C   0  0  2  0  0  0  0  0  0  0  0  0
    8.5631  -11.2396    0.0000 C   0  0  0  0  0  0  0  0  0  0  0  0
    8.9210  -10.4963    0.0000 C   0  0  0  0  0  0  0  0  0  0  0  0
    8.5631   -9.7530    0.0000 C   0  0  0  0  0  0  0  0  0  0  0  0
    8.2934  -10.4954    0.0000 S   0  0  0  0  0  0  0  0  0  0  0  0
    6.6576  -12.5317    0.0000 C   0  0  0  0  0  0  0  0  0  0  0  0
    6.0742  -11.9484    0.0000 C   0  0  0  0  0  0  0  0  0  0  0  0
    5.2672  -12.1199    0.0000 C   0  0  0  0  0  0  0  0  0  0  0  0
    9.0775  -11.8846    0.0000 C   0  0  0  0  0  0  0  0  0  0  0  0
    6.9665   -9.2721    0.0000 C   0  0  0  0  0  0  0  0  0  0  0  0
    7.5752   -8.7651    0.0000 H   0  0  0  0  0  0  0  0  0  0  0  0
    6.9665  -11.7205    0.0000 H   0  0  0  0  0  0  0  0  0  0  0  0
    7.5752  -12.2275    0.0000 H   0  0  0  0  0  0  0  0  0  0  0  0
  1  2  1  0  0  0  0
  2  3  1  0  0  0  0
  3  4  1  0  0  0  0
  4  5  1  0  0  0  0
  5  6  1  0  0  0  0
  6  7  1  0  0  0  0
  7  8  1  0  0  0  0
  8  9  1  0  0  0  0
  9 10  1  0  0  0  0
  1 10  1  0  0  0  0
  1 11  1  6  0  0  0
  7 11  1  6  0  0  0
  2  6  1  0  0  0  0
 12 13  1  0  0  0  0
 13 14  1  0  0  0  0
  5 13  1  6  0  0  0
  8 15  2  0  0  0  0
  2 16  1  6  0  0  0
  1 17  1  0  0  0  0
  6 18  1  6  0  0  0
  7 19  1  0  0  0  0
M  END
>  <cdx:groupId>
1970

>  <cdx:fragmentId>
1914

$$$$
