325.cdx
  Mrv1902 05222410262D          

 11 11  0  0  0  0            999 V2000
    8.2741   -4.9971    0.0000 C   0  0  0  0  0  0  0  0  0  0  0  0
    8.9886   -4.5846    0.0000 O   0  0  0  0  0  0  0  0  0  0  0  0
    7.5596   -4.5846    0.0000 C   0  0  0  0  0  0  0  0  0  0  0  0
    6.8451   -4.9971    0.0000 C   0  0  0  0  0  0  0  0  0  0  0  0
    6.1307   -4.5846    0.0000 C   0  0  0  0  0  0  0  0  0  0  0  0
    6.1307   -3.7596    0.0000 C   0  0  0  0  0  0  0  0  0  0  0  0
    6.8451   -3.3471    0.0000 C   0  0  0  0  0  0  0  0  0  0  0  0
    7.5596   -3.7596    0.0000 C   0  0  0  0  0  0  0  0  0  0  0  0
    5.4162   -2.5221    0.0000 C   0  0  0  0  0  0  0  0  0  0  0  0
    5.4162   -3.3471    0.0000 C   0  0  0  0  0  0  0  0  0  0  0  0
    4.7017   -3.7596    0.0000 C   0  0  0  0  0  0  0  0  0  0  0  0
  1  2  1  0  0  0  0
  3  4  1  0  0  0  0
  4  5  2  0  0  0  0
  5  6  1  0  0  0  0
  6  7  2  0  0  0  0
  7  8  1  0  0  0  0
  3  8  2  0  0  0  0
  9 10  1  0  0  0  0
 10 11  1  0  0  0  0
  6 10  1  0  0  0  0
  1  3  1  0  0  0  0
M  END
>  <cdx:fragmentId>
9

$$$$
