325127.cdx
  Mrv1902 05222410192D          

 26 28  0  0  0  0            999 V2000
    6.5446   -8.6372    0.0000 O   0  0  0  0  0  0  0  0  0  0  0  0
    7.2591   -9.0497    0.0000 C   0  0  2  0  0  0  0  0  0  0  0  0
    7.2591   -9.8747    0.0000 C   0  0  1  0  0  0  0  0  0  0  0  0
    6.5446  -10.2872    0.0000 C   0  0  2  0  0  0  0  0  0  0  0  0
    5.8302   -9.8747    0.0000 C   0  0  1  0  0  0  0  0  0  0  0  0
    5.8302   -9.0497    0.0000 C   0  0  1  0  0  0  0  0  0  0  0  0
    7.9736  -10.2872    0.0000 O   0  0  0  0  0  0  0  0  0  0  0  0
    6.5446  -11.1122    0.0000 O   0  0  0  0  0  0  0  0  0  0  0  0
    5.1157  -10.2872    0.0000 O   0  0  0  0  0  0  0  0  0  0  0  0
    5.1157   -8.6372    0.0000 C   0  0  0  0  0  0  0  0  0  0  0  0
    4.4012   -9.0497    0.0000 O   0  0  0  0  0  0  0  0  0  0  0  0
    7.9736   -8.6372    0.0000 O   0  0  0  0  0  0  0  0  0  0  0  0
    7.9736   -7.8122    0.0000 C   0  0  1  0  0  0  0  0  0  0  0  0
    8.6881   -7.3997    0.0000 C   0  0  1  0  0  0  0  0  0  0  0  0
    8.6881   -6.5747    0.0000 C   0  0  1  0  0  0  0  0  0  0  0  0
    7.9736   -6.1622    0.0000 C   0  0  0  0  0  0  0  0  0  0  0  0
    7.2591   -6.5747    0.0000 C   0  0  0  0  0  0  0  0  0  0  0  0
    7.2591   -7.3997    0.0000 O   0  0  0  0  0  0  0  0  0  0  0  0
    9.4727   -6.3198    0.0000 C   0  0  1  0  0  0  0  0  0  0  0  0
    9.9576   -6.9872    0.0000 C   0  0  0  0  0  0  0  0  0  0  0  0
    9.4727   -7.6546    0.0000 C   0  0  1  0  0  0  0  0  0  0  0  0
    9.3011   -8.4616    0.0000 C   0  0  0  0  0  0  0  0  0  0  0  0
   10.0858   -8.2067    0.0000 O   0  0  0  0  0  0  0  0  0  0  0  0
    9.7276   -5.5351    0.0000 O   0  0  0  0  0  0  0  0  0  0  0  0
    8.6881   -5.7497    0.0000 H   0  0  0  0  0  0  0  0  0  0  0  0
    8.6881   -8.2247    0.0000 H   0  0  0  0  0  0  0  0  0  0  0  0
  1  2  1  0  0  0  0
  2  3  1  0  0  0  0
  3  4  1  0  0  0  0
  4  5  1  0  0  0  0
  5  6  1  0  0  0  0
  1  6  1  0  0  0  0
  3  7  1  6  0  0  0
  4  8  1  1  0  0  0
  5  9  1  6  0  0  0
 10 11  1  0  0  0  0
  6 10  1  1  0  0  0
 13 14  1  0  0  0  0
 14 15  1  0  0  0  0
 15 16  1  0  0  0  0
 16 17  2  0  0  0  0
 17 18  1  0  0  0  0
 13 18  1  0  0  0  0
 19 20  1  0  0  0  0
 20 21  1  0  0  0  0
 21 14  1  0  0  0  0
 19 15  1  0  0  0  0
 21 22  1  0  0  0  0
 21 23  1  6  0  0  0
 19 24  1  6  0  0  0
 13 12  1  6  0  0  0
  2 12  1  1  0  0  0
 15 25  1  6  0  0  0
 14 26  1  6  0  0  0
M  END
>  <cdx:fragmentId>
10125

$$$$
