325601.cdx
  Mrv1902 05222410232D          

 30 33  0  0  0  0            999 V2000
    7.0148   -6.9907    0.0000 C   0  0  2  0  0  0  0  0  0  0  0  0
    7.8398   -6.9907    0.0000 C   0  0  1  0  0  0  0  0  0  0  0  0
    8.0948   -6.2061    0.0000 C   0  0  2  0  0  0  0  0  0  0  0  0
    7.4273   -5.7212    0.0000 O   0  0  0  0  0  0  0  0  0  0  0  0
    6.7599   -6.2061    0.0000 C   0  0  0  0  0  0  0  0  0  0  0  0
    6.7599   -7.7753    0.0000 C   0  0  2  0  0  0  0  0  0  0  0  0
    7.4273   -8.2602    0.0000 O   0  0  0  0  0  0  0  0  0  0  0  0
    8.0948   -7.7753    0.0000 C   0  0  0  0  0  0  0  0  0  0  0  0
    6.1898   -6.9907    0.0000 H   0  0  0  0  0  0  0  0  0  0  0  0
    8.6648   -6.9907    0.0000 H   0  0  0  0  0  0  0  0  0  0  0  0
    8.8093   -5.7936    0.0000 C   0  0  0  0  0  0  0  0  0  0  0  0
    6.0454   -8.1878    0.0000 C   0  0  0  0  0  0  0  0  0  0  0  0
    9.5237   -6.2061    0.0000 C   0  0  0  0  0  0  0  0  0  0  0  0
   10.2382   -5.7936    0.0000 C   0  0  0  0  0  0  0  0  0  0  0  0
   10.2382   -4.9686    0.0000 C   0  0  0  0  0  0  0  0  0  0  0  0
    9.5237   -4.5561    0.0000 C   0  0  0  0  0  0  0  0  0  0  0  0
    8.8093   -4.9686    0.0000 C   0  0  0  0  0  0  0  0  0  0  0  0
    5.3310   -7.7753    0.0000 C   0  0  0  0  0  0  0  0  0  0  0  0
    4.6165   -8.1878    0.0000 C   0  0  0  0  0  0  0  0  0  0  0  0
    4.6165   -9.0128    0.0000 C   0  0  0  0  0  0  0  0  0  0  0  0
    5.3310   -9.4253    0.0000 C   0  0  0  0  0  0  0  0  0  0  0  0
    6.0454   -9.0128    0.0000 C   0  0  0  0  0  0  0  0  0  0  0  0
   10.9527   -4.5561    0.0000 O   0  0  0  0  0  0  0  0  0  0  0  0
    3.9020   -7.7753    0.0000 O   0  0  0  0  0  0  0  0  0  0  0  0
    3.1875   -8.1878    0.0000 C   0  0  0  0  0  0  0  0  0  0  0  0
    3.9020   -9.4253    0.0000 O   0  0  0  0  0  0  0  0  0  0  0  0
    3.1875   -9.0128    0.0000 C   0  0  0  0  0  0  0  0  0  0  0  0
    9.5237   -3.7311    0.0000 O   0  0  0  0  0  0  0  0  0  0  0  0
   10.2382   -3.3186    0.0000 C   0  0  0  0  0  0  0  0  0  0  0  0
   10.9527   -3.7311    0.0000 C   0  0  0  0  0  0  0  0  0  0  0  0
  1  2  1  0  0  0  0
  2  3  1  0  0  0  0
  3  4  1  0  0  0  0
  4  5  1  0  0  0  0
  5  1  1  0  0  0  0
  1  6  1  0  0  0  0
  6  7  1  0  0  0  0
  7  8  1  0  0  0  0
  8  2  1  0  0  0  0
  1  9  1  6  0  0  0
  2 10  1  6  0  0  0
  3 11  1  6  0  0  0
  6 12  1  6  0  0  0
 11 13  1  0  0  0  0
 13 14  2  0  0  0  0
 14 15  1  0  0  0  0
 15 16  2  0  0  0  0
 16 17  1  0  0  0  0
 17 11  2  0  0  0  0
 12 18  2  0  0  0  0
 18 19  1  0  0  0  0
 19 20  2  0  0  0  0
 20 21  1  0  0  0  0
 21 22  2  0  0  0  0
 22 12  1  0  0  0  0
 15 23  1  0  0  0  0
 19 24  1  0  0  0  0
 24 25  1  0  0  0  0
 20 26  1  0  0  0  0
 26 27  1  0  0  0  0
 16 28  1  0  0  0  0
 28 29  1  0  0  0  0
 23 30  1  0  0  0  0
M  END
>  <cdx:fragmentId>
1107

$$$$
