325881.cdx
  Mrv1902 05222410272D          

 39 43  0  0  0  0            999 V2000
    4.7499   -7.3667    0.0000 O   0  0  0  0  0  0  0  0  0  0  0  0
    4.0355   -6.9542    0.0000 C   0  0  1  0  0  0  0  0  0  0  0  0
    4.0355   -6.1292    0.0000 C   0  0  1  0  0  0  0  0  0  0  0  0
    4.7499   -5.7167    0.0000 C   0  0  1  0  0  0  0  0  0  0  0  0
    5.4644   -6.1292    0.0000 C   0  0  2  0  0  0  0  0  0  0  0  0
    5.4644   -6.9542    0.0000 C   0  0  1  0  0  0  0  0  0  0  0  0
    3.3210   -5.7167    0.0000 O   0  0  0  0  0  0  0  0  0  0  0  0
    4.7499   -4.8917    0.0000 O   0  0  0  0  0  0  0  0  0  0  0  0
    6.1789   -5.7167    0.0000 O   0  0  0  0  0  0  0  0  0  0  0  0
    6.1789   -7.3667    0.0000 O   0  0  0  0  0  0  0  0  0  0  0  0
    6.8934   -6.9542    0.0000 C   0  0  0  0  0  0  0  0  0  0  0  0
    8.3223   -6.9542    0.0000 O   0  0  0  0  0  0  0  0  0  0  0  0
    7.6078   -7.3667    0.0000 C   0  0  1  0  0  0  0  0  0  0  0  0
    7.6078   -8.1917    0.0000 C   0  0  2  0  0  0  0  0  0  0  0  0
    8.3223   -8.6042    0.0000 C   0  0  1  0  0  0  0  0  0  0  0  0
    9.0368   -8.1917    0.0000 C   0  0  2  0  0  0  0  0  0  0  0  0
    9.0368   -7.3667    0.0000 C   0  0  2  0  0  0  0  0  0  0  0  0
    9.7512   -6.9542    0.0000 O   0  0  0  0  0  0  0  0  0  0  0  0
   10.4657   -5.7167    0.0000 C   0  0  2  0  0  0  0  0  0  0  0  0
   11.2503   -5.9716    0.0000 C   0  0  1  0  0  0  0  0  0  0  0  0
   12.0708   -6.0579    0.0000 O   0  0  0  0  0  0  0  0  0  0  0  0
   11.7353   -5.3042    0.0000 C   0  0  1  0  0  0  0  0  0  0  0  0
   11.2503   -4.6368    0.0000 C   0  0  2  0  0  0  0  0  0  0  0  0
   10.4657   -4.8917    0.0000 C   0  0  2  0  0  0  0  0  0  0  0  0
    9.7512   -4.4792    0.0000 C   0  0  0  0  0  0  0  0  0  0  0  0
    9.0368   -4.8917    0.0000 C   0  0  0  0  0  0  0  0  0  0  0  0
    9.0368   -5.7167    0.0000 O   0  0  0  0  0  0  0  0  0  0  0  0
    9.7512   -6.1292    0.0000 C   0  0  1  0  0  0  0  0  0  0  0  0
   11.0788   -6.7786    0.0000 C   0  0  0  0  0  0  0  0  0  0  0  0
   11.6622   -7.3620    0.0000 O   0  0  0  0  0  0  0  0  0  0  0  0
   11.5053   -3.8521    0.0000 O   0  0  0  0  0  0  0  0  0  0  0  0
    9.7512   -8.6042    0.0000 O   0  0  0  0  0  0  0  0  0  0  0  0
    8.3223   -9.4292    0.0000 O   0  0  0  0  0  0  0  0  0  0  0  0
    6.8934   -8.6042    0.0000 O   0  0  0  0  0  0  0  0  0  0  0  0
    3.3210   -7.3667    0.0000 C   0  0  0  0  0  0  0  0  0  0  0  0
    2.6065   -6.9542    0.0000 O   0  0  0  0  0  0  0  0  0  0  0  0
   10.4657   -6.5417    0.0000 H   0  0  0  0  0  0  0  0  0  0  0  0
   12.4497   -4.8917    0.0000 H   0  0  0  0  0  0  0  0  0  0  0  0
   10.5519   -4.0712    0.0000 H   0  0  0  0  0  0  0  0  0  0  0  0
  1  2  1  0  0  0  0
  2  3  1  0  0  0  0
  3  4  1  0  0  0  0
  4  5  1  0  0  0  0
  5  6  1  0  0  0  0
  1  6  1  0  0  0  0
  3  7  1  6  0  0  0
  4  8  1  6  0  0  0
  5  9  1  1  0  0  0
 10 11  1  0  0  0  0
 12 13  1  0  0  0  0
 13 14  1  0  0  0  0
 14 15  1  0  0  0  0
 15 16  1  0  0  0  0
 16 17  1  0  0  0  0
 12 17  1  0  0  0  0
 19 20  1  0  0  0  0
 20 21  1  0  0  0  0
 21 22  1  0  0  0  0
 22 23  1  0  0  0  0
 23 24  1  0  0  0  0
 24 25  1  0  0  0  0
 25 26  2  0  0  0  0
 26 27  1  0  0  0  0
 27 28  1  0  0  0  0
 19 28  1  0  0  0  0
 19 24  1  0  0  0  0
 20 22  1  0  0  0  0
 29 30  1  0  0  0  0
 20 29  1  1  0  0  0
 23 31  1  6  0  0  0
 28 18  1  6  0  0  0
 17 18  1  1  0  0  0
 16 32  1  6  0  0  0
 15 33  1  1  0  0  0
 14 34  1  6  0  0  0
 13 11  1  1  0  0  0
  6 10  1  1  0  0  0
 35 36  1  0  0  0  0
  2 35  1  6  0  0  0
 19 37  1  6  0  0  0
 22 38  1  1  0  0  0
 24 39  1  6  0  0  0
M  END
>  <cdx:fragmentId>
41

$$$$
