325811.cdx
  Mrv1902 05222410222D          

 44 47  0  0  0  0            999 V2000
    5.0518   -9.8854    0.0000 O   0  0  0  0  0  0  0  0  0  0  0  0
    5.7602  -10.3082    0.0000 C   0  0  2  0  0  0  0  0  0  0  0  0
    5.7483  -11.1331    0.0000 C   0  0  1  0  0  0  0  0  0  0  0  0
    5.0279  -11.5352    0.0000 C   0  0  1  0  0  0  0  0  0  0  0  0
    4.3195  -11.1125    0.0000 C   0  0  2  0  0  0  0  0  0  0  0  0
    4.3314  -10.2875    0.0000 C   0  0  2  0  0  0  0  0  0  0  0  0
    6.4567  -11.5559    0.0000 O   0  0  0  0  0  0  0  0  0  0  0  0
    5.0160  -12.3601    0.0000 O   0  0  0  0  0  0  0  0  0  0  0  0
    3.5991  -11.5146    0.0000 O   0  0  0  0  0  0  0  0  0  0  0  0
    3.6230   -9.8648    0.0000 C   0  0  0  0  0  0  0  0  0  0  0  0
    6.4806   -9.9060    0.0000 O   0  0  0  0  0  0  0  0  0  0  0  0
    6.5163   -7.4313    0.0000 O   0  0  0  0  0  0  0  0  0  0  0  0
    7.2247   -7.8541    0.0000 C   0  0  2  0  0  0  0  0  0  0  0  0
    7.2128   -8.6790    0.0000 C   0  0  1  0  0  0  0  0  0  0  0  0
    6.4925   -9.0811    0.0000 C   0  0  2  0  0  0  0  0  0  0  0  0
    5.7840   -8.6583    0.0000 C   0  0  1  0  0  0  0  0  0  0  0  0
    5.7959   -7.8334    0.0000 C   0  0  1  0  0  0  0  0  0  0  0  0
    5.0875   -7.4107    0.0000 C   0  0  0  0  0  0  0  0  0  0  0  0
    7.9451   -7.4519    0.0000 O   0  0  0  0  0  0  0  0  0  0  0  0
    5.0637   -9.0605    0.0000 O   0  0  0  0  0  0  0  0  0  0  0  0
    7.9213   -9.1018    0.0000 O   0  0  0  0  0  0  0  0  0  0  0  0
   12.2319   -9.1019    0.0000 O   0  0  0  0  0  0  0  0  0  0  0  0
   12.9464   -7.8644    0.0000 C   0  0  0  0  0  0  0  0  0  0  0  0
   12.2319   -7.4519    0.0000 O   0  0  0  0  0  0  0  0  0  0  0  0
   10.0885   -8.6894    0.0000 C   0  0  0  0  0  0  0  0  0  0  0  0
   10.8030   -9.1019    0.0000 C   0  0  0  0  0  0  0  0  0  0  0  0
   11.5174   -8.6894    0.0000 C   0  0  0  0  0  0  0  0  0  0  0  0
   11.5174   -7.8644    0.0000 C   0  0  0  0  0  0  0  0  0  0  0  0
   10.8030   -7.4519    0.0000 C   0  0  0  0  0  0  0  0  0  0  0  0
   10.0885   -7.8644    0.0000 C   0  0  0  0  0  0  0  0  0  0  0  0
    9.3740   -7.4519    0.0000 C   0  0  0  0  0  0  0  0  0  0  0  0
    8.6596   -7.8644    0.0000 C   0  0  0  0  0  0  0  0  0  0  0  0
    2.9358   -8.6336    0.0000 O   0  0  0  0  0  0  0  0  0  0  0  0
    1.5093   -7.8044    0.0000 O   0  0  0  0  0  0  0  0  0  0  0  0
    1.5142   -6.1544    0.0000 O   0  0  0  0  0  0  0  0  0  0  0  0
    2.1552   -4.8773    0.0000 O   0  0  0  0  0  0  0  0  0  0  0  0
    2.9455   -5.3336    0.0000 C   0  0  0  0  0  0  0  0  0  0  0  0
    2.9431   -6.1586    0.0000 C   0  0  2  0  0  0  0  0  0  0  0  0
    2.2274   -6.5690    0.0000 C   0  0  2  0  0  0  0  0  0  0  0  0
    2.2250   -7.3940    0.0000 C   0  0  1  0  0  0  0  0  0  0  0  0
    2.9382   -7.8086    0.0000 C   0  0  2  0  0  0  0  0  0  0  0  0
    3.6539   -7.3982    0.0000 C   0  0  1  0  0  0  0  0  0  0  0  0
    3.6563   -6.5732    0.0000 O   0  0  0  0  0  0  0  0  0  0  0  0
    4.3671   -7.8128    0.0000 O   0  0  0  0  0  0  0  0  0  0  0  0
 31 30  1  0  0  0  0
 27 22  1  0  0  0  0
 28 24  1  0  0  0  0
 24 23  1  0  0  0  0
 30 25  2  0  0  0  0
 26 25  1  0  0  0  0
 27 26  2  0  0  0  0
 28 27  1  0  0  0  0
 29 28  2  0  0  0  0
 30 29  1  0  0  0  0
 19 32  1  0  0  0  0
 32 31  1  0  0  0  0
 42 44  1  1  0  0  0
 41 33  1  6  0  0  0
 40 34  1  1  0  0  0
 39 35  1  6  0  0  0
 38 37  1  1  0  0  0
 37 36  1  0  0  0  0
 43 38  1  0  0  0  0
 39 38  1  0  0  0  0
 40 39  1  0  0  0  0
 41 40  1  0  0  0  0
 42 41  1  0  0  0  0
 43 42  1  0  0  0  0
  1  2  1  0  0  0  0
  2  3  1  0  0  0  0
  3  4  1  0  0  0  0
  4  5  1  0  0  0  0
  5  6  1  0  0  0  0
  1  6  1  0  0  0  0
  3  7  1  6  0  0  0
  4  8  1  6  0  0  0
  5  9  1  1  0  0  0
  6 10  1  6  0  0  0
 12 13  1  0  0  0  0
 13 14  1  0  0  0  0
 14 15  1  0  0  0  0
 15 16  1  0  0  0  0
 16 17  1  0  0  0  0
 12 17  1  0  0  0  0
 18 44  1  0  0  0  0
 17 18  1  1  0  0  0
 13 19  1  1  0  0  0
 16 20  1  6  0  0  0
 14 21  1  6  0  0  0
 15 11  1  1  0  0  0
  2 11  1  1  0  0  0
M  END
>  <cdx:groupId>
192624

>  <cdx:fragmentId>
192530

$$$$
