325810.cdx
  Mrv1902 05222410212D          

 42 45  0  0  0  0            999 V2000
    4.6580  -12.1551    0.0000 O   0  0  0  0  0  0  0  0  0  0  0  0
    5.3775  -11.7514    0.0000 C   0  0  2  0  0  0  0  0  0  0  0  0
    6.0869  -12.1727    0.0000 C   0  0  1  0  0  0  0  0  0  0  0  0
    6.0767  -12.9976    0.0000 C   0  0  2  0  0  0  0  0  0  0  0  0
    5.3572  -13.4013    0.0000 C   0  0  2  0  0  0  0  0  0  0  0  0
    4.6478  -12.9800    0.0000 C   0  0  0  0  0  0  0  0  0  0  0  0
    7.5819   -7.2319    0.0000 C   0  0  0  0  0  0  0  0  0  0  0  0
    8.2964   -6.8194    0.0000 C   0  0  0  0  0  0  0  0  0  0  0  0
    9.0109   -7.2319    0.0000 C   0  0  0  0  0  0  0  0  0  0  0  0
    9.7254   -6.8194    0.0000 C   0  0  0  0  0  0  0  0  0  0  0  0
   10.4398   -7.2319    0.0000 C   0  0  0  0  0  0  0  0  0  0  0  0
   10.4398   -8.0569    0.0000 C   0  0  0  0  0  0  0  0  0  0  0  0
    9.7254   -8.4694    0.0000 C   0  0  0  0  0  0  0  0  0  0  0  0
    9.0109   -8.0569    0.0000 C   0  0  0  0  0  0  0  0  0  0  0  0
   11.1543   -6.8194    0.0000 O   0  0  0  0  0  0  0  0  0  0  0  0
   11.8688   -7.2319    0.0000 C   0  0  0  0  0  0  0  0  0  0  0  0
   11.1543   -8.4694    0.0000 O   0  0  0  0  0  0  0  0  0  0  0  0
    6.8064  -11.7690    0.0000 O   0  0  0  0  0  0  0  0  0  0  0  0
    6.7860  -13.4189    0.0000 O   0  0  0  0  0  0  0  0  0  0  0  0
    5.3470  -14.2262    0.0000 O   0  0  0  0  0  0  0  0  0  0  0  0
    5.3877  -10.9265    0.0000 O   0  0  0  0  0  0  0  0  0  0  0  0
    6.8471   -8.4693    0.0000 O   0  0  0  0  0  0  0  0  0  0  0  0
    3.9894   -8.4340    0.0000 O   0  0  0  0  0  0  0  0  0  0  0  0
    6.8675   -6.8194    0.0000 O   0  0  0  0  0  0  0  0  0  0  0  0
    3.2903   -7.1878    0.0000 O   0  0  0  0  0  0  0  0  0  0  0  0
    4.0098   -6.7842    0.0000 C   0  0  0  0  0  0  0  0  0  0  0  0
    4.7191   -7.2054    0.0000 C   0  0  2  0  0  0  0  0  0  0  0  0
    4.7089   -8.0304    0.0000 C   0  0  2  0  0  0  0  0  0  0  0  0
    5.4183   -8.4517    0.0000 C   0  0  1  0  0  0  0  0  0  0  0  0
    6.1378   -8.0480    0.0000 C   0  0  2  0  0  0  0  0  0  0  0  0
    6.1480   -7.2231    0.0000 C   0  0  1  0  0  0  0  0  0  0  0  0
    5.4386   -6.8018    0.0000 O   0  0  0  0  0  0  0  0  0  0  0  0
    5.4081   -9.2766    0.0000 O   0  0  0  0  0  0  0  0  0  0  0  0
    3.9487  -11.7338    0.0000 O   0  0  0  0  0  0  0  0  0  0  0  0
    2.5301  -10.8912    0.0000 O   0  0  0  0  0  0  0  0  0  0  0  0
    2.5504   -9.2413    0.0000 C   0  0  0  0  0  0  0  0  0  0  0  0
    3.2597   -9.6626    0.0000 C   0  0  1  0  0  0  0  0  0  0  0  0
    3.2496  -10.4875    0.0000 C   0  0  1  0  0  0  0  0  0  0  0  0
    3.9589  -10.9088    0.0000 C   0  0  2  0  0  0  0  0  0  0  0  0
    4.6784  -10.5052    0.0000 C   0  0  2  0  0  0  0  0  0  0  0  0
    4.6886   -9.6803    0.0000 C   0  0  1  0  0  0  0  0  0  0  0  0
    3.9793   -9.2590    0.0000 O   0  0  0  0  0  0  0  0  0  0  0  0
 40 21  1  6  0  0  0
 41 33  1  1  0  0  0
 29 33  1  1  0  0  0
 30 22  1  6  0  0  0
 28 23  1  6  0  0  0
 31 24  1  1  0  0  0
 27 26  1  1  0  0  0
 26 25  1  0  0  0  0
 32 27  1  0  0  0  0
 28 27  1  0  0  0  0
 29 28  1  0  0  0  0
 30 29  1  0  0  0  0
 31 30  1  0  0  0  0
 32 31  1  0  0  0  0
 39 34  1  6  0  0  0
 38 35  1  1  0  0  0
 37 36  1  6  0  0  0
 42 37  1  0  0  0  0
 38 37  1  0  0  0  0
 39 38  1  0  0  0  0
 40 39  1  0  0  0  0
 41 40  1  0  0  0  0
 42 41  1  0  0  0  0
  1  2  1  0  0  0  0
  2  3  1  0  0  0  0
  3  4  1  0  0  0  0
  7  8  1  0  0  0  0
 24  7  1  0  0  0  0
  9 10  1  0  0  0  0
 10 11  2  0  0  0  0
 11 12  1  0  0  0  0
 12 13  2  0  0  0  0
 13 14  1  0  0  0  0
  9 14  2  0  0  0  0
 15 16  1  0  0  0  0
 11 15  1  0  0  0  0
 12 17  1  0  0  0  0
  8  9  1  0  0  0  0
  4  5  1  0  0  0  0
  5  6  1  0  0  0  0
  1  6  1  0  0  0  0
  3 18  1  6  0  0  0
  4 19  1  1  0  0  0
  5 20  1  1  0  0  0
  2 21  1  1  0  0  0
M  END
>  <cdx:groupId>
192479

>  <cdx:fragmentId>
192415

$$$$
