32594.cdx
  Mrv1902 05222410212D          

 12 12  0  0  0  0            999 V2000
    6.5858   -4.9445    0.0000 C   0  0  0  0  0  0  0  0  0  0  0  0
    6.5858   -4.1195    0.0000 C   0  0  0  0  0  0  0  0  0  0  0  0
    5.8714   -5.3570    0.0000 N   0  0  0  0  0  0  0  0  0  0  0  0
    5.8714   -3.7070    0.0000 N   0  0  0  0  0  0  0  0  0  0  0  0
    5.1569   -4.1195    0.0000 C   0  0  0  0  0  0  0  0  0  0  0  0
    5.1569   -4.9445    0.0000 C   0  0  0  0  0  0  0  0  0  0  0  0
    7.3003   -3.7070    0.0000 O   0  0  0  0  0  0  0  0  0  0  0  0
    7.3003   -2.8820    0.0000 C   0  0  0  0  0  0  0  0  0  0  0  0
    7.3003   -5.3570    0.0000 C   0  0  0  0  0  0  0  0  0  0  0  0
    7.3003   -6.1820    0.0000 C   0  0  0  0  0  0  0  0  0  0  0  0
    6.5858   -6.5945    0.0000 C   0  0  0  0  0  0  0  0  0  0  0  0
    8.0148   -6.5945    0.0000 C   0  0  0  0  0  0  0  0  0  0  0  0
  1  2  1  0  0  0  0
  1  3  2  0  0  0  0
  2  4  2  0  0  0  0
  4  5  1  0  0  0  0
  5  6  2  0  0  0  0
  3  6  1  0  0  0  0
  7  8  1  0  0  0  0
  2  7  1  0  0  0  0
  1  9  1  0  0  0  0
  9 10  1  0  0  0  0
 10 11  1  0  0  0  0
 10 12  1  0  0  0  0
M  END
>  <cdx:fragmentId>
5

$$$$
