326.cdx
  Mrv1902 05222410272D          

 11 11  0  0  0  0            999 V2000
    6.7218   -4.8538    0.0000 C   0  0  0  0  0  0  0  0  0  0  0  0
    6.7218   -5.6788    0.0000 C   0  0  0  0  0  0  0  0  0  0  0  0
    7.4363   -6.0912    0.0000 C   0  0  0  0  0  0  0  0  0  0  0  0
    8.1507   -5.6788    0.0000 C   0  0  0  0  0  0  0  0  0  0  0  0
    8.1507   -4.8538    0.0000 C   0  0  0  0  0  0  0  0  0  0  0  0
    7.4363   -4.4412    0.0000 C   0  0  0  0  0  0  0  0  0  0  0  0
    7.4363   -3.6163    0.0000 C   0  0  0  0  0  0  0  0  0  0  0  0
    6.7218   -3.2037    0.0000 O   0  0  0  0  0  0  0  0  0  0  0  0
    7.4363   -6.9162    0.0000 C   0  0  0  0  0  0  0  0  0  0  0  0
    8.1507   -7.3287    0.0000 C   0  0  0  0  0  0  0  0  0  0  0  0
    6.7218   -7.3287    0.0000 C   0  0  0  0  0  0  0  0  0  0  0  0
  1  2  2  0  0  0  0
  2  3  1  0  0  0  0
  3  4  2  0  0  0  0
  4  5  1  0  0  0  0
  5  6  2  0  0  0  0
  6  1  1  0  0  0  0
  6  7  1  0  0  0  0
  7  8  2  0  0  0  0
  3  9  1  0  0  0  0
  9 10  1  0  0  0  0
  9 11  1  0  0  0  0
M  END
>  <cdx:fragmentId>
48

$$$$
