3261.cdx
  Mrv1902 05222410272D          

 16 16  0  0  0  0            999 V2000
    7.2633   -8.2706    0.0000 C   0  0  0  0  0  0  0  0  0  0  0  0
    7.2633   -9.0956    0.0000 C   0  0  0  0  0  0  0  0  0  0  0  0
    7.9777   -9.5081    0.0000 C   0  0  0  0  0  0  0  0  0  0  0  0
    8.6922   -9.0956    0.0000 C   0  0  0  0  0  0  0  0  0  0  0  0
    8.6922   -8.2706    0.0000 C   0  0  0  0  0  0  0  0  0  0  0  0
    7.9777   -7.8581    0.0000 C   0  0  0  0  0  0  0  0  0  0  0  0
    9.4067   -7.8581    0.0000 C   0  0  0  0  0  0  0  0  0  0  0  0
   10.1212   -8.2706    0.0000 O   0  0  0  0  0  0  0  0  0  0  0  0
    9.4067   -7.0331    0.0000 O   0  0  0  0  0  0  0  0  0  0  0  0
   10.8356   -7.8581    0.0000 C   0  0  0  0  0  0  0  0  0  0  0  0
    7.9777   -7.0331    0.0000 C   0  0  0  0  0  0  0  0  0  0  0  0
    7.2633   -6.6206    0.0000 C   0  0  0  0  0  0  0  0  0  0  0  0
    7.2633   -5.7956    0.0000 C   0  0  0  0  0  0  0  0  0  0  0  0
    6.5488   -5.3831    0.0000 C   0  0  0  0  0  0  0  0  0  0  0  0
    6.5488   -4.5581    0.0000 C   0  0  0  0  0  0  0  0  0  0  0  0
    8.6922   -6.6206    0.0000 O   0  0  0  0  0  0  0  0  0  0  0  0
  1  2  2  0  0  0  0
  2  3  1  0  0  0  0
  3  4  2  0  0  0  0
  4  5  1  0  0  0  0
  5  6  2  0  0  0  0
  6  1  1  0  0  0  0
  5  7  1  0  0  0  0
  7  8  1  0  0  0  0
  7  9  2  0  0  0  0
  8 10  1  0  0  0  0
  6 11  1  0  0  0  0
 11 12  1  0  0  0  0
 12 13  1  0  0  0  0
 13 14  1  0  0  0  0
 14 15  1  0  0  0  0
 11 16  2  0  0  0  0
M  END
>  <cdx:fragmentId>
5

$$$$
