326387.cdx
  Mrv1902 05222410272D          

 59 65  0  0  0  0            999 V2000
    7.5734   -8.2756    0.0000 C   0  0  0  0  0  0  0  0  0  0  0  0
    6.8687   -8.7046    0.0000 C   0  0  0  0  0  0  0  0  0  0  0  0
    6.8878   -9.5294    0.0000 C   0  0  1  0  0  0  0  0  0  0  0  0
    7.6117   -9.9252    0.0000 C   0  0  1  0  0  0  0  0  0  0  0  0
    8.3164   -9.4962    0.0000 C   0  0  2  0  0  0  0  0  0  0  0  0
    9.0403   -9.8920    0.0000 C   0  0  0  0  0  0  0  0  0  0  0  0
    9.7450   -9.4630    0.0000 C   0  0  0  0  0  0  0  0  0  0  0  0
    9.7258   -8.6382    0.0000 C   0  0  1  0  0  0  0  0  0  0  0  0
   10.4305   -8.2092    0.0000 C   0  0  2  0  0  0  0  0  0  0  0  0
   11.1543   -8.6050    0.0000 C   0  0  0  0  0  0  0  0  0  0  0  0
   11.8590   -8.1760    0.0000 C   0  0  0  0  0  0  0  0  0  0  0  0
   11.8399   -7.3513    0.0000 C   0  0  1  0  0  0  0  0  0  0  0  0
   12.5446   -6.9223    0.0000 C   0  0  1  0  0  0  0  0  0  0  0  0
   12.5254   -6.0975    0.0000 C   0  0  0  0  0  0  0  0  0  0  0  0
   11.8015   -5.7017    0.0000 C   0  0  0  0  0  0  0  0  0  0  0  0
   11.0968   -6.1307    0.0000 C   0  0  0  0  0  0  0  0  0  0  0  0
   11.1160   -6.9555    0.0000 C   0  0  1  0  0  0  0  0  0  0  0  0
   10.4113   -7.3845    0.0000 C   0  0  0  0  0  0  0  0  0  0  0  0
    9.6875   -6.9887    0.0000 C   0  0  0  0  0  0  0  0  0  0  0  0
    8.9828   -7.4177    0.0000 C   0  0  0  0  0  0  0  0  0  0  0  0
    9.0019   -8.2424    0.0000 C   0  0  2  0  0  0  0  0  0  0  0  0
    8.2972   -8.6714    0.0000 C   0  0  1  0  0  0  0  0  0  0  0  0
    8.2972   -7.8464    0.0000 C   0  0  0  0  0  0  0  0  0  0  0  0
   11.3726   -4.9970    0.0000 C   0  0  0  0  0  0  0  0  0  0  0  0
   12.1973   -4.9779    0.0000 C   0  0  0  0  0  0  0  0  0  0  0  0
   12.5637   -7.7471    0.0000 C   0  0  0  0  0  0  0  0  0  0  0  0
   10.4496   -9.0340    0.0000 C   0  0  0  0  0  0  0  0  0  0  0  0
    9.7258   -7.8132    0.0000 C   0  0  0  0  0  0  0  0  0  0  0  0
    7.1992  -10.6397    0.0000 C   0  0  0  0  0  0  0  0  0  0  0  0
   13.2684   -7.3181    0.0000 O   0  0  0  0  0  0  0  0  0  0  0  0
    8.3356  -10.3210    0.0000 H   0  0  0  0  0  0  0  0  0  0  0  0
   10.3922   -6.5597    0.0000 H   0  0  0  0  0  0  0  0  0  0  0  0
    9.0019   -9.0674    0.0000 H   0  0  0  0  0  0  0  0  0  0  0  0
    6.1831   -9.9584    0.0000 O   0  0  0  0  0  0  0  0  0  0  0  0
    3.2877   -8.3752    0.0000 O   0  0  0  0  0  0  0  0  0  0  0  0
    3.3260  -10.0248    0.0000 O   0  0  0  0  0  0  0  0  0  0  0  0
    4.8121  -12.4659    0.0000 O   0  0  0  0  0  0  0  0  0  0  0  0
    3.4027  -13.3239    0.0000 O   0  0  0  0  0  0  0  0  0  0  0  0
    1.9550  -12.5323    0.0000 O   0  0  0  0  0  0  0  0  0  0  0  0
    1.2119  -11.3117    0.0000 O   0  0  0  0  0  0  0  0  0  0  0  0
    1.9166  -10.8828    0.0000 C   0  0  0  0  0  0  0  0  0  0  0  0
    2.6405  -11.2785    0.0000 C   0  0  2  0  0  0  0  0  0  0  0  0
    2.6597  -12.1033    0.0000 C   0  0  2  0  0  0  0  0  0  0  0  0
    3.3835  -12.4991    0.0000 C   0  0  1  0  0  0  0  0  0  0  0  0
    4.0882  -12.0701    0.0000 C   0  0  2  0  0  0  0  0  0  0  0  0
    4.0691  -11.2453    0.0000 C   0  0  1  0  0  0  0  0  0  0  0  0
    3.3452  -10.8496    0.0000 O   0  0  0  0  0  0  0  0  0  0  0  0
    4.7738  -10.8164    0.0000 O   0  0  0  0  0  0  0  0  0  0  0  0
    3.9732   -7.1215    0.0000 O   0  0  0  0  0  0  0  0  0  0  0  0
    5.4018   -7.0883    0.0000 O   0  0  0  0  0  0  0  0  0  0  0  0
    4.6971   -7.5173    0.0000 C   0  0  0  0  0  0  0  0  0  0  0  0
    5.4593   -9.5626    0.0000 C   0  0  1  0  0  0  0  0  0  0  0  0
    4.7546   -9.9916    0.0000 C   0  0  1  0  0  0  0  0  0  0  0  0
    4.0307   -9.5958    0.0000 C   0  0  2  0  0  0  0  0  0  0  0  0
    4.0116   -8.7710    0.0000 C   0  0  1  0  0  0  0  0  0  0  0  0
    4.7163   -8.3420    0.0000 C   0  0  2  0  0  0  0  0  0  0  0  0
    5.4401   -8.7378    0.0000 O   0  0  0  0  0  0  0  0  0  0  0  0
    8.0242  -10.6397    0.0000 C   0  0  0  0  0  0  0  0  0  0  0  0
    7.6117  -11.3541    0.0000 O   0  0  0  0  0  0  0  0  0  0  0  0
 52 34  1  1  0  0  0
 55 35  1  6  0  0  0
 54 36  1  1  0  0  0
 53 48  1  6  0  0  0
 46 48  1  1  0  0  0
 45 37  1  6  0  0  0
 44 38  1  1  0  0  0
 43 39  1  6  0  0  0
 42 41  1  1  0  0  0
 41 40  1  0  0  0  0
 47 42  1  0  0  0  0
 43 42  1  0  0  0  0
 44 43  1  0  0  0  0
 45 44  1  0  0  0  0
 46 45  1  0  0  0  0
 47 46  1  0  0  0  0
 56 51  1  1  0  0  0
 51 49  1  0  0  0  0
 51 50  2  0  0  0  0
 57 52  1  0  0  0  0
 53 52  1  0  0  0  0
 54 53  1  0  0  0  0
 55 54  1  0  0  0  0
 56 55  1  0  0  0  0
 57 56  1  0  0  0  0
  1  2  1  0  0  0  0
  2  3  1  0  0  0  0
  3  4  1  0  0  0  0
  4  5  1  0  0  0  0
  5  6  1  0  0  0  0
  6  7  1  0  0  0  0
  7  8  1  0  0  0  0
  8  9  1  0  0  0  0
  9 10  1  0  0  0  0
 10 11  1  0  0  0  0
 11 12  1  0  0  0  0
 12 13  1  0  0  0  0
 13 14  1  0  0  0  0
 14 15  1  0  0  0  0
 15 16  1  0  0  0  0
 16 17  1  0  0  0  0
 12 17  1  0  0  0  0
 17 18  1  0  0  0  0
  9 18  1  0  0  0  0
 18 19  2  0  0  0  0
 19 20  1  0  0  0  0
 20 21  1  0  0  0  0
  8 21  1  0  0  0  0
 21 22  1  0  0  0  0
  5 22  1  0  0  0  0
  1 22  1  0  0  0  0
 22 23  1  1  0  0  0
 15 24  1  0  0  0  0
 15 25  1  0  0  0  0
 12 26  1  1  0  0  0
  9 27  1  6  0  0  0
  8 28  1  1  0  0  0
  4 29  1  1  0  0  0
 13 30  1  1  0  0  0
  3 34  1  1  0  0  0
  5 31  1  6  0  0  0
 17 32  1  1  0  0  0
 21 33  1  6  0  0  0
  4 58  1  6  0  0  0
 29 59  1  0  0  0  0
M  END
>  <cdx:fragmentId>
94679

$$$$
