5326566.cdx
  Mrv1902 05222410192D          

 18 20  0  0  0  0            999 V2000
   16.7903   -7.4455    0.0000 N   0  0  0  0  0  0  0  0  0  0  0  0
   17.5047   -7.8580    0.0000 C   0  0  0  0  0  0  0  0  0  0  0  0
   18.2192   -7.4455    0.0000 O   0  0  0  0  0  0  0  0  0  0  0  0
   17.5047   -8.6830    0.0000 N   0  0  0  0  0  0  0  0  0  0  0  0
   16.7903   -9.0955    0.0000 C   0  0  0  0  0  0  0  0  0  0  0  0
   16.7903   -9.9205    0.0000 O   0  0  0  0  0  0  0  0  0  0  0  0
   16.0758   -8.6830    0.0000 C   0  0  0  0  0  0  0  0  0  0  0  0
   15.3613   -9.0955    0.0000 N   0  0  0  0  0  0  0  0  0  0  0  0
   14.6469   -8.6830    0.0000 C   0  0  0  0  0  0  0  0  0  0  0  0
   13.9324   -9.0955    0.0000 C   0  0  0  0  0  0  0  0  0  0  0  0
   13.2179   -8.6830    0.0000 C   0  0  0  0  0  0  0  0  0  0  0  0
   13.2179   -7.8580    0.0000 C   0  0  0  0  0  0  0  0  0  0  0  0
   13.9324   -7.4455    0.0000 C   0  0  0  0  0  0  0  0  0  0  0  0
   14.6469   -7.8580    0.0000 C   0  0  0  0  0  0  0  0  0  0  0  0
   15.3613   -7.4455    0.0000 N   0  0  0  0  0  0  0  0  0  0  0  0
   16.0758   -7.8580    0.0000 C   0  0  0  0  0  0  0  0  0  0  0  0
   12.5034   -7.4455    0.0000 C   0  0  0  0  0  0  0  0  0  0  0  0
   12.5034   -9.0955    0.0000 C   0  0  0  0  0  0  0  0  0  0  0  0
  1  2  1  0  0  0  0
  2  3  2  0  0  0  0
  2  4  1  0  0  0  0
  4  5  1  0  0  0  0
  5  6  2  0  0  0  0
  5  7  1  0  0  0  0
  7  8  2  0  0  0  0
  8  9  1  0  0  0  0
  9 10  2  0  0  0  0
 10 11  1  0  0  0  0
 11 12  2  0  0  0  0
 12 13  1  0  0  0  0
 13 14  2  0  0  0  0
  9 14  1  0  0  0  0
 14 15  1  0  0  0  0
 15 16  2  0  0  0  0
  7 16  1  0  0  0  0
  1 16  1  0  0  0  0
 12 17  1  0  0  0  0
 11 18  1  0  0  0  0
M  END
>  <cdx:groupId>
22170

>  <cdx:fragmentId>
22117

$$$$
