3267.cdx
  Mrv1902 05222410262D          

 32 34  0  0  0  0            999 V2000
    7.4571   -1.7656    0.0000 C   0  0  0  0  0  0  0  0  0  0  0  0
    6.7508   -2.1921    0.0000 C   0  0  0  0  0  0  0  0  0  0  0  0
    6.0284   -1.7937    0.0000 C   0  0  0  0  0  0  0  0  0  0  0  0
    6.0771   -4.2682    0.0000 C   0  0  0  0  0  0  0  0  0  0  0  0
    6.0608   -3.4434    0.0000 C   0  0  0  0  0  0  0  0  0  0  0  0
    6.7671   -3.0169    0.0000 C   0  0  0  0  0  0  0  0  0  0  0  0
    7.4895   -3.4153    0.0000 C   0  0  0  0  0  0  0  0  0  0  0  0
    7.5057   -4.2402    0.0000 C   0  0  0  0  0  0  0  0  0  0  0  0
    6.7995   -4.6666    0.0000 C   0  0  0  0  0  0  0  0  0  0  0  0
    6.1095   -5.9179    0.0000 O   0  0  0  0  0  0  0  0  0  0  0  0
    6.8157   -5.4915    0.0000 C   0  0  0  0  0  0  0  0  0  0  0  0
    6.1257   -6.7428    0.0000 C   0  0  2  0  0  0  0  0  0  0  0  0
    5.4074   -7.1486    0.0000 O   0  0  0  0  0  0  0  0  0  0  0  0
    5.4074   -7.9735    0.0000 C   0  0  1  0  0  0  0  0  0  0  0  0
    6.1257   -8.3927    0.0000 C   0  0  2  0  0  0  0  0  0  0  0  0
    6.8440   -7.9735    0.0000 C   0  0  1  0  0  0  0  0  0  0  0  0
    6.8440   -7.1486    0.0000 C   0  0  1  0  0  0  0  0  0  0  0  0
    4.6920   -8.3844    0.0000 C   0  0  0  0  0  0  0  0  0  0  0  0
    7.5594   -8.3844    0.0000 O   0  0  0  0  0  0  0  0  0  0  0  0
    6.1257   -9.2177    0.0000 O   0  0  0  0  0  0  0  0  0  0  0  0
    7.5565   -6.7327    0.0000 O   0  0  0  0  0  0  0  0  0  0  0  0
    4.6901   -9.2094    0.0000 O   0  0  0  0  0  0  0  0  0  0  0  0
    3.9746   -9.6202    0.0000 C   0  0  2  0  0  0  0  0  0  0  0  0
    3.2621   -9.2044    0.0000 O   0  0  0  0  0  0  0  0  0  0  0  0
    2.5457   -9.6202    0.0000 C   0  0  2  0  0  0  0  0  0  0  0  0
    2.5457  -10.4452    0.0000 C   0  0  1  0  0  0  0  0  0  0  0  0
    3.2621  -10.8610    0.0000 C   0  0  2  0  0  0  0  0  0  0  0  0
    3.9746  -10.4452    0.0000 C   0  0  1  0  0  0  0  0  0  0  0  0
    1.8308  -10.8569    0.0000 O   0  0  0  0  0  0  0  0  0  0  0  0
    1.8308   -9.2085    0.0000 C   0  0  0  0  0  0  0  0  0  0  0  0
    3.2630  -11.6860    0.0000 O   0  0  0  0  0  0  0  0  0  0  0  0
    4.6901  -10.8560    0.0000 O   0  0  0  0  0  0  0  0  0  0  0  0
 11  9  1  0  0  0  0
  6  2  1  0  0  0  0
  2  1  1  0  0  0  0
  3  2  1  0  0  0  0
  9  4  2  0  0  0  0
  5  4  1  0  0  0  0
  6  5  2  0  0  0  0
  7  6  1  0  0  0  0
  8  7  2  0  0  0  0
  9  8  1  0  0  0  0
 11 10  1  0  0  0  0
 12 10  1  1  0  0  0
 12 13  1  0  0  0  0
 13 14  1  0  0  0  0
 14 15  1  0  0  0  0
 15 16  1  0  0  0  0
 16 17  1  0  0  0  0
 17 12  1  0  0  0  0
 14 18  1  1  0  0  0
 16 19  1  1  0  0  0
 15 20  1  6  0  0  0
 17 21  1  6  0  0  0
 18 22  1  0  0  0  0
 23 22  1  1  0  0  0
 23 24  1  0  0  0  0
 24 25  1  0  0  0  0
 25 26  1  0  0  0  0
 26 27  1  0  0  0  0
 27 28  1  0  0  0  0
 28 23  1  0  0  0  0
 26 29  1  1  0  0  0
 25 30  1  6  0  0  0
 27 31  1  6  0  0  0
 28 32  1  6  0  0  0
M  END
>  <cdx:fragmentId>
9

$$$$
