32676.cdx
  Mrv1902 05222410262D          

 18 20  0  0  0  0            999 V2000
    8.3905   -9.3942    0.0000 O   0  0  0  0  0  0  0  0  0  0  0  0
    8.8755  -10.0617    0.0000 C   0  0  0  0  0  0  0  0  0  0  0  0
    8.3905  -10.7291    0.0000 C   0  0  0  0  0  0  0  0  0  0  0  0
    7.6059  -10.4742    0.0000 C   0  0  0  0  0  0  0  0  0  0  0  0
    6.8914  -10.8867    0.0000 C   0  0  0  0  0  0  0  0  0  0  0  0
    6.1770  -10.4742    0.0000 C   0  0  0  0  0  0  0  0  0  0  0  0
    6.1770   -9.6492    0.0000 C   0  0  1  0  0  0  0  0  0  0  0  0
    6.8914   -9.2367    0.0000 C   0  0  0  0  0  0  0  0  0  0  0  0
    7.6059   -9.6492    0.0000 C   0  0  0  0  0  0  0  0  0  0  0  0
    5.4625   -9.2367    0.0000 C   0  0  1  0  0  0  0  0  0  0  0  0
    4.7480   -9.6492    0.0000 C   0  0  0  0  0  0  0  0  0  0  0  0
    4.7480  -10.4742    0.0000 C   0  0  0  0  0  0  0  0  0  0  0  0
    5.4625  -10.8867    0.0000 C   0  0  2  0  0  0  0  0  0  0  0  0
    9.7005  -10.0617    0.0000 O   0  0  0  0  0  0  0  0  0  0  0  0
    8.6455  -11.5137    0.0000 C   0  0  0  0  0  0  0  0  0  0  0  0
    6.1770   -8.8242    0.0000 C   0  0  0  0  0  0  0  0  0  0  0  0
    5.4625  -11.7117    0.0000 C   0  0  0  0  0  0  0  0  0  0  0  0
    5.4625   -8.4117    0.0000 O   0  0  0  0  0  0  0  0  0  0  0  0
  1  2  1  0  0  0  0
  2  3  1  0  0  0  0
  3  4  1  0  0  0  0
  4  5  1  0  0  0  0
  5  6  2  0  0  0  0
  6  7  1  0  0  0  0
  7  8  1  0  0  0  0
  8  9  1  0  0  0  0
  4  9  1  0  0  0  0
  1  9  1  0  0  0  0
 10 11  1  0  0  0  0
 11 12  1  0  0  0  0
 12 13  1  0  0  0  0
 13  6  1  0  0  0  0
 10  7  1  0  0  0  0
  2 14  2  0  0  0  0
  3 15  2  0  0  0  0
  7 16  1  1  0  0  0
 13 17  1  1  0  0  0
 10 18  1  1  0  0  0
M  END
>  <cdx:groupId>
14645

>  <cdx:fragmentId>
14592

$$$$
