32677.cdx
  Mrv1902 05222410272D          

 18 20  0  0  0  0            999 V2000
    8.8855   -8.8167    0.0000 O   0  0  0  0  0  0  0  0  0  0  0  0
    9.3705   -9.4842    0.0000 C   0  0  0  0  0  0  0  0  0  0  0  0
    8.8855  -10.1516    0.0000 C   0  0  0  0  0  0  0  0  0  0  0  0
    8.1009   -9.8967    0.0000 C   0  0  0  0  0  0  0  0  0  0  0  0
    7.3864  -10.3092    0.0000 C   0  0  0  0  0  0  0  0  0  0  0  0
    6.6720   -9.8967    0.0000 C   0  0  0  0  0  0  0  0  0  0  0  0
    6.6720   -9.0717    0.0000 C   0  0  1  0  0  0  0  0  0  0  0  0
    7.3864   -8.6592    0.0000 C   0  0  0  0  0  0  0  0  0  0  0  0
    8.1009   -9.0717    0.0000 C   0  0  0  0  0  0  0  0  0  0  0  0
    5.9575   -8.6592    0.0000 C   0  0  1  0  0  0  0  0  0  0  0  0
    5.2430   -9.0717    0.0000 C   0  0  0  0  0  0  0  0  0  0  0  0
    5.2430   -9.8967    0.0000 C   0  0  0  0  0  0  0  0  0  0  0  0
    5.9575  -10.3092    0.0000 C   0  0  0  0  0  0  0  0  0  0  0  0
   10.1955   -9.4842    0.0000 O   0  0  0  0  0  0  0  0  0  0  0  0
    9.1405  -10.9362    0.0000 C   0  0  0  0  0  0  0  0  0  0  0  0
    6.6720   -8.2467    0.0000 C   0  0  0  0  0  0  0  0  0  0  0  0
    5.9575  -11.1342    0.0000 C   0  0  0  0  0  0  0  0  0  0  0  0
    5.9575   -7.8342    0.0000 O   0  0  0  0  0  0  0  0  0  0  0  0
  1  2  1  0  0  0  0
  2  3  1  0  0  0  0
  3  4  1  0  0  0  0
  4  5  1  0  0  0  0
  5  6  1  0  0  0  0
  6  7  1  0  0  0  0
  7  8  1  0  0  0  0
  8  9  1  0  0  0  0
  4  9  1  0  0  0  0
  1  9  1  0  0  0  0
 10 11  1  0  0  0  0
 11 12  1  0  0  0  0
 12 13  1  0  0  0  0
 13  6  2  0  0  0  0
 10  7  1  0  0  0  0
  2 14  2  0  0  0  0
  3 15  2  0  0  0  0
  7 16  1  1  0  0  0
 13 17  1  0  0  0  0
 10 18  1  1  0  0  0
M  END
>  <cdx:groupId>
14709

>  <cdx:fragmentId>
14656

$$$$
