10326741.cdx
  Mrv1902 05222410272D          

 47 51  0  0  0  0            999 V2000
    8.4647  -15.5424    0.0000 C   0  0  0  0  0  0  0  0  0  0  0  0
    9.1792  -15.1299    0.0000 C   0  0  0  0  0  0  0  0  0  0  0  0
    9.8936  -15.5424    0.0000 C   0  0  0  0  0  0  0  0  0  0  0  0
    8.4647  -16.3674    0.0000 O   0  0  0  0  0  0  0  0  0  0  0  0
    7.7502  -15.1299    0.0000 O   0  0  0  0  0  0  0  0  0  0  0  0
   10.6081  -15.1299    0.0000 C   0  0  0  0  0  0  0  0  0  0  0  0
   11.3226  -15.5424    0.0000 C   0  0  0  0  0  0  0  0  0  0  0  0
   12.0370  -15.1299    0.0000 C   0  0  0  0  0  0  0  0  0  0  0  0
   12.0370  -14.3049    0.0000 C   0  0  0  0  0  0  0  0  0  0  0  0
   11.3226  -13.8924    0.0000 C   0  0  0  0  0  0  0  0  0  0  0  0
   10.6081  -14.3049    0.0000 C   0  0  0  0  0  0  0  0  0  0  0  0
   12.7515  -15.5424    0.0000 O   0  0  0  0  0  0  0  0  0  0  0  0
   13.4660  -15.1299    0.0000 C   0  0  0  0  0  0  0  0  0  0  0  0
   12.7515  -13.8924    0.0000 O   0  0  0  0  0  0  0  0  0  0  0  0
    4.8923  -16.7799    0.0000 O   0  0  0  0  0  0  0  0  0  0  0  0
    5.6068  -16.3674    0.0000 C   0  0  1  0  0  0  0  0  0  0  0  0
    5.6068  -15.5424    0.0000 C   0  0  2  0  0  0  0  0  0  0  0  0
    4.8923  -15.1299    0.0000 O   0  0  0  0  0  0  0  0  0  0  0  0
    4.1779  -15.5424    0.0000 C   0  0  2  0  0  0  0  0  0  0  0  0
    4.1779  -16.3674    0.0000 C   0  0  0  0  0  0  0  0  0  0  0  0
    6.3213  -15.1299    0.0000 C   0  0  2  0  0  0  0  0  0  0  0  0
    7.0357  -15.5424    0.0000 C   0  0  1  0  0  0  0  0  0  0  0  0
    7.0357  -16.3674    0.0000 C   0  0  2  0  0  0  0  0  0  0  0  0
    6.3213  -16.7799    0.0000 O   0  0  0  0  0  0  0  0  0  0  0  0
    6.3213  -14.3049    0.0000 O   0  0  0  0  0  0  0  0  0  0  0  0
    7.7502  -14.3049    0.0000 O   0  0  0  0  0  0  0  0  0  0  0  0
    7.0357  -13.8924    0.0000 C   0  0  2  0  0  0  0  0  0  0  0  0
    7.0357  -13.0674    0.0000 C   0  0  1  0  0  0  0  0  0  0  0  0
    7.7502  -12.6549    0.0000 C   0  0  1  0  0  0  0  0  0  0  0  0
    8.4647  -13.0674    0.0000 C   0  0  2  0  0  0  0  0  0  0  0  0
    8.4647  -13.8924    0.0000 C   0  0  2  0  0  0  0  0  0  0  0  0
    9.1792  -14.3049    0.0000 C   0  0  0  0  0  0  0  0  0  0  0  0
    9.1792  -12.6549    0.0000 O   0  0  0  0  0  0  0  0  0  0  0  0
    7.7502  -11.8299    0.0000 O   0  0  0  0  0  0  0  0  0  0  0  0
    6.3213  -12.6549    0.0000 O   0  0  0  0  0  0  0  0  0  0  0  0
    7.7502  -16.7799    0.0000 C   0  0  0  0  0  0  0  0  0  0  0  0
    7.7502  -17.6049    0.0000 O   0  0  0  0  0  0  0  0  0  0  0  0
    3.4634  -15.1299    0.0000 C   0  0  0  0  0  0  0  0  0  0  0  0
    2.7489  -15.5424    0.0000 C   0  0  0  0  0  0  0  0  0  0  0  0
    2.0345  -15.1299    0.0000 C   0  0  0  0  0  0  0  0  0  0  0  0
    2.0345  -14.3049    0.0000 C   0  0  0  0  0  0  0  0  0  0  0  0
    2.7489  -13.8924    0.0000 C   0  0  0  0  0  0  0  0  0  0  0  0
    3.4634  -14.3049    0.0000 C   0  0  0  0  0  0  0  0  0  0  0  0
    1.3200  -13.8924    0.0000 O   0  0  0  0  0  0  0  0  0  0  0  0
    1.3200  -15.5424    0.0000 O   0  0  0  0  0  0  0  0  0  0  0  0
    5.6068  -17.1924    0.0000 H   0  0  0  0  0  0  0  0  0  0  0  0
    5.6068  -14.7174    0.0000 H   0  0  0  0  0  0  0  0  0  0  0  0
  1  2  1  0  0  0  0
  2  3  2  0  0  0  0
  1  4  2  0  0  0  0
  1  5  1  0  0  0  0
  6  7  1  0  0  0  0
  7  8  2  0  0  0  0
  8  9  1  0  0  0  0
  9 10  2  0  0  0  0
 10 11  1  0  0  0  0
  6 11  2  0  0  0  0
 12 13  1  0  0  0  0
  8 12  1  0  0  0  0
  9 14  1  0  0  0  0
  3  6  1  0  0  0  0
 15 16  1  0  0  0  0
 16 17  1  0  0  0  0
 17 18  1  0  0  0  0
 18 19  1  0  0  0  0
 19 20  1  0  0  0  0
 15 20  1  0  0  0  0
 21 22  1  0  0  0  0
 22 23  1  0  0  0  0
 23 24  1  0  0  0  0
 24 16  1  0  0  0  0
 21 17  1  0  0  0  0
 26 27  1  0  0  0  0
 27 28  1  0  0  0  0
 28 29  1  0  0  0  0
 29 30  1  0  0  0  0
 30 31  1  0  0  0  0
 26 31  1  0  0  0  0
 31 32  1  6  0  0  0
 30 33  1  1  0  0  0
 29 34  1  6  0  0  0
 28 35  1  6  0  0  0
 27 25  1  1  0  0  0
 21 25  1  1  0  0  0
 36 37  1  0  0  0  0
 23 36  1  1  0  0  0
 38 39  1  0  0  0  0
 39 40  2  0  0  0  0
 40 41  1  0  0  0  0
 41 42  2  0  0  0  0
 42 43  1  0  0  0  0
 38 43  2  0  0  0  0
 41 44  1  0  0  0  0
 40 45  1  0  0  0  0
 19 38  1  6  0  0  0
 22  5  1  6  0  0  0
 16 46  1  6  0  0  0
 17 47  1  1  0  0  0
M  END
>  <cdx:groupId>
44918

>  <cdx:fragmentId>
44826

$$$$
