10327838.cdx
  Mrv1902 05222410222D          

 57 61  0  0  0  0            999 V2000
    9.5108  -15.3226    0.0000 N   0  0  0  0  0  0  0  0  0  0  0  0
    8.7963  -14.9101    0.0000 C   0  0  0  0  0  0  0  0  0  0  0  0
    8.7963  -14.0851    0.0000 C   0  0  1  0  0  0  0  0  0  0  0  0
    8.0819  -13.6726    0.0000 N   0  0  0  0  0  0  0  0  0  0  0  0
    8.0756  -12.8586    0.0000 C   0  0  0  0  0  0  0  0  0  0  0  0
    7.3611  -12.4461    0.0000 C   0  0  1  0  0  0  0  0  0  0  0  0
    6.6466  -12.8586    0.0000 N   0  0  0  0  0  0  0  0  0  0  0  0
    5.8318  -12.7295    0.0000 C   0  0  0  0  0  0  0  0  0  0  0  0
    5.4193  -13.4440    0.0000 C   0  0  1  0  0  0  0  0  0  0  0  0
    5.9385  -14.0851    0.0000 N   0  0  0  0  0  0  0  0  0  0  0  0
    5.9385  -14.9101    0.0000 C   0  0  0  0  0  0  0  0  0  0  0  0
    5.2240  -15.3226    0.0000 C   0  0  1  0  0  0  0  0  0  0  0  0
    5.2240  -16.1476    0.0000 N   0  0  0  0  0  0  0  0  0  0  0  0
    5.9385  -16.5601    0.0000 C   0  0  0  0  0  0  0  0  0  0  0  0
    5.9385  -17.3851    0.0000 C   0  0  1  0  0  0  0  0  0  0  0  0
    6.6529  -17.7976    0.0000 N   0  0  0  0  0  0  0  0  0  0  0  0
    7.3674  -17.3851    0.0000 C   0  0  0  0  0  0  0  0  0  0  0  0
    8.0819  -17.7976    0.0000 C   0  0  0  0  0  0  0  0  0  0  0  0
    8.7963  -17.3851    0.0000 N   0  0  0  0  0  0  0  0  0  0  0  0
    8.7963  -16.5601    0.0000 C   0  0  0  0  0  0  0  0  0  0  0  0
    9.5108  -16.1476    0.0000 C   0  0  2  0  0  0  0  0  0  0  0  0
   10.2954  -16.4026    0.0000 C   0  0  0  0  0  0  0  0  0  0  0  0
   10.7804  -15.7351    0.0000 C   0  0  0  0  0  0  0  0  0  0  0  0
   10.2954  -15.0677    0.0000 C   0  0  0  0  0  0  0  0  0  0  0  0
    8.0819  -15.3226    0.0000 O   0  0  0  0  0  0  0  0  0  0  0  0
    8.7900  -12.4461    0.0000 O   0  0  0  0  0  0  0  0  0  0  0  0
    5.4193  -12.0150    0.0000 O   0  0  0  0  0  0  0  0  0  0  0  0
    6.6529  -15.3226    0.0000 O   0  0  0  0  0  0  0  0  0  0  0  0
    6.6529  -16.1476    0.0000 O   0  0  0  0  0  0  0  0  0  0  0  0
    7.3674  -16.5601    0.0000 O   0  0  0  0  0  0  0  0  0  0  0  0
    8.0819  -16.1476    0.0000 O   0  0  0  0  0  0  0  0  0  0  0  0
    5.2240  -17.7976    0.0000 C   0  0  0  0  0  0  0  0  0  0  0  0
    4.5095  -17.3851    0.0000 C   0  0  0  0  0  0  0  0  0  0  0  0
    4.5095  -16.5601    0.0000 C   0  0  0  0  0  0  0  0  0  0  0  0
    3.7950  -17.7976    0.0000 C   0  0  0  0  0  0  0  0  0  0  0  0
    7.3611  -11.6211    0.0000 C   0  0  0  0  0  0  0  0  0  0  0  0
    4.5095  -14.9101    0.0000 C   0  0  0  0  0  0  0  0  0  0  0  0
    2.9018  -16.3146    0.0000 C   0  0  0  0  0  0  0  0  0  0  0  0
    2.4893  -15.6002    0.0000 N   0  0  0  0  0  0  0  0  0  0  0  0
    3.0414  -14.9871    0.0000 C   0  0  0  0  0  0  0  0  0  0  0  0
    3.7950  -15.3226    0.0000 C   0  0  0  0  0  0  0  0  0  0  0  0
    3.7088  -16.1431    0.0000 N   0  0  0  0  0  0  0  0  0  0  0  0
    4.5943  -13.4440    0.0000 C   0  0  0  0  0  0  0  0  0  0  0  0
    4.1818  -12.7295    0.0000 C   0  0  0  0  0  0  0  0  0  0  0  0
    3.3568  -12.7295    0.0000 C   0  0  0  0  0  0  0  0  0  0  0  0
    2.9443  -12.0150    0.0000 C   0  0  0  0  0  0  0  0  0  0  0  0
    3.3568  -11.3006    0.0000 C   0  0  0  0  0  0  0  0  0  0  0  0
    4.1818  -11.3006    0.0000 C   0  0  0  0  0  0  0  0  0  0  0  0
    4.5943  -12.0150    0.0000 C   0  0  0  0  0  0  0  0  0  0  0  0
    9.9395  -13.4251    0.0000 C   0  0  0  0  0  0  0  0  0  0  0  0
   10.6540  -13.8376    0.0000 C   0  0  0  0  0  0  0  0  0  0  0  0
   11.3684  -13.4251    0.0000 C   0  0  0  0  0  0  0  0  0  0  0  0
   12.0829  -13.8376    0.0000 C   0  0  0  0  0  0  0  0  0  0  0  0
   12.0829  -14.6626    0.0000 C   0  0  0  0  0  0  0  0  0  0  0  0
   11.3684  -15.0751    0.0000 C   0  0  0  0  0  0  0  0  0  0  0  0
   10.6540  -14.6626    0.0000 C   0  0  0  0  0  0  0  0  0  0  0  0
    9.5971  -16.9681    0.0000 H   0  0  0  0  0  0  0  0  0  0  0  0
  1  2  1  0  0  0  0
  2  3  1  0  0  0  0
  3  4  1  0  0  0  0
  4  5  1  0  0  0  0
  5  6  1  0  0  0  0
  6  7  1  0  0  0  0
  7  8  1  0  0  0  0
  8  9  1  0  0  0  0
  9 10  1  0  0  0  0
 10 11  1  0  0  0  0
 11 12  1  0  0  0  0
 12 13  1  0  0  0  0
 13 14  1  0  0  0  0
 14 15  1  0  0  0  0
 15 16  1  0  0  0  0
 16 17  1  0  0  0  0
 17 18  1  0  0  0  0
 18 19  1  0  0  0  0
 19 20  1  0  0  0  0
 20 21  1  0  0  0  0
 21 22  1  0  0  0  0
 22 23  1  0  0  0  0
 23 24  1  0  0  0  0
  1 24  1  0  0  0  0
  1 21  1  0  0  0  0
  2 25  2  0  0  0  0
  5 26  2  0  0  0  0
  8 27  2  0  0  0  0
 11 28  2  0  0  0  0
 14 29  2  0  0  0  0
 17 30  2  0  0  0  0
 20 31  2  0  0  0  0
 32 33  1  0  0  0  0
 33 34  1  0  0  0  0
 33 35  1  0  0  0  0
 15 32  1  1  0  0  0
  6 36  1  1  0  0  0
 38 39  2  0  0  0  0
 39 40  1  0  0  0  0
 40 41  2  0  0  0  0
 41 42  1  0  0  0  0
 38 42  1  0  0  0  0
 37 41  1  0  0  0  0
 12 37  1  1  0  0  0
 43 44  1  0  0  0  0
 44 45  1  0  0  0  0
 45 46  2  0  0  0  0
 46 47  1  0  0  0  0
 47 48  2  0  0  0  0
 48 49  1  0  0  0  0
 44 49  2  0  0  0  0
  9 43  1  1  0  0  0
 50 51  1  0  0  0  0
 51 52  1  0  0  0  0
 52 53  2  0  0  0  0
 53 54  1  0  0  0  0
 54 55  2  0  0  0  0
 55 56  1  0  0  0  0
 51 56  2  0  0  0  0
  3 50  1  1  0  0  0
 21 57  1  6  0  0  0
M  END
>  <cdx:groupId>
45103

>  <cdx:fragmentId>
44931

$$$$
