328.cdx
  Mrv1902 05222410202D          

 12 12  0  0  0  0            999 V2000
    8.6229   -4.9577    0.0000 C   0  0  0  0  0  0  0  0  0  0  0  0
    7.9085   -5.3702    0.0000 C   0  0  0  0  0  0  0  0  0  0  0  0
    8.6229   -4.1327    0.0000 O   0  0  0  0  0  0  0  0  0  0  0  0
    9.3374   -5.3702    0.0000 O   0  0  0  0  0  0  0  0  0  0  0  0
    7.1940   -4.9577    0.0000 C   0  0  0  0  0  0  0  0  0  0  0  0
    6.4795   -5.3702    0.0000 C   0  0  0  0  0  0  0  0  0  0  0  0
    5.7651   -4.9577    0.0000 C   0  0  0  0  0  0  0  0  0  0  0  0
    5.7651   -4.1327    0.0000 C   0  0  0  0  0  0  0  0  0  0  0  0
    6.4795   -3.7202    0.0000 C   0  0  0  0  0  0  0  0  0  0  0  0
    7.1940   -4.1327    0.0000 C   0  0  0  0  0  0  0  0  0  0  0  0
    5.0506   -3.7202    0.0000 O   0  0  0  0  0  0  0  0  0  0  0  0
    7.9085   -6.1952    0.0000 O   0  0  0  0  0  0  0  0  0  0  0  0
  1  2  1  0  0  0  0
  1  3  2  0  0  0  0
  1  4  1  0  0  0  0
  5  6  1  0  0  0  0
  6  7  2  0  0  0  0
  7  8  1  0  0  0  0
  8  9  2  0  0  0  0
  9 10  1  0  0  0  0
  5 10  2  0  0  0  0
  8 11  1  0  0  0  0
  2  5  1  0  0  0  0
  2 12  1  0  0  0  0
M  END
>  <cdx:groupId>
38

>  <cdx:fragmentId>
13

$$$$
