3280.cdx
  Mrv1902 05222410202D          

 26 30  0  0  0  0            999 V2000
   10.6516  -10.7260    0.0000 O   0  0  0  0  0  0  0  0  0  0  0  0
   11.3821  -10.3426    0.0000 C   0  0  0  0  0  0  0  0  0  0  0  0
   11.2432   -9.5294    0.0000 O   0  0  0  0  0  0  0  0  0  0  0  0
    2.8782   -9.0077    0.0000 O   0  0  0  0  0  0  0  0  0  0  0  0
    2.6327   -9.7953    0.0000 C   0  0  0  0  0  0  0  0  0  0  0  0
    3.3059  -10.2722    0.0000 O   0  0  0  0  0  0  0  0  0  0  0  0
    9.2380  -10.2028    0.0000 C   0  0  0  0  0  0  0  0  0  0  0  0
   10.0612  -10.1497    0.0000 C   0  0  0  0  0  0  0  0  0  0  0  0
   10.4269   -9.4101    0.0000 C   0  0  0  0  0  0  0  0  0  0  0  0
    9.9693   -8.7237    0.0000 C   0  0  0  0  0  0  0  0  0  0  0  0
    9.1460   -8.7768    0.0000 C   0  0  0  0  0  0  0  0  0  0  0  0
    5.0567   -8.5398    0.0000 C   0  0  0  0  0  0  0  0  0  0  0  0
    4.2477   -8.3780    0.0000 C   0  0  0  0  0  0  0  0  0  0  0  0
    3.7031   -8.9977    0.0000 C   0  0  0  0  0  0  0  0  0  0  0  0
    3.9675   -9.7792    0.0000 C   0  0  0  0  0  0  0  0  0  0  0  0
    4.7764   -9.9410    0.0000 C   0  0  0  0  0  0  0  0  0  0  0  0
    5.3211   -9.3213    0.0000 C   0  0  0  0  0  0  0  0  0  0  0  0
    8.7803   -9.5163    0.0000 C   0  0  0  0  0  0  0  0  0  0  0  0
    6.1300   -9.4831    0.0000 C   0  0  0  0  0  0  0  0  0  0  0  0
    7.9570   -9.5694    0.0000 C   0  0  0  0  0  0  0  0  0  0  0  0
    8.5544   -7.8402    0.0000 O   0  0  0  0  0  0  0  0  0  0  0  0
    6.6746   -8.8634    0.0000 C   0  0  2  0  0  0  0  0  0  0  0  0
    7.4994   -8.8830    0.0000 C   0  0  2  0  0  0  0  0  0  0  0  0
    7.7729   -8.1046    0.0000 C   0  0  0  0  0  0  0  0  0  0  0  0
    7.1171   -7.6040    0.0000 O   0  0  0  0  0  0  0  0  0  0  0  0
    6.4384   -8.0730    0.0000 C   0  0  0  0  0  0  0  0  0  0  0  0
  1  8  1  0  0  0  0
  2  1  1  0  0  0  0
  3  2  1  0  0  0  0
  9  3  1  0  0  0  0
  4 14  1  0  0  0  0
  5  4  1  0  0  0  0
  6  5  1  0  0  0  0
 15  6  1  0  0  0  0
  7 18  1  0  0  0  0
  8  7  2  0  0  0  0
  9  8  1  0  0  0  0
 10  9  2  0  0  0  0
 11 10  1  0  0  0  0
 18 11  2  0  0  0  0
 12 17  1  0  0  0  0
 13 12  2  0  0  0  0
 14 13  1  0  0  0  0
 15 14  2  0  0  0  0
 16 15  1  0  0  0  0
 17 16  2  0  0  0  0
 19 17  1  0  0  0  0
 20 18  1  0  0  0  0
 22 19  1  1  0  0  0
 23 20  1  6  0  0  0
 24 21  2  0  0  0  0
 22 26  1  0  0  0  0
 23 22  1  0  0  0  0
 24 23  1  0  0  0  0
 25 24  1  0  0  0  0
 26 25  1  0  0  0  0
M  END
>  <cdx:fragmentId>
5

$$$$
