328048.cdx
  Mrv1902 05222410222D          

 60 63  0  0  0  0            999 V2000
    6.1530   -6.4788    0.0000 N   0  0  0  0  0  0  0  0  0  0  0  0
    5.4430   -6.8990    0.0000 C   0  0  0  0  0  0  0  0  0  0  0  0
    5.4519   -7.7240    0.0000 C   0  0  1  0  0  0  0  0  0  0  0  0
    4.7419   -8.1441    0.0000 N   0  0  0  0  0  0  0  0  0  0  0  0
    4.7508   -8.9691    0.0000 C   0  0  0  0  0  0  0  0  0  0  0  0
    4.0408   -9.3893    0.0000 C   0  0  2  0  0  0  0  0  0  0  0  0
    3.2535   -9.1428    0.0000 C   0  0  0  0  0  0  0  0  0  0  0  0
    2.7758   -9.8154    0.0000 C   0  0  0  0  0  0  0  0  0  0  0  0
    3.2679  -10.4776    0.0000 C   0  0  0  0  0  0  0  0  0  0  0  0
    4.0497  -10.2142    0.0000 N   0  0  0  0  0  0  0  0  0  0  0  0
    4.7686  -10.6190    0.0000 C   0  0  0  0  0  0  0  0  0  0  0  0
    4.7775  -11.4439    0.0000 C   0  0  1  0  0  0  0  0  0  0  0  0
    5.4963  -11.8487    0.0000 N   0  0  0  0  0  0  0  0  0  0  0  0
    6.2063  -11.4286    0.0000 C   0  0  0  0  0  0  0  0  0  0  0  0
    6.9252  -11.8333    0.0000 C   0  0  1  0  0  0  0  0  0  0  0  0
    7.6352  -11.4132    0.0000 N   0  0  0  0  0  0  0  0  0  0  0  0
    8.3540  -11.8180    0.0000 C   0  0  0  0  0  0  0  0  0  0  0  0
    9.0640  -11.3978    0.0000 C   0  0  0  0  0  0  0  0  0  0  0  0
    9.0551  -10.5728    0.0000 N   0  0  0  0  0  0  0  0  0  0  0  0
    9.7651  -10.1527    0.0000 C   0  0  0  0  0  0  0  0  0  0  0  0
    9.7563   -9.3277    0.0000 C   0  0  1  0  0  0  0  0  0  0  0  0
    9.0374   -8.9229    0.0000 N   0  0  0  0  0  0  0  0  0  0  0  0
    9.0285   -8.0980    0.0000 C   0  0  0  0  0  0  0  0  0  0  0  0
    8.3096   -7.6932    0.0000 C   0  0  1  0  0  0  0  0  0  0  0  0
    7.5996   -8.1134    0.0000 N   0  0  0  0  0  0  0  0  0  0  0  0
    6.8808   -7.7086    0.0000 C   0  0  0  0  0  0  0  0  0  0  0  0
    6.8719   -6.8836    0.0000 C   0  0  2  0  0  0  0  0  0  0  0  0
    7.4790   -6.3250    0.0000 C   0  0  0  0  0  0  0  0  0  0  0  0
    7.1353   -5.5750    0.0000 C   0  0  0  0  0  0  0  0  0  0  0  0
    6.3158   -5.6701    0.0000 C   0  0  0  0  0  0  0  0  0  0  0  0
    4.7242   -6.4942    0.0000 O   0  0  0  0  0  0  0  0  0  0  0  0
    5.4697   -9.3739    0.0000 O   0  0  0  0  0  0  0  0  0  0  0  0
    5.4786  -10.1988    0.0000 O   0  0  0  0  0  0  0  0  0  0  0  0
    6.1974  -10.6036    0.0000 O   0  0  0  0  0  0  0  0  0  0  0  0
    8.3629  -12.6429    0.0000 O   0  0  0  0  0  0  0  0  0  0  0  0
   10.4840  -10.5574    0.0000 O   0  0  0  0  0  0  0  0  0  0  0  0
    9.7385   -7.6778    0.0000 O   0  0  0  0  0  0  0  0  0  0  0  0
    6.4760   -8.4275    0.0000 O   0  0  0  0  0  0  0  0  0  0  0  0
   10.4662   -8.9075    0.0000 C   0  0  0  0  0  0  0  0  0  0  0  0
   11.1851   -9.3123    0.0000 C   0  0  0  0  0  0  0  0  0  0  0  0
   11.1940  -10.1373    0.0000 C   0  0  0  0  0  0  0  0  0  0  0  0
   11.8951   -8.8922    0.0000 C   0  0  0  0  0  0  0  0  0  0  0  0
    4.0675  -11.8641    0.0000 C   0  0  0  0  0  0  0  0  0  0  0  0
    4.0764  -12.6891    0.0000 C   0  0  0  0  0  0  0  0  0  0  0  0
    4.7952  -13.0939    0.0000 C   0  0  0  0  0  0  0  0  0  0  0  0
    3.3664  -13.1092    0.0000 C   0  0  0  0  0  0  0  0  0  0  0  0
    6.0896   -8.2474    0.0000 C   0  0  0  0  0  0  0  0  0  0  0  0
    5.9551   -9.0614    0.0000 O   0  0  0  0  0  0  0  0  0  0  0  0
    6.9341  -12.6583    0.0000 C   0  0  1  0  0  0  0  0  0  0  0  0
    6.2241  -13.0785    0.0000 C   0  0  0  0  0  0  0  0  0  0  0  0
    7.6529  -13.0631    0.0000 O   0  0  0  0  0  0  0  0  0  0  0  0
    8.3007   -6.8682    0.0000 C   0  0  0  0  0  0  0  0  0  0  0  0
    9.0107   -6.4481    0.0000 C   0  0  0  0  0  0  0  0  0  0  0  0
    9.0018   -5.6231    0.0000 C   0  0  0  0  0  0  0  0  0  0  0  0
    9.7118   -5.2029    0.0000 C   0  0  0  0  0  0  0  0  0  0  0  0
   10.4307   -5.6077    0.0000 C   0  0  0  0  0  0  0  0  0  0  0  0
   10.4396   -6.4327    0.0000 C   0  0  0  0  0  0  0  0  0  0  0  0
    9.7296   -6.8529    0.0000 C   0  0  0  0  0  0  0  0  0  0  0  0
    3.9565   -8.5686    0.0000 H   0  0  0  0  0  0  0  0  0  0  0  0
    7.6248   -7.2209    0.0000 H   0  0  0  0  0  0  0  0  0  0  0  0
  1  2  1  0  0  0  0
  2  3  1  0  0  0  0
  3  4  1  0  0  0  0
  4  5  1  0  0  0  0
  5  6  1  0  0  0  0
  6  7  1  0  0  0  0
  7  8  1  0  0  0  0
  8  9  1  0  0  0  0
  9 10  1  0  0  0  0
 10 11  1  0  0  0  0
 11 12  1  0  0  0  0
 12 13  1  0  0  0  0
 13 14  1  0  0  0  0
 14 15  1  0  0  0  0
 15 16  1  1  0  0  0
 16 17  1  0  0  0  0
 17 18  1  0  0  0  0
 18 19  1  0  0  0  0
 19 20  1  0  0  0  0
 20 21  1  0  0  0  0
 21 22  1  0  0  0  0
 22 23  1  0  0  0  0
 23 24  1  0  0  0  0
 24 25  1  0  0  0  0
 25 26  1  0  0  0  0
 26 27  1  0  0  0  0
 27 28  1  0  0  0  0
 28 29  1  0  0  0  0
 29 30  1  0  0  0  0
  1 30  1  0  0  0  0
  1 27  1  0  0  0  0
  6 10  1  0  0  0  0
  2 31  2  0  0  0  0
  5 32  2  0  0  0  0
 11 33  2  0  0  0  0
 14 34  2  0  0  0  0
 17 35  2  0  0  0  0
 20 36  2  0  0  0  0
 23 37  2  0  0  0  0
 26 38  2  0  0  0  0
 39 40  1  0  0  0  0
 40 41  1  0  0  0  0
 40 42  1  0  0  0  0
 21 39  1  1  0  0  0
 43 44  1  0  0  0  0
 44 45  1  0  0  0  0
 44 46  1  0  0  0  0
 12 43  1  1  0  0  0
 47 48  1  0  0  0  0
  3 47  1  6  0  0  0
 49 50  1  0  0  0  0
 49 51  1  6  0  0  0
 15 49  1  0  0  0  0
 52 53  1  0  0  0  0
 53 54  1  0  0  0  0
 54 55  2  0  0  0  0
 55 56  1  0  0  0  0
 56 57  2  0  0  0  0
 57 58  1  0  0  0  0
 53 58  2  0  0  0  0
 24 52  1  1  0  0  0
  6 59  1  6  0  0  0
 27 60  1  6  0  0  0
M  END
>  <cdx:groupId>
45298

>  <cdx:fragmentId>
45118

$$$$
