328213.cdx
  Mrv1902 05222410182D          

 37 41  0  0  0  0            999 V2000
    7.0943   -9.8555    0.0000 H   0  0  0  0  0  0  0  0  0  0  0  0
    9.2175   -6.9470    0.0000 C   0  0  0  0  0  0  0  0  0  0  0  0
    9.9278   -6.5274    0.0000 C   0  0  0  0  0  0  0  0  0  0  0  0
   10.6464   -6.9328    0.0000 C   0  0  0  0  0  0  0  0  0  0  0  0
   10.6545   -7.7578    0.0000 C   0  0  0  0  0  0  0  0  0  0  0  0
    9.9441   -8.1773    0.0000 C   0  0  2  0  0  0  0  0  0  0  0  0
    9.9523   -9.0023    0.0000 C   0  0  1  0  0  0  0  0  0  0  0  0
    9.2419   -9.4218    0.0000 C   0  0  0  0  0  0  0  0  0  0  0  0
    8.5234   -9.0164    0.0000 C   0  0  1  0  0  0  0  0  0  0  0  0
    7.8130   -9.4359    0.0000 C   0  0  2  0  0  0  0  0  0  0  0  0
    7.8212  -10.2609    0.0000 C   0  0  0  0  0  0  0  0  0  0  0  0
    7.1108  -10.6804    0.0000 C   0  0  0  0  0  0  0  0  0  0  0  0
    6.3923  -10.2750    0.0000 C   0  0  1  0  0  0  0  0  0  0  0  0
    5.6820  -10.6945    0.0000 C   0  0  0  0  0  0  0  0  0  0  0  0
    4.9634  -10.2891    0.0000 C   0  0  2  0  0  0  0  0  0  0  0  0
    4.9553   -9.4642    0.0000 C   0  0  0  0  0  0  0  0  0  0  0  0
    5.6657   -9.0446    0.0000 C   0  0  0  0  0  0  0  0  0  0  0  0
    6.3842   -9.4501    0.0000 C   0  0  2  0  0  0  0  0  0  0  0  0
    7.0945   -9.0305    0.0000 C   0  0  1  0  0  0  0  0  0  0  0  0
    7.0864   -8.2056    0.0000 C   0  0  0  0  0  0  0  0  0  0  0  0
    7.7968   -7.7860    0.0000 C   0  0  0  0  0  0  0  0  0  0  0  0
    8.5153   -8.1914    0.0000 C   0  0  0  0  0  0  0  0  0  0  0  0
    9.2256   -7.7719    0.0000 C   0  0  2  0  0  0  0  0  0  0  0  0
   10.6813   -8.6198    0.0000 C   0  0  0  0  0  0  0  0  0  0  0  0
   10.6894   -9.4447    0.0000 O   0  0  0  0  0  0  0  0  0  0  0  0
   11.3916   -8.2002    0.0000 O   0  0  0  0  0  0  0  0  0  0  0  0
    6.3760   -8.6251    0.0000 C   0  0  0  0  0  0  0  0  0  0  0  0
    6.1015  -11.4049    0.0000 C   0  0  0  0  0  0  0  0  0  0  0  0
    5.2765  -11.4131    0.0000 C   0  0  0  0  0  0  0  0  0  0  0  0
    9.5083   -5.8171    0.0000 C   0  0  0  0  0  0  0  0  0  0  0  0
   10.3333   -5.8089    0.0000 C   0  0  0  0  0  0  0  0  0  0  0  0
    4.2531  -10.7087    0.0000 O   0  0  0  0  0  0  0  0  0  0  0  0
    6.4005  -11.1000    0.0000 H   0  0  0  0  0  0  0  0  0  0  0  0
    7.8130   -8.6109    0.0000 C   0  0  0  0  0  0  0  0  0  0  0  0
    8.5234   -9.8414    0.0000 C   0  0  0  0  0  0  0  0  0  0  0  0
    9.2256   -8.5969    0.0000 H   0  0  0  0  0  0  0  0  0  0  0  0
    9.9523   -9.8273    0.0000 O   0  0  0  0  0  0  0  0  0  0  0  0
 19  1  1  6  0  0  0
  2  3  1  0  0  0  0
  3  4  1  0  0  0  0
  4  5  1  0  0  0  0
  5  6  1  0  0  0  0
  6  7  1  0  0  0  0
  7  8  1  0  0  0  0
  8  9  1  0  0  0  0
  9 10  1  0  0  0  0
 10 11  1  0  0  0  0
 11 12  1  0  0  0  0
 12 13  1  0  0  0  0
 13 14  1  0  0  0  0
 14 15  1  0  0  0  0
 15 16  1  0  0  0  0
 16 17  1  0  0  0  0
 17 18  1  0  0  0  0
 13 18  1  0  0  0  0
 18 19  1  0  0  0  0
 10 19  1  0  0  0  0
 19 20  1  0  0  0  0
 20 21  1  0  0  0  0
 21 22  2  0  0  0  0
  9 22  1  0  0  0  0
 22 23  1  0  0  0  0
  6 23  1  0  0  0  0
  2 23  1  0  0  0  0
 24 25  2  0  0  0  0
 24 26  1  0  0  0  0
  6 24  1  1  0  0  0
 18 27  1  1  0  0  0
 14 28  1  0  0  0  0
 14 29  1  0  0  0  0
  3 30  1  0  0  0  0
  3 31  1  0  0  0  0
 15 32  1  1  0  0  0
 13 33  1  6  0  0  0
 10 34  1  1  0  0  0
  9 35  1  6  0  0  0
 23 36  1  1  0  0  0
  7 37  1  6  0  0  0
M  END
>  <cdx:fragmentId>
5

$$$$
