3286.cdx
  Mrv1902 05222410192D          

 26 28  0  0  0  0            999 V2000
    5.6272   -8.2706    0.0000 C   0  0  0  0  0  0  0  0  0  0  0  0
    6.3417   -7.8581    0.0000 O   0  0  0  0  0  0  0  0  0  0  0  0
    7.4710   -4.1604    0.0000 O   0  0  0  0  0  0  0  0  0  0  0  0
    8.0543   -4.7438    0.0000 C   0  0  0  0  0  0  0  0  0  0  0  0
   10.3882   -8.3515    0.0000 C   0  0  0  0  0  0  0  0  0  0  0  0
    9.1507   -6.2081    0.0000 C   0  0  0  0  0  0  0  0  0  0  0  0
    9.5632   -6.9226    0.0000 C   0  0  0  0  0  0  0  0  0  0  0  0
   10.3882   -6.9226    0.0000 C   0  0  0  0  0  0  0  0  0  0  0  0
   10.8007   -6.2081    0.0000 C   0  0  0  0  0  0  0  0  0  0  0  0
   10.3882   -5.4937    0.0000 C   0  0  0  0  0  0  0  0  0  0  0  0
    9.5632   -5.4937    0.0000 C   0  0  0  0  0  0  0  0  0  0  0  0
   11.6257   -6.2081    0.0000 O   0  0  0  0  0  0  0  0  0  0  0  0
    7.8408   -6.8756    0.0000 O   0  0  0  0  0  0  0  0  0  0  0  0
    8.3257   -6.2081    0.0000 C   0  0  0  0  0  0  0  0  0  0  0  0
    7.8408   -5.5407    0.0000 C   0  0  0  0  0  0  0  0  0  0  0  0
    3.4838   -5.3831    0.0000 C   0  0  0  0  0  0  0  0  0  0  0  0
    2.7694   -5.7956    0.0000 O   0  0  0  0  0  0  0  0  0  0  0  0
    4.9128   -5.3831    0.0000 C   0  0  0  0  0  0  0  0  0  0  0  0
    4.1983   -5.7956    0.0000 C   0  0  0  0  0  0  0  0  0  0  0  0
    6.3417   -5.3831    0.0000 C   0  0  0  0  0  0  0  0  0  0  0  0
    5.6272   -5.7956    0.0000 C   0  0  0  0  0  0  0  0  0  0  0  0
    5.6272   -6.6206    0.0000 C   0  0  0  0  0  0  0  0  0  0  0  0
    6.3417   -7.0331    0.0000 C   0  0  0  0  0  0  0  0  0  0  0  0
    7.0562   -6.6206    0.0000 C   0  0  0  0  0  0  0  0  0  0  0  0
    7.0562   -5.7956    0.0000 C   0  0  0  0  0  0  0  0  0  0  0  0
   10.8007   -7.6371    0.0000 O   0  0  0  0  0  0  0  0  0  0  0  0
  2  1  1  0  0  0  0
 23  2  1  0  0  0  0
  4  3  2  0  0  0  0
 15  4  1  0  0  0  0
 26  5  1  0  0  0  0
  6  7  2  0  0  0  0
  7  8  1  0  0  0  0
  8  9  2  0  0  0  0
  9 10  1  0  0  0  0
 10 11  2  0  0  0  0
 11  6  1  0  0  0  0
 14  6  1  0  0  0  0
  9 12  1  0  0  0  0
 13 24  1  0  0  0  0
 14 13  1  0  0  0  0
 15 14  2  0  0  0  0
 25 15  1  0  0  0  0
 16 19  1  0  0  0  0
 17 16  1  0  0  0  0
 18 21  1  0  0  0  0
 19 18  1  0  0  0  0
 20 25  1  0  0  0  0
 21 20  2  0  0  0  0
 22 21  1  0  0  0  0
 23 22  2  0  0  0  0
 24 23  1  0  0  0  0
 25 24  2  0  0  0  0
  8 26  1  0  0  0  0
M  END
>  <cdx:fragmentId>
5

$$$$
