328746.cdx
  Mrv1902 05222410282D          

 77 86  0  0  0  0            999 V2000
   12.8905   -6.5912    0.0000 C   0  0  2  0  0  0  0  0  0  0  0  0
   12.8905   -7.4162    0.0000 C   0  0  1  0  0  0  0  0  0  0  0  0
   12.1760   -7.8287    0.0000 C   0  0  0  0  0  0  0  0  0  0  0  0
   11.4616   -7.4162    0.0000 C   0  0  1  0  0  0  0  0  0  0  0  0
   10.7471   -7.8287    0.0000 C   0  0  2  0  0  0  0  0  0  0  0  0
   10.7471   -8.6537    0.0000 C   0  0  0  0  0  0  0  0  0  0  0  0
   10.0326   -9.0662    0.0000 C   0  0  0  0  0  0  0  0  0  0  0  0
    9.3182   -8.6537    0.0000 C   0  0  1  0  0  0  0  0  0  0  0  0
    8.6037   -9.0662    0.0000 C   0  0  0  0  0  0  0  0  0  0  0  0
    7.8892   -8.6537    0.0000 C   0  0  2  0  0  0  0  0  0  0  0  0
    7.8892   -7.8287    0.0000 C   0  0  0  0  0  0  0  0  0  0  0  0
    8.6037   -7.4162    0.0000 C   0  0  0  0  0  0  0  0  0  0  0  0
    9.3182   -7.8287    0.0000 C   0  0  2  0  0  0  0  0  0  0  0  0
   10.0326   -7.4162    0.0000 C   0  0  1  0  0  0  0  0  0  0  0  0
   10.0326   -6.5912    0.0000 C   0  0  0  0  0  0  0  0  0  0  0  0
   10.7471   -6.1787    0.0000 C   0  0  0  0  0  0  0  0  0  0  0  0
   11.4616   -6.5912    0.0000 C   0  0  2  0  0  0  0  0  0  0  0  0
   12.1760   -6.1787    0.0000 C   0  0  2  0  0  0  0  0  0  0  0  0
   12.1760   -5.3537    0.0000 C   0  0  0  0  0  0  0  0  0  0  0  0
   12.8905   -4.9412    0.0000 C   0  0  2  0  0  0  0  0  0  0  0  0
   13.6050   -5.3537    0.0000 C   0  0  0  0  0  0  0  0  0  0  0  0
   13.6050   -6.1787    0.0000 C   0  0  0  0  0  0  0  0  0  0  0  0
   12.4780   -4.2267    0.0000 C   0  0  0  0  0  0  0  0  0  0  0  0
   11.6530   -4.2267    0.0000 O   0  0  0  0  0  0  0  0  0  0  0  0
   13.3030   -4.2267    0.0000 C   0  0  0  0  0  0  0  0  0  0  0  0
    9.3182   -7.0037    0.0000 C   0  0  0  0  0  0  0  0  0  0  0  0
    9.0162   -9.7806    0.0000 C   0  0  0  0  0  0  0  0  0  0  0  0
    8.1912   -9.7806    0.0000 C   0  0  0  0  0  0  0  0  0  0  0  0
   10.7471   -7.0037    0.0000 C   0  0  0  0  0  0  0  0  0  0  0  0
   11.4616   -8.2412    0.0000 C   0  0  0  0  0  0  0  0  0  0  0  0
   13.6050   -7.8287    0.0000 O   0  0  0  0  0  0  0  0  0  0  0  0
    7.1747   -9.0662    0.0000 O   0  0  0  0  0  0  0  0  0  0  0  0
    5.7458   -9.0662    0.0000 O   0  0  0  0  0  0  0  0  0  0  0  0
    6.4603   -8.6537    0.0000 C   0  0  2  0  0  0  0  0  0  0  0  0
    6.4603   -7.8287    0.0000 C   0  0  1  0  0  0  0  0  0  0  0  0
    5.7458   -7.4162    0.0000 C   0  0  2  0  0  0  0  0  0  0  0  0
    5.0313   -7.8287    0.0000 C   0  0  2  0  0  0  0  0  0  0  0  0
    5.0313   -8.6537    0.0000 C   0  0  0  0  0  0  0  0  0  0  0  0
    7.1747   -7.4162    0.0000 O   0  0  0  0  0  0  0  0  0  0  0  0
    6.4603   -6.1787    0.0000 O   0  0  0  0  0  0  0  0  0  0  0  0
    7.1747   -6.5912    0.0000 C   0  0  2  0  0  0  0  0  0  0  0  0
    7.8892   -6.1787    0.0000 C   0  0  1  0  0  0  0  0  0  0  0  0
    7.8892   -5.3537    0.0000 C   0  0  2  0  0  0  0  0  0  0  0  0
    7.1747   -4.9412    0.0000 C   0  0  1  0  0  0  0  0  0  0  0  0
    6.4603   -5.3537    0.0000 C   0  0  1  0  0  0  0  0  0  0  0  0
    5.7458   -4.9412    0.0000 C   0  0  0  0  0  0  0  0  0  0  0  0
    5.0313   -5.3537    0.0000 O   0  0  0  0  0  0  0  0  0  0  0  0
    7.1747   -4.1162    0.0000 O   0  0  0  0  0  0  0  0  0  0  0  0
    8.6037   -4.9412    0.0000 O   0  0  0  0  0  0  0  0  0  0  0  0
    8.6037   -6.5912    0.0000 O   0  0  0  0  0  0  0  0  0  0  0  0
    5.7458   -6.5912    0.0000 O   0  0  0  0  0  0  0  0  0  0  0  0
    4.3169   -7.4162    0.0000 O   0  0  0  0  0  0  0  0  0  0  0  0
    2.8879   -7.4162    0.0000 O   0  0  0  0  0  0  0  0  0  0  0  0
    3.6024   -7.8287    0.0000 C   0  0  2  0  0  0  0  0  0  0  0  0
    3.6024   -8.6537    0.0000 C   0  0  1  0  0  0  0  0  0  0  0  0
    2.8879   -9.0662    0.0000 C   0  0  2  0  0  0  0  0  0  0  0  0
    2.1735   -8.6537    0.0000 C   0  0  1  0  0  0  0  0  0  0  0  0
    2.1735   -7.8287    0.0000 C   0  0  1  0  0  0  0  0  0  0  0  0
    4.3169   -9.0662    0.0000 O   0  0  0  0  0  0  0  0  0  0  0  0
    3.6024  -10.3037    0.0000 O   0  0  0  0  0  0  0  0  0  0  0  0
    4.3169   -9.8912    0.0000 C   0  0  2  0  0  0  0  0  0  0  0  0
    5.0313  -10.3037    0.0000 C   0  0  1  0  0  0  0  0  0  0  0  0
    5.0313  -11.1287    0.0000 C   0  0  2  0  0  0  0  0  0  0  0  0
    4.3169  -11.5412    0.0000 C   0  0  1  0  0  0  0  0  0  0  0  0
    3.6024  -11.1287    0.0000 C   0  0  0  0  0  0  0  0  0  0  0  0
    4.3169  -12.3662    0.0000 O   0  0  0  0  0  0  0  0  0  0  0  0
    5.7458  -11.5412    0.0000 O   0  0  0  0  0  0  0  0  0  0  0  0
    5.7458   -9.8912    0.0000 O   0  0  0  0  0  0  0  0  0  0  0  0
    1.4590   -7.4162    0.0000 C   0  0  0  0  0  0  0  0  0  0  0  0
    0.7445   -7.8287    0.0000 O   0  0  0  0  0  0  0  0  0  0  0  0
    1.4590   -9.0662    0.0000 O   0  0  0  0  0  0  0  0  0  0  0  0
    2.8879   -9.8912    0.0000 O   0  0  0  0  0  0  0  0  0  0  0  0
    9.3182   -9.4787    0.0000 H   0  0  0  0  0  0  0  0  0  0  0  0
   10.0326   -8.2412    0.0000 H   0  0  0  0  0  0  0  0  0  0  0  0
   12.1760   -7.0037    0.0000 H   0  0  0  0  0  0  0  0  0  0  0  0
   11.4616   -5.7662    0.0000 O   0  0  0  0  0  0  0  0  0  0  0  0
   12.8905   -5.7662    0.0000 C   0  0  0  0  0  0  0  0  0  0  0  0
  1  2  1  0  0  0  0
  2  3  1  0  0  0  0
  3  4  1  0  0  0  0
  4  5  1  0  0  0  0
  5  6  1  0  0  0  0
  6  7  1  0  0  0  0
  7  8  1  0  0  0  0
  8  9  1  0  0  0  0
  9 10  1  0  0  0  0
 10 11  1  0  0  0  0
 11 12  1  0  0  0  0
 12 13  1  0  0  0  0
 13 14  1  0  0  0  0
 14 15  1  0  0  0  0
 15 16  1  0  0  0  0
 16 17  1  0  0  0  0
 17 18  1  0  0  0  0
 18 19  1  0  0  0  0
 19 20  1  0  0  0  0
 20 21  1  0  0  0  0
 21 22  1  0  0  0  0
  1 22  1  0  0  0  0
  1 18  1  0  0  0  0
  4 17  1  0  0  0  0
  5 14  1  0  0  0  0
  8 13  1  0  0  0  0
 23 24  2  0  0  0  0
 20 23  1  1  0  0  0
 20 25  1  6  0  0  0
 13 26  1  1  0  0  0
  9 27  1  0  0  0  0
  9 28  1  0  0  0  0
  5 29  1  1  0  0  0
  4 30  1  6  0  0  0
  2 31  1  6  0  0  0
 33 34  1  0  0  0  0
 34 35  1  0  0  0  0
 35 36  1  0  0  0  0
 36 37  1  0  0  0  0
 37 38  1  0  0  0  0
 33 38  1  0  0  0  0
 40 41  1  0  0  0  0
 41 42  1  0  0  0  0
 42 43  1  0  0  0  0
 43 44  1  0  0  0  0
 44 45  1  0  0  0  0
 40 45  1  0  0  0  0
 46 47  1  0  0  0  0
 45 46  1  6  0  0  0
 44 48  1  1  0  0  0
 43 49  1  6  0  0  0
 42 50  1  1  0  0  0
 41 39  1  6  0  0  0
 35 39  1  1  0  0  0
 36 51  1  6  0  0  0
 53 54  1  0  0  0  0
 54 55  1  0  0  0  0
 55 56  1  0  0  0  0
 56 57  1  0  0  0  0
 57 58  1  0  0  0  0
 53 58  1  0  0  0  0
 60 61  1  0  0  0  0
 61 62  1  0  0  0  0
 62 63  1  0  0  0  0
 63 64  1  0  0  0  0
 64 65  1  0  0  0  0
 60 65  1  0  0  0  0
 64 66  1  6  0  0  0
 63 67  1  1  0  0  0
 62 68  1  6  0  0  0
 61 59  1  1  0  0  0
 55 59  1  6  0  0  0
 69 70  1  0  0  0  0
 58 69  1  1  0  0  0
 57 71  1  6  0  0  0
 56 72  1  1  0  0  0
 54 52  1  1  0  0  0
 37 52  1  6  0  0  0
 34 32  1  6  0  0  0
 10 32  1  1  0  0  0
  8 73  1  6  0  0  0
 14 74  1  6  0  0  0
 18 75  1  1  0  0  0
 17 76  1  1  0  0  0
  1 77  1  1  0  0  0
 76 77  1  0  0  0  0
M  END
>  <cdx:fragmentId>
45433

$$$$
