6329087.cdx
  Mrv1902 05222410182D          

 31 30  0  0  0  0            999 V2000
   12.2448   -8.4672    0.0000 Si  0  0  0  0  0  0  0  0  0  0  0  0
   11.5303   -8.8797    0.0000 O   0  0  0  0  0  0  0  0  0  0  0  0
   10.8159   -8.4672    0.0000 Si  0  0  0  0  0  0  0  0  0  0  0  0
   10.1014   -8.8797    0.0000 O   0  0  0  0  0  0  0  0  0  0  0  0
    9.3869   -8.4672    0.0000 Si  0  0  0  0  0  0  0  0  0  0  0  0
    8.6724   -8.8797    0.0000 O   0  0  0  0  0  0  0  0  0  0  0  0
    7.9580   -8.4672    0.0000 Si  0  0  0  0  0  0  0  0  0  0  0  0
    7.2435   -8.8797    0.0000 O   0  0  0  0  0  0  0  0  0  0  0  0
    6.5290   -8.4672    0.0000 Si  0  0  0  0  0  0  0  0  0  0  0  0
    5.8146   -8.8797    0.0000 O   0  0  0  0  0  0  0  0  0  0  0  0
    5.1001   -8.4672    0.0000 Si  0  0  0  0  0  0  0  0  0  0  0  0
    4.3856   -8.8797    0.0000 O   0  0  0  0  0  0  0  0  0  0  0  0
    3.6711   -8.4672    0.0000 Si  0  0  0  0  0  0  0  0  0  0  0  0
    2.9567   -8.8797    0.0000 O   0  0  0  0  0  0  0  0  0  0  0  0
    2.2422   -8.4672    0.0000 Si  0  0  0  0  0  0  0  0  0  0  0  0
    1.5277   -8.8797    0.0000 C   0  0  0  0  0  0  0  0  0  0  0  0
    2.2422   -7.6422    0.0000 C   0  0  0  0  0  0  0  0  0  0  0  0
    4.0836   -7.7528    0.0000 C   0  0  0  0  0  0  0  0  0  0  0  0
    3.2586   -7.7528    0.0000 C   0  0  0  0  0  0  0  0  0  0  0  0
    5.5126   -7.7528    0.0000 C   0  0  0  0  0  0  0  0  0  0  0  0
    4.6876   -7.7528    0.0000 C   0  0  0  0  0  0  0  0  0  0  0  0
    6.9415   -7.7528    0.0000 C   0  0  0  0  0  0  0  0  0  0  0  0
    6.1165   -7.7528    0.0000 C   0  0  0  0  0  0  0  0  0  0  0  0
    8.3705   -7.7528    0.0000 C   0  0  0  0  0  0  0  0  0  0  0  0
    7.5455   -7.7528    0.0000 C   0  0  0  0  0  0  0  0  0  0  0  0
    9.7994   -7.7528    0.0000 C   0  0  0  0  0  0  0  0  0  0  0  0
    8.9744   -7.7528    0.0000 C   0  0  0  0  0  0  0  0  0  0  0  0
   11.2284   -7.7528    0.0000 C   0  0  0  0  0  0  0  0  0  0  0  0
   10.4034   -7.7528    0.0000 C   0  0  0  0  0  0  0  0  0  0  0  0
   12.2448   -7.6422    0.0000 C   0  0  0  0  0  0  0  0  0  0  0  0
   12.9593   -8.8797    0.0000 C   0  0  0  0  0  0  0  0  0  0  0  0
  1  2  1  0  0  0  0
  2  3  1  0  0  0  0
  3  4  1  0  0  0  0
  4  5  1  0  0  0  0
  5  6  1  0  0  0  0
  6  7  1  0  0  0  0
  7  8  1  0  0  0  0
  8  9  1  0  0  0  0
  9 10  1  0  0  0  0
 10 11  1  0  0  0  0
 11 12  1  0  0  0  0
 12 13  1  0  0  0  0
 13 14  1  0  0  0  0
 14 15  1  0  0  0  0
 15 16  1  0  0  0  0
 15 17  1  0  0  0  0
 13 18  1  0  0  0  0
 13 19  1  0  0  0  0
 11 20  1  0  0  0  0
 11 21  1  0  0  0  0
  9 22  1  0  0  0  0
  9 23  1  0  0  0  0
  7 24  1  0  0  0  0
  7 25  1  0  0  0  0
  5 26  1  0  0  0  0
  5 27  1  0  0  0  0
  3 28  1  0  0  0  0
  3 29  1  0  0  0  0
  1 30  1  0  0  0  0
  1 31  1  0  0  0  0
M  END
>  <cdx:groupId>
10387

>  <cdx:fragmentId>
10298

$$$$
