3291.cdx
  Mrv1902 05222410182D          

 15 15  0  0  0  0            999 V2000
    5.3930   -7.0852    0.0000 C   0  0  0  0  0  0  0  0  0  0  0  0
    6.1075   -7.4977    0.0000 C   0  0  0  0  0  0  0  0  0  0  0  0
    6.8219   -7.0852    0.0000 C   0  0  0  0  0  0  0  0  0  0  0  0
    6.8219   -6.2602    0.0000 C   0  0  0  0  0  0  0  0  0  0  0  0
    6.1075   -5.8477    0.0000 C   0  0  0  0  0  0  0  0  0  0  0  0
    5.3930   -6.2602    0.0000 C   0  0  0  0  0  0  0  0  0  0  0  0
    4.6785   -7.4977    0.0000 O   0  0  0  0  0  0  0  0  0  0  0  0
    4.6785   -5.8477    0.0000 O   0  0  0  0  0  0  0  0  0  0  0  0
    3.9641   -6.2602    0.0000 C   0  0  0  0  0  0  0  0  0  0  0  0
    7.5364   -5.8477    0.0000 C   0  0  0  0  0  0  0  0  0  0  0  0
    8.2509   -6.2602    0.0000 C   0  0  0  0  0  0  0  0  0  0  0  0
    8.9654   -5.8477    0.0000 O   0  0  0  0  0  0  0  0  0  0  0  0
    9.6798   -6.2602    0.0000 C   0  0  0  0  0  0  0  0  0  0  0  0
   10.3943   -5.8477    0.0000 C   0  0  0  0  0  0  0  0  0  0  0  0
    8.2509   -7.0852    0.0000 O   0  0  0  0  0  0  0  0  0  0  0  0
  1  2  2  0  0  0  0
  2  3  1  0  0  0  0
  3  4  2  0  0  0  0
  4  5  1  0  0  0  0
  5  6  2  0  0  0  0
  6  1  1  0  0  0  0
  1  7  1  0  0  0  0
  6  8  1  0  0  0  0
  8  9  1  0  0  0  0
  4 10  1  0  0  0  0
 10 11  1  0  0  0  0
 11 12  1  0  0  0  0
 12 13  1  0  0  0  0
 13 14  1  0  0  0  0
 11 15  2  0  0  0  0
M  END
>  <cdx:fragmentId>
5

$$$$
