3293.cdx
  Mrv1902 05222410182D          

 39 42  0  0  0  0            999 V2000
    8.7409   -4.4550    0.0000 C   0  0  0  0  0  0  0  0  0  0  0  0
    9.4553   -4.8675    0.0000 O   0  0  0  0  0  0  0  0  0  0  0  0
    8.0264   -4.8675    0.0000 C   0  0  0  0  0  0  0  0  0  0  0  0
    8.7551   -6.9286    0.0000 C   0  0  2  0  0  0  0  0  0  0  0  0
    9.4707   -7.3391    0.0000 C   0  0  2  0  0  0  0  0  0  0  0  0
   10.1840   -6.9247    0.0000 C   0  0  1  0  0  0  0  0  0  0  0  0
   10.1817   -6.0997    0.0000 C   0  0  2  0  0  0  0  0  0  0  0  0
    9.4661   -5.6891    0.0000 C   0  0  1  0  0  0  0  0  0  0  0  0
    8.7528   -6.1036    0.0000 O   0  0  0  0  0  0  0  0  0  0  0  0
    8.0417   -7.3430    0.0000 C   0  0  0  0  0  0  0  0  0  0  0  0
   10.8996   -7.3352    0.0000 O   0  0  0  0  0  0  0  0  0  0  0  0
   10.8951   -5.6852    0.0000 O   0  0  0  0  0  0  0  0  0  0  0  0
    9.4729   -8.1641    0.0000 O   0  0  0  0  0  0  0  0  0  0  0  0
    8.0440   -8.1680    0.0000 O   0  0  0  0  0  0  0  0  0  0  0  0
    6.1591   -9.1968    0.0000 C   0  0  0  0  0  0  0  0  0  0  0  0
    6.6840   -9.8333    0.0000 C   0  0  1  0  0  0  0  0  0  0  0  0
    7.4515   -9.5308    0.0000 C   0  0  2  0  0  0  0  0  0  0  0  0
    7.4010   -8.7073    0.0000 C   0  0  1  0  0  0  0  0  0  0  0  0
    6.6023   -8.5009    0.0000 O   0  0  0  0  0  0  0  0  0  0  0  0
    8.1233  -10.0098    0.0000 O   0  0  0  0  0  0  0  0  0  0  0  0
    6.0475  -10.3582    0.0000 C   0  0  0  0  0  0  0  0  0  0  0  0
    5.2747  -10.0694    0.0000 O   0  0  0  0  0  0  0  0  0  0  0  0
    7.0262  -10.5840    0.0000 O   0  0  0  0  0  0  0  0  0  0  0  0
    3.8482  -12.5788    0.0000 C   0  0  0  0  0  0  0  0  0  0  0  0
    4.5638  -12.9894    0.0000 C   0  0  0  0  0  0  0  0  0  0  0  0
    5.2772  -12.5750    0.0000 C   0  0  0  0  0  0  0  0  0  0  0  0
    5.2750  -11.7500    0.0000 C   0  0  0  0  0  0  0  0  0  0  0  0
    4.5594  -11.3394    0.0000 C   0  0  0  0  0  0  0  0  0  0  0  0
    3.8461  -11.7538    0.0000 C   0  0  0  0  0  0  0  0  0  0  0  0
    4.5660  -13.8144    0.0000 O   0  0  0  0  0  0  0  0  0  0  0  0
    4.5573  -10.5144    0.0000 C   0  0  0  0  0  0  0  0  0  0  0  0
    3.8417  -10.1038    0.0000 O   0  0  0  0  0  0  0  0  0  0  0  0
    7.3119   -4.4550    0.0000 C   0  0  0  0  0  0  0  0  0  0  0  0
    7.3119   -3.6300    0.0000 C   0  0  0  0  0  0  0  0  0  0  0  0
    6.5975   -3.2175    0.0000 C   0  0  0  0  0  0  0  0  0  0  0  0
    5.8830   -3.6300    0.0000 C   0  0  0  0  0  0  0  0  0  0  0  0
    5.8830   -4.4550    0.0000 C   0  0  0  0  0  0  0  0  0  0  0  0
    6.5975   -4.8675    0.0000 C   0  0  0  0  0  0  0  0  0  0  0  0
    5.1685   -3.2175    0.0000 O   0  0  0  0  0  0  0  0  0  0  0  0
  1  2  1  0  0  0  0
  1  3  1  0  0  0  0
  4  5  1  0  0  0  0
  5  6  1  0  0  0  0
  6  7  1  0  0  0  0
  7  8  1  0  0  0  0
  8  9  1  0  0  0  0
  9  4  1  0  0  0  0
  4 10  1  1  0  0  0
  6 11  1  1  0  0  0
  7 12  1  6  0  0  0
  5 13  1  6  0  0  0
 10 14  1  0  0  0  0
  8  2  1  1  0  0  0
 15 16  1  0  0  0  0
 16 17  1  0  0  0  0
 17 18  1  0  0  0  0
 18 19  1  0  0  0  0
 19 15  1  0  0  0  0
 17 20  1  6  0  0  0
 16 21  1  1  0  0  0
 21 22  1  0  0  0  0
 16 23  1  6  0  0  0
 18 14  1  1  0  0  0
 24 25  2  0  0  0  0
 25 26  1  0  0  0  0
 26 27  2  0  0  0  0
 27 28  1  0  0  0  0
 28 29  2  0  0  0  0
 29 24  1  0  0  0  0
 25 30  1  0  0  0  0
 28 31  1  0  0  0  0
 31 32  2  0  0  0  0
 31 22  1  0  0  0  0
  3 33  1  0  0  0  0
 33 34  2  0  0  0  0
 34 35  1  0  0  0  0
 35 36  2  0  0  0  0
 36 37  1  0  0  0  0
 37 38  2  0  0  0  0
 38 33  1  0  0  0  0
 36 39  1  0  0  0  0
M  END
>  <cdx:fragmentId>
30

$$$$
