32967.cdx
  Mrv1902 05222410212D          

 13 12  0  0  0  0            999 V2000
    4.6233   -2.6614    0.0000 C   0  0  0  0  0  0  0  0  0  0  0  0
    3.9088   -3.0739    0.0000 C   0  0  0  0  0  0  0  0  0  0  0  0
    3.1943   -2.6614    0.0000 C   0  0  0  0  0  0  0  0  0  0  0  0
    2.4799   -3.0739    0.0000 C   0  0  0  0  0  0  0  0  0  0  0  0
    2.4799   -3.8989    0.0000 C   0  0  0  0  0  0  0  0  0  0  0  0
    4.6233   -1.8364    0.0000 O   0  0  0  0  0  0  0  0  0  0  0  0
    5.3377   -3.0739    0.0000 O   0  0  0  0  0  0  0  0  0  0  0  0
    1.7654   -2.6614    0.0000 C   0  0  0  0  0  0  0  0  0  0  0  0
    6.0522   -2.6614    0.0000 C   0  0  0  0  0  0  0  0  0  0  0  0
    6.7667   -3.0739    0.0000 C   0  0  0  0  0  0  0  0  0  0  0  0
    7.4812   -2.6614    0.0000 C   0  0  0  0  0  0  0  0  0  0  0  0
    8.1956   -3.0739    0.0000 C   0  0  0  0  0  0  0  0  0  0  0  0
    8.9101   -2.6614    0.0000 C   0  0  0  0  0  0  0  0  0  0  0  0
  1  2  1  0  0  0  0
  2  3  1  0  0  0  0
  3  4  1  0  0  0  0
  4  5  1  0  0  0  0
  1  6  2  0  0  0  0
  1  7  1  0  0  0  0
  4  8  1  0  0  0  0
  9 10  1  0  0  0  0
 10 11  1  0  0  0  0
 11 12  1  0  0  0  0
 12 13  1  0  0  0  0
  7  9  1  0  0  0  0
M  END
>  <cdx:groupId>
40

>  <cdx:fragmentId>
5

$$$$
