32970.cdx
  Mrv1902 05222410202D          

 12 13  0  0  0  0            999 V2000
    5.1035   -2.5496    0.0000 C   0  0  0  0  0  0  0  0  0  0  0  0
    5.8179   -2.9621    0.0000 C   0  0  0  0  0  0  0  0  0  0  0  0
    5.8179   -3.7871    0.0000 C   0  0  0  0  0  0  0  0  0  0  0  0
    5.1035   -4.1996    0.0000 C   0  0  0  0  0  0  0  0  0  0  0  0
    4.3890   -3.7871    0.0000 C   0  0  0  0  0  0  0  0  0  0  0  0
    3.6745   -4.1996    0.0000 C   0  0  0  0  0  0  0  0  0  0  0  0
    2.9601   -3.7871    0.0000 C   0  0  0  0  0  0  0  0  0  0  0  0
    2.9601   -2.9621    0.0000 C   0  0  0  0  0  0  0  0  0  0  0  0
    3.6745   -2.5496    0.0000 C   0  0  0  0  0  0  0  0  0  0  0  0
    4.3890   -2.9621    0.0000 C   0  0  0  0  0  0  0  0  0  0  0  0
    3.6745   -1.7246    0.0000 C   0  0  0  0  0  0  0  0  0  0  0  0
    5.1035   -1.7246    0.0000 C   0  0  0  0  0  0  0  0  0  0  0  0
  1  2  1  0  0  0  0
  2  3  1  0  0  0  0
  3  4  1  0  0  0  0
  4  5  1  0  0  0  0
  5  6  1  0  0  0  0
  6  7  2  0  0  0  0
  7  8  1  0  0  0  0
  8  9  2  0  0  0  0
  9 10  1  0  0  0  0
  1 10  1  0  0  0  0
  5 10  2  0  0  0  0
  9 11  1  0  0  0  0
  1 12  1  0  0  0  0
M  END
>  <cdx:groupId>
39

>  <cdx:fragmentId>
5

$$$$
