33001.cdx
  Mrv1902 05222410192D          

 55 61  0  0  0  0            999 V2000
   16.7301  -10.9227    0.0000 C   0  0  0  0  0  0  0  0  0  0  0  0
   14.4166  -10.5456    0.0000 C   0  0  1  0  0  0  0  0  0  0  0  0
   15.9494   -8.8122    0.0000 C   0  0  0  0  0  0  0  0  0  0  0  0
   14.4044   -9.6452    0.0000 C   0  0  1  0  0  0  0  0  0  0  0  0
   15.2059  -10.9791    0.0000 C   0  0  0  0  0  0  0  0  0  0  0  0
   17.4659  -10.4689    0.0000 C   0  0  0  0  0  0  0  0  0  0  0  0
   15.1816   -9.1903    0.0000 C   0  0  0  0  0  0  0  0  0  0  0  0
   15.9724  -10.5065    0.0000 C   0  0  0  0  0  0  0  0  0  0  0  0
   17.4342   -9.6050    0.0000 C   0  0  0  0  0  0  0  0  0  0  0  0
   16.7068   -9.2054    0.0000 C   0  0  0  0  0  0  0  0  0  0  0  0
   15.9606   -9.6420    0.0000 C   0  0  2  0  0  0  0  0  0  0  0  0
   13.7052  -10.9730    0.0000 O   0  0  0  0  0  0  0  0  0  0  0  0
   12.9837  -10.5730    0.0000 C   0  0  2  0  0  0  0  0  0  0  0  0
   12.9620   -9.7483    0.0000 O   0  0  0  0  0  0  0  0  0  0  0  0
   12.2369   -9.3548    0.0000 C   0  0  1  0  0  0  0  0  0  0  0  0
   11.5335   -9.7859    0.0000 C   0  0  2  0  0  0  0  0  0  0  0  0
   11.5335  -10.6106    0.0000 C   0  0  2  0  0  0  0  0  0  0  0  0
   12.2369  -11.0042    0.0000 C   0  0  0  0  0  0  0  0  0  0  0  0
   12.2152   -8.5300    0.0000 C   0  0  0  0  0  0  0  0  0  0  0  0
   10.8218  -11.0279    0.0000 O   0  0  0  0  0  0  0  0  0  0  0  0
   10.8274  -11.8529    0.0000 C   0  0  0  0  0  0  0  0  0  0  0  0
    4.5706   -7.2180    0.0000 C   0  0  0  0  0  0  0  0  0  0  0  0
    4.9998   -7.9226    0.0000 O   0  0  0  0  0  0  0  0  0  0  0  0
    5.7820   -6.4822    0.0000 O   0  0  0  0  0  0  0  0  0  0  0  0
    7.4352   -6.4433    0.0000 C   0  0  0  0  0  0  0  0  0  0  0  0
    7.4596   -7.8668    0.0000 O   0  0  0  0  0  0  0  0  0  0  0  0
    7.0377   -7.1662    0.0000 C   0  0  1  0  0  0  0  0  0  0  0  0
    6.2130   -7.1856    0.0000 C   0  0  2  0  0  0  0  0  0  0  0  0
    5.8246   -7.9052    0.0000 C   0  0  2  0  0  0  0  0  0  0  0  0
    6.2466   -8.6141    0.0000 C   0  0  0  0  0  0  0  0  0  0  0  0
    7.0715   -8.6031    0.0000 C   0  0  2  0  0  0  0  0  0  0  0  0
    8.7088  -11.4623    0.0000 C   0  0  0  0  0  0  0  0  0  0  0  0
    8.3014  -10.7450    0.0000 O   0  0  0  0  0  0  0  0  0  0  0  0
    7.4960   -9.3105    0.0000 O   0  0  0  0  0  0  0  0  0  0  0  0
    8.3401   -7.9096    0.0000 C   0  0  0  0  0  0  0  0  0  0  0  0
    9.5815   -8.6491    0.0000 O   0  0  0  0  0  0  0  0  0  0  0  0
    8.7381   -8.6323    0.0000 C   0  0  2  0  0  0  0  0  0  0  0  0
    8.3209   -9.3219    0.0000 C   0  0  2  0  0  0  0  0  0  0  0  0
    8.7282  -10.0390    0.0000 C   0  0  2  0  0  0  0  0  0  0  0  0
    9.5527  -10.0665    0.0000 C   0  0  0  0  0  0  0  0  0  0  0  0
    9.9888   -9.3662    0.0000 C   0  0  2  0  0  0  0  0  0  0  0  0
   10.8137   -9.3828    0.0000 O   0  0  0  0  0  0  0  0  0  0  0  0
   18.1439   -9.1749    0.0000 C   0  0  0  0  0  0  0  0  0  0  0  0
   18.1439   -8.3451    0.0000 C   0  0  0  0  0  0  0  0  0  0  0  0
   17.4342   -7.9455    0.0000 C   0  0  0  0  0  0  0  0  0  0  0  0
   16.7068   -8.3757    0.0000 C   0  0  0  0  0  0  0  0  0  0  0  0
   18.8628   -9.5797    0.0000 O   0  0  0  0  0  0  0  0  0  0  0  0
   18.8562   -7.9287    0.0000 C   0  0  0  0  0  0  0  0  0  0  0  0
   18.1372   -7.5201    0.0000 O   0  0  0  0  0  0  0  0  0  0  0  0
   19.6117   -8.2602    0.0000 C   0  0  0  0  0  0  0  0  0  0  0  0
   20.1604   -7.6441    0.0000 C   0  0  0  0  0  0  0  0  0  0  0  0
   19.7440   -6.9319    0.0000 O   0  0  0  0  0  0  0  0  0  0  0  0
   18.9380   -7.1078    0.0000 C   0  0  0  0  0  0  0  0  0  0  0  0
   18.3219   -6.5591    0.0000 C   0  0  0  0  0  0  0  0  0  0  0  0
   13.6860   -9.2396    0.0000 O   0  0  0  0  0  0  0  0  0  0  0  0
  4  2  1  0  0  0  0
  5  2  1  0  0  0  0
  6  1  1  0  0  0  0
  7  4  1  0  0  0  0
  8  1  2  0  0  0  0
  8  5  1  0  0  0  0
  9  6  1  0  0  0  0
 10  9  1  0  0  0  0
 11  3  1  1  0  0  0
 11  7  1  0  0  0  0
 11  8  1  0  0  0  0
 11 10  1  0  0  0  0
  2 12  1  1  0  0  0
 13 12  1  1  0  0  0
 13 14  1  0  0  0  0
 14 15  1  0  0  0  0
 15 16  1  0  0  0  0
 16 17  1  0  0  0  0
 17 18  1  0  0  0  0
 18 13  1  0  0  0  0
 15 19  1  1  0  0  0
 17 20  1  6  0  0  0
 23 22  1  0  0  0  0
 16 42  1  6  0  0  0
 20 21  1  0  0  0  0
 29 23  1  6  0  0  0
 28 24  1  6  0  0  0
 27 25  1  1  0  0  0
 26 31  1  0  0  0  0
 27 26  1  0  0  0  0
 28 27  1  0  0  0  0
 29 28  1  0  0  0  0
 30 29  1  0  0  0  0
 31 30  1  0  0  0  0
 31 34  1  1  0  0  0
 33 32  1  0  0  0  0
 39 33  1  6  0  0  0
 38 34  1  6  0  0  0
 37 35  1  6  0  0  0
 36 41  1  0  0  0  0
 37 36  1  0  0  0  0
 38 37  1  0  0  0  0
 39 38  1  0  0  0  0
 40 39  1  0  0  0  0
 41 40  1  0  0  0  0
 41 42  1  1  0  0  0
  9 43  1  0  0  0  0
 43 44  1  0  0  0  0
 44 45  1  0  0  0  0
 45 46  1  0  0  0  0
 46 10  1  0  0  0  0
 43 47  2  0  0  0  0
 44 48  1  0  0  0  0
 44 49  1  0  0  0  0
 48 50  1  0  0  0  0
 50 51  2  0  0  0  0
 51 52  1  0  0  0  0
 52 53  1  0  0  0  0
 53 48  2  0  0  0  0
 53 54  1  0  0  0  0
  4 55  1  6  0  0  0
M  END
>  <cdx:fragmentId>
1

$$$$
