33011.cdx
  Mrv1902 05222410182D          

 78 86  0  0  0  0            999 V2000
   16.7301  -12.8477    0.0000 C   0  0  0  0  0  0  0  0  0  0  0  0
   14.4166  -12.4706    0.0000 C   0  0  1  0  0  0  0  0  0  0  0  0
   15.9494  -10.7372    0.0000 C   0  0  0  0  0  0  0  0  0  0  0  0
   14.4044  -11.5702    0.0000 C   0  0  1  0  0  0  0  0  0  0  0  0
   15.2059  -12.9041    0.0000 C   0  0  0  0  0  0  0  0  0  0  0  0
   17.4659  -12.3939    0.0000 C   0  0  0  0  0  0  0  0  0  0  0  0
   15.1816  -11.1153    0.0000 C   0  0  0  0  0  0  0  0  0  0  0  0
   15.9724  -12.4315    0.0000 C   0  0  0  0  0  0  0  0  0  0  0  0
   17.4342  -11.5300    0.0000 C   0  0  2  0  0  0  0  0  0  0  0  0
   16.7068  -11.1304    0.0000 C   0  0  1  0  0  0  0  0  0  0  0  0
   15.9606  -11.5670    0.0000 C   0  0  2  0  0  0  0  0  0  0  0  0
   13.7052  -12.8980    0.0000 O   0  0  0  0  0  0  0  0  0  0  0  0
   12.9837  -12.4980    0.0000 C   0  0  2  0  0  0  0  0  0  0  0  0
   12.9620  -11.6733    0.0000 O   0  0  0  0  0  0  0  0  0  0  0  0
   12.2369  -11.2798    0.0000 C   0  0  1  0  0  0  0  0  0  0  0  0
   11.5335  -11.7109    0.0000 C   0  0  2  0  0  0  0  0  0  0  0  0
   11.5335  -12.5356    0.0000 C   0  0  2  0  0  0  0  0  0  0  0  0
   12.2369  -12.9292    0.0000 C   0  0  0  0  0  0  0  0  0  0  0  0
   12.2152  -10.4550    0.0000 C   0  0  0  0  0  0  0  0  0  0  0  0
   10.8218  -12.9529    0.0000 O   0  0  0  0  0  0  0  0  0  0  0  0
   10.8274  -13.7779    0.0000 C   0  0  0  0  0  0  0  0  0  0  0  0
    4.5706   -9.1430    0.0000 C   0  0  0  0  0  0  0  0  0  0  0  0
    4.9998   -9.8476    0.0000 O   0  0  0  0  0  0  0  0  0  0  0  0
    5.7820   -8.4072    0.0000 O   0  0  0  0  0  0  0  0  0  0  0  0
    7.4352   -8.3683    0.0000 C   0  0  0  0  0  0  0  0  0  0  0  0
    7.4596   -9.7918    0.0000 O   0  0  0  0  0  0  0  0  0  0  0  0
    7.0377   -9.0912    0.0000 C   0  0  2  0  0  0  0  0  0  0  0  0
    6.2130   -9.1106    0.0000 C   0  0  1  0  0  0  0  0  0  0  0  0
    5.8246   -9.8302    0.0000 C   0  0  1  0  0  0  0  0  0  0  0  0
    6.2466  -10.5391    0.0000 C   0  0  0  0  0  0  0  0  0  0  0  0
    7.0715  -10.5281    0.0000 C   0  0  2  0  0  0  0  0  0  0  0  0
    8.3014  -12.6700    0.0000 O   0  0  0  0  0  0  0  0  0  0  0  0
    7.4960  -11.2355    0.0000 O   0  0  0  0  0  0  0  0  0  0  0  0
    8.3401   -9.8346    0.0000 C   0  0  0  0  0  0  0  0  0  0  0  0
    9.5815  -10.5741    0.0000 O   0  0  0  0  0  0  0  0  0  0  0  0
    8.7381  -10.5573    0.0000 C   0  0  1  0  0  0  0  0  0  0  0  0
    8.3209  -11.2469    0.0000 C   0  0  2  0  0  0  0  0  0  0  0  0
    8.7282  -11.9640    0.0000 C   0  0  2  0  0  0  0  0  0  0  0  0
    9.5527  -11.9915    0.0000 C   0  0  0  0  0  0  0  0  0  0  0  0
    9.9888  -11.2912    0.0000 C   0  0  2  0  0  0  0  0  0  0  0  0
   10.8137  -11.3078    0.0000 O   0  0  0  0  0  0  0  0  0  0  0  0
   18.1439  -11.0999    0.0000 C   0  0  0  0  0  0  0  0  0  0  0  0
   18.1439  -10.2701    0.0000 C   0  0  2  0  0  0  0  0  0  0  0  0
   17.4342   -9.8705    0.0000 C   0  0  0  0  0  0  0  0  0  0  0  0
   16.7068  -10.3007    0.0000 C   0  0  0  0  0  0  0  0  0  0  0  0
   18.8628  -11.5047    0.0000 O   0  0  0  0  0  0  0  0  0  0  0  0
   18.8562   -9.8537    0.0000 C   0  0  0  0  0  0  0  0  0  0  0  0
   18.1372   -9.4451    0.0000 H   0  0  0  0  0  0  0  0  0  0  0  0
   19.6117  -10.1852    0.0000 C   0  0  0  0  0  0  0  0  0  0  0  0
   20.1604   -9.5691    0.0000 C   0  0  0  0  0  0  0  0  0  0  0  0
   19.7440   -8.8569    0.0000 O   0  0  0  0  0  0  0  0  0  0  0  0
   18.9380   -9.0328    0.0000 C   0  0  0  0  0  0  0  0  0  0  0  0
   18.3219   -8.4841    0.0000 C   0  0  0  0  0  0  0  0  0  0  0  0
   13.6860  -11.1646    0.0000 O   0  0  0  0  0  0  0  0  0  0  0  0
   16.7068  -11.9602    0.0000 H   0  0  0  0  0  0  0  0  0  0  0  0
   17.4025  -10.6662    0.0000 H   0  0  0  0  0  0  0  0  0  0  0  0
    6.1758   -7.6822    0.0000 C   0  0  2  0  0  0  0  0  0  0  0  0
    7.0001   -7.6497    0.0000 O   0  0  0  0  0  0  0  0  0  0  0  0
    7.3842   -6.9195    0.0000 C   0  0  1  0  0  0  0  0  0  0  0  0
    6.9439   -6.2219    0.0000 C   0  0  2  0  0  0  0  0  0  0  0  0
    6.1195   -6.2543    0.0000 C   0  0  1  0  0  0  0  0  0  0  0  0
    5.7355   -6.9845    0.0000 C   0  0  1  0  0  0  0  0  0  0  0  0
    8.2086   -6.8871    0.0000 C   0  0  0  0  0  0  0  0  0  0  0  0
    5.6792   -5.5567    0.0000 O   0  0  0  0  0  0  0  0  0  0  0  0
    7.3279   -5.4917    0.0000 O   0  0  0  0  0  0  0  0  0  0  0  0
    4.9111   -7.0170    0.0000 O   0  0  0  0  0  0  0  0  0  0  0  0
    8.5926   -6.1569    0.0000 O   0  0  0  0  0  0  0  0  0  0  0  0
    9.4170   -6.1244    0.0000 C   0  0  2  0  0  0  0  0  0  0  0  0
    9.8573   -6.8221    0.0000 O   0  0  0  0  0  0  0  0  0  0  0  0
   10.6816   -6.7896    0.0000 C   0  0  1  0  0  0  0  0  0  0  0  0
   11.0657   -6.0595    0.0000 C   0  0  2  0  0  0  0  0  0  0  0  0
   10.6254   -5.3618    0.0000 C   0  0  1  0  0  0  0  0  0  0  0  0
    9.8010   -5.3943    0.0000 C   0  0  1  0  0  0  0  0  0  0  0  0
   11.1219   -7.4873    0.0000 C   0  0  0  0  0  0  0  0  0  0  0  0
   11.0094   -4.6316    0.0000 O   0  0  0  0  0  0  0  0  0  0  0  0
   11.8900   -6.0270    0.0000 O   0  0  0  0  0  0  0  0  0  0  0  0
    9.3607   -4.6966    0.0000 O   0  0  0  0  0  0  0  0  0  0  0  0
   11.9463   -7.4548    0.0000 O   0  0  0  0  0  0  0  0  0  0  0  0
  4  2  1  0  0  0  0
  5  2  1  0  0  0  0
  6  1  1  0  0  0  0
  7  4  1  0  0  0  0
  8  1  2  0  0  0  0
  8  5  1  0  0  0  0
  9  6  1  0  0  0  0
 10  9  1  0  0  0  0
 11  3  1  1  0  0  0
 11  7  1  0  0  0  0
 11  8  1  0  0  0  0
 11 10  1  0  0  0  0
  2 12  1  1  0  0  0
 13 12  1  1  0  0  0
 13 14  1  0  0  0  0
 14 15  1  0  0  0  0
 15 16  1  0  0  0  0
 16 17  1  0  0  0  0
 17 18  1  0  0  0  0
 18 13  1  0  0  0  0
 15 19  1  1  0  0  0
 17 20  1  6  0  0  0
 23 22  1  0  0  0  0
 16 41  1  6  0  0  0
 20 21  1  0  0  0  0
 29 23  1  1  0  0  0
 28 24  1  1  0  0  0
 27 25  1  6  0  0  0
 26 31  1  0  0  0  0
 27 26  1  0  0  0  0
 28 27  1  0  0  0  0
 29 28  1  0  0  0  0
 30 29  1  0  0  0  0
 31 30  1  0  0  0  0
 31 33  1  1  0  0  0
 38 32  1  6  0  0  0
 37 33  1  6  0  0  0
 36 34  1  1  0  0  0
 35 40  1  0  0  0  0
 36 35  1  0  0  0  0
 37 36  1  0  0  0  0
 38 37  1  0  0  0  0
 39 38  1  0  0  0  0
 40 39  1  0  0  0  0
 40 41  1  1  0  0  0
  9 42  1  0  0  0  0
 42 43  1  0  0  0  0
 43 44  1  0  0  0  0
 44 45  1  0  0  0  0
 45 10  1  0  0  0  0
 42 46  2  0  0  0  0
 43 47  1  0  0  0  0
 43 48  1  1  0  0  0
 47 49  1  0  0  0  0
 49 50  2  0  0  0  0
 50 51  1  0  0  0  0
 51 52  1  0  0  0  0
 52 47  2  0  0  0  0
 52 53  1  0  0  0  0
  4 54  1  6  0  0  0
 10 55  1  6  0  0  0
  9 56  1  1  0  0  0
 57 24  1  1  0  0  0
 57 58  1  0  0  0  0
 58 59  1  0  0  0  0
 59 60  1  0  0  0  0
 60 61  1  0  0  0  0
 61 62  1  0  0  0  0
 62 57  1  0  0  0  0
 59 63  1  1  0  0  0
 61 64  1  1  0  0  0
 60 65  1  6  0  0  0
 62 66  1  6  0  0  0
 63 67  1  0  0  0  0
 68 67  1  1  0  0  0
 68 69  1  0  0  0  0
 69 70  1  0  0  0  0
 70 71  1  0  0  0  0
 71 72  1  0  0  0  0
 72 73  1  0  0  0  0
 73 68  1  0  0  0  0
 70 74  1  1  0  0  0
 72 75  1  1  0  0  0
 71 76  1  6  0  0  0
 73 77  1  6  0  0  0
 74 78  1  0  0  0  0
M  END
>  <cdx:fragmentId>
1

$$$$
