33015.cdx
  Mrv1902 05222410202D          

 58 64  0  0  0  0            999 V2000
   12.9530   -8.9650    0.0000 C   0  0  1  0  0  0  0  0  0  0  0  0
   12.9530   -9.7900    0.0000 C   0  0  1  0  0  0  0  0  0  0  0  0
   13.6675  -10.2025    0.0000 C   0  0  0  0  0  0  0  0  0  0  0  0
   14.3820   -9.7900    0.0000 C   0  0  0  0  0  0  0  0  0  0  0  0
   14.3820   -8.9650    0.0000 C   0  0  2  0  0  0  0  0  0  0  0  0
   13.6675   -8.5525    0.0000 C   0  0  0  0  0  0  0  0  0  0  0  0
   15.0964  -10.2025    0.0000 C   0  0  0  0  0  0  0  0  0  0  0  0
   15.8109   -9.7900    0.0000 C   0  0  0  0  0  0  0  0  0  0  0  0
   15.8109   -8.9650    0.0000 C   0  0  2  0  0  0  0  0  0  0  0  0
   15.0964   -8.5525    0.0000 C   0  0  2  0  0  0  0  0  0  0  0  0
   16.5254   -8.5525    0.0000 C   0  0  0  0  0  0  0  0  0  0  0  0
   16.5254   -7.7275    0.0000 C   0  0  2  0  0  0  0  0  0  0  0  0
   15.8109   -7.3150    0.0000 C   0  0  0  0  0  0  0  0  0  0  0  0
   15.0964   -7.7275    0.0000 C   0  0  0  0  0  0  0  0  0  0  0  0
   17.2399   -7.3150    0.0000 C   0  0  0  0  0  0  0  0  0  0  0  0
   17.9935   -7.6506    0.0000 C   0  0  0  0  0  0  0  0  0  0  0  0
   18.5456   -7.0375    0.0000 C   0  0  0  0  0  0  0  0  0  0  0  0
   18.1331   -6.3230    0.0000 O   0  0  0  0  0  0  0  0  0  0  0  0
   17.3261   -6.4945    0.0000 C   0  0  1  0  0  0  0  0  0  0  0  0
   19.3660   -7.1237    0.0000 O   0  0  0  0  0  0  0  0  0  0  0  0
   16.5254   -6.9025    0.0000 C   0  0  0  0  0  0  0  0  0  0  0  0
   17.2399   -8.9650    0.0000 O   0  0  0  0  0  0  0  0  0  0  0  0
   15.8109   -8.1400    0.0000 H   0  0  0  0  0  0  0  0  0  0  0  0
   15.0964   -9.3775    0.0000 H   0  0  0  0  0  0  0  0  0  0  0  0
   14.3820   -8.1400    0.0000 C   0  0  0  0  0  0  0  0  0  0  0  0
   12.2386   -8.5525    0.0000 O   0  0  0  0  0  0  0  0  0  0  0  0
   12.2386  -10.2025    0.0000 O   0  0  0  0  0  0  0  0  0  0  0  0
   16.7130   -5.9425    0.0000 C   0  0  0  0  0  0  0  0  0  0  0  0
   11.5241   -9.7900    0.0000 C   0  0  2  0  0  0  0  0  0  0  0  0
   11.5241   -8.9650    0.0000 O   0  0  0  0  0  0  0  0  0  0  0  0
   10.8096   -8.5525    0.0000 C   0  0  1  0  0  0  0  0  0  0  0  0
   10.0951   -8.9650    0.0000 C   0  0  2  0  0  0  0  0  0  0  0  0
   10.0951   -9.7900    0.0000 C   0  0  2  0  0  0  0  0  0  0  0  0
   10.8096  -10.2025    0.0000 C   0  0  0  0  0  0  0  0  0  0  0  0
    9.3807  -10.2025    0.0000 O   0  0  0  0  0  0  0  0  0  0  0  0
    9.3807   -8.5525    0.0000 O   0  0  0  0  0  0  0  0  0  0  0  0
   10.8096   -7.7275    0.0000 C   0  0  0  0  0  0  0  0  0  0  0  0
    9.3807  -11.0275    0.0000 C   0  0  0  0  0  0  0  0  0  0  0  0
    8.6662   -8.9650    0.0000 C   0  0  2  0  0  0  0  0  0  0  0  0
    7.9517   -8.5525    0.0000 O   0  0  0  0  0  0  0  0  0  0  0  0
    7.2373   -8.9650    0.0000 C   0  0  2  0  0  0  0  0  0  0  0  0
    7.2373   -9.7900    0.0000 C   0  0  2  0  0  0  0  0  0  0  0  0
    7.9517  -10.2025    0.0000 C   0  0  2  0  0  0  0  0  0  0  0  0
    8.6662   -9.7900    0.0000 C   0  0  0  0  0  0  0  0  0  0  0  0
    7.9517  -11.0275    0.0000 O   0  0  0  0  0  0  0  0  0  0  0  0
    7.2373  -11.4400    0.0000 C   0  0  0  0  0  0  0  0  0  0  0  0
    6.5228  -10.2025    0.0000 O   0  0  0  0  0  0  0  0  0  0  0  0
    6.5228   -8.5525    0.0000 C   0  0  0  0  0  0  0  0  0  0  0  0
    5.8083   -9.7900    0.0000 C   0  0  2  0  0  0  0  0  0  0  0  0
    5.8083   -8.9650    0.0000 O   0  0  0  0  0  0  0  0  0  0  0  0
    5.0938   -8.5525    0.0000 C   0  0  1  0  0  0  0  0  0  0  0  0
    4.3794   -8.9650    0.0000 C   0  0  2  0  0  0  0  0  0  0  0  0
    4.3794   -9.7900    0.0000 C   0  0  2  0  0  0  0  0  0  0  0  0
    5.0938  -10.2025    0.0000 C   0  0  0  0  0  0  0  0  0  0  0  0
    5.0938   -7.7275    0.0000 C   0  0  0  0  0  0  0  0  0  0  0  0
    3.6649   -8.5525    0.0000 O   0  0  0  0  0  0  0  0  0  0  0  0
    3.6649  -10.2025    0.0000 O   0  0  0  0  0  0  0  0  0  0  0  0
    2.9504   -9.7900    0.0000 C   0  0  0  0  0  0  0  0  0  0  0  0
  1  2  1  0  0  0  0
  2  3  1  0  0  0  0
  3  4  1  0  0  0  0
  4  5  1  0  0  0  0
  5  6  1  0  0  0  0
  6  1  1  0  0  0  0
  4  7  2  0  0  0  0
  7  8  1  0  0  0  0
  8  9  1  0  0  0  0
  9 10  1  0  0  0  0
 10  5  1  0  0  0  0
  9 11  1  0  0  0  0
 11 12  1  0  0  0  0
 12 13  1  0  0  0  0
 13 14  1  0  0  0  0
 14 10  1  0  0  0  0
 12 15  1  0  0  0  0
 15 16  2  0  0  0  0
 16 17  1  0  0  0  0
 17 18  1  0  0  0  0
 18 19  1  0  0  0  0
 19 15  1  0  0  0  0
 17 20  2  0  0  0  0
 12 21  1  1  0  0  0
 11 22  2  0  0  0  0
  9 23  1  1  0  0  0
 10 24  1  6  0  0  0
  5 25  1  1  0  0  0
  1 26  1  6  0  0  0
  2 27  1  1  0  0  0
 19 28  1  6  0  0  0
 29 27  1  1  0  0  0
 29 30  1  0  0  0  0
 30 31  1  0  0  0  0
 31 32  1  0  0  0  0
 32 33  1  0  0  0  0
 33 34  1  0  0  0  0
 34 29  1  0  0  0  0
 33 35  1  6  0  0  0
 32 36  1  6  0  0  0
 31 37  1  1  0  0  0
 35 38  1  0  0  0  0
 39 36  1  1  0  0  0
 39 40  1  0  0  0  0
 40 41  1  0  0  0  0
 41 42  1  0  0  0  0
 42 43  1  0  0  0  0
 43 44  1  0  0  0  0
 44 39  1  0  0  0  0
 43 45  1  6  0  0  0
 45 46  1  0  0  0  0
 42 47  1  6  0  0  0
 41 48  1  6  0  0  0
 49 47  1  1  0  0  0
 49 50  1  0  0  0  0
 50 51  1  0  0  0  0
 51 52  1  0  0  0  0
 52 53  1  0  0  0  0
 53 54  1  0  0  0  0
 54 49  1  0  0  0  0
 51 55  1  1  0  0  0
 52 56  1  6  0  0  0
 53 57  1  6  0  0  0
 57 58  1  0  0  0  0
M  END
>  <cdx:fragmentId>
5

$$$$
