33025.cdx
  Mrv1902 05222410272D          

 69 76  0  0  0  0            999 V2000
   12.9530   -8.9650    0.0000 C   0  0  0  0  0  0  0  0  0  0  0  0
   12.9530   -9.7900    0.0000 C   0  0  1  0  0  0  0  0  0  0  0  0
   13.6675  -10.2025    0.0000 C   0  0  0  0  0  0  0  0  0  0  0  0
   14.3820   -9.7900    0.0000 C   0  0  0  0  0  0  0  0  0  0  0  0
   14.3820   -8.9650    0.0000 C   0  0  2  0  0  0  0  0  0  0  0  0
   13.6675   -8.5525    0.0000 C   0  0  2  0  0  0  0  0  0  0  0  0
   15.0964  -10.2025    0.0000 C   0  0  0  0  0  0  0  0  0  0  0  0
   15.8109   -9.7900    0.0000 C   0  0  0  0  0  0  0  0  0  0  0  0
   15.8109   -8.9650    0.0000 C   0  0  2  0  0  0  0  0  0  0  0  0
   15.0964   -8.5525    0.0000 C   0  0  2  0  0  0  0  0  0  0  0  0
   16.5254   -8.5525    0.0000 C   0  0  0  0  0  0  0  0  0  0  0  0
   16.5254   -7.7275    0.0000 C   0  0  2  0  0  0  0  0  0  0  0  0
   15.8109   -7.3150    0.0000 C   0  0  0  0  0  0  0  0  0  0  0  0
   15.0964   -7.7275    0.0000 C   0  0  0  0  0  0  0  0  0  0  0  0
   17.2399   -7.3150    0.0000 C   0  0  0  0  0  0  0  0  0  0  0  0
   17.9935   -7.6506    0.0000 C   0  0  0  0  0  0  0  0  0  0  0  0
   18.5456   -7.0375    0.0000 C   0  0  0  0  0  0  0  0  0  0  0  0
   18.1331   -6.3230    0.0000 O   0  0  0  0  0  0  0  0  0  0  0  0
   17.3261   -6.4945    0.0000 C   0  0  0  0  0  0  0  0  0  0  0  0
   16.5254   -6.9025    0.0000 C   0  0  0  0  0  0  0  0  0  0  0  0
   17.2399   -8.9650    0.0000 O   0  0  0  0  0  0  0  0  0  0  0  0
   15.8109   -8.1400    0.0000 H   0  0  0  0  0  0  0  0  0  0  0  0
   15.0964   -9.3775    0.0000 H   0  0  0  0  0  0  0  0  0  0  0  0
   14.3820   -8.1400    0.0000 C   0  0  0  0  0  0  0  0  0  0  0  0
   12.2386   -8.5525    0.0000 O   0  0  0  0  0  0  0  0  0  0  0  0
   12.2386  -10.2025    0.0000 O   0  0  0  0  0  0  0  0  0  0  0  0
   16.7130   -5.9425    0.0000 C   0  0  0  0  0  0  0  0  0  0  0  0
   11.5241   -9.7900    0.0000 C   0  0  2  0  0  0  0  0  0  0  0  0
   11.5241   -8.9650    0.0000 O   0  0  0  0  0  0  0  0  0  0  0  0
   10.8096   -8.5525    0.0000 C   0  0  1  0  0  0  0  0  0  0  0  0
   10.0951   -8.9650    0.0000 C   0  0  2  0  0  0  0  0  0  0  0  0
   10.0951   -9.7900    0.0000 C   0  0  2  0  0  0  0  0  0  0  0  0
   10.8096  -10.2025    0.0000 C   0  0  0  0  0  0  0  0  0  0  0  0
    9.3807  -10.2025    0.0000 O   0  0  0  0  0  0  0  0  0  0  0  0
    9.3807   -8.5525    0.0000 O   0  0  0  0  0  0  0  0  0  0  0  0
   10.8096   -7.7275    0.0000 C   0  0  0  0  0  0  0  0  0  0  0  0
    9.3807  -11.0275    0.0000 C   0  0  0  0  0  0  0  0  0  0  0  0
    8.6662   -8.9650    0.0000 C   0  0  2  0  0  0  0  0  0  0  0  0
    7.9517   -8.5525    0.0000 O   0  0  0  0  0  0  0  0  0  0  0  0
    7.2373   -8.9650    0.0000 C   0  0  2  0  0  0  0  0  0  0  0  0
    7.2373   -9.7900    0.0000 C   0  0  2  0  0  0  0  0  0  0  0  0
    7.9517  -10.2025    0.0000 C   0  0  2  0  0  0  0  0  0  0  0  0
    8.6662   -9.7900    0.0000 C   0  0  0  0  0  0  0  0  0  0  0  0
    7.9517  -11.0275    0.0000 O   0  0  0  0  0  0  0  0  0  0  0  0
    6.5228  -10.2025    0.0000 O   0  0  0  0  0  0  0  0  0  0  0  0
    6.5228   -8.5525    0.0000 C   0  0  0  0  0  0  0  0  0  0  0  0
    5.8083   -9.7900    0.0000 C   0  0  2  0  0  0  0  0  0  0  0  0
    5.8083   -8.9650    0.0000 O   0  0  0  0  0  0  0  0  0  0  0  0
    5.0938   -8.5525    0.0000 C   0  0  1  0  0  0  0  0  0  0  0  0
    4.3794   -8.9650    0.0000 C   0  0  2  0  0  0  0  0  0  0  0  0
    4.3794   -9.7900    0.0000 C   0  0  2  0  0  0  0  0  0  0  0  0
    5.0938  -10.2025    0.0000 C   0  0  0  0  0  0  0  0  0  0  0  0
    5.0938   -7.7275    0.0000 C   0  0  0  0  0  0  0  0  0  0  0  0
    3.6649   -8.5525    0.0000 O   0  0  0  0  0  0  0  0  0  0  0  0
    3.6649  -10.2025    0.0000 O   0  0  0  0  0  0  0  0  0  0  0  0
    2.9504   -9.7900    0.0000 C   0  0  0  0  0  0  0  0  0  0  0  0
    7.2373  -11.4400    0.0000 C   0  0  0  0  0  0  0  0  0  0  0  0
   13.6675   -7.7275    0.0000 O   0  0  0  0  0  0  0  0  0  0  0  0
    3.6649   -7.7275    0.0000 C   0  0  2  0  0  0  0  0  0  0  0  0
    4.3794   -7.3150    0.0000 O   0  0  0  0  0  0  0  0  0  0  0  0
    4.3794   -6.4900    0.0000 C   0  0  1  0  0  0  0  0  0  0  0  0
    3.6649   -6.0775    0.0000 C   0  0  2  0  0  0  0  0  0  0  0  0
    2.9504   -6.4900    0.0000 C   0  0  1  0  0  0  0  0  0  0  0  0
    2.9504   -7.3150    0.0000 C   0  0  1  0  0  0  0  0  0  0  0  0
    5.0938   -6.0775    0.0000 C   0  0  0  0  0  0  0  0  0  0  0  0
    2.2360   -6.0775    0.0000 O   0  0  0  0  0  0  0  0  0  0  0  0
    5.0938   -5.2525    0.0000 O   0  0  0  0  0  0  0  0  0  0  0  0
    3.6649   -5.2525    0.0000 O   0  0  0  0  0  0  0  0  0  0  0  0
    2.2360   -7.7275    0.0000 O   0  0  0  0  0  0  0  0  0  0  0  0
  1  2  1  0  0  0  0
  2  3  1  0  0  0  0
  3  4  1  0  0  0  0
  4  5  1  0  0  0  0
  5  6  1  0  0  0  0
  6  1  1  0  0  0  0
  4  7  2  0  0  0  0
  7  8  1  0  0  0  0
  8  9  1  0  0  0  0
  9 10  1  0  0  0  0
 10  5  1  0  0  0  0
  9 11  1  0  0  0  0
 11 12  1  0  0  0  0
 12 13  1  0  0  0  0
 13 14  1  0  0  0  0
 14 10  1  0  0  0  0
 12 15  1  0  0  0  0
 15 16  1  0  0  0  0
 16 17  2  0  0  0  0
 17 18  1  0  0  0  0
 18 19  1  0  0  0  0
 19 15  2  0  0  0  0
 12 20  1  1  0  0  0
 11 21  2  0  0  0  0
  9 22  1  1  0  0  0
 10 23  1  6  0  0  0
  5 24  1  1  0  0  0
  1 25  2  0  0  0  0
  2 26  1  1  0  0  0
 19 27  1  0  0  0  0
 28 26  1  1  0  0  0
 28 29  1  0  0  0  0
 29 30  1  0  0  0  0
 30 31  1  0  0  0  0
 31 32  1  0  0  0  0
 32 33  1  0  0  0  0
 33 28  1  0  0  0  0
 32 34  1  6  0  0  0
 31 35  1  6  0  0  0
 30 36  1  1  0  0  0
 34 37  1  0  0  0  0
 38 35  1  1  0  0  0
 38 39  1  0  0  0  0
 39 40  1  0  0  0  0
 40 41  1  0  0  0  0
 41 42  1  0  0  0  0
 42 43  1  0  0  0  0
 43 38  1  0  0  0  0
 42 44  1  6  0  0  0
 41 45  1  6  0  0  0
 40 46  1  6  0  0  0
 47 45  1  1  0  0  0
 47 48  1  0  0  0  0
 48 49  1  0  0  0  0
 49 50  1  0  0  0  0
 50 51  1  0  0  0  0
 51 52  1  0  0  0  0
 52 47  1  0  0  0  0
 49 53  1  1  0  0  0
 50 54  1  6  0  0  0
 51 55  1  6  0  0  0
 55 56  1  0  0  0  0
 44 57  1  0  0  0  0
  6 58  1  1  0  0  0
 59 54  1  1  0  0  0
 59 60  1  0  0  0  0
 60 61  1  0  0  0  0
 61 62  1  0  0  0  0
 62 63  1  0  0  0  0
 63 64  1  0  0  0  0
 64 59  1  0  0  0  0
 61 65  1  1  0  0  0
 63 66  1  1  0  0  0
 65 67  1  0  0  0  0
 62 68  1  6  0  0  0
 64 69  1  6  0  0  0
M  END
>  <cdx:fragmentId>
5

$$$$
