33037.cdx
  Mrv1902 05222410282D          

 14 13  0  0  0  0            999 V2000
    5.1053   -5.8171    0.0000 C   0  0  0  0  0  0  0  0  0  0  0  0
    5.8198   -5.4046    0.0000 C   0  0  2  0  0  0  0  0  0  0  0  0
    6.5343   -5.8171    0.0000 C   0  0  2  0  0  0  0  0  0  0  0  0
    7.2487   -5.4046    0.0000 C   0  0  1  0  0  0  0  0  0  0  0  0
    7.9632   -5.8171    0.0000 C   0  0  2  0  0  0  0  0  0  0  0  0
    8.6777   -5.4046    0.0000 C   0  0  0  0  0  0  0  0  0  0  0  0
    5.1053   -6.6421    0.0000 O   0  0  0  0  0  0  0  0  0  0  0  0
    4.3909   -5.4046    0.0000 O   0  0  0  0  0  0  0  0  0  0  0  0
    8.6777   -4.5796    0.0000 O   0  0  0  0  0  0  0  0  0  0  0  0
    9.3921   -5.8171    0.0000 O   0  0  0  0  0  0  0  0  0  0  0  0
    7.9632   -6.6421    0.0000 O   0  0  0  0  0  0  0  0  0  0  0  0
    7.2487   -4.5796    0.0000 O   0  0  0  0  0  0  0  0  0  0  0  0
    6.5343   -6.6421    0.0000 O   0  0  0  0  0  0  0  0  0  0  0  0
    5.8198   -4.5796    0.0000 O   0  0  0  0  0  0  0  0  0  0  0  0
  1  2  1  0  0  0  0
  2  3  1  0  0  0  0
  3  4  1  0  0  0  0
  4  5  1  0  0  0  0
  5  6  1  0  0  0  0
  1  7  2  0  0  0  0
  1  8  1  0  0  0  0
  6  9  2  0  0  0  0
  6 10  1  0  0  0  0
  5 11  1  6  0  0  0
  4 12  1  6  0  0  0
  3 13  1  6  0  0  0
  2 14  1  1  0  0  0
M  END
>  <cdx:groupId>
43

>  <cdx:fragmentId>
5

$$$$
