3306.cdx
  Mrv1902 05222410262D          

 21 22  0  0  0  0            999 V2000
    4.9656   -5.3819    0.0000 C   0  0  2  0  0  0  0  0  0  0  0  0
    4.9656   -6.2069    0.0000 C   0  0  2  0  0  0  0  0  0  0  0  0
    5.6801   -6.6194    0.0000 C   0  0  1  0  0  0  0  0  0  0  0  0
    6.3945   -6.2069    0.0000 C   0  0  2  0  0  0  0  0  0  0  0  0
    6.3945   -5.3819    0.0000 C   0  0  1  0  0  0  0  0  0  0  0  0
    5.6801   -4.9694    0.0000 O   0  0  0  0  0  0  0  0  0  0  0  0
    7.1090   -4.9694    0.0000 O   0  0  0  0  0  0  0  0  0  0  0  0
    7.8235   -5.3819    0.0000 C   0  0  0  0  0  0  0  0  0  0  0  0
    8.5379   -4.9694    0.0000 C   0  0  0  0  0  0  0  0  0  0  0  0
    9.2524   -5.3819    0.0000 C   0  0  0  0  0  0  0  0  0  0  0  0
    9.2524   -6.2069    0.0000 C   0  0  0  0  0  0  0  0  0  0  0  0
    9.9669   -6.6194    0.0000 C   0  0  0  0  0  0  0  0  0  0  0  0
   10.6814   -6.2069    0.0000 C   0  0  0  0  0  0  0  0  0  0  0  0
   10.6814   -5.3819    0.0000 C   0  0  0  0  0  0  0  0  0  0  0  0
    9.9669   -4.9694    0.0000 C   0  0  0  0  0  0  0  0  0  0  0  0
   11.3958   -6.6194    0.0000 O   0  0  0  0  0  0  0  0  0  0  0  0
    4.2511   -4.9694    0.0000 C   0  0  0  0  0  0  0  0  0  0  0  0
    3.5367   -5.3819    0.0000 O   0  0  0  0  0  0  0  0  0  0  0  0
    5.6801   -7.4444    0.0000 O   0  0  0  0  0  0  0  0  0  0  0  0
    4.2511   -6.6194    0.0000 O   0  0  0  0  0  0  0  0  0  0  0  0
    7.1090   -6.6194    0.0000 O   0  0  0  0  0  0  0  0  0  0  0  0
  1  2  1  0  0  0  0
  2  3  1  0  0  0  0
  3  4  1  0  0  0  0
  4  5  1  0  0  0  0
  5  6  1  0  0  0  0
  6  1  1  0  0  0  0
  5  7  1  1  0  0  0
  7  8  1  0  0  0  0
  8  9  1  0  0  0  0
  9 10  1  0  0  0  0
 10 11  2  0  0  0  0
 11 12  1  0  0  0  0
 12 13  2  0  0  0  0
 13 14  1  0  0  0  0
 14 15  2  0  0  0  0
 15 10  1  0  0  0  0
 13 16  1  0  0  0  0
  1 17  1  1  0  0  0
 17 18  1  0  0  0  0
  3 19  1  1  0  0  0
  2 20  1  6  0  0  0
  4 21  1  6  0  0  0
M  END
>  <cdx:fragmentId>
4550

$$$$
