3307.cdx
  Mrv1902 05222410262D          

 24 25  0  0  0  0            999 V2000
    5.2956   -9.2044    0.0000 C   0  0  2  0  0  0  0  0  0  0  0  0
    5.2956  -10.0294    0.0000 C   0  0  2  0  0  0  0  0  0  0  0  0
    6.0101  -10.4419    0.0000 C   0  0  1  0  0  0  0  0  0  0  0  0
    6.7245  -10.0294    0.0000 C   0  0  2  0  0  0  0  0  0  0  0  0
    6.7245   -9.2044    0.0000 C   0  0  1  0  0  0  0  0  0  0  0  0
    6.0101   -8.7919    0.0000 O   0  0  0  0  0  0  0  0  0  0  0  0
    8.8682   -3.8419    0.0000 C   0  0  0  0  0  0  0  0  0  0  0  0
    9.5826   -4.2545    0.0000 C   0  0  0  0  0  0  0  0  0  0  0  0
    8.8682   -3.0169    0.0000 O   0  0  0  0  0  0  0  0  0  0  0  0
    4.5811   -8.7919    0.0000 C   0  0  0  0  0  0  0  0  0  0  0  0
    3.8667   -9.2044    0.0000 O   0  0  0  0  0  0  0  0  0  0  0  0
    6.0101  -11.2669    0.0000 O   0  0  0  0  0  0  0  0  0  0  0  0
    4.5811  -10.4419    0.0000 O   0  0  0  0  0  0  0  0  0  0  0  0
    7.4390  -10.4419    0.0000 O   0  0  0  0  0  0  0  0  0  0  0  0
    8.1537   -4.2544    0.0000 O   0  0  0  0  0  0  0  0  0  0  0  0
    8.8681   -6.3170    0.0000 C   0  0  0  0  0  0  0  0  0  0  0  0
    8.8681   -5.4919    0.0000 C   0  0  0  0  0  0  0  0  0  0  0  0
    8.1537   -5.0794    0.0000 C   0  0  0  0  0  0  0  0  0  0  0  0
    7.4392   -5.4919    0.0000 C   0  0  0  0  0  0  0  0  0  0  0  0
    7.4391   -6.3169    0.0000 C   0  0  0  0  0  0  0  0  0  0  0  0
    8.1536   -6.7294    0.0000 C   0  0  0  0  0  0  0  0  0  0  0  0
    8.1535   -7.5545    0.0000 C   0  0  0  0  0  0  0  0  0  0  0  0
    7.4391   -7.9669    0.0000 C   0  0  0  0  0  0  0  0  0  0  0  0
    7.4390   -8.7919    0.0000 O   0  0  0  0  0  0  0  0  0  0  0  0
  7  8  1  0  0  0  0
 15  7  1  0  0  0  0
  7  9  2  0  0  0  0
 18 15  1  0  0  0  0
 16 21  1  0  0  0  0
 17 16  2  0  0  0  0
 18 17  1  0  0  0  0
  1  2  1  0  0  0  0
  2  3  1  0  0  0  0
  3  4  1  0  0  0  0
  4  5  1  0  0  0  0
  5  6  1  0  0  0  0
  6  1  1  0  0  0  0
  5 24  1  1  0  0  0
 19 18  2  0  0  0  0
 20 19  1  0  0  0  0
 21 20  2  0  0  0  0
 22 21  1  0  0  0  0
 23 22  1  0  0  0  0
 24 23  1  0  0  0  0
  1 10  1  1  0  0  0
 10 11  1  0  0  0  0
  3 12  1  1  0  0  0
  2 13  1  6  0  0  0
  4 14  1  6  0  0  0
M  END
>  <cdx:fragmentId>
4550

$$$$
