3308.cdx
  Mrv1902 05222410192D          

 29 31  0  0  0  0            999 V2000
    6.8631   -5.2994    0.0000 C   0  0  2  0  0  0  0  0  0  0  0  0
    6.8631   -6.1244    0.0000 C   0  0  2  0  0  0  0  0  0  0  0  0
    7.5776   -6.5369    0.0000 C   0  0  1  0  0  0  0  0  0  0  0  0
    8.2920   -6.1244    0.0000 C   0  0  2  0  0  0  0  0  0  0  0  0
    8.2920   -5.2994    0.0000 C   0  0  1  0  0  0  0  0  0  0  0  0
    7.5776   -4.8869    0.0000 O   0  0  0  0  0  0  0  0  0  0  0  0
    9.0065   -4.8869    0.0000 O   0  0  0  0  0  0  0  0  0  0  0  0
    9.7210   -5.2994    0.0000 C   0  0  0  0  0  0  0  0  0  0  0  0
   10.4354   -4.8869    0.0000 C   0  0  0  0  0  0  0  0  0  0  0  0
   11.1499   -5.2994    0.0000 C   0  0  0  0  0  0  0  0  0  0  0  0
   11.1499   -6.1244    0.0000 C   0  0  0  0  0  0  0  0  0  0  0  0
   11.8644   -6.5369    0.0000 C   0  0  0  0  0  0  0  0  0  0  0  0
   12.5789   -6.1244    0.0000 C   0  0  0  0  0  0  0  0  0  0  0  0
   12.5789   -5.2994    0.0000 C   0  0  0  0  0  0  0  0  0  0  0  0
   11.8644   -4.8869    0.0000 C   0  0  0  0  0  0  0  0  0  0  0  0
    6.1486   -4.8869    0.0000 C   0  0  0  0  0  0  0  0  0  0  0  0
    5.4342   -5.2994    0.0000 O   0  0  0  0  0  0  0  0  0  0  0  0
    7.5776   -7.3619    0.0000 O   0  0  0  0  0  0  0  0  0  0  0  0
    6.1486   -6.5369    0.0000 O   0  0  0  0  0  0  0  0  0  0  0  0
    9.0065   -6.5369    0.0000 O   0  0  0  0  0  0  0  0  0  0  0  0
    4.7197   -4.8869    0.0000 C   0  0  2  0  0  0  0  0  0  0  0  0
    4.7197   -4.0619    0.0000 O   0  0  0  0  0  0  0  0  0  0  0  0
    4.0052   -3.6494    0.0000 C   0  0  0  0  0  0  0  0  0  0  0  0
    3.2907   -4.0619    0.0000 C   0  0  1  0  0  0  0  0  0  0  0  0
    3.2907   -4.8869    0.0000 C   0  0  1  0  0  0  0  0  0  0  0  0
    4.0052   -5.2994    0.0000 C   0  0  1  0  0  0  0  0  0  0  0  0
    4.0052   -6.1244    0.0000 O   0  0  0  0  0  0  0  0  0  0  0  0
    2.5763   -5.2994    0.0000 O   0  0  0  0  0  0  0  0  0  0  0  0
    2.5763   -3.6494    0.0000 O   0  0  0  0  0  0  0  0  0  0  0  0
  1  2  1  0  0  0  0
  2  3  1  0  0  0  0
  3  4  1  0  0  0  0
  4  5  1  0  0  0  0
  5  6  1  0  0  0  0
  6  1  1  0  0  0  0
  5  7  1  1  0  0  0
  7  8  1  0  0  0  0
  8  9  1  0  0  0  0
  9 10  1  0  0  0  0
 10 11  2  0  0  0  0
 11 12  1  0  0  0  0
 12 13  2  0  0  0  0
 13 14  1  0  0  0  0
 14 15  2  0  0  0  0
 15 10  1  0  0  0  0
  1 16  1  1  0  0  0
 16 17  1  0  0  0  0
  3 18  1  1  0  0  0
  2 19  1  6  0  0  0
  4 20  1  6  0  0  0
 21 17  1  1  0  0  0
 21 22  1  0  0  0  0
 22 23  1  0  0  0  0
 23 24  1  0  0  0  0
 24 25  1  0  0  0  0
 25 26  1  0  0  0  0
 26 21  1  0  0  0  0
 26 27  1  6  0  0  0
 25 28  1  1  0  0  0
 24 29  1  1  0  0  0
M  END
>  <cdx:fragmentId>
4550

$$$$
