33109.cdx
  Mrv1902 05222410252D          

 11 12  0  0  0  0            999 V2000
    5.9318   -2.6331    0.0000 C   0  0  0  0  0  0  0  0  0  0  0  0
    5.9318   -5.9331    0.0000 C   0  0  0  0  0  0  0  0  0  0  0  0
    5.9318   -5.1081    0.0000 C   0  0  0  0  0  0  0  0  0  0  0  0
    5.2173   -4.6956    0.0000 C   0  0  0  0  0  0  0  0  0  0  0  0
    5.2173   -3.8706    0.0000 C   0  0  0  0  0  0  0  0  0  0  0  0
    5.9318   -3.4581    0.0000 C   0  0  0  0  0  0  0  0  0  0  0  0
    6.6462   -4.6956    0.0000 C   0  0  0  0  0  0  0  0  0  0  0  0
    6.6462   -3.8706    0.0000 C   0  0  0  0  0  0  0  0  0  0  0  0
    7.4309   -3.6157    0.0000 C   0  0  0  0  0  0  0  0  0  0  0  0
    7.9158   -4.2831    0.0000 C   0  0  0  0  0  0  0  0  0  0  0  0
    7.4309   -4.9506    0.0000 O   0  0  0  0  0  0  0  0  0  0  0  0
  6  1  1  0  0  0  0
  3  2  1  0  0  0  0
  6  8  2  0  0  0  0
  3  7  2  0  0  0  0
  4  3  1  0  0  0  0
  5  4  2  0  0  0  0
  6  5  1  0  0  0  0
 11  7  1  0  0  0  0
  8  7  1  0  0  0  0
  9  8  1  0  0  0  0
 10  9  2  0  0  0  0
 11 10  1  0  0  0  0
M  END
>  <cdx:groupId>
36

>  <cdx:fragmentId>
5

$$$$
