331806.cdx
  Mrv1902 05222410182D          

 37 40  0  0  0  0            999 V2000
    7.7918   -9.0999    0.0000 C   0  0  2  0  0  0  0  0  0  0  0  0
    8.4987   -8.6745    0.0000 C   0  0  1  0  0  0  0  0  0  0  0  0
    9.2205   -9.0740    0.0000 C   0  0  1  0  0  0  0  0  0  0  0  0
    9.9274   -8.6486    0.0000 O   0  0  0  0  0  0  0  0  0  0  0  0
    9.9125   -7.8238    0.0000 C   0  0  0  0  0  0  0  0  0  0  0  0
    9.1907   -7.4243    0.0000 C   0  0  0  0  0  0  0  0  0  0  0  0
    8.4838   -7.8497    0.0000 C   0  0  1  0  0  0  0  0  0  0  0  0
    7.7619   -7.4502    0.0000 C   0  0  0  0  0  0  0  0  0  0  0  0
    7.0551   -7.8756    0.0000 C   0  0  1  0  0  0  0  0  0  0  0  0
    6.3737   -8.3031    0.0000 C   0  0  0  0  0  0  0  0  0  0  0  0
    6.3933   -9.1072    0.0000 C   0  0  0  0  0  0  0  0  0  0  0  0
    7.0946   -9.5011    0.0000 O   0  0  0  0  0  0  0  0  0  0  0  0
    7.7550   -8.2500    0.0000 C   0  0  0  0  0  0  0  0  0  0  0  0
    9.1757   -6.5994    0.0000 C   0  0  0  0  0  0  0  0  0  0  0  0
    8.4539   -6.1999    0.0000 O   0  0  0  0  0  0  0  0  0  0  0  0
    9.8826   -6.1741    0.0000 O   0  0  0  0  0  0  0  0  0  0  0  0
    5.6519   -7.9036    0.0000 C   0  0  0  0  0  0  0  0  0  0  0  0
    5.6369   -7.0787    0.0000 O   0  0  0  0  0  0  0  0  0  0  0  0
    4.9450   -8.3290    0.0000 O   0  0  0  0  0  0  0  0  0  0  0  0
    8.2172   -9.8068    0.0000 H   0  0  0  0  0  0  0  0  0  0  0  0
    8.5137   -9.4994    0.0000 H   0  0  0  0  0  0  0  0  0  0  0  0
    8.4688   -7.0248    0.0000 H   0  0  0  0  0  0  0  0  0  0  0  0
    6.6297   -7.1687    0.0000 H   0  0  0  0  0  0  0  0  0  0  0  0
    9.8676   -5.3492    0.0000 C   0  0  0  0  0  0  0  0  0  0  0  0
    4.2232   -7.9295    0.0000 C   0  0  0  0  0  0  0  0  0  0  0  0
    9.2654  -11.5486    0.0000 O   0  0  0  0  0  0  0  0  0  0  0  0
    7.8516  -12.3994    0.0000 O   0  0  0  0  0  0  0  0  0  0  0  0
    6.4080  -11.6004    0.0000 O   0  0  0  0  0  0  0  0  0  0  0  0
    5.6712  -10.3760    0.0000 O   0  0  0  0  0  0  0  0  0  0  0  0
    6.3781   -9.9507    0.0000 C   0  0  0  0  0  0  0  0  0  0  0  0
    7.0999  -10.3502    0.0000 C   0  0  2  0  0  0  0  0  0  0  0  0
    7.1149  -11.1750    0.0000 C   0  0  2  0  0  0  0  0  0  0  0  0
    7.8367  -11.5745    0.0000 C   0  0  1  0  0  0  0  0  0  0  0  0
    8.5436  -11.1491    0.0000 C   0  0  2  0  0  0  0  0  0  0  0  0
    8.5286  -10.3243    0.0000 C   0  0  1  0  0  0  0  0  0  0  0  0
    7.8068   -9.9248    0.0000 O   0  0  0  0  0  0  0  0  0  0  0  0
    9.2355   -9.8989    0.0000 O   0  0  0  0  0  0  0  0  0  0  0  0
 35 37  1  1  0  0  0
 34 26  1  6  0  0  0
 33 27  1  1  0  0  0
 32 28  1  6  0  0  0
 31 30  1  1  0  0  0
 30 29  1  0  0  0  0
 36 31  1  0  0  0  0
 32 31  1  0  0  0  0
 33 32  1  0  0  0  0
 34 33  1  0  0  0  0
 35 34  1  0  0  0  0
 36 35  1  0  0  0  0
  1  2  1  0  0  0  0
  2  3  1  0  0  0  0
  3  4  1  0  0  0  0
  4  5  1  0  0  0  0
  5  6  2  0  0  0  0
  6  7  1  0  0  0  0
  7  8  1  0  0  0  0
  8  9  1  0  0  0  0
  9 10  1  0  0  0  0
 10 11  2  0  0  0  0
 11 12  1  0  0  0  0
  1 12  1  0  0  0  0
  1 13  1  0  0  0  0
  9 13  1  0  0  0  0
  2  7  1  0  0  0  0
 14 15  2  0  0  0  0
 14 16  1  0  0  0  0
  6 14  1  0  0  0  0
 17 18  2  0  0  0  0
 17 19  1  0  0  0  0
 10 17  1  0  0  0  0
  3 37  1  1  0  0  0
  1 20  1  1  0  0  0
  2 21  1  1  0  0  0
  7 22  1  1  0  0  0
  9 23  1  1  0  0  0
 16 24  1  0  0  0  0
 19 25  1  0  0  0  0
M  END
>  <cdx:fragmentId>
208359

$$$$
