332.cdx
  Mrv1902 05222410272D          

114117  0  0  0  0            999 V2000
    3.6562  -11.6132    0.0000 N   0  0  0  0  0  0  0  0  0  0  0  0
    4.3751  -11.2086    0.0000 C   0  0  0  0  0  0  0  0  0  0  0  0
    4.3841  -10.3836    0.0000 C   0  0  0  0  0  0  0  0  0  0  0  0
    3.6742   -9.9633    0.0000 O   0  0  0  0  0  0  0  0  0  0  0  0
    5.1031   -9.9790    0.0000 C   0  0  0  0  0  0  0  0  0  0  0  0
    5.1121   -9.1540    0.0000 C   0  0  2  0  0  0  0  0  0  0  0  0
    4.4022   -8.7337    0.0000 N   0  0  0  0  0  0  0  0  0  0  0  0
    3.6832   -9.1384    0.0000 C   0  0  0  0  0  0  0  0  0  0  0  0
    5.8310   -8.7494    0.0000 C   0  0  0  0  0  0  0  0  0  0  0  0
    5.8401   -7.9244    0.0000 O   0  0  0  0  0  0  0  0  0  0  0  0
    6.5410   -9.1697    0.0000 N   0  0  0  0  0  0  0  0  0  0  0  0
    7.2599   -8.7650    0.0000 C   0  0  1  0  0  0  0  0  0  0  0  0
    7.2689   -7.9401    0.0000 C   0  0  0  0  0  0  0  0  0  0  0  0
    6.5590   -7.5198    0.0000 C   0  0  0  0  0  0  0  0  0  0  0  0
    6.5680   -6.6948    0.0000 C   0  0  0  0  0  0  0  0  0  0  0  0
    5.8581   -6.2745    0.0000 N   0  0  0  0  0  0  0  0  0  0  0  0
    6.5861   -5.0449    0.0000 N   0  0  0  0  0  0  0  0  0  0  0  0
    5.8672   -5.4496    0.0000 C   0  0  0  0  0  0  0  0  0  0  0  0
    2.9733   -8.7181    0.0000 C   0  0  1  0  0  0  0  0  0  0  0  0
    2.8961   -7.8967    0.0000 N   0  0  0  0  0  0  0  0  0  0  0  0
    2.0910   -7.7164    0.0000 C   0  0  0  0  0  0  0  0  0  0  0  0
    1.6707   -8.4263    0.0000 C   0  0  0  0  0  0  0  0  0  0  0  0
    2.2160   -9.0454    0.0000 C   0  0  0  0  0  0  0  0  0  0  0  0
    1.7637   -6.9591    0.0000 O   0  0  0  0  0  0  0  0  0  0  0  0
    5.1573   -5.0293    0.0000 N   0  0  0  0  0  0  0  0  0  0  0  0
    7.9698   -9.1853    0.0000 C   0  0  0  0  0  0  0  0  0  0  0  0
    8.6888   -8.7806    0.0000 N   0  0  0  0  0  0  0  0  0  0  0  0
    7.9608  -10.0103    0.0000 O   0  0  0  0  0  0  0  0  0  0  0  0
    9.3987   -9.2009    0.0000 C   0  0  1  0  0  0  0  0  0  0  0  0
   10.1176   -8.7963    0.0000 C   0  0  0  0  0  0  0  0  0  0  0  0
    9.3896  -10.0259    0.0000 C   0  0  0  0  0  0  0  0  0  0  0  0
   10.2039   -7.9758    0.0000 C   0  0  0  0  0  0  0  0  0  0  0  0
   10.9576   -7.6403    0.0000 C   0  0  0  0  0  0  0  0  0  0  0  0
    9.5365   -7.4909    0.0000 C   0  0  0  0  0  0  0  0  0  0  0  0
    8.6707  -10.4306    0.0000 O   0  0  0  0  0  0  0  0  0  0  0  0
   10.0996  -10.4462    0.0000 N   0  0  0  0  0  0  0  0  0  0  0  0
   10.0997  -11.2712    0.0000 C   0  0  0  0  0  0  0  0  0  0  0  0
   10.8143  -11.6835    0.0000 C   0  0  0  0  0  0  0  0  0  0  0  0
   10.8145  -12.5085    0.0000 N   0  0  0  0  0  0  0  0  0  0  0  0
   11.5287  -11.2709    0.0000 O   0  0  0  0  0  0  0  0  0  0  0  0
   11.5290  -12.9209    0.0000 C   0  0  1  0  0  0  0  0  0  0  0  0
   11.5292  -13.7459    0.0000 C   0  0  0  0  0  0  0  0  0  0  0  0
   12.2434  -12.5082    0.0000 C   0  0  0  0  0  0  0  0  0  0  0  0
   10.8148  -14.1585    0.0000 C   0  0  0  0  0  0  0  0  0  0  0  0
   10.8150  -14.9835    0.0000 N   0  0  0  0  0  0  0  0  0  0  0  0
   10.1003  -13.7462    0.0000 O   0  0  0  0  0  0  0  0  0  0  0  0
   12.9580  -12.9206    0.0000 N   0  0  0  0  0  0  0  0  0  0  0  0
   12.2432  -11.6832    0.0000 O   0  0  0  0  0  0  0  0  0  0  0  0
   13.6724  -12.5079    0.0000 C   0  0  2  0  0  0  0  0  0  0  0  0
   14.3869  -12.9203    0.0000 C   0  0  0  0  0  0  0  0  0  0  0  0
   13.6722  -11.6829    0.0000 C   0  0  0  0  0  0  0  0  0  0  0  0
   12.9576  -11.2706    0.0000 C   0  0  0  0  0  0  0  0  0  0  0  0
   12.9574  -10.4456    0.0000 C   0  0  0  0  0  0  0  0  0  0  0  0
   12.2429  -10.0332    0.0000 N   0  0  0  0  0  0  0  0  0  0  0  0
   13.6718  -10.0329    0.0000 O   0  0  0  0  0  0  0  0  0  0  0  0
   14.3871  -13.7453    0.0000 O   0  0  0  0  0  0  0  0  0  0  0  0
    5.0850  -11.6289    0.0000 O   0  0  0  0  0  0  0  0  0  0  0  0
   17.9907  -11.6546    0.0000 C   0  0  0  0  0  0  0  0  0  0  0  0
   17.2684  -11.2560    0.0000 C   0  0  1  0  0  0  0  0  0  0  0  0
   17.9588  -10.0049    0.0000 N   0  0  0  0  0  0  0  0  0  0  0  0
   17.2525  -10.4312    0.0000 C   0  0  0  0  0  0  0  0  0  0  0  0
   19.3715   -9.1524    0.0000 O   0  0  0  0  0  0  0  0  0  0  0  0
   18.6492   -8.7538    0.0000 C   0  0  0  0  0  0  0  0  0  0  0  0
   17.9429   -9.1801    0.0000 C   0  0  2  0  0  0  0  0  0  0  0  0
   19.3396   -7.5027    0.0000 C   0  0  0  0  0  0  0  0  0  0  0  0
   18.6333   -7.9290    0.0000 N   0  0  0  0  0  0  0  0  0  0  0  0
   20.0300   -6.2517    0.0000 N   0  0  0  0  0  0  0  0  0  0  0  0
   19.3237   -6.6779    0.0000 C   0  0  0  0  0  0  0  0  0  0  0  0
   21.4428   -5.3992    0.0000 N   0  0  0  0  0  0  0  0  0  0  0  0
   20.7204   -5.0006    0.0000 C   0  0  0  0  0  0  0  0  0  0  0  0
   20.0141   -5.4268    0.0000 C   0  0  2  0  0  0  0  0  0  0  0  0
   22.1491   -4.9729    0.0000 C   0  0  1  0  0  0  0  0  0  0  0  0
   22.1332   -4.1481    0.0000 C   0  0  0  0  0  0  0  0  0  0  0  0
   20.7045   -4.1757    0.0000 O   0  0  0  0  0  0  0  0  0  0  0  0
   22.8395   -3.7218    0.0000 C   0  0  0  0  0  0  0  0  0  0  0  0
   22.8236   -2.8970    0.0000 C   0  0  0  0  0  0  0  0  0  0  0  0
   16.5302  -10.0326    0.0000 O   0  0  0  0  0  0  0  0  0  0  0  0
   17.2206   -8.7815    0.0000 C   0  0  0  0  0  0  0  0  0  0  0  0
   16.5142   -9.2077    0.0000 C   0  0  0  0  0  0  0  0  0  0  0  0
   17.2046   -7.9566    0.0000 C   0  0  0  0  0  0  0  0  0  0  0  0
   18.6014   -6.2793    0.0000 O   0  0  0  0  0  0  0  0  0  0  0  0
   19.2918   -5.0282    0.0000 C   0  0  0  0  0  0  0  0  0  0  0  0
   19.3241   -4.2038    0.0000 C   0  0  0  0  0  0  0  0  0  0  0  0
   20.0100   -3.7454    0.0000 N   0  0  0  0  0  0  0  0  0  0  0  0
   19.7860   -2.9514    0.0000 C   0  0  0  0  0  0  0  0  0  0  0  0
   18.9616   -2.9191    0.0000 N   0  0  0  0  0  0  0  0  0  0  0  0
   18.6762   -3.6931    0.0000 C   0  0  0  0  0  0  0  0  0  0  0  0
   23.5618   -4.1204    0.0000 C   0  0  0  0  0  0  0  0  0  0  0  0
   22.8714   -5.3715    0.0000 C   0  0  0  0  0  0  0  0  0  0  0  0
   23.5778   -4.9453    0.0000 O   0  0  0  0  0  0  0  0  0  0  0  0
   22.8874   -6.1964    0.0000 N   0  0  0  0  0  0  0  0  0  0  0  0
   23.6097   -6.5950    0.0000 C   0  0  2  0  0  0  0  0  0  0  0  0
   23.6257   -7.4198    0.0000 C   0  0  0  0  0  0  0  0  0  0  0  0
   24.3161   -6.1687    0.0000 C   0  0  0  0  0  0  0  0  0  0  0  0
   24.3480   -7.8184    0.0000 N   0  0  0  0  0  0  0  0  0  0  0  0
   22.9193   -7.8461    0.0000 O   0  0  0  0  0  0  0  0  0  0  0  0
   25.0384   -6.5673    0.0000 C   0  0  0  0  0  0  0  0  0  0  0  0
   25.7447   -6.1411    0.0000 S   0  0  0  0  0  0  0  0  0  0  0  0
   26.4670   -6.5397    0.0000 C   0  0  0  0  0  0  0  0  0  0  0  0
   15.1013  -12.5076    0.0000 N   0  0  0  0  0  0  0  0  0  0  0  0
   15.8159  -12.9199    0.0000 C   0  0  2  0  0  0  0  0  0  0  0  0
   16.5302  -12.5073    0.0000 C   0  0  0  0  0  0  0  0  0  0  0  0
   15.8160  -13.7449    0.0000 C   0  0  0  0  0  0  0  0  0  0  0  0
   16.5306  -14.1573    0.0000 C   0  0  0  0  0  0  0  0  0  0  0  0
   16.6170  -14.9778    0.0000 C   0  0  0  0  0  0  0  0  0  0  0  0
   17.4240  -15.1491    0.0000 C   0  0  0  0  0  0  0  0  0  0  0  0
   17.8364  -14.4345    0.0000 N   0  0  0  0  0  0  0  0  0  0  0  0
   17.2842  -13.8216    0.0000 C   0  0  0  0  0  0  0  0  0  0  0  0
   16.0651  -15.5910    0.0000 C   0  0  0  0  0  0  0  0  0  0  0  0
   16.3202  -16.3755    0.0000 C   0  0  0  0  0  0  0  0  0  0  0  0
   17.1272  -16.5469    0.0000 C   0  0  0  0  0  0  0  0  0  0  0  0
   17.6791  -15.9337    0.0000 C   0  0  0  0  0  0  0  0  0  0  0  0
   17.2448  -12.9196    0.0000 O   0  0  0  0  0  0  0  0  0  0  0  0
   16.5301  -11.6823    0.0000 N   0  0  0  0  0  0  0  0  0  0  0  0
  1  2  1  0  0  0  0
  2  3  1  0  0  0  0
  3  5  1  0  0  0  0
  5  6  1  0  0  0  0
  6  7  1  6  0  0  0
  7  8  1  0  0  0  0
  8  4  2  0  0  0  0
  6  9  1  0  0  0  0
  9 10  2  0  0  0  0
  9 11  1  0  0  0  0
 12 11  1  1  0  0  0
 12 13  1  0  0  0  0
 13 14  1  0  0  0  0
 14 15  1  0  0  0  0
 15 16  1  0  0  0  0
 17 18  2  0  0  0  0
 18 16  1  0  0  0  0
 19  8  1  6  0  0  0
 19 20  1  0  0  0  0
 20 21  1  0  0  0  0
 21 22  1  0  0  0  0
 22 23  1  0  0  0  0
 23 19  1  0  0  0  0
 21 24  2  0  0  0  0
 18 25  1  0  0  0  0
 12 26  1  0  0  0  0
 26 27  1  0  0  0  0
 26 28  2  0  0  0  0
 29 27  1  1  0  0  0
 29 30  1  0  0  0  0
 29 31  1  0  0  0  0
 30 32  1  0  0  0  0
 32 33  1  0  0  0  0
 32 34  1  0  0  0  0
 31 35  2  0  0  0  0
 31 36  1  0  0  0  0
 36 37  1  0  0  0  0
 37 38  1  0  0  0  0
 38 39  1  0  0  0  0
 38 40  2  0  0  0  0
 41 39  1  6  0  0  0
 41 42  1  0  0  0  0
 41 43  1  0  0  0  0
 42 44  1  0  0  0  0
 44 45  1  0  0  0  0
 44 46  2  0  0  0  0
 43 47  1  0  0  0  0
 43 48  2  0  0  0  0
 49 47  1  1  0  0  0
 49 50  1  0  0  0  0
 49 51  1  0  0  0  0
 51 52  1  0  0  0  0
 52 53  1  0  0  0  0
 53 54  1  0  0  0  0
 53 55  2  0  0  0  0
 50 56  2  0  0  0  0
  2 57  2  0  0  0  0
 58 59  1  0  0  0  0
 60 61  1  0  0  0  0
 61 59  1  0  0  0  0
 62 63  2  0  0  0  0
 63 64  1  0  0  0  0
 64 60  1  1  0  0  0
 65 66  1  0  0  0  0
 66 63  1  0  0  0  0
 67 68  1  0  0  0  0
 68 65  1  0  0  0  0
 69 70  1  0  0  0  0
 70 71  1  0  0  0  0
 71 67  1  1  0  0  0
 72 69  1  1  0  0  0
 72 73  1  0  0  0  0
 74 70  2  0  0  0  0
 73 75  1  0  0  0  0
 75 76  1  0  0  0  0
 61 77  2  0  0  0  0
 64 78  1  0  0  0  0
 78 79  1  0  0  0  0
 78 80  1  0  0  0  0
 68 81  2  0  0  0  0
 71 82  1  0  0  0  0
 82 83  1  0  0  0  0
 83 84  1  0  0  0  0
 84 85  2  0  0  0  0
 85 86  1  0  0  0  0
 86 87  1  0  0  0  0
 87 83  2  0  0  0  0
 75 88  1  0  0  0  0
 72 89  1  0  0  0  0
 89 90  2  0  0  0  0
 89 91  1  0  0  0  0
 92 91  1  1  0  0  0
 92 93  1  0  0  0  0
 92 94  1  0  0  0  0
 93 95  1  0  0  0  0
 93 96  2  0  0  0  0
 94 97  1  0  0  0  0
 97 98  1  0  0  0  0
 98 99  1  0  0  0  0
 50100  1  0  0  0  0
101100  1  6  0  0  0
101102  1  0  0  0  0
101103  1  0  0  0  0
103104  1  0  0  0  0
104105  1  0  0  0  0
105106  2  0  0  0  0
106107  1  0  0  0  0
107108  1  0  0  0  0
108104  2  0  0  0  0
105109  1  0  0  0  0
109110  2  0  0  0  0
110111  1  0  0  0  0
111112  2  0  0  0  0
112106  1  0  0  0  0
102113  2  0  0  0  0
102114  1  0  0  0  0
 59114  1  6  0  0  0
M  END
>  <cdx:fragmentId>
410

$$$$
