3328.cdx
  Mrv1902 05222410272D          

 16 15  0  0  0  0            999 V2000
   10.6063   -5.6870    0.0000 C   0  0  0  0  0  0  0  0  0  0  0  0
    9.8918   -6.0995    0.0000 C   0  0  0  0  0  0  0  0  0  0  0  0
    9.1773   -5.6870    0.0000 C   0  0  0  0  0  0  0  0  0  0  0  0
    9.1773   -4.8620    0.0000 C   0  0  0  0  0  0  0  0  0  0  0  0
    8.4628   -6.0995    0.0000 C   0  0  0  0  0  0  0  0  0  0  0  0
    7.7484   -5.6870    0.0000 C   0  0  0  0  0  0  0  0  0  0  0  0
    7.0339   -6.0995    0.0000 C   0  0  0  0  0  0  0  0  0  0  0  0
    6.3194   -5.6870    0.0000 C   0  0  0  0  0  0  0  0  0  0  0  0
    6.3194   -4.8620    0.0000 C   0  0  0  0  0  0  0  0  0  0  0  0
    5.6050   -6.0995    0.0000 C   0  0  0  0  0  0  0  0  0  0  0  0
    4.8905   -5.6870    0.0000 C   0  0  0  0  0  0  0  0  0  0  0  0
    4.1760   -6.0995    0.0000 C   0  0  0  0  0  0  0  0  0  0  0  0
    3.4615   -5.6870    0.0000 C   0  0  0  0  0  0  0  0  0  0  0  0
    3.4615   -4.8620    0.0000 C   0  0  0  0  0  0  0  0  0  0  0  0
    2.7471   -6.0995    0.0000 C   0  0  0  0  0  0  0  0  0  0  0  0
   11.3207   -6.0995    0.0000 O   0  0  0  0  0  0  0  0  0  0  0  0
  1  2  1  0  0  0  0
  2  3  2  0  0  0  0
  3  4  1  0  0  0  0
  3  5  1  0  0  0  0
  5  6  1  0  0  0  0
  6  7  1  0  0  0  0
  7  8  2  0  0  0  0
  8  9  1  0  0  0  0
  8 10  1  0  0  0  0
 10 11  1  0  0  0  0
 11 12  1  0  0  0  0
 12 13  2  0  0  0  0
 13 14  1  0  0  0  0
 13 15  1  0  0  0  0
  1 16  1  0  0  0  0
M  END
>  <cdx:fragmentId>
5

$$$$
