33285.cdx
  Mrv1902 05222410232D          

 18 17  0  0  0  0            999 V2000
   10.6245   -6.3542    0.0000 O   0  0  0  0  0  0  0  0  0  0  0  0
    8.4811   -5.1167    0.0000 N   0  0  0  0  0  0  0  0  0  0  0  0
    7.7666   -5.5292    0.0000 C   0  0  0  0  0  0  0  0  0  0  0  0
    7.0521   -5.1167    0.0000 C   0  0  0  0  0  0  0  0  0  0  0  0
    6.3377   -5.5292    0.0000 C   0  0  0  0  0  0  0  0  0  0  0  0
    5.6232   -5.1167    0.0000 C   0  0  1  0  0  0  0  0  0  0  0  0
    4.9087   -5.5292    0.0000 C   0  0  0  0  0  0  0  0  0  0  0  0
    4.9087   -6.3542    0.0000 O   0  0  0  0  0  0  0  0  0  0  0  0
    4.1943   -5.1167    0.0000 O   0  0  0  0  0  0  0  0  0  0  0  0
    5.6232   -4.2917    0.0000 N   0  0  0  0  0  0  0  0  0  0  0  0
    7.7666   -6.3542    0.0000 O   0  0  0  0  0  0  0  0  0  0  0  0
    9.1956   -5.5292    0.0000 C   0  0  2  0  0  0  0  0  0  0  0  0
    9.9100   -5.1167    0.0000 C   0  0  0  0  0  0  0  0  0  0  0  0
   10.6245   -5.5292    0.0000 O   0  0  0  0  0  0  0  0  0  0  0  0
    9.9100   -4.2917    0.0000 O   0  0  0  0  0  0  0  0  0  0  0  0
    9.1956   -6.3542    0.0000 C   0  0  0  0  0  0  0  0  0  0  0  0
    9.9100   -6.7667    0.0000 S   0  0  0  0  0  0  0  0  0  0  0  0
    9.9100   -7.5917    0.0000 C   0  0  0  0  0  0  0  0  0  0  0  0
 17  1  2  0  0  0  0
  2  3  1  0  0  0  0
  3  4  1  0  0  0  0
  4  5  1  0  0  0  0
  5  6  1  0  0  0  0
  6  7  1  0  0  0  0
  7  8  2  0  0  0  0
  7  9  1  0  0  0  0
  6 10  1  1  0  0  0
  3 11  2  0  0  0  0
 12  2  1  6  0  0  0
 12 13  1  0  0  0  0
 13 14  1  0  0  0  0
 13 15  2  0  0  0  0
 12 16  1  0  0  0  0
 16 17  1  0  0  0  0
 17 18  1  0  0  0  0
M  END
>  <cdx:fragmentId>
3

$$$$
