3336.cdx
  Mrv1902 05222410202D          

 16 16  0  0  0  0            999 V2000
    6.5828   -8.3550    0.0000 C   0  0  1  0  0  0  0  0  0  0  0  0
    7.3021   -8.7591    0.0000 C   0  0  1  0  0  0  0  0  0  0  0  0
    8.0116   -8.3382    0.0000 C   0  0  2  0  0  0  0  0  0  0  0  0
    8.0019   -7.5132    0.0000 C   0  0  0  0  0  0  0  0  0  0  0  0
    7.2826   -7.1092    0.0000 O   0  0  0  0  0  0  0  0  0  0  0  0
    6.5730   -7.5301    0.0000 C   0  0  2  0  0  0  0  0  0  0  0  0
    7.3118   -9.5840    0.0000 O   0  0  0  0  0  0  0  0  0  0  0  0
    5.8732   -8.7760    0.0000 O   0  0  0  0  0  0  0  0  0  0  0  0
    8.7309   -8.7422    0.0000 O   0  0  0  0  0  0  0  0  0  0  0  0
    8.7114   -7.0923    0.0000 O   0  0  0  0  0  0  0  0  0  0  0  0
    8.7407   -9.5671    0.0000 C   0  0  0  0  0  0  0  0  0  0  0  0
    6.6023  -10.0049    0.0000 C   0  0  0  0  0  0  0  0  0  0  0  0
    5.1540   -8.3719    0.0000 C   0  0  0  0  0  0  0  0  0  0  0  0
    4.4249   -7.1430    0.0000 C   0  0  0  0  0  0  0  0  0  0  0  0
    5.1442   -7.5470    0.0000 O   0  0  0  0  0  0  0  0  0  0  0  0
    5.8538   -7.1261    0.0000 C   0  0  0  0  0  0  0  0  0  0  0  0
  1  2  1  0  0  0  0
  2  3  1  0  0  0  0
  3  4  1  0  0  0  0
  4  5  1  0  0  0  0
  5  6  1  0  0  0  0
  6  1  1  0  0  0  0
 15 14  1  0  0  0  0
  6 16  1  1  0  0  0
  2  7  1  1  0  0  0
  1  8  1  6  0  0  0
  3  9  1  6  0  0  0
  4 10  1  0  0  0  0
  9 11  1  0  0  0  0
  7 12  1  0  0  0  0
  8 13  1  0  0  0  0
 16 15  1  0  0  0  0
M  END
>  <cdx:fragmentId>
5

$$$$
