3338.cdx
  Mrv1902 05222410272D          

 12 12  0  0  0  0            999 V2000
    5.9269   -6.1267    0.0000 C   0  0  0  0  0  0  0  0  0  0  0  0
    5.2124   -5.7142    0.0000 C   0  0  0  0  0  0  0  0  0  0  0  0
    5.2124   -4.8892    0.0000 C   0  0  0  0  0  0  0  0  0  0  0  0
    5.9269   -4.4767    0.0000 C   0  0  0  0  0  0  0  0  0  0  0  0
    6.6414   -4.8892    0.0000 C   0  0  0  0  0  0  0  0  0  0  0  0
    6.6414   -5.7142    0.0000 C   0  0  0  0  0  0  0  0  0  0  0  0
    7.3558   -6.9517    0.0000 O   0  0  0  0  0  0  0  0  0  0  0  0
   10.2137   -6.1267    0.0000 C   0  0  0  0  0  0  0  0  0  0  0  0
    9.4992   -5.7142    0.0000 C   0  0  0  0  0  0  0  0  0  0  0  0
    8.7848   -6.1267    0.0000 C   0  0  0  0  0  0  0  0  0  0  0  0
    8.0703   -5.7142    0.0000 C   0  0  0  0  0  0  0  0  0  0  0  0
    7.3558   -6.1267    0.0000 C   0  0  0  0  0  0  0  0  0  0  0  0
 12  6  1  0  0  0  0
  6  1  2  0  0  0  0
  2  1  1  0  0  0  0
  3  2  2  0  0  0  0
  4  3  1  0  0  0  0
  5  4  2  0  0  0  0
  6  5  1  0  0  0  0
 12  7  1  0  0  0  0
  9  8  1  0  0  0  0
 10  9  1  0  0  0  0
 11 10  1  0  0  0  0
 12 11  1  0  0  0  0
M  END
>  <cdx:fragmentId>
17

$$$$
