333903.cdx
  Mrv1902 05222410202D          

 25 26  0  0  0  0            999 V2000
    9.6226  -10.0593    0.0000 C   0  0  0  0  0  0  0  0  0  0  0  0
    9.2204  -11.4305    0.0000 C   0  0  0  0  0  0  0  0  0  0  0  0
    9.0257  -10.6288    0.0000 C   0  0  0  0  0  0  0  0  0  0  0  0
    8.6362   -9.0254    0.0000 O   0  0  0  0  0  0  0  0  0  0  0  0
    5.5875   -9.5054    0.0000 O   0  0  0  0  0  0  0  0  0  0  0  0
    5.5875   -8.6804    0.0000 C   0  0  0  0  0  0  0  0  0  0  0  0
    8.2340  -10.3966    0.0000 C   0  0  0  0  0  0  0  0  0  0  0  0
    8.0393   -9.5949    0.0000 C   0  0  0  0  0  0  0  0  0  0  0  0
    7.2476   -9.3627    0.0000 O   0  0  0  0  0  0  0  0  0  0  0  0
    8.4096   -7.9948    0.0000 O   0  0  0  0  0  0  0  0  0  0  0  0
    9.2336   -4.1778    0.0000 C   0  0  0  0  0  0  0  0  0  0  0  0
    8.4086   -4.1778    0.0000 O   0  0  0  0  0  0  0  0  0  0  0  0
    6.9637   -5.8138    0.0000 C   0  0  0  0  0  0  0  0  0  0  0  0
    7.2773   -5.0508    0.0000 C   0  0  0  0  0  0  0  0  0  0  0  0
    8.0950   -4.9409    0.0000 C   0  0  0  0  0  0  0  0  0  0  0  0
    8.5990   -5.5940    0.0000 C   0  0  0  0  0  0  0  0  0  0  0  0
    8.2853   -6.3571    0.0000 C   0  0  0  0  0  0  0  0  0  0  0  0
    7.4677   -6.4670    0.0000 C   0  0  0  0  0  0  0  0  0  0  0  0
    5.5407   -7.2766    0.0000 C   0  0  0  0  0  0  0  0  0  0  0  0
    6.0748   -6.6478    0.0000 C   0  0  0  0  0  0  0  0  0  0  0  0
    7.1540   -7.2300    0.0000 C   0  0  2  0  0  0  0  0  0  0  0  0
    7.5870   -7.9323    0.0000 C   0  0  2  0  0  0  0  0  0  0  0  0
    7.0529   -8.5611    0.0000 C   0  0  1  0  0  0  0  0  0  0  0  0
    6.2898   -8.2474    0.0000 C   0  0  2  0  0  0  0  0  0  0  0  0
    6.3523   -7.4248    0.0000 N   0  3  1  0  0  0  0  0  0  0  0  0
  3  1  1  0  0  0  0
  3  2  1  0  0  0  0
  7  3  2  0  0  0  0
  8  4  2  0  0  0  0
  6  5  1  0  0  0  0
 24  6  1  1  0  0  0
  8  7  1  0  0  0  0
  9  8  1  0  0  0  0
 23  9  1  6  0  0  0
 22 10  1  1  0  0  0
 21 18  1  6  0  0  0
 15 12  1  0  0  0  0
 12 11  1  0  0  0  0
 18 13  2  0  0  0  0
 14 13  1  0  0  0  0
 15 14  2  0  0  0  0
 16 15  1  0  0  0  0
 17 16  2  0  0  0  0
 18 17  1  0  0  0  0
 25 19  1  1  0  0  0
 25 20  1  6  0  0  0
 25 21  1  0  0  0  0
 22 21  1  0  0  0  0
 23 22  1  0  0  0  0
 24 23  1  0  0  0  0
 25 24  1  0  0  0  0
M  CHG  1  25   1
M  END
>  <cdx:fragmentId>
36002

$$$$
