3345.cdx
  Mrv1902 05222410212D          

 40 43  0  0  0  0            999 V2000
    2.6828   -4.5024    0.0000 O   0  0  0  0  0  0  0  0  0  0  0  0
    6.3912   -5.2377    0.0000 C   0  0  0  0  0  0  0  0  0  0  0  0
    5.9827   -4.5209    0.0000 C   0  0  0  0  0  0  0  0  0  0  0  0
    3.9163   -5.2238    0.0000 C   0  0  0  0  0  0  0  0  0  0  0  0
    4.7413   -5.2284    0.0000 C   0  0  0  0  0  0  0  0  0  0  0  0
    5.1578   -4.5163    0.0000 C   0  0  0  0  0  0  0  0  0  0  0  0
    4.7493   -3.7995    0.0000 C   0  0  0  0  0  0  0  0  0  0  0  0
    7.2162   -5.2423    0.0000 C   0  0  0  0  0  0  0  0  0  0  0  0
    7.6247   -5.9591    0.0000 C   0  0  0  0  0  0  0  0  0  0  0  0
    8.4497   -5.9637    0.0000 C   0  0  0  0  0  0  0  0  0  0  0  0
    8.8662   -5.2515    0.0000 C   0  0  0  0  0  0  0  0  0  0  0  0
    8.4577   -4.5348    0.0000 C   0  0  0  0  0  0  0  0  0  0  0  0
    7.6327   -4.5301    0.0000 C   0  0  0  0  0  0  0  0  0  0  0  0
    3.9243   -3.7949    0.0000 C   0  0  0  0  0  0  0  0  0  0  0  0
    3.5078   -4.5070    0.0000 C   0  0  0  0  0  0  0  0  0  0  0  0
    7.2082   -6.6712    0.0000 O   0  0  0  0  0  0  0  0  0  0  0  0
    8.8582   -6.6805    0.0000 O   0  0  0  0  0  0  0  0  0  0  0  0
    8.8742   -3.8226    0.0000 O   0  0  0  0  0  0  0  0  0  0  0  0
   10.2970   -8.3412    0.0000 C   0  0  2  0  0  0  0  0  0  0  0  0
   11.0148   -7.9345    0.0000 C   0  0  2  0  0  0  0  0  0  0  0  0
   11.0215   -7.1095    0.0000 C   0  0  1  0  0  0  0  0  0  0  0  0
   10.3104   -6.6912    0.0000 C   0  0  2  0  0  0  0  0  0  0  0  0
    9.5926   -7.0979    0.0000 C   0  0  1  0  0  0  0  0  0  0  0  0
    9.5859   -7.9229    0.0000 O   0  0  0  0  0  0  0  0  0  0  0  0
   10.2904   -9.1661    0.0000 C   0  0  0  0  0  0  0  0  0  0  0  0
   11.7393   -6.7028    0.0000 O   0  0  0  0  0  0  0  0  0  0  0  0
   11.7259   -8.3527    0.0000 O   0  0  0  0  0  0  0  0  0  0  0  0
   10.3170   -5.8662    0.0000 O   0  0  0  0  0  0  0  0  0  0  0  0
   11.0015   -9.5844    0.0000 O   0  0  0  0  0  0  0  0  0  0  0  0
    5.0454   -7.0797    0.0000 C   0  0  2  0  0  0  0  0  0  0  0  0
    5.0392   -7.9047    0.0000 C   0  0  2  0  0  0  0  0  0  0  0  0
    5.7505   -8.3226    0.0000 C   0  0  1  0  0  0  0  0  0  0  0  0
    6.4681   -7.9155    0.0000 C   0  0  2  0  0  0  0  0  0  0  0  0
    6.4743   -7.0905    0.0000 C   0  0  1  0  0  0  0  0  0  0  0  0
    5.7630   -6.6727    0.0000 O   0  0  0  0  0  0  0  0  0  0  0  0
    4.3341   -6.6619    0.0000 C   0  0  0  0  0  0  0  0  0  0  0  0
    5.7443   -9.1476    0.0000 O   0  0  0  0  0  0  0  0  0  0  0  0
    4.3216   -8.3118    0.0000 O   0  0  0  0  0  0  0  0  0  0  0  0
    7.1794   -8.3334    0.0000 O   0  0  0  0  0  0  0  0  0  0  0  0
    3.6165   -7.0689    0.0000 O   0  0  0  0  0  0  0  0  0  0  0  0
 15  1  1  0  0  0  0
  3  2  2  0  0  0  0
  6  3  1  0  0  0  0
  4 15  1  0  0  0  0
  5  4  2  0  0  0  0
  6  5  1  0  0  0  0
  7  6  2  0  0  0  0
 14  7  1  0  0  0  0
 15 14  2  0  0  0  0
  2  8  1  0  0  0  0
  8  9  2  0  0  0  0
  9 10  1  0  0  0  0
 10 11  2  0  0  0  0
 11 12  1  0  0  0  0
 12 13  2  0  0  0  0
 13  8  1  0  0  0  0
  9 16  1  0  0  0  0
 10 17  1  0  0  0  0
 12 18  1  0  0  0  0
 19 20  1  0  0  0  0
 20 21  1  0  0  0  0
 21 22  1  0  0  0  0
 22 23  1  0  0  0  0
 23 24  1  0  0  0  0
 24 19  1  0  0  0  0
 19 25  1  1  0  0  0
 21 26  1  1  0  0  0
 20 27  1  6  0  0  0
 22 28  1  6  0  0  0
 25 29  1  0  0  0  0
 23 17  1  1  0  0  0
 30 31  1  0  0  0  0
 31 32  1  0  0  0  0
 32 33  1  0  0  0  0
 33 34  1  0  0  0  0
 34 35  1  0  0  0  0
 35 30  1  0  0  0  0
 30 36  1  1  0  0  0
 32 37  1  1  0  0  0
 31 38  1  6  0  0  0
 33 39  1  6  0  0  0
 36 40  1  0  0  0  0
 34 16  1  1  0  0  0
M  END
>  <cdx:fragmentId>
5

$$$$
