335.cdx
  Mrv1902 05222410282D          

  8  8  0  0  0  0            999 V2000
    4.8889   -1.9316    0.0000 C   0  0  0  0  0  0  0  0  0  0  0  0
    4.8889   -2.7566    0.0000 C   0  0  0  0  0  0  0  0  0  0  0  0
    4.1745   -3.1691    0.0000 C   0  0  0  0  0  0  0  0  0  0  0  0
    3.4600   -2.7566    0.0000 C   0  0  0  0  0  0  0  0  0  0  0  0
    3.4600   -1.9316    0.0000 C   0  0  0  0  0  0  0  0  0  0  0  0
    4.1745   -1.5191    0.0000 C   0  0  0  0  0  0  0  0  0  0  0  0
    5.6034   -1.5191    0.0000 O   0  0  0  0  0  0  0  0  0  0  0  0
    5.6034   -3.1691    0.0000 C   0  0  0  0  0  0  0  0  0  0  0  0
  1  2  1  0  0  0  0
  2  3  2  0  0  0  0
  3  4  1  0  0  0  0
  4  5  2  0  0  0  0
  5  6  1  0  0  0  0
  1  6  2  0  0  0  0
  1  7  1  0  0  0  0
  2  8  1  0  0  0  0
M  END
>  <cdx:groupId>
26

>  <cdx:fragmentId>
5

$$$$
