33513.cdx
  Mrv1902 05222410222D          

 40 43  0  0  0  0            999 V2000
    7.0505   -6.7684    0.0000 C   0  0  0  0  0  0  0  0  0  0  0  0
    7.0632   -7.5933    0.0000 C   0  0  0  0  0  0  0  0  0  0  0  0
    7.7840   -7.9948    0.0000 C   0  0  0  0  0  0  0  0  0  0  0  0
    8.4920   -7.5713    0.0000 C   0  0  0  0  0  0  0  0  0  0  0  0
    8.4793   -6.7464    0.0000 C   0  0  0  0  0  0  0  0  0  0  0  0
    7.7586   -6.3450    0.0000 C   0  0  0  0  0  0  0  0  0  0  0  0
    7.7967   -8.8197    0.0000 O   0  0  0  0  0  0  0  0  0  0  0  0
    9.2127   -7.9728    0.0000 O   0  0  0  0  0  0  0  0  0  0  0  0
    9.9208   -7.5494    0.0000 C   0  0  0  0  0  0  0  0  0  0  0  0
    7.7459   -5.5201    0.0000 C   0  0  0  0  0  0  0  0  0  0  0  0
    8.4539   -5.0966    0.0000 C   0  0  2  0  0  0  0  0  0  0  0  0
    8.4412   -4.2717    0.0000 C   0  0  2  0  0  0  0  0  0  0  0  0
    9.2424   -5.3395    0.0000 C   0  0  2  0  0  0  0  0  0  0  0  0
    9.7170   -4.6647    0.0000 O   0  0  0  0  0  0  0  0  0  0  0  0
    9.2218   -4.0048    0.0000 C   0  0  0  0  0  0  0  0  0  0  0  0
    8.5528   -5.9157    0.0000 H   0  0  0  0  0  0  0  0  0  0  0  0
    7.7664   -3.7971    0.0000 C   0  0  0  0  0  0  0  0  0  0  0  0
    7.0180   -4.1443    0.0000 C   0  0  0  0  0  0  0  0  0  0  0  0
    6.3432   -3.6697    0.0000 C   0  0  0  0  0  0  0  0  0  0  0  0
    5.5947   -4.0168    0.0000 C   0  0  0  0  0  0  0  0  0  0  0  0
    5.5211   -4.8385    0.0000 C   0  0  0  0  0  0  0  0  0  0  0  0
    6.1960   -5.3131    0.0000 C   0  0  0  0  0  0  0  0  0  0  0  0
    6.9444   -4.9660    0.0000 C   0  0  0  0  0  0  0  0  0  0  0  0
    4.7727   -5.1856    0.0000 O   0  0  0  0  0  0  0  0  0  0  0  0
    6.1224   -6.1348    0.0000 O   0  0  0  0  0  0  0  0  0  0  0  0
    6.7972   -6.6094    0.0000 C   0  0  0  0  0  0  0  0  0  0  0  0
    8.4285   -3.4468    0.0000 H   0  0  0  0  0  0  0  0  0  0  0  0
    9.5094   -6.1201    0.0000 O   0  0  0  0  0  0  0  0  0  0  0  0
   10.3062   -6.3336    0.0000 C   0  0  0  0  0  0  0  0  0  0  0  0
    7.0886   -9.2431    0.0000 C   0  0  2  0  0  0  0  0  0  0  0  0
    6.3618   -8.8528    0.0000 O   0  0  0  0  0  0  0  0  0  0  0  0
    5.6604   -9.2871    0.0000 C   0  0  1  0  0  0  0  0  0  0  0  0
    5.6604  -10.1117    0.0000 C   0  0  2  0  0  0  0  0  0  0  0  0
    6.3618  -10.5020    0.0000 C   0  0  1  0  0  0  0  0  0  0  0  0
    7.0886  -10.0677    0.0000 C   0  0  1  0  0  0  0  0  0  0  0  0
    4.9396   -8.8857    0.0000 C   0  0  0  0  0  0  0  0  0  0  0  0
    6.3745  -11.3269    0.0000 O   0  0  0  0  0  0  0  0  0  0  0  0
    7.8062  -10.4749    0.0000 O   0  0  0  0  0  0  0  0  0  0  0  0
    4.9492  -10.5299    0.0000 O   0  0  0  0  0  0  0  0  0  0  0  0
    4.2316   -9.3091    0.0000 O   0  0  0  0  0  0  0  0  0  0  0  0
  1  2  2  0  0  0  0
  2  3  1  0  0  0  0
  3  4  2  0  0  0  0
  4  5  1  0  0  0  0
  5  6  2  0  0  0  0
  6  1  1  0  0  0  0
  3  7  1  0  0  0  0
  4  8  1  0  0  0  0
  8  9  1  0  0  0  0
  6 10  1  0  0  0  0
 10 11  1  0  0  0  0
 11 12  1  0  0  0  0
 11 13  1  0  0  0  0
 13 14  1  0  0  0  0
 14 15  1  0  0  0  0
 15 12  1  0  0  0  0
 11 16  1  1  0  0  0
 12 17  1  0  0  0  0
 17 18  1  0  0  0  0
 18 19  2  0  0  0  0
 19 20  1  0  0  0  0
 20 21  2  0  0  0  0
 21 22  1  0  0  0  0
 22 23  2  0  0  0  0
 23 18  1  0  0  0  0
 21 24  1  0  0  0  0
 22 25  1  0  0  0  0
 25 26  1  0  0  0  0
 12 27  1  6  0  0  0
 13 28  1  6  0  0  0
 28 29  1  0  0  0  0
 30  7  1  1  0  0  0
 30 31  1  0  0  0  0
 31 32  1  0  0  0  0
 32 33  1  0  0  0  0
 33 34  1  0  0  0  0
 34 35  1  0  0  0  0
 35 30  1  0  0  0  0
 32 36  1  1  0  0  0
 34 37  1  1  0  0  0
 35 38  1  6  0  0  0
 33 39  1  6  0  0  0
 36 40  1  0  0  0  0
M  END
>  <cdx:fragmentId>
5

$$$$
