33512.cdx
  Mrv1902 05222410222D          

 57 62  0  0  0  0            999 V2000
    7.6806   -6.4865    0.0000 C   0  0  0  0  0  0  0  0  0  0  0  0
    7.6769   -7.3115    0.0000 C   0  0  0  0  0  0  0  0  0  0  0  0
    8.3894   -7.7273    0.0000 C   0  0  0  0  0  0  0  0  0  0  0  0
    9.1058   -7.3181    0.0000 C   0  0  0  0  0  0  0  0  0  0  0  0
    9.1095   -6.4931    0.0000 C   0  0  0  0  0  0  0  0  0  0  0  0
    8.3970   -6.0773    0.0000 C   0  0  0  0  0  0  0  0  0  0  0  0
    8.3857   -8.5523    0.0000 O   0  0  0  0  0  0  0  0  0  0  0  0
    9.8184   -7.7338    0.0000 O   0  0  0  0  0  0  0  0  0  0  0  0
   10.5347   -7.3246    0.0000 C   0  0  0  0  0  0  0  0  0  0  0  0
    8.4007   -5.2523    0.0000 C   0  0  2  0  0  0  0  0  0  0  0  0
    9.1171   -4.8431    0.0000 C   0  0  2  0  0  0  0  0  0  0  0  0
    9.1208   -4.0181    0.0000 C   0  0  2  0  0  0  0  0  0  0  0  0
    9.9005   -5.1016    0.0000 C   0  0  0  0  0  0  0  0  0  0  0  0
   10.3885   -4.4364    0.0000 O   0  0  0  0  0  0  0  0  0  0  0  0
    9.9066   -3.7667    0.0000 C   0  0  0  0  0  0  0  0  0  0  0  0
    9.1996   -5.6639    0.0000 H   0  0  0  0  0  0  0  0  0  0  0  0
   10.1651   -2.9833    0.0000 O   0  0  0  0  0  0  0  0  0  0  0  0
    8.4045   -4.4273    0.0000 O   0  0  0  0  0  0  0  0  0  0  0  0
    6.9605   -7.7208    0.0000 C   0  0  0  0  0  0  0  0  0  0  0  0
    6.2479   -7.3050    0.0000 C   0  0  0  0  0  0  0  0  0  0  0  0
    5.5316   -7.7143    0.0000 C   0  0  0  0  0  0  0  0  0  0  0  0
    5.5278   -8.5393    0.0000 C   0  0  0  0  0  0  0  0  0  0  0  0
    6.2404   -8.9550    0.0000 C   0  0  0  0  0  0  0  0  0  0  0  0
    6.9568   -8.5458    0.0000 C   0  0  0  0  0  0  0  0  0  0  0  0
    6.2594   -6.4801    0.0000 O   0  0  0  0  0  0  0  0  0  0  0  0
    8.4556   -3.5301    0.0000 C   0  0  0  0  0  0  0  0  0  0  0  0
    7.7004   -3.8622    0.0000 C   0  0  0  0  0  0  0  0  0  0  0  0
    7.0352   -3.3743    0.0000 C   0  0  0  0  0  0  0  0  0  0  0  0
    6.2800   -3.7064    0.0000 C   0  0  0  0  0  0  0  0  0  0  0  0
    6.1900   -4.5265    0.0000 C   0  0  0  0  0  0  0  0  0  0  0  0
    6.8552   -5.0144    0.0000 C   0  0  0  0  0  0  0  0  0  0  0  0
    7.6104   -4.6823    0.0000 C   0  0  0  0  0  0  0  0  0  0  0  0
    5.4348   -4.8586    0.0000 O   0  0  0  0  0  0  0  0  0  0  0  0
    6.7653   -5.8345    0.0000 O   0  0  0  0  0  0  0  0  0  0  0  0
    7.4305   -6.3225    0.0000 C   0  0  0  0  0  0  0  0  0  0  0  0
    9.1246   -3.1931    0.0000 H   0  0  0  0  0  0  0  0  0  0  0  0
    4.8190   -7.2985    0.0000 O   0  0  0  0  0  0  0  0  0  0  0  0
    4.1045   -7.7110    0.0000 C   0  0  0  0  0  0  0  0  0  0  0  0
    6.2367   -9.7800    0.0000 C   0  0  0  0  0  0  0  0  0  0  0  0
    4.4980   -9.1327    0.0000 O   0  0  0  0  0  0  0  0  0  0  0  0
    5.5203  -10.1892    0.0000 C   0  0  1  0  0  0  0  0  0  0  0  0
    5.4294   -9.3693    0.0000 H   0  0  0  0  0  0  0  0  0  0  0  0
    4.7400   -9.9214    0.0000 C   0  0  0  0  0  0  0  0  0  0  0  0
    4.2442  -10.5808    0.0000 O   0  0  0  0  0  0  0  0  0  0  0  0
    4.7180  -11.2561    0.0000 C   0  0  0  0  0  0  0  0  0  0  0  0
    5.5068  -11.0141    0.0000 C   0  0  2  0  0  0  0  0  0  0  0  0
    6.1661  -11.5100    0.0000 C   0  0  0  0  0  0  0  0  0  0  0  0
    6.9252  -11.1868    0.0000 C   0  0  0  0  0  0  0  0  0  0  0  0
    7.5846  -11.6827    0.0000 C   0  0  0  0  0  0  0  0  0  0  0  0
    8.3437  -11.3595    0.0000 C   0  0  0  0  0  0  0  0  0  0  0  0
    8.4434  -10.5406    0.0000 C   0  0  0  0  0  0  0  0  0  0  0  0
    7.7840  -10.0448    0.0000 C   0  0  0  0  0  0  0  0  0  0  0  0
    7.0249  -10.3679    0.0000 C   0  0  0  0  0  0  0  0  0  0  0  0
    9.2025  -10.2175    0.0000 O   0  0  0  0  0  0  0  0  0  0  0  0
    7.8837   -9.2258    0.0000 O   0  0  0  0  0  0  0  0  0  0  0  0
    7.2243   -8.7300    0.0000 C   0  0  0  0  0  0  0  0  0  0  0  0
    5.4932  -11.8390    0.0000 H   0  0  0  0  0  0  0  0  0  0  0  0
  1  2  2  0  0  0  0
  2  3  1  0  0  0  0
  3  4  2  0  0  0  0
  4  5  1  0  0  0  0
  5  6  2  0  0  0  0
  6  1  1  0  0  0  0
  3  7  1  0  0  0  0
  4  8  1  0  0  0  0
  8  9  1  0  0  0  0
  6 10  1  0  0  0  0
 10 11  1  0  0  0  0
 11 12  1  0  0  0  0
 11 13  1  0  0  0  0
 13 14  1  0  0  0  0
 14 15  1  0  0  0  0
 15 12  1  0  0  0  0
 11 16  1  1  0  0  0
 15 17  2  0  0  0  0
 10 18  1  1  0  0  0
  2 19  1  0  0  0  0
 19 20  2  0  0  0  0
 20 21  1  0  0  0  0
 21 22  2  0  0  0  0
 22 23  1  0  0  0  0
 23 24  2  0  0  0  0
 24 19  1  0  0  0  0
 20 25  1  0  0  0  0
 12 26  1  0  0  0  0
 26 27  1  0  0  0  0
 27 28  2  0  0  0  0
 28 29  1  0  0  0  0
 29 30  2  0  0  0  0
 30 31  1  0  0  0  0
 31 32  2  0  0  0  0
 32 27  1  0  0  0  0
 30 33  1  0  0  0  0
 31 34  1  0  0  0  0
 34 35  1  0  0  0  0
 12 36  1  6  0  0  0
 21 37  1  0  0  0  0
 37 38  1  0  0  0  0
 23 39  1  0  0  0  0
 43 40  2  0  0  0  0
 39 41  1  0  0  0  0
 41 43  1  0  0  0  0
 43 44  1  0  0  0  0
 44 45  1  0  0  0  0
 45 46  1  0  0  0  0
 46 41  1  0  0  0  0
 46 47  1  0  0  0  0
 47 48  1  0  0  0  0
 48 49  2  0  0  0  0
 49 50  1  0  0  0  0
 50 51  2  0  0  0  0
 51 52  1  0  0  0  0
 52 53  2  0  0  0  0
 53 48  1  0  0  0  0
 51 54  1  0  0  0  0
 52 55  1  0  0  0  0
 55 56  1  0  0  0  0
 46 57  1  6  0  0  0
 41 42  1  1  0  0  0
M  END
>  <cdx:fragmentId>
5

$$$$
