33511.cdx
  Mrv1902 05222410232D          

 57 62  0  0  0  0            999 V2000
    7.0505   -6.7684    0.0000 C   0  0  0  0  0  0  0  0  0  0  0  0
    7.0632   -7.5933    0.0000 C   0  0  0  0  0  0  0  0  0  0  0  0
    7.7840   -7.9948    0.0000 C   0  0  0  0  0  0  0  0  0  0  0  0
    8.4920   -7.5713    0.0000 C   0  0  0  0  0  0  0  0  0  0  0  0
    8.4793   -6.7464    0.0000 C   0  0  0  0  0  0  0  0  0  0  0  0
    7.7586   -6.3450    0.0000 C   0  0  0  0  0  0  0  0  0  0  0  0
    7.7967   -8.8197    0.0000 O   0  0  0  0  0  0  0  0  0  0  0  0
    9.2127   -7.9728    0.0000 O   0  0  0  0  0  0  0  0  0  0  0  0
    9.9208   -7.5494    0.0000 C   0  0  0  0  0  0  0  0  0  0  0  0
    7.7459   -5.5201    0.0000 C   0  0  2  0  0  0  0  0  0  0  0  0
    8.4539   -5.0966    0.0000 C   0  0  2  0  0  0  0  0  0  0  0  0
    8.4412   -4.2717    0.0000 C   0  0  2  0  0  0  0  0  0  0  0  0
    9.2424   -5.3395    0.0000 C   0  0  0  0  0  0  0  0  0  0  0  0
    9.7170   -4.6647    0.0000 O   0  0  0  0  0  0  0  0  0  0  0  0
    9.2218   -4.0048    0.0000 C   0  0  0  0  0  0  0  0  0  0  0  0
    8.5528   -5.9157    0.0000 H   0  0  0  0  0  0  0  0  0  0  0  0
    9.4647   -3.2163    0.0000 O   0  0  0  0  0  0  0  0  0  0  0  0
    7.7332   -4.6952    0.0000 O   0  0  0  0  0  0  0  0  0  0  0  0
    6.3552   -8.0168    0.0000 C   0  0  0  0  0  0  0  0  0  0  0  0
    5.6345   -7.6153    0.0000 C   0  0  0  0  0  0  0  0  0  0  0  0
    4.9264   -8.0388    0.0000 C   0  0  0  0  0  0  0  0  0  0  0  0
    4.9391   -8.8637    0.0000 C   0  0  0  0  0  0  0  0  0  0  0  0
    5.6599   -9.2651    0.0000 C   0  0  0  0  0  0  0  0  0  0  0  0
    6.3679   -8.8417    0.0000 C   0  0  0  0  0  0  0  0  0  0  0  0
    5.6295   -6.7903    0.0000 O   0  0  0  0  0  0  0  0  0  0  0  0
    7.7664   -3.7971    0.0000 C   0  0  0  0  0  0  0  0  0  0  0  0
    7.0180   -4.1443    0.0000 C   0  0  0  0  0  0  0  0  0  0  0  0
    6.3432   -3.6697    0.0000 C   0  0  0  0  0  0  0  0  0  0  0  0
    5.5947   -4.0168    0.0000 C   0  0  0  0  0  0  0  0  0  0  0  0
    5.5211   -4.8385    0.0000 C   0  0  0  0  0  0  0  0  0  0  0  0
    6.1960   -5.3131    0.0000 C   0  0  0  0  0  0  0  0  0  0  0  0
    6.9444   -4.9660    0.0000 C   0  0  0  0  0  0  0  0  0  0  0  0
    4.7727   -5.1856    0.0000 O   0  0  0  0  0  0  0  0  0  0  0  0
    6.1224   -6.1348    0.0000 O   0  0  0  0  0  0  0  0  0  0  0  0
    6.7972   -6.6094    0.0000 C   0  0  0  0  0  0  0  0  0  0  0  0
    8.4285   -3.4468    0.0000 H   0  0  0  0  0  0  0  0  0  0  0  0
    4.2057   -7.6373    0.0000 O   0  0  0  0  0  0  0  0  0  0  0  0
    3.4976   -8.0608    0.0000 C   0  0  0  0  0  0  0  0  0  0  0  0
    5.6725  -10.0900    0.0000 C   0  0  0  0  0  0  0  0  0  0  0  0
    4.9645  -10.5135    0.0000 C   0  0  1  0  0  0  0  0  0  0  0  0
    4.1764  -10.2695    0.0000 C   0  0  0  0  0  0  0  0  0  0  0  0
    3.7009  -10.9437    0.0000 O   0  0  0  0  0  0  0  0  0  0  0  0
    4.1951  -11.6043    0.0000 C   0  0  0  0  0  0  0  0  0  0  0  0
    4.9760  -11.3384    0.0000 C   0  0  2  0  0  0  0  0  0  0  0  0
    3.9511  -12.3924    0.0000 O   0  0  0  0  0  0  0  0  0  0  0  0
    5.6502  -11.8139    0.0000 C   0  0  0  0  0  0  0  0  0  0  0  0
    6.3991  -11.4679    0.0000 C   0  0  0  0  0  0  0  0  0  0  0  0
    7.0733  -11.9434    0.0000 C   0  0  0  0  0  0  0  0  0  0  0  0
    7.8222  -11.5974    0.0000 C   0  0  0  0  0  0  0  0  0  0  0  0
    7.8969  -10.7758    0.0000 C   0  0  0  0  0  0  0  0  0  0  0  0
    7.2228  -10.3002    0.0000 C   0  0  0  0  0  0  0  0  0  0  0  0
    6.4739  -10.6463    0.0000 C   0  0  0  0  0  0  0  0  0  0  0  0
    8.6458  -10.4297    0.0000 O   0  0  0  0  0  0  0  0  0  0  0  0
    7.2975   -9.4786    0.0000 O   0  0  0  0  0  0  0  0  0  0  0  0
    6.6234   -9.0031    0.0000 C   0  0  0  0  0  0  0  0  0  0  0  0
    4.9876  -12.1633    0.0000 H   0  0  0  0  0  0  0  0  0  0  0  0
    4.9530   -9.6886    0.0000 H   0  0  0  0  0  0  0  0  0  0  0  0
  1  2  2  0  0  0  0
  2  3  1  0  0  0  0
  3  4  2  0  0  0  0
  4  5  1  0  0  0  0
  5  6  2  0  0  0  0
  6  1  1  0  0  0  0
  3  7  1  0  0  0  0
  4  8  1  0  0  0  0
  8  9  1  0  0  0  0
  6 10  1  0  0  0  0
 10 11  1  0  0  0  0
 11 12  1  0  0  0  0
 11 13  1  0  0  0  0
 13 14  1  0  0  0  0
 14 15  1  0  0  0  0
 15 12  1  0  0  0  0
 11 16  1  1  0  0  0
 15 17  2  0  0  0  0
 10 18  1  1  0  0  0
  2 19  1  0  0  0  0
 19 20  2  0  0  0  0
 20 21  1  0  0  0  0
 21 22  2  0  0  0  0
 22 23  1  0  0  0  0
 23 24  2  0  0  0  0
 24 19  1  0  0  0  0
 20 25  1  0  0  0  0
 12 26  1  0  0  0  0
 26 27  1  0  0  0  0
 27 28  2  0  0  0  0
 28 29  1  0  0  0  0
 29 30  2  0  0  0  0
 30 31  1  0  0  0  0
 31 32  2  0  0  0  0
 32 27  1  0  0  0  0
 30 33  1  0  0  0  0
 31 34  1  0  0  0  0
 34 35  1  0  0  0  0
 12 36  1  6  0  0  0
 21 37  1  0  0  0  0
 37 38  1  0  0  0  0
 23 39  1  0  0  0  0
 39 40  1  0  0  0  0
 40 41  1  0  0  0  0
 41 42  1  0  0  0  0
 42 43  1  0  0  0  0
 43 44  1  0  0  0  0
 44 40  1  0  0  0  0
 43 45  2  0  0  0  0
 44 46  1  0  0  0  0
 46 47  1  0  0  0  0
 47 48  2  0  0  0  0
 48 49  1  0  0  0  0
 49 50  2  0  0  0  0
 50 51  1  0  0  0  0
 51 52  2  0  0  0  0
 52 47  1  0  0  0  0
 50 53  1  0  0  0  0
 51 54  1  0  0  0  0
 54 55  1  0  0  0  0
 44 56  1  6  0  0  0
 40 57  1  1  0  0  0
M  END
>  <cdx:fragmentId>
5

$$$$
