33514.cdx
  Mrv1902 05222410212D          

 28 30  0  0  0  0            999 V2000
    3.7955   -5.8025    0.0000 C   0  0  0  0  0  0  0  0  0  0  0  0
    3.7955   -6.6275    0.0000 C   0  0  0  0  0  0  0  0  0  0  0  0
    4.5100   -7.0400    0.0000 C   0  0  0  0  0  0  0  0  0  0  0  0
    5.2245   -6.6275    0.0000 C   0  0  0  0  0  0  0  0  0  0  0  0
    5.2245   -5.8025    0.0000 C   0  0  0  0  0  0  0  0  0  0  0  0
    4.5100   -5.3900    0.0000 C   0  0  0  0  0  0  0  0  0  0  0  0
    3.0811   -5.3900    0.0000 O   0  0  0  0  0  0  0  0  0  0  0  0
    2.3666   -5.8025    0.0000 C   0  0  0  0  0  0  0  0  0  0  0  0
    3.0811   -7.0400    0.0000 O   0  0  0  0  0  0  0  0  0  0  0  0
    5.9389   -5.3900    0.0000 C   0  0  1  0  0  0  0  0  0  0  0  0
    6.6534   -5.8025    0.0000 C   0  0  1  0  0  0  0  0  0  0  0  0
    5.9389   -4.5650    0.0000 O   0  0  0  0  0  0  0  0  0  0  0  0
    6.6534   -4.1525    0.0000 C   0  0  0  0  0  0  0  0  0  0  0  0
    6.7396   -6.6230    0.0000 C   0  0  2  0  0  0  0  0  0  0  0  0
    7.5466   -6.7945    0.0000 C   0  0  2  0  0  0  0  0  0  0  0  0
    7.9591   -6.0800    0.0000 O   0  0  0  0  0  0  0  0  0  0  0  0
    7.4071   -5.4669    0.0000 C   0  0  0  0  0  0  0  0  0  0  0  0
    6.1266   -7.1750    0.0000 C   0  0  0  0  0  0  0  0  0  0  0  0
    7.8822   -7.5482    0.0000 C   0  0  0  0  0  0  0  0  0  0  0  0
    7.3973   -8.2156    0.0000 C   0  0  0  0  0  0  0  0  0  0  0  0
    7.7328   -8.9693    0.0000 C   0  0  0  0  0  0  0  0  0  0  0  0
    8.5533   -9.0555    0.0000 C   0  0  0  0  0  0  0  0  0  0  0  0
    9.0382   -8.3881    0.0000 C   0  0  0  0  0  0  0  0  0  0  0  0
    8.7027   -7.6344    0.0000 C   0  0  0  0  0  0  0  0  0  0  0  0
    8.8889   -9.8092    0.0000 O   0  0  0  0  0  0  0  0  0  0  0  0
    9.8587   -8.4743    0.0000 O   0  0  0  0  0  0  0  0  0  0  0  0
   10.0722   -9.2712    0.0000 C   0  0  0  0  0  0  0  0  0  0  0  0
    6.3401   -7.9719    0.0000 O   0  0  0  0  0  0  0  0  0  0  0  0
  1  2  2  0  0  0  0
  2  3  1  0  0  0  0
  3  4  2  0  0  0  0
  4  5  1  0  0  0  0
  5  6  2  0  0  0  0
  6  1  1  0  0  0  0
  1  7  1  0  0  0  0
  7  8  1  0  0  0  0
  2  9  1  0  0  0  0
  5 10  1  0  0  0  0
 10 11  1  0  0  0  0
 10 12  1  6  0  0  0
 12 13  1  0  0  0  0
 11 14  1  0  0  0  0
 14 15  1  0  0  0  0
 15 16  1  0  0  0  0
 16 17  1  0  0  0  0
 11 17  1  6  0  0  0
 14 18  1  6  0  0  0
 15 19  1  6  0  0  0
 19 20  2  0  0  0  0
 20 21  1  0  0  0  0
 21 22  2  0  0  0  0
 22 23  1  0  0  0  0
 23 24  2  0  0  0  0
 24 19  1  0  0  0  0
 22 25  1  0  0  0  0
 23 26  1  0  0  0  0
 26 27  1  0  0  0  0
 18 28  1  0  0  0  0
M  END
>  <cdx:fragmentId>
387

$$$$
