33537.cdx
  Mrv1902 05222410242D          

 38 41  0  0  0  0            999 V2000
    8.0397   -6.7650    0.0000 C   0  0  1  0  0  0  0  0  0  0  0  0
    8.0397   -7.5900    0.0000 C   0  0  2  0  0  0  0  0  0  0  0  0
    8.8244   -7.8449    0.0000 C   0  0  1  0  0  0  0  0  0  0  0  0
    9.3093   -7.1775    0.0000 O   0  0  0  0  0  0  0  0  0  0  0  0
    8.8244   -6.5101    0.0000 C   0  0  0  0  0  0  0  0  0  0  0  0
    7.3723   -6.2801    0.0000 C   0  0  0  0  0  0  0  0  0  0  0  0
    7.3723   -8.0749    0.0000 C   0  0  0  0  0  0  0  0  0  0  0  0
    9.0793   -8.6296    0.0000 C   0  0  0  0  0  0  0  0  0  0  0  0
    8.5273   -9.2427    0.0000 C   0  0  0  0  0  0  0  0  0  0  0  0
    8.7822  -10.0273    0.0000 C   0  0  0  0  0  0  0  0  0  0  0  0
    9.5892  -10.1988    0.0000 C   0  0  0  0  0  0  0  0  0  0  0  0
   10.1412   -9.5857    0.0000 C   0  0  0  0  0  0  0  0  0  0  0  0
    9.8863   -8.8011    0.0000 C   0  0  0  0  0  0  0  0  0  0  0  0
    9.8441  -10.9834    0.0000 O   0  0  0  0  0  0  0  0  0  0  0  0
   10.9482   -9.7572    0.0000 O   0  0  0  0  0  0  0  0  0  0  0  0
   11.5002   -9.1441    0.0000 C   0  0  0  0  0  0  0  0  0  0  0  0
    7.3723   -8.8999    0.0000 O   0  0  0  0  0  0  0  0  0  0  0  0
    6.6186   -6.6156    0.0000 C   0  0  0  0  0  0  0  0  0  0  0  0
    7.4585   -5.4596    0.0000 O   0  0  0  0  0  0  0  0  0  0  0  0
    5.9512   -6.1307    0.0000 C   0  0  0  0  0  0  0  0  0  0  0  0
    5.1975   -6.4663    0.0000 C   0  0  0  0  0  0  0  0  0  0  0  0
    5.1113   -7.2868    0.0000 C   0  0  0  0  0  0  0  0  0  0  0  0
    5.7787   -7.7717    0.0000 C   0  0  0  0  0  0  0  0  0  0  0  0
    6.5324   -7.4361    0.0000 C   0  0  0  0  0  0  0  0  0  0  0  0
    4.3576   -7.6223    0.0000 O   0  0  0  0  0  0  0  0  0  0  0  0
    4.5301   -5.9813    0.0000 O   0  0  0  0  0  0  0  0  0  0  0  0
    3.7764   -6.3169    0.0000 C   0  0  0  0  0  0  0  0  0  0  0  0
    4.2714   -8.4428    0.0000 C   0  0  2  0  0  0  0  0  0  0  0  0
    3.5177   -8.7783    0.0000 O   0  0  0  0  0  0  0  0  0  0  0  0
    3.4315   -9.5988    0.0000 C   0  0  1  0  0  0  0  0  0  0  0  0
    4.0989  -10.0837    0.0000 C   0  0  2  0  0  0  0  0  0  0  0  0
    4.8526   -9.7482    0.0000 C   0  0  1  0  0  0  0  0  0  0  0  0
    4.9388   -8.9277    0.0000 C   0  0  1  0  0  0  0  0  0  0  0  0
    2.6778   -9.9344    0.0000 C   0  0  0  0  0  0  0  0  0  0  0  0
    5.5200  -10.2331    0.0000 O   0  0  0  0  0  0  0  0  0  0  0  0
    5.6925   -8.5922    0.0000 O   0  0  0  0  0  0  0  0  0  0  0  0
    4.0127  -10.9042    0.0000 O   0  0  0  0  0  0  0  0  0  0  0  0
    2.5915  -10.7549    0.0000 O   0  0  0  0  0  0  0  0  0  0  0  0
  1  2  1  0  0  0  0
  2  3  1  0  0  0  0
  3  4  1  0  0  0  0
  4  5  1  0  0  0  0
  5  1  1  0  0  0  0
  1  6  1  6  0  0  0
  2  7  1  6  0  0  0
  3  8  1  1  0  0  0
  8  9  2  0  0  0  0
  9 10  1  0  0  0  0
 10 11  2  0  0  0  0
 11 12  1  0  0  0  0
 12 13  2  0  0  0  0
 13  8  1  0  0  0  0
 11 14  1  0  0  0  0
 12 15  1  0  0  0  0
 15 16  1  0  0  0  0
  7 17  1  0  0  0  0
  6 18  1  0  0  0  0
  6 19  2  0  0  0  0
 18 20  2  0  0  0  0
 20 21  1  0  0  0  0
 21 22  2  0  0  0  0
 22 23  1  0  0  0  0
 23 24  2  0  0  0  0
 24 18  1  0  0  0  0
 22 25  1  0  0  0  0
 21 26  1  0  0  0  0
 26 27  1  0  0  0  0
 28 25  1  1  0  0  0
 28 29  1  0  0  0  0
 29 30  1  0  0  0  0
 30 31  1  0  0  0  0
 31 32  1  0  0  0  0
 32 33  1  0  0  0  0
 33 28  1  0  0  0  0
 30 34  1  1  0  0  0
 32 35  1  1  0  0  0
 33 36  1  6  0  0  0
 31 37  1  6  0  0  0
 34 38  1  0  0  0  0
M  END
>  <cdx:fragmentId>
681

$$$$
