33538.cdx
  Mrv1902 05222410222D          

 47 51  0  0  0  0            999 V2000
    9.3780   -8.9650    0.0000 C   0  0  0  0  0  0  0  0  0  0  0  0
    9.3780   -9.7900    0.0000 C   0  0  0  0  0  0  0  0  0  0  0  0
   10.0925  -10.2025    0.0000 C   0  0  0  0  0  0  0  0  0  0  0  0
   10.8070   -9.7900    0.0000 C   0  0  0  0  0  0  0  0  0  0  0  0
   10.8070   -8.9650    0.0000 C   0  0  0  0  0  0  0  0  0  0  0  0
   10.0925   -8.5525    0.0000 C   0  0  0  0  0  0  0  0  0  0  0  0
    8.5934   -8.7101    0.0000 C   0  0  1  0  0  0  0  0  0  0  0  0
    8.1085   -9.3775    0.0000 C   0  0  2  0  0  0  0  0  0  0  0  0
    8.5934  -10.0449    0.0000 O   0  0  0  0  0  0  0  0  0  0  0  0
    7.2835   -9.3775    0.0000 C   0  0  0  0  0  0  0  0  0  0  0  0
    6.8710   -8.6630    0.0000 C   0  0  0  0  0  0  0  0  0  0  0  0
    6.0460   -8.6630    0.0000 C   0  0  0  0  0  0  0  0  0  0  0  0
    5.6335   -9.3775    0.0000 C   0  0  0  0  0  0  0  0  0  0  0  0
    6.0460  -10.0920    0.0000 C   0  0  0  0  0  0  0  0  0  0  0  0
    6.8710  -10.0920    0.0000 C   0  0  0  0  0  0  0  0  0  0  0  0
    4.8085   -9.3775    0.0000 O   0  0  0  0  0  0  0  0  0  0  0  0
    5.6335  -10.8064    0.0000 O   0  0  0  0  0  0  0  0  0  0  0  0
    6.0460  -11.5209    0.0000 C   0  0  0  0  0  0  0  0  0  0  0  0
    8.3385   -7.9254    0.0000 C   0  0  0  0  0  0  0  0  0  0  0  0
    8.8905   -7.3123    0.0000 O   0  0  0  0  0  0  0  0  0  0  0  0
   10.0925  -11.0275    0.0000 O   0  0  0  0  0  0  0  0  0  0  0  0
   10.8070  -11.4400    0.0000 C   0  0  0  0  0  0  0  0  0  0  0  0
   11.5214   -8.5525    0.0000 C   0  0  0  0  0  0  0  0  0  0  0  0
   12.2359   -8.9650    0.0000 C   0  0  0  0  0  0  0  0  0  0  0  0
   12.9504   -8.5525    0.0000 C   0  0  0  0  0  0  0  0  0  0  0  0
   13.6649   -8.9650    0.0000 O   0  0  0  0  0  0  0  0  0  0  0  0
    4.3960   -8.6630    0.0000 C   0  0  2  0  0  0  0  0  0  0  0  0
    4.8085   -7.9486    0.0000 O   0  0  0  0  0  0  0  0  0  0  0  0
    4.3960   -7.2341    0.0000 C   0  0  1  0  0  0  0  0  0  0  0  0
    3.5710   -7.2341    0.0000 C   0  0  2  0  0  0  0  0  0  0  0  0
    3.1585   -7.9486    0.0000 C   0  0  1  0  0  0  0  0  0  0  0  0
    3.5710   -8.6630    0.0000 C   0  0  1  0  0  0  0  0  0  0  0  0
    4.8085   -6.5196    0.0000 C   0  0  0  0  0  0  0  0  0  0  0  0
    2.3335   -7.9486    0.0000 O   0  0  0  0  0  0  0  0  0  0  0  0
    3.1585   -9.3775    0.0000 O   0  0  0  0  0  0  0  0  0  0  0  0
    3.1585   -6.5196    0.0000 O   0  0  0  0  0  0  0  0  0  0  0  0
    4.3960   -5.8051    0.0000 O   0  0  0  0  0  0  0  0  0  0  0  0
   14.3793   -8.5525    0.0000 C   0  0  2  0  0  0  0  0  0  0  0  0
   15.0938   -8.9650    0.0000 O   0  0  0  0  0  0  0  0  0  0  0  0
   15.8083   -8.5525    0.0000 C   0  0  2  0  0  0  0  0  0  0  0  0
   15.8083   -7.7275    0.0000 C   0  0  1  0  0  0  0  0  0  0  0  0
   15.0938   -7.3150    0.0000 C   0  0  2  0  0  0  0  0  0  0  0  0
   14.3793   -7.7275    0.0000 C   0  0  1  0  0  0  0  0  0  0  0  0
   16.5227   -7.3150    0.0000 O   0  0  0  0  0  0  0  0  0  0  0  0
   16.5227   -8.9650    0.0000 C   0  0  0  0  0  0  0  0  0  0  0  0
   15.0938   -6.4900    0.0000 O   0  0  0  0  0  0  0  0  0  0  0  0
   13.6649   -7.3150    0.0000 O   0  0  0  0  0  0  0  0  0  0  0  0
  1  2  2  0  0  0  0
  2  3  1  0  0  0  0
  3  4  2  0  0  0  0
  4  5  1  0  0  0  0
  5  6  2  0  0  0  0
  6  1  1  0  0  0  0
  1  7  1  0  0  0  0
  7  8  1  0  0  0  0
  8  9  1  0  0  0  0
  9  2  1  0  0  0  0
  8 10  1  6  0  0  0
 10 11  2  0  0  0  0
 11 12  1  0  0  0  0
 12 13  2  0  0  0  0
 13 14  1  0  0  0  0
 14 15  2  0  0  0  0
 15 10  1  0  0  0  0
 13 16  1  0  0  0  0
 14 17  1  0  0  0  0
 17 18  1  0  0  0  0
  7 19  1  1  0  0  0
 19 20  1  0  0  0  0
  3 21  1  0  0  0  0
 21 22  1  0  0  0  0
  5 23  1  0  0  0  0
 23 24  1  0  0  0  0
 24 25  1  0  0  0  0
 25 26  1  0  0  0  0
 27 16  1  1  0  0  0
 27 28  1  0  0  0  0
 28 29  1  0  0  0  0
 29 30  1  0  0  0  0
 30 31  1  0  0  0  0
 31 32  1  0  0  0  0
 32 27  1  0  0  0  0
 29 33  1  1  0  0  0
 31 34  1  1  0  0  0
 32 35  1  6  0  0  0
 30 36  1  6  0  0  0
 33 37  1  0  0  0  0
 38 26  1  1  0  0  0
 38 39  1  0  0  0  0
 39 40  1  0  0  0  0
 40 41  1  0  0  0  0
 41 42  1  0  0  0  0
 42 43  1  0  0  0  0
 43 38  1  0  0  0  0
 41 44  1  1  0  0  0
 40 45  1  6  0  0  0
 42 46  1  6  0  0  0
 43 47  1  6  0  0  0
M  END
>  <cdx:fragmentId>
873

$$$$
