101335385.cdx
  Mrv1902 05222410222D          

 16 17  0  0  0  0            999 V2000
    5.6117   -5.7098    0.0000 C   0  0  0  0  0  0  0  0  0  0  0  0
    4.8973   -6.1223    0.0000 C   0  0  0  0  0  0  0  0  0  0  0  0
    5.6117   -4.8848    0.0000 O   0  0  0  0  0  0  0  0  0  0  0  0
    6.3262   -6.1223    0.0000 O   0  0  0  0  0  0  0  0  0  0  0  0
    7.0407   -5.7098    0.0000 C   0  0  0  0  0  0  0  0  0  0  0  0
    8.4696   -5.7098    0.0000 C   0  0  2  0  0  0  0  0  0  0  0  0
    7.7552   -6.1223    0.0000 C   0  0  1  0  0  0  0  0  0  0  0  0
    7.7552   -6.9473    0.0000 C   0  0  0  0  0  0  0  0  0  0  0  0
    8.4696   -7.3598    0.0000 C   0  0  0  0  0  0  0  0  0  0  0  0
    9.1841   -6.9473    0.0000 C   0  0  1  0  0  0  0  0  0  0  0  0
    9.1841   -6.1223    0.0000 C   0  0  0  0  0  0  0  0  0  0  0  0
    8.6524   -6.4295    0.0000 C   0  0  0  0  0  0  0  0  0  0  0  0
    9.5966   -5.4078    0.0000 C   0  0  0  0  0  0  0  0  0  0  0  0
   10.0091   -6.1223    0.0000 C   0  0  0  0  0  0  0  0  0  0  0  0
    8.4696   -4.8848    0.0000 H   0  0  0  0  0  0  0  0  0  0  0  0
    9.8986   -7.3598    0.0000 H   0  0  0  0  0  0  0  0  0  0  0  0
  1  2  1  0  0  0  0
  1  3  2  0  0  0  0
  1  4  1  0  0  0  0
  6  7  1  0  0  0  0
  7  8  1  0  0  0  0
  8  9  1  0  0  0  0
  9 10  1  0  0  0  0
 10 11  1  0  0  0  0
  6 11  1  0  0  0  0
  6 12  1  1  0  0  0
 10 12  1  1  0  0  0
 11 13  1  0  0  0  0
 11 14  1  0  0  0  0
  7  5  1  1  0  0  0
  4  5  1  0  0  0  0
  6 15  1  0  0  0  0
 10 16  1  0  0  0  0
M  END
>  <cdx:groupId>
51

>  <cdx:fragmentId>
15

$$$$
