33536.cdx
  Mrv1902 05222410242D          

 39 42  0  0  0  0            999 V2000
    6.9122   -6.4350    0.0000 C   0  0  1  0  0  0  0  0  0  0  0  0
    6.9122   -7.2600    0.0000 C   0  0  2  0  0  0  0  0  0  0  0  0
    7.6969   -7.5149    0.0000 C   0  0  1  0  0  0  0  0  0  0  0  0
    8.1818   -6.8475    0.0000 O   0  0  0  0  0  0  0  0  0  0  0  0
    7.6969   -6.1801    0.0000 C   0  0  0  0  0  0  0  0  0  0  0  0
    6.2448   -5.9501    0.0000 C   0  0  0  0  0  0  0  0  0  0  0  0
    6.2448   -7.7449    0.0000 C   0  0  0  0  0  0  0  0  0  0  0  0
    7.9518   -8.2996    0.0000 C   0  0  0  0  0  0  0  0  0  0  0  0
    7.3998   -8.9127    0.0000 C   0  0  0  0  0  0  0  0  0  0  0  0
    7.6547   -9.6973    0.0000 C   0  0  0  0  0  0  0  0  0  0  0  0
    8.4617   -9.8688    0.0000 C   0  0  0  0  0  0  0  0  0  0  0  0
    9.0137   -9.2557    0.0000 C   0  0  0  0  0  0  0  0  0  0  0  0
    8.7588   -8.4711    0.0000 C   0  0  0  0  0  0  0  0  0  0  0  0
    8.7166  -10.6534    0.0000 O   0  0  0  0  0  0  0  0  0  0  0  0
    9.8207   -9.4272    0.0000 O   0  0  0  0  0  0  0  0  0  0  0  0
   10.3727   -8.8141    0.0000 C   0  0  0  0  0  0  0  0  0  0  0  0
    6.2448   -8.5699    0.0000 O   0  0  0  0  0  0  0  0  0  0  0  0
    5.4911   -6.2856    0.0000 C   0  0  0  0  0  0  0  0  0  0  0  0
    6.3310   -5.1296    0.0000 O   0  0  0  0  0  0  0  0  0  0  0  0
    4.8237   -5.8007    0.0000 C   0  0  0  0  0  0  0  0  0  0  0  0
    4.0700   -6.1363    0.0000 C   0  0  0  0  0  0  0  0  0  0  0  0
    3.9838   -6.9568    0.0000 C   0  0  0  0  0  0  0  0  0  0  0  0
    4.6512   -7.4417    0.0000 C   0  0  0  0  0  0  0  0  0  0  0  0
    5.4049   -7.1061    0.0000 C   0  0  0  0  0  0  0  0  0  0  0  0
    3.2301   -7.2923    0.0000 O   0  0  0  0  0  0  0  0  0  0  0  0
    3.4026   -5.6513    0.0000 O   0  0  0  0  0  0  0  0  0  0  0  0
    2.6489   -5.9869    0.0000 C   0  0  0  0  0  0  0  0  0  0  0  0
    2.5627   -6.8074    0.0000 C   0  0  0  0  0  0  0  0  0  0  0  0
    8.1646  -11.2665    0.0000 C   0  0  2  0  0  0  0  0  0  0  0  0
    7.3576  -11.0950    0.0000 O   0  0  0  0  0  0  0  0  0  0  0  0
    6.8056  -11.7081    0.0000 C   0  0  1  0  0  0  0  0  0  0  0  0
    7.0605  -12.4927    0.0000 C   0  0  2  0  0  0  0  0  0  0  0  0
    7.8675  -12.6642    0.0000 C   0  0  1  0  0  0  0  0  0  0  0  0
    8.4195  -12.0511    0.0000 C   0  0  1  0  0  0  0  0  0  0  0  0
    5.9986  -11.5366    0.0000 C   0  0  0  0  0  0  0  0  0  0  0  0
    8.1224  -13.4489    0.0000 O   0  0  0  0  0  0  0  0  0  0  0  0
    9.2265  -12.2227    0.0000 O   0  0  0  0  0  0  0  0  0  0  0  0
    6.5085  -13.1058    0.0000 O   0  0  0  0  0  0  0  0  0  0  0  0
    5.4466  -12.1497    0.0000 O   0  0  0  0  0  0  0  0  0  0  0  0
  1  2  1  0  0  0  0
  2  3  1  0  0  0  0
  3  4  1  0  0  0  0
  4  5  1  0  0  0  0
  5  1  1  0  0  0  0
  1  6  1  6  0  0  0
  2  7  1  6  0  0  0
  3  8  1  1  0  0  0
  8  9  2  0  0  0  0
  9 10  1  0  0  0  0
 10 11  2  0  0  0  0
 11 12  1  0  0  0  0
 12 13  2  0  0  0  0
 13  8  1  0  0  0  0
 11 14  1  0  0  0  0
 12 15  1  0  0  0  0
 15 16  1  0  0  0  0
  7 17  1  0  0  0  0
  6 18  1  0  0  0  0
  6 19  2  0  0  0  0
 18 20  2  0  0  0  0
 20 21  1  0  0  0  0
 21 22  2  0  0  0  0
 22 23  1  0  0  0  0
 23 24  2  0  0  0  0
 24 18  1  0  0  0  0
 22 25  1  0  0  0  0
 21 26  1  0  0  0  0
 26 27  1  0  0  0  0
 25 28  1  0  0  0  0
 29 14  1  1  0  0  0
 29 30  1  0  0  0  0
 30 31  1  0  0  0  0
 31 32  1  0  0  0  0
 32 33  1  0  0  0  0
 33 34  1  0  0  0  0
 34 29  1  0  0  0  0
 31 35  1  1  0  0  0
 33 36  1  1  0  0  0
 34 37  1  6  0  0  0
 32 38  1  6  0  0  0
 35 39  1  0  0  0  0
M  END
>  <cdx:fragmentId>
681

$$$$
