33531.cdx
  Mrv1902 05222410252D          

 35 37  0  0  0  0            999 V2000
    9.8421   -8.0727    0.0000 C   0  0  0  0  0  0  0  0  0  0  0  0
    9.1276   -7.6602    0.0000 O   0  0  0  0  0  0  0  0  0  0  0  0
    6.9822   -8.0560    0.0000 C   0  0  2  0  0  0  0  0  0  0  0  0
    6.9771   -8.8809    0.0000 C   0  0  2  0  0  0  0  0  0  0  0  0
    7.6890   -9.2978    0.0000 C   0  0  1  0  0  0  0  0  0  0  0  0
    8.4060   -8.8898    0.0000 C   0  0  2  0  0  0  0  0  0  0  0  0
    8.4111   -8.0648    0.0000 C   0  0  1  0  0  0  0  0  0  0  0  0
    7.6992   -7.6479    0.0000 O   0  0  0  0  0  0  0  0  0  0  0  0
    6.2703   -7.6391    0.0000 C   0  0  0  0  0  0  0  0  0  0  0  0
    7.6839  -10.1228    0.0000 O   0  0  0  0  0  0  0  0  0  0  0  0
    6.2601   -9.2890    0.0000 O   0  0  0  0  0  0  0  0  0  0  0  0
    9.1179   -9.3067    0.0000 O   0  0  0  0  0  0  0  0  0  0  0  0
    5.5533   -8.0471    0.0000 O   0  0  0  0  0  0  0  0  0  0  0  0
   10.5565   -7.6602    0.0000 C   0  0  0  0  0  0  0  0  0  0  0  0
   11.2710   -8.0727    0.0000 C   0  0  0  0  0  0  0  0  0  0  0  0
   11.2710   -8.8977    0.0000 C   0  0  0  0  0  0  0  0  0  0  0  0
   11.9855   -9.3102    0.0000 C   0  0  0  0  0  0  0  0  0  0  0  0
   12.7000   -8.8977    0.0000 C   0  0  0  0  0  0  0  0  0  0  0  0
   12.7000   -8.0727    0.0000 C   0  0  0  0  0  0  0  0  0  0  0  0
   11.9855   -7.6602    0.0000 C   0  0  0  0  0  0  0  0  0  0  0  0
   13.4144   -9.3102    0.0000 O   0  0  0  0  0  0  0  0  0  0  0  0
   11.2710   -7.2477    0.0000 O   0  0  0  0  0  0  0  0  0  0  0  0
    4.8414   -7.6302    0.0000 C   0  0  0  0  0  0  0  0  0  0  0  0
    4.1244   -8.0383    0.0000 C   0  0  0  0  0  0  0  0  0  0  0  0
    4.8465   -6.8053    0.0000 O   0  0  0  0  0  0  0  0  0  0  0  0
    3.4150   -7.6170    0.0000 C   0  0  0  0  0  0  0  0  0  0  0  0
    2.6955   -8.0383    0.0000 C   0  0  0  0  0  0  0  0  0  0  0  0
    2.6955   -8.8633    0.0000 C   0  0  1  0  0  0  0  0  0  0  0  0
    3.4150   -9.2846    0.0000 C   0  0  0  0  0  0  0  0  0  0  0  0
    4.1244   -8.8633    0.0000 C   0  0  0  0  0  0  0  0  0  0  0  0
    1.9798   -9.2736    0.0000 C   0  0  0  0  0  0  0  0  0  0  0  0
    1.2653   -9.6861    0.0000 O   0  0  0  0  0  0  0  0  0  0  0  0
    2.3923   -9.9881    0.0000 C   0  0  0  0  0  0  0  0  0  0  0  0
    1.5673   -8.5591    0.0000 C   0  0  0  0  0  0  0  0  0  0  0  0
    2.6955   -9.6882    0.0000 H   0  0  0  0  0  0  0  0  0  0  0  0
  1  2  1  0  0  0  0
  3  4  1  0  0  0  0
  4  5  1  0  0  0  0
  5  6  1  0  0  0  0
  6  7  1  0  0  0  0
  7  8  1  0  0  0  0
  8  3  1  0  0  0  0
  3  9  1  1  0  0  0
  5 10  1  1  0  0  0
  4 11  1  6  0  0  0
  6 12  1  6  0  0  0
  9 13  1  0  0  0  0
  7  2  1  1  0  0  0
  1 14  1  0  0  0  0
 14 15  1  0  0  0  0
 15 16  1  0  0  0  0
 16 17  2  0  0  0  0
 17 18  1  0  0  0  0
 18 19  1  0  0  0  0
 19 20  2  0  0  0  0
 20 15  1  0  0  0  0
 18 21  2  0  0  0  0
 15 22  1  0  0  0  0
 13 23  1  0  0  0  0
 23 24  1  0  0  0  0
 23 25  2  0  0  0  0
 24 26  2  0  0  0  0
 26 27  1  0  0  0  0
 27 28  1  0  0  0  0
 28 29  1  0  0  0  0
 29 30  1  0  0  0  0
 30 24  1  0  0  0  0
 28 31  1  0  0  0  0
 31 32  1  0  0  0  0
 31 33  1  0  0  0  0
 31 34  1  0  0  0  0
 28 35  1  6  0  0  0
M  END
>  <cdx:fragmentId>
336

$$$$
