33582.cdx
  Mrv1902 05222410272D          

 21 23  0  0  0  0            999 V2000
   10.4586  -12.1682    0.0000 O   0  0  0  0  0  0  0  0  0  0  0  0
   10.4586  -10.5182    0.0000 O   0  0  0  0  0  0  0  0  0  0  0  0
    8.3152  -10.9307    0.0000 C   0  0  0  0  0  0  0  0  0  0  0  0
    9.0297  -10.5182    0.0000 C   0  0  0  0  0  0  0  0  0  0  0  0
    9.7441  -10.9307    0.0000 C   0  0  0  0  0  0  0  0  0  0  0  0
    9.7441  -11.7557    0.0000 C   0  0  0  0  0  0  0  0  0  0  0  0
    9.0297  -12.1682    0.0000 C   0  0  0  0  0  0  0  0  0  0  0  0
    8.3152  -11.7557    0.0000 C   0  0  0  0  0  0  0  0  0  0  0  0
    5.4573  -10.9307    0.0000 O   0  0  0  0  0  0  0  0  0  0  0  0
    4.0284  -11.7557    0.0000 O   0  0  0  0  0  0  0  0  0  0  0  0
    8.3152  -13.4057    0.0000 O   0  0  0  0  0  0  0  0  0  0  0  0
    6.8863  -11.7557    0.0000 O   0  0  0  0  0  0  0  0  0  0  0  0
    6.1718  -12.1682    0.0000 C   0  0  0  0  0  0  0  0  0  0  0  0
    5.4573  -11.7557    0.0000 C   0  0  0  0  0  0  0  0  0  0  0  0
    4.7429  -12.1682    0.0000 C   0  0  0  0  0  0  0  0  0  0  0  0
    4.7429  -12.9932    0.0000 C   0  0  0  0  0  0  0  0  0  0  0  0
    5.4573  -13.4057    0.0000 C   0  0  0  0  0  0  0  0  0  0  0  0
    6.1718  -12.9932    0.0000 C   0  0  0  0  0  0  0  0  0  0  0  0
    6.8863  -13.4057    0.0000 C   0  0  0  0  0  0  0  0  0  0  0  0
    7.6007  -12.9932    0.0000 C   0  0  1  0  0  0  0  0  0  0  0  0
    7.6007  -12.1682    0.0000 C   0  0  1  0  0  0  0  0  0  0  0  0
 19 18  1  0  0  0  0
 20 19  1  0  0  0  0
 21 20  1  0  0  0  0
 21  8  1  6  0  0  0
  6  1  1  0  0  0  0
  5  2  1  0  0  0  0
  8  3  2  0  0  0  0
  4  3  1  0  0  0  0
  5  4  2  0  0  0  0
  6  5  1  0  0  0  0
  7  6  2  0  0  0  0
  8  7  1  0  0  0  0
 14  9  1  0  0  0  0
 15 10  1  0  0  0  0
 20 11  1  1  0  0  0
 21 12  1  0  0  0  0
 13 12  1  0  0  0  0
 18 13  2  0  0  0  0
 14 13  1  0  0  0  0
 15 14  2  0  0  0  0
 16 15  1  0  0  0  0
 17 16  2  0  0  0  0
 18 17  1  0  0  0  0
M  END
>  <cdx:groupId>
65511

>  <cdx:fragmentId>
65449

$$$$
