33599.cdx
  Mrv1902 05222410202D          

 34 38  0  0  0  0            999 V2000
    5.6373  -10.8561    0.0000 H   0  0  0  0  0  0  0  0  0  0  0  0
    5.3346  -11.1574    0.0000 C   0  0  0  0  0  0  0  0  0  0  0  0
    4.5096  -11.1554    0.0000 C   0  0  0  0  0  0  0  0  0  0  0  0
    9.9301   -8.3914    0.0000 C   0  0  0  0  0  0  0  0  0  0  0  0
    8.8098   -5.6118    0.0000 C   0  0  0  0  0  0  0  0  0  0  0  0
    9.6348   -5.6138    0.0000 C   0  0  0  0  0  0  0  0  0  0  0  0
    3.4949  -10.4385    0.0000 O   0  0  0  0  0  0  0  0  0  0  0  0
    5.6413   -9.2061    0.0000 C   0  0  2  0  0  0  0  0  0  0  0  0
    6.3567   -8.7953    0.0000 C   0  0  1  0  0  0  0  0  0  0  0  0
    6.3587   -7.9704    0.0000 C   0  0  0  0  0  0  0  0  0  0  0  0
    7.0742   -7.5596    0.0000 C   0  0  0  0  0  0  0  0  0  0  0  0
    7.7876   -7.9738    0.0000 C   0  0  1  0  0  0  0  0  0  0  0  0
    8.5031   -7.5630    0.0000 C   0  0  2  0  0  0  0  0  0  0  0  0
    8.5051   -6.7380    0.0000 C   0  0  0  0  0  0  0  0  0  0  0  0
    9.2205   -6.3272    0.0000 C   0  0  0  0  0  0  0  0  0  0  0  0
    9.9340   -6.7414    0.0000 C   0  0  0  0  0  0  0  0  0  0  0  0
    9.9320   -7.5664    0.0000 C   0  0  0  0  0  0  0  0  0  0  0  0
    9.2166   -7.9772    0.0000 C   0  0  1  0  0  0  0  0  0  0  0  0
    9.2146   -8.8022    0.0000 C   0  0  0  0  0  0  0  0  0  0  0  0
    8.4991   -9.2130    0.0000 C   0  0  0  0  0  0  0  0  0  0  0  0
    7.7857   -8.7988    0.0000 C   0  0  0  0  0  0  0  0  0  0  0  0
    7.0702   -9.2096    0.0000 C   0  0  2  0  0  0  0  0  0  0  0  0
    7.0682  -10.0346    0.0000 C   0  0  0  0  0  0  0  0  0  0  0  0
    6.3528  -10.4453    0.0000 C   0  0  0  0  0  0  0  0  0  0  0  0
    5.6393  -10.0311    0.0000 C   0  0  1  0  0  0  0  0  0  0  0  0
    4.9238  -10.4419    0.0000 C   0  0  0  0  0  0  0  0  0  0  0  0
    4.2103  -10.0277    0.0000 C   0  0  0  0  0  0  0  0  0  0  0  0
    4.2123   -9.2027    0.0000 C   0  0  0  0  0  0  0  0  0  0  0  0
    4.9278   -8.7919    0.0000 C   0  0  0  0  0  0  0  0  0  0  0  0
    5.6432   -8.3811    0.0000 C   0  0  0  0  0  0  0  0  0  0  0  0
    7.0702   -8.3846    0.0000 C   0  0  0  0  0  0  0  0  0  0  0  0
    6.3567   -9.6203    0.0000 H   0  0  0  0  0  0  0  0  0  0  0  0
    8.5031   -8.3880    0.0000 H   0  0  0  0  0  0  0  0  0  0  0  0
    7.7896   -7.1488    0.0000 C   0  0  0  0  0  0  0  0  0  0  0  0
 25  1  1  6  0  0  0
 26  2  1  0  0  0  0
 26  3  1  0  0  0  0
 18  4  1  1  0  0  0
 15  5  1  0  0  0  0
 15  6  1  0  0  0  0
 27  7  2  0  0  0  0
 29  8  1  0  0  0  0
 25  8  1  0  0  0  0
  9  8  1  0  0  0  0
 22  9  1  0  0  0  0
 10  9  1  0  0  0  0
 11 10  1  0  0  0  0
 12 11  1  0  0  0  0
 21 12  1  0  0  0  0
 13 12  1  0  0  0  0
 18 13  1  0  0  0  0
 14 13  1  0  0  0  0
 15 14  1  0  0  0  0
 16 15  1  0  0  0  0
 17 16  1  0  0  0  0
 18 17  1  0  0  0  0
 19 18  1  0  0  0  0
 20 19  1  0  0  0  0
 21 20  2  0  0  0  0
 22 21  1  0  0  0  0
 23 22  1  0  0  0  0
 24 23  1  0  0  0  0
 25 24  1  0  0  0  0
 26 25  1  0  0  0  0
 27 26  1  0  0  0  0
 28 27  1  0  0  0  0
 29 28  1  0  0  0  0
  8 30  1  1  0  0  0
 22 31  1  1  0  0  0
  9 32  1  6  0  0  0
 13 33  1  1  0  0  0
 12 34  1  6  0  0  0
M  END
>  <cdx:fragmentId>
5

$$$$
