33610.cdx
  Mrv1902 05222410202D          

 66 70  0  0  0  0            999 V2000
    3.9629   -7.8603    0.0000 C   0  0  1  0  0  0  0  0  0  0  0  0
    4.6706   -7.4363    0.0000 C   0  0  0  0  0  0  0  0  0  0  0  0
    4.6572   -6.6114    0.0000 N   0  0  0  0  0  0  0  0  0  0  0  0
    4.0353   -6.0694    0.0000 C   0  0  0  0  0  0  0  0  0  0  0  0
    4.3586   -5.3104    0.0000 C   0  0  0  0  0  0  0  0  0  0  0  0
    5.1804   -5.3833    0.0000 C   0  0  0  0  0  0  0  0  0  0  0  0
    5.3650   -6.1874    0.0000 C   0  0  1  0  0  0  0  0  0  0  0  0
    6.0860   -6.5883    0.0000 C   0  0  0  0  0  0  0  0  0  0  0  0
    6.7937   -6.1643    0.0000 N   0  0  0  0  0  0  0  0  0  0  0  0
    7.5148   -6.5652    0.0000 C   0  0  2  0  0  0  0  0  0  0  0  0
    8.2225   -6.1412    0.0000 C   0  0  0  0  0  0  0  0  0  0  0  0
    8.9435   -6.5421    0.0000 N   0  0  0  0  0  0  0  0  0  0  0  0
    8.9634   -7.3778    0.0000 C   0  0  0  0  0  0  0  0  0  0  0  0
    9.6844   -7.7787    0.0000 C   0  0  0  0  0  0  0  0  0  0  0  0
   10.4971   -7.6365    0.0000 N   0  0  0  0  0  0  0  0  0  0  0  0
   11.0391   -7.0145    0.0000 C   0  0  0  0  0  0  0  0  0  0  0  0
   11.7981   -7.3378    0.0000 C   0  0  0  0  0  0  0  0  0  0  0  0
   11.7251   -8.1596    0.0000 C   0  0  0  0  0  0  0  0  0  0  0  0
   10.9211   -8.3442    0.0000 C   0  0  1  0  0  0  0  0  0  0  0  0
   10.4123   -8.9936    0.0000 C   0  0  0  0  0  0  0  0  0  0  0  0
   10.4257   -9.8185    0.0000 N   0  0  0  0  0  0  0  0  0  0  0  0
    9.7180  -10.2425    0.0000 C   0  0  2  0  0  0  0  0  0  0  0  0
    9.7313  -11.0674    0.0000 C   0  0  0  0  0  0  0  0  0  0  0  0
    9.0236  -11.4914    0.0000 N   0  0  0  0  0  0  0  0  0  0  0  0
    8.3025  -11.0905    0.0000 C   0  0  2  0  0  0  0  0  0  0  0  0
    7.5948  -11.5145    0.0000 C   0  0  0  0  0  0  0  0  0  0  0  0
    6.8738  -11.1136    0.0000 N   0  0  0  0  0  0  0  0  0  0  0  0
    6.1661  -11.5377    0.0000 C   0  0  2  0  0  0  0  0  0  0  0  0
    5.4450  -11.1368    0.0000 C   0  0  0  0  0  0  0  0  0  0  0  0
    5.4317  -10.3119    0.0000 N   0  0  0  0  0  0  0  0  0  0  0  0
    4.7106   -9.9110    0.0000 C   0  0  0  0  0  0  0  0  0  0  0  0
    4.6973   -9.0861    0.0000 C   0  0  0  0  0  0  0  0  0  0  0  0
    3.9762   -8.6852    0.0000 N   0  0  0  0  0  0  0  0  0  0  0  0
    3.1958   -8.9528    0.0000 C   0  0  0  0  0  0  0  0  0  0  0  0
    2.7002   -8.2933    0.0000 C   0  0  0  0  0  0  0  0  0  0  0  0
    3.1742   -7.6181    0.0000 C   0  0  0  0  0  0  0  0  0  0  0  0
    5.3916   -7.8372    0.0000 O   0  0  0  0  0  0  0  0  0  0  0  0
    6.0993   -7.4132    0.0000 O   0  0  0  0  0  0  0  0  0  0  0  0
    8.2091   -5.3163    0.0000 O   0  0  0  0  0  0  0  0  0  0  0  0
    9.1849   -8.4353    0.0000 O   0  0  0  0  0  0  0  0  0  0  0  0
    9.6303   -8.7309    0.0000 O   0  0  0  0  0  0  0  0  0  0  0  0
   10.4523  -11.4683    0.0000 O   0  0  0  0  0  0  0  0  0  0  0  0
    7.6082  -12.3394    0.0000 O   0  0  0  0  0  0  0  0  0  0  0  0
    4.7373  -11.5608    0.0000 O   0  0  0  0  0  0  0  0  0  0  0  0
    5.4050   -8.6621    0.0000 O   0  0  0  0  0  0  0  0  0  0  0  0
    9.2076   -8.9078    0.0000 C   0  0  0  0  0  0  0  0  0  0  0  0
    9.0775   -9.7225    0.0000 C   0  0  0  0  0  0  0  0  0  0  0  0
    8.3069  -10.0172    0.0000 C   0  0  0  0  0  0  0  0  0  0  0  0
    7.5361   -7.8850    0.0000 C   0  0  0  0  0  0  0  0  0  0  0  0
    6.8284   -8.3090    0.0000 C   0  0  0  0  0  0  0  0  0  0  0  0
    6.1074   -7.9081    0.0000 C   0  0  0  0  0  0  0  0  0  0  0  0
    6.8418   -9.1339    0.0000 C   0  0  0  0  0  0  0  0  0  0  0  0
    8.0209   -9.3908    0.0000 C   0  0  0  0  0  0  0  0  0  0  0  0
    7.7513  -10.1705    0.0000 C   0  0  1  0  0  0  0  0  0  0  0  0
    6.9307  -10.2557    0.0000 C   0  0  0  0  0  0  0  0  0  0  0  0
    6.4467   -9.5876    0.0000 C   0  0  0  0  0  0  0  0  0  0  0  0
    6.1794  -12.3625    0.0000 C   0  0  0  0  0  0  0  0  0  0  0  0
    5.4717  -12.7866    0.0000 C   0  0  0  0  0  0  0  0  0  0  0  0
    5.4851  -13.6114    0.0000 C   0  0  0  0  0  0  0  0  0  0  0  0
    4.7774  -14.0354    0.0000 C   0  0  0  0  0  0  0  0  0  0  0  0
    4.0563  -13.6346    0.0000 C   0  0  0  0  0  0  0  0  0  0  0  0
    4.0430  -12.8097    0.0000 C   0  0  0  0  0  0  0  0  0  0  0  0
    4.7507  -12.3857    0.0000 C   0  0  0  0  0  0  0  0  0  0  0  0
    3.8634   -7.0413    0.0000 H   0  0  0  0  0  0  0  0  0  0  0  0
    6.0245   -5.6918    0.0000 H   0  0  0  0  0  0  0  0  0  0  0  0
   11.3634   -9.0405    0.0000 H   0  0  0  0  0  0  0  0  0  0  0  0
  1  2  1  0  0  0  0
  2  3  1  0  0  0  0
  3  4  1  0  0  0  0
  4  5  1  0  0  0  0
  5  6  1  0  0  0  0
  6  7  1  0  0  0  0
  7  8  1  0  0  0  0
  8  9  1  0  0  0  0
  9 10  1  0  0  0  0
 10 11  1  0  0  0  0
 11 12  1  0  0  0  0
 12 13  1  0  0  0  0
 13 14  1  0  0  0  0
 14 15  1  0  0  0  0
 15 16  1  0  0  0  0
 16 17  1  0  0  0  0
 17 18  1  0  0  0  0
 18 19  1  0  0  0  0
 19 20  1  0  0  0  0
 20 21  1  0  0  0  0
 21 22  1  0  0  0  0
 22 23  1  0  0  0  0
 23 24  1  0  0  0  0
 25 24  1  6  0  0  0
 25 26  1  0  0  0  0
 26 27  1  0  0  0  0
 27 28  1  0  0  0  0
 28 29  1  0  0  0  0
 29 30  1  0  0  0  0
 30 31  1  0  0  0  0
 31 32  1  0  0  0  0
 32 33  1  0  0  0  0
 33 34  1  0  0  0  0
 34 35  1  0  0  0  0
 35 36  1  0  0  0  0
  1 36  1  0  0  0  0
  1 33  1  0  0  0  0
 15 19  1  0  0  0  0
  3  7  1  0  0  0  0
  2 37  2  0  0  0  0
  8 38  2  0  0  0  0
 11 39  2  0  0  0  0
 14 40  2  0  0  0  0
 20 41  2  0  0  0  0
 23 42  2  0  0  0  0
 26 43  2  0  0  0  0
 29 44  2  0  0  0  0
 32 45  2  0  0  0  0
 46 47  1  0  0  0  0
 47 48  1  0  0  0  0
 22 47  1  6  0  0  0
 49 50  1  0  0  0  0
 50 51  1  0  0  0  0
 50 52  1  0  0  0  0
 10 49  1  6  0  0  0
 54 53  1  6  0  0  0
 54 55  1  0  0  0  0
 55 56  1  0  0  0  0
 25 54  1  0  0  0  0
 57 58  1  0  0  0  0
 58 59  1  0  0  0  0
 59 60  2  0  0  0  0
 60 61  1  0  0  0  0
 61 62  2  0  0  0  0
 62 63  1  0  0  0  0
 58 63  2  0  0  0  0
 28 57  1  1  0  0  0
  1 64  1  6  0  0  0
  7 65  1  6  0  0  0
 19 66  1  6  0  0  0
M  END
>  <cdx:fragmentId>
36888

$$$$
