33637.cdx
  Mrv1902 05222410272D          

  9  9  0  0  0  0            999 V2000
    8.0970   -5.4445    0.0000 C   0  0  0  0  0  0  0  0  0  0  0  0
    5.9595   -5.8862    0.0000 C   0  0  0  0  0  0  0  0  0  0  0  0
    5.9707   -6.7111    0.0000 C   0  0  0  0  0  0  0  0  0  0  0  0
    6.6908   -7.1138    0.0000 C   0  0  0  0  0  0  0  0  0  0  0  0
    7.3995   -6.6916    0.0000 C   0  0  0  0  0  0  0  0  0  0  0  0
    7.3883   -5.8667    0.0000 C   0  0  0  0  0  0  0  0  0  0  0  0
    6.6682   -5.4640    0.0000 C   0  0  0  0  0  0  0  0  0  0  0  0
    6.6570   -4.6391    0.0000 O   0  0  0  0  0  0  0  0  0  0  0  0
    7.3657   -4.2168    0.0000 C   0  0  0  0  0  0  0  0  0  0  0  0
  6  1  1  0  0  0  0
  7  2  2  0  0  0  0
  3  2  1  0  0  0  0
  4  3  2  0  0  0  0
  5  4  1  0  0  0  0
  6  5  2  0  0  0  0
  7  6  1  0  0  0  0
  8  7  1  0  0  0  0
  9  8  1  0  0  0  0
M  END
>  <cdx:fragmentId>
5

$$$$
