33649.cdx
  Mrv1902 05222410212D          

 18 18  0  0  0  0            999 V2000
    7.8229   -9.2339    0.0000 C   0  0  0  0  0  0  0  0  0  0  0  0
    8.5306   -8.8100    0.0000 C   0  0  0  0  0  0  0  0  0  0  0  0
    8.5175   -7.9851    0.0000 C   0  0  0  0  0  0  0  0  0  0  0  0
    7.1019   -8.8328    0.0000 O   0  0  0  0  0  0  0  0  0  0  0  0
    9.2516   -9.2110    0.0000 O   0  0  0  0  0  0  0  0  0  0  0  0
    9.2252   -7.5612    0.0000 O   0  0  0  0  0  0  0  0  0  0  0  0
    7.8360  -10.0588    0.0000 C   0  0  0  0  0  0  0  0  0  0  0  0
    7.1283  -10.4826    0.0000 C   0  0  0  0  0  0  0  0  0  0  0  0
    7.1414  -11.3075    0.0000 C   0  0  0  0  0  0  0  0  0  0  0  0
    7.8624  -11.7085    0.0000 C   0  0  0  0  0  0  0  0  0  0  0  0
    8.5702  -11.2847    0.0000 C   0  0  0  0  0  0  0  0  0  0  0  0
    8.5570  -10.4598    0.0000 C   0  0  0  0  0  0  0  0  0  0  0  0
    9.2912  -11.6857    0.0000 O   0  0  0  0  0  0  0  0  0  0  0  0
   10.0056  -11.2732    0.0000 C   0  0  0  0  0  0  0  0  0  0  0  0
    7.8756  -12.5334    0.0000 O   0  0  0  0  0  0  0  0  0  0  0  0
    7.1678  -12.9573    0.0000 C   0  0  0  0  0  0  0  0  0  0  0  0
    6.4337  -11.7314    0.0000 O   0  0  0  0  0  0  0  0  0  0  0  0
    5.7192  -11.3189    0.0000 C   0  0  0  0  0  0  0  0  0  0  0  0
  1  2  1  0  0  0  0
  2  3  1  0  0  0  0
  1  4  1  0  0  0  0
  2  5  1  0  0  0  0
  3  6  1  0  0  0  0
  7  8  1  0  0  0  0
  8  9  2  0  0  0  0
  9 10  1  0  0  0  0
 10 11  2  0  0  0  0
 11 12  1  0  0  0  0
  7 12  2  0  0  0  0
 13 14  1  0  0  0  0
 11 13  1  0  0  0  0
 15 16  1  0  0  0  0
 10 15  1  0  0  0  0
 17 18  1  0  0  0  0
  9 17  1  0  0  0  0
  1  7  1  0  0  0  0
M  END
>  <cdx:groupId>
206706

>  <cdx:fragmentId>
206667

$$$$
