13336517.cdx
  Mrv1902 05222410212D          

 25 28  0  0  0  0            999 V2000
    7.7699  -15.2214    0.0000 O   0  0  0  0  0  0  0  0  0  0  0  0
    7.8561  -14.4010    0.0000 C   0  0  1  0  0  0  0  0  0  0  0  0
    7.1025  -14.0654    0.0000 C   0  0  2  0  0  0  0  0  0  0  0  0
    6.5504  -14.6785    0.0000 C   0  0  2  0  0  0  0  0  0  0  0  0
    5.7254  -14.6785    0.0000 C   0  0  0  0  0  0  0  0  0  0  0  0
    5.3129  -15.3930    0.0000 C   0  0  0  0  0  0  0  0  0  0  0  0
    5.7254  -16.1074    0.0000 C   0  0  0  0  0  0  0  0  0  0  0  0
    6.5504  -16.1074    0.0000 C   0  0  0  0  0  0  0  0  0  0  0  0
    6.9629  -15.3930    0.0000 C   0  0  0  0  0  0  0  0  0  0  0  0
    5.3129  -16.8219    0.0000 O   0  0  0  0  0  0  0  0  0  0  0  0
    4.4879  -15.3930    0.0000 C   0  0  0  0  0  0  0  0  0  0  0  0
    4.0754  -16.1074    0.0000 C   0  0  0  0  0  0  0  0  0  0  0  0
    3.2504  -16.1074    0.0000 C   0  0  0  0  0  0  0  0  0  0  0  0
    6.9309  -13.2584    0.0000 C   0  0  0  0  0  0  0  0  0  0  0  0
    6.2149  -13.9248    0.0000 O   0  0  0  0  0  0  0  0  0  0  0  0
    5.3944  -13.8386    0.0000 C   0  0  0  0  0  0  0  0  0  0  0  0
   10.7842  -12.9085    0.0000 O   0  0  0  0  0  0  0  0  0  0  0  0
   11.2691  -13.5760    0.0000 C   0  0  0  0  0  0  0  0  0  0  0  0
   10.7842  -14.2434    0.0000 O   0  0  0  0  0  0  0  0  0  0  0  0
    9.9995  -13.9885    0.0000 C   0  0  0  0  0  0  0  0  0  0  0  0
    9.9995  -13.1635    0.0000 C   0  0  0  0  0  0  0  0  0  0  0  0
    9.2851  -14.4010    0.0000 C   0  0  0  0  0  0  0  0  0  0  0  0
    8.5706  -13.9885    0.0000 C   0  0  0  0  0  0  0  0  0  0  0  0
    8.5706  -13.1635    0.0000 C   0  0  0  0  0  0  0  0  0  0  0  0
    9.2851  -12.7510    0.0000 C   0  0  0  0  0  0  0  0  0  0  0  0
  1  2  1  0  0  0  0
  2  3  1  0  0  0  0
  3  4  1  0  0  0  0
  4  5  1  0  0  0  0
  5  6  2  0  0  0  0
  6  7  1  0  0  0  0
  7  8  1  0  0  0  0
  8  9  2  0  0  0  0
  4  9  1  0  0  0  0
  1  9  1  0  0  0  0
  7 10  2  0  0  0  0
 11 12  1  0  0  0  0
 12 13  2  0  0  0  0
  6 11  1  0  0  0  0
  3 14  1  6  0  0  0
 15 16  1  0  0  0  0
  4 15  1  6  0  0  0
 17 18  1  0  0  0  0
 18 19  1  0  0  0  0
 19 20  1  0  0  0  0
 20 21  1  0  0  0  0
 17 21  1  0  0  0  0
 22 23  1  0  0  0  0
 23 24  2  0  0  0  0
 24 25  1  0  0  0  0
 25 21  2  0  0  0  0
 22 20  2  0  0  0  0
  2 23  1  1  0  0  0
M  END
>  <cdx:groupId>
94959

>  <cdx:fragmentId>
94884

$$$$
