337.cdx
  Mrv1902 05222410272D          

 18 17  0  0  0  0            999 V2000
    2.5121   -8.5525    0.0000 O   0  0  0  0  0  0  0  0  0  0  0  0
    3.2266   -8.9650    0.0000 C   0  0  0  0  0  0  0  0  0  0  0  0
    3.9411   -8.5525    0.0000 C   0  0  0  0  0  0  0  0  0  0  0  0
    4.6555   -8.9650    0.0000 C   0  0  0  0  0  0  0  0  0  0  0  0
    5.3700   -8.5525    0.0000 C   0  0  0  0  0  0  0  0  0  0  0  0
    6.0845   -8.9650    0.0000 C   0  0  0  0  0  0  0  0  0  0  0  0
    6.7990   -8.5525    0.0000 C   0  0  0  0  0  0  0  0  0  0  0  0
    7.5134   -8.9650    0.0000 C   0  0  0  0  0  0  0  0  0  0  0  0
    8.2279   -8.5525    0.0000 C   0  0  0  0  0  0  0  0  0  0  0  0
    8.9424   -8.9650    0.0000 C   0  0  0  0  0  0  0  0  0  0  0  0
    9.6568   -8.5525    0.0000 C   0  0  0  0  0  0  0  0  0  0  0  0
    9.6568   -7.7275    0.0000 C   0  0  0  0  0  0  0  0  0  0  0  0
   10.3713   -7.3150    0.0000 C   0  0  0  0  0  0  0  0  0  0  0  0
   10.3713   -6.4900    0.0000 C   0  0  0  0  0  0  0  0  0  0  0  0
   11.0858   -6.0775    0.0000 C   0  0  0  0  0  0  0  0  0  0  0  0
   11.0858   -5.2525    0.0000 C   0  0  0  0  0  0  0  0  0  0  0  0
   11.8002   -4.8400    0.0000 C   0  0  0  0  0  0  0  0  0  0  0  0
    3.2266   -9.7900    0.0000 O   0  0  0  0  0  0  0  0  0  0  0  0
  1  2  1  0  0  0  0
  2  3  1  0  0  0  0
  3  4  1  0  0  0  0
  4  5  1  0  0  0  0
  5  6  1  0  0  0  0
  6  7  1  0  0  0  0
  7  8  1  0  0  0  0
  8  9  1  0  0  0  0
  9 10  1  0  0  0  0
 10 11  2  0  0  0  0
 11 12  1  0  0  0  0
 12 13  1  0  0  0  0
 13 14  1  0  0  0  0
 14 15  1  0  0  0  0
 15 16  1  0  0  0  0
 16 17  1  0  0  0  0
  2 18  2  0  0  0  0
M  END
>  <cdx:fragmentId>
7

$$$$
