33706.cdx
  Mrv1902 05222410222D          

 10 10  0  0  0  0            999 V2000
    8.6702   -7.0122    0.0000 C   0  0  0  0  0  0  0  0  0  0  0  0
    5.8126   -6.9763    0.0000 C   0  0  0  0  0  0  0  0  0  0  0  0
    7.9921   -4.1160    0.0000 O   0  0  0  0  0  0  0  0  0  0  0  0
    7.2725   -4.5195    0.0000 C   0  0  0  0  0  0  0  0  0  0  0  0
    6.5425   -5.7479    0.0000 C   0  0  0  0  0  0  0  0  0  0  0  0
    6.5322   -6.5728    0.0000 C   0  0  0  0  0  0  0  0  0  0  0  0
    7.2414   -6.9943    0.0000 C   0  0  0  0  0  0  0  0  0  0  0  0
    7.9610   -6.5908    0.0000 C   0  0  0  0  0  0  0  0  0  0  0  0
    7.9714   -5.7659    0.0000 C   0  0  0  0  0  0  0  0  0  0  0  0
    7.2621   -5.3444    0.0000 C   0  0  0  0  0  0  0  0  0  0  0  0
  8  1  1  0  0  0  0
  6  2  1  0  0  0  0
 10  4  1  0  0  0  0
  4  3  1  0  0  0  0
 10  5  2  0  0  0  0
  6  5  1  0  0  0  0
  7  6  2  0  0  0  0
  8  7  1  0  0  0  0
  9  8  2  0  0  0  0
 10  9  1  0  0  0  0
M  END
>  <cdx:fragmentId>
5

$$$$
