33740.cdx
  Mrv1902 05222410262D          

 15 14  0  0  0  0            999 V2000
    2.1168   -4.0560    0.0000 C   0  0  0  0  0  0  0  0  0  0  0  0
    2.8313   -3.6435    0.0000 C   0  0  0  0  0  0  0  0  0  0  0  0
    3.5458   -4.0560    0.0000 C   0  0  0  0  0  0  0  0  0  0  0  0
    4.2602   -3.6435    0.0000 C   0  0  0  0  0  0  0  0  0  0  0  0
    4.9747   -4.0560    0.0000 C   0  0  0  0  0  0  0  0  0  0  0  0
    5.6892   -3.6435    0.0000 C   0  0  0  0  0  0  0  0  0  0  0  0
    6.4036   -4.0560    0.0000 C   0  0  0  0  0  0  0  0  0  0  0  0
    7.1181   -3.6435    0.0000 C   0  0  0  0  0  0  0  0  0  0  0  0
    7.8326   -4.0560    0.0000 C   0  0  0  0  0  0  0  0  0  0  0  0
    8.5471   -3.6435    0.0000 C   0  0  0  0  0  0  0  0  0  0  0  0
    9.2615   -4.0560    0.0000 C   0  0  0  0  0  0  0  0  0  0  0  0
    9.9760   -3.6435    0.0000 C   0  0  0  0  0  0  0  0  0  0  0  0
   10.6905   -4.0560    0.0000 C   0  0  0  0  0  0  0  0  0  0  0  0
   11.4049   -3.6435    0.0000 C   0  0  0  0  0  0  0  0  0  0  0  0
    4.2602   -2.8185    0.0000 O   0  0  0  0  0  0  0  0  0  0  0  0
  1  2  1  0  0  0  0
  2  3  1  0  0  0  0
  3  4  1  0  0  0  0
  4  5  1  0  0  0  0
  5  6  1  0  0  0  0
  6  7  1  0  0  0  0
  7  8  1  0  0  0  0
  8  9  1  0  0  0  0
  9 10  1  0  0  0  0
 10 11  1  0  0  0  0
 11 12  1  0  0  0  0
 12 13  1  0  0  0  0
 13 14  1  0  0  0  0
  4 15  1  0  0  0  0
M  END
>  <cdx:groupId>
46

>  <cdx:fragmentId>
5

$$$$
