12337624.cdx
  Mrv1902 05222410232D          

 15 15  0  0  0  0            999 V2000
   14.3715   -8.9235    0.0000 C   0  0  0  0  0  0  0  0  0  0  0  0
   13.6570   -9.3360    0.0000 C   0  0  0  0  0  0  0  0  0  0  0  0
   12.9426   -8.9235    0.0000 C   0  0  0  0  0  0  0  0  0  0  0  0
   12.9426   -8.0985    0.0000 C   0  0  0  0  0  0  0  0  0  0  0  0
   14.3715   -8.0985    0.0000 O   0  0  0  0  0  0  0  0  0  0  0  0
   15.0860   -9.3360    0.0000 O   0  0  0  0  0  0  0  0  0  0  0  0
   13.6570  -10.1610    0.0000 C   0  0  0  0  0  0  0  0  0  0  0  0
   12.9426  -10.5735    0.0000 C   0  0  0  0  0  0  0  0  0  0  0  0
   12.9426  -11.3985    0.0000 C   0  0  0  0  0  0  0  0  0  0  0  0
   13.6570  -11.8110    0.0000 C   0  0  0  0  0  0  0  0  0  0  0  0
   14.3715  -11.3985    0.0000 C   0  0  0  0  0  0  0  0  0  0  0  0
   14.3715  -10.5735    0.0000 C   0  0  0  0  0  0  0  0  0  0  0  0
   12.2281   -9.3360    0.0000 C   0  0  0  0  0  0  0  0  0  0  0  0
   15.8004   -8.9235    0.0000 C   0  0  0  0  0  0  0  0  0  0  0  0
   16.5149   -9.3360    0.0000 C   0  0  0  0  0  0  0  0  0  0  0  0
  1  2  1  0  0  0  0
  2  3  1  0  0  0  0
  3  4  1  0  0  0  0
  1  5  2  0  0  0  0
  1  6  1  0  0  0  0
  7  8  1  0  0  0  0
  8  9  2  0  0  0  0
  9 10  1  0  0  0  0
 10 11  2  0  0  0  0
 11 12  1  0  0  0  0
  7 12  2  0  0  0  0
  2  7  1  0  0  0  0
  3 13  1  0  0  0  0
 14 15  1  0  0  0  0
  6 14  1  0  0  0  0
M  END
>  <cdx:groupId>
38811

>  <cdx:fragmentId>
38781

$$$$
