338.cdx
  Mrv1902 05222410182D          

 18 17  0  0  0  0            999 V2000
   12.9124   -6.4487    0.0000 C   0  0  0  0  0  0  0  0  0  0  0  0
   12.1979   -6.8613    0.0000 C   0  0  0  0  0  0  0  0  0  0  0  0
   11.4835   -6.4487    0.0000 C   0  0  0  0  0  0  0  0  0  0  0  0
   10.7690   -6.8613    0.0000 C   0  0  0  0  0  0  0  0  0  0  0  0
   10.0545   -6.4487    0.0000 C   0  0  0  0  0  0  0  0  0  0  0  0
    9.3401   -6.8613    0.0000 C   0  0  0  0  0  0  0  0  0  0  0  0
    8.6256   -6.4487    0.0000 C   0  0  0  0  0  0  0  0  0  0  0  0
    7.9111   -6.8613    0.0000 C   0  0  0  0  0  0  0  0  0  0  0  0
    7.1966   -6.4487    0.0000 C   0  0  0  0  0  0  0  0  0  0  0  0
    6.4822   -6.8613    0.0000 C   0  0  0  0  0  0  0  0  0  0  0  0
    5.7677   -6.4487    0.0000 C   0  0  0  0  0  0  0  0  0  0  0  0
    5.0532   -6.8613    0.0000 C   0  0  0  0  0  0  0  0  0  0  0  0
    4.3388   -6.4487    0.0000 C   0  0  0  0  0  0  0  0  0  0  0  0
    3.6243   -6.8613    0.0000 C   0  0  0  0  0  0  0  0  0  0  0  0
    2.9098   -6.4487    0.0000 C   0  0  0  0  0  0  0  0  0  0  0  0
    2.1953   -6.8613    0.0000 C   0  0  0  0  0  0  0  0  0  0  0  0
    1.4809   -6.4487    0.0000 O   0  0  0  0  0  0  0  0  0  0  0  0
    2.1953   -7.6863    0.0000 O   0  0  0  0  0  0  0  0  0  0  0  0
  1  2  1  0  0  0  0
  2  3  1  0  0  0  0
  3  4  1  0  0  0  0
  4  5  1  0  0  0  0
  5  6  1  0  0  0  0
  6  7  1  0  0  0  0
  7  8  1  0  0  0  0
  8  9  1  0  0  0  0
  9 10  1  0  0  0  0
 10 11  1  0  0  0  0
 11 12  1  0  0  0  0
 12 13  1  0  0  0  0
 13 14  1  0  0  0  0
 14 15  1  0  0  0  0
 15 16  1  0  0  0  0
 16 17  1  0  0  0  0
 16 18  2  0  0  0  0
M  END
>  <cdx:fragmentId>
3

$$$$
