3383.cdx
  Mrv1902 05222410232D          

 21 23  0  0  0  0            999 V2000
    7.3450   -8.0179    0.0000 C   0  0  0  0  0  0  0  0  0  0  0  0
    6.6305   -8.4304    0.0000 C   0  0  0  0  0  0  0  0  0  0  0  0
    5.9160   -8.0179    0.0000 C   0  0  0  0  0  0  0  0  0  0  0  0
    5.2016   -8.4304    0.0000 C   0  0  0  0  0  0  0  0  0  0  0  0
    4.4871   -8.0179    0.0000 C   0  0  0  0  0  0  0  0  0  0  0  0
    4.4871   -7.1929    0.0000 C   0  0  0  0  0  0  0  0  0  0  0  0
    5.2016   -6.7804    0.0000 C   0  0  0  0  0  0  0  0  0  0  0  0
    5.9160   -7.1929    0.0000 C   0  0  0  0  0  0  0  0  0  0  0  0
    6.6305   -6.7804    0.0000 O   0  0  0  0  0  0  0  0  0  0  0  0
    7.3450   -7.1929    0.0000 C   0  0  0  0  0  0  0  0  0  0  0  0
    8.0595   -8.4304    0.0000 C   0  0  0  0  0  0  0  0  0  0  0  0
    8.7739   -8.0179    0.0000 C   0  0  0  0  0  0  0  0  0  0  0  0
    9.4884   -8.4304    0.0000 C   0  0  0  0  0  0  0  0  0  0  0  0
    9.4884   -9.2554    0.0000 C   0  0  0  0  0  0  0  0  0  0  0  0
    8.7739   -9.6679    0.0000 C   0  0  0  0  0  0  0  0  0  0  0  0
    8.0595   -9.2554    0.0000 C   0  0  0  0  0  0  0  0  0  0  0  0
   10.2029   -9.6679    0.0000 O   0  0  0  0  0  0  0  0  0  0  0  0
   10.9173   -9.2554    0.0000 C   0  0  0  0  0  0  0  0  0  0  0  0
    3.7726   -6.7804    0.0000 O   0  0  0  0  0  0  0  0  0  0  0  0
   10.2029   -8.0179    0.0000 O   0  0  0  0  0  0  0  0  0  0  0  0
    8.7739   -7.1929    0.0000 O   0  0  0  0  0  0  0  0  0  0  0  0
  1  2  1  0  0  0  0
  2  3  1  0  0  0  0
  3  4  1  0  0  0  0
  4  5  2  0  0  0  0
  5  6  1  0  0  0  0
  6  7  2  0  0  0  0
  7  8  1  0  0  0  0
  3  8  2  0  0  0  0
  8  9  1  0  0  0  0
  9 10  1  0  0  0  0
  1 10  1  0  0  0  0
  1 11  1  0  0  0  0
 11 12  1  0  0  0  0
 12 13  2  0  0  0  0
 13 14  1  0  0  0  0
 14 15  2  0  0  0  0
 15 16  1  0  0  0  0
 11 16  2  0  0  0  0
 17 18  1  0  0  0  0
 14 17  1  0  0  0  0
  6 19  1  0  0  0  0
 13 20  1  0  0  0  0
 12 21  1  0  0  0  0
M  END
>  <cdx:fragmentId>
5

$$$$
