10033855.cdx
  Mrv1902 05222410232D          

 69 74  0  0  0  0            999 V2000
    4.6025  -12.4624    0.0000 C   0  0  0  0  0  0  0  0  0  0  0  0
    3.8880  -12.8749    0.0000 C   0  0  0  0  0  0  0  0  0  0  0  0
    3.1735  -12.4624    0.0000 C   0  0  0  0  0  0  0  0  0  0  0  0
    4.6025  -11.6374    0.0000 O   0  0  0  0  0  0  0  0  0  0  0  0
    5.3170  -12.8749    0.0000 O   0  0  0  0  0  0  0  0  0  0  0  0
    2.4591  -12.8749    0.0000 C   0  0  0  0  0  0  0  0  0  0  0  0
    2.4591  -13.6999    0.0000 C   0  0  0  0  0  0  0  0  0  0  0  0
    1.7446  -14.1124    0.0000 C   0  0  0  0  0  0  0  0  0  0  0  0
    1.0301  -13.6999    0.0000 C   0  0  0  0  0  0  0  0  0  0  0  0
    1.0301  -12.8749    0.0000 C   0  0  0  0  0  0  0  0  0  0  0  0
    1.7446  -12.4624    0.0000 C   0  0  0  0  0  0  0  0  0  0  0  0
    0.3157  -14.1124    0.0000 O   0  0  0  0  0  0  0  0  0  0  0  0
    6.0314  -12.4624    0.0000 C   0  0  0  0  0  0  0  0  0  0  0  0
    7.4996  -12.5394    0.0000 O   0  0  0  0  0  0  0  0  0  0  0  0
    6.7459  -12.8749    0.0000 C   0  0  1  0  0  0  0  0  0  0  0  0
    6.8321  -13.6954    0.0000 C   0  0  2  0  0  0  0  0  0  0  0  0
    7.6391  -13.8669    0.0000 C   0  0  1  0  0  0  0  0  0  0  0  0
    8.0516  -13.1525    0.0000 C   0  0  2  0  0  0  0  0  0  0  0  0
    8.7191  -12.6675    0.0000 O   0  0  0  0  0  0  0  0  0  0  0  0
    9.3003  -11.3621    0.0000 O   0  0  0  0  0  0  0  0  0  0  0  0
    8.6328  -11.8471    0.0000 C   0  0  1  0  0  0  0  0  0  0  0  0
    7.8791  -11.5115    0.0000 C   0  0  1  0  0  0  0  0  0  0  0  0
    7.7929  -10.6910    0.0000 C   0  0  2  0  0  0  0  0  0  0  0  0
    8.4603  -10.2061    0.0000 C   0  0  1  0  0  0  0  0  0  0  0  0
    9.2140  -10.5417    0.0000 C   0  0  1  0  0  0  0  0  0  0  0  0
    9.8815  -10.0567    0.0000 C   0  0  0  0  0  0  0  0  0  0  0  0
   10.6351  -10.3923    0.0000 O   0  0  0  0  0  0  0  0  0  0  0  0
   11.3026   -9.9074    0.0000 C   0  0  0  0  0  0  0  0  0  0  0  0
   12.0562  -10.2429    0.0000 C   0  0  0  0  0  0  0  0  0  0  0  0
   12.7237   -9.7580    0.0000 C   0  0  0  0  0  0  0  0  0  0  0  0
   11.2163   -9.0869    0.0000 O   0  0  0  0  0  0  0  0  0  0  0  0
   13.4774  -10.0936    0.0000 C   0  0  0  0  0  0  0  0  0  0  0  0
   14.1448   -9.6086    0.0000 C   0  0  0  0  0  0  0  0  0  0  0  0
   14.8985   -9.9442    0.0000 C   0  0  0  0  0  0  0  0  0  0  0  0
   14.9847  -10.7647    0.0000 C   0  0  0  0  0  0  0  0  0  0  0  0
   14.3173  -11.2496    0.0000 C   0  0  0  0  0  0  0  0  0  0  0  0
   13.5636  -10.9140    0.0000 C   0  0  0  0  0  0  0  0  0  0  0  0
   15.5659   -9.4593    0.0000 O   0  0  0  0  0  0  0  0  0  0  0  0
   16.3196   -9.7948    0.0000 C   0  0  0  0  0  0  0  0  0  0  0  0
   15.7384  -11.1002    0.0000 O   0  0  0  0  0  0  0  0  0  0  0  0
    8.3741   -9.3856    0.0000 O   0  0  0  0  0  0  0  0  0  0  0  0
    7.0392  -10.3555    0.0000 O   0  0  0  0  0  0  0  0  0  0  0  0
    7.2117  -11.9964    0.0000 O   0  0  0  0  0  0  0  0  0  0  0  0
    8.8053  -13.4880    0.0000 C   0  0  0  0  0  0  0  0  0  0  0  0
    8.8915  -14.3085    0.0000 O   0  0  0  0  0  0  0  0  0  0  0  0
    9.6452  -14.6441    0.0000 C   0  0  0  0  0  0  0  0  0  0  0  0
   10.3126  -14.1591    0.0000 C   0  0  0  0  0  0  0  0  0  0  0  0
   11.0663  -14.4947    0.0000 C   0  0  0  0  0  0  0  0  0  0  0  0
    9.7314  -15.4645    0.0000 O   0  0  0  0  0  0  0  0  0  0  0  0
   11.7338  -14.0098    0.0000 C   0  0  0  0  0  0  0  0  0  0  0  0
   11.6475  -13.1893    0.0000 C   0  0  0  0  0  0  0  0  0  0  0  0
   12.3150  -12.7044    0.0000 C   0  0  0  0  0  0  0  0  0  0  0  0
   13.0686  -13.0399    0.0000 C   0  0  0  0  0  0  0  0  0  0  0  0
   13.1549  -13.8604    0.0000 C   0  0  0  0  0  0  0  0  0  0  0  0
   12.4874  -14.3453    0.0000 C   0  0  0  0  0  0  0  0  0  0  0  0
   13.7361  -12.5550    0.0000 O   0  0  0  0  0  0  0  0  0  0  0  0
    7.9747  -14.6206    0.0000 O   0  0  0  0  0  0  0  0  0  0  0  0
    7.4897  -15.2881    0.0000 C   0  0  0  0  0  0  0  0  0  0  0  0
    6.6693  -15.2018    0.0000 C   0  0  0  0  0  0  0  0  0  0  0  0
    6.1843  -15.8693    0.0000 C   0  0  0  0  0  0  0  0  0  0  0  0
    7.8253  -16.0417    0.0000 O   0  0  0  0  0  0  0  0  0  0  0  0
    5.3639  -15.7830    0.0000 C   0  0  0  0  0  0  0  0  0  0  0  0
    4.8789  -16.4505    0.0000 C   0  0  0  0  0  0  0  0  0  0  0  0
    4.0585  -16.3642    0.0000 C   0  0  0  0  0  0  0  0  0  0  0  0
    3.7229  -15.6105    0.0000 C   0  0  0  0  0  0  0  0  0  0  0  0
    4.2078  -14.9431    0.0000 C   0  0  0  0  0  0  0  0  0  0  0  0
    5.0283  -15.0293    0.0000 C   0  0  0  0  0  0  0  0  0  0  0  0
    2.9024  -15.5243    0.0000 O   0  0  0  0  0  0  0  0  0  0  0  0
    6.2190  -14.2474    0.0000 O   0  0  0  0  0  0  0  0  0  0  0  0
  1  2  1  0  0  0  0
  2  3  2  0  0  0  0
  1  4  2  0  0  0  0
  1  5  1  0  0  0  0
  6  7  1  0  0  0  0
  7  8  2  0  0  0  0
  8  9  1  0  0  0  0
  9 10  2  0  0  0  0
 10 11  1  0  0  0  0
  6 11  2  0  0  0  0
  9 12  1  0  0  0  0
  3  6  1  0  0  0  0
 14 15  1  0  0  0  0
 15 16  1  0  0  0  0
 16 17  1  0  0  0  0
 17 18  1  0  0  0  0
 14 18  1  0  0  0  0
 20 21  1  0  0  0  0
 21 22  1  0  0  0  0
 22 23  1  0  0  0  0
 23 24  1  0  0  0  0
 24 25  1  0  0  0  0
 20 25  1  0  0  0  0
 28 29  1  0  0  0  0
 29 30  2  0  0  0  0
 28 31  2  0  0  0  0
 32 33  1  0  0  0  0
 33 34  2  0  0  0  0
 34 35  1  0  0  0  0
 35 36  2  0  0  0  0
 36 37  1  0  0  0  0
 32 37  2  0  0  0  0
 38 39  1  0  0  0  0
 34 38  1  0  0  0  0
 35 40  1  0  0  0  0
 30 32  1  0  0  0  0
 27 28  1  0  0  0  0
 26 27  1  0  0  0  0
 25 26  1  1  0  0  0
 24 41  1  6  0  0  0
 23 42  1  1  0  0  0
 22 43  1  6  0  0  0
 21 19  1  6  0  0  0
 18 19  1  1  0  0  0
 46 47  1  0  0  0  0
 47 48  2  0  0  0  0
 46 49  2  0  0  0  0
 50 51  1  0  0  0  0
 51 52  2  0  0  0  0
 52 53  1  0  0  0  0
 53 54  2  0  0  0  0
 54 55  1  0  0  0  0
 50 55  2  0  0  0  0
 53 56  1  0  0  0  0
 48 50  1  0  0  0  0
 45 46  1  0  0  0  0
 44 45  1  0  0  0  0
 18 44  1  6  0  0  0
 58 59  1  0  0  0  0
 59 60  2  0  0  0  0
 58 61  2  0  0  0  0
 62 63  1  0  0  0  0
 63 64  2  0  0  0  0
 64 65  1  0  0  0  0
 65 66  2  0  0  0  0
 66 67  1  0  0  0  0
 62 67  2  0  0  0  0
 65 68  1  0  0  0  0
 60 62  1  0  0  0  0
 57 58  1  0  0  0  0
 17 57  1  1  0  0  0
 16 69  1  6  0  0  0
 15 13  1  1  0  0  0
  5 13  1  0  0  0  0
M  END
>  <cdx:groupId>
37320

>  <cdx:fragmentId>
37173

$$$$
