33867.cdx
  Mrv1902 05222410242D          

 15 15  0  0  0  0            999 V2000
    5.9227   -8.1263    0.0000 C   0  0  0  0  0  0  0  0  0  0  0  0
    5.9227   -8.9513    0.0000 C   0  0  0  0  0  0  0  0  0  0  0  0
    6.6371   -9.3637    0.0000 C   0  0  0  0  0  0  0  0  0  0  0  0
    7.3516   -8.9513    0.0000 C   0  0  0  0  0  0  0  0  0  0  0  0
    7.3516   -8.1263    0.0000 C   0  0  0  0  0  0  0  0  0  0  0  0
    6.6371   -7.7138    0.0000 C   0  0  0  0  0  0  0  0  0  0  0  0
    6.6371  -10.1888    0.0000 C   0  0  0  0  0  0  0  0  0  0  0  0
    6.6371   -6.8888    0.0000 C   0  0  0  0  0  0  0  0  0  0  0  0
    7.3516   -6.4763    0.0000 C   0  0  0  0  0  0  0  0  0  0  0  0
    5.9227   -6.4763    0.0000 C   0  0  0  0  0  0  0  0  0  0  0  0
    5.9227   -5.6512    0.0000 C   0  0  0  0  0  0  0  0  0  0  0  0
    5.2082   -5.2387    0.0000 C   0  0  0  0  0  0  0  0  0  0  0  0
    5.2082   -4.4138    0.0000 C   0  0  0  0  0  0  0  0  0  0  0  0
    5.9227   -4.0012    0.0000 C   0  0  0  0  0  0  0  0  0  0  0  0
    4.4937   -4.0012    0.0000 C   0  0  0  0  0  0  0  0  0  0  0  0
  1  2  1  0  0  0  0
  2  3  1  0  0  0  0
  3  4  2  0  0  0  0
  4  5  1  0  0  0  0
  5  6  1  0  0  0  0
  6  1  1  0  0  0  0
  3  7  1  0  0  0  0
  6  8  2  0  0  0  0
  8  9  1  0  0  0  0
  8 10  1  0  0  0  0
 10 11  1  0  0  0  0
 11 12  1  0  0  0  0
 12 13  2  0  0  0  0
 13 14  1  0  0  0  0
 13 15  1  0  0  0  0
M  END
>  <cdx:fragmentId>
18389

$$$$
