33868.cdx
  Mrv1902 05222410232D          

 15 15  0  0  0  0            999 V2000
    5.3298   -8.7898    0.0000 C   0  0  0  0  0  0  0  0  0  0  0  0
    6.0442   -9.2026    0.0000 C   0  0  0  0  0  0  0  0  0  0  0  0
    6.7588   -8.7903    0.0000 C   0  0  0  0  0  0  0  0  0  0  0  0
    6.7590   -7.9653    0.0000 C   0  0  0  0  0  0  0  0  0  0  0  0
    6.0447   -7.5526    0.0000 C   0  0  0  0  0  0  0  0  0  0  0  0
    5.3301   -7.9648    0.0000 C   0  0  0  0  0  0  0  0  0  0  0  0
    6.0449   -6.7276    0.0000 C   0  0  0  0  0  0  0  0  0  0  0  0
    6.0439  -10.0276    0.0000 C   0  0  0  0  0  0  0  0  0  0  0  0
    5.3306   -6.3148    0.0000 C   0  0  0  0  0  0  0  0  0  0  0  0
    6.7595   -6.3153    0.0000 C   0  0  0  0  0  0  0  0  0  0  0  0
    6.7598   -5.4903    0.0000 C   0  0  0  0  0  0  0  0  0  0  0  0
    7.4744   -5.0780    0.0000 C   0  0  0  0  0  0  0  0  0  0  0  0
    7.4746   -4.2530    0.0000 C   0  0  0  0  0  0  0  0  0  0  0  0
    8.1892   -3.8407    0.0000 C   0  0  0  0  0  0  0  0  0  0  0  0
    6.7602   -3.8403    0.0000 C   0  0  0  0  0  0  0  0  0  0  0  0
  1  2  1  0  0  0  0
  2  3  2  0  0  0  0
  3  4  1  0  0  0  0
  4  5  1  0  0  0  0
  5  6  1  0  0  0  0
  6  1  1  0  0  0  0
  7  5  2  0  0  0  0
  2  8  1  0  0  0  0
  7  9  1  0  0  0  0
  7 10  1  0  0  0  0
 10 11  1  0  0  0  0
 11 12  1  0  0  0  0
 12 13  2  0  0  0  0
 13 14  1  0  0  0  0
 13 15  1  0  0  0  0
M  END
>  <cdx:fragmentId>
5

$$$$
