33866.cdx
  Mrv1902 05222410242D          

 15 15  0  0  0  0            999 V2000
    5.3277   -8.7886    0.0000 C   0  0  0  0  0  0  0  0  0  0  0  0
    6.0417   -9.2020    0.0000 C   0  0  0  0  0  0  0  0  0  0  0  0
    6.7567   -8.7904    0.0000 C   0  0  0  0  0  0  0  0  0  0  0  0
    6.7577   -7.9654    0.0000 C   0  0  0  0  0  0  0  0  0  0  0  0
    6.0438   -7.5520    0.0000 C   0  0  0  0  0  0  0  0  0  0  0  0
    5.3288   -7.9636    0.0000 C   0  0  0  0  0  0  0  0  0  0  0  0
    6.0448   -6.7270    0.0000 C   0  0  0  0  0  0  0  0  0  0  0  0
    6.0407  -10.0270    0.0000 C   0  0  0  0  0  0  0  0  0  0  0  0
    5.3309   -6.3136    0.0000 C   0  0  0  0  0  0  0  0  0  0  0  0
    6.7598   -6.3154    0.0000 C   0  0  0  0  0  0  0  0  0  0  0  0
    6.7609   -5.4904    0.0000 C   0  0  0  0  0  0  0  0  0  0  0  0
    7.4759   -5.0788    0.0000 C   0  0  0  0  0  0  0  0  0  0  0  0
    7.4769   -4.2538    0.0000 C   0  0  0  0  0  0  0  0  0  0  0  0
    8.1919   -3.8422    0.0000 C   0  0  0  0  0  0  0  0  0  0  0  0
    6.7629   -3.8404    0.0000 C   0  0  0  0  0  0  0  0  0  0  0  0
  1  2  1  0  0  0  0
  2  3  2  0  0  0  0
  3  4  1  0  0  0  0
  4  5  1  0  0  0  0
  5  6  1  0  0  0  0
  6  1  1  0  0  0  0
  7  5  2  3  0  0  0
  2  8  1  0  0  0  0
  7  9  1  0  0  0  0
  7 10  1  0  0  0  0
 10 11  1  0  0  0  0
 11 12  1  0  0  0  0
 12 13  2  0  0  0  0
 13 14  1  0  0  0  0
 13 15  1  0  0  0  0
M  END
>  <cdx:fragmentId>
5

$$$$
