339.cdx
  Mrv1902 05222410182D          

 20 19  0  0  0  0            999 V2000
    3.6070   -8.9496    0.0000 C   0  0  0  0  0  0  0  0  0  0  0  0
    4.3215   -8.5371    0.0000 C   0  0  0  0  0  0  0  0  0  0  0  0
    5.0360   -8.9496    0.0000 C   0  0  0  0  0  0  0  0  0  0  0  0
    5.7504   -8.5371    0.0000 C   0  0  0  0  0  0  0  0  0  0  0  0
    6.4649   -8.9496    0.0000 C   0  0  0  0  0  0  0  0  0  0  0  0
    7.1794   -8.5371    0.0000 C   0  0  0  0  0  0  0  0  0  0  0  0
    7.8939   -8.9496    0.0000 C   0  0  0  0  0  0  0  0  0  0  0  0
    8.6083   -8.5371    0.0000 C   0  0  0  0  0  0  0  0  0  0  0  0
    9.3228   -8.9496    0.0000 C   0  0  0  0  0  0  0  0  0  0  0  0
    3.6070   -9.7746    0.0000 O   0  0  0  0  0  0  0  0  0  0  0  0
    2.8926   -8.5371    0.0000 O   0  0  0  0  0  0  0  0  0  0  0  0
   10.0373   -8.5371    0.0000 C   0  0  0  0  0  0  0  0  0  0  0  0
   10.0373   -7.7121    0.0000 C   0  0  0  0  0  0  0  0  0  0  0  0
   10.7517   -7.2996    0.0000 C   0  0  0  0  0  0  0  0  0  0  0  0
   10.7517   -6.4746    0.0000 C   0  0  0  0  0  0  0  0  0  0  0  0
   10.0373   -6.0621    0.0000 C   0  0  0  0  0  0  0  0  0  0  0  0
   10.0373   -5.2371    0.0000 C   0  0  0  0  0  0  0  0  0  0  0  0
    9.3228   -4.8246    0.0000 C   0  0  0  0  0  0  0  0  0  0  0  0
    9.3228   -3.9996    0.0000 C   0  0  0  0  0  0  0  0  0  0  0  0
    8.6083   -3.5871    0.0000 C   0  0  0  0  0  0  0  0  0  0  0  0
  1  2  1  0  0  0  0
  2  3  1  0  0  0  0
  3  4  1  0  0  0  0
  4  5  1  0  0  0  0
  5  6  1  0  0  0  0
  6  7  1  0  0  0  0
  7  8  1  0  0  0  0
  8  9  1  0  0  0  0
  1 10  2  0  0  0  0
  1 11  1  0  0  0  0
  9 12  2  0  0  0  0
 12 13  1  0  0  0  0
 13 14  1  0  0  0  0
 14 15  2  0  0  0  0
 15 16  1  0  0  0  0
 16 17  1  0  0  0  0
 17 18  1  0  0  0  0
 18 19  1  0  0  0  0
 19 20  1  0  0  0  0
M  END
>  <cdx:fragmentId>
5

$$$$
