339032.cdx
  Mrv1902 05222410222D          

 42 48  0  0  0  0            999 V2000
    7.6385   -8.2348    0.0000 C   0  0  0  0  0  0  0  0  0  0  0  0
    6.9187   -7.8318    0.0000 O   0  0  0  0  0  0  0  0  0  0  0  0
    6.2097   -8.2537    0.0000 C   0  0  0  0  0  0  0  0  0  0  0  0
    5.4899   -7.8506    0.0000 C   0  0  0  0  0  0  0  0  0  0  0  0
    4.7809   -8.2725    0.0000 C   0  0  0  0  0  0  0  0  0  0  0  0
    4.7918   -9.0974    0.0000 C   0  0  0  0  0  0  0  0  0  0  0  0
    5.5116   -9.5005    0.0000 C   0  0  0  0  0  0  0  0  0  0  0  0
    6.2206   -9.0786    0.0000 C   0  0  0  0  0  0  0  0  0  0  0  0
    6.9404   -9.4816    0.0000 C   0  0  1  0  0  0  0  0  0  0  0  0
    6.9502  -10.3066    0.0000 C   0  0  0  0  0  0  0  0  0  0  0  0
    7.6702  -10.7094    0.0000 C   0  0  0  0  0  0  0  0  0  0  0  0
    8.3793  -10.2877    0.0000 C   0  0  0  0  0  0  0  0  0  0  0  0
    8.3693   -9.4628    0.0000 C   0  0  2  0  0  0  0  0  0  0  0  0
    9.0782   -9.0409    0.0000 C   0  0  0  0  0  0  0  0  0  0  0  0
    9.7981   -9.4439    0.0000 C   0  0  0  0  0  0  0  0  0  0  0  0
   10.5070   -9.0221    0.0000 C   0  0  0  0  0  0  0  0  0  0  0  0
   10.4962   -8.1971    0.0000 C   0  0  0  0  0  0  0  0  0  0  0  0
    9.7763   -7.7941    0.0000 C   0  0  0  0  0  0  0  0  0  0  0  0
    9.0673   -8.2160    0.0000 C   0  0  0  0  0  0  0  0  0  0  0  0
    8.3475   -7.8129    0.0000 O   0  0  0  0  0  0  0  0  0  0  0  0
    7.6494   -9.0598    0.0000 C   0  0  1  0  0  0  0  0  0  0  0  0
    4.0610   -7.8695    0.0000 C   0  0  0  0  0  0  0  0  0  0  0  0
    3.3521   -8.2914    0.0000 O   0  0  0  0  0  0  0  0  0  0  0  0
    7.6811  -11.5343    0.0000 C   0  0  0  0  0  0  0  0  0  0  0  0
   11.2051   -7.7752    0.0000 O   0  0  0  0  0  0  0  0  0  0  0  0
    5.5225  -10.3254    0.0000 O   0  0  0  0  0  0  0  0  0  0  0  0
    6.2315   -9.9035    0.0000 H   0  0  0  0  0  0  0  0  0  0  0  0
    9.0891   -9.8658    0.0000 H   0  0  0  0  0  0  0  0  0  0  0  0
    7.6603   -9.8847    0.0000 H   0  0  0  0  0  0  0  0  0  0  0  0
    7.5917   -4.6876    0.0000 O   0  0  0  0  0  0  0  0  0  0  0  0
   10.5871   -6.7108    0.0000 C   0  0  0  0  0  0  0  0  0  0  0  0
   10.1841   -7.4307    0.0000 C   0  0  0  0  0  0  0  0  0  0  0  0
    9.0532   -7.1436    0.0000 O   0  0  0  0  0  0  0  0  0  0  0  0
    8.3333   -6.7405    0.0000 C   0  0  0  0  0  0  0  0  0  0  0  0
    7.6244   -7.1624    0.0000 C   0  0  0  0  0  0  0  0  0  0  0  0
    6.9045   -6.7594    0.0000 C   0  0  0  0  0  0  0  0  0  0  0  0
    6.8936   -5.9345    0.0000 C   0  0  0  0  0  0  0  0  0  0  0  0
    7.6026   -5.5126    0.0000 C   0  0  0  0  0  0  0  0  0  0  0  0
    8.3225   -5.9156    0.0000 C   0  0  0  0  0  0  0  0  0  0  0  0
    9.0314   -5.4937    0.0000 C   0  0  0  0  0  0  0  0  0  0  0  0
    9.7513   -5.8968    0.0000 C   0  0  0  0  0  0  0  0  0  0  0  0
    9.7622   -6.7217    0.0000 C   0  0  0  0  0  0  0  0  0  0  0  0
 38 30  1  0  0  0  0
 42 31  1  0  0  0  0
 42 32  1  0  0  0  0
 42 33  1  0  0  0  0
 34 33  1  0  0  0  0
 39 34  2  0  0  0  0
 35 34  1  0  0  0  0
 36 35  2  0  0  0  0
 37 36  1  0  0  0  0
 38 37  2  0  0  0  0
 39 38  1  0  0  0  0
 40 39  1  0  0  0  0
 41 40  2  0  0  0  0
  1  2  1  0  0  0  0
  2  3  1  0  0  0  0
  3  4  2  0  0  0  0
  4  5  1  0  0  0  0
  5  6  2  0  0  0  0
  6  7  1  0  0  0  0
  7  8  2  0  0  0  0
  8  9  1  0  0  0  0
  9 10  1  0  0  0  0
 10 11  2  0  0  0  0
 11 12  1  0  0  0  0
 12 13  1  0  0  0  0
 13 14  1  0  0  0  0
 14 15  1  0  0  0  0
 15 16  2  0  0  0  0
 16 17  1  0  0  0  0
 17 18  2  0  0  0  0
 18 19  1  0  0  0  0
 19 20  1  0  0  0  0
  1 20  1  0  0  0  0
  1 21  1  0  0  0  0
 21 13  1  0  0  0  0
 14 19  2  0  0  0  0
  3  8  1  0  0  0  0
  9 21  1  0  0  0  0
 22 23  2  0  0  0  0
  5 22  1  0  0  0  0
 11 24  1  0  0  0  0
 42 41  1  0  0  0  0
  1 35  1  0  0  0  0
 17 25  1  0  0  0  0
  7 26  1  0  0  0  0
  9 27  1  1  0  0  0
 13 28  1  6  0  0  0
 21 29  1  1  0  0  0
M  END
>  <cdx:fragmentId>
36060

$$$$
