339347.cdx
  Mrv1902 05222410222D          

 24 23  0  0  0  0            999 V2000
    7.1102   -9.6988    0.0000 O   0  0  0  0  0  0  0  0  0  0  0  0
    4.9668   -7.6363    0.0000 O   0  0  0  0  0  0  0  0  0  0  0  0
    4.2523   -9.6988    0.0000 O   0  0  0  0  0  0  0  0  0  0  0  0
    2.8234   -9.6988    0.0000 O   0  0  0  0  0  0  0  0  0  0  0  0
   13.5405   -8.4613    0.0000 O   0  0  0  0  0  0  0  0  0  0  0  0
   12.8260   -9.6988    0.0000 O   0  0  0  0  0  0  0  0  0  0  0  0
    0.6800   -8.4613    0.0000 C   0  0  0  0  0  0  0  0  0  0  0  0
    1.3945   -8.8738    0.0000 C   0  0  0  0  0  0  0  0  0  0  0  0
    2.1089   -8.4613    0.0000 C   0  0  0  0  0  0  0  0  0  0  0  0
    2.8234   -8.8738    0.0000 C   0  0  2  0  0  0  0  0  0  0  0  0
    3.5379   -8.4613    0.0000 C   0  0  0  0  0  0  0  0  0  0  0  0
    4.2523   -8.8738    0.0000 C   0  0  1  0  0  0  0  0  0  0  0  0
    4.9668   -8.4613    0.0000 C   0  0  2  0  0  0  0  0  0  0  0  0
    5.6813   -8.8738    0.0000 C   0  0  0  0  0  0  0  0  0  0  0  0
    6.3958   -8.4613    0.0000 C   0  0  0  0  0  0  0  0  0  0  0  0
    7.1102   -8.8738    0.0000 C   0  0  2  0  0  0  0  0  0  0  0  0
    7.8247   -8.4613    0.0000 C   0  0  0  0  0  0  0  0  0  0  0  0
    8.5392   -8.8738    0.0000 C   0  0  0  0  0  0  0  0  0  0  0  0
    9.2536   -8.4613    0.0000 C   0  0  0  0  0  0  0  0  0  0  0  0
    9.9681   -8.8738    0.0000 C   0  0  0  0  0  0  0  0  0  0  0  0
   10.6826   -8.4613    0.0000 C   0  0  0  0  0  0  0  0  0  0  0  0
   11.3970   -8.8738    0.0000 C   0  0  0  0  0  0  0  0  0  0  0  0
   12.1115   -8.4613    0.0000 C   0  0  0  0  0  0  0  0  0  0  0  0
   12.8260   -8.8738    0.0000 C   0  0  0  0  0  0  0  0  0  0  0  0
 16  1  1  6  0  0  0
 13  2  1  1  0  0  0
 12  3  1  1  0  0  0
 10  4  1  6  0  0  0
 24  5  1  0  0  0  0
 24  6  2  0  0  0  0
  8  7  1  0  0  0  0
  9  8  2  0  0  0  0
 10  9  1  0  0  0  0
 11 10  1  0  0  0  0
 12 11  1  0  0  0  0
 13 12  1  0  0  0  0
 14 13  1  0  0  0  0
 15 14  2  0  0  0  0
 16 15  1  0  0  0  0
 17 16  1  0  0  0  0
 18 17  1  0  0  0  0
 19 18  1  0  0  0  0
 20 19  1  0  0  0  0
 21 20  1  0  0  0  0
 22 21  1  0  0  0  0
 23 22  1  0  0  0  0
 24 23  1  0  0  0  0
M  END
>  <cdx:fragmentId>
36432

$$$$
