3393.cdx
  Mrv1902 05222410202D          

 11 12  0  0  0  0            999 V2000
    5.9468   -8.6447    0.0000 C   0  0  0  0  0  0  0  0  0  0  0  0
    6.7437   -8.4312    0.0000 C   0  0  0  0  0  0  0  0  0  0  0  0
    7.5406   -8.6447    0.0000 C   0  0  0  0  0  0  0  0  0  0  0  0
    6.3593   -7.9303    0.0000 C   0  0  0  0  0  0  0  0  0  0  0  0
    7.9531   -7.9303    0.0000 C   0  0  0  0  0  0  0  0  0  0  0  0
    7.1562   -7.7167    0.0000 C   0  0  0  0  0  0  0  0  0  0  0  0
    6.6825   -7.3975    0.0000 O   0  0  0  0  0  0  0  0  0  0  0  0
    7.1562   -6.8917    0.0000 C   0  0  0  0  0  0  0  0  0  0  0  0
    6.7437   -6.1773    0.0000 C   0  0  0  0  0  0  0  0  0  0  0  0
    7.5687   -6.1773    0.0000 C   0  0  0  0  0  0  0  0  0  0  0  0
    6.3312   -9.1457    0.0000 C   0  0  0  0  0  0  0  0  0  0  0  0
  1  2  1  0  0  0  0
  2  3  1  0  0  0  0
  1  4  1  0  0  0  0
  3  5  2  0  0  0  0
  4  6  1  0  0  0  0
  6  5  1  0  0  0  0
  2  7  1  0  0  0  0
  6  8  1  0  0  0  0
  8  7  1  0  0  0  0
  8  9  1  0  0  0  0
  8 10  1  0  0  0  0
  2 11  1  0  0  0  0
M  END
>  <cdx:fragmentId>
802

$$$$
