33934.cdx
  Mrv1902 05222410232D          

 28 28  0  0  0  0            999 V2000
    2.5312   -6.9016    0.0000 C   0  0  0  0  0  0  0  0  0  0  0  0
    2.5312   -6.0766    0.0000 C   0  0  0  0  0  0  0  0  0  0  0  0
    1.8167   -5.6641    0.0000 C   0  0  0  0  0  0  0  0  0  0  0  0
    1.1022   -6.0766    0.0000 C   0  0  0  0  0  0  0  0  0  0  0  0
    1.1022   -6.9016    0.0000 C   0  0  0  0  0  0  0  0  0  0  0  0
    1.8167   -7.3141    0.0000 C   0  0  0  0  0  0  0  0  0  0  0  0
    3.2456   -7.3141    0.0000 C   0  0  0  0  0  0  0  0  0  0  0  0
    3.2456   -8.1391    0.0000 O   0  0  0  0  0  0  0  0  0  0  0  0
    3.9601   -6.9016    0.0000 O   0  0  0  0  0  0  0  0  0  0  0  0
    3.2456   -5.6641    0.0000 C   0  0  0  0  0  0  0  0  0  0  0  0
    3.9601   -6.0766    0.0000 O   0  0  0  0  0  0  0  0  0  0  0  0
    3.2456   -4.8391    0.0000 O   0  0  0  0  0  0  0  0  0  0  0  0
    4.6746   -7.3141    0.0000 C   0  0  0  0  0  0  0  0  0  0  0  0
    5.3890   -6.9016    0.0000 C   0  0  0  0  0  0  0  0  0  0  0  0
    6.1035   -7.3141    0.0000 C   0  0  0  0  0  0  0  0  0  0  0  0
    6.8180   -6.9016    0.0000 C   0  0  0  0  0  0  0  0  0  0  0  0
    7.5325   -7.3141    0.0000 C   0  0  0  0  0  0  0  0  0  0  0  0
    8.2469   -6.9016    0.0000 C   0  0  0  0  0  0  0  0  0  0  0  0
    8.9614   -7.3141    0.0000 C   0  0  0  0  0  0  0  0  0  0  0  0
    8.2469   -6.0766    0.0000 C   0  0  0  0  0  0  0  0  0  0  0  0
    3.9601   -4.4266    0.0000 C   0  0  0  0  0  0  0  0  0  0  0  0
    3.9601   -3.6016    0.0000 C   0  0  0  0  0  0  0  0  0  0  0  0
    4.6746   -3.1891    0.0000 C   0  0  0  0  0  0  0  0  0  0  0  0
    4.6746   -2.3641    0.0000 C   0  0  0  0  0  0  0  0  0  0  0  0
    5.3890   -1.9516    0.0000 C   0  0  0  0  0  0  0  0  0  0  0  0
    5.3890   -1.1266    0.0000 C   0  0  0  0  0  0  0  0  0  0  0  0
    6.1035   -0.7141    0.0000 C   0  0  0  0  0  0  0  0  0  0  0  0
    4.6746   -0.7141    0.0000 C   0  0  0  0  0  0  0  0  0  0  0  0
  1  2  1  0  0  0  0
  2  3  2  0  0  0  0
  3  4  1  0  0  0  0
  4  5  2  0  0  0  0
  5  6  1  0  0  0  0
  1  6  2  0  0  0  0
  7  8  2  0  0  0  0
  7  9  1  0  0  0  0
  1  7  1  0  0  0  0
 10 11  2  0  0  0  0
 10 12  1  0  0  0  0
  2 10  1  0  0  0  0
 13 14  1  0  0  0  0
 14 15  1  0  0  0  0
 15 16  1  0  0  0  0
 16 17  1  0  0  0  0
 17 18  1  0  0  0  0
 18 19  1  0  0  0  0
 20 18  1  0  0  0  0
  9 13  1  0  0  0  0
 21 22  1  0  0  0  0
 22 23  1  0  0  0  0
 23 24  1  0  0  0  0
 24 25  1  0  0  0  0
 25 26  1  0  0  0  0
 26 27  1  0  0  0  0
 28 26  1  0  0  0  0
 12 21  1  0  0  0  0
M  END
>  <cdx:groupId>
86

>  <cdx:fragmentId>
5

$$$$
