339345.cdx
  Mrv1902 05222410232D          

 24 23  0  0  0  0            999 V2000
    7.1103   -8.3919    0.0000 O   0  0  0  0  0  0  0  0  0  0  0  0
    4.9669   -6.3294    0.0000 O   0  0  0  0  0  0  0  0  0  0  0  0
    4.2524   -8.3919    0.0000 O   0  0  0  0  0  0  0  0  0  0  0  0
    2.1090   -6.3294    0.0000 O   0  0  0  0  0  0  0  0  0  0  0  0
   13.5405   -7.1544    0.0000 O   0  0  0  0  0  0  0  0  0  0  0  0
   12.8260   -8.3919    0.0000 O   0  0  0  0  0  0  0  0  0  0  0  0
    0.6800   -7.1544    0.0000 C   0  0  0  0  0  0  0  0  0  0  0  0
    1.3945   -7.5669    0.0000 C   0  0  0  0  0  0  0  0  0  0  0  0
    2.1090   -7.1544    0.0000 C   0  0  2  0  0  0  0  0  0  0  0  0
    2.8234   -7.5669    0.0000 C   0  0  0  0  0  0  0  0  0  0  0  0
    3.5379   -7.1544    0.0000 C   0  0  0  0  0  0  0  0  0  0  0  0
    4.2524   -7.5669    0.0000 C   0  0  1  0  0  0  0  0  0  0  0  0
    4.9669   -7.1544    0.0000 C   0  0  2  0  0  0  0  0  0  0  0  0
    5.6813   -7.5669    0.0000 C   0  0  0  0  0  0  0  0  0  0  0  0
    6.3958   -7.1544    0.0000 C   0  0  0  0  0  0  0  0  0  0  0  0
    7.1103   -7.5669    0.0000 C   0  0  2  0  0  0  0  0  0  0  0  0
    7.8247   -7.1544    0.0000 C   0  0  0  0  0  0  0  0  0  0  0  0
    8.5392   -7.5669    0.0000 C   0  0  0  0  0  0  0  0  0  0  0  0
    9.2537   -7.1544    0.0000 C   0  0  0  0  0  0  0  0  0  0  0  0
    9.9682   -7.5669    0.0000 C   0  0  0  0  0  0  0  0  0  0  0  0
   10.6826   -7.1544    0.0000 C   0  0  0  0  0  0  0  0  0  0  0  0
   11.3971   -7.5669    0.0000 C   0  0  0  0  0  0  0  0  0  0  0  0
   12.1116   -7.1544    0.0000 C   0  0  0  0  0  0  0  0  0  0  0  0
   12.8260   -7.5669    0.0000 C   0  0  0  0  0  0  0  0  0  0  0  0
 16  1  1  6  0  0  0
 13  2  1  1  0  0  0
 12  3  1  1  0  0  0
  9  4  1  1  0  0  0
 24  5  1  0  0  0  0
 24  6  2  0  0  0  0
  8  7  1  0  0  0  0
  9  8  1  0  0  0  0
 10  9  1  0  0  0  0
 11 10  2  0  0  0  0
 12 11  1  0  0  0  0
 13 12  1  0  0  0  0
 14 13  1  0  0  0  0
 15 14  2  0  0  0  0
 16 15  1  0  0  0  0
 17 16  1  0  0  0  0
 18 17  1  0  0  0  0
 19 18  1  0  0  0  0
 20 19  1  0  0  0  0
 21 20  1  0  0  0  0
 22 21  1  0  0  0  0
 23 22  1  0  0  0  0
 24 23  1  0  0  0  0
M  END
>  <cdx:fragmentId>
36278

$$$$
