339346.cdx
  Mrv1902 05222410222D          

 24 23  0  0  0  0            999 V2000
    7.0137   -8.4469    0.0000 O   0  0  0  0  0  0  0  0  0  0  0  0
    4.8702   -6.3844    0.0000 O   0  0  0  0  0  0  0  0  0  0  0  0
    4.1558   -8.4469    0.0000 O   0  0  0  0  0  0  0  0  0  0  0  0
    2.0124   -6.3844    0.0000 O   0  0  0  0  0  0  0  0  0  0  0  0
   13.4439   -7.2094    0.0000 O   0  0  0  0  0  0  0  0  0  0  0  0
   12.7294   -8.4469    0.0000 O   0  0  0  0  0  0  0  0  0  0  0  0
    0.5834   -7.2094    0.0000 C   0  0  0  0  0  0  0  0  0  0  0  0
    1.2979   -7.6219    0.0000 C   0  0  0  0  0  0  0  0  0  0  0  0
    2.0124   -7.2094    0.0000 C   0  0  0  0  0  0  0  0  0  0  0  0
    2.7268   -7.6219    0.0000 C   0  0  0  0  0  0  0  0  0  0  0  0
    3.4413   -7.2094    0.0000 C   0  0  0  0  0  0  0  0  0  0  0  0
    4.1558   -7.6219    0.0000 C   0  0  1  0  0  0  0  0  0  0  0  0
    4.8702   -7.2094    0.0000 C   0  0  2  0  0  0  0  0  0  0  0  0
    5.5847   -7.6219    0.0000 C   0  0  0  0  0  0  0  0  0  0  0  0
    6.2992   -7.2094    0.0000 C   0  0  0  0  0  0  0  0  0  0  0  0
    7.0137   -7.6219    0.0000 C   0  0  2  0  0  0  0  0  0  0  0  0
    7.7281   -7.2094    0.0000 C   0  0  0  0  0  0  0  0  0  0  0  0
    8.4426   -7.6219    0.0000 C   0  0  0  0  0  0  0  0  0  0  0  0
    9.1571   -7.2094    0.0000 C   0  0  0  0  0  0  0  0  0  0  0  0
    9.8715   -7.6219    0.0000 C   0  0  0  0  0  0  0  0  0  0  0  0
   10.5860   -7.2094    0.0000 C   0  0  0  0  0  0  0  0  0  0  0  0
   11.3005   -7.6219    0.0000 C   0  0  0  0  0  0  0  0  0  0  0  0
   12.0150   -7.2094    0.0000 C   0  0  0  0  0  0  0  0  0  0  0  0
   12.7294   -7.6219    0.0000 C   0  0  0  0  0  0  0  0  0  0  0  0
 16  1  1  6  0  0  0
 13  2  1  1  0  0  0
 12  3  1  1  0  0  0
  9  4  2  0  0  0  0
 24  5  1  0  0  0  0
 24  6  2  0  0  0  0
  8  7  1  0  0  0  0
  9  8  1  0  0  0  0
 10  9  1  0  0  0  0
 11 10  2  0  0  0  0
 12 11  1  0  0  0  0
 13 12  1  0  0  0  0
 14 13  1  0  0  0  0
 15 14  2  0  0  0  0
 16 15  1  0  0  0  0
 17 16  1  0  0  0  0
 18 17  1  0  0  0  0
 19 18  1  0  0  0  0
 20 19  1  0  0  0  0
 21 20  1  0  0  0  0
 22 21  1  0  0  0  0
 23 22  1  0  0  0  0
 24 23  1  0  0  0  0
M  END
>  <cdx:fragmentId>
36356

$$$$
