339348.cdx
  Mrv1902 05222410232D          

 24 24  0  0  0  0            999 V2000
   11.8180   -8.4733    0.0000 C   0  0  0  0  0  0  0  0  0  0  0  0
   11.1036   -8.0608    0.0000 C   0  0  0  0  0  0  0  0  0  0  0  0
   10.3891   -8.4733    0.0000 C   0  0  0  0  0  0  0  0  0  0  0  0
    9.6746   -8.0608    0.0000 C   0  0  0  0  0  0  0  0  0  0  0  0
    8.9601   -8.4733    0.0000 C   0  0  0  0  0  0  0  0  0  0  0  0
    8.2457   -8.0608    0.0000 C   0  0  0  0  0  0  0  0  0  0  0  0
    7.5312   -8.4733    0.0000 C   0  0  0  0  0  0  0  0  0  0  0  0
    6.8167   -8.0608    0.0000 C   0  0  0  0  0  0  0  0  0  0  0  0
    6.1023   -8.4733    0.0000 C   0  0  1  0  0  0  0  0  0  0  0  0
    5.3878   -8.0608    0.0000 C   0  0  0  0  0  0  0  0  0  0  0  0
    4.6733   -8.4733    0.0000 C   0  0  0  0  0  0  0  0  0  0  0  0
   11.8180   -9.2983    0.0000 O   0  0  0  0  0  0  0  0  0  0  0  0
   12.5325   -8.0608    0.0000 O   0  0  0  0  0  0  0  0  0  0  0  0
    6.1023   -9.2983    0.0000 O   0  0  0  0  0  0  0  0  0  0  0  0
    3.0336   -9.2033    0.0000 O   0  0  0  0  0  0  0  0  0  0  0  0
    3.2150   -5.6477    0.0000 O   0  0  0  0  0  0  0  0  0  0  0  0
    1.5740   -5.4752    0.0000 C   0  0  0  0  0  0  0  0  0  0  0  0
    1.9096   -6.2289    0.0000 C   0  0  0  0  0  0  0  0  0  0  0  0
    2.7301   -6.3151    0.0000 C   0  0  1  0  0  0  0  0  0  0  0  0
    3.0656   -7.0688    0.0000 C   0  0  0  0  0  0  0  0  0  0  0  0
    2.6531   -7.7833    0.0000 C   0  0  0  0  0  0  0  0  0  0  0  0
    3.2052   -8.3964    0.0000 C   0  0  1  0  0  0  0  0  0  0  0  0
    3.9588   -8.0608    0.0000 C   0  0  1  0  0  0  0  0  0  0  0  0
    3.8726   -7.2403    0.0000 O   0  0  0  0  0  0  0  0  0  0  0  0
 22 15  1  1  0  0  0
 20 19  1  0  0  0  0
 19 16  1  6  0  0  0
 18 17  1  0  0  0  0
 19 18  1  0  0  0  0
 20 24  1  0  0  0  0
 21 20  1  0  0  0  0
 22 21  1  0  0  0  0
 23 22  1  0  0  0  0
 23 24  1  1  0  0  0
  1  2  1  0  0  0  0
  2  3  1  0  0  0  0
  3  4  1  0  0  0  0
  4  5  1  0  0  0  0
  5  6  1  0  0  0  0
  6  7  1  0  0  0  0
  7  8  1  0  0  0  0
  8  9  1  0  0  0  0
  9 10  1  0  0  0  0
 10 11  2  0  0  0  0
  1 12  2  0  0  0  0
  1 13  1  0  0  0  0
 23 11  1  0  0  0  0
  9 14  1  6  0  0  0
M  END
>  <cdx:fragmentId>
36507

$$$$
