339344.cdx
  Mrv1902 05222410232D          

 24 23  0  0  0  0            999 V2000
    6.9309   -8.6395    0.0000 O   0  0  0  0  0  0  0  0  0  0  0  0
    4.7874   -6.5770    0.0000 O   0  0  0  0  0  0  0  0  0  0  0  0
    4.0730   -8.6395    0.0000 O   0  0  0  0  0  0  0  0  0  0  0  0
    1.9296   -6.5770    0.0000 O   0  0  0  0  0  0  0  0  0  0  0  0
   13.3611   -7.4020    0.0000 O   0  0  0  0  0  0  0  0  0  0  0  0
   12.6466   -8.6395    0.0000 O   0  0  0  0  0  0  0  0  0  0  0  0
    0.5006   -7.4020    0.0000 C   0  0  0  0  0  0  0  0  0  0  0  0
    1.2151   -7.8145    0.0000 C   0  0  0  0  0  0  0  0  0  0  0  0
    1.9296   -7.4020    0.0000 C   0  0  1  0  0  0  0  0  0  0  0  0
    2.6440   -7.8145    0.0000 C   0  0  0  0  0  0  0  0  0  0  0  0
    3.3585   -7.4020    0.0000 C   0  0  0  0  0  0  0  0  0  0  0  0
    4.0730   -7.8145    0.0000 C   0  0  1  0  0  0  0  0  0  0  0  0
    4.7874   -7.4020    0.0000 C   0  0  2  0  0  0  0  0  0  0  0  0
    5.5019   -7.8145    0.0000 C   0  0  0  0  0  0  0  0  0  0  0  0
    6.2164   -7.4020    0.0000 C   0  0  0  0  0  0  0  0  0  0  0  0
    6.9309   -7.8145    0.0000 C   0  0  2  0  0  0  0  0  0  0  0  0
    7.6453   -7.4020    0.0000 C   0  0  0  0  0  0  0  0  0  0  0  0
    8.3598   -7.8145    0.0000 C   0  0  0  0  0  0  0  0  0  0  0  0
    9.0743   -7.4020    0.0000 C   0  0  0  0  0  0  0  0  0  0  0  0
    9.7887   -7.8145    0.0000 C   0  0  0  0  0  0  0  0  0  0  0  0
   10.5032   -7.4020    0.0000 C   0  0  0  0  0  0  0  0  0  0  0  0
   11.2177   -7.8145    0.0000 C   0  0  0  0  0  0  0  0  0  0  0  0
   11.9322   -7.4020    0.0000 C   0  0  0  0  0  0  0  0  0  0  0  0
   12.6466   -7.8145    0.0000 C   0  0  0  0  0  0  0  0  0  0  0  0
 16  1  1  6  0  0  0
 13  2  1  1  0  0  0
 12  3  1  1  0  0  0
  9  4  1  6  0  0  0
 24  5  1  0  0  0  0
 24  6  2  0  0  0  0
  8  7  1  0  0  0  0
  9  8  1  0  0  0  0
 10  9  1  0  0  0  0
 11 10  2  0  0  0  0
 12 11  1  0  0  0  0
 13 12  1  0  0  0  0
 14 13  1  0  0  0  0
 15 14  2  0  0  0  0
 16 15  1  0  0  0  0
 17 16  1  0  0  0  0
 18 17  1  0  0  0  0
 19 18  1  0  0  0  0
 20 19  1  0  0  0  0
 21 20  1  0  0  0  0
 22 21  1  0  0  0  0
 23 22  1  0  0  0  0
 24 23  1  0  0  0  0
M  END
>  <cdx:fragmentId>
36202

$$$$
