2,3-dihydro-3,5-dihydroxy-6-methyl-4(H)-pyran-4-one.cdx
  Mrv1902 05222410222D          

 10 10  0  0  0  0            999 V2000
    5.3245   -7.0950    0.0000 C   0  0  0  0  0  0  0  0  0  0  0  0
    5.3245   -7.9200    0.0000 C   0  0  0  0  0  0  0  0  0  0  0  0
    6.0390   -8.3325    0.0000 C   0  0  0  0  0  0  0  0  0  0  0  0
    6.7535   -7.9200    0.0000 C   0  0  0  0  0  0  0  0  0  0  0  0
    6.7535   -7.0950    0.0000 C   0  0  0  0  0  0  0  0  0  0  0  0
    6.0390   -6.6825    0.0000 O   0  0  0  0  0  0  0  0  0  0  0  0
    7.4679   -6.6825    0.0000 C   0  0  0  0  0  0  0  0  0  0  0  0
    4.6101   -8.3325    0.0000 O   0  0  0  0  0  0  0  0  0  0  0  0
    6.0390   -9.1575    0.0000 O   0  0  0  0  0  0  0  0  0  0  0  0
    7.4679   -8.3325    0.0000 O   0  0  0  0  0  0  0  0  0  0  0  0
  1  2  1  0  0  0  0
  2  3  1  0  0  0  0
  3  4  1  0  0  0  0
  4  5  2  0  0  0  0
  5  6  1  0  0  0  0
  6  1  1  0  0  0  0
  5  7  1  0  0  0  0
  2  8  1  0  0  0  0
  3  9  2  0  0  0  0
  4 10  1  0  0  0  0
M  END
>  <cdx:fragmentId>
5

$$$$
