340.cdx
  Mrv1902 05222410252D          

 20 19  0  0  0  0            999 V2000
    2.1684   -7.8100    0.0000 O   0  0  0  0  0  0  0  0  0  0  0  0
    2.8828   -8.2225    0.0000 C   0  0  0  0  0  0  0  0  0  0  0  0
    3.5973   -7.8100    0.0000 C   0  0  0  0  0  0  0  0  0  0  0  0
    4.3118   -8.2225    0.0000 C   0  0  0  0  0  0  0  0  0  0  0  0
    5.0263   -7.8100    0.0000 C   0  0  0  0  0  0  0  0  0  0  0  0
    5.7407   -8.2225    0.0000 C   0  0  0  0  0  0  0  0  0  0  0  0
    6.4552   -7.8100    0.0000 C   0  0  0  0  0  0  0  0  0  0  0  0
    7.1697   -8.2225    0.0000 C   0  0  0  0  0  0  0  0  0  0  0  0
    7.8841   -7.8100    0.0000 C   0  0  0  0  0  0  0  0  0  0  0  0
    8.5986   -8.2225    0.0000 C   0  0  0  0  0  0  0  0  0  0  0  0
    9.3131   -7.8100    0.0000 C   0  0  0  0  0  0  0  0  0  0  0  0
    9.3131   -6.9850    0.0000 C   0  0  0  0  0  0  0  0  0  0  0  0
   10.0276   -6.5725    0.0000 C   0  0  0  0  0  0  0  0  0  0  0  0
   10.0276   -5.7475    0.0000 C   0  0  0  0  0  0  0  0  0  0  0  0
   10.7420   -5.3350    0.0000 C   0  0  0  0  0  0  0  0  0  0  0  0
   10.7420   -4.5100    0.0000 C   0  0  0  0  0  0  0  0  0  0  0  0
   11.4565   -4.0975    0.0000 C   0  0  0  0  0  0  0  0  0  0  0  0
   11.4565   -3.2725    0.0000 C   0  0  0  0  0  0  0  0  0  0  0  0
   12.1710   -2.8600    0.0000 C   0  0  0  0  0  0  0  0  0  0  0  0
    2.8828   -9.0475    0.0000 O   0  0  0  0  0  0  0  0  0  0  0  0
  1  2  1  0  0  0  0
  2  3  1  0  0  0  0
  3  4  1  0  0  0  0
  4  5  1  0  0  0  0
  5  6  1  0  0  0  0
  6  7  1  0  0  0  0
  7  8  1  0  0  0  0
  8  9  1  0  0  0  0
  9 10  1  0  0  0  0
 10 11  2  0  0  0  0
 11 12  1  0  0  0  0
 12 13  1  0  0  0  0
 13 14  1  0  0  0  0
 14 15  1  0  0  0  0
 15 16  1  0  0  0  0
 16 17  1  0  0  0  0
 17 18  1  0  0  0  0
 18 19  1  0  0  0  0
  2 20  2  0  0  0  0
M  END
>  <cdx:fragmentId>
3

$$$$
