3404.cdx
  Mrv1902 05222410252D          

 40 45  0  0  0  0            999 V2000
    2.4164   -7.8375    0.0000 C   0  0  0  0  0  0  0  0  0  0  0  0
    2.4164   -8.6625    0.0000 C   0  0  0  0  0  0  0  0  0  0  0  0
    3.1309   -9.0750    0.0000 C   0  0  0  0  0  0  0  0  0  0  0  0
    3.8453   -8.6625    0.0000 C   0  0  0  0  0  0  0  0  0  0  0  0
    3.8453   -7.8375    0.0000 C   0  0  0  0  0  0  0  0  0  0  0  0
    3.1309   -7.4250    0.0000 C   0  0  0  0  0  0  0  0  0  0  0  0
    4.5598   -9.0750    0.0000 C   0  0  0  0  0  0  0  0  0  0  0  0
    5.2743   -8.6625    0.0000 C   0  0  0  0  0  0  0  0  0  0  0  0
    5.2743   -7.8375    0.0000 C   0  0  0  0  0  0  0  0  0  0  0  0
    4.5598   -7.4250    0.0000 O   0  0  0  0  0  0  0  0  0  0  0  0
    5.9888   -7.4250    0.0000 C   0  0  0  0  0  0  0  0  0  0  0  0
    5.9888   -6.6000    0.0000 C   0  0  0  0  0  0  0  0  0  0  0  0
    6.7032   -7.8375    0.0000 C   0  0  0  0  0  0  0  0  0  0  0  0
    7.4177   -7.4250    0.0000 C   0  0  0  0  0  0  0  0  0  0  0  0
    7.4177   -6.6000    0.0000 C   0  0  0  0  0  0  0  0  0  0  0  0
    6.7032   -6.1875    0.0000 C   0  0  0  0  0  0  0  0  0  0  0  0
    1.7019   -7.4250    0.0000 O   0  0  0  0  0  0  0  0  0  0  0  0
    3.1309   -9.9000    0.0000 O   0  0  0  0  0  0  0  0  0  0  0  0
    4.5598   -9.9000    0.0000 O   0  0  0  0  0  0  0  0  0  0  0  0
    8.1322   -6.1875    0.0000 O   0  0  0  0  0  0  0  0  0  0  0  0
    8.1322   -7.8375    0.0000 C   0  0  0  0  0  0  0  0  0  0  0  0
    8.1322   -8.6625    0.0000 C   0  0  0  0  0  0  0  0  0  0  0  0
    8.8466   -9.0750    0.0000 C   0  0  0  0  0  0  0  0  0  0  0  0
    9.5611   -8.6625    0.0000 C   0  0  0  0  0  0  0  0  0  0  0  0
    9.5611   -7.8375    0.0000 C   0  0  0  0  0  0  0  0  0  0  0  0
    8.8466   -7.4250    0.0000 C   0  0  0  0  0  0  0  0  0  0  0  0
   10.2756   -7.4250    0.0000 C   0  0  0  0  0  0  0  0  0  0  0  0
   10.2756   -6.6000    0.0000 C   0  0  0  0  0  0  0  0  0  0  0  0
    9.5611   -6.1875    0.0000 C   0  0  2  0  0  0  0  0  0  0  0  0
    8.8466   -6.6000    0.0000 O   0  0  0  0  0  0  0  0  0  0  0  0
    9.5611   -5.3625    0.0000 C   0  0  0  0  0  0  0  0  0  0  0  0
   10.2756   -4.9500    0.0000 C   0  0  0  0  0  0  0  0  0  0  0  0
   10.2756   -4.1250    0.0000 C   0  0  0  0  0  0  0  0  0  0  0  0
    9.5611   -3.7125    0.0000 C   0  0  0  0  0  0  0  0  0  0  0  0
    8.8466   -4.1250    0.0000 C   0  0  0  0  0  0  0  0  0  0  0  0
    8.8466   -4.9500    0.0000 C   0  0  0  0  0  0  0  0  0  0  0  0
    7.4177   -9.0750    0.0000 O   0  0  0  0  0  0  0  0  0  0  0  0
   10.2756   -9.0750    0.0000 O   0  0  0  0  0  0  0  0  0  0  0  0
   10.9901   -7.8375    0.0000 O   0  0  0  0  0  0  0  0  0  0  0  0
    9.5611   -2.8875    0.0000 O   0  0  0  0  0  0  0  0  0  0  0  0
  1  2  2  0  0  0  0
  2  3  1  0  0  0  0
  3  4  2  0  0  0  0
  4  5  1  0  0  0  0
  5  6  2  0  0  0  0
  6  1  1  0  0  0  0
  4  7  1  0  0  0  0
  7  8  1  0  0  0  0
  8  9  2  0  0  0  0
  9 10  1  0  0  0  0
 10  5  1  0  0  0  0
  9 11  1  0  0  0  0
 11 12  1  0  0  0  0
 11 13  2  0  0  0  0
 13 14  1  0  0  0  0
 14 15  2  0  0  0  0
 15 16  1  0  0  0  0
 16 12  2  0  0  0  0
  1 17  1  0  0  0  0
  3 18  1  0  0  0  0
  7 19  2  0  0  0  0
 15 20  1  0  0  0  0
 14 21  1  0  0  0  0
 21 22  2  0  0  0  0
 22 23  1  0  0  0  0
 23 24  2  0  0  0  0
 24 25  1  0  0  0  0
 25 26  2  0  0  0  0
 26 21  1  0  0  0  0
 25 27  1  0  0  0  0
 27 28  1  0  0  0  0
 28 29  1  0  0  0  0
 29 30  1  0  0  0  0
 30 26  1  0  0  0  0
 29 31  1  6  0  0  0
 31 32  2  0  0  0  0
 32 33  1  0  0  0  0
 33 34  2  0  0  0  0
 34 35  1  0  0  0  0
 35 36  2  0  0  0  0
 36 31  1  0  0  0  0
 22 37  1  0  0  0  0
 24 38  1  0  0  0  0
 27 39  2  0  0  0  0
 34 40  1  0  0  0  0
M  END
>  <cdx:fragmentId>
5

$$$$
