3409.cdx
  Mrv1902 05222410212D          

 34 36  0  0  0  0            999 V2000
    7.0680   -6.9850    0.0000 C   0  0  2  0  0  0  0  0  0  0  0  0
    7.0680   -7.8100    0.0000 C   0  0  2  0  0  0  0  0  0  0  0  0
    7.7825   -8.2225    0.0000 C   0  0  1  0  0  0  0  0  0  0  0  0
    8.4970   -7.8100    0.0000 C   0  0  2  0  0  0  0  0  0  0  0  0
    8.4970   -6.9850    0.0000 C   0  0  1  0  0  0  0  0  0  0  0  0
    7.7825   -6.5725    0.0000 O   0  0  0  0  0  0  0  0  0  0  0  0
    9.2114   -6.5725    0.0000 O   0  0  0  0  0  0  0  0  0  0  0  0
    6.3536   -6.5725    0.0000 C   0  0  0  0  0  0  0  0  0  0  0  0
    7.7825   -9.0475    0.0000 O   0  0  0  0  0  0  0  0  0  0  0  0
    5.6391   -6.9850    0.0000 O   0  0  0  0  0  0  0  0  0  0  0  0
    6.3536   -8.2225    0.0000 O   0  0  0  0  0  0  0  0  0  0  0  0
    9.2114   -8.2225    0.0000 O   0  0  0  0  0  0  0  0  0  0  0  0
    9.9259   -7.8100    0.0000 C   0  0  0  0  0  0  0  0  0  0  0  0
   10.6404   -8.2225    0.0000 C   0  0  0  0  0  0  0  0  0  0  0  0
    9.9259   -6.9850    0.0000 O   0  0  0  0  0  0  0  0  0  0  0  0
   10.6404   -9.0475    0.0000 C   0  0  0  0  0  0  0  0  0  0  0  0
   11.3549   -9.4600    0.0000 C   0  0  0  0  0  0  0  0  0  0  0  0
   12.0693   -9.0475    0.0000 C   0  0  0  0  0  0  0  0  0  0  0  0
   12.0693   -8.2225    0.0000 C   0  0  0  0  0  0  0  0  0  0  0  0
   11.3549   -7.8100    0.0000 C   0  0  0  0  0  0  0  0  0  0  0  0
   12.7838   -7.8100    0.0000 O   0  0  0  0  0  0  0  0  0  0  0  0
   12.7838   -9.4600    0.0000 O   0  0  0  0  0  0  0  0  0  0  0  0
   11.3549  -10.2850    0.0000 O   0  0  0  0  0  0  0  0  0  0  0  0
    7.0680   -9.4600    0.0000 C   0  0  0  0  0  0  0  0  0  0  0  0
    6.3536   -9.0475    0.0000 O   0  0  0  0  0  0  0  0  0  0  0  0
    7.0680  -10.2850    0.0000 C   0  0  0  0  0  0  0  0  0  0  0  0
    6.3536  -10.6975    0.0000 C   0  0  0  0  0  0  0  0  0  0  0  0
    6.3536  -11.5225    0.0000 C   0  0  0  0  0  0  0  0  0  0  0  0
    7.0680  -11.9350    0.0000 C   0  0  0  0  0  0  0  0  0  0  0  0
    7.7825  -11.5225    0.0000 C   0  0  0  0  0  0  0  0  0  0  0  0
    7.7825  -10.6975    0.0000 C   0  0  0  0  0  0  0  0  0  0  0  0
    5.6391  -11.9350    0.0000 O   0  0  0  0  0  0  0  0  0  0  0  0
    7.0680  -12.7600    0.0000 O   0  0  0  0  0  0  0  0  0  0  0  0
    8.4970  -11.9350    0.0000 O   0  0  0  0  0  0  0  0  0  0  0  0
  1  2  1  0  0  0  0
  2  3  1  0  0  0  0
  3  4  1  0  0  0  0
  4  5  1  0  0  0  0
  5  6  1  0  0  0  0
  6  1  1  0  0  0  0
  5  7  1  1  0  0  0
  1  8  1  1  0  0  0
  3  9  1  1  0  0  0
  8 10  1  0  0  0  0
  2 11  1  6  0  0  0
  4 12  1  6  0  0  0
 12 13  1  0  0  0  0
 13 14  1  0  0  0  0
 13 15  2  0  0  0  0
 14 16  2  0  0  0  0
 16 17  1  0  0  0  0
 17 18  2  0  0  0  0
 18 19  1  0  0  0  0
 19 20  2  0  0  0  0
 20 14  1  0  0  0  0
 19 21  1  0  0  0  0
 18 22  1  0  0  0  0
 17 23  1  0  0  0  0
  9 24  1  0  0  0  0
 24 25  2  0  0  0  0
 24 26  1  0  0  0  0
 26 27  2  0  0  0  0
 27 28  1  0  0  0  0
 28 29  2  0  0  0  0
 29 30  1  0  0  0  0
 30 31  2  0  0  0  0
 31 26  1  0  0  0  0
 28 32  1  0  0  0  0
 29 33  1  0  0  0  0
 30 34  1  0  0  0  0
M  END
>  <cdx:fragmentId>
369

$$$$
