341.cdx
  Mrv1902 05222410242D          

 20 19  0  0  0  0            999 V2000
   13.3621   -7.8581    0.0000 O   0  0  0  0  0  0  0  0  0  0  0  0
   12.6476   -7.4456    0.0000 C   0  0  0  0  0  0  0  0  0  0  0  0
   11.9331   -7.8581    0.0000 C   0  0  0  0  0  0  0  0  0  0  0  0
   11.2186   -7.4456    0.0000 C   0  0  0  0  0  0  0  0  0  0  0  0
   10.5042   -7.8581    0.0000 C   0  0  0  0  0  0  0  0  0  0  0  0
    9.7897   -7.4456    0.0000 C   0  0  0  0  0  0  0  0  0  0  0  0
    9.0752   -7.8581    0.0000 C   0  0  0  0  0  0  0  0  0  0  0  0
    8.3608   -7.4456    0.0000 C   0  0  0  0  0  0  0  0  0  0  0  0
    7.6463   -7.8581    0.0000 C   0  0  0  0  0  0  0  0  0  0  0  0
    6.9318   -7.4456    0.0000 C   0  0  0  0  0  0  0  0  0  0  0  0
    6.2173   -7.8581    0.0000 C   0  0  0  0  0  0  0  0  0  0  0  0
    5.5029   -7.4456    0.0000 C   0  0  0  0  0  0  0  0  0  0  0  0
    4.7884   -7.8581    0.0000 C   0  0  0  0  0  0  0  0  0  0  0  0
    4.0739   -7.4456    0.0000 C   0  0  0  0  0  0  0  0  0  0  0  0
    3.3595   -7.8581    0.0000 C   0  0  0  0  0  0  0  0  0  0  0  0
    2.6450   -7.4456    0.0000 C   0  0  0  0  0  0  0  0  0  0  0  0
    1.9305   -7.8581    0.0000 C   0  0  0  0  0  0  0  0  0  0  0  0
    1.2160   -7.4456    0.0000 C   0  0  0  0  0  0  0  0  0  0  0  0
    0.5016   -7.8581    0.0000 C   0  0  0  0  0  0  0  0  0  0  0  0
   12.6476   -6.6206    0.0000 O   0  0  0  0  0  0  0  0  0  0  0  0
  1  2  1  0  0  0  0
  2  3  1  0  0  0  0
  3  4  1  0  0  0  0
  4  5  1  0  0  0  0
  5  6  1  0  0  0  0
  6  7  1  0  0  0  0
  7  8  1  0  0  0  0
  8  9  1  0  0  0  0
  9 10  1  0  0  0  0
 10 11  1  0  0  0  0
 11 12  1  0  0  0  0
 12 13  1  0  0  0  0
 13 14  1  0  0  0  0
 14 15  1  0  0  0  0
 15 16  1  0  0  0  0
 16 17  1  0  0  0  0
 17 18  1  0  0  0  0
 18 19  1  0  0  0  0
  2 20  2  0  0  0  0
M  END
>  <cdx:fragmentId>
3

$$$$
