3414.cdx
  Mrv1902 05222410242D          

 22 23  0  0  0  0            999 V2000
    9.3549   -7.7687    0.0000 C   0  0  0  0  0  0  0  0  0  0  0  0
    9.3549   -8.5938    0.0000 C   0  0  0  0  0  0  0  0  0  0  0  0
   10.0694   -9.0062    0.0000 C   0  0  0  0  0  0  0  0  0  0  0  0
   10.7839   -8.5938    0.0000 C   0  0  0  0  0  0  0  0  0  0  0  0
   10.7839   -7.7687    0.0000 C   0  0  0  0  0  0  0  0  0  0  0  0
   10.0694   -7.3563    0.0000 C   0  0  0  0  0  0  0  0  0  0  0  0
   11.4983   -9.0062    0.0000 O   0  0  0  0  0  0  0  0  0  0  0  0
    8.6405   -7.3563    0.0000 C   0  0  0  0  0  0  0  0  0  0  0  0
    7.9260   -7.7687    0.0000 C   0  0  0  0  0  0  0  0  0  0  0  0
    7.2115   -7.3563    0.0000 C   0  0  0  0  0  0  0  0  0  0  0  0
    6.4970   -7.7687    0.0000 O   0  0  0  0  0  0  0  0  0  0  0  0
    7.2115   -6.5313    0.0000 O   0  0  0  0  0  0  0  0  0  0  0  0
    5.7826   -7.3563    0.0000 C   0  0  0  0  0  0  0  0  0  0  0  0
    5.0681   -7.7687    0.0000 C   0  0  0  0  0  0  0  0  0  0  0  0
    4.3536   -7.3563    0.0000 C   0  0  0  0  0  0  0  0  0  0  0  0
    3.7405   -7.9083    0.0000 O   0  0  0  0  0  0  0  0  0  0  0  0
    4.0761   -8.6620    0.0000 C   0  0  0  0  0  0  0  0  0  0  0  0
    4.8966   -8.5757    0.0000 O   0  0  0  0  0  0  0  0  0  0  0  0
    3.3616   -9.0745    0.0000 C   0  0  0  0  0  0  0  0  0  0  0  0
    4.0761   -9.4870    0.0000 C   0  0  0  0  0  0  0  0  0  0  0  0
   11.4983   -7.3563    0.0000 O   0  0  0  0  0  0  0  0  0  0  0  0
   12.2128   -7.7687    0.0000 C   0  0  0  0  0  0  0  0  0  0  0  0
  1  2  2  0  0  0  0
  2  3  1  0  0  0  0
  3  4  2  0  0  0  0
  4  5  1  0  0  0  0
  5  6  2  0  0  0  0
  6  1  1  0  0  0  0
  4  7  1  0  0  0  0
  1  8  1  0  0  0  0
  8  9  2  0  0  0  0
  9 10  1  0  0  0  0
 10 11  1  0  0  0  0
 10 12  2  0  0  0  0
 11 13  1  0  0  0  0
 13 14  1  0  0  0  0
 14 15  1  0  0  0  0
 15 16  1  0  0  0  0
 16 17  1  0  0  0  0
 17 18  1  0  0  0  0
 18 14  1  0  0  0  0
 17 19  1  0  0  0  0
 17 20  1  0  0  0  0
  5 21  1  0  0  0  0
 21 22  1  0  0  0  0
M  END
>  <cdx:fragmentId>
5

$$$$
