3415.cdx
  Mrv1902 05222410242D          

 23 27  0  0  0  0            999 V2000
    9.2313   -4.3962    0.0000 C   0  0  0  0  0  0  0  0  0  0  0  0
    8.5122   -3.9918    0.0000 C   0  0  0  0  0  0  0  0  0  0  0  0
    7.8024   -4.4123    0.0000 C   0  0  0  0  0  0  0  0  0  0  0  0
    7.8117   -5.2373    0.0000 C   0  0  0  0  0  0  0  0  0  0  0  0
    8.5308   -5.6417    0.0000 C   0  0  0  0  0  0  0  0  0  0  0  0
    9.2405   -5.2212    0.0000 C   0  0  0  0  0  0  0  0  0  0  0  0
    7.1019   -5.6578    0.0000 C   0  0  0  0  0  0  0  0  0  0  0  0
    7.1112   -6.4827    0.0000 N   0  3  0  0  0  0  0  0  0  0  0  0
    7.8302   -6.8872    0.0000 C   0  0  0  0  0  0  0  0  0  0  0  0
    8.5400   -6.4667    0.0000 C   0  0  0  0  0  0  0  0  0  0  0  0
    6.3828   -5.2533    0.0000 C   0  0  0  0  0  0  0  0  0  0  0  0
    5.6730   -5.6739    0.0000 C   0  0  0  0  0  0  0  0  0  0  0  0
    5.6823   -6.4988    0.0000 C   0  0  0  0  0  0  0  0  0  0  0  0
    6.4014   -6.9032    0.0000 C   0  0  0  0  0  0  0  0  0  0  0  0
    4.9540   -5.2694    0.0000 C   0  0  0  0  0  0  0  0  0  0  0  0
    4.2442   -5.6899    0.0000 C   0  0  0  0  0  0  0  0  0  0  0  0
    4.2535   -6.5149    0.0000 C   0  0  0  0  0  0  0  0  0  0  0  0
    4.9725   -6.9193    0.0000 C   0  0  0  0  0  0  0  0  0  0  0  0
    9.8381   -3.8374    0.0000 O   0  0  0  0  0  0  0  0  0  0  0  0
    9.4941   -3.0875    0.0000 C   0  0  0  0  0  0  0  0  0  0  0  0
    8.6746   -3.1830    0.0000 O   0  0  0  0  0  0  0  0  0  0  0  0
    4.9818   -7.7443    0.0000 O   0  0  0  0  0  0  0  0  0  0  0  0
    4.2720   -8.1648    0.0000 C   0  0  0  0  0  0  0  0  0  0  0  0
  1  2  2  0  0  0  0
  2  3  1  0  0  0  0
  3  4  2  0  0  0  0
  4  5  1  0  0  0  0
  5  6  2  0  0  0  0
  6  1  1  0  0  0  0
  4  7  1  0  0  0  0
  7  8  2  0  0  0  0
  8  9  1  0  0  0  0
  9 10  1  0  0  0  0
 10  5  1  0  0  0  0
  7 11  1  0  0  0  0
 11 12  2  0  0  0  0
 12 13  1  0  0  0  0
 13 14  2  0  0  0  0
 14  8  1  0  0  0  0
 12 15  1  0  0  0  0
 15 16  2  0  0  0  0
 16 17  1  0  0  0  0
 17 18  2  0  0  0  0
 18 13  1  0  0  0  0
  1 19  1  0  0  0  0
 19 20  1  0  0  0  0
 20 21  1  0  0  0  0
 21  2  1  0  0  0  0
 18 22  1  0  0  0  0
 22 23  1  0  0  0  0
M  CHG  1   8   1
M  END
>  <cdx:fragmentId>
5

$$$$
