11341614.cdx
  Mrv1902 05222410212D          

 38 41  0  0  0  0            999 V2000
    2.9190  -13.3583    0.0000 O   0  0  0  0  0  0  0  0  0  0  0  0
    3.3315  -14.0727    0.0000 C   0  0  0  0  0  0  0  0  0  0  0  0
    4.1385  -13.9012    0.0000 C   0  0  1  0  0  0  0  0  0  0  0  0
    4.2247  -13.0807    0.0000 C   0  0  2  0  0  0  0  0  0  0  0  0
    3.4710  -12.7452    0.0000 C   0  0  0  0  0  0  0  0  0  0  0  0
    2.9959  -14.8264    0.0000 O   0  0  0  0  0  0  0  0  0  0  0  0
    4.9392  -12.6682    0.0000 C   0  0  0  0  0  0  0  0  0  0  0  0
    5.6536  -13.0807    0.0000 C   0  0  0  0  0  0  0  0  0  0  0  0
    5.6536  -13.9057    0.0000 C   0  0  0  0  0  0  0  0  0  0  0  0
    6.3681  -14.3182    0.0000 C   0  0  0  0  0  0  0  0  0  0  0  0
    7.0826  -13.9057    0.0000 C   0  0  0  0  0  0  0  0  0  0  0  0
    7.0826  -13.0807    0.0000 C   0  0  0  0  0  0  0  0  0  0  0  0
    6.3681  -12.6682    0.0000 C   0  0  0  0  0  0  0  0  0  0  0  0
    7.7971  -14.3182    0.0000 O   0  0  0  0  0  0  0  0  0  0  0  0
    9.2260  -14.3182    0.0000 O   0  0  0  0  0  0  0  0  0  0  0  0
    8.5115  -13.9057    0.0000 C   0  0  2  0  0  0  0  0  0  0  0  0
    8.5115  -13.0807    0.0000 C   0  0  1  0  0  0  0  0  0  0  0  0
    9.2260  -12.6682    0.0000 C   0  0  2  0  0  0  0  0  0  0  0  0
    9.9405  -13.0807    0.0000 C   0  0  1  0  0  0  0  0  0  0  0  0
    9.9405  -13.9057    0.0000 C   0  0  1  0  0  0  0  0  0  0  0  0
   10.6549  -14.3182    0.0000 C   0  0  0  0  0  0  0  0  0  0  0  0
   11.3694  -13.9057    0.0000 O   0  0  0  0  0  0  0  0  0  0  0  0
   10.6549  -12.6682    0.0000 O   0  0  0  0  0  0  0  0  0  0  0  0
    9.2260  -11.8432    0.0000 O   0  0  0  0  0  0  0  0  0  0  0  0
    7.7971  -12.6682    0.0000 O   0  0  0  0  0  0  0  0  0  0  0  0
    6.3681  -15.1432    0.0000 O   0  0  0  0  0  0  0  0  0  0  0  0
    5.6536  -15.5557    0.0000 C   0  0  0  0  0  0  0  0  0  0  0  0
    4.7516  -14.4532    0.0000 C   0  0  0  0  0  0  0  0  0  0  0  0
    4.5800  -15.2602    0.0000 C   0  0  0  0  0  0  0  0  0  0  0  0
    5.1931  -15.8122    0.0000 C   0  0  0  0  0  0  0  0  0  0  0  0
    5.0216  -16.6192    0.0000 C   0  0  0  0  0  0  0  0  0  0  0  0
    4.2370  -16.8741    0.0000 C   0  0  0  0  0  0  0  0  0  0  0  0
    3.6239  -16.3221    0.0000 C   0  0  0  0  0  0  0  0  0  0  0  0
    3.7954  -15.5151    0.0000 C   0  0  0  0  0  0  0  0  0  0  0  0
    4.0655  -17.6811    0.0000 O   0  0  0  0  0  0  0  0  0  0  0  0
    3.2808  -17.9361    0.0000 C   0  0  0  0  0  0  0  0  0  0  0  0
    5.6347  -17.1712    0.0000 O   0  0  0  0  0  0  0  0  0  0  0  0
    6.4193  -16.9163    0.0000 C   0  0  0  0  0  0  0  0  0  0  0  0
  1  2  1  0  0  0  0
  2  3  1  0  0  0  0
  3  4  1  0  0  0  0
  4  5  1  0  0  0  0
  1  5  1  0  0  0  0
  2  6  2  0  0  0  0
  8  9  1  0  0  0  0
  9 10  2  0  0  0  0
 10 11  1  0  0  0  0
 11 12  2  0  0  0  0
 12 13  1  0  0  0  0
  8 13  2  0  0  0  0
 15 16  1  0  0  0  0
 16 17  1  0  0  0  0
 17 18  1  0  0  0  0
 18 19  1  0  0  0  0
 19 20  1  0  0  0  0
 15 20  1  0  0  0  0
 21 22  1  0  0  0  0
 20 21  1  1  0  0  0
 19 23  1  6  0  0  0
 18 24  1  1  0  0  0
 17 25  1  6  0  0  0
 16 14  1  1  0  0  0
 11 14  1  0  0  0  0
 26 27  1  0  0  0  0
 10 26  1  0  0  0  0
  7  8  1  0  0  0  0
  4  7  1  6  0  0  0
 29 30  1  0  0  0  0
 30 31  2  0  0  0  0
 31 32  1  0  0  0  0
 32 33  2  0  0  0  0
 33 34  1  0  0  0  0
 29 34  2  0  0  0  0
 35 36  1  0  0  0  0
 32 35  1  0  0  0  0
 37 38  1  0  0  0  0
 31 37  1  0  0  0  0
 28 29  1  0  0  0  0
  3 28  1  1  0  0  0
M  END
>  <cdx:groupId>
70642

>  <cdx:fragmentId>
70556

$$$$
