341779.cdx
  Mrv1902 05222410252D          

 16 17  0  0  0  0            999 V2000
    6.4350   -9.2125    0.0000 C   0  0  0  0  0  0  0  0  0  0  0  0
    6.3525   -7.7550    0.0000 O   0  0  0  0  0  0  0  0  0  0  0  0
    6.9488   -7.5843    0.0000 C   0  0  0  0  0  0  0  0  0  0  0  0
    6.8475   -8.3600    0.0000 C   0  0  0  0  0  0  0  0  0  0  0  0
    8.2225   -8.7725    0.0000 C   0  0  0  0  0  0  0  0  0  0  0  0
    7.9475   -9.6525    0.0000 C   0  0  0  0  0  0  0  0  0  0  0  0
    5.4175   -9.5700    0.0000 C   0  0  0  0  0  0  0  0  0  0  0  0
    5.1700   -8.8550    0.0000 C   0  0  0  0  0  0  0  0  0  0  0  0
    7.6633   -7.1718    0.0000 C   0  0  0  0  0  0  0  0  0  0  0  0
    8.3778   -7.5843    0.0000 C   0  0  0  0  0  0  0  0  0  0  0  0
    9.0923   -7.1718    0.0000 C   0  0  0  0  0  0  0  0  0  0  0  0
    9.8067   -7.5843    0.0000 C   0  0  0  0  0  0  0  0  0  0  0  0
   10.5212   -7.1718    0.0000 C   0  0  0  0  0  0  0  0  0  0  0  0
    9.8067   -8.4093    0.0000 C   0  0  0  0  0  0  0  0  0  0  0  0
    6.7353   -6.7874    0.0000 C   0  0  0  0  0  0  0  0  0  0  0  0
    6.2215  -10.0094    0.0000 C   0  0  0  0  0  0  0  0  0  0  0  0
  1  2  1  0  0  0  0
  2  3  1  0  0  0  0
  3  4  1  0  0  0  0
  4  5  1  0  0  0  0
  5  6  1  0  0  0  0
  7  8  1  0  0  0  0
  1  6  1  0  0  0  0
  1  7  1  0  0  0  0
  8  4  1  0  0  0  0
  9 10  1  0  0  0  0
 10 11  1  0  0  0  0
 11 12  2  0  0  0  0
 12 13  1  0  0  0  0
 12 14  1  0  0  0  0
  3  9  1  0  0  0  0
  3 15  1  0  0  0  0
  1 16  1  0  0  0  0
M  END
>  <cdx:fragmentId>
1609

$$$$
