342.cdx
  Mrv1902 05222410252D          

 16 18  0  0  0  0            999 V2000
    5.4450   -8.7725    0.0000 C   0  0  0  0  0  0  0  0  0  0  0  0
    6.3537   -8.6627    0.0000 C   0  0  1  0  0  0  0  0  0  0  0  0
    6.9912   -8.8955    0.0000 C   0  0  1  0  0  0  0  0  0  0  0  0
    7.3846   -8.1704    0.0000 C   0  0  1  0  0  0  0  0  0  0  0  0
    5.3075   -8.1400    0.0000 C   0  0  0  0  0  0  0  0  0  0  0  0
    6.4377   -8.0201    0.0000 C   0  0  1  0  0  0  0  0  0  0  0  0
    7.1775   -7.3425    0.0000 O   0  0  0  0  0  0  0  0  0  0  0  0
    7.5592   -9.4937    0.0000 C   0  0  0  0  0  0  0  0  0  0  0  0
    8.3037   -9.1383    0.0000 O   0  0  0  0  0  0  0  0  0  0  0  0
    8.1957   -8.3205    0.0000 C   0  0  0  0  0  0  0  0  0  0  0  0
    6.4377   -7.1951    0.0000 H   0  0  0  0  0  0  0  0  0  0  0  0
    7.7971   -7.4560    0.0000 C   0  0  0  0  0  0  0  0  0  0  0  0
    6.7777   -9.6924    0.0000 C   0  0  0  0  0  0  0  0  0  0  0  0
    8.9102   -7.9080    0.0000 O   0  0  0  0  0  0  0  0  0  0  0  0
    7.5592  -10.3187    0.0000 O   0  0  0  0  0  0  0  0  0  0  0  0
    6.1402   -9.4596    0.0000 H   0  0  0  0  0  0  0  0  0  0  0  0
  1  2  1  0  0  0  0
  2  3  1  0  0  0  0
  3  4  1  0  0  0  0
  1  5  1  0  0  0  0
  5  6  1  0  0  0  0
  4  6  1  0  0  0  0
  6  7  1  0  0  0  0
  2  7  1  0  0  0  0
  3  8  1  0  0  0  0
  8  9  1  0  0  0  0
  9 10  1  0  0  0  0
 10  4  1  0  0  0  0
  6 11  1  6  0  0  0
  4 12  1  6  0  0  0
  3 13  1  6  0  0  0
 10 14  2  0  0  0  0
  8 15  2  0  0  0  0
  2 16  1  1  0  0  0
M  END
>  <cdx:groupId>
799

>  <cdx:fragmentId>
800

$$$$
