342292.cdx
  Mrv1902 05222410222D          

 31 33  0  0  0  0            999 V2000
    9.5118   -8.2610    0.0000 C   0  0  0  0  0  0  0  0  0  0  0  0
   13.0781   -7.0063    0.0000 C   0  0  0  0  0  0  0  0  0  0  0  0
   12.3696   -8.2473    0.0000 C   0  0  0  0  0  0  0  0  0  0  0  0
   12.3657   -7.4223    0.0000 C   0  0  0  0  0  0  0  0  0  0  0  0
   11.6492   -7.0132    0.0000 C   0  0  0  0  0  0  0  0  0  0  0  0
   10.9367   -7.4292    0.0000 C   0  0  0  0  0  0  0  0  0  0  0  0
   10.2203   -7.0201    0.0000 C   0  0  0  0  0  0  0  0  0  0  0  0
    9.5078   -7.4360    0.0000 C   0  0  0  0  0  0  0  0  0  0  0  0
    8.7914   -7.0270    0.0000 C   0  0  0  0  0  0  0  0  0  0  0  0
    8.0789   -7.4429    0.0000 C   0  0  0  0  0  0  0  0  0  0  0  0
    5.2131   -5.8067    0.0000 O   0  0  0  0  0  0  0  0  0  0  0  0
    8.0709   -5.7929    0.0000 O   0  0  0  0  0  0  0  0  0  0  0  0
    6.6500   -7.4498    0.0000 C   0  0  0  0  0  0  0  0  0  0  0  0
    7.3624   -7.0339    0.0000 C   0  0  0  0  0  0  0  0  0  0  0  0
    7.3585   -6.2089    0.0000 C   0  0  0  0  0  0  0  0  0  0  0  0
    6.6420   -5.7998    0.0000 C   0  0  0  0  0  0  0  0  0  0  0  0
    5.9295   -6.2158    0.0000 C   0  0  0  0  0  0  0  0  0  0  0  0
    5.9335   -7.0408    0.0000 C   0  0  0  0  0  0  0  0  0  0  0  0
    3.0876   -9.5295    0.0000 O   0  0  0  0  0  0  0  0  0  0  0  0
    1.6467   -7.0614    0.0000 O   0  0  0  0  0  0  0  0  0  0  0  0
    4.5165   -9.5226    0.0000 O   0  0  0  0  0  0  0  0  0  0  0  0
    4.5046   -7.0476    0.0000 O   0  0  0  0  0  0  0  0  0  0  0  0
    3.7921   -7.4636    0.0000 C   0  0  0  0  0  0  0  0  0  0  0  0
    3.0757   -7.0545    0.0000 C   0  0  0  0  0  0  0  0  0  0  0  0
    2.3632   -7.4705    0.0000 C   0  0  0  0  0  0  0  0  0  0  0  0
    2.3672   -8.2954    0.0000 C   0  0  0  0  0  0  0  0  0  0  0  0
    3.0836   -8.7045    0.0000 C   0  0  0  0  0  0  0  0  0  0  0  0
    3.7961   -8.2886    0.0000 C   0  0  0  0  0  0  0  0  0  0  0  0
    4.5125   -8.6976    0.0000 C   0  0  0  0  0  0  0  0  0  0  0  0
    5.2250   -8.2817    0.0000 C   0  0  0  0  0  0  0  0  0  0  0  0
    5.2210   -7.4567    0.0000 C   0  0  0  0  0  0  0  0  0  0  0  0
 31 18  1  0  0  0  0
 14 10  1  0  0  0  0
  8  1  1  0  0  0  0
  4  2  1  0  0  0  0
  4  3  1  0  0  0  0
  5  4  2  0  0  0  0
  6  5  1  0  0  0  0
  7  6  1  0  0  0  0
  8  7  1  0  0  0  0
  9  8  2  0  0  0  0
 10  9  1  0  0  0  0
 17 11  1  0  0  0  0
 15 12  1  0  0  0  0
 18 13  2  0  0  0  0
 14 13  1  0  0  0  0
 15 14  2  0  0  0  0
 16 15  1  0  0  0  0
 17 16  2  0  0  0  0
 18 17  1  0  0  0  0
 27 19  1  0  0  0  0
 25 20  1  0  0  0  0
 29 21  2  0  0  0  0
 31 22  1  0  0  0  0
 23 22  1  0  0  0  0
 28 23  2  0  0  0  0
 24 23  1  0  0  0  0
 25 24  2  0  0  0  0
 26 25  1  0  0  0  0
 27 26  2  0  0  0  0
 28 27  1  0  0  0  0
 29 28  1  0  0  0  0
 30 29  1  0  0  0  0
 31 30  1  0  0  0  0
M  END
>  <cdx:fragmentId>
45618

$$$$
