34225.cdx
  Mrv1902 05222410182D          

 10 10  0  0  0  0            999 V2000
    4.7835   -4.6946    0.0000 C   0  0  0  0  0  0  0  0  0  0  0  0
    4.0690   -4.2821    0.0000 C   0  0  0  0  0  0  0  0  0  0  0  0
    4.0690   -3.4571    0.0000 C   0  0  0  0  0  0  0  0  0  0  0  0
    3.3546   -3.0446    0.0000 C   0  0  0  0  0  0  0  0  0  0  0  0
    2.6401   -3.4571    0.0000 C   0  0  0  0  0  0  0  0  0  0  0  0
    2.6401   -4.2821    0.0000 C   0  0  0  0  0  0  0  0  0  0  0  0
    3.3546   -4.6946    0.0000 C   0  0  0  0  0  0  0  0  0  0  0  0
    5.4980   -4.2821    0.0000 O   0  0  0  0  0  0  0  0  0  0  0  0
    1.9256   -4.6946    0.0000 C   0  0  0  0  0  0  0  0  0  0  0  0
    3.3546   -2.2196    0.0000 C   0  0  0  0  0  0  0  0  0  0  0  0
  1  2  1  0  0  0  0
  2  3  1  0  0  0  0
  3  4  2  0  0  0  0
  4  5  1  0  0  0  0
  5  6  2  0  0  0  0
  6  7  1  0  0  0  0
  2  7  2  0  0  0  0
  1  8  2  0  0  0  0
  6  9  1  0  0  0  0
  4 10  1  0  0  0  0
M  END
>  <cdx:groupId>
32

>  <cdx:fragmentId>
5

$$$$
