3431.cdx
  Mrv1902 05222410222D          

 22 24  0  0  0  0            999 V2000
    7.7608   -7.1929    0.0000 C   0  0  0  0  0  0  0  0  0  0  0  0
    7.7608   -8.0179    0.0000 C   0  0  0  0  0  0  0  0  0  0  0  0
    7.0463   -8.4304    0.0000 C   0  0  0  0  0  0  0  0  0  0  0  0
    7.0463   -9.2554    0.0000 O   0  0  0  0  0  0  0  0  0  0  0  0
    6.3318   -8.0179    0.0000 C   0  0  0  0  0  0  0  0  0  0  0  0
    5.6174   -8.4304    0.0000 C   0  0  0  0  0  0  0  0  0  0  0  0
    4.9029   -8.0179    0.0000 C   0  0  0  0  0  0  0  0  0  0  0  0
    4.9029   -7.1929    0.0000 C   0  0  0  0  0  0  0  0  0  0  0  0
    5.6174   -6.7804    0.0000 C   0  0  0  0  0  0  0  0  0  0  0  0
    6.3318   -7.1929    0.0000 C   0  0  0  0  0  0  0  0  0  0  0  0
    7.0463   -6.7804    0.0000 O   0  0  0  0  0  0  0  0  0  0  0  0
    8.4753   -8.4304    0.0000 C   0  0  0  0  0  0  0  0  0  0  0  0
    8.4753   -9.2554    0.0000 C   0  0  0  0  0  0  0  0  0  0  0  0
    9.1897   -9.6679    0.0000 C   0  0  0  0  0  0  0  0  0  0  0  0
    9.9042   -9.2554    0.0000 C   0  0  0  0  0  0  0  0  0  0  0  0
    9.9042   -8.4304    0.0000 C   0  0  0  0  0  0  0  0  0  0  0  0
    9.1897   -8.0179    0.0000 C   0  0  0  0  0  0  0  0  0  0  0  0
    4.1884   -6.7804    0.0000 O   0  0  0  0  0  0  0  0  0  0  0  0
    3.4740   -7.1929    0.0000 C   0  0  0  0  0  0  0  0  0  0  0  0
    5.6174   -9.2554    0.0000 O   0  0  0  0  0  0  0  0  0  0  0  0
   10.6187   -9.6679    0.0000 O   0  0  0  0  0  0  0  0  0  0  0  0
    7.7608   -9.6679    0.0000 O   0  0  0  0  0  0  0  0  0  0  0  0
  1  2  2  0  0  0  0
  2  3  1  0  0  0  0
  3  4  2  0  0  0  0
  3  5  1  0  0  0  0
  5  6  1  0  0  0  0
  6  7  2  0  0  0  0
  7  8  1  0  0  0  0
  8  9  2  0  0  0  0
  9 10  1  0  0  0  0
  5 10  2  0  0  0  0
 10 11  1  0  0  0  0
  1 11  1  0  0  0  0
  2 12  1  0  0  0  0
 12 13  1  0  0  0  0
 13 14  2  0  0  0  0
 14 15  1  0  0  0  0
 15 16  2  0  0  0  0
 16 17  1  0  0  0  0
 12 17  2  0  0  0  0
 18 19  1  0  0  0  0
  8 18  1  0  0  0  0
  6 20  1  0  0  0  0
 15 21  1  0  0  0  0
 13 22  1  0  0  0  0
M  END
>  <cdx:fragmentId>
5

$$$$
