343254.cdx
  Mrv1902 05222410272D          

 35 39  0  0  0  0            999 V2000
   18.1565  -11.9105    0.0000 O   0  0  0  0  0  0  0  0  0  0  0  0
   17.6045  -12.5236    0.0000 C   0  0  0  0  0  0  0  0  0  0  0  0
   16.8508  -12.1880    0.0000 C   0  0  0  0  0  0  0  0  0  0  0  0
   16.9370  -11.3676    0.0000 C   0  0  0  0  0  0  0  0  0  0  0  0
   17.7440  -11.1960    0.0000 C   0  0  0  0  0  0  0  0  0  0  0  0
   16.1363  -12.6005    0.0000 O   0  0  0  0  0  0  0  0  0  0  0  0
   18.9000  -10.3561    0.0000 C   0  0  0  0  0  0  0  0  0  0  0  0
   18.0795  -10.4424    0.0000 C   0  0  0  0  0  0  0  0  0  0  0  0
   17.5946   -9.7749    0.0000 C   0  0  0  0  0  0  0  0  0  0  0  0
   18.1565  -13.1367    0.0000 C   0  0  0  0  0  0  0  0  0  0  0  0
   13.7070  -14.3882    0.0000 C   0  0  0  0  0  0  0  0  0  0  0  0
   12.9925  -14.8007    0.0000 C   0  0  0  0  0  0  0  0  0  0  0  0
   12.9925  -15.6257    0.0000 C   0  0  0  0  0  0  0  0  0  0  0  0
   13.7070  -16.0382    0.0000 C   0  0  0  0  0  0  0  0  0  0  0  0
   14.4215  -15.6257    0.0000 C   0  0  0  0  0  0  0  0  0  0  0  0
   15.1360  -16.0382    0.0000 C   0  0  0  0  0  0  0  0  0  0  0  0
   15.8504  -15.6257    0.0000 C   0  0  0  0  0  0  0  0  0  0  0  0
   15.8504  -14.8007    0.0000 C   0  0  0  0  0  0  0  0  0  0  0  0
   16.5649  -14.3882    0.0000 C   0  0  0  0  0  0  0  0  0  0  0  0
   17.3495  -14.6431    0.0000 C   0  0  0  0  0  0  0  0  0  0  0  0
   17.8344  -13.9757    0.0000 C   0  0  0  0  0  0  0  0  0  0  0  0
   17.3495  -13.3082    0.0000 C   0  0  0  0  0  0  0  0  0  0  0  0
   16.5649  -13.5632    0.0000 C   0  0  0  0  0  0  0  0  0  0  0  0
   15.8504  -13.1507    0.0000 C   0  0  0  0  0  0  0  0  0  0  0  0
   15.1360  -13.5632    0.0000 C   0  0  0  0  0  0  0  0  0  0  0  0
   15.1360  -14.3882    0.0000 C   0  0  0  0  0  0  0  0  0  0  0  0
   14.4215  -14.8007    0.0000 C   0  0  0  0  0  0  0  0  0  0  0  0
   14.4215  -13.1507    0.0000 O   0  0  0  0  0  0  0  0  0  0  0  0
   16.6511  -15.2086    0.0000 C   0  0  0  0  0  0  0  0  0  0  0  0
   16.6511  -12.7427    0.0000 C   0  0  0  0  0  0  0  0  0  0  0  0
   14.4215  -13.9757    0.0000 C   0  0  0  0  0  0  0  0  0  0  0  0
   14.1195  -16.7526    0.0000 C   0  0  0  0  0  0  0  0  0  0  0  0
   13.2945  -16.7526    0.0000 C   0  0  0  0  0  0  0  0  0  0  0  0
   18.6594  -13.9757    0.0000 O   0  0  0  0  0  0  0  0  0  0  0  0
   12.2781  -16.0382    0.0000 O   0  0  0  0  0  0  0  0  0  0  0  0
  1  2  1  0  0  0  0
  2  3  1  0  0  0  0
  3  4  1  0  0  0  0
  4  5  2  0  0  0  0
  1  5  1  0  0  0  0
  3  6  2  0  0  0  0
  7  8  1  0  0  0  0
  8  9  1  0  0  0  0
  5  8  1  0  0  0  0
  2 10  1  0  0  0  0
 11 12  1  0  0  0  0
 12 13  1  0  0  0  0
 13 14  1  0  0  0  0
 14 15  1  0  0  0  0
 15 16  2  0  0  0  0
 16 17  1  0  0  0  0
 17 18  1  0  0  0  0
 18 19  1  0  0  0  0
 19 20  1  0  0  0  0
 20 21  1  0  0  0  0
 21 22  1  0  0  0  0
 22 23  1  0  0  0  0
 19 23  1  0  0  0  0
 23 24  1  0  0  0  0
 24 25  1  0  0  0  0
 25 26  1  0  0  0  0
 18 26  1  0  0  0  0
 26 27  1  0  0  0  0
 15 27  1  0  0  0  0
 11 27  1  0  0  0  0
 25 28  2  0  0  0  0
 19 29  1  0  0  0  0
 23 30  1  0  0  0  0
 26 31  1  0  0  0  0
 14 32  1  0  0  0  0
 14 33  1  0  0  0  0
 21 34  1  0  0  0  0
 13 35  1  0  0  0  0
  2 22  1  0  0  0  0
M  END
>  <cdx:groupId>
1769

>  <cdx:fragmentId>
1683

$$$$
