13343541.cdx
  Mrv1902 05222410242D          

 19 20  0  0  0  0            999 V2000
   12.6355  -10.7444    0.0000 C   0  0  0  0  0  0  0  0  0  0  0  0
   12.6355  -11.5694    0.0000 C   0  0  0  0  0  0  0  0  0  0  0  0
   13.3500  -11.9819    0.0000 C   0  0  0  0  0  0  0  0  0  0  0  0
   14.0645  -11.5694    0.0000 C   0  0  0  0  0  0  0  0  0  0  0  0
   14.7789  -11.9819    0.0000 C   0  0  0  0  0  0  0  0  0  0  0  0
   15.4934  -11.5694    0.0000 C   0  0  0  0  0  0  0  0  0  0  0  0
   15.4934  -10.7444    0.0000 C   0  0  0  0  0  0  0  0  0  0  0  0
   14.7789  -10.3319    0.0000 C   0  0  0  0  0  0  0  0  0  0  0  0
   14.0645  -10.7444    0.0000 C   0  0  0  0  0  0  0  0  0  0  0  0
   13.3500  -10.3319    0.0000 O   0  0  0  0  0  0  0  0  0  0  0  0
   11.9210  -10.3319    0.0000 O   0  0  0  0  0  0  0  0  0  0  0  0
   16.2079  -10.3319    0.0000 O   0  0  0  0  0  0  0  0  0  0  0  0
   16.9223  -10.7444    0.0000 C   0  0  0  0  0  0  0  0  0  0  0  0
   14.7789   -9.5069    0.0000 C   0  0  0  0  0  0  0  0  0  0  0  0
   15.4934   -9.0944    0.0000 C   0  0  1  0  0  0  0  0  0  0  0  0
   15.4934   -8.2694    0.0000 C   0  0  0  0  0  0  0  0  0  0  0  0
   14.7789   -7.8569    0.0000 C   0  0  0  0  0  0  0  0  0  0  0  0
   16.2079   -7.8569    0.0000 C   0  0  0  0  0  0  0  0  0  0  0  0
   16.2079   -9.5069    0.0000 O   0  0  0  0  0  0  0  0  0  0  0  0
  1  2  1  0  0  0  0
  2  3  2  0  0  0  0
  3  4  1  0  0  0  0
  4  5  1  0  0  0  0
  5  6  2  0  0  0  0
  6  7  1  0  0  0  0
  7  8  2  0  0  0  0
  8  9  1  0  0  0  0
  4  9  2  0  0  0  0
  9 10  1  0  0  0  0
  1 10  1  0  0  0  0
  1 11  2  0  0  0  0
 12 13  1  0  0  0  0
  7 12  1  0  0  0  0
 14 15  1  0  0  0  0
 15 16  1  0  0  0  0
 16 17  2  0  0  0  0
 16 18  1  0  0  0  0
 15 19  1  1  0  0  0
  8 14  1  0  0  0  0
M  END
>  <cdx:groupId>
67490

>  <cdx:fragmentId>
67435

$$$$
