2,4,6-tri-O-galloyl-ﾥ￢-D-glucose.cdx
  Mrv1902 05222410202D          

 45 48  0  0  0  0            999 V2000
    5.8415   -7.8103    0.0000 C   0  0  0  0  0  0  0  0  0  0  0  0
    6.2540   -8.5247    0.0000 C   0  0  0  0  0  0  0  0  0  0  0  0
    7.0520   -8.3157    0.0000 C   0  0  0  0  0  0  0  0  0  0  0  0
    7.8453   -8.5247    0.0000 C   0  0  0  0  0  0  0  0  0  0  0  0
    7.4328   -7.8103    0.0000 O   0  0  0  0  0  0  0  0  0  0  0  0
    6.6347   -8.0193    0.0000 C   0  0  0  0  0  0  0  0  0  0  0  0
    5.0446   -8.0238    0.0000 O   0  0  0  0  0  0  0  0  0  0  0  0
    6.2222   -7.3048    0.0000 C   0  0  0  0  0  0  0  0  0  0  0  0
    8.7676   -8.2793    0.0000 O   0  0  0  0  0  0  0  0  0  0  0  0
    7.9652  -10.3902    0.0000 C   0  0  0  0  0  0  0  0  0  0  0  0
    7.7588  -11.1890    0.0000 C   0  0  0  0  0  0  0  0  0  0  0  0
    8.3474  -11.7670    0.0000 C   0  0  0  0  0  0  0  0  0  0  0  0
    9.1423  -11.5463    0.0000 C   0  0  0  0  0  0  0  0  0  0  0  0
    9.3487  -10.7476    0.0000 C   0  0  0  0  0  0  0  0  0  0  0  0
    8.7601  -10.1695    0.0000 C   0  0  0  0  0  0  0  0  0  0  0  0
    7.3766   -9.8121    0.0000 C   0  0  0  0  0  0  0  0  0  0  0  0
    7.5829   -9.0133    0.0000 O   0  0  0  0  0  0  0  0  0  0  0  0
    6.5816  -10.0328    0.0000 O   0  0  0  0  0  0  0  0  0  0  0  0
   10.1436  -10.5269    0.0000 O   0  0  0  0  0  0  0  0  0  0  0  0
    9.7309  -12.1244    0.0000 O   0  0  0  0  0  0  0  0  0  0  0  0
    8.1411  -12.5658    0.0000 O   0  0  0  0  0  0  0  0  0  0  0  0
    5.3828   -8.5254    0.0000 O   0  0  0  0  0  0  0  0  0  0  0  0
    6.9498   -5.1311    0.0000 C   0  0  0  0  0  0  0  0  0  0  0  0
    7.6670   -4.7232    0.0000 C   0  0  0  0  0  0  0  0  0  0  0  0
    7.6723   -3.8982    0.0000 C   0  0  0  0  0  0  0  0  0  0  0  0
    6.9605   -3.4811    0.0000 C   0  0  0  0  0  0  0  0  0  0  0  0
    6.2434   -3.8890    0.0000 C   0  0  0  0  0  0  0  0  0  0  0  0
    6.2381   -4.7139    0.0000 C   0  0  0  0  0  0  0  0  0  0  0  0
    6.9445   -5.9560    0.0000 C   0  0  0  0  0  0  0  0  0  0  0  0
    6.2274   -6.3639    0.0000 O   0  0  0  0  0  0  0  0  0  0  0  0
    7.6563   -6.3731    0.0000 O   0  0  0  0  0  0  0  0  0  0  0  0
    5.5316   -3.4718    0.0000 O   0  0  0  0  0  0  0  0  0  0  0  0
    6.9659   -2.6561    0.0000 O   0  0  0  0  0  0  0  0  0  0  0  0
    8.3894   -3.4903    0.0000 O   0  0  0  0  0  0  0  0  0  0  0  0
    3.9522   -7.0756    0.0000 C   0  0  0  0  0  0  0  0  0  0  0  0
    3.6743   -6.2988    0.0000 C   0  0  0  0  0  0  0  0  0  0  0  0
    2.8626   -6.1512    0.0000 C   0  0  0  0  0  0  0  0  0  0  0  0
    2.3289   -6.7803    0.0000 C   0  0  0  0  0  0  0  0  0  0  0  0
    2.6068   -7.5570    0.0000 C   0  0  0  0  0  0  0  0  0  0  0  0
    3.4185   -7.7047    0.0000 C   0  0  0  0  0  0  0  0  0  0  0  0
    4.7639   -7.2232    0.0000 C   0  0  0  0  0  0  0  0  0  0  0  0
    5.2976   -6.5941    0.0000 O   0  0  0  0  0  0  0  0  0  0  0  0
    2.0731   -8.1861    0.0000 O   0  0  0  0  0  0  0  0  0  0  0  0
    1.5172   -6.6326    0.0000 O   0  0  0  0  0  0  0  0  0  0  0  0
    2.5846   -5.3744    0.0000 O   0  0  0  0  0  0  0  0  0  0  0  0
  1  2  1  0  0  0  0
  2  3  1  0  0  0  0
  3  4  1  0  0  0  0
  4  5  1  0  0  0  0
  5  6  1  0  0  0  0
  6  1  1  0  0  0  0
  1  7  1  0  0  0  0
  6  8  1  0  0  0  0
 10 11  2  0  0  0  0
 11 12  1  0  0  0  0
 12 13  2  0  0  0  0
 13 14  1  0  0  0  0
 14 15  2  0  0  0  0
 15 10  1  0  0  0  0
 10 16  1  0  0  0  0
 16 17  1  0  0  0  0
 16 18  2  0  0  0  0
 14 19  1  0  0  0  0
 13 20  1  0  0  0  0
 12 21  1  0  0  0  0
 23 24  2  0  0  0  0
 24 25  1  0  0  0  0
 25 26  2  0  0  0  0
 26 27  1  0  0  0  0
 27 28  2  0  0  0  0
 28 23  1  0  0  0  0
 23 29  1  0  0  0  0
 29 30  1  0  0  0  0
 29 31  2  0  0  0  0
 27 32  1  0  0  0  0
 26 33  1  0  0  0  0
 25 34  1  0  0  0  0
  4  9  1  0  0  0  0
  3 17  1  0  0  0  0
  2 22  1  0  0  0  0
  8 30  1  0  0  0  0
 35 36  2  0  0  0  0
 36 37  1  0  0  0  0
 37 38  2  0  0  0  0
 38 39  1  0  0  0  0
 39 40  2  0  0  0  0
 40 35  1  0  0  0  0
 35 41  1  0  0  0  0
 41 42  2  0  0  0  0
 39 43  1  0  0  0  0
 38 44  1  0  0  0  0
 37 45  1  0  0  0  0
 41  7  1  0  0  0  0
M  END
>  <cdx:fragmentId>
33

$$$$
