3444.cdx
  Mrv1902 05222410202D          

 36 39  0  0  0  0            999 V2000
    5.4730  -12.5400    0.0000 C   0  0  2  0  0  0  0  0  0  0  0  0
    5.4730  -13.3650    0.0000 C   0  0  0  0  0  0  0  0  0  0  0  0
    6.1875  -13.7775    0.0000 O   0  0  0  0  0  0  0  0  0  0  0  0
    6.9020  -13.3650    0.0000 C   0  0  0  0  0  0  0  0  0  0  0  0
    6.9020  -12.5400    0.0000 C   0  0  0  0  0  0  0  0  0  0  0  0
    6.1875  -12.1275    0.0000 C   0  0  2  0  0  0  0  0  0  0  0  0
    7.6164  -13.7775    0.0000 C   0  0  0  0  0  0  0  0  0  0  0  0
    8.3309  -13.3650    0.0000 C   0  0  0  0  0  0  0  0  0  0  0  0
    8.3309  -12.5400    0.0000 C   0  0  0  0  0  0  0  0  0  0  0  0
    7.6164  -12.1275    0.0000 C   0  0  0  0  0  0  0  0  0  0  0  0
    7.6164  -14.6025    0.0000 O   0  0  0  0  0  0  0  0  0  0  0  0
    9.0454  -13.7775    0.0000 O   0  0  0  0  0  0  0  0  0  0  0  0
    4.7586  -13.7775    0.0000 O   0  0  0  0  0  0  0  0  0  0  0  0
    4.7586  -12.1275    0.0000 O   0  0  0  0  0  0  0  0  0  0  0  0
    6.1875  -11.3025    0.0000 C   0  0  2  0  0  0  0  0  0  0  0  0
    7.6164  -11.3025    0.0000 C   0  0  0  0  0  0  0  0  0  0  0  0
    6.9020  -10.8900    0.0000 O   0  0  0  0  0  0  0  0  0  0  0  0
    8.3875   -9.9275    0.0000 O   0  0  0  0  0  0  0  0  0  0  0  0
    4.2690  -11.6595    0.0000 O   0  0  0  0  0  0  0  0  0  0  0  0
    4.2046  -10.2321    0.0000 O   0  0  0  0  0  0  0  0  0  0  0  0
    4.6489  -10.9272    0.0000 C   0  0  0  0  0  0  0  0  0  0  0  0
    5.4730  -10.8900    0.0000 C   0  0  0  0  0  0  0  0  0  0  0  0
    6.6000  -10.5880    0.0000 C   0  0  0  0  0  0  0  0  0  0  0  0
    6.1875   -9.8736    0.0000 O   0  0  0  0  0  0  0  0  0  0  0  0
    7.4250  -10.5880    0.0000 O   0  0  0  0  0  0  0  0  0  0  0  0
    6.6000   -9.1591    0.0000 C   0  0  1  0  0  0  0  0  0  0  0  0
    7.3189   -9.5639    0.0000 C   0  0  1  0  0  0  0  0  0  0  0  0
    8.0289   -9.1437    0.0000 C   0  0  2  0  0  0  0  0  0  0  0  0
    8.0200   -8.3187    0.0000 C   0  0  1  0  0  0  0  0  0  0  0  0
    7.3011   -7.9140    0.0000 O   0  0  0  0  0  0  0  0  0  0  0  0
    6.5911   -8.3341    0.0000 C   0  0  2  0  0  0  0  0  0  0  0  0
    8.7300   -7.8986    0.0000 O   0  0  0  0  0  0  0  0  0  0  0  0
    5.8722   -7.9294    0.0000 C   0  0  0  0  0  0  0  0  0  0  0  0
    7.3189   -8.7389    0.0000 O   0  0  0  0  0  0  0  0  0  0  0  0
    5.4730  -11.7150    0.0000 H   0  0  0  0  0  0  0  0  0  0  0  0
    5.1623   -8.3495    0.0000 O   0  0  0  0  0  0  0  0  0  0  0  0
  1  2  1  0  0  0  0
  2  3  1  0  0  0  0
  3  4  1  0  0  0  0
  4  5  2  0  0  0  0
  5  6  1  0  0  0  0
  6  1  1  0  0  0  0
  4  7  1  0  0  0  0
  7  8  2  0  0  0  0
  8  9  1  0  0  0  0
  9 10  2  0  0  0  0
 10  5  1  0  0  0  0
  7 11  1  0  0  0  0
  8 12  1  0  0  0  0
  2 13  2  0  0  0  0
  1 14  1  1  0  0  0
  6 15  1  0  0  0  0
 10 16  1  0  0  0  0
 16 17  2  0  0  0  0
 16 18  1  0  0  0  0
 21 19  1  0  0  0  0
 15 22  1  6  0  0  0
 21 20  2  0  0  0  0
 22 21  1  0  0  0  0
 15 23  1  0  0  0  0
 23 24  1  0  0  0  0
 23 25  2  0  0  0  0
 26 24  1  6  0  0  0
 26 27  1  0  0  0  0
 27 28  1  0  0  0  0
 28 29  1  0  0  0  0
 29 30  1  0  0  0  0
 30 31  1  0  0  0  0
 31 26  1  0  0  0  0
 29 32  1  1  0  0  0
 31 33  1  1  0  0  0
 27 34  1  1  0  0  0
 28 18  1  6  0  0  0
  6 35  1  6  0  0  0
 33 36  1  0  0  0  0
M  END
>  <cdx:fragmentId>
46

$$$$
