34457.cdx
  Mrv1902 05222410212D          

 26 30  0  0  0  0            999 V2000
    7.8471   -5.6508    0.0000 C   0  0  2  0  0  0  0  0  0  0  0  0
    8.5616   -5.2383    0.0000 C   0  0  0  0  0  0  0  0  0  0  0  0
    8.5616   -4.4133    0.0000 C   0  0  0  0  0  0  0  0  0  0  0  0
    9.2760   -4.0008    0.0000 C   0  0  0  0  0  0  0  0  0  0  0  0
    9.4476   -3.1939    0.0000 O   0  0  0  0  0  0  0  0  0  0  0  0
   10.2680   -3.1076    0.0000 C   0  0  0  0  0  0  0  0  0  0  0  0
   10.6036   -3.8613    0.0000 O   0  0  0  0  0  0  0  0  0  0  0  0
    9.9905   -4.4133    0.0000 C   0  0  0  0  0  0  0  0  0  0  0  0
    9.9905   -5.2383    0.0000 C   0  0  0  0  0  0  0  0  0  0  0  0
    9.2760   -5.6508    0.0000 C   0  0  0  0  0  0  0  0  0  0  0  0
    9.2760   -6.4758    0.0000 C   0  0  0  0  0  0  0  0  0  0  0  0
    8.5616   -6.8883    0.0000 C   0  0  0  0  0  0  0  0  0  0  0  0
    7.8471   -6.4758    0.0000 N   0  0  0  0  0  0  0  0  0  0  0  0
    7.1326   -6.8883    0.0000 C   0  0  0  0  0  0  0  0  0  0  0  0
    6.4182   -6.4758    0.0000 C   0  0  0  0  0  0  0  0  0  0  0  0
    5.7037   -6.8883    0.0000 C   0  0  0  0  0  0  0  0  0  0  0  0
    4.9892   -6.4758    0.0000 C   0  0  0  0  0  0  0  0  0  0  0  0
    4.9892   -5.6508    0.0000 C   0  0  0  0  0  0  0  0  0  0  0  0
    5.7037   -5.2383    0.0000 C   0  0  0  0  0  0  0  0  0  0  0  0
    6.4182   -5.6508    0.0000 C   0  0  0  0  0  0  0  0  0  0  0  0
    7.1326   -5.2383    0.0000 C   0  0  0  0  0  0  0  0  0  0  0  0
    4.2747   -6.8883    0.0000 O   0  0  0  0  0  0  0  0  0  0  0  0
    3.5603   -6.4758    0.0000 C   0  0  0  0  0  0  0  0  0  0  0  0
    5.7037   -7.7133    0.0000 O   0  0  0  0  0  0  0  0  0  0  0  0
    4.9892   -8.1258    0.0000 C   0  0  0  0  0  0  0  0  0  0  0  0
    7.8471   -4.8258    0.0000 H   0  0  0  0  0  0  0  0  0  0  0  0
  1  2  1  0  0  0  0
  2  3  2  0  0  0  0
  3  4  1  0  0  0  0
  4  5  1  0  0  0  0
  5  6  1  0  0  0  0
  6  7  1  0  0  0  0
  7  8  1  0  0  0  0
  8  9  1  0  0  0  0
  9 10  2  0  0  0  0
 10 11  1  0  0  0  0
 11 12  1  0  0  0  0
 12 13  1  0  0  0  0
 13 14  1  0  0  0  0
 14 15  1  0  0  0  0
 15 16  1  0  0  0  0
 16 17  2  0  0  0  0
 17 18  1  0  0  0  0
 18 19  2  0  0  0  0
 19 20  1  0  0  0  0
 20 21  1  0  0  0  0
  1 21  1  0  0  0  0
  1 13  1  0  0  0  0
 15 20  2  0  0  0  0
  2 10  1  0  0  0  0
  4  8  2  0  0  0  0
 22 23  1  0  0  0  0
 17 22  1  0  0  0  0
 24 25  1  0  0  0  0
 16 24  1  0  0  0  0
  1 26  1  1  0  0  0
M  END
>  <cdx:fragmentId>
5

$$$$
