344894.cdx
  Mrv1902 05222410262D          

 26 29  0  0  0  0            999 V2000
    8.1681  -10.8948    0.0000 C   0  0  2  0  0  0  0  0  0  0  0  0
    8.1681  -11.7198    0.0000 C   0  0  0  0  0  0  0  0  0  0  0  0
    7.4536  -12.1323    0.0000 C   0  0  0  0  0  0  0  0  0  0  0  0
    6.7391  -11.7198    0.0000 C   0  0  2  0  0  0  0  0  0  0  0  0
    6.0247  -12.1323    0.0000 C   0  0  0  0  0  0  0  0  0  0  0  0
    5.3102  -11.7198    0.0000 C   0  0  0  0  0  0  0  0  0  0  0  0
    5.3102  -10.8948    0.0000 C   0  0  0  0  0  0  0  0  0  0  0  0
    6.0247  -10.4823    0.0000 C   0  0  0  0  0  0  0  0  0  0  0  0
    6.7391  -10.8948    0.0000 C   0  0  1  0  0  0  0  0  0  0  0  0
    7.4536  -10.4823    0.0000 C   0  0  2  0  0  0  0  0  0  0  0  0
    7.4536   -9.6573    0.0000 C   0  0  0  0  0  0  0  0  0  0  0  0
    8.1681   -9.2448    0.0000 C   0  0  2  0  0  0  0  0  0  0  0  0
    8.8826   -9.6573    0.0000 C   0  0  2  0  0  0  0  0  0  0  0  0
    8.8826  -10.4823    0.0000 C   0  0  0  0  0  0  0  0  0  0  0  0
    8.5093  -10.3787    0.0000 C   0  0  0  0  0  0  0  0  0  0  0  0
    8.5093   -9.7599    0.0000 C   0  0  0  0  0  0  0  0  0  0  0  0
    4.5957  -12.1323    0.0000 O   0  0  0  0  0  0  0  0  0  0  0  0
    9.5970  -10.8948    0.0000 O   0  0  0  0  0  0  0  0  0  0  0  0
    8.9615   -9.0699    0.0000 C   0  0  0  0  0  0  0  0  0  0  0  0
    6.7391  -10.0698    0.0000 C   0  0  0  0  0  0  0  0  0  0  0  0
    6.4372  -12.8468    0.0000 C   0  0  0  0  0  0  0  0  0  0  0  0
    5.6122  -12.8468    0.0000 C   0  0  0  0  0  0  0  0  0  0  0  0
    9.5970   -9.2448    0.0000 O   0  0  0  0  0  0  0  0  0  0  0  0
    6.7391  -12.5448    0.0000 H   0  0  0  0  0  0  0  0  0  0  0  0
    7.4536  -11.3073    0.0000 H   0  0  0  0  0  0  0  0  0  0  0  0
    8.1681   -8.4198    0.0000 H   0  0  0  0  0  0  0  0  0  0  0  0
  1  2  1  0  0  0  0
  2  3  1  0  0  0  0
  3  4  1  0  0  0  0
  4  5  1  0  0  0  0
  5  6  1  0  0  0  0
  6  7  1  0  0  0  0
  7  8  1  0  0  0  0
  8  9  1  0  0  0  0
  9 10  1  0  0  0  0
 10 11  1  0  0  0  0
 11 12  1  0  0  0  0
 12 13  1  0  0  0  0
 13 14  1  0  0  0  0
 15 16  1  0  0  0  0
  1 14  1  0  0  0  0
  1 15  1  1  0  0  0
 12 16  1  0  0  0  0
  1 10  1  0  0  0  0
  4  9  1  0  0  0  0
  6 17  2  0  0  0  0
 14 18  2  0  0  0  0
 16 19  2  0  0  0  0
  9 20  1  6  0  0  0
  5 21  1  0  0  0  0
  5 22  1  0  0  0  0
 13 23  1  1  0  0  0
  4 24  1  1  0  0  0
 10 25  1  1  0  0  0
 12 26  1  1  0  0  0
M  END
>  <cdx:groupId>
181

>  <cdx:fragmentId>
103

$$$$
