345165.cdx
  Mrv1902 05222410202D          

 11 11  0  0  0  0            999 V2000
   15.8732  -12.8711    0.0000 C   0  0  0  0  0  0  0  0  0  0  0  0
   15.1588  -13.2836    0.0000 C   0  0  0  0  0  0  0  0  0  0  0  0
   15.1588  -14.1086    0.0000 C   0  0  0  0  0  0  0  0  0  0  0  0
   14.4443  -14.5211    0.0000 C   0  0  0  0  0  0  0  0  0  0  0  0
   13.7298  -14.1086    0.0000 C   0  0  0  0  0  0  0  0  0  0  0  0
   13.7298  -13.2836    0.0000 C   0  0  0  0  0  0  0  0  0  0  0  0
   14.4443  -12.8711    0.0000 C   0  0  0  0  0  0  0  0  0  0  0  0
   15.8732  -12.0461    0.0000 O   0  0  0  0  0  0  0  0  0  0  0  0
   16.5877  -13.2836    0.0000 O   0  0  0  0  0  0  0  0  0  0  0  0
   15.8732  -14.5211    0.0000 N   0  0  0  0  0  0  0  0  0  0  0  0
   16.5877  -14.1086    0.0000 O   0  0  0  0  0  0  0  0  0  0  0  0
  1  2  1  0  0  0  0
  2  3  1  0  0  0  0
  3  4  2  0  0  0  0
  4  5  1  0  0  0  0
  5  6  2  0  0  0  0
  6  7  1  0  0  0  0
  2  7  2  0  0  0  0
  1  8  2  0  0  0  0
  1  9  1  0  0  0  0
 10 11  2  0  0  0  0
  3 10  1  0  0  0  0
M  END
>  <cdx:groupId>
1809

>  <cdx:fragmentId>
1779

$$$$
