10345235.cdx
  Mrv1902 05222410272D          

 35 37  0  0  0  0            999 V2000
    9.6433  -15.1957    0.0000 N   0  0  0  0  0  0  0  0  0  0  0  0
    9.5571  -16.0162    0.0000 C   0  0  0  0  0  0  0  0  0  0  0  0
    8.8034  -16.3518    0.0000 C   0  0  1  0  0  0  0  0  0  0  0  0
    8.1360  -15.8668    0.0000 N   0  0  0  0  0  0  0  0  0  0  0  0
    7.3290  -16.0384    0.0000 C   0  0  0  0  0  0  0  0  0  0  0  0
    6.7770  -15.4253    0.0000 C   0  0  1  0  0  0  0  0  0  0  0  0
    7.0319  -14.6406    0.0000 N   0  0  0  0  0  0  0  0  0  0  0  0
    6.6194  -13.9262    0.0000 C   0  0  0  0  0  0  0  0  0  0  0  0
    7.0319  -13.2117    0.0000 C   0  0  1  0  0  0  0  0  0  0  0  0
    7.8569  -13.2117    0.0000 N   0  0  0  0  0  0  0  0  0  0  0  0
    8.4090  -12.5986    0.0000 C   0  0  0  0  0  0  0  0  0  0  0  0
    9.2159  -12.7701    0.0000 C   0  0  1  0  0  0  0  0  0  0  0  0
    9.4709  -13.5548    0.0000 N   0  0  0  0  0  0  0  0  0  0  0  0
   10.2245  -13.8903    0.0000 C   0  0  0  0  0  0  0  0  0  0  0  0
   10.3108  -14.7108    0.0000 C   0  0  0  0  0  0  0  0  0  0  0  0
   10.2245  -16.5011    0.0000 O   0  0  0  0  0  0  0  0  0  0  0  0
    7.0741  -16.8230    0.0000 O   0  0  0  0  0  0  0  0  0  0  0  0
    5.7944  -13.9262    0.0000 O   0  0  0  0  0  0  0  0  0  0  0  0
    8.1540  -11.8140    0.0000 O   0  0  0  0  0  0  0  0  0  0  0  0
   10.8920  -13.4054    0.0000 O   0  0  0  0  0  0  0  0  0  0  0  0
    9.5130  -11.3724    0.0000 C   0  0  0  0  0  0  0  0  0  0  0  0
    9.7680  -12.1570    0.0000 C   0  0  0  0  0  0  0  0  0  0  0  0
   10.5749  -12.3286    0.0000 C   0  0  0  0  0  0  0  0  0  0  0  0
    6.6194  -12.4972    0.0000 C   0  0  0  0  0  0  0  0  0  0  0  0
    8.7172  -17.1722    0.0000 C   0  0  0  0  0  0  0  0  0  0  0  0
    5.9700  -15.5968    0.0000 C   0  0  0  0  0  0  0  0  0  0  0  0
    5.7151  -17.7163    0.0000 N   0  0  0  0  0  0  0  0  0  0  0  0
    6.2000  -17.0489    0.0000 C   0  0  0  0  0  0  0  0  0  0  0  0
    5.7151  -16.3814    0.0000 C   0  0  0  0  0  0  0  0  0  0  0  0
    4.9305  -16.6364    0.0000 C   0  0  0  0  0  0  0  0  0  0  0  0
    4.2160  -16.2239    0.0000 C   0  0  0  0  0  0  0  0  0  0  0  0
    3.5015  -16.6364    0.0000 C   0  0  0  0  0  0  0  0  0  0  0  0
    3.5015  -17.4614    0.0000 C   0  0  0  0  0  0  0  0  0  0  0  0
    4.2160  -17.8739    0.0000 C   0  0  0  0  0  0  0  0  0  0  0  0
    4.9305  -17.4614    0.0000 C   0  0  0  0  0  0  0  0  0  0  0  0
  1  2  1  0  0  0  0
  2  3  1  0  0  0  0
  3  4  1  0  0  0  0
  4  5  1  0  0  0  0
  5  6  1  0  0  0  0
  6  7  1  0  0  0  0
  7  8  1  0  0  0  0
  8  9  1  0  0  0  0
  9 10  1  0  0  0  0
 10 11  1  0  0  0  0
 11 12  1  0  0  0  0
 12 13  1  0  0  0  0
 13 14  1  0  0  0  0
 14 15  1  0  0  0  0
  1 15  1  0  0  0  0
  2 16  2  0  0  0  0
  5 17  2  0  0  0  0
  8 18  2  0  0  0  0
 11 19  2  0  0  0  0
 14 20  2  0  0  0  0
 21 22  1  0  0  0  0
 22 23  1  0  0  0  0
 12 22  1  6  0  0  0
  9 24  1  6  0  0  0
  3 25  1  6  0  0  0
 27 28  1  0  0  0  0
 28 29  2  0  0  0  0
 29 30  1  0  0  0  0
 30 31  1  0  0  0  0
 31 32  2  0  0  0  0
 32 33  1  0  0  0  0
 33 34  2  0  0  0  0
 34 35  1  0  0  0  0
 27 35  1  0  0  0  0
 30 35  2  0  0  0  0
 26 29  1  0  0  0  0
  6 26  1  6  0  0  0
M  END
>  <cdx:groupId>
45902

>  <cdx:fragmentId>
45798

$$$$
