345583.cdx
  Mrv1902 05222410282D          

 34 36  0  0  0  0            999 V2000
    6.7909   -9.0014    0.0000 C   0  0  0  0  0  0  0  0  0  0  0  0
    7.5097   -9.4063    0.0000 C   0  0  0  0  0  0  0  0  0  0  0  0
    8.2197   -8.9862    0.0000 C   0  0  0  0  0  0  0  0  0  0  0  0
    8.9385   -9.3911    0.0000 C   0  0  0  0  0  0  0  0  0  0  0  0
    8.9473  -10.2160    0.0000 C   0  0  0  0  0  0  0  0  0  0  0  0
    8.2373  -10.6361    0.0000 C   0  0  0  0  0  0  0  0  0  0  0  0
    7.5185  -10.2312    0.0000 C   0  0  0  0  0  0  0  0  0  0  0  0
    6.0808   -9.4215    0.0000 O   0  0  0  0  0  0  0  0  0  0  0  0
    6.7821   -8.1765    0.0000 O   0  0  0  0  0  0  0  0  0  0  0  0
    8.2461  -11.4611    0.0000 O   0  0  0  0  0  0  0  0  0  0  0  0
    9.6662  -10.6209    0.0000 O   0  0  0  0  0  0  0  0  0  0  0  0
    9.6486   -8.9710    0.0000 O   0  0  0  0  0  0  0  0  0  0  0  0
    5.3356   -6.5418    0.0000 O   0  0  0  0  0  0  0  0  0  0  0  0
    6.0545   -6.9467    0.0000 C   0  0  2  0  0  0  0  0  0  0  0  0
    6.0632   -7.7716    0.0000 C   0  0  1  0  0  0  0  0  0  0  0  0
    5.3532   -8.1917    0.0000 C   0  0  2  0  0  0  0  0  0  0  0  0
    4.6344   -7.7868    0.0000 C   0  0  1  0  0  0  0  0  0  0  0  0
    4.6256   -6.9619    0.0000 C   0  0  1  0  0  0  0  0  0  0  0  0
    6.7645   -6.5266    0.0000 O   0  0  0  0  0  0  0  0  0  0  0  0
    7.4833   -6.9314    0.0000 C   0  0  0  0  0  0  0  0  0  0  0  0
    8.1934   -6.5113    0.0000 C   0  0  0  0  0  0  0  0  0  0  0  0
    8.9122   -6.9162    0.0000 C   0  0  0  0  0  0  0  0  0  0  0  0
    8.9210   -7.7412    0.0000 C   0  0  0  0  0  0  0  0  0  0  0  0
    8.2109   -8.1612    0.0000 C   0  0  0  0  0  0  0  0  0  0  0  0
    7.4921   -7.7564    0.0000 C   0  0  0  0  0  0  0  0  0  0  0  0
    9.6398   -8.1460    0.0000 C   0  0  0  0  0  0  0  0  0  0  0  0
   10.3498   -7.7259    0.0000 C   0  0  0  0  0  0  0  0  0  0  0  0
   11.0687   -8.1308    0.0000 C   0  0  0  0  0  0  0  0  0  0  0  0
   11.7787   -7.7107    0.0000 C   0  0  0  0  0  0  0  0  0  0  0  0
   11.0774   -8.9558    0.0000 O   0  0  0  0  0  0  0  0  0  0  0  0
    3.9068   -6.5570    0.0000 C   0  0  0  0  0  0  0  0  0  0  0  0
    3.1967   -6.9771    0.0000 O   0  0  0  0  0  0  0  0  0  0  0  0
    3.9244   -8.2069    0.0000 O   0  0  0  0  0  0  0  0  0  0  0  0
    5.3620   -9.0166    0.0000 O   0  0  0  0  0  0  0  0  0  0  0  0
  1  2  1  0  0  0  0
  2  3  1  0  0  0  0
  3  4  2  0  0  0  0
  4  5  1  0  0  0  0
  5  6  2  0  0  0  0
  6  7  1  0  0  0  0
  2  7  2  0  0  0  0
  1  8  2  0  0  0  0
  1  9  1  0  0  0  0
  6 10  1  0  0  0  0
  5 11  1  0  0  0  0
  4 12  1  0  0  0  0
 13 14  1  0  0  0  0
 14 15  1  0  0  0  0
 15 16  1  0  0  0  0
 16 17  1  0  0  0  0
 17 18  1  0  0  0  0
 13 18  1  0  0  0  0
 20 21  1  0  0  0  0
 21 22  2  0  0  0  0
 22 23  1  0  0  0  0
 23 24  2  0  0  0  0
 24 25  1  0  0  0  0
 20 25  2  0  0  0  0
 19 20  1  0  0  0  0
 26 27  1  0  0  0  0
 27 28  1  0  0  0  0
 28 29  1  0  0  0  0
 28 30  2  0  0  0  0
 23 26  1  0  0  0  0
 14 19  1  1  0  0  0
 31 32  1  0  0  0  0
 18 31  1  1  0  0  0
 17 33  1  6  0  0  0
 16 34  1  1  0  0  0
 15  9  1  6  0  0  0
M  END
>  <cdx:fragmentId>
105436

$$$$
