3457.cdx
  Mrv1902 05222410192D          

 15 16  0  0  0  0            999 V2000
    6.2870   -5.6650    0.0000 C   0  0  0  0  0  0  0  0  0  0  0  0
    6.2870   -6.4900    0.0000 C   0  0  0  0  0  0  0  0  0  0  0  0
    7.0015   -6.9025    0.0000 C   0  0  0  0  0  0  0  0  0  0  0  0
    7.7160   -6.4900    0.0000 C   0  0  0  0  0  0  0  0  0  0  0  0
    7.7160   -5.6650    0.0000 C   0  0  0  0  0  0  0  0  0  0  0  0
    7.0015   -5.2525    0.0000 C   0  0  0  0  0  0  0  0  0  0  0  0
    8.4304   -6.9025    0.0000 C   0  0  0  0  0  0  0  0  0  0  0  0
    9.1449   -6.4900    0.0000 C   0  0  0  0  0  0  0  0  0  0  0  0
    9.1449   -5.6650    0.0000 C   0  0  0  0  0  0  0  0  0  0  0  0
    8.4304   -5.2525    0.0000 C   0  0  0  0  0  0  0  0  0  0  0  0
    5.5726   -6.9025    0.0000 C   0  0  0  0  0  0  0  0  0  0  0  0
    7.7160   -7.3150    0.0000 C   0  0  0  0  0  0  0  0  0  0  0  0
    7.0015   -7.7275    0.0000 O   0  0  0  0  0  0  0  0  0  0  0  0
    8.0179   -4.5380    0.0000 C   0  0  0  0  0  0  0  0  0  0  0  0
    8.8429   -4.5380    0.0000 C   0  0  0  0  0  0  0  0  0  0  0  0
  1  2  1  0  0  0  0
  2  3  1  0  0  0  0
  3  4  1  0  0  0  0
  4  5  1  0  0  0  0
  5  6  2  0  0  0  0
  6  1  1  0  0  0  0
  4  7  1  0  0  0  0
  7  8  1  0  0  0  0
  8  9  1  0  0  0  0
  9 10  1  0  0  0  0
 10  5  1  0  0  0  0
  2 11  1  0  0  0  0
  4 12  1  0  0  0  0
  3 13  2  0  0  0  0
 10 14  1  0  0  0  0
 10 15  1  0  0  0  0
M  END
>  <cdx:fragmentId>
5

$$$$
