345824.cdx
  Mrv1902 05222410202D          

 15 16  0  0  0  0            999 V2000
    8.5895   -9.7845    0.0000 N   0  0  0  0  0  0  0  0  0  0  0  0
    9.3039   -9.3720    0.0000 C   0  0  0  0  0  0  0  0  0  0  0  0
    9.3039   -8.5470    0.0000 C   0  0  0  0  0  0  0  0  0  0  0  0
    8.5895   -8.1345    0.0000 C   0  0  0  0  0  0  0  0  0  0  0  0
    7.8750   -8.5470    0.0000 C   0  0  0  0  0  0  0  0  0  0  0  0
    7.1605   -8.1345    0.0000 C   0  0  0  0  0  0  0  0  0  0  0  0
    6.4460   -8.5470    0.0000 C   0  0  0  0  0  0  0  0  0  0  0  0
    6.4460   -9.3720    0.0000 C   0  0  0  0  0  0  0  0  0  0  0  0
    7.1605   -9.7845    0.0000 C   0  0  0  0  0  0  0  0  0  0  0  0
    7.8750   -9.3720    0.0000 C   0  0  0  0  0  0  0  0  0  0  0  0
    8.5895   -7.3095    0.0000 C   0  0  0  0  0  0  0  0  0  0  0  0
    7.8750   -6.8970    0.0000 O   0  0  0  0  0  0  0  0  0  0  0  0
    9.3039   -6.8970    0.0000 O   0  0  0  0  0  0  0  0  0  0  0  0
    5.7316   -8.1345    0.0000 O   0  0  0  0  0  0  0  0  0  0  0  0
    5.0171   -8.5470    0.0000 C   0  0  0  0  0  0  0  0  0  0  0  0
  1  2  2  0  0  0  0
  2  3  1  0  0  0  0
  3  4  2  0  0  0  0
  4  5  1  0  0  0  0
  5  6  2  0  0  0  0
  6  7  1  0  0  0  0
  7  8  2  0  0  0  0
  8  9  1  0  0  0  0
  9 10  2  0  0  0  0
  1 10  1  0  0  0  0
  5 10  1  0  0  0  0
 11 12  2  0  0  0  0
 11 13  1  0  0  0  0
  4 11  1  0  0  0  0
 14 15  1  0  0  0  0
  7 14  1  0  0  0  0
M  END
>  <cdx:groupId>
1942

>  <cdx:fragmentId>
1899

$$$$
