34627.cdx
  Mrv1902 05222410192D          

 11 11  0  0  0  0            999 V2000
    5.0975   -2.1930    0.0000 C   0  0  0  0  0  0  0  0  0  0  0  0
    5.0975   -3.0180    0.0000 C   0  0  0  0  0  0  0  0  0  0  0  0
    4.3830   -3.4305    0.0000 C   0  0  0  0  0  0  0  0  0  0  0  0
    3.6686   -3.0180    0.0000 C   0  0  0  0  0  0  0  0  0  0  0  0
    3.6686   -2.1930    0.0000 C   0  0  0  0  0  0  0  0  0  0  0  0
    4.3830   -1.7805    0.0000 C   0  0  0  0  0  0  0  0  0  0  0  0
    2.9541   -1.7805    0.0000 C   0  0  0  0  0  0  0  0  0  0  0  0
    5.8120   -3.4305    0.0000 C   0  0  0  0  0  0  0  0  0  0  0  0
    6.5265   -3.0180    0.0000 C   0  0  0  0  0  0  0  0  0  0  0  0
    5.8120   -4.2555    0.0000 C   0  0  0  0  0  0  0  0  0  0  0  0
    7.2409   -3.4305    0.0000 O   0  0  0  0  0  0  0  0  0  0  0  0
  1  2  1  0  0  0  0
  2  3  1  0  0  0  0
  3  4  1  0  0  0  0
  4  5  1  0  0  0  0
  5  6  1  0  0  0  0
  1  6  1  0  0  0  0
  5  7  2  0  0  0  0
  8  9  1  0  0  0  0
  8 10  2  0  0  0  0
  2  8  1  0  0  0  0
  9 11  1  0  0  0  0
M  END
>  <cdx:groupId>
35

>  <cdx:fragmentId>
5

$$$$
