34645.cdx
  Mrv1902 05222410222D          

 11 11  0  0  0  0            999 V2000
    4.2380   -3.9875    0.0000 C   0  0  0  0  0  0  0  0  0  0  0  0
    4.2380   -3.1625    0.0000 C   0  0  0  0  0  0  0  0  0  0  0  0
    4.9525   -2.7500    0.0000 C   0  0  0  0  0  0  0  0  0  0  0  0
    5.6670   -3.1625    0.0000 C   0  0  0  0  0  0  0  0  0  0  0  0
    5.6670   -3.9875    0.0000 C   0  0  0  0  0  0  0  0  0  0  0  0
    4.9525   -4.4000    0.0000 C   0  0  0  0  0  0  0  0  0  0  0  0
    3.5235   -4.4000    0.0000 O   0  0  0  0  0  0  0  0  0  0  0  0
    3.5235   -1.9250    0.0000 C   0  0  0  0  0  0  0  0  0  0  0  0
    3.5235   -2.7500    0.0000 C   0  0  0  0  0  0  0  0  0  0  0  0
    2.8091   -3.1625    0.0000 C   0  0  0  0  0  0  0  0  0  0  0  0
    6.3814   -4.4000    0.0000 C   0  0  0  0  0  0  0  0  0  0  0  0
  1  2  1  0  0  0  0
  2  3  1  0  0  0  0
  3  4  1  0  0  0  0
  4  5  1  0  0  0  0
  5  6  1  0  0  0  0
  1  6  1  0  0  0  0
  1  7  2  0  0  0  0
  8  9  2  0  0  0  0
  9 10  1  0  0  0  0
  2  9  1  0  0  0  0
  5 11  1  0  0  0  0
M  END
>  <cdx:groupId>
35

>  <cdx:fragmentId>
5

$$$$
