3469.cdx
  Mrv1902 05222410182D          

 11 11  0  0  0  0            999 V2000
    6.7601   -3.7202    0.0000 C   0  0  0  0  0  0  0  0  0  0  0  0
    6.0456   -4.1327    0.0000 C   0  0  0  0  0  0  0  0  0  0  0  0
    6.0456   -4.9577    0.0000 C   0  0  0  0  0  0  0  0  0  0  0  0
    5.3311   -5.3702    0.0000 C   0  0  0  0  0  0  0  0  0  0  0  0
    4.6167   -4.9577    0.0000 C   0  0  0  0  0  0  0  0  0  0  0  0
    4.6167   -4.1327    0.0000 C   0  0  0  0  0  0  0  0  0  0  0  0
    5.3311   -3.7202    0.0000 C   0  0  0  0  0  0  0  0  0  0  0  0
    6.7601   -2.8952    0.0000 O   0  0  0  0  0  0  0  0  0  0  0  0
    7.4746   -4.1327    0.0000 O   0  0  0  0  0  0  0  0  0  0  0  0
    3.9022   -3.7202    0.0000 O   0  0  0  0  0  0  0  0  0  0  0  0
    6.7601   -5.3702    0.0000 O   0  0  0  0  0  0  0  0  0  0  0  0
  1  2  1  0  0  0  0
  2  3  1  0  0  0  0
  3  4  2  0  0  0  0
  4  5  1  0  0  0  0
  5  6  2  0  0  0  0
  6  7  1  0  0  0  0
  2  7  2  0  0  0  0
  1  8  2  0  0  0  0
  1  9  1  0  0  0  0
  6 10  1  0  0  0  0
  3 11  1  0  0  0  0
M  END
>  <cdx:groupId>
35

>  <cdx:fragmentId>
5

$$$$
