346914.cdx
  Mrv1902 05222410202D          

 38 39  0  0  0  0            999 V2000
    7.2409  -10.4800    0.0000 C   0  0  0  0  0  0  0  0  0  0  0  0
    6.5264  -10.8925    0.0000 C   0  0  0  0  0  0  0  0  0  0  0  0
    5.8120  -10.4800    0.0000 C   0  0  0  0  0  0  0  0  0  0  0  0
    7.2409   -9.6550    0.0000 O   0  0  0  0  0  0  0  0  0  0  0  0
    7.9554  -10.8925    0.0000 N   0  0  0  0  0  0  0  0  0  0  0  0
    5.0975  -10.8925    0.0000 C   0  0  0  0  0  0  0  0  0  0  0  0
    4.3830  -10.4800    0.0000 C   0  0  0  0  0  0  0  0  0  0  0  0
    3.6686  -10.8925    0.0000 C   0  0  0  0  0  0  0  0  0  0  0  0
    3.6686  -11.7175    0.0000 C   0  0  0  0  0  0  0  0  0  0  0  0
    4.3830  -12.1300    0.0000 C   0  0  0  0  0  0  0  0  0  0  0  0
    5.0975  -11.7175    0.0000 C   0  0  0  0  0  0  0  0  0  0  0  0
    2.9541  -12.1300    0.0000 O   0  0  0  0  0  0  0  0  0  0  0  0
    2.9541  -10.4800    0.0000 O   0  0  0  0  0  0  0  0  0  0  0  0
    8.6699  -10.4800    0.0000 C   0  0  0  0  0  0  0  0  0  0  0  0
    9.3843  -10.8925    0.0000 C   0  0  0  0  0  0  0  0  0  0  0  0
   10.0988  -10.4800    0.0000 C   0  0  0  0  0  0  0  0  0  0  0  0
   10.8133  -10.8925    0.0000 N   0  0  0  0  0  0  0  0  0  0  0  0
   11.5277  -10.4800    0.0000 C   0  0  0  0  0  0  0  0  0  0  0  0
   12.2422  -10.8925    0.0000 C   0  0  0  0  0  0  0  0  0  0  0  0
   12.9567  -10.4800    0.0000 C   0  0  0  0  0  0  0  0  0  0  0  0
   13.6711  -10.8925    0.0000 C   0  0  0  0  0  0  0  0  0  0  0  0
   14.3856  -10.4800    0.0000 N   0  0  0  0  0  0  0  0  0  0  0  0
   15.1001  -10.8925    0.0000 C   0  0  0  0  0  0  0  0  0  0  0  0
   15.8146  -10.4800    0.0000 C   0  0  0  0  0  0  0  0  0  0  0  0
   16.5290  -10.8925    0.0000 C   0  0  0  0  0  0  0  0  0  0  0  0
   15.1001  -11.7175    0.0000 O   0  0  0  0  0  0  0  0  0  0  0  0
   17.2435  -10.4800    0.0000 C   0  0  0  0  0  0  0  0  0  0  0  0
   17.9580  -10.8925    0.0000 C   0  0  0  0  0  0  0  0  0  0  0  0
   18.6724  -10.4800    0.0000 C   0  0  0  0  0  0  0  0  0  0  0  0
   18.6724   -9.6550    0.0000 C   0  0  0  0  0  0  0  0  0  0  0  0
   17.9580   -9.2425    0.0000 C   0  0  0  0  0  0  0  0  0  0  0  0
   17.2435   -9.6550    0.0000 C   0  0  0  0  0  0  0  0  0  0  0  0
   19.3869   -9.2425    0.0000 O   0  0  0  0  0  0  0  0  0  0  0  0
   19.3869  -10.8925    0.0000 O   0  0  0  0  0  0  0  0  0  0  0  0
   14.3856   -9.6550    0.0000 C   0  0  0  0  0  0  0  0  0  0  0  0
   15.1001   -9.2425    0.0000 C   0  0  0  0  0  0  0  0  0  0  0  0
   15.1001   -8.4175    0.0000 C   0  0  0  0  0  0  0  0  0  0  0  0
   15.8146   -8.0050    0.0000 N   0  0  0  0  0  0  0  0  0  0  0  0
  1  2  1  0  0  0  0
  2  3  1  0  0  0  0
  1  4  2  0  0  0  0
  1  5  1  0  0  0  0
  6  7  1  0  0  0  0
  7  8  2  0  0  0  0
  8  9  1  0  0  0  0
  9 10  2  0  0  0  0
 10 11  1  0  0  0  0
  6 11  2  0  0  0  0
  9 12  1  0  0  0  0
  8 13  1  0  0  0  0
  3  6  1  0  0  0  0
 14 15  1  0  0  0  0
 15 16  1  0  0  0  0
 18 19  1  0  0  0  0
 19 20  1  0  0  0  0
 20 21  1  0  0  0  0
 23 24  1  0  0  0  0
 24 25  1  0  0  0  0
 23 26  2  0  0  0  0
 27 28  1  0  0  0  0
 28 29  2  0  0  0  0
 29 30  1  0  0  0  0
 30 31  2  0  0  0  0
 31 32  1  0  0  0  0
 27 32  2  0  0  0  0
 30 33  1  0  0  0  0
 29 34  1  0  0  0  0
 25 27  1  0  0  0  0
 22 23  1  0  0  0  0
 35 36  1  0  0  0  0
 36 37  1  0  0  0  0
 37 38  1  0  0  0  0
 22 35  1  0  0  0  0
 21 22  1  0  0  0  0
 17 18  1  0  0  0  0
 16 17  1  0  0  0  0
  5 14  1  0  0  0  0
M  END
>  <cdx:fragmentId>
45966

$$$$
