34714.cdx
  Mrv1902 05222410242D          

 35 39  0  0  0  0            999 V2000
    5.1642  -10.1412    0.0000 C   0  0  0  0  0  0  0  0  0  0  0  0
    4.4497  -10.5537    0.0000 C   0  0  0  0  0  0  0  0  0  0  0  0
    4.4497  -11.3787    0.0000 C   0  0  1  0  0  0  0  0  0  0  0  0
    5.1642  -11.7912    0.0000 C   0  0  0  0  0  0  0  0  0  0  0  0
    5.8787  -11.3787    0.0000 C   0  0  0  0  0  0  0  0  0  0  0  0
    6.5931  -11.7912    0.0000 C   0  0  0  0  0  0  0  0  0  0  0  0
    7.3076  -11.3787    0.0000 C   0  0  0  0  0  0  0  0  0  0  0  0
    7.3076  -10.5537    0.0000 C   0  0  1  0  0  0  0  0  0  0  0  0
    8.0221  -10.1412    0.0000 C   0  0  2  0  0  0  0  0  0  0  0  0
    8.8067  -10.3961    0.0000 C   0  0  0  0  0  0  0  0  0  0  0  0
    9.2916   -9.7287    0.0000 C   0  0  0  0  0  0  0  0  0  0  0  0
    8.8067   -9.0612    0.0000 C   0  0  1  0  0  0  0  0  0  0  0  0
    8.0221   -9.3162    0.0000 C   0  0  1  0  0  0  0  0  0  0  0  0
    7.3076   -8.9037    0.0000 C   0  0  0  0  0  0  0  0  0  0  0  0
    6.5931   -9.3162    0.0000 C   0  0  0  0  0  0  0  0  0  0  0  0
    6.5931  -10.1412    0.0000 C   0  0  2  0  0  0  0  0  0  0  0  0
    5.8787  -10.5537    0.0000 C   0  0  1  0  0  0  0  0  0  0  0  0
    3.7353  -11.7912    0.0000 O   0  0  0  0  0  0  0  0  0  0  0  0
   10.4817   -7.5531    0.0000 C   0  0  1  0  0  0  0  0  0  0  0  0
   11.8894   -7.7988    0.0000 C   0  0  0  0  0  0  0  0  0  0  0  0
   11.2565   -7.2696    0.0000 C   0  0  2  0  0  0  0  0  0  0  0  0
   11.3983   -6.4569    0.0000 C   0  0  0  0  0  0  0  0  0  0  0  0
   10.7654   -5.9276    0.0000 C   0  0  0  0  0  0  0  0  0  0  0  0
    8.1083   -8.4957    0.0000 C   0  0  0  0  0  0  0  0  0  0  0  0
    5.8787   -9.7287    0.0000 C   0  0  0  0  0  0  0  0  0  0  0  0
    7.3076   -9.7287    0.0000 H   0  0  0  0  0  0  0  0  0  0  0  0
    6.5931  -10.9662    0.0000 H   0  0  0  0  0  0  0  0  0  0  0  0
    8.0221  -10.9662    0.0000 H   0  0  0  0  0  0  0  0  0  0  0  0
   10.0991   -6.8904    0.0000 C   0  0  0  0  0  0  0  0  0  0  0  0
   12.1731   -6.1734    0.0000 C   0  0  0  0  0  0  0  0  0  0  0  0
   10.6532   -8.3600    0.0000 C   0  0  0  0  0  0  0  0  0  0  0  0
    9.8686   -8.1051    0.0000 C   0  0  2  0  0  0  0  0  0  0  0  0
    8.5096   -7.6635    0.0000 C   0  0  0  0  0  0  0  0  0  0  0  0
    9.0616   -8.2766    0.0000 C   0  0  1  0  0  0  0  0  0  0  0  0
    9.5913   -8.8063    0.0000 H   0  0  0  0  0  0  0  0  0  0  0  0
 34 32  1  0  0  0  0
 19 29  1  6  0  0  0
 32 31  1  6  0  0  0
 19 31  1  0  0  0  0
 32 19  1  0  0  0  0
 34 33  1  6  0  0  0
  1  2  1  0  0  0  0
  2  3  1  0  0  0  0
  3  4  1  0  0  0  0
  4  5  1  0  0  0  0
  5  6  2  0  0  0  0
  6  7  1  0  0  0  0
  7  8  1  0  0  0  0
  8  9  1  0  0  0  0
  9 10  1  0  0  0  0
 10 11  1  0  0  0  0
 12 11  1  0  0  0  0
 12 13  1  0  0  0  0
  9 13  1  0  0  0  0
 13 14  1  0  0  0  0
 14 15  1  0  0  0  0
 15 16  1  0  0  0  0
  8 16  1  0  0  0  0
 16 17  1  0  0  0  0
  5 17  1  0  0  0  0
  1 17  1  0  0  0  0
  3 18  1  1  0  0  0
 21 20  1  1  0  0  0
 21 22  1  0  0  0  0
 22 23  1  0  0  0  0
 22 30  1  0  0  0  0
 19 21  1  0  0  0  0
 12 34  1  0  0  0  0
 13 24  1  1  0  0  0
 17 25  1  1  0  0  0
  8 26  1  1  0  0  0
 16 27  1  6  0  0  0
  9 28  1  6  0  0  0
 12 35  1  6  0  0  0
M  END
>  <cdx:groupId>
109523

>  <cdx:fragmentId>
109420

$$$$
