347173.cdx
  Mrv1902 05222410192D          

 22 25  0  0  0  0            999 V2000
    7.7621   -6.2941    0.0000 C   0  0  0  0  0  0  0  0  0  0  0  0
    6.9371   -6.2851    0.0000 C   0  0  0  0  0  0  0  0  0  0  0  0
    6.4235   -6.9307    0.0000 C   0  0  0  0  0  0  0  0  0  0  0  0
    6.6179   -7.7325    0.0000 C   0  0  1  0  0  0  0  0  0  0  0  0
    5.8989   -8.1372    0.0000 C   0  0  1  0  0  0  0  0  0  0  0  0
    5.8899   -8.9621    0.0000 C   0  0  0  0  0  0  0  0  0  0  0  0
    6.5998   -9.3824    0.0000 C   0  0  0  0  0  0  0  0  0  0  0  0
    7.3188   -8.9777    0.0000 C   0  0  1  0  0  0  0  0  0  0  0  0
    8.0287   -9.3980    0.0000 C   0  0  2  0  0  0  0  0  0  0  0  0
    8.7476   -8.9934    0.0000 C   0  0  0  0  0  0  0  0  0  0  0  0
    8.7566   -8.1684    0.0000 O   0  0  0  0  0  0  0  0  0  0  0  0
    8.0467   -7.7481    0.0000 C   0  0  1  0  0  0  0  0  0  0  0  0
    7.3278   -8.1528    0.0000 C   0  0  1  0  0  0  0  0  0  0  0  0
    7.0786   -7.1130    0.0000 O   0  0  0  0  0  0  0  0  0  0  0  0
    8.2614   -6.9508    0.0000 O   0  0  0  0  0  0  0  0  0  0  0  0
    9.4575   -9.4136    0.0000 O   0  0  0  0  0  0  0  0  0  0  0  0
    8.0197  -10.2230    0.0000 C   0  0  0  0  0  0  0  0  0  0  0  0
    5.1890   -7.7169    0.0000 C   0  0  0  0  0  0  0  0  0  0  0  0
    8.1824   -5.5842    0.0000 C   0  0  0  0  0  0  0  0  0  0  0  0
    5.8613   -7.4035    0.0000 H   0  0  0  0  0  0  0  0  0  0  0  0
    7.3097   -9.8027    0.0000 H   0  0  0  0  0  0  0  0  0  0  0  0
    8.8108   -7.4371    0.0000 H   0  0  0  0  0  0  0  0  0  0  0  0
  1  2  1  0  0  0  0
  2  3  1  0  0  0  0
  3  4  1  0  0  0  0
  4  5  1  0  0  0  0
  5  6  1  0  0  0  0
  6  7  1  0  0  0  0
  7  8  1  0  0  0  0
  8  9  1  0  0  0  0
  9 10  1  0  0  0  0
 10 11  1  0  0  0  0
 11 12  1  0  0  0  0
 12 13  1  0  0  0  0
 13 14  1  1  0  0  0
  1 14  1  0  0  0  0
  1 15  1  0  0  0  0
 15 12  1  0  0  0  0
  8 13  1  0  0  0  0
  4 13  1  0  0  0  0
 10 16  2  0  0  0  0
  9 17  1  6  0  0  0
  5 18  1  1  0  0  0
  1 19  1  0  0  0  0
  4 20  1  1  0  0  0
  8 21  1  1  0  0  0
 12 22  1  6  0  0  0
M  END
>  <cdx:fragmentId>
5

$$$$
