347309.cdx
  Mrv1902 05222410252D          

 41 47  0  0  0  0            999 V2000
    5.4660   -8.9775    0.0000 C   0  0  0  0  0  0  0  0  0  0  0  0
    4.9048   -9.5822    0.0000 C   0  0  0  0  0  0  0  0  0  0  0  0
    5.1935   -8.1988    0.0000 O   0  0  0  0  0  0  0  0  0  0  0  0
    6.2766   -9.1309    0.0000 O   0  0  0  0  0  0  0  0  0  0  0  0
    6.2834  -11.3136    0.0000 C   0  0  2  0  0  0  0  0  0  0  0  0
    5.6580  -11.8517    0.0000 C   0  0  2  0  0  0  0  0  0  0  0  0
    4.8644  -11.6263    0.0000 C   0  0  0  0  0  0  0  0  0  0  0  0
    4.4048  -12.3114    0.0000 C   0  0  1  0  0  0  0  0  0  0  0  0
    4.9143  -12.9602    0.0000 C   0  0  0  0  0  0  0  0  0  0  0  0
    5.6889  -12.6762    0.0000 C   0  0  1  0  0  0  0  0  0  0  0  0
    6.3527  -13.1661    0.0000 C   0  0  1  0  0  0  0  0  0  0  0  0
    7.1496  -12.9525    0.0000 C   0  0  1  0  0  0  0  0  0  0  0  0
    7.9694  -12.8602    0.0000 O   0  0  0  0  0  0  0  0  0  0  0  0
    7.4795  -12.1964    0.0000 C   0  0  1  0  0  0  0  0  0  0  0  0
    7.0940  -11.4670    0.0000 C   0  0  1  0  0  0  0  0  0  0  0  0
    7.6321  -10.8417    0.0000 C   0  0  1  0  0  0  0  0  0  0  0  0
    8.4569  -10.8232    0.0000 O   0  0  0  0  0  0  0  0  0  0  0  0
    8.6942  -10.0330    0.0000 C   0  0  0  0  0  0  0  0  0  0  0  0
    8.0161   -9.5632    0.0000 O   0  0  0  0  0  0  0  0  0  0  0  0
    7.3597  -10.0630    0.0000 C   0  0  1  0  0  0  0  0  0  0  0  0
    6.5490   -9.9096    0.0000 C   0  0  1  0  0  0  0  0  0  0  0  0
    6.0109  -10.5349    0.0000 C   0  0  1  0  0  0  0  0  0  0  0  0
    6.8475  -10.6425    0.0000 O   0  0  0  0  0  0  0  0  0  0  0  0
    4.6889  -13.7538    0.0000 O   0  0  0  0  0  0  0  0  0  0  0  0
    5.2003  -10.3815    0.0000 C   0  0  0  0  0  0  0  0  0  0  0  0
    3.5804  -12.3422    0.0000 C   0  0  0  0  0  0  0  0  0  0  0  0
    7.3029  -13.7632    0.0000 C   0  0  0  0  0  0  0  0  0  0  0  0
    8.0816  -14.0356    0.0000 O   0  0  0  0  0  0  0  0  0  0  0  0
    6.1993  -13.9767    0.0000 O   0  0  0  0  0  0  0  0  0  0  0  0
    5.5720  -13.4928    0.0000 O   0  0  0  0  0  0  0  0  0  0  0  0
    5.4805  -11.0461    0.0000 H   0  0  0  0  0  0  0  0  0  0  0  0
    7.8909  -11.6805    0.0000 H   0  0  0  0  0  0  0  0  0  0  0  0
    7.3597   -9.2380    0.0000 C   0  0  0  0  0  0  0  0  0  0  0  0
    6.6452   -8.8255    0.0000 C   0  0  0  0  0  0  0  0  0  0  0  0
    8.0741   -8.8255    0.0000 C   0  0  0  0  0  0  0  0  0  0  0  0
    9.4729   -9.7605    0.0000 C   0  0  0  0  0  0  0  0  0  0  0  0
   10.0982  -10.2987    0.0000 C   0  0  0  0  0  0  0  0  0  0  0  0
   10.8769  -10.0262    0.0000 C   0  0  0  0  0  0  0  0  0  0  0  0
   11.0303   -9.2156    0.0000 C   0  0  0  0  0  0  0  0  0  0  0  0
   10.4050   -8.6775    0.0000 C   0  0  0  0  0  0  0  0  0  0  0  0
    9.6263   -8.9499    0.0000 C   0  0  0  0  0  0  0  0  0  0  0  0
  1  2  1  0  0  0  0
  1  3  2  0  0  0  0
  1  4  1  0  0  0  0
  5  6  1  0  0  0  0
  6  7  1  0  0  0  0
  7  8  1  0  0  0  0
  8  9  1  0  0  0  0
  9 10  1  0  0  0  0
 10 11  1  0  0  0  0
 11 12  1  0  0  0  0
 12 13  1  6  0  0  0
 14 13  1  6  0  0  0
 14 15  1  0  0  0  0
 15 16  1  0  0  0  0
 16 17  1  6  0  0  0
 18 17  1  0  0  0  0
 18 19  1  0  0  0  0
 20 19  1  6  0  0  0
 20 21  1  0  0  0  0
 21 22  1  0  0  0  0
  5 22  1  0  0  0  0
  5 23  1  6  0  0  0
 23 18  1  0  0  0  0
 16 20  1  0  0  0  0
  5 15  1  0  0  0  0
 12 14  1  0  0  0  0
  6 10  1  0  0  0  0
  9 24  2  0  0  0  0
 22 25  1  6  0  0  0
  8 26  1  1  0  0  0
 27 28  1  0  0  0  0
 12 27  1  0  0  0  0
 11 29  1  1  0  0  0
 10 30  1  1  0  0  0
 21  4  1  1  0  0  0
  6 31  1  6  0  0  0
 15 32  1  1  0  0  0
 20 33  1  0  0  0  0
 33 34  1  0  0  0  0
 33 35  2  0  0  0  0
 18 36  1  0  0  0  0
 36 37  2  0  0  0  0
 37 38  1  0  0  0  0
 38 39  2  0  0  0  0
 39 40  1  0  0  0  0
 40 41  2  0  0  0  0
 41 36  1  0  0  0  0
M  END
>  <cdx:fragmentId>
205527

$$$$
