347577.cdx
  Mrv1902 05222410192D          

 12 12  0  0  0  0            999 V2000
    6.9165   -7.7684    0.0000 C   0  0  0  0  0  0  0  0  0  0  0  0
    6.2020   -7.3559    0.0000 C   0  0  0  0  0  0  0  0  0  0  0  0
    6.2020   -6.5309    0.0000 C   0  0  0  0  0  0  0  0  0  0  0  0
    6.9165   -6.1184    0.0000 C   0  0  0  0  0  0  0  0  0  0  0  0
    7.6310   -6.5309    0.0000 C   0  0  0  0  0  0  0  0  0  0  0  0
    7.6310   -7.3559    0.0000 C   0  0  0  0  0  0  0  0  0  0  0  0
    6.9165   -8.5934    0.0000 O   0  0  0  0  0  0  0  0  0  0  0  0
    8.3455   -7.7684    0.0000 C   0  0  0  0  0  0  0  0  0  0  0  0
    9.0599   -7.3559    0.0000 C   0  0  0  0  0  0  0  0  0  0  0  0
    9.7744   -7.7684    0.0000 C   0  0  0  0  0  0  0  0  0  0  0  0
    5.4876   -7.7684    0.0000 O   0  0  0  0  0  0  0  0  0  0  0  0
    4.7731   -7.3559    0.0000 C   0  0  0  0  0  0  0  0  0  0  0  0
  1  2  1  0  0  0  0
  2  3  2  0  0  0  0
  3  4  1  0  0  0  0
  4  5  2  0  0  0  0
  5  6  1  0  0  0  0
  1  6  2  0  0  0  0
  1  7  1  0  0  0  0
  8  9  1  0  0  0  0
  9 10  2  0  0  0  0
  6  8  1  0  0  0  0
 11 12  1  0  0  0  0
  2 11  1  0  0  0  0
M  END
>  <cdx:fragmentId>
1903

$$$$
