348159.cdx
  Mrv1902 05222410252D          

 25 26  0  0  0  0            999 V2000
    5.0069   -5.5319    0.0000 C   0  0  1  0  0  0  0  0  0  0  0  0
    4.5943   -4.8174    0.0000 O   0  0  0  0  0  0  0  0  0  0  0  0
    5.4193   -4.8174    0.0000 C   0  0  0  0  0  0  0  0  0  0  0  0
    5.0068   -4.1030    0.0000 O   0  0  0  0  0  0  0  0  0  0  0  0
    6.2443   -4.8174    0.0000 O   0  0  0  0  0  0  0  0  0  0  0  0
    3.5779   -7.1819    0.0000 O   0  0  0  0  0  0  0  0  0  0  0  0
    5.0069   -8.0069    0.0000 O   0  0  0  0  0  0  0  0  0  0  0  0
    5.7213   -5.9444    0.0000 C   0  0  0  0  0  0  0  0  0  0  0  0
    4.2924   -5.9444    0.0000 C   0  0  0  0  0  0  0  0  0  0  0  0
    4.2924   -6.7694    0.0000 C   0  0  2  0  0  0  0  0  0  0  0  0
    5.0069   -7.1819    0.0000 C   0  0  1  0  0  0  0  0  0  0  0  0
    5.7213   -6.7694    0.0000 C   0  0  2  0  0  0  0  0  0  0  0  0
    7.1503   -5.9444    0.0000 O   0  0  0  0  0  0  0  0  0  0  0  0
    6.4358   -7.1819    0.0000 O   0  0  0  0  0  0  0  0  0  0  0  0
    7.1503   -6.7694    0.0000 C   0  0  0  0  0  0  0  0  0  0  0  0
    7.8647   -7.1819    0.0000 C   0  0  0  0  0  0  0  0  0  0  0  0
    8.5792   -6.7694    0.0000 C   0  0  0  0  0  0  0  0  0  0  0  0
   11.4371   -8.4194    0.0000 O   0  0  0  0  0  0  0  0  0  0  0  0
   11.4371   -6.7694    0.0000 O   0  0  0  0  0  0  0  0  0  0  0  0
   10.0081   -6.7694    0.0000 C   0  0  0  0  0  0  0  0  0  0  0  0
    9.2937   -7.1819    0.0000 C   0  0  0  0  0  0  0  0  0  0  0  0
    9.2937   -8.0069    0.0000 C   0  0  0  0  0  0  0  0  0  0  0  0
   10.0081   -8.4194    0.0000 C   0  0  0  0  0  0  0  0  0  0  0  0
   10.7226   -8.0069    0.0000 C   0  0  0  0  0  0  0  0  0  0  0  0
   10.7226   -7.1819    0.0000 C   0  0  0  0  0  0  0  0  0  0  0  0
 10  6  1  6  0  0  0
 11  7  1  1  0  0  0
  8 12  1  0  0  0  0
  1  8  1  0  0  0  0
  9  1  1  0  0  0  0
 10  9  1  0  0  0  0
 11 10  1  0  0  0  0
 12 11  1  0  0  0  0
 12 14  1  1  0  0  0
 15 13  2  0  0  0  0
 15 14  1  0  0  0  0
 16 15  1  0  0  0  0
 17 16  2  0  0  0  0
 21 17  1  0  0  0  0
 24 18  1  0  0  0  0
 25 19  1  0  0  0  0
 20 25  1  0  0  0  0
 21 20  2  0  0  0  0
 22 21  1  0  0  0  0
 23 22  2  0  0  0  0
 24 23  1  0  0  0  0
 25 24  2  0  0  0  0
  1  2  1  1  0  0  0
  1  3  1  0  0  0  0
  3  4  2  0  0  0  0
  3  5  1  0  0  0  0
M  END
>  <cdx:fragmentId>
6

$$$$
