71348348.cdx
  Mrv1902 05222410232D          

  9  8  0  0  0  0            999 V2000
    9.7689  -15.1440    0.0000 C   0  0  0  0  0  0  0  0  0  0  0  0
    9.0544  -15.5565    0.0000 C   0  0  0  0  0  0  0  0  0  0  0  0
    8.3400  -15.1440    0.0000 C   0  0  0  0  0  0  0  0  0  0  0  0
    7.6255  -15.5565    0.0000 C   0  0  0  0  0  0  0  0  0  0  0  0
    6.9110  -15.1440    0.0000 C   0  0  0  0  0  0  0  0  0  0  0  0
    6.1965  -15.5565    0.0000 C   0  0  0  0  0  0  0  0  0  0  0  0
    5.4821  -15.1440    0.0000 C   0  0  0  0  0  0  0  0  0  0  0  0
    4.7676  -15.5565    0.0000 C   0  0  0  0  0  0  0  0  0  0  0  0
    8.3400  -14.3190    0.0000 O   0  0  0  0  0  0  0  0  0  0  0  0
  1  2  1  0  0  0  0
  2  3  2  0  0  0  0
  3  4  1  0  0  0  0
  4  5  1  0  0  0  0
  5  6  1  0  0  0  0
  6  7  1  0  0  0  0
  7  8  1  0  0  0  0
  3  9  1  0  0  0  0
M  END
>  <cdx:groupId>
199123

>  <cdx:fragmentId>
199100

$$$$
