348482.cdx
  Mrv1902 05222410202D          

 31 35  0  0  0  0            999 V2000
    9.2321   -5.7095    0.0000 O   0  0  0  0  0  0  0  0  0  0  0  0
    8.7472   -6.3769    0.0000 C   0  0  0  0  0  0  0  0  0  0  0  0
    9.2321   -7.0444    0.0000 C   0  0  0  0  0  0  0  0  0  0  0  0
   10.0167   -6.7894    0.0000 C   0  0  0  0  0  0  0  0  0  0  0  0
   10.0167   -5.9644    0.0000 C   0  0  0  0  0  0  0  0  0  0  0  0
   10.6842   -5.4795    0.0000 O   0  0  0  0  0  0  0  0  0  0  0  0
    5.3347   -8.9089    0.0000 C   0  0  0  0  0  0  0  0  0  0  0  0
    4.6202   -9.3214    0.0000 C   0  0  0  0  0  0  0  0  0  0  0  0
    4.6202  -10.1464    0.0000 C   0  0  1  0  0  0  0  0  0  0  0  0
    5.3347  -10.5589    0.0000 C   0  0  0  0  0  0  0  0  0  0  0  0
    6.0491  -10.1464    0.0000 C   0  0  1  0  0  0  0  0  0  0  0  0
    6.7636  -10.5589    0.0000 C   0  0  0  0  0  0  0  0  0  0  0  0
    7.4781  -10.1464    0.0000 C   0  0  0  0  0  0  0  0  0  0  0  0
    7.4781   -9.3214    0.0000 C   0  0  1  0  0  0  0  0  0  0  0  0
    8.1926   -8.9089    0.0000 C   0  0  1  0  0  0  0  0  0  0  0  0
    8.9772   -9.1639    0.0000 C   0  0  0  0  0  0  0  0  0  0  0  0
    9.4621   -8.4964    0.0000 C   0  0  1  0  0  0  0  0  0  0  0  0
    8.9772   -7.8290    0.0000 C   0  0  1  0  0  0  0  0  0  0  0  0
    8.1926   -8.0839    0.0000 C   0  0  1  0  0  0  0  0  0  0  0  0
    7.4781   -7.6714    0.0000 C   0  0  0  0  0  0  0  0  0  0  0  0
    6.7636   -8.0839    0.0000 C   0  0  0  0  0  0  0  0  0  0  0  0
    6.7636   -8.9089    0.0000 C   0  0  2  0  0  0  0  0  0  0  0  0
    6.0491   -9.3214    0.0000 C   0  0  1  0  0  0  0  0  0  0  0  0
    8.2788   -7.2635    0.0000 C   0  0  0  0  0  0  0  0  0  0  0  0
    6.0491   -8.4964    0.0000 C   0  0  0  0  0  0  0  0  0  0  0  0
   10.2871   -8.4964    0.0000 O   0  0  0  0  0  0  0  0  0  0  0  0
    8.1926   -9.7339    0.0000 O   0  0  0  0  0  0  0  0  0  0  0  0
    3.9057  -10.5589    0.0000 O   0  0  0  0  0  0  0  0  0  0  0  0
    6.0491  -10.9714    0.0000 H   0  0  0  0  0  0  0  0  0  0  0  0
    7.4781   -8.4964    0.0000 H   0  0  0  0  0  0  0  0  0  0  0  0
    6.7636   -9.7339    0.0000 H   0  0  0  0  0  0  0  0  0  0  0  0
  1  2  1  0  0  0  0
  2  3  1  0  0  0  0
  3  4  2  0  0  0  0
  4  5  1  0  0  0  0
  1  5  1  0  0  0  0
  5  6  2  0  0  0  0
  7  8  1  0  0  0  0
  8  9  1  0  0  0  0
  9 10  1  0  0  0  0
 10 11  1  0  0  0  0
 11 12  1  0  0  0  0
 12 13  1  0  0  0  0
 13 14  1  0  0  0  0
 14 15  1  0  0  0  0
 15 16  1  0  0  0  0
 16 17  1  0  0  0  0
 17 18  1  0  0  0  0
 18 19  1  0  0  0  0
 15 19  1  0  0  0  0
 19 20  1  0  0  0  0
 20 21  1  0  0  0  0
 21 22  1  0  0  0  0
 14 22  1  0  0  0  0
 22 23  1  0  0  0  0
 11 23  1  0  0  0  0
  7 23  1  0  0  0  0
 19 24  1  1  0  0  0
 23 25  1  1  0  0  0
 17 26  1  1  0  0  0
 15 27  1  1  0  0  0
  9 28  1  1  0  0  0
 18  3  1  1  0  0  0
 11 29  1  1  0  0  0
 14 30  1  1  0  0  0
 22 31  1  6  0  0  0
M  END
>  <cdx:fragmentId>
17

$$$$
