348813.cdx
  Mrv1902 05222410222D          

 41 47  0  0  0  0            999 V2000
    5.7370   -7.8101    0.0000 H   0  0  0  0  0  0  0  0  0  0  0  0
    8.2207   -8.2937    0.0000 H   0  0  0  0  0  0  0  0  0  0  0  0
    6.4342  -10.7458    0.0000 O   0  0  0  0  0  0  0  0  0  0  0  0
    5.7839  -10.2381    0.0000 O   0  0  0  0  0  0  0  0  0  0  0  0
    7.1735   -7.5026    0.0000 O   0  0  0  0  0  0  0  0  0  0  0  0
    8.2577  -10.9746    0.0000 O   0  0  0  0  0  0  0  0  0  0  0  0
    7.5432  -10.5621    0.0000 C   0  0  0  0  0  0  0  0  0  0  0  0
    3.8604   -9.0412    0.0000 C   0  0  0  0  0  0  0  0  0  0  0  0
    5.5326   -7.1249    0.0000 C   0  0  0  0  0  0  0  0  0  0  0  0
    4.9304  -10.4822    0.0000 O   0  0  0  0  0  0  0  0  0  0  0  0
    7.9512   -7.6506    0.0000 C   0  0  2  0  0  0  0  0  0  0  0  0
    7.6998   -6.8648    0.0000 C   0  0  2  0  0  0  0  0  0  0  0  0
    6.8936   -6.6896    0.0000 C   0  0  2  0  0  0  0  0  0  0  0  0
    6.3388   -7.3002    0.0000 C   0  0  1  0  0  0  0  0  0  0  0  0
    6.5901   -8.0859    0.0000 C   0  0  2  0  0  0  0  0  0  0  0  0
    5.9505   -8.6070    0.0000 C   0  0  1  0  0  0  0  0  0  0  0  0
    5.1633   -8.3602    0.0000 C   0  0  0  0  0  0  0  0  0  0  0  0
    4.6853   -9.0326    0.0000 C   0  0  2  0  0  0  0  0  0  0  0  0
    5.1771   -9.6950    0.0000 C   0  0  0  0  0  0  0  0  0  0  0  0
    5.9591   -9.4319    0.0000 C   0  0  1  0  0  0  0  0  0  0  0  0
    6.6094   -9.9396    0.0000 C   0  0  2  0  0  0  0  0  0  0  0  0
    7.4118   -9.7477    0.0000 C   0  0  1  0  0  0  0  0  0  0  0  0
    8.2338   -9.6775    0.0000 O   0  0  0  0  0  0  0  0  0  0  0  0
    7.7620   -9.0007    0.0000 C   0  0  2  0  0  0  0  0  0  0  0  0
    7.3963   -8.2612    0.0000 C   0  0  2  0  0  0  0  0  0  0  0  0
    6.6423   -5.9038    0.0000 O   0  0  0  0  0  0  0  0  0  0  0  0
    5.2813   -6.3391    0.0000 O   0  0  0  0  0  0  0  0  0  0  0  0
    5.5848   -4.9428    0.0000 C   0  0  0  0  0  0  0  0  0  0  0  0
    5.8361   -5.7286    0.0000 C   0  0  0  0  0  0  0  0  0  0  0  0
    7.6998   -6.0398    0.0000 C   0  0  0  0  0  0  0  0  0  0  0  0
    6.9853   -5.6273    0.0000 C   0  0  0  0  0  0  0  0  0  0  0  0
    8.4143   -5.6273    0.0000 C   0  0  0  0  0  0  0  0  0  0  0  0
    8.7762   -7.6506    0.0000 O   0  0  0  0  0  0  0  0  0  0  0  0
    9.0347   -6.8648    0.0000 C   0  0  0  0  0  0  0  0  0  0  0  0
    8.3695   -6.3768    0.0000 O   0  0  0  0  0  0  0  0  0  0  0  0
    9.8204   -6.6131    0.0000 C   0  0  0  0  0  0  0  0  0  0  0  0
   10.4312   -7.1677    0.0000 C   0  0  0  0  0  0  0  0  0  0  0  0
   11.2168   -6.9160    0.0000 C   0  0  0  0  0  0  0  0  0  0  0  0
   11.3917   -6.1097    0.0000 C   0  0  0  0  0  0  0  0  0  0  0  0
   10.7809   -5.5552    0.0000 C   0  0  0  0  0  0  0  0  0  0  0  0
    9.9952   -5.8069    0.0000 C   0  0  0  0  0  0  0  0  0  0  0  0
 16  1  1  1  0  0  0
 25  2  1  6  0  0  0
 13 26  1  6  0  0  0
 21  3  1  6  0  0  0
 20  4  1  6  0  0  0
 15  5  1  1  0  0  0
 22  7  1  0  0  0  0
  7  6  1  0  0  0  0
 18  8  1  6  0  0  0
 14  9  1  1  0  0  0
 19 10  2  0  0  0  0
 24 22  1  0  0  0  0
 20 16  1  0  0  0  0
 25 15  1  0  0  0  0
 25 11  1  0  0  0  0
 12 11  1  0  0  0  0
 13 12  1  0  0  0  0
 14 13  1  0  0  0  0
 15 14  1  0  0  0  0
 16 15  1  0  0  0  0
 17 16  1  0  0  0  0
 18 17  1  0  0  0  0
 19 18  1  0  0  0  0
 20 19  1  0  0  0  0
 21 20  1  0  0  0  0
 22 21  1  0  0  0  0
 22 23  1  1  0  0  0
 24 23  1  1  0  0  0
 25 24  1  0  0  0  0
 29 26  1  0  0  0  0
 29 27  2  0  0  0  0
 29 28  1  0  0  0  0
 12 30  1  0  0  0  0
 30 31  1  0  0  0  0
 30 32  2  0  0  0  0
 11 33  1  1  0  0  0
 33 34  1  0  0  0  0
 34 35  1  0  0  0  0
 12 35  1  1  0  0  0
 34 36  1  0  0  0  0
 36 37  2  0  0  0  0
 37 38  1  0  0  0  0
 38 39  2  0  0  0  0
 39 40  1  0  0  0  0
 40 41  2  0  0  0  0
 41 36  1  0  0  0  0
  5 34  1  0  0  0  0
M  END
>  <cdx:fragmentId>
205842

$$$$
