348816.cdx
  Mrv1902 05222410202D          

 47 53  0  0  0  0            999 V2000
    5.5739   -7.4420    0.0000 C   0  0  0  0  0  0  0  0  0  0  0  0
    5.3014   -6.6633    0.0000 C   0  0  0  0  0  0  0  0  0  0  0  0
    4.4908   -6.5099    0.0000 C   0  0  0  0  0  0  0  0  0  0  0  0
    4.2183   -5.7312    0.0000 C   0  0  0  0  0  0  0  0  0  0  0  0
    4.7565   -5.1059    0.0000 C   0  0  0  0  0  0  0  0  0  0  0  0
    5.5671   -5.2593    0.0000 C   0  0  0  0  0  0  0  0  0  0  0  0
    5.8396   -6.0380    0.0000 C   0  0  0  0  0  0  0  0  0  0  0  0
    5.0128   -8.0468    0.0000 O   0  0  0  0  0  0  0  0  0  0  0  0
    6.3782   -7.6256    0.0000 O   0  0  0  0  0  0  0  0  0  0  0  0
    6.3034   -9.8070    0.0000 C   0  0  2  0  0  0  0  0  0  0  0  0
    5.6584  -10.3214    0.0000 C   0  0  2  0  0  0  0  0  0  0  0  0
    4.8738  -10.0665    0.0000 C   0  0  0  0  0  0  0  0  0  0  0  0
    4.3889  -10.7339    0.0000 C   0  0  0  0  0  0  0  0  0  0  0  0
    4.8738  -11.4014    0.0000 C   0  0  0  0  0  0  0  0  0  0  0  0
    5.6584  -11.1464    0.0000 C   0  0  1  0  0  0  0  0  0  0  0  0
    6.3034  -11.6608    0.0000 C   0  0  1  0  0  0  0  0  0  0  0  0
    7.1078  -11.4772    0.0000 C   0  0  2  0  0  0  0  0  0  0  0  0
    7.4657  -10.7339    0.0000 C   0  0  2  0  0  0  0  0  0  0  0  0
    7.1078   -9.9906    0.0000 C   0  0  1  0  0  0  0  0  0  0  0  0
    7.6689   -9.3858    0.0000 C   0  0  1  0  0  0  0  0  0  0  0  0
    8.4938   -9.3982    0.0000 O   0  0  0  0  0  0  0  0  0  0  0  0
    8.7605   -8.6175    0.0000 C   0  0  0  0  0  0  0  0  0  0  0  0
    8.1003   -8.1226    0.0000 O   0  0  0  0  0  0  0  0  0  0  0  0
    7.4257   -8.5975    0.0000 C   0  0  1  0  0  0  0  0  0  0  0  0
    6.6214   -8.4139    0.0000 C   0  0  1  0  0  0  0  0  0  0  0  0
    6.0603   -9.0187    0.0000 C   0  0  1  0  0  0  0  0  0  0  0  0
    6.8475   -9.1575    0.0000 O   0  0  0  0  0  0  0  0  0  0  0  0
    4.6189  -12.1860    0.0000 O   0  0  0  0  0  0  0  0  0  0  0  0
    5.2560   -8.8351    0.0000 C   0  0  0  0  0  0  0  0  0  0  0  0
    3.5639  -10.7339    0.0000 C   0  0  0  0  0  0  0  0  0  0  0  0
    7.8100  -11.8525    0.0000 C   0  0  0  0  0  0  0  0  0  0  0  0
    8.0235  -12.6494    0.0000 O   0  0  0  0  0  0  0  0  0  0  0  0
    8.2626  -10.9474    0.0000 O   0  0  0  0  0  0  0  0  0  0  0  0
    7.1078  -12.3022    0.0000 O   0  0  0  0  0  0  0  0  0  0  0  0
    6.1199  -12.4651    0.0000 O   0  0  0  0  0  0  0  0  0  0  0  0
    5.5111  -11.9582    0.0000 O   0  0  0  0  0  0  0  0  0  0  0  0
    5.5111   -9.5097    0.0000 H   0  0  0  0  0  0  0  0  0  0  0  0
    7.9046  -10.2041    0.0000 H   0  0  0  0  0  0  0  0  0  0  0  0
    7.4257   -7.7725    0.0000 C   0  0  0  0  0  0  0  0  0  0  0  0
    6.7113   -7.3600    0.0000 C   0  0  0  0  0  0  0  0  0  0  0  0
    8.1402   -7.3600    0.0000 C   0  0  0  0  0  0  0  0  0  0  0  0
    9.5488   -8.3743    0.0000 C   0  0  0  0  0  0  0  0  0  0  0  0
   10.1536   -8.9354    0.0000 C   0  0  0  0  0  0  0  0  0  0  0  0
   10.9419   -8.6923    0.0000 C   0  0  0  0  0  0  0  0  0  0  0  0
   11.1255   -7.8879    0.0000 C   0  0  0  0  0  0  0  0  0  0  0  0
   10.5207   -7.3268    0.0000 C   0  0  0  0  0  0  0  0  0  0  0  0
    9.7324   -7.5700    0.0000 C   0  0  0  0  0  0  0  0  0  0  0  0
  1  2  1  0  0  0  0
  2  3  1  0  0  0  0
  3  4  2  0  0  0  0
  4  5  1  0  0  0  0
  5  6  2  0  0  0  0
  6  7  1  0  0  0  0
  2  7  2  0  0  0  0
  1  8  2  0  0  0  0
  1  9  1  0  0  0  0
 10 11  1  0  0  0  0
 11 12  1  0  0  0  0
 12 13  2  0  0  0  0
 13 14  1  0  0  0  0
 14 15  1  0  0  0  0
 15 16  1  0  0  0  0
 16 17  1  0  0  0  0
 17 18  1  0  0  0  0
 18 19  1  0  0  0  0
 19 20  1  0  0  0  0
 20 21  1  6  0  0  0
 21 22  1  0  0  0  0
 22 23  1  0  0  0  0
 24 23  1  6  0  0  0
 24 25  1  0  0  0  0
 25 26  1  0  0  0  0
 10 26  1  0  0  0  0
 10 27  1  6  0  0  0
 27 22  1  0  0  0  0
 20 24  1  0  0  0  0
 10 19  1  0  0  0  0
 11 15  1  0  0  0  0
 14 28  2  0  0  0  0
 26 29  1  6  0  0  0
 13 30  1  0  0  0  0
 31 32  1  0  0  0  0
 17 31  1  6  0  0  0
 18 33  1  6  0  0  0
 17 34  1  1  0  0  0
 16 35  1  1  0  0  0
 15 36  1  1  0  0  0
 25  9  1  1  0  0  0
 11 37  1  6  0  0  0
 19 38  1  1  0  0  0
 24 39  1  0  0  0  0
 39 40  1  0  0  0  0
 39 41  2  0  0  0  0
 22 42  1  0  0  0  0
 42 43  2  0  0  0  0
 43 44  1  0  0  0  0
 44 45  2  0  0  0  0
 45 46  1  0  0  0  0
 46 47  2  0  0  0  0
 47 42  1  0  0  0  0
M  END
>  <cdx:fragmentId>
205682

$$$$
