3488.cdx
  Mrv1902 05222410262D          

 12 12  0  0  0  0            999 V2000
    6.2114   -7.9406    0.0000 C   0  0  0  0  0  0  0  0  0  0  0  0
    6.2114   -8.7656    0.0000 C   0  0  0  0  0  0  0  0  0  0  0  0
    6.9259   -9.1781    0.0000 C   0  0  0  0  0  0  0  0  0  0  0  0
    7.6403   -8.7656    0.0000 C   0  0  0  0  0  0  0  0  0  0  0  0
    7.6403   -7.9406    0.0000 C   0  0  0  0  0  0  0  0  0  0  0  0
    6.9259   -7.5281    0.0000 C   0  0  0  0  0  0  0  0  0  0  0  0
    5.4969   -9.1781    0.0000 O   0  0  0  0  0  0  0  0  0  0  0  0
    8.3548   -9.1781    0.0000 C   0  0  0  0  0  0  0  0  0  0  0  0
    6.5134   -6.8137    0.0000 C   0  0  0  0  0  0  0  0  0  0  0  0
    7.3384   -6.8137    0.0000 C   0  0  0  0  0  0  0  0  0  0  0  0
    8.3548   -7.5281    0.0000 C   0  0  0  0  0  0  0  0  0  0  0  0
    9.0693   -7.9406    0.0000 O   0  0  0  0  0  0  0  0  0  0  0  0
  1  2  1  0  0  0  0
  2  3  1  0  0  0  0
  3  4  1  0  0  0  0
  4  5  2  0  0  0  0
  5  6  1  0  0  0  0
  6  1  1  0  0  0  0
  2  7  1  0  0  0  0
  4  8  1  0  0  0  0
  6  9  1  0  0  0  0
  6 10  1  0  0  0  0
  5 11  1  0  0  0  0
 11 12  2  0  0  0  0
M  END
>  <cdx:fragmentId>
5

$$$$
