348817.cdx
  Mrv1902 05222410212D          

 50 54  0  0  0  0            999 V2000
    6.2492   -8.8684    0.0000 O   0  0  0  0  0  0  0  0  0  0  0  0
    6.9592   -8.4482    0.0000 C   0  0  0  0  0  0  0  0  0  0  0  0
    7.6781   -8.8529    0.0000 C   0  0  0  0  0  0  0  0  0  0  0  0
    8.3880   -8.4327    0.0000 C   0  0  0  0  0  0  0  0  0  0  0  0
    9.1069   -8.8375    0.0000 C   0  0  0  0  0  0  0  0  0  0  0  0
    9.8169   -8.4173    0.0000 C   0  0  0  0  0  0  0  0  0  0  0  0
   10.5358   -8.8220    0.0000 C   0  0  0  0  0  0  0  0  0  0  0  0
   11.2457   -8.4018    0.0000 C   0  0  0  0  0  0  0  0  0  0  0  0
   11.9646   -8.8066    0.0000 C   0  0  0  0  0  0  0  0  0  0  0  0
   12.6746   -8.3864    0.0000 C   0  0  0  0  0  0  0  0  0  0  0  0
   13.3935   -8.7911    0.0000 C   0  0  0  0  0  0  0  0  0  0  0  0
    3.1795   -8.8001    0.0000 H   0  0  0  0  0  0  0  0  0  0  0  0
    5.6632   -9.2837    0.0000 H   0  0  0  0  0  0  0  0  0  0  0  0
    6.9502   -7.6232    0.0000 O   0  0  0  0  0  0  0  0  0  0  0  0
    3.8767  -11.7358    0.0000 O   0  0  0  0  0  0  0  0  0  0  0  0
    3.2264  -11.2281    0.0000 O   0  0  0  0  0  0  0  0  0  0  0  0
    4.6160   -8.4926    0.0000 O   0  0  0  0  0  0  0  0  0  0  0  0
    5.8568   -7.4423    0.0000 O   0  0  0  0  0  0  0  0  0  0  0  0
    5.7002  -11.9646    0.0000 O   0  0  0  0  0  0  0  0  0  0  0  0
    4.9857  -11.5521    0.0000 C   0  0  0  0  0  0  0  0  0  0  0  0
    1.3029  -10.0312    0.0000 C   0  0  0  0  0  0  0  0  0  0  0  0
    2.9751   -8.1149    0.0000 C   0  0  0  0  0  0  0  0  0  0  0  0
    2.3729  -11.4722    0.0000 O   0  0  0  0  0  0  0  0  0  0  0  0
    5.3937   -8.6406    0.0000 C   0  0  1  0  0  0  0  0  0  0  0  0
    5.1423   -7.8548    0.0000 C   0  0  2  0  0  0  0  0  0  0  0  0
    4.3361   -7.6796    0.0000 C   0  0  1  0  0  0  0  0  0  0  0  0
    3.7813   -8.2902    0.0000 C   0  0  2  0  0  0  0  0  0  0  0  0
    4.0326   -9.0759    0.0000 C   0  0  1  0  0  0  0  0  0  0  0  0
    3.3930   -9.5970    0.0000 C   0  0  2  0  0  0  0  0  0  0  0  0
    2.6058   -9.3502    0.0000 C   0  0  0  0  0  0  0  0  0  0  0  0
    2.1278  -10.0226    0.0000 C   0  0  0  0  0  0  0  0  0  0  0  0
    2.6196  -10.6850    0.0000 C   0  0  0  0  0  0  0  0  0  0  0  0
    3.4016  -10.4219    0.0000 C   0  0  2  0  0  0  0  0  0  0  0  0
    4.0519  -10.9296    0.0000 C   0  0  1  0  0  0  0  0  0  0  0  0
    4.8543  -10.7377    0.0000 C   0  0  2  0  0  0  0  0  0  0  0  0
    5.6763  -10.6675    0.0000 O   0  0  0  0  0  0  0  0  0  0  0  0
    5.2045   -9.9907    0.0000 C   0  0  1  0  0  0  0  0  0  0  0  0
    4.8388   -9.2512    0.0000 C   0  0  1  0  0  0  0  0  0  0  0  0
    4.0848   -6.8938    0.0000 O   0  0  0  0  0  0  0  0  0  0  0  0
    2.7238   -7.3291    0.0000 O   0  0  0  0  0  0  0  0  0  0  0  0
    2.2211   -5.7576    0.0000 C   0  0  0  0  0  0  0  0  0  0  0  0
    1.9698   -4.9718    0.0000 C   0  0  0  0  0  0  0  0  0  0  0  0
    2.5246   -4.3612    0.0000 C   0  0  0  0  0  0  0  0  0  0  0  0
    3.3308   -4.5365    0.0000 C   0  0  0  0  0  0  0  0  0  0  0  0
    3.5821   -5.3222    0.0000 C   0  0  0  0  0  0  0  0  0  0  0  0
    3.0273   -5.9328    0.0000 C   0  0  0  0  0  0  0  0  0  0  0  0
    3.2786   -6.7186    0.0000 C   0  0  0  0  0  0  0  0  0  0  0  0
    5.1423   -7.0298    0.0000 C   0  0  0  0  0  0  0  0  0  0  0  0
    4.4278   -6.6173    0.0000 C   0  0  0  0  0  0  0  0  0  0  0  0
    5.8568   -6.6173    0.0000 C   0  0  0  0  0  0  0  0  0  0  0  0
 29 12  1  6  0  0  0
 38 13  1  1  0  0  0
 26 39  1  1  0  0  0
 24  1  1  6  0  0  0
 34 15  1  1  0  0  0
 33 16  1  1  0  0  0
 28 17  1  6  0  0  0
 25 18  1  6  0  0  0
 35 20  1  0  0  0  0
 20 19  1  0  0  0  0
 31 21  1  0  0  0  0
 27 22  1  6  0  0  0
 32 23  2  0  0  0  0
 37 35  1  0  0  0  0
 33 29  1  0  0  0  0
 38 28  1  0  0  0  0
 38 24  1  0  0  0  0
 25 24  1  0  0  0  0
 26 25  1  0  0  0  0
 27 26  1  0  0  0  0
 28 27  1  0  0  0  0
 29 28  1  0  0  0  0
 30 29  1  0  0  0  0
 31 30  2  0  0  0  0
 32 31  1  0  0  0  0
 33 32  1  0  0  0  0
 34 33  1  0  0  0  0
 35 34  1  0  0  0  0
 35 36  1  6  0  0  0
 37 36  1  6  0  0  0
 38 37  1  0  0  0  0
 47 39  1  0  0  0  0
 47 40  2  0  0  0  0
 46 41  2  0  0  0  0
 42 41  1  0  0  0  0
 43 42  2  0  0  0  0
 44 43  1  0  0  0  0
 45 44  2  0  0  0  0
 46 45  1  0  0  0  0
 47 46  1  0  0  0  0
  2  3  1  0  0  0  0
  3  4  2  0  0  0  0
  4  5  1  0  0  0  0
  5  6  2  0  0  0  0
  6  7  1  0  0  0  0
  7  8  1  0  0  0  0
  8  9  1  0  0  0  0
  9 10  1  0  0  0  0
 10 11  1  0  0  0  0
  2 14  2  0  0  0  0
  1  2  1  0  0  0  0
 25 48  1  0  0  0  0
 48 49  1  0  0  0  0
 48 50  2  0  0  0  0
M  END
>  <cdx:fragmentId>
205842

$$$$
