349304.cdx
  Mrv1902 05222410222D          

 46 49  0  0  0  0            999 V2000
    8.1962   -9.2201    0.0000 O   0  0  0  0  0  0  0  0  0  0  0  0
   12.4636   -7.5205    0.0000 O   0  0  0  0  0  0  0  0  0  0  0  0
   13.1924   -8.7496    0.0000 C   0  0  0  0  0  0  0  0  0  0  0  0
   12.4828   -9.1704    0.0000 O   0  0  0  0  0  0  0  0  0  0  0  0
   10.3347   -8.7827    0.0000 C   0  0  0  0  0  0  0  0  0  0  0  0
   11.0539   -9.1869    0.0000 C   0  0  0  0  0  0  0  0  0  0  0  0
   11.7635   -8.7662    0.0000 C   0  0  0  0  0  0  0  0  0  0  0  0
   11.7540   -7.9412    0.0000 C   0  0  0  0  0  0  0  0  0  0  0  0
   11.0348   -7.5370    0.0000 C   0  0  0  0  0  0  0  0  0  0  0  0
   10.3251   -7.9578    0.0000 C   0  0  0  0  0  0  0  0  0  0  0  0
    9.6059   -7.5536    0.0000 C   0  0  0  0  0  0  0  0  0  0  0  0
    8.8963   -7.9744    0.0000 C   0  0  0  0  0  0  0  0  0  0  0  0
    8.1771   -7.5702    0.0000 O   0  0  0  0  0  0  0  0  0  0  0  0
    5.3098   -6.7784    0.0000 O   0  0  0  0  0  0  0  0  0  0  0  0
    5.3194   -7.6033    0.0000 C   0  0  0  0  0  0  0  0  0  0  0  0
    6.7961  -11.7115    0.0000 O   0  0  0  0  0  0  0  0  0  0  0  0
    5.3768  -12.5530    0.0000 O   0  0  0  0  0  0  0  0  0  0  0  0
    3.9384  -11.7446    0.0000 O   0  0  0  0  0  0  0  0  0  0  0  0
    3.9192  -10.0947    0.0000 C   0  0  0  0  0  0  0  0  0  0  0  0
    4.6384  -10.4989    0.0000 C   0  0  1  0  0  0  0  0  0  0  0  0
    4.6480  -11.3238    0.0000 C   0  0  1  0  0  0  0  0  0  0  0  0
    5.3672  -11.7280    0.0000 C   0  0  2  0  0  0  0  0  0  0  0  0
    6.0769  -11.3073    0.0000 C   0  0  2  0  0  0  0  0  0  0  0  0
    6.0673  -10.4823    0.0000 C   0  0  1  0  0  0  0  0  0  0  0  0
    5.3481  -10.0781    0.0000 O   0  0  0  0  0  0  0  0  0  0  0  0
    6.7769  -10.0616    0.0000 O   0  0  0  0  0  0  0  0  0  0  0  0
    7.4674   -7.9909    0.0000 C   0  0  1  0  0  0  0  0  0  0  0  0
    7.4770   -8.8159    0.0000 C   0  0  1  0  0  0  0  0  0  0  0  0
    6.7674   -9.2366    0.0000 C   0  0  2  0  0  0  0  0  0  0  0  0
    6.0482   -8.8324    0.0000 C   0  0  1  0  0  0  0  0  0  0  0  0
    6.0386   -8.0075    0.0000 C   0  0  2  0  0  0  0  0  0  0  0  0
    6.7482   -7.5867    0.0000 O   0  0  0  0  0  0  0  0  0  0  0  0
    3.1522   -5.5658    0.0000 O   0  0  0  0  0  0  0  0  0  0  0  0
    4.5811   -5.5492    0.0000 C   0  0  0  0  0  0  0  0  0  0  0  0
    4.5906   -6.3742    0.0000 O   0  0  0  0  0  0  0  0  0  0  0  0
    2.4617   -7.6364    0.0000 C   0  0  0  0  0  0  0  0  0  0  0  0
    2.4521   -6.8115    0.0000 C   0  0  0  0  0  0  0  0  0  0  0  0
    3.1618   -6.3907    0.0000 C   0  0  0  0  0  0  0  0  0  0  0  0
    3.8810   -6.7949    0.0000 C   0  0  0  0  0  0  0  0  0  0  0  0
    3.8905   -7.6199    0.0000 C   0  0  0  0  0  0  0  0  0  0  0  0
    3.1809   -8.0406    0.0000 C   0  0  0  0  0  0  0  0  0  0  0  0
    5.3385   -9.2532    0.0000 O   0  0  0  0  0  0  0  0  0  0  0  0
    4.6097   -8.0241    0.0000 O   0  0  0  0  0  0  0  0  0  0  0  0
    3.1905   -8.8656    0.0000 C   0  0  0  0  0  0  0  0  0  0  0  0
    3.9097   -9.2698    0.0000 C   0  0  0  0  0  0  0  0  0  0  0  0
    4.6193   -8.8490    0.0000 C   0  0  0  0  0  0  0  0  0  0  0  0
 30 42  1  6  0  0  0
 28  1  1  6  0  0  0
 27 13  1  1  0  0  0
 11 10  1  0  0  0  0
  8  2  1  0  0  0  0
  7  4  1  0  0  0  0
  4  3  1  0  0  0  0
 10  5  2  0  0  0  0
  6  5  1  0  0  0  0
  7  6  2  0  0  0  0
  8  7  1  0  0  0  0
  9  8  2  0  0  0  0
 10  9  1  0  0  0  0
 13 12  1  0  0  0  0
 12 11  1  0  0  0  0
 31 15  1  1  0  0  0
 15 14  1  0  0  0  0
 29 26  1  1  0  0  0
 24 26  1  1  0  0  0
 23 16  1  6  0  0  0
 22 17  1  6  0  0  0
 21 18  1  1  0  0  0
 20 19  1  6  0  0  0
 25 20  1  0  0  0  0
 21 20  1  0  0  0  0
 22 21  1  0  0  0  0
 23 22  1  0  0  0  0
 24 23  1  0  0  0  0
 25 24  1  0  0  0  0
 32 27  1  0  0  0  0
 28 27  1  0  0  0  0
 29 28  1  0  0  0  0
 30 29  1  0  0  0  0
 31 30  1  0  0  0  0
 32 31  1  0  0  0  0
 44 41  1  0  0  0  0
 38 33  1  0  0  0  0
 39 35  1  0  0  0  0
 35 34  1  0  0  0  0
 41 36  2  0  0  0  0
 37 36  1  0  0  0  0
 38 37  2  0  0  0  0
 39 38  1  0  0  0  0
 40 39  2  0  0  0  0
 41 40  1  0  0  0  0
 46 42  1  0  0  0  0
 46 43  2  0  0  0  0
 45 44  2  0  0  0  0
 46 45  1  0  0  0  0
M  END
>  <cdx:fragmentId>
46230

$$$$
