349817.cdx
  Mrv1902 05222410272D          

 29 31  0  0  0  0            999 V2000
    5.0083   -8.1813    0.0000 C   0  0  0  0  0  0  0  0  0  0  0  0
    5.0083   -9.0062    0.0000 C   0  0  0  0  0  0  0  0  0  0  0  0
    5.7227   -9.4187    0.0000 C   0  0  0  0  0  0  0  0  0  0  0  0
    6.4372   -9.0062    0.0000 C   0  0  0  0  0  0  0  0  0  0  0  0
    6.4372   -8.1813    0.0000 C   0  0  0  0  0  0  0  0  0  0  0  0
    5.7227   -7.7687    0.0000 C   0  0  0  0  0  0  0  0  0  0  0  0
    7.1517   -9.4187    0.0000 O   0  0  0  0  0  0  0  0  0  0  0  0
    7.8662   -9.0062    0.0000 C   0  0  0  0  0  0  0  0  0  0  0  0
    7.8662   -8.1813    0.0000 C   0  0  0  0  0  0  0  0  0  0  0  0
    7.1517   -7.7687    0.0000 C   0  0  0  0  0  0  0  0  0  0  0  0
    8.5806   -9.4187    0.0000 C   0  0  0  0  0  0  0  0  0  0  0  0
    9.2951   -9.0062    0.0000 C   0  0  0  0  0  0  0  0  0  0  0  0
    8.5806  -10.2437    0.0000 C   0  0  0  0  0  0  0  0  0  0  0  0
    9.2951  -10.6562    0.0000 C   0  0  0  0  0  0  0  0  0  0  0  0
   10.0096  -10.2437    0.0000 C   0  0  0  0  0  0  0  0  0  0  0  0
   10.0096   -9.4187    0.0000 C   0  0  0  0  0  0  0  0  0  0  0  0
    4.2938   -6.9438    0.0000 C   0  0  0  0  0  0  0  0  0  0  0  0
    4.2938   -7.7687    0.0000 C   0  0  0  0  0  0  0  0  0  0  0  0
    3.5793   -6.5313    0.0000 C   0  0  0  0  0  0  0  0  0  0  0  0
    2.8649   -6.9438    0.0000 C   0  0  0  0  0  0  0  0  0  0  0  0
    3.5793   -5.7062    0.0000 C   0  0  0  0  0  0  0  0  0  0  0  0
    4.2938   -9.4187    0.0000 O   0  0  0  0  0  0  0  0  0  0  0  0
    7.1517   -6.9438    0.0000 O   0  0  0  0  0  0  0  0  0  0  0  0
   10.7240  -10.6563    0.0000 O   0  0  0  0  0  0  0  0  0  0  0  0
    9.2951  -11.4812    0.0000 C   0  0  0  0  0  0  0  0  0  0  0  0
    8.5806  -11.8937    0.0000 C   0  0  0  0  0  0  0  0  0  0  0  0
    8.5806  -12.7187    0.0000 C   0  0  0  0  0  0  0  0  0  0  0  0
    9.2951  -13.1312    0.0000 C   0  0  0  0  0  0  0  0  0  0  0  0
    7.8662  -13.1312    0.0000 C   0  0  0  0  0  0  0  0  0  0  0  0
  1  2  1  0  0  0  0
  2  3  2  0  0  0  0
  3  4  1  0  0  0  0
  4  5  2  0  0  0  0
  5  6  1  0  0  0  0
  6  1  2  0  0  0  0
  4  7  1  0  0  0  0
  7  8  1  0  0  0  0
  8  9  2  0  0  0  0
  9 10  1  0  0  0  0
 10  5  1  0  0  0  0
  8 11  1  0  0  0  0
 11 12  1  0  0  0  0
 11 13  2  0  0  0  0
 13 14  1  0  0  0  0
 14 15  2  0  0  0  0
 15 16  1  0  0  0  0
 16 12  2  0  0  0  0
 17 18  1  0  0  0  0
 18  1  1  0  0  0  0
 17 19  2  0  0  0  0
 19 20  1  0  0  0  0
 19 21  1  0  0  0  0
  2 22  1  0  0  0  0
 10 23  2  0  0  0  0
 15 24  1  0  0  0  0
 14 25  1  0  0  0  0
 25 26  1  0  0  0  0
 26 27  2  0  0  0  0
 27 28  1  0  0  0  0
 27 29  1  0  0  0  0
M  END
>  <cdx:fragmentId>
5

$$$$
