35.cdx
  Mrv1902 05222410272D          

 58 63  0  0  0  0            999 V2000
   14.3748   -8.9561    0.0000 C   0  0  0  0  0  0  0  0  0  0  0  0
   14.3748   -9.7811    0.0000 C   0  0  1  0  0  0  0  0  0  0  0  0
   15.0892  -10.1936    0.0000 C   0  0  0  0  0  0  0  0  0  0  0  0
   15.8037   -9.7811    0.0000 C   0  0  2  0  0  0  0  0  0  0  0  0
   15.8037   -8.9561    0.0000 C   0  0  2  0  0  0  0  0  0  0  0  0
   15.0892   -8.5436    0.0000 C   0  0  0  0  0  0  0  0  0  0  0  0
   16.5182  -10.1936    0.0000 C   0  0  0  0  0  0  0  0  0  0  0  0
   17.2326   -9.7811    0.0000 C   0  0  0  0  0  0  0  0  0  0  0  0
   17.2326   -8.9561    0.0000 C   0  0  2  0  0  0  0  0  0  0  0  0
   16.5182   -8.5436    0.0000 C   0  0  2  0  0  0  0  0  0  0  0  0
   17.9471   -8.5436    0.0000 C   0  0  2  0  0  0  0  0  0  0  0  0
   17.9471   -7.7186    0.0000 C   0  0  2  0  0  0  0  0  0  0  0  0
   17.2326   -7.3061    0.0000 C   0  0  2  0  0  0  0  0  0  0  0  0
   16.5182   -7.7186    0.0000 C   0  0  0  0  0  0  0  0  0  0  0  0
   18.7317   -8.7986    0.0000 C   0  0  1  0  0  0  0  0  0  0  0  0
   19.2167   -8.1311    0.0000 C   0  0  1  0  0  0  0  0  0  0  0  0
   18.7317   -7.4637    0.0000 C   0  0  2  0  0  0  0  0  0  0  0  0
   18.9867   -6.6791    0.0000 C   0  0  0  0  0  0  0  0  0  0  0  0
   19.7936   -6.5076    0.0000 C   0  0  0  0  0  0  0  0  0  0  0  0
   18.4346   -6.0660    0.0000 C   0  0  0  0  0  0  0  0  0  0  0  0
   20.0486   -5.7229    0.0000 C   0  0  0  0  0  0  0  0  0  0  0  0
   18.6896   -5.2814    0.0000 O   0  0  0  0  0  0  0  0  0  0  0  0
   19.4965   -5.1098    0.0000 C   0  0  0  0  0  0  0  0  0  0  0  0
   19.7515   -4.3252    0.0000 O   0  0  0  0  0  0  0  0  0  0  0  0
   13.6603  -10.1936    0.0000 O   0  0  0  0  0  0  0  0  0  0  0  0
   15.8037   -8.1311    0.0000 C   0  0  0  0  0  0  0  0  0  0  0  0
   15.8037  -10.6061    0.0000 O   0  0  0  0  0  0  0  0  0  0  0  0
   17.2326   -6.4811    0.0000 H   0  0  0  0  0  0  0  0  0  0  0  0
   18.0333   -6.8982    0.0000 C   0  0  0  0  0  0  0  0  0  0  0  0
   20.0417   -8.1311    0.0000 O   0  0  0  0  0  0  0  0  0  0  0  0
   18.0333   -9.3641    0.0000 O   0  0  0  0  0  0  0  0  0  0  0  0
   20.4542   -8.8456    0.0000 C   0  0  0  0  0  0  0  0  0  0  0  0
   21.2792   -8.8456    0.0000 C   0  0  0  0  0  0  0  0  0  0  0  0
   20.0417   -9.5601    0.0000 O   0  0  0  0  0  0  0  0  0  0  0  0
   12.9458   -9.7811    0.0000 C   0  0  0  0  0  0  0  0  0  0  0  0
   12.2313  -10.1936    0.0000 C   0  0  0  0  0  0  0  0  0  0  0  0
   12.9458   -8.9561    0.0000 O   0  0  0  0  0  0  0  0  0  0  0  0
   11.5169   -9.7811    0.0000 C   0  0  0  0  0  0  0  0  0  0  0  0
   10.8024  -10.1936    0.0000 C   0  0  0  0  0  0  0  0  0  0  0  0
   10.0879   -9.7811    0.0000 C   0  0  0  0  0  0  0  0  0  0  0  0
    9.3735  -10.1936    0.0000 C   0  0  0  0  0  0  0  0  0  0  0  0
    8.6590   -9.7811    0.0000 C   0  0  0  0  0  0  0  0  0  0  0  0
    7.9445  -10.1936    0.0000 C   0  0  0  0  0  0  0  0  0  0  0  0
    7.2300   -9.7811    0.0000 N   0  0  0  0  0  0  0  0  0  0  0  0
    7.9445  -11.0186    0.0000 O   0  0  0  0  0  0  0  0  0  0  0  0
    6.5156  -10.1936    0.0000 C   0  0  2  0  0  0  0  0  0  0  0  0
    5.8011   -9.7811    0.0000 C   0  0  0  0  0  0  0  0  0  0  0  0
    5.0866  -10.1936    0.0000 O   0  0  0  0  0  0  0  0  0  0  0  0
    5.8011   -8.9561    0.0000 O   0  0  0  0  0  0  0  0  0  0  0  0
    6.5156  -11.0186    0.0000 C   0  0  0  0  0  0  0  0  0  0  0  0
    5.8011  -11.4311    0.0000 C   0  0  0  0  0  0  0  0  0  0  0  0
    5.8011  -12.2561    0.0000 C   0  0  0  0  0  0  0  0  0  0  0  0
    5.0866  -12.6686    0.0000 N   0  0  0  0  0  0  0  0  0  0  0  0
    5.0866  -13.4936    0.0000 C   0  0  0  0  0  0  0  0  0  0  0  0
    5.8011  -13.9061    0.0000 N   0  0  0  0  0  0  0  0  0  0  0  0
    4.3722  -13.9061    0.0000 N   0  0  0  0  0  0  0  0  0  0  0  0
   16.5182   -9.3686    0.0000 H   0  0  0  0  0  0  0  0  0  0  0  0
   17.2326   -8.1311    0.0000 H   0  0  0  0  0  0  0  0  0  0  0  0
  1  2  1  0  0  0  0
  2  3  1  0  0  0  0
  3  4  1  0  0  0  0
  4  5  1  0  0  0  0
  5  6  1  0  0  0  0
  6  1  1  0  0  0  0
  4  7  1  0  0  0  0
  7  8  1  0  0  0  0
  8  9  1  0  0  0  0
  9 10  1  0  0  0  0
 10  5  1  0  0  0  0
  9 11  1  0  0  0  0
 11 12  1  0  0  0  0
 12 13  1  0  0  0  0
 13 14  1  0  0  0  0
 14 10  1  0  0  0  0
 11 15  1  0  0  0  0
 15 16  1  0  0  0  0
 16 17  1  0  0  0  0
 17 12  1  0  0  0  0
 17 18  1  1  0  0  0
 18 19  1  0  0  0  0
 18 20  2  0  0  0  0
 19 21  2  0  0  0  0
 20 22  1  0  0  0  0
 21 23  1  0  0  0  0
 22 23  1  0  0  0  0
 23 24  2  0  0  0  0
  2 25  1  1  0  0  0
  5 26  1  1  0  0  0
  4 27  1  1  0  0  0
 13 28  1  1  0  0  0
 12 29  1  1  0  0  0
 16 30  1  1  0  0  0
 11 31  1  1  0  0  0
 15 31  1  1  0  0  0
 30 32  1  0  0  0  0
 32 33  1  0  0  0  0
 32 34  2  0  0  0  0
 25 35  1  0  0  0  0
 35 36  1  0  0  0  0
 35 37  2  0  0  0  0
 36 38  1  0  0  0  0
 38 39  1  0  0  0  0
 39 40  1  0  0  0  0
 40 41  1  0  0  0  0
 41 42  1  0  0  0  0
 42 43  1  0  0  0  0
 43 44  1  0  0  0  0
 43 45  2  0  0  0  0
 46 44  1  1  0  0  0
 46 47  1  0  0  0  0
 47 48  1  0  0  0  0
 47 49  2  0  0  0  0
 46 50  1  0  0  0  0
 50 51  1  0  0  0  0
 51 52  1  0  0  0  0
 52 53  1  0  0  0  0
 53 54  2  0  0  0  0
 54 55  1  0  0  0  0
 54 56  1  0  0  0  0
 10 57  1  6  0  0  0
  9 58  1  1  0  0  0
M  END
>  <cdx:fragmentId>
206

$$$$
