10350284.cdx
  Mrv1902 05222410222D          

 56 60  0  0  0  0            999 V2000
    4.8201  -14.3096    0.0000 C   0  0  0  0  0  0  0  0  0  0  0  0
    4.1057  -14.7221    0.0000 C   0  0  0  0  0  0  0  0  0  0  0  0
    3.3912  -14.3096    0.0000 C   0  0  0  0  0  0  0  0  0  0  0  0
    4.8201  -13.4846    0.0000 O   0  0  0  0  0  0  0  0  0  0  0  0
    5.5346  -14.7221    0.0000 O   0  0  0  0  0  0  0  0  0  0  0  0
    2.6767  -14.7221    0.0000 C   0  0  0  0  0  0  0  0  0  0  0  0
    2.6767  -15.5471    0.0000 C   0  0  0  0  0  0  0  0  0  0  0  0
    1.9622  -15.9596    0.0000 C   0  0  0  0  0  0  0  0  0  0  0  0
    1.2478  -15.5471    0.0000 C   0  0  0  0  0  0  0  0  0  0  0  0
    1.2478  -14.7221    0.0000 C   0  0  0  0  0  0  0  0  0  0  0  0
    1.9622  -14.3096    0.0000 C   0  0  0  0  0  0  0  0  0  0  0  0
    0.5333  -15.9596    0.0000 O   0  0  0  0  0  0  0  0  0  0  0  0
    6.2491  -14.3096    0.0000 C   0  0  0  0  0  0  0  0  0  0  0  0
    7.7172  -14.3865    0.0000 O   0  0  0  0  0  0  0  0  0  0  0  0
    6.9635  -14.7221    0.0000 C   0  0  1  0  0  0  0  0  0  0  0  0
    7.0498  -15.5425    0.0000 C   0  0  2  0  0  0  0  0  0  0  0  0
    7.8567  -15.7141    0.0000 C   0  0  1  0  0  0  0  0  0  0  0  0
    8.2692  -14.9996    0.0000 C   0  0  2  0  0  0  0  0  0  0  0  0
    8.9367  -14.5147    0.0000 O   0  0  0  0  0  0  0  0  0  0  0  0
    9.5179  -13.2093    0.0000 O   0  0  0  0  0  0  0  0  0  0  0  0
    8.8504  -13.6942    0.0000 C   0  0  1  0  0  0  0  0  0  0  0  0
    8.0968  -13.3586    0.0000 C   0  0  1  0  0  0  0  0  0  0  0  0
    8.0105  -12.5382    0.0000 C   0  0  2  0  0  0  0  0  0  0  0  0
    8.6780  -12.0532    0.0000 C   0  0  1  0  0  0  0  0  0  0  0  0
    9.4317  -12.3888    0.0000 C   0  0  1  0  0  0  0  0  0  0  0  0
   10.0991  -11.9039    0.0000 C   0  0  0  0  0  0  0  0  0  0  0  0
   10.8528  -12.2394    0.0000 O   0  0  0  0  0  0  0  0  0  0  0  0
    8.5917  -11.2328    0.0000 O   0  0  0  0  0  0  0  0  0  0  0  0
    7.2569  -12.2026    0.0000 O   0  0  0  0  0  0  0  0  0  0  0  0
    7.4293  -13.8436    0.0000 O   0  0  0  0  0  0  0  0  0  0  0  0
    9.0229  -15.3352    0.0000 C   0  0  0  0  0  0  0  0  0  0  0  0
    9.1092  -16.1556    0.0000 O   0  0  0  0  0  0  0  0  0  0  0  0
    9.8628  -16.4912    0.0000 C   0  0  0  0  0  0  0  0  0  0  0  0
   10.5303  -16.0063    0.0000 C   0  0  0  0  0  0  0  0  0  0  0  0
   11.2839  -16.3418    0.0000 C   0  0  0  0  0  0  0  0  0  0  0  0
    9.9491  -17.3117    0.0000 O   0  0  0  0  0  0  0  0  0  0  0  0
   11.9514  -15.8569    0.0000 C   0  0  0  0  0  0  0  0  0  0  0  0
   11.8651  -15.0364    0.0000 C   0  0  0  0  0  0  0  0  0  0  0  0
   12.5326  -14.5515    0.0000 C   0  0  0  0  0  0  0  0  0  0  0  0
   13.2863  -14.8871    0.0000 C   0  0  0  0  0  0  0  0  0  0  0  0
   13.3725  -15.7075    0.0000 C   0  0  0  0  0  0  0  0  0  0  0  0
   12.7051  -16.1925    0.0000 C   0  0  0  0  0  0  0  0  0  0  0  0
   13.9537  -14.4021    0.0000 O   0  0  0  0  0  0  0  0  0  0  0  0
    8.1923  -16.4677    0.0000 O   0  0  0  0  0  0  0  0  0  0  0  0
    7.7074  -17.1352    0.0000 C   0  0  0  0  0  0  0  0  0  0  0  0
    6.8869  -17.0490    0.0000 C   0  0  0  0  0  0  0  0  0  0  0  0
    6.4020  -17.7164    0.0000 C   0  0  0  0  0  0  0  0  0  0  0  0
    8.0429  -17.8889    0.0000 O   0  0  0  0  0  0  0  0  0  0  0  0
    5.5815  -17.6302    0.0000 C   0  0  0  0  0  0  0  0  0  0  0  0
    5.0966  -18.2976    0.0000 C   0  0  0  0  0  0  0  0  0  0  0  0
    4.2761  -18.2114    0.0000 C   0  0  0  0  0  0  0  0  0  0  0  0
    3.9405  -17.4577    0.0000 C   0  0  0  0  0  0  0  0  0  0  0  0
    4.4255  -16.7902    0.0000 C   0  0  0  0  0  0  0  0  0  0  0  0
    5.2459  -16.8765    0.0000 C   0  0  0  0  0  0  0  0  0  0  0  0
    3.1201  -17.3714    0.0000 O   0  0  0  0  0  0  0  0  0  0  0  0
    6.4367  -16.0946    0.0000 O   0  0  0  0  0  0  0  0  0  0  0  0
  1  2  1  0  0  0  0
  2  3  2  0  0  0  0
  1  4  2  0  0  0  0
  1  5  1  0  0  0  0
  6  7  1  0  0  0  0
  7  8  2  0  0  0  0
  8  9  1  0  0  0  0
  9 10  2  0  0  0  0
 10 11  1  0  0  0  0
  6 11  2  0  0  0  0
  9 12  1  0  0  0  0
  3  6  1  0  0  0  0
 14 15  1  0  0  0  0
 15 16  1  0  0  0  0
 16 17  1  0  0  0  0
 17 18  1  0  0  0  0
 14 18  1  0  0  0  0
 20 21  1  0  0  0  0
 21 22  1  0  0  0  0
 22 23  1  0  0  0  0
 23 24  1  0  0  0  0
 24 25  1  0  0  0  0
 20 25  1  0  0  0  0
 26 27  1  0  0  0  0
 25 26  1  1  0  0  0
 24 28  1  6  0  0  0
 23 29  1  1  0  0  0
 22 30  1  6  0  0  0
 21 19  1  6  0  0  0
 18 19  1  1  0  0  0
 33 34  1  0  0  0  0
 34 35  2  0  0  0  0
 33 36  2  0  0  0  0
 37 38  1  0  0  0  0
 38 39  2  0  0  0  0
 39 40  1  0  0  0  0
 40 41  2  0  0  0  0
 41 42  1  0  0  0  0
 37 42  2  0  0  0  0
 40 43  1  0  0  0  0
 35 37  1  0  0  0  0
 32 33  1  0  0  0  0
 31 32  1  0  0  0  0
 18 31  1  6  0  0  0
 45 46  1  0  0  0  0
 46 47  2  0  0  0  0
 45 48  2  0  0  0  0
 49 50  1  0  0  0  0
 50 51  2  0  0  0  0
 51 52  1  0  0  0  0
 52 53  2  0  0  0  0
 53 54  1  0  0  0  0
 49 54  2  0  0  0  0
 52 55  1  0  0  0  0
 47 49  1  0  0  0  0
 44 45  1  0  0  0  0
 17 44  1  1  0  0  0
 16 56  1  6  0  0  0
 15 13  1  1  0  0  0
  5 13  1  0  0  0  0
M  END
>  <cdx:groupId>
46515

>  <cdx:fragmentId>
46384

$$$$
