350391.cdx
  Mrv1902 05222410202D          

 46 53  0  0  0  0            999 V2000
    5.8764   -6.6898    0.0000 C   0  0  0  0  0  0  0  0  0  0  0  0
    5.6039   -5.9111    0.0000 C   0  0  0  0  0  0  0  0  0  0  0  0
    4.7933   -5.7578    0.0000 C   0  0  0  0  0  0  0  0  0  0  0  0
    4.5208   -4.9791    0.0000 C   0  0  0  0  0  0  0  0  0  0  0  0
    5.0590   -4.3537    0.0000 C   0  0  0  0  0  0  0  0  0  0  0  0
    5.8696   -4.5071    0.0000 C   0  0  0  0  0  0  0  0  0  0  0  0
    6.1421   -5.2858    0.0000 C   0  0  0  0  0  0  0  0  0  0  0  0
    5.3153   -7.2946    0.0000 O   0  0  0  0  0  0  0  0  0  0  0  0
    6.6807   -6.8734    0.0000 O   0  0  0  0  0  0  0  0  0  0  0  0
    6.6059   -9.0549    0.0000 C   0  0  2  0  0  0  0  0  0  0  0  0
    5.9609   -9.5693    0.0000 C   0  0  2  0  0  0  0  0  0  0  0  0
    5.1763   -9.3143    0.0000 C   0  0  0  0  0  0  0  0  0  0  0  0
    4.6914   -9.9818    0.0000 C   0  0  1  0  0  0  0  0  0  0  0  0
    5.1763  -10.6492    0.0000 C   0  0  0  0  0  0  0  0  0  0  0  0
    5.9609  -10.3943    0.0000 C   0  0  1  0  0  0  0  0  0  0  0  0
    6.6059  -10.9086    0.0000 C   0  0  1  0  0  0  0  0  0  0  0  0
    7.4103  -10.7251    0.0000 C   0  0  1  0  0  0  0  0  0  0  0  0
    8.2329  -10.6634    0.0000 O   0  0  0  0  0  0  0  0  0  0  0  0
    7.7682   -9.9818    0.0000 C   0  0  1  0  0  0  0  0  0  0  0  0
    7.4103   -9.2385    0.0000 C   0  0  1  0  0  0  0  0  0  0  0  0
    7.9714   -8.6337    0.0000 C   0  0  1  0  0  0  0  0  0  0  0  0
    8.7963   -8.6460    0.0000 O   0  0  0  0  0  0  0  0  0  0  0  0
    9.0630   -7.8653    0.0000 C   0  0  0  0  0  0  0  0  0  0  0  0
    8.4028   -7.3705    0.0000 O   0  0  0  0  0  0  0  0  0  0  0  0
    7.7282   -7.8453    0.0000 C   0  0  1  0  0  0  0  0  0  0  0  0
    6.9239   -7.6618    0.0000 C   0  0  1  0  0  0  0  0  0  0  0  0
    6.3628   -8.2665    0.0000 C   0  0  1  0  0  0  0  0  0  0  0  0
    7.1775   -8.4150    0.0000 O   0  0  0  0  0  0  0  0  0  0  0  0
    4.9214  -11.4338    0.0000 O   0  0  0  0  0  0  0  0  0  0  0  0
    5.5585   -8.0830    0.0000 C   0  0  0  0  0  0  0  0  0  0  0  0
    3.8664   -9.9818    0.0000 C   0  0  0  0  0  0  0  0  0  0  0  0
    7.5332  -11.5408    0.0000 C   0  0  0  0  0  0  0  0  0  0  0  0
    8.3012  -11.8423    0.0000 O   0  0  0  0  0  0  0  0  0  0  0  0
    6.4224  -11.7130    0.0000 O   0  0  0  0  0  0  0  0  0  0  0  0
    5.8136  -11.2060    0.0000 O   0  0  0  0  0  0  0  0  0  0  0  0
    5.8136   -8.7575    0.0000 H   0  0  0  0  0  0  0  0  0  0  0  0
    8.2071   -9.4520    0.0000 H   0  0  0  0  0  0  0  0  0  0  0  0
    7.7282   -7.0203    0.0000 C   0  0  0  0  0  0  0  0  0  0  0  0
    7.0138   -6.6078    0.0000 C   0  0  0  0  0  0  0  0  0  0  0  0
    8.4427   -6.6078    0.0000 C   0  0  0  0  0  0  0  0  0  0  0  0
    9.8513   -7.6221    0.0000 C   0  0  0  0  0  0  0  0  0  0  0  0
   10.4561   -8.1833    0.0000 C   0  0  0  0  0  0  0  0  0  0  0  0
   11.2444   -7.9401    0.0000 C   0  0  0  0  0  0  0  0  0  0  0  0
   11.4280   -7.1358    0.0000 C   0  0  0  0  0  0  0  0  0  0  0  0
   10.8232   -6.5747    0.0000 C   0  0  0  0  0  0  0  0  0  0  0  0
   10.0349   -6.8178    0.0000 C   0  0  0  0  0  0  0  0  0  0  0  0
  1  2  1  0  0  0  0
  2  3  1  0  0  0  0
  3  4  2  0  0  0  0
  4  5  1  0  0  0  0
  5  6  2  0  0  0  0
  6  7  1  0  0  0  0
  2  7  2  0  0  0  0
  1  8  2  0  0  0  0
  1  9  1  0  0  0  0
 10 11  1  0  0  0  0
 11 12  1  0  0  0  0
 12 13  1  0  0  0  0
 13 14  1  0  0  0  0
 14 15  1  0  0  0  0
 15 16  1  0  0  0  0
 16 17  1  0  0  0  0
 17 18  1  6  0  0  0
 19 18  1  6  0  0  0
 19 20  1  0  0  0  0
 20 21  1  0  0  0  0
 21 22  1  6  0  0  0
 23 22  1  0  0  0  0
 23 24  1  0  0  0  0
 25 24  1  6  0  0  0
 25 26  1  0  0  0  0
 26 27  1  0  0  0  0
 10 27  1  0  0  0  0
 10 28  1  6  0  0  0
 28 23  1  0  0  0  0
 21 25  1  0  0  0  0
 10 20  1  0  0  0  0
 17 19  1  0  0  0  0
 11 15  1  0  0  0  0
 14 29  2  0  0  0  0
 27 30  1  6  0  0  0
 13 31  1  1  0  0  0
 32 33  1  0  0  0  0
 17 32  1  0  0  0  0
 16 34  1  1  0  0  0
 15 35  1  1  0  0  0
 26  9  1  1  0  0  0
 11 36  1  6  0  0  0
 20 37  1  1  0  0  0
 25 38  1  0  0  0  0
 38 39  1  0  0  0  0
 38 40  2  0  0  0  0
 23 41  1  0  0  0  0
 41 42  2  0  0  0  0
 42 43  1  0  0  0  0
 43 44  2  0  0  0  0
 44 45  1  0  0  0  0
 45 46  2  0  0  0  0
 46 41  1  0  0  0  0
M  END
>  <cdx:fragmentId>
206012

$$$$
