351463.cdx
  Mrv1902 05222410192D          

 72 80  0  0  0  0            999 V2000
    7.9402   -9.1295    0.0000 C   0  0  0  0  0  0  0  0  0  0  0  0
    5.0803   -9.9897    0.0000 O   0  0  0  0  0  0  0  0  0  0  0  0
    4.2553   -9.9941    0.0000 C   0  0  2  0  0  0  0  0  0  0  0  0
    3.8390   -9.2818    0.0000 O   0  0  0  0  0  0  0  0  0  0  0  0
    3.0140   -9.2862    0.0000 C   0  0  1  0  0  0  0  0  0  0  0  0
    2.6053  -10.0029    0.0000 C   0  0  2  0  0  0  0  0  0  0  0  0
    3.0216  -10.7151    0.0000 C   0  0  1  0  0  0  0  0  0  0  0  0
    3.8466  -10.7108    0.0000 C   0  0  1  0  0  0  0  0  0  0  0  0
    2.5978   -8.5739    0.0000 C   0  0  0  0  0  0  0  0  0  0  0  0
    2.6129  -11.4318    0.0000 O   0  0  0  0  0  0  0  0  0  0  0  0
    1.7803  -10.0072    0.0000 O   0  0  0  0  0  0  0  0  0  0  0  0
    4.2629  -11.4230    0.0000 O   0  0  0  0  0  0  0  0  0  0  0  0
    1.7728   -8.5783    0.0000 O   0  0  0  0  0  0  0  0  0  0  0  0
    7.2111   -8.7205    0.0000 C   0  0  0  0  0  0  0  0  0  0  0  0
    6.5025   -9.1429    0.0000 O   0  0  0  0  0  0  0  0  0  0  0  0
    5.1087  -11.6447    0.0000 C   0  0  0  0  0  0  0  0  0  0  0  0
    7.2346  -10.3693    0.0000 C   0  0  0  0  0  0  0  0  0  0  0  0
    6.5139   -9.9678    0.0000 C   0  0  1  0  0  0  0  0  0  0  0  0
    5.8010  -10.3912    0.0000 C   0  0  1  0  0  0  0  0  0  0  0  0
    5.8161  -11.2203    0.0000 C   0  0  2  0  0  0  0  0  0  0  0  0
    6.5368  -11.6218    0.0000 O   0  0  0  0  0  0  0  0  0  0  0  0
    7.2424  -11.1942    0.0000 C   0  0  1  0  0  0  0  0  0  0  0  0
   13.6683   -9.9868    0.0000 O   0  0  0  0  0  0  0  0  0  0  0  0
   15.8107   -9.6171    0.0000 H   0  0  0  0  0  0  0  0  0  0  0  0
   17.8186  -11.0336    0.0000 H   0  0  0  0  0  0  0  0  0  0  0  0
   17.6201   -7.7763    0.0000 H   0  0  0  0  0  0  0  0  0  0  0  0
   19.1503   -9.6726    0.0000 H   0  0  0  0  0  0  0  0  0  0  0  0
   13.6443  -11.6366    0.0000 O   0  0  0  0  0  0  0  0  0  0  0  0
   12.9479  -10.3889    0.0000 O   0  0  0  0  0  0  0  0  0  0  0  0
   12.9359  -11.2138    0.0000 C   0  0  2  0  0  0  0  0  0  0  0  0
   12.2155  -11.6158    0.0000 C   0  0  0  0  0  0  0  0  0  0  0  0
   11.5071  -11.1930    0.0000 C   0  0  1  0  0  0  0  0  0  0  0  0
   11.5191  -10.3681    0.0000 C   0  0  1  0  0  0  0  0  0  0  0  0
   12.2395   -9.9660    0.0000 C   0  0  1  0  0  0  0  0  0  0  0  0
   12.2515   -9.1411    0.0000 C   0  0  0  0  0  0  0  0  0  0  0  0
   10.7867  -11.5950    0.0000 O   0  0  0  0  0  0  0  0  0  0  0  0
   10.7747  -12.4200    0.0000 C   0  0  0  0  0  0  0  0  0  0  0  0
    7.9529   -9.9544    0.0000 O   0  0  0  0  0  0  0  0  0  0  0  0
    7.9582  -11.6044    0.0000 O   0  0  0  0  0  0  0  0  0  0  0  0
    9.3898  -12.4248    0.0000 C   0  0  0  0  0  0  0  0  0  0  0  0
    9.3871  -11.5998    0.0000 C   0  0  1  0  0  0  0  0  0  0  0  0
    8.6713  -11.1896    0.0000 C   0  0  2  0  0  0  0  0  0  0  0  0
    8.6687  -10.3646    0.0000 C   0  0  2  0  0  0  0  0  0  0  0  0
    9.3818   -9.9498    0.0000 C   0  0  0  0  0  0  0  0  0  0  0  0
   10.0976  -10.3600    0.0000 C   0  0  1  0  0  0  0  0  0  0  0  0
   10.1003  -11.1850    0.0000 O   0  0  0  0  0  0  0  0  0  0  0  0
   10.8107   -9.9452    0.0000 O   0  0  0  0  0  0  0  0  0  0  0  0
   15.5906   -9.6339    0.0000 C   0  0  0  0  0  0  0  0  0  0  0  0
   17.2343  -10.4512    0.0000 C   0  0  2  0  0  0  0  0  0  0  0  0
   17.2223  -11.2761    0.0000 C   0  0  0  0  0  0  0  0  0  0  0  0
   16.5019  -11.6782    0.0000 C   0  0  0  0  0  0  0  0  0  0  0  0
   15.7935  -11.2553    0.0000 C   0  0  0  0  0  0  0  0  0  0  0  0
   15.0731  -11.6574    0.0000 C   0  0  0  0  0  0  0  0  0  0  0  0
   14.3647  -11.2346    0.0000 C   0  0  2  0  0  0  0  0  0  0  0  0
   14.3767  -10.4096    0.0000 C   0  0  1  0  0  0  0  0  0  0  0  0
   15.0971  -10.0076    0.0000 C   0  0  0  0  0  0  0  0  0  0  0  0
   15.8055  -10.4304    0.0000 C   0  0  1  0  0  0  0  0  0  0  0  0
   16.5259  -10.0284    0.0000 C   0  0  1  0  0  0  0  0  0  0  0  0
   18.0593  -10.4498    0.0000 C   0  0  0  0  0  0  0  0  0  0  0  0
   18.6417   -9.8655    0.0000 O   0  0  0  0  0  0  0  0  0  0  0  0
   18.6403   -9.0405    0.0000 C   0  0  1  0  0  0  0  0  0  0  0  0
   18.1302   -8.4084    0.0000 C   0  0  1  0  0  0  0  0  0  0  0  0
   17.3134   -8.1508    0.0000 C   0  0  0  0  0  0  0  0  0  0  0  0
   16.5758   -8.5783    0.0000 C   0  0  0  0  0  0  0  0  0  0  0  0
   16.3043   -9.2434    0.0000 C   0  0  0  0  0  0  0  0  0  0  0  0
   18.3763  -11.2115    0.0000 O   0  0  0  0  0  0  0  0  0  0  0  0
   19.3990   -8.7507    0.0000 C   0  0  0  0  0  0  0  0  0  0  0  0
   19.3579   -7.9395    0.0000 O   0  0  0  0  0  0  0  0  0  0  0  0
   18.5737   -7.7280    0.0000 C   0  0  2  0  0  0  0  0  0  0  0  0
   18.1183   -7.0226    0.0000 O   0  0  0  0  0  0  0  0  0  0  0  0
   17.3060   -7.2943    0.0000 C   0  0  0  0  0  0  0  0  0  0  0  0
   19.1561   -7.1436    0.0000 C   0  0  0  0  0  0  0  0  0  0  0  0
 38  1  1  0  0  0  0
  3  2  1  1  0  0  0
  3  4  1  0  0  0  0
  4  5  1  0  0  0  0
  5  6  1  0  0  0  0
  6  7  1  0  0  0  0
  7  8  1  0  0  0  0
  8  3  1  0  0  0  0
  5  9  1  1  0  0  0
  7 10  1  1  0  0  0
  6 11  1  6  0  0  0
  8 12  1  6  0  0  0
 15 14  1  0  0  0  0
 18 15  1  1  0  0  0
 19  2  1  1  0  0  0
  9 13  1  0  0  0  0
 20 16  1  6  0  0  0
 17 22  1  0  0  0  0
 18 17  1  0  0  0  0
 19 18  1  0  0  0  0
 20 19  1  0  0  0  0
 21 20  1  0  0  0  0
 22 21  1  0  0  0  0
 22 39  1  6  0  0  0
 55 23  1  6  0  0  0
 58 24  1  6  0  0  0
 49 25  1  1  0  0  0
 62 26  1  6  0  0  0
 61 27  1  6  0  0  0
 54 28  1  1  0  0  0
 45 47  1  6  0  0  0
 43 38  1  1  0  0  0
 42 39  1  1  0  0  0
 41 40  1  1  0  0  0
 46 41  1  0  0  0  0
 42 41  1  0  0  0  0
 43 42  1  0  0  0  0
 44 43  1  0  0  0  0
 45 44  1  0  0  0  0
 46 45  1  0  0  0  0
 29 30  1  0  0  0  0
 57 48  1  1  0  0  0
 57 52  1  0  0  0  0
 58 49  1  0  0  0  0
 50 49  1  0  0  0  0
 51 50  1  0  0  0  0
 52 51  2  0  0  0  0
 53 52  1  0  0  0  0
 54 53  1  0  0  0  0
 55 54  1  0  0  0  0
 56 55  1  0  0  0  0
 57 56  1  0  0  0  0
 58 57  1  0  0  0  0
 30 31  1  0  0  0  0
 31 32  1  0  0  0  0
 32 33  1  0  0  0  0
 33 34  1  0  0  0  0
 29 34  1  0  0  0  0
 34 35  1  1  0  0  0
 36 37  1  0  0  0  0
 32 36  1  6  0  0  0
 33 47  1  6  0  0  0
 30 28  1  1  0  0  0
 49 59  1  0  0  0  0
 59 60  1  0  0  0  0
 60 61  1  0  0  0  0
 61 62  1  0  0  0  0
 62 63  1  0  0  0  0
 63 64  1  0  0  0  0
 64 65  1  0  0  0  0
 58 65  1  0  0  0  0
 59 66  2  0  0  0  0
 61 67  1  0  0  0  0
 67 68  1  0  0  0  0
 68 69  1  0  0  0  0
 69 62  1  0  0  0  0
 69 70  1  0  0  0  0
 70 71  1  0  0  0  0
 71 63  2  0  0  0  0
 69 72  1  6  0  0  0
M  END
>  <cdx:fragmentId>
231476

$$$$
