3515.cdx
  Mrv1902 05222410262D          

 15 16  0  0  0  0            999 V2000
    4.0531   -3.6714    0.0000 C   0  0  0  0  0  0  0  0  0  0  0  0
    3.5682   -3.0040    0.0000 C   0  0  0  0  0  0  0  0  0  0  0  0
    4.0531   -2.3365    0.0000 C   0  0  0  0  0  0  0  0  0  0  0  0
    4.8378   -2.5915    0.0000 C   0  0  0  0  0  0  0  0  0  0  0  0
    5.4828   -2.0771    0.0000 C   0  0  0  0  0  0  0  0  0  0  0  0
    6.2871   -2.2607    0.0000 C   0  0  0  0  0  0  0  0  0  0  0  0
    6.6450   -3.0040    0.0000 C   0  0  0  0  0  0  0  0  0  0  0  0
    6.2871   -3.7473    0.0000 C   0  0  0  0  0  0  0  0  0  0  0  0
    5.4828   -3.9309    0.0000 C   0  0  0  0  0  0  0  0  0  0  0  0
    4.8378   -3.4165    0.0000 C   0  0  0  0  0  0  0  0  0  0  0  0
    6.5000   -5.1603    0.0000 C   0  0  0  0  0  0  0  0  0  0  0  0
    6.8015   -4.3923    0.0000 C   0  0  0  0  0  0  0  0  0  0  0  0
    7.6172   -4.2693    0.0000 C   0  0  0  0  0  0  0  0  0  0  0  0
    5.2992   -1.2728    0.0000 C   0  0  0  0  0  0  0  0  0  0  0  0
    3.7982   -4.4560    0.0000 C   0  0  0  0  0  0  0  0  0  0  0  0
  1  2  1  0  0  0  0
  2  3  2  0  0  0  0
  3  4  1  0  0  0  0
  4  5  2  0  0  0  0
  5  6  1  0  0  0  0
  6  7  2  0  0  0  0
  7  8  1  0  0  0  0
  8  9  2  0  0  0  0
  9 10  1  0  0  0  0
  1 10  2  0  0  0  0
  4 10  1  0  0  0  0
 11 12  1  0  0  0  0
 12 13  1  0  0  0  0
  8 12  1  0  0  0  0
  5 14  1  0  0  0  0
  1 15  1  0  0  0  0
M  END
>  <cdx:groupId>
48

>  <cdx:fragmentId>
5

$$$$
