5351507.cdx
  Mrv1902 05222410192D          

 25 27  0  0  0  0            999 V2000
    1.4626  -13.5380    0.0000 C   0  0  0  0  0  0  0  0  0  0  0  0
    1.4626  -14.3630    0.0000 C   0  0  0  0  0  0  0  0  0  0  0  0
    2.1771  -14.7755    0.0000 C   0  0  0  0  0  0  0  0  0  0  0  0
    2.8916  -14.3630    0.0000 C   0  0  0  0  0  0  0  0  0  0  0  0
    2.8916  -13.5380    0.0000 C   0  0  0  0  0  0  0  0  0  0  0  0
    2.1771  -13.1255    0.0000 C   0  0  0  0  0  0  0  0  0  0  0  0
    3.6060  -14.7755    0.0000 N   0  0  0  0  0  0  0  0  0  0  0  0
    4.3205  -14.3630    0.0000 C   0  0  0  0  0  0  0  0  0  0  0  0
    4.3205  -13.5380    0.0000 C   0  0  0  0  0  0  0  0  0  0  0  0
    3.6060  -13.1255    0.0000 N   0  0  0  0  0  0  0  0  0  0  0  0
    5.0350  -14.7755    0.0000 O   0  0  0  0  0  0  0  0  0  0  0  0
    5.0350  -13.1255    0.0000 C   0  0  0  0  0  0  0  0  0  0  0  0
    5.7494  -13.5380    0.0000 C   0  0  0  0  0  0  0  0  0  0  0  0
    5.0350  -12.3005    0.0000 N   0  0  0  0  0  0  0  0  0  0  0  0
    5.7494  -11.8880    0.0000 N   0  0  0  0  0  0  0  0  0  0  0  0
    6.4639  -12.3005    0.0000 H   0  0  0  0  0  0  0  0  0  0  0  0
    5.7494  -11.0630    0.0000 C   0  0  0  0  0  0  0  0  0  0  0  0
    6.4639  -13.1255    0.0000 O   0  0  0  0  0  0  0  0  0  0  0  0
    5.7494  -14.3630    0.0000 H   0  0  0  0  0  0  0  0  0  0  0  0
    6.4639  -10.6505    0.0000 C   0  0  0  0  0  0  0  0  0  0  0  0
    6.4639   -9.8255    0.0000 C   0  0  0  0  0  0  0  0  0  0  0  0
    5.7494   -9.4130    0.0000 C   0  0  0  0  0  0  0  0  0  0  0  0
    5.0350   -9.8255    0.0000 C   0  0  0  0  0  0  0  0  0  0  0  0
    5.0350  -10.6505    0.0000 C   0  0  0  0  0  0  0  0  0  0  0  0
    7.1784  -11.0630    0.0000 F   0  0  0  0  0  0  0  0  0  0  0  0
  1  2  2  0  0  0  0
  2  3  1  0  0  0  0
  3  4  2  0  0  0  0
  4  5  1  0  0  0  0
  5  6  2  0  0  0  0
  6  1  1  0  0  0  0
  4  7  1  0  0  0  0
  7  8  1  0  0  0  0
  8  9  1  0  0  0  0
  9 10  2  0  0  0  0
 10  5  1  0  0  0  0
  8 11  2  0  0  0  0
  9 12  1  0  0  0  0
 12 13  1  0  0  0  0
 12 14  2  0  0  0  0
 14 15  1  0  0  0  0
 15 16  1  0  0  0  0
 15 17  1  0  0  0  0
 13 18  2  0  0  0  0
 13 19  1  0  0  0  0
 17 20  2  0  0  0  0
 20 21  1  0  0  0  0
 21 22  2  0  0  0  0
 22 23  1  0  0  0  0
 23 24  2  0  0  0  0
 24 17  1  0  0  0  0
 20 25  1  0  0  0  0
M  END
>  <cdx:fragmentId>
1293

$$$$
