351989.cdx
  Mrv1902 05222410232D          

 20 23  0  0  0  0            999 V2000
    7.2815   -6.2020    0.0000 H   0  0  0  0  0  0  0  0  0  0  0  0
    8.4096   -5.0761    0.0000 H   0  0  0  0  0  0  0  0  0  0  0  0
    9.4384   -5.6591    0.0000 O   0  5  0  0  0  0  0  0  0  0  0  0
    8.8550   -6.2425    0.0000 N   0  3  0  0  0  0  0  0  0  0  0  0
    8.8601   -7.1144    0.0000 C   0  0  0  0  0  0  0  0  0  0  0  0
    8.1125   -7.4800    0.0000 C   0  0  0  0  0  0  0  0  0  0  0  0
    7.2799   -7.8520    0.0000 C   0  0  0  0  0  0  0  0  0  0  0  0
    7.9940   -8.2652    0.0000 C   0  0  0  0  0  0  0  0  0  0  0  0
    8.7088   -7.8534    0.0000 C   0  0  0  0  0  0  0  0  0  0  0  0
    8.7097   -7.0284    0.0000 C   0  0  0  0  0  0  0  0  0  0  0  0
    7.9956   -6.6152    0.0000 C   0  0  1  0  0  0  0  0  0  0  0  0
    7.9964   -5.7902    0.0000 C   0  0  1  0  0  0  0  0  0  0  0  0
    7.2823   -5.3770    0.0000 C   0  0  0  0  0  0  0  0  0  0  0  0
    6.5675   -5.7888    0.0000 C   0  0  0  0  0  0  0  0  0  0  0  0
    5.8534   -5.3756    0.0000 C   0  0  0  0  0  0  0  0  0  0  0  0
    5.1385   -5.7873    0.0000 C   0  0  0  0  0  0  0  0  0  0  0  0
    5.1377   -6.6123    0.0000 C   0  0  0  0  0  0  0  0  0  0  0  0
    5.8518   -7.0256    0.0000 C   0  0  0  0  0  0  0  0  0  0  0  0
    6.5667   -6.6138    0.0000 C   0  0  0  0  0  0  0  0  0  0  0  0
    7.2807   -7.0270    0.0000 C   0  0  2  0  0  0  0  0  0  0  0  0
 11  1  1  1  0  0  0
 12  2  1  6  0  0  0
  4  3  1  0  0  0  0
 19 14  1  0  0  0  0
 20 11  1  0  0  0  0
  4 12  1  0  0  0  0
 20  6  1  1  0  0  0
 20  7  1  0  0  0  0
  5  4  1  0  0  0  0
  6  5  1  0  0  0  0
  8  7  2  0  0  0  0
  9  8  1  0  0  0  0
 10  9  1  0  0  0  0
 11 10  1  0  0  0  0
 12 11  1  0  0  0  0
 13 12  1  0  0  0  0
 14 13  1  0  0  0  0
 15 14  2  0  0  0  0
 16 15  1  0  0  0  0
 17 16  2  0  0  0  0
 18 17  1  0  0  0  0
 19 18  2  0  0  0  0
 20 19  1  0  0  0  0
M  CHG  2   3  -1   4   1
M  END
>  <cdx:fragmentId>
5

$$$$
