5352145.cdx
  Mrv1902 05222410182D          

 16 15  0  0  0  0            999 V2000
   10.1334   -7.0729    0.0000 C   0  0  0  0  0  0  0  0  0  0  0  0
    9.4189   -6.6604    0.0000 C   0  0  0  0  0  0  0  0  0  0  0  0
    8.7045   -7.0729    0.0000 C   0  0  0  0  0  0  0  0  0  0  0  0
    7.9900   -6.6604    0.0000 C   0  0  0  0  0  0  0  0  0  0  0  0
    7.2755   -7.0729    0.0000 C   0  0  0  0  0  0  0  0  0  0  0  0
    6.5610   -6.6604    0.0000 C   0  0  0  0  0  0  0  0  0  0  0  0
    5.8466   -7.0729    0.0000 C   0  0  0  0  0  0  0  0  0  0  0  0
    5.1321   -6.6604    0.0000 C   0  0  0  0  0  0  0  0  0  0  0  0
    4.4176   -7.0729    0.0000 C   0  0  0  0  0  0  0  0  0  0  0  0
    4.4176   -7.8979    0.0000 C   0  0  0  0  0  0  0  0  0  0  0  0
   10.8479   -6.6604    0.0000 O   0  0  0  0  0  0  0  0  0  0  0  0
   10.1334   -5.4229    0.0000 C   0  0  0  0  0  0  0  0  0  0  0  0
    9.4189   -5.8354    0.0000 C   0  0  0  0  0  0  0  0  0  0  0  0
    8.7045   -5.4229    0.0000 C   0  0  0  0  0  0  0  0  0  0  0  0
    3.7032   -6.6604    0.0000 C   0  0  0  0  0  0  0  0  0  0  0  0
    7.2755   -7.8979    0.0000 C   0  0  0  0  0  0  0  0  0  0  0  0
  1  2  1  0  0  0  0
  2  3  1  0  0  0  0
  3  4  1  0  0  0  0
  4  5  2  0  0  0  0
  5  6  1  0  0  0  0
  6  7  1  0  0  0  0
  7  8  1  0  0  0  0
  8  9  2  0  0  0  0
  9 10  1  0  0  0  0
  1 11  1  0  0  0  0
 12 13  2  0  0  0  0
 13 14  1  0  0  0  0
  2 13  1  0  0  0  0
  9 15  1  0  0  0  0
  5 16  1  0  0  0  0
M  END
>  <cdx:groupId>
49

>  <cdx:fragmentId>
5

$$$$
