5352142.cdx
  Mrv1902 05222410192D          

 13 13  0  0  0  0            999 V2000
   16.8131   -8.9992    0.0000 C   0  0  0  0  0  0  0  0  0  0  0  0
   16.0987   -8.5867    0.0000 C   0  0  0  0  0  0  0  0  0  0  0  0
   15.3842   -8.9992    0.0000 C   0  0  0  0  0  0  0  0  0  0  0  0
   17.5276   -8.5867    0.0000 O   0  0  0  0  0  0  0  0  0  0  0  0
   14.6697   -8.5867    0.0000 C   0  0  0  0  0  0  0  0  0  0  0  0
   13.9553   -8.9992    0.0000 C   0  0  0  0  0  0  0  0  0  0  0  0
   13.2408   -8.5867    0.0000 C   0  0  0  0  0  0  0  0  0  0  0  0
   13.2408   -7.7617    0.0000 C   0  0  0  0  0  0  0  0  0  0  0  0
   13.9553   -7.3492    0.0000 C   0  0  0  0  0  0  0  0  0  0  0  0
   14.6697   -7.7617    0.0000 C   0  0  0  0  0  0  0  0  0  0  0  0
   15.0822   -7.0472    0.0000 C   0  0  0  0  0  0  0  0  0  0  0  0
   15.4947   -7.7617    0.0000 C   0  0  0  0  0  0  0  0  0  0  0  0
   13.9553   -9.8242    0.0000 C   0  0  0  0  0  0  0  0  0  0  0  0
  1  2  1  0  0  0  0
  2  3  2  0  0  0  0
  1  4  2  0  0  0  0
  5  6  2  0  0  0  0
  6  7  1  0  0  0  0
  7  8  1  0  0  0  0
  8  9  1  0  0  0  0
  9 10  1  0  0  0  0
  5 10  1  0  0  0  0
 10 11  1  0  0  0  0
 10 12  1  0  0  0  0
  6 13  1  0  0  0  0
  3  5  1  0  0  0  0
M  END
>  <cdx:groupId>
22757

>  <cdx:fragmentId>
22729

$$$$
