352264.cdx
  Mrv1902 05222410232D          

 16 15  0  0  0  0            999 V2000
    1.9977   -6.9120    0.0000 C   0  0  0  0  0  0  0  0  0  0  0  0
    2.7122   -6.4995    0.0000 C   0  0  0  0  0  0  0  0  0  0  0  0
    3.4267   -6.9120    0.0000 C   0  0  0  0  0  0  0  0  0  0  0  0
    4.1411   -6.4995    0.0000 C   0  0  0  0  0  0  0  0  0  0  0  0
    4.8556   -6.9120    0.0000 C   0  0  0  0  0  0  0  0  0  0  0  0
    5.5701   -6.4995    0.0000 C   0  0  0  0  0  0  0  0  0  0  0  0
    6.2845   -6.9120    0.0000 C   0  0  0  0  0  0  0  0  0  0  0  0
    6.9990   -6.4995    0.0000 C   0  0  0  0  0  0  0  0  0  0  0  0
    7.7135   -6.9120    0.0000 C   0  0  0  0  0  0  0  0  0  0  0  0
    8.4280   -6.4995    0.0000 C   0  0  0  0  0  0  0  0  0  0  0  0
    9.1424   -6.9120    0.0000 C   0  0  0  0  0  0  0  0  0  0  0  0
    9.8569   -6.4995    0.0000 C   0  0  0  0  0  0  0  0  0  0  0  0
   10.5714   -6.9120    0.0000 C   0  0  0  0  0  0  0  0  0  0  0  0
   11.2858   -6.4995    0.0000 C   0  0  0  0  0  0  0  0  0  0  0  0
   12.0003   -6.9120    0.0000 C   0  0  0  0  0  0  0  0  0  0  0  0
   12.7148   -6.4995    0.0000 C   0  0  0  0  0  0  0  0  0  0  0  0
  1  2  1  0  0  0  0
  2  3  1  0  0  0  0
  3  4  1  0  0  0  0
  4  5  1  0  0  0  0
  5  6  1  0  0  0  0
  6  7  1  0  0  0  0
  7  8  2  0  0  0  0
  8  9  1  0  0  0  0
  9 10  1  0  0  0  0
 10 11  1  0  0  0  0
 11 12  1  0  0  0  0
 12 13  1  0  0  0  0
 13 14  1  0  0  0  0
 14 15  1  0  0  0  0
 15 16  1  0  0  0  0
M  END
>  <cdx:fragmentId>
22797

$$$$
