352222.cdx
  Mrv1902 05222410202D          

 10  9  0  0  0  0            999 V2000
    9.2461   -6.6203    0.0000 C   0  0  0  0  0  0  0  0  0  0  0  0
    8.5316   -6.2078    0.0000 C   0  0  0  0  0  0  0  0  0  0  0  0
    7.8171   -6.6203    0.0000 C   0  0  0  0  0  0  0  0  0  0  0  0
    7.1027   -6.2078    0.0000 C   0  0  0  0  0  0  0  0  0  0  0  0
    6.3882   -6.6203    0.0000 C   0  0  0  0  0  0  0  0  0  0  0  0
    5.6737   -6.2078    0.0000 C   0  0  0  0  0  0  0  0  0  0  0  0
    4.9592   -6.6203    0.0000 C   0  0  0  0  0  0  0  0  0  0  0  0
    9.9605   -6.2078    0.0000 O   0  0  0  0  0  0  0  0  0  0  0  0
    5.6737   -5.3828    0.0000 C   0  0  0  0  0  0  0  0  0  0  0  0
    8.5316   -5.3828    0.0000 C   0  0  0  0  0  0  0  0  0  0  0  0
  1  2  1  0  0  0  0
  2  3  2  0  0  0  0
  3  4  1  0  0  0  0
  4  5  1  0  0  0  0
  5  6  1  0  0  0  0
  6  7  1  0  0  0  0
  1  8  2  0  0  0  0
  6  9  1  0  0  0  0
  2 10  1  0  0  0  0
M  END
>  <cdx:groupId>
22790

>  <cdx:fragmentId>
22764

$$$$
