352266.cdx
  Mrv1902 05222410242D          

  8  7  0  0  0  0            999 V2000
    9.4994   -6.5409    0.0000 C   0  0  0  0  0  0  0  0  0  0  0  0
    8.7849   -6.9534    0.0000 C   0  0  0  0  0  0  0  0  0  0  0  0
    8.0705   -6.5409    0.0000 C   0  0  0  0  0  0  0  0  0  0  0  0
    7.3560   -6.9534    0.0000 C   0  0  0  0  0  0  0  0  0  0  0  0
    6.6415   -6.5409    0.0000 C   0  0  0  0  0  0  0  0  0  0  0  0
    5.9270   -6.9534    0.0000 C   0  0  0  0  0  0  0  0  0  0  0  0
    5.2126   -6.5409    0.0000 C   0  0  0  0  0  0  0  0  0  0  0  0
    4.4981   -6.9534    0.0000 C   0  0  0  0  0  0  0  0  0  0  0  0
  1  2  1  0  0  0  0
  2  3  1  0  0  0  0
  3  4  2  0  0  0  0
  4  5  1  0  0  0  0
  5  6  2  0  0  0  0
  6  7  1  0  0  0  0
  7  8  1  0  0  0  0
M  END
>  <cdx:groupId>
22871

>  <cdx:fragmentId>
22851

$$$$
