352371.cdx
  Mrv1902 05222410272D          

 13 12  0  0  0  0            999 V2000
    4.5634   -8.0217    0.0000 C   0  0  0  0  0  0  0  0  0  0  0  0
    5.2779   -8.4342    0.0000 O   0  0  0  0  0  0  0  0  0  0  0  0
    5.9924   -7.1967    0.0000 O   0  0  0  0  0  0  0  0  0  0  0  0
    8.8502   -8.0217    0.0000 C   0  0  0  0  0  0  0  0  0  0  0  0
    8.1358   -8.4342    0.0000 C   0  0  0  0  0  0  0  0  0  0  0  0
    7.4213   -8.0217    0.0000 C   0  0  0  0  0  0  0  0  0  0  0  0
    6.7068   -8.4342    0.0000 C   0  0  0  0  0  0  0  0  0  0  0  0
    5.9924   -8.0217    0.0000 C   0  0  0  0  0  0  0  0  0  0  0  0
    9.5647   -8.4342    0.0000 C   0  0  0  0  0  0  0  0  0  0  0  0
   10.2792   -8.0217    0.0000 C   0  0  0  0  0  0  0  0  0  0  0  0
   10.9936   -8.4342    0.0000 C   0  0  0  0  0  0  0  0  0  0  0  0
   11.7081   -8.0217    0.0000 C   0  0  0  0  0  0  0  0  0  0  0  0
   12.4226   -8.4342    0.0000 C   0  0  0  0  0  0  0  0  0  0  0  0
  2  1  1  0  0  0  0
  8  2  1  0  0  0  0
  8  3  2  0  0  0  0
  5  4  2  0  0  0  0
  6  5  1  0  0  0  0
  7  6  1  0  0  0  0
  8  7  1  0  0  0  0
  4  9  1  0  0  0  0
  9 10  1  0  0  0  0
 10 11  1  0  0  0  0
 11 12  1  0  0  0  0
 12 13  1  0  0  0  0
M  END
>  <cdx:groupId>
40

>  <cdx:fragmentId>
5

$$$$
