352367.cdx
  Mrv1902 05222410262D          

 11 10  0  0  0  0            999 V2000
    4.3980   -5.7202    0.0000 C   0  0  0  0  0  0  0  0  0  0  0  0
    5.1125   -6.1327    0.0000 C   0  0  0  0  0  0  0  0  0  0  0  0
    5.1125   -6.9577    0.0000 C   0  0  0  0  0  0  0  0  0  0  0  0
    5.8269   -7.3702    0.0000 C   0  0  0  0  0  0  0  0  0  0  0  0
    5.8269   -8.1952    0.0000 C   0  0  0  0  0  0  0  0  0  0  0  0
    6.5414   -8.6077    0.0000 C   0  0  0  0  0  0  0  0  0  0  0  0
    7.2559   -8.1952    0.0000 C   0  0  0  0  0  0  0  0  0  0  0  0
    7.9704   -8.6077    0.0000 C   0  0  0  0  0  0  0  0  0  0  0  0
    8.6848   -8.1952    0.0000 C   0  0  0  0  0  0  0  0  0  0  0  0
    9.3993   -8.6077    0.0000 C   0  0  0  0  0  0  0  0  0  0  0  0
   10.1138   -8.1952    0.0000 C   0  0  0  0  0  0  0  0  0  0  0  0
  1  2  2  0  0  0  0
  2  3  1  0  0  0  0
  3  4  2  0  0  0  0
  4  5  1  0  0  0  0
  5  6  2  0  0  0  0
  6  7  1  0  0  0  0
  7  8  1  0  0  0  0
  8  9  1  0  0  0  0
  9 10  1  0  0  0  0
 10 11  1  0  0  0  0
M  END
>  <cdx:fragmentId>
22877

$$$$
