5352430.cdx
  Mrv1902 05222410202D          

 24 23  0  0  0  0            999 V2000
   20.5806   -8.6553    0.0000 C   0  0  0  0  0  0  0  0  0  0  0  0
   19.8661   -9.0678    0.0000 C   0  0  0  0  0  0  0  0  0  0  0  0
   19.1516   -8.6553    0.0000 C   0  0  0  0  0  0  0  0  0  0  0  0
   18.4372   -9.0678    0.0000 C   0  0  0  0  0  0  0  0  0  0  0  0
   17.7227   -8.6553    0.0000 C   0  0  0  0  0  0  0  0  0  0  0  0
   17.0082   -9.0678    0.0000 C   0  0  0  0  0  0  0  0  0  0  0  0
   16.2938   -8.6553    0.0000 C   0  0  0  0  0  0  0  0  0  0  0  0
   15.5793   -9.0678    0.0000 C   0  0  0  0  0  0  0  0  0  0  0  0
   14.8648   -8.6553    0.0000 C   0  0  0  0  0  0  0  0  0  0  0  0
   14.0398   -8.6553    0.0000 C   0  0  0  0  0  0  0  0  0  0  0  0
   13.3253   -9.0678    0.0000 C   0  0  0  0  0  0  0  0  0  0  0  0
   12.6109   -8.6553    0.0000 C   0  0  0  0  0  0  0  0  0  0  0  0
   11.7859   -8.6553    0.0000 C   0  0  0  0  0  0  0  0  0  0  0  0
   11.0714   -9.0678    0.0000 C   0  0  0  0  0  0  0  0  0  0  0  0
   10.3569   -8.6553    0.0000 C   0  0  0  0  0  0  0  0  0  0  0  0
    9.6425   -9.0678    0.0000 C   0  0  0  0  0  0  0  0  0  0  0  0
    8.9280   -8.6553    0.0000 C   0  0  0  0  0  0  0  0  0  0  0  0
    8.2135   -9.0678    0.0000 C   0  0  0  0  0  0  0  0  0  0  0  0
   20.5806   -7.8303    0.0000 O   0  0  0  0  0  0  0  0  0  0  0  0
   21.2951   -9.0678    0.0000 O   0  0  0  0  0  0  0  0  0  0  0  0
   22.0095   -8.6553    0.0000 Si  0  0  0  0  0  0  0  0  0  0  0  0
   22.7240   -8.2428    0.0000 C   0  0  0  0  0  0  0  0  0  0  0  0
   22.0095   -7.8303    0.0000 C   0  0  0  0  0  0  0  0  0  0  0  0
   22.7240   -9.0678    0.0000 C   0  0  0  0  0  0  0  0  0  0  0  0
  1  2  1  0  0  0  0
  2  3  1  0  0  0  0
  3  4  1  0  0  0  0
  4  5  1  0  0  0  0
  5  6  1  0  0  0  0
  6  7  1  0  0  0  0
  7  8  1  0  0  0  0
  8  9  1  0  0  0  0
  9 10  2  0  0  0  0
 10 11  1  0  0  0  0
 11 12  1  0  0  0  0
 12 13  2  0  0  0  0
 13 14  1  0  0  0  0
 14 15  1  0  0  0  0
 15 16  1  0  0  0  0
 16 17  1  0  0  0  0
 17 18  1  0  0  0  0
  1 19  2  0  0  0  0
  1 20  1  0  0  0  0
 21 22  1  0  0  0  0
 21 23  1  0  0  0  0
 21 24  1  0  0  0  0
 20 21  1  0  0  0  0
M  END
>  <cdx:groupId>
22985

>  <cdx:fragmentId>
22917

$$$$
