352496.cdx
  Mrv1902 05222410222D          

 15 16  0  0  0  0            999 V2000
    8.0221   -7.2216    0.0000 O   0  0  0  0  0  0  0  0  0  0  0  0
    7.2345   -7.4672    0.0000 C   0  0  0  0  0  0  0  0  0  0  0  0
    7.2247   -8.2921    0.0000 C   0  0  0  0  0  0  0  0  0  0  0  0
    8.0062   -8.5564    0.0000 C   0  0  0  0  0  0  0  0  0  0  0  0
    8.4990   -7.8948    0.0000 C   0  0  0  0  0  0  0  0  0  0  0  0
    8.9919   -7.2333    0.0000 O   0  0  0  0  0  0  0  0  0  0  0  0
    9.7734   -7.4976    0.0000 C   0  0  0  0  0  0  0  0  0  0  0  0
    9.7636   -8.3225    0.0000 C   0  0  0  0  0  0  0  0  0  0  0  0
    8.9759   -8.5680    0.0000 C   0  0  0  0  0  0  0  0  0  0  0  0
    6.5729   -6.9743    0.0000 C   0  0  0  0  0  0  0  0  0  0  0  0
    5.8153   -7.3008    0.0000 C   0  0  0  0  0  0  0  0  0  0  0  0
    5.0577   -7.6273    0.0000 C   0  0  0  0  0  0  0  0  0  0  0  0
    4.3000   -7.9538    0.0000 C   0  0  0  0  0  0  0  0  0  0  0  0
    3.5424   -8.2803    0.0000 C   0  0  0  0  0  0  0  0  0  0  0  0
    2.7848   -8.6069    0.0000 C   0  0  0  0  0  0  0  0  0  0  0  0
  1  2  1  0  0  0  0
  2  3  1  0  0  0  0
  3  4  2  0  0  0  0
  4  5  1  0  0  0  0
  5  6  1  0  0  0  0
  6  7  1  0  0  0  0
  7  8  1  0  0  0  0
  8  9  1  0  0  0  0
  1  5  1  0  0  0  0
  9  5  1  0  0  0  0
 10 11  1  0  0  0  0
 11 12  3  0  0  0  0
 12 13  1  0  0  0  0
 13 14  3  0  0  0  0
 14 15  1  0  0  0  0
  2 10  2  0  0  0  0
M  END
>  <cdx:fragmentId>
5

$$$$
