352484.cdx
  Mrv1902 05222410232D          

 18 19  0  0  0  0            999 V2000
    7.6413   -7.0801    0.0000 C   0  0  0  0  0  0  0  0  0  0  0  0
    6.8303   -7.2397    0.0000 C   0  0  0  0  0  0  0  0  0  0  0  0
    8.1574   -6.4380    0.0000 C   0  0  2  0  0  0  0  0  0  0  0  0
    8.1429   -5.6113    0.0000 C   0  0  1  0  0  0  0  0  0  0  0  0
    7.5991   -4.9925    0.0000 C   0  0  0  0  0  0  0  0  0  0  0  0
    6.7854   -4.8564    0.0000 C   0  0  0  0  0  0  0  0  0  0  0  0
    6.0761   -5.2792    0.0000 C   0  0  0  0  0  0  0  0  0  0  0  0
    5.8093   -6.0593    0.0000 C   0  0  0  0  0  0  0  0  0  0  0  0
    6.1154   -6.8249    0.0000 C   0  0  0  0  0  0  0  0  0  0  0  0
    8.9841   -6.4235    0.0000 C   0  0  0  0  0  0  0  0  0  0  0  0
    8.9696   -5.5968    0.0000 C   0  0  0  0  0  0  0  0  0  0  0  0
    5.4353   -4.7595    0.0000 C   0  0  0  0  0  0  0  0  0  0  0  0
    8.0683   -7.7860    0.0000 C   0  0  0  0  0  0  0  0  0  0  0  0
    9.1831   -4.7999    0.0000 C   0  0  0  0  0  0  0  0  0  0  0  0
    9.7946   -5.5968    0.0000 C   0  0  0  0  0  0  0  0  0  0  0  0
    8.5699   -7.1524    0.0000 H   0  0  0  0  0  0  0  0  0  0  0  0
    8.5554   -4.8969    0.0000 H   0  0  0  0  0  0  0  0  0  0  0  0
    4.6649   -5.0546    0.0000 O   0  0  0  0  0  0  0  0  0  0  0  0
  1  2  1  0  0  0  0
  1  3  1  0  0  0  0
  3  4  1  0  0  0  0
  4  5  1  0  0  0  0
  5  6  1  0  0  0  0
  6  7  1  0  0  0  0
  7  8  2  0  0  0  0
  8  9  1  0  0  0  0
  2  9  1  0  0  0  0
  3 10  1  0  0  0  0
 10 11  1  0  0  0  0
 11  4  1  0  0  0  0
  7 12  1  0  0  0  0
  1 13  2  0  0  0  0
 11 14  1  0  0  0  0
 11 15  1  0  0  0  0
  3 16  1  1  0  0  0
  4 17  1  6  0  0  0
 12 18  1  0  0  0  0
M  END
>  <cdx:fragmentId>
739

$$$$
