352481.cdx
  Mrv1902 05222410212D          

 15 16  0  0  0  0            999 V2000
    9.5093   -8.1831    0.0000 C   0  0  0  0  0  0  0  0  0  0  0  0
    8.6843   -8.1831    0.0000 C   0  0  0  0  0  0  0  0  0  0  0  0
    8.2718   -7.4686    0.0000 C   0  0  0  0  0  0  0  0  0  0  0  0
    7.4468   -7.4686    0.0000 C   0  0  0  0  0  0  0  0  0  0  0  0
    8.2718   -8.8976    0.0000 O   0  0  0  0  0  0  0  0  0  0  0  0
    7.0343   -6.7542    0.0000 C   0  0  0  0  0  0  0  0  0  0  0  0
    6.3198   -7.1667    0.0000 C   0  0  0  0  0  0  0  0  0  0  0  0
    5.6054   -6.7542    0.0000 C   0  0  0  0  0  0  0  0  0  0  0  0
    5.6054   -5.9292    0.0000 C   0  0  0  0  0  0  0  0  0  0  0  0
    6.3198   -5.5167    0.0000 C   0  0  0  0  0  0  0  0  0  0  0  0
    7.0343   -5.9292    0.0000 C   0  0  0  0  0  0  0  0  0  0  0  0
    7.7488   -6.3417    0.0000 O   0  0  0  0  0  0  0  0  0  0  0  0
    7.4468   -5.2147    0.0000 C   0  0  0  0  0  0  0  0  0  0  0  0
    6.7323   -7.8811    0.0000 C   0  0  0  0  0  0  0  0  0  0  0  0
    5.9073   -7.8811    0.0000 C   0  0  0  0  0  0  0  0  0  0  0  0
  1  2  1  0  0  0  0
  2  3  1  0  0  0  0
  3  4  2  0  0  0  0
  2  5  2  0  0  0  0
  6  7  1  0  0  0  0
  7  8  1  0  0  0  0
  8  9  1  0  0  0  0
  9 10  1  0  0  0  0
 10 11  1  0  0  0  0
 11 12  1  0  0  0  0
  6 12  1  0  0  0  0
  6 11  1  0  0  0  0
 11 13  1  0  0  0  0
  7 14  1  0  0  0  0
  7 15  1  0  0  0  0
  4  6  1  0  0  0  0
M  END
>  <cdx:fragmentId>
23142

$$$$
