5352455.cdx
  Mrv1902 05222410222D          

 29 28  0  0  0  0            999 V2000
    7.9668   -9.4627    0.0000 C   0  0  0  0  0  0  0  0  0  0  0  0
    7.9668   -8.6377    0.0000 C   0  0  0  0  0  0  0  0  0  0  0  0
    8.6813   -8.2252    0.0000 C   0  0  0  0  0  0  0  0  0  0  0  0
    9.3958   -8.6377    0.0000 C   0  0  0  0  0  0  0  0  0  0  0  0
   10.1102   -8.2252    0.0000 C   0  0  0  0  0  0  0  0  0  0  0  0
   10.8247   -8.6377    0.0000 C   0  0  0  0  0  0  0  0  0  0  0  0
   11.5392   -8.2252    0.0000 C   0  0  0  0  0  0  0  0  0  0  0  0
   12.2536   -8.6377    0.0000 C   0  0  0  0  0  0  0  0  0  0  0  0
   12.9681   -8.2252    0.0000 C   0  0  0  0  0  0  0  0  0  0  0  0
   13.6826   -8.6377    0.0000 C   0  0  0  0  0  0  0  0  0  0  0  0
   14.3970   -8.2252    0.0000 C   0  0  0  0  0  0  0  0  0  0  0  0
   15.1115   -8.6377    0.0000 C   0  0  0  0  0  0  0  0  0  0  0  0
   15.8260   -8.2252    0.0000 C   0  0  0  0  0  0  0  0  0  0  0  0
   16.5405   -8.6377    0.0000 C   0  0  0  0  0  0  0  0  0  0  0  0
   17.2549   -8.2252    0.0000 C   0  0  0  0  0  0  0  0  0  0  0  0
   17.9694   -8.6377    0.0000 C   0  0  0  0  0  0  0  0  0  0  0  0
   18.6839   -8.2252    0.0000 C   0  0  0  0  0  0  0  0  0  0  0  0
   19.3983   -8.6377    0.0000 C   0  0  0  0  0  0  0  0  0  0  0  0
   20.1128   -8.2252    0.0000 C   0  0  0  0  0  0  0  0  0  0  0  0
   20.8273   -8.6377    0.0000 C   0  0  0  0  0  0  0  0  0  0  0  0
   21.5418   -8.2252    0.0000 C   0  0  0  0  0  0  0  0  0  0  0  0
   22.2562   -8.6377    0.0000 C   0  0  0  0  0  0  0  0  0  0  0  0
   22.9707   -8.2252    0.0000 C   0  0  0  0  0  0  0  0  0  0  0  0
   22.9707   -7.4002    0.0000 C   0  0  0  0  0  0  0  0  0  0  0  0
   23.6852   -8.6377    0.0000 C   0  0  0  0  0  0  0  0  0  0  0  0
   20.1128   -7.4002    0.0000 C   0  0  0  0  0  0  0  0  0  0  0  0
   13.6826   -9.4627    0.0000 C   0  0  0  0  0  0  0  0  0  0  0  0
   10.8247   -9.4627    0.0000 C   0  0  0  0  0  0  0  0  0  0  0  0
    7.2523   -8.2252    0.0000 C   0  0  0  0  0  0  0  0  0  0  0  0
  1  2  1  0  0  0  0
  2  3  2  0  0  0  0
  3  4  1  0  0  0  0
  4  5  1  0  0  0  0
  5  6  1  0  0  0  0
  6  7  2  0  0  0  0
  7  8  1  0  0  0  0
  8  9  1  0  0  0  0
  9 10  1  0  0  0  0
 10 11  2  0  0  0  0
 11 12  1  0  0  0  0
 12 13  1  0  0  0  0
 13 14  1  0  0  0  0
 14 15  2  0  0  0  0
 15 16  1  0  0  0  0
 16 17  1  0  0  0  0
 17 18  1  0  0  0  0
 18 19  2  0  0  0  0
 19 20  1  0  0  0  0
 20 21  1  0  0  0  0
 21 22  1  0  0  0  0
 22 23  2  0  0  0  0
 23 24  1  0  0  0  0
 23 25  1  0  0  0  0
 19 26  1  0  0  0  0
 10 27  1  0  0  0  0
  6 28  1  0  0  0  0
  2 29  1  0  0  0  0
M  END
>  <cdx:groupId>
23120

>  <cdx:fragmentId>
23037

$$$$
