5352428.cdx
  Mrv1902 05222410262D          

 14 14  0  0  0  0            999 V2000
    6.0032   -7.1714    0.0000 O   0  0  0  0  0  0  0  0  0  0  0  0
    5.4512   -7.7845    0.0000 C   0  0  0  0  0  0  0  0  0  0  0  0
    5.8637   -8.4990    0.0000 C   0  0  0  0  0  0  0  0  0  0  0  0
    6.6707   -8.3275    0.0000 C   0  0  0  0  0  0  0  0  0  0  0  0
    6.7569   -7.5070    0.0000 C   0  0  0  0  0  0  0  0  0  0  0  0
    4.6307   -7.6983    0.0000 O   0  0  0  0  0  0  0  0  0  0  0  0
    7.4714   -7.0945    0.0000 C   0  0  0  0  0  0  0  0  0  0  0  0
    8.1859   -7.5070    0.0000 C   0  0  0  0  0  0  0  0  0  0  0  0
    8.9003   -7.0945    0.0000 C   0  0  0  0  0  0  0  0  0  0  0  0
    8.9003   -6.2695    0.0000 C   0  0  0  0  0  0  0  0  0  0  0  0
    9.6148   -5.8570    0.0000 C   0  0  0  0  0  0  0  0  0  0  0  0
    9.6148   -5.0320    0.0000 C   0  0  0  0  0  0  0  0  0  0  0  0
   10.3293   -4.6195    0.0000 C   0  0  0  0  0  0  0  0  0  0  0  0
   10.3293   -3.7945    0.0000 C   0  0  0  0  0  0  0  0  0  0  0  0
  1  2  1  0  0  0  0
  2  3  1  0  0  0  0
  3  4  1  0  0  0  0
  4  5  1  0  0  0  0
  1  5  1  0  0  0  0
  2  6  2  0  0  0  0
  7  8  1  0  0  0  0
  8  9  2  0  0  0  0
  9 10  1  0  0  0  0
 10 11  1  0  0  0  0
 11 12  1  0  0  0  0
 12 13  1  0  0  0  0
 13 14  1  0  0  0  0
  5  7  1  0  0  0  0
M  END
>  <cdx:groupId>
44

>  <cdx:fragmentId>
17

$$$$
