352451.cdx
  Mrv1902 05222410222D          

 12 11  0  0  0  0            999 V2000
   10.3637   -6.7729    0.0000 C   0  0  0  0  0  0  0  0  0  0  0  0
    9.6492   -7.1854    0.0000 C   0  0  0  0  0  0  0  0  0  0  0  0
    8.9348   -6.7729    0.0000 C   0  0  0  0  0  0  0  0  0  0  0  0
    8.2203   -7.1854    0.0000 C   0  0  0  0  0  0  0  0  0  0  0  0
    7.5058   -6.7729    0.0000 C   0  0  0  0  0  0  0  0  0  0  0  0
    6.7913   -7.1854    0.0000 C   0  0  0  0  0  0  0  0  0  0  0  0
    6.0769   -6.7729    0.0000 C   0  0  0  0  0  0  0  0  0  0  0  0
    5.3624   -7.1854    0.0000 C   0  0  0  0  0  0  0  0  0  0  0  0
    8.5223   -6.0584    0.0000 O   0  0  0  0  0  0  0  0  0  0  0  0
    5.3624   -6.3604    0.0000 O   0  0  0  0  0  0  0  0  0  0  0  0
    6.0769   -5.9479    0.0000 C   0  0  0  0  0  0  0  0  0  0  0  0
    9.3473   -6.0584    0.0000 C   0  0  0  0  0  0  0  0  0  0  0  0
  1  2  2  0  0  0  0
  2  3  1  0  0  0  0
  3  4  1  0  0  0  0
  4  5  1  0  0  0  0
  5  6  2  0  0  0  0
  6  7  1  0  0  0  0
  7  8  1  0  0  0  0
  3  9  1  0  0  0  0
  7 10  1  0  0  0  0
  7 11  1  0  0  0  0
  3 12  1  0  0  0  0
M  END
>  <cdx:fragmentId>
22997

$$$$
