352543.cdx
  Mrv1902 05222410192D          

 14 13  0  0  0  0            999 V2000
    6.3434   -8.3595    0.0000 C   0  0  0  0  0  0  0  0  0  0  0  0
    5.6289   -8.7720    0.0000 C   0  0  0  0  0  0  0  0  0  0  0  0
    4.9145   -8.3595    0.0000 C   0  0  0  0  0  0  0  0  0  0  0  0
    4.2000   -8.7720    0.0000 C   0  0  0  0  0  0  0  0  0  0  0  0
    3.4855   -8.3595    0.0000 C   0  0  0  0  0  0  0  0  0  0  0  0
    2.7711   -8.7720    0.0000 C   0  0  0  0  0  0  0  0  0  0  0  0
    6.3434   -7.5345    0.0000 O   0  0  0  0  0  0  0  0  0  0  0  0
    7.0579   -8.7720    0.0000 O   0  0  0  0  0  0  0  0  0  0  0  0
    7.7724   -8.3595    0.0000 C   0  0  0  0  0  0  0  0  0  0  0  0
    8.4868   -8.7720    0.0000 C   0  0  0  0  0  0  0  0  0  0  0  0
    9.2013   -8.3595    0.0000 C   0  0  0  0  0  0  0  0  0  0  0  0
    9.9154   -8.7726    0.0000 C   0  0  0  0  0  0  0  0  0  0  0  0
    9.9131   -9.5976    0.0000 C   0  0  0  0  0  0  0  0  0  0  0  0
   10.6264  -10.0121    0.0000 C   0  0  0  0  0  0  0  0  0  0  0  0
  1  2  1  0  0  0  0
  2  3  1  0  0  0  0
  3  4  1  0  0  0  0
  4  5  1  0  0  0  0
  5  6  1  0  0  0  0
  1  7  2  0  0  0  0
  1  8  1  0  0  0  0
  9 10  1  0  0  0  0
 10 11  1  0  0  0  0
 11 12  2  0  0  0  0
 12 13  1  0  0  0  0
 13 14  1  0  0  0  0
  8  9  1  0  0  0  0
M  END
>  <cdx:fragmentId>
5

$$$$
