5352601.cdx
  Mrv1902 05222410272D          

 15 15  0  0  0  0            999 V2000
   14.0441   -8.1413    0.0000 C   0  0  0  0  0  0  0  0  0  0  0  0
   13.3296   -8.5538    0.0000 C   0  0  0  0  0  0  0  0  0  0  0  0
   13.3296   -9.3788    0.0000 C   0  0  0  0  0  0  0  0  0  0  0  0
   12.6152   -9.7913    0.0000 C   0  0  0  0  0  0  0  0  0  0  0  0
   11.9007   -9.3788    0.0000 C   0  0  0  0  0  0  0  0  0  0  0  0
   11.9007   -8.5538    0.0000 C   0  0  0  0  0  0  0  0  0  0  0  0
   12.6152   -8.1413    0.0000 C   0  0  0  0  0  0  0  0  0  0  0  0
   14.0441   -7.3163    0.0000 O   0  0  0  0  0  0  0  0  0  0  0  0
   14.7586   -8.5538    0.0000 O   0  0  0  0  0  0  0  0  0  0  0  0
   15.4731   -8.1413    0.0000 C   0  0  0  0  0  0  0  0  0  0  0  0
   16.1875   -8.5538    0.0000 C   0  0  0  0  0  0  0  0  0  0  0  0
   16.9020   -8.1413    0.0000 C   0  0  0  0  0  0  0  0  0  0  0  0
   17.6165   -8.5538    0.0000 C   0  0  0  0  0  0  0  0  0  0  0  0
   18.3309   -8.1413    0.0000 C   0  0  0  0  0  0  0  0  0  0  0  0
   19.0454   -8.5538    0.0000 C   0  0  0  0  0  0  0  0  0  0  0  0
  1  2  1  0  0  0  0
  2  3  1  0  0  0  0
  3  4  2  0  0  0  0
  4  5  1  0  0  0  0
  5  6  2  0  0  0  0
  6  7  1  0  0  0  0
  2  7  2  0  0  0  0
  1  8  2  0  0  0  0
  1  9  1  0  0  0  0
 10 11  1  0  0  0  0
 11 12  1  0  0  0  0
 12 13  2  0  0  0  0
 13 14  1  0  0  0  0
 14 15  1  0  0  0  0
  9 10  1  0  0  0  0
M  END
>  <cdx:groupId>
23461

>  <cdx:fragmentId>
23419

$$$$
