3527.cdx
  Mrv1902 05222410192D          

 34 37  0  0  0  0            999 V2000
    8.0476   -8.0491    0.0000 C   0  0  0  0  0  0  0  0  0  0  0  0
    8.0458   -7.2241    0.0000 C   0  0  0  0  0  0  0  0  0  0  0  0
    7.3304   -6.8132    0.0000 C   0  0  0  0  0  0  0  0  0  0  0  0
    6.6169   -7.2273    0.0000 C   0  0  0  0  0  0  0  0  0  0  0  0
    6.6187   -8.0523    0.0000 C   0  0  0  0  0  0  0  0  0  0  0  0
    7.3341   -8.4632    0.0000 C   0  0  0  0  0  0  0  0  0  0  0  0
    5.9015   -6.8164    0.0000 C   0  0  0  0  0  0  0  0  0  0  0  0
    5.1879   -7.2304    0.0000 C   0  0  0  0  0  0  0  0  0  0  0  0
    5.1897   -8.0554    0.0000 C   0  0  0  0  0  0  0  0  0  0  0  0
    5.9051   -8.4663    0.0000 C   0  0  0  0  0  0  0  0  0  0  0  0
    4.4725   -6.8195    0.0000 C   0  0  0  0  0  0  0  0  0  0  0  0
    3.7590   -7.2336    0.0000 C   0  0  0  0  0  0  0  0  0  0  0  0
    3.7608   -8.0586    0.0000 C   0  0  0  0  0  0  0  0  0  0  0  0
    4.4762   -8.4695    0.0000 C   0  0  0  0  0  0  0  0  0  0  0  0
    5.9070   -9.2913    0.0000 O   0  0  0  0  0  0  0  0  0  0  0  0
    5.8996   -5.9914    0.0000 O   0  0  0  0  0  0  0  0  0  0  0  0
   10.1528   -8.4476    0.0000 C   0  0  2  0  0  0  0  0  0  0  0  0
   10.8705   -8.0408    0.0000 C   0  0  2  0  0  0  0  0  0  0  0  0
   10.8770   -7.2158    0.0000 C   0  0  1  0  0  0  0  0  0  0  0  0
   10.1658   -6.7977    0.0000 C   0  0  2  0  0  0  0  0  0  0  0  0
    9.4481   -7.2045    0.0000 C   0  0  1  0  0  0  0  0  0  0  0  0
    9.4416   -8.0295    0.0000 O   0  0  0  0  0  0  0  0  0  0  0  0
   10.1463   -9.2726    0.0000 C   0  0  0  0  0  0  0  0  0  0  0  0
   11.5947   -6.8089    0.0000 O   0  0  0  0  0  0  0  0  0  0  0  0
   10.1723   -5.9727    0.0000 O   0  0  0  0  0  0  0  0  0  0  0  0
   11.5817   -8.4589    0.0000 O   0  0  0  0  0  0  0  0  0  0  0  0
   10.8575   -9.6907    0.0000 O   0  0  0  0  0  0  0  0  0  0  0  0
    3.0473   -8.4727    0.0000 O   0  0  0  0  0  0  0  0  0  0  0  0
    7.3359   -9.2882    0.0000 O   0  0  0  0  0  0  0  0  0  0  0  0
    4.4780   -9.2945    0.0000 O   0  0  0  0  0  0  0  0  0  0  0  0
    8.7594   -6.8100    0.0000 O   0  0  0  0  0  0  0  0  0  0  0  0
    3.0436   -6.8227    0.0000 C   0  0  0  0  0  0  0  0  0  0  0  0
    3.0491   -9.2977    0.0000 C   0  0  0  0  0  0  0  0  0  0  0  0
    8.0513   -9.6991    0.0000 C   0  0  0  0  0  0  0  0  0  0  0  0
  1  2  2  0  0  0  0
  2  3  1  0  0  0  0
  3  4  2  0  0  0  0
  4  5  1  0  0  0  0
  5  6  2  0  0  0  0
  6  1  1  0  0  0  0
  4  7  1  0  0  0  0
  7  8  1  0  0  0  0
  8  9  2  0  0  0  0
  9 10  1  0  0  0  0
 10  5  1  0  0  0  0
  8 11  1  0  0  0  0
 11 12  2  0  0  0  0
 12 13  1  0  0  0  0
 13 14  2  0  0  0  0
 14  9  1  0  0  0  0
 10 15  2  0  0  0  0
  7 16  2  0  0  0  0
 17 18  1  0  0  0  0
 18 19  1  0  0  0  0
 19 20  1  0  0  0  0
 20 21  1  0  0  0  0
 21 22  1  0  0  0  0
 22 17  1  0  0  0  0
 17 23  1  1  0  0  0
 19 24  1  1  0  0  0
 20 25  1  6  0  0  0
 18 26  1  6  0  0  0
 23 27  1  0  0  0  0
 13 28  1  0  0  0  0
  6 29  1  0  0  0  0
 14 30  1  0  0  0  0
  2 31  1  0  0  0  0
 12 32  1  0  0  0  0
 21 31  1  1  0  0  0
 28 33  1  0  0  0  0
 29 34  1  0  0  0  0
M  END
>  <cdx:fragmentId>
5

$$$$
