352910.cdx
  Mrv1902 05222410212D          

 13 13  0  0  0  0            999 V2000
    8.9345   -7.2063    0.0000 C   0  0  0  0  0  0  0  0  0  0  0  0
    8.2200   -7.6188    0.0000 C   0  0  0  0  0  0  0  0  0  0  0  0
    7.5055   -7.2063    0.0000 C   0  0  0  0  0  0  0  0  0  0  0  0
    6.7911   -7.6188    0.0000 C   0  0  0  0  0  0  0  0  0  0  0  0
    6.0766   -7.2063    0.0000 C   0  0  0  0  0  0  0  0  0  0  0  0
    5.3621   -7.6188    0.0000 C   0  0  0  0  0  0  0  0  0  0  0  0
    5.3621   -8.4438    0.0000 C   0  0  0  0  0  0  0  0  0  0  0  0
    6.0766   -8.8563    0.0000 C   0  0  0  0  0  0  0  0  0  0  0  0
    6.7911   -8.4438    0.0000 C   0  0  0  0  0  0  0  0  0  0  0  0
    8.9345   -6.3813    0.0000 O   0  0  0  0  0  0  0  0  0  0  0  0
    9.6490   -7.6188    0.0000 O   0  0  0  0  0  0  0  0  0  0  0  0
    4.6477   -7.2063    0.0000 O   0  0  0  0  0  0  0  0  0  0  0  0
   10.3634   -7.2063    0.0000 C   0  0  0  0  0  0  0  0  0  0  0  0
  1  2  1  0  0  0  0
  2  3  2  0  0  0  0
  3  4  1  0  0  0  0
  4  5  1  0  0  0  0
  5  6  2  0  0  0  0
  6  7  1  0  0  0  0
  7  8  2  0  0  0  0
  8  9  1  0  0  0  0
  4  9  2  0  0  0  0
  1 10  2  0  0  0  0
  1 11  1  0  0  0  0
  6 12  1  0  0  0  0
 11 13  1  0  0  0  0
M  END
>  <cdx:fragmentId>
23599

$$$$
