353086.cdx
  Mrv1902 05222410262D          

 15 14  0  0  0  0            999 V2000
    9.2028   -5.9452    0.0000 C   0  0  0  0  0  0  0  0  0  0  0  0
    5.6174   -4.7462    0.0000 C   0  0  0  0  0  0  0  0  0  0  0  0
    4.9429   -8.4662    0.0000 C   0  0  0  0  0  0  0  0  0  0  0  0
    4.2152   -7.2365    0.0000 C   0  0  0  0  0  0  0  0  0  0  0  0
    4.9340   -7.6412    0.0000 C   0  0  0  0  0  0  0  0  0  0  0  0
    5.6440   -7.2211    0.0000 C   0  0  0  0  0  0  0  0  0  0  0  0
    5.6351   -6.3961    0.0000 C   0  0  0  0  0  0  0  0  0  0  0  0
    6.3451   -5.9759    0.0000 C   0  0  0  0  0  0  0  0  0  0  0  0
    6.3362   -5.1510    0.0000 C   0  0  0  0  0  0  0  0  0  0  0  0
    7.0462   -4.7308    0.0000 C   0  0  0  0  0  0  0  0  0  0  0  0
    7.7651   -5.1356    0.0000 C   0  0  0  0  0  0  0  0  0  0  0  0
    8.4751   -4.7154    0.0000 C   0  0  0  0  0  0  0  0  0  0  0  0
    9.1940   -5.1202    0.0000 C   0  0  0  0  0  0  0  0  0  0  0  0
    9.9039   -4.7000    0.0000 C   0  0  0  0  0  0  0  0  0  0  0  0
   10.6228   -5.1048    0.0000 C   0  0  0  0  0  0  0  0  0  0  0  0
 13  1  1  0  0  0  0
  9  2  1  0  0  0  0
  5  3  1  0  0  0  0
  5  4  1  0  0  0  0
  6  5  2  0  0  0  0
  7  6  1  0  0  0  0
  8  7  1  0  0  0  0
  9  8  1  0  0  0  0
 10  9  2  0  0  0  0
 11 10  1  0  0  0  0
 12 11  1  0  0  0  0
 13 12  2  0  0  0  0
 14 13  1  0  0  0  0
 15 14  2  0  0  0  0
M  END
>  <cdx:fragmentId>
23697

$$$$
