353012.cdx
  Mrv1902 05222410212D          

 14 13  0  0  0  0            999 V2000
    6.4086   -6.8392    0.0000 C   0  0  0  0  0  0  0  0  0  0  0  0
    7.1230   -6.4267    0.0000 C   0  0  0  0  0  0  0  0  0  0  0  0
    7.8375   -6.8392    0.0000 C   0  0  0  0  0  0  0  0  0  0  0  0
    8.5520   -6.4267    0.0000 C   0  0  0  0  0  0  0  0  0  0  0  0
    9.2664   -6.8392    0.0000 C   0  0  0  0  0  0  0  0  0  0  0  0
    9.9809   -6.4267    0.0000 C   0  0  0  0  0  0  0  0  0  0  0  0
   10.6954   -6.8392    0.0000 C   0  0  0  0  0  0  0  0  0  0  0  0
   11.4099   -6.4267    0.0000 C   0  0  0  0  0  0  0  0  0  0  0  0
   12.1243   -6.8392    0.0000 C   0  0  0  0  0  0  0  0  0  0  0  0
    5.6941   -6.4267    0.0000 C   0  0  0  0  0  0  0  0  0  0  0  0
    4.9796   -6.8392    0.0000 C   0  0  0  0  0  0  0  0  0  0  0  0
    4.2651   -6.4267    0.0000 C   0  0  0  0  0  0  0  0  0  0  0  0
    3.5507   -6.8392    0.0000 C   0  0  0  0  0  0  0  0  0  0  0  0
    2.8362   -6.4267    0.0000 C   0  0  0  0  0  0  0  0  0  0  0  0
  1  2  1  0  0  0  0
  2  3  1  0  0  0  0
  3  4  1  0  0  0  0
  4  5  1  0  0  0  0
  5  6  1  0  0  0  0
  6  7  1  0  0  0  0
  7  8  1  0  0  0  0
  8  9  1  0  0  0  0
  1 10  2  0  0  0  0
 10 11  1  0  0  0  0
 11 12  1  0  0  0  0
 12 13  1  0  0  0  0
 13 14  1  0  0  0  0
M  END
>  <cdx:fragmentId>
5

$$$$
