3532.cdx
  Mrv1902 05222410192D          

  9  9  0  0  0  0            999 V2000
    5.7612   -5.8297    0.0000 C   0  0  0  0  0  0  0  0  0  0  0  0
    6.4757   -6.2422    0.0000 C   0  0  0  0  0  0  0  0  0  0  0  0
    7.1902   -5.8297    0.0000 C   0  0  0  0  0  0  0  0  0  0  0  0
    7.1902   -5.0047    0.0000 C   0  0  0  0  0  0  0  0  0  0  0  0
    6.4757   -4.5922    0.0000 C   0  0  0  0  0  0  0  0  0  0  0  0
    5.7612   -5.0047    0.0000 N   0  0  0  0  0  0  0  0  0  0  0  0
    7.9046   -4.5922    0.0000 C   0  0  0  0  0  0  0  0  0  0  0  0
    7.9046   -3.7672    0.0000 O   0  0  0  0  0  0  0  0  0  0  0  0
    8.6191   -5.0047    0.0000 O   0  0  0  0  0  0  0  0  0  0  0  0
  1  2  1  0  0  0  0
  2  3  1  0  0  0  0
  3  4  2  0  0  0  0
  4  5  1  0  0  0  0
  5  6  1  0  0  0  0
  1  6  1  0  0  0  0
  7  8  2  0  0  0  0
  7  9  1  0  0  0  0
  4  7  1  0  0  0  0
M  END
>  <cdx:groupId>
29

>  <cdx:fragmentId>
5

$$$$
