353469.cdx
  Mrv1902 05222410262D          

 23 24  0  0  0  0            999 V2000
    4.8501  -10.5302    0.0000 C   0  0  0  0  0  0  0  0  0  0  0  0
    4.8501   -9.7052    0.0000 C   0  0  0  0  0  0  0  0  0  0  0  0
    5.5646   -9.2927    0.0000 C   0  0  0  0  0  0  0  0  0  0  0  0
    6.2790   -9.7052    0.0000 C   0  0  0  0  0  0  0  0  0  0  0  0
    6.2790  -10.5302    0.0000 C   0  0  0  0  0  0  0  0  0  0  0  0
    5.5646  -10.9427    0.0000 C   0  0  0  0  0  0  0  0  0  0  0  0
    4.1356  -10.9427    0.0000 O   0  0  0  0  0  0  0  0  0  0  0  0
    6.9935   -9.2927    0.0000 C   0  0  0  0  0  0  0  0  0  0  0  0
    7.7080   -9.7052    0.0000 C   0  0  0  0  0  0  0  0  0  0  0  0
    8.4225   -9.2927    0.0000 C   0  0  0  0  0  0  0  0  0  0  0  0
    8.4225   -8.4677    0.0000 C   0  0  0  0  0  0  0  0  0  0  0  0
    9.1369   -8.0552    0.0000 C   0  0  0  0  0  0  0  0  0  0  0  0
    9.8514   -8.4677    0.0000 C   0  0  0  0  0  0  0  0  0  0  0  0
    9.8514   -9.2927    0.0000 C   0  0  0  0  0  0  0  0  0  0  0  0
    9.1369   -9.7052    0.0000 C   0  0  0  0  0  0  0  0  0  0  0  0
   10.5659   -9.7052    0.0000 O   0  0  0  0  0  0  0  0  0  0  0  0
   11.2803   -9.2927    0.0000 C   0  0  0  0  0  0  0  0  0  0  0  0
   10.5659   -8.0552    0.0000 O   0  0  0  0  0  0  0  0  0  0  0  0
   11.2803   -8.4677    0.0000 C   0  0  0  0  0  0  0  0  0  0  0  0
    9.1369   -7.2302    0.0000 O   0  0  0  0  0  0  0  0  0  0  0  0
    8.4225   -6.8177    0.0000 C   0  0  0  0  0  0  0  0  0  0  0  0
    4.1356   -9.2927    0.0000 O   0  0  0  0  0  0  0  0  0  0  0  0
    3.4212   -9.7052    0.0000 C   0  0  0  0  0  0  0  0  0  0  0  0
  1  2  1  0  0  0  0
  2  3  2  0  0  0  0
  3  4  1  0  0  0  0
  4  5  2  0  0  0  0
  5  6  1  0  0  0  0
  1  6  2  0  0  0  0
  1  7  1  0  0  0  0
  8  9  1  0  0  0  0
 10 11  1  0  0  0  0
 11 12  2  0  0  0  0
 12 13  1  0  0  0  0
 13 14  2  0  0  0  0
 14 15  1  0  0  0  0
 10 15  2  0  0  0  0
 16 17  1  0  0  0  0
 14 16  1  0  0  0  0
 18 19  1  0  0  0  0
 13 18  1  0  0  0  0
 20 21  1  0  0  0  0
 12 20  1  0  0  0  0
  9 10  1  0  0  0  0
  4  8  1  0  0  0  0
 22 23  1  0  0  0  0
  2 22  1  0  0  0  0
M  END
>  <cdx:groupId>
105581

>  <cdx:fragmentId>
105532

$$$$
