353625.cdx
  Mrv1902 05222410252D          

 44 51  0  0  0  0            999 V2000
    8.3731  -11.0985    0.0000 C   0  0  0  0  0  0  0  0  0  0  0  0
    7.5661  -10.9269    0.0000 C   0  0  1  0  0  0  0  0  0  0  0  0
    7.3111  -10.1423    0.0000 C   0  0  1  0  0  0  0  0  0  0  0  0
    7.8632   -9.5292    0.0000 C   0  0  0  0  0  0  0  0  0  0  0  0
    7.6082   -8.7446    0.0000 C   0  0  0  0  0  0  0  0  0  0  0  0
    8.1603   -8.1315    0.0000 C   0  0  0  0  0  0  0  0  0  0  0  0
    8.9672   -8.3030    0.0000 C   0  0  0  0  0  0  0  0  0  0  0  0
    9.2222   -9.0877    0.0000 C   0  0  0  0  0  0  0  0  0  0  0  0
    8.6701   -9.7008    0.0000 C   0  0  0  0  0  0  0  0  0  0  0  0
    8.9251  -10.4854    0.0000 O   0  0  0  0  0  0  0  0  0  0  0  0
    6.8986  -11.4119    0.0000 C   0  0  0  0  0  0  0  0  0  0  0  0
    6.2312  -10.9269    0.0000 C   0  0  0  0  0  0  0  0  0  0  0  0
    5.4242  -11.0985    0.0000 C   0  0  0  0  0  0  0  0  0  0  0  0
    4.8722  -10.4854    0.0000 C   0  0  0  0  0  0  0  0  0  0  0  0
    5.1271   -9.7008    0.0000 C   0  0  0  0  0  0  0  0  0  0  0  0
    5.9341   -9.5292    0.0000 C   0  0  0  0  0  0  0  0  0  0  0  0
    6.4861  -10.1423    0.0000 C   0  0  0  0  0  0  0  0  0  0  0  0
    9.5193   -7.6900    0.0000 O   0  0  0  0  0  0  0  0  0  0  0  0
    7.7376  -11.7339    0.0000 O   0  0  0  0  0  0  0  0  0  0  0  0
    4.0652  -10.6569    0.0000 O   0  0  0  0  0  0  0  0  0  0  0  0
    4.5751   -9.0877    0.0000 O   0  0  0  0  0  0  0  0  0  0  0  0
    6.4062   -7.5045    0.0000 C   0  0  0  0  0  0  0  0  0  0  0  0
    7.1207   -7.0920    0.0000 C   0  0  1  0  0  0  0  0  0  0  0  0
    7.1207   -6.2670    0.0000 C   0  0  1  0  0  0  0  0  0  0  0  0
    6.4062   -5.8545    0.0000 C   0  0  0  0  0  0  0  0  0  0  0  0
    6.4062   -5.0295    0.0000 C   0  0  0  0  0  0  0  0  0  0  0  0
    5.6918   -4.6170    0.0000 C   0  0  0  0  0  0  0  0  0  0  0  0
    4.9773   -5.0295    0.0000 C   0  0  0  0  0  0  0  0  0  0  0  0
    4.9773   -5.8545    0.0000 C   0  0  0  0  0  0  0  0  0  0  0  0
    5.6918   -6.2670    0.0000 C   0  0  0  0  0  0  0  0  0  0  0  0
    5.6918   -7.0920    0.0000 O   0  0  0  0  0  0  0  0  0  0  0  0
    7.9053   -7.3469    0.0000 C   0  0  1  0  0  0  0  0  0  0  0  0
    8.3903   -6.6795    0.0000 C   0  0  0  0  0  0  0  0  0  0  0  0
    9.2107   -6.5932    0.0000 C   0  0  0  0  0  0  0  0  0  0  0  0
    9.5463   -5.8395    0.0000 C   0  0  0  0  0  0  0  0  0  0  0  0
    9.0614   -5.1721    0.0000 C   0  0  0  0  0  0  0  0  0  0  0  0
    8.2409   -5.2583    0.0000 C   0  0  0  0  0  0  0  0  0  0  0  0
    7.9053   -6.0120    0.0000 C   0  0  0  0  0  0  0  0  0  0  0  0
    9.3969   -4.4184    0.0000 O   0  0  0  0  0  0  0  0  0  0  0  0
   10.3668   -5.7533    0.0000 O   0  0  0  0  0  0  0  0  0  0  0  0
    7.2069   -7.9124    0.0000 O   0  0  0  0  0  0  0  0  0  0  0  0
    4.2628   -4.6170    0.0000 O   0  0  0  0  0  0  0  0  0  0  0  0
    6.9756   -9.3887    0.0000 H   0  0  0  0  0  0  0  0  0  0  0  0
    7.2069   -5.4465    0.0000 H   0  0  0  0  0  0  0  0  0  0  0  0
  1  2  1  0  0  0  0
  2  3  1  0  0  0  0
  3  4  1  0  0  0  0
  4  5  1  0  0  0  0
  5  6  2  0  0  0  0
  6  7  1  0  0  0  0
  7  8  2  0  0  0  0
  8  9  1  0  0  0  0
  4  9  2  0  0  0  0
  9 10  1  0  0  0  0
  1 10  1  0  0  0  0
 11 12  1  0  0  0  0
 12 13  1  0  0  0  0
 13 14  2  0  0  0  0
 14 15  1  0  0  0  0
 15 16  2  0  0  0  0
 16 17  1  0  0  0  0
 12 17  2  0  0  0  0
 11  2  1  0  0  0  0
 17  3  1  0  0  0  0
  7 18  1  0  0  0  0
  2 19  1  1  0  0  0
 14 20  1  0  0  0  0
 15 21  1  0  0  0  0
 22 23  1  0  0  0  0
 23 24  1  0  0  0  0
 24 25  1  0  0  0  0
 25 26  1  0  0  0  0
 26 27  2  0  0  0  0
 27 28  1  0  0  0  0
 28 29  2  0  0  0  0
 29 30  1  0  0  0  0
 25 30  2  0  0  0  0
 30 31  1  0  0  0  0
 22 31  1  0  0  0  0
 32 33  1  0  0  0  0
 33 34  1  0  0  0  0
 34 35  2  0  0  0  0
 35 36  1  0  0  0  0
 36 37  2  0  0  0  0
 37 38  1  0  0  0  0
 33 38  2  0  0  0  0
 32 23  1  0  0  0  0
 38 24  1  0  0  0  0
 36 39  1  0  0  0  0
 35 40  1  0  0  0  0
 23 41  1  6  0  0  0
 28 42  1  0  0  0  0
 32  6  1  1  0  0  0
  3 43  1  1  0  0  0
 24 44  1  6  0  0  0
M  END
>  <cdx:fragmentId>
70805

$$$$
