35363.cdx
  Mrv1902 05222410222D          

  9  9  0  0  0  0            999 V2000
    4.4710   -2.3946    0.0000 C   0  0  0  0  0  0  0  0  0  0  0  0
    4.4710   -3.2196    0.0000 C   0  0  0  0  0  0  0  0  0  0  0  0
    3.7565   -3.6321    0.0000 C   0  0  0  0  0  0  0  0  0  0  0  0
    3.0420   -3.2196    0.0000 C   0  0  0  0  0  0  0  0  0  0  0  0
    3.0420   -2.3946    0.0000 C   0  0  0  0  0  0  0  0  0  0  0  0
    3.7565   -1.9821    0.0000 C   0  0  0  0  0  0  0  0  0  0  0  0
    5.1854   -3.6321    0.0000 C   0  0  0  0  0  0  0  0  0  0  0  0
    4.8835   -1.6801    0.0000 C   0  0  0  0  0  0  0  0  0  0  0  0
    5.2960   -2.3946    0.0000 C   0  0  0  0  0  0  0  0  0  0  0  0
  1  2  1  0  0  0  0
  2  3  1  0  0  0  0
  3  4  1  0  0  0  0
  4  5  1  0  0  0  0
  5  6  1  0  0  0  0
  1  6  1  0  0  0  0
  2  7  1  0  0  0  0
  1  8  1  0  0  0  0
  1  9  1  0  0  0  0
M  END
>  <cdx:groupId>
29

>  <cdx:fragmentId>
5

$$$$
