3537.cdx
  Mrv1902 05222410192D          

 15 15  0  0  0  0            999 V2000
    5.8052   -7.3700    0.0000 O   0  0  0  0  0  0  0  0  0  0  0  0
    6.5197   -7.7825    0.0000 C   0  0  0  0  0  0  0  0  0  0  0  0
    7.2342   -7.3700    0.0000 C   0  0  0  0  0  0  0  0  0  0  0  0
    7.9487   -7.7825    0.0000 C   0  0  0  0  0  0  0  0  0  0  0  0
    6.5197   -8.6075    0.0000 O   0  0  0  0  0  0  0  0  0  0  0  0
    7.2342   -6.5450    0.0000 C   0  0  0  0  0  0  0  0  0  0  0  0
    7.9487   -6.1325    0.0000 C   0  0  0  0  0  0  0  0  0  0  0  0
    7.9487   -5.3075    0.0000 C   0  0  0  0  0  0  0  0  0  0  0  0
    7.2342   -4.8950    0.0000 C   0  0  0  0  0  0  0  0  0  0  0  0
    6.5197   -5.3075    0.0000 C   0  0  0  0  0  0  0  0  0  0  0  0
    6.5197   -6.1325    0.0000 C   0  0  0  0  0  0  0  0  0  0  0  0
    7.2342   -4.0700    0.0000 C   0  0  0  0  0  0  0  0  0  0  0  0
    7.9487   -3.6575    0.0000 C   0  0  0  0  0  0  0  0  0  0  0  0
    7.9487   -2.8325    0.0000 C   0  0  0  0  0  0  0  0  0  0  0  0
    6.5197   -3.6575    0.0000 C   0  0  0  0  0  0  0  0  0  0  0  0
  1  2  1  0  0  0  0
  2  3  1  0  0  0  0
  3  4  1  0  0  0  0
  2  5  2  0  0  0  0
  3  6  1  0  0  0  0
  6  7  2  0  0  0  0
  7  8  1  0  0  0  0
  8  9  2  0  0  0  0
  9 10  1  0  0  0  0
 10 11  2  0  0  0  0
 11  6  1  0  0  0  0
  9 12  1  0  0  0  0
 12 13  1  0  0  0  0
 13 14  2  0  0  0  0
 12 15  1  0  0  0  0
M  END
>  <cdx:fragmentId>
3

$$$$
