353957.cdx
  Mrv1902 05222410222D          

 29 31  0  0  0  0            999 V2000
    6.3840   -5.8905    0.0000 C   0  0  0  0  0  0  0  0  0  0  0  0
    5.5871   -6.1040    0.0000 C   0  0  0  0  0  0  0  0  0  0  0  0
    6.5975   -5.0936    0.0000 O   0  0  0  0  0  0  0  0  0  0  0  0
    6.9674   -6.4738    0.0000 O   0  0  0  0  0  0  0  0  0  0  0  0
    8.8319   -5.4343    0.0000 O   0  0  0  0  0  0  0  0  0  0  0  0
    8.0069   -5.4343    0.0000 C   0  0  0  0  0  0  0  0  0  0  0  0
    7.7520   -6.2189    0.0000 C   0  0  2  0  0  0  0  0  0  0  0  0
    8.4194   -6.7038    0.0000 C   0  0  0  0  0  0  0  0  0  0  0  0
    9.0869   -6.2189    0.0000 C   0  0  0  0  0  0  0  0  0  0  0  0
    9.8715   -6.4738    0.0000 O   0  0  0  0  0  0  0  0  0  0  0  0
    8.4194   -7.5288    0.0000 C   0  0  0  0  0  0  0  0  0  0  0  0
    7.7050   -7.9413    0.0000 C   0  0  0  0  0  0  0  0  0  0  0  0
    7.7050   -8.7663    0.0000 C   0  0  2  0  0  0  0  0  0  0  0  0
    8.4194   -9.1788    0.0000 C   0  0  0  0  0  0  0  0  0  0  0  0
    8.4194  -10.0038    0.0000 C   0  0  0  0  0  0  0  0  0  0  0  0
    7.7050  -10.4163    0.0000 C   0  0  0  0  0  0  0  0  0  0  0  0
    6.9905  -10.0038    0.0000 C   0  0  2  0  0  0  0  0  0  0  0  0
    6.2760  -10.4163    0.0000 C   0  0  2  0  0  0  0  0  0  0  0  0
    5.5616  -10.0038    0.0000 C   0  0  0  0  0  0  0  0  0  0  0  0
    5.5616   -9.1788    0.0000 C   0  0  0  0  0  0  0  0  0  0  0  0
    6.2760   -8.7663    0.0000 C   0  0  0  0  0  0  0  0  0  0  0  0
    6.9905   -9.1788    0.0000 C   0  0  1  0  0  0  0  0  0  0  0  0
    9.1339   -8.7663    0.0000 C   0  0  0  0  0  0  0  0  0  0  0  0
    6.9905   -8.3538    0.0000 C   0  0  0  0  0  0  0  0  0  0  0  0
    5.8635  -11.1308    0.0000 C   0  0  0  0  0  0  0  0  0  0  0  0
    6.6885  -11.1308    0.0000 C   0  0  0  0  0  0  0  0  0  0  0  0
    6.2760  -11.8453    0.0000 O   0  0  0  0  0  0  0  0  0  0  0  0
    4.8471  -10.4163    0.0000 O   0  0  0  0  0  0  0  0  0  0  0  0
    6.9905  -10.8288    0.0000 H   0  0  0  0  0  0  0  0  0  0  0  0
  1  2  1  0  0  0  0
  1  3  2  0  0  0  0
  1  4  1  0  0  0  0
  5  6  1  0  0  0  0
  6  7  1  0  0  0  0
  7  8  1  0  0  0  0
  8  9  1  0  0  0  0
  5  9  1  0  0  0  0
  9 10  2  0  0  0  0
 11 12  1  0  0  0  0
 13 14  1  0  0  0  0
 14 15  1  0  0  0  0
 15 16  1  0  0  0  0
 16 17  1  0  0  0  0
 17 18  1  0  0  0  0
 18 19  1  0  0  0  0
 19 20  1  0  0  0  0
 20 21  1  0  0  0  0
 21 22  1  0  0  0  0
 13 22  1  0  0  0  0
 17 22  1  0  0  0  0
 14 23  2  0  0  0  0
 22 24  1  6  0  0  0
 18 25  1  1  0  0  0
 26 27  1  0  0  0  0
 18 26  1  6  0  0  0
 19 28  1  0  0  0  0
 13 12  1  6  0  0  0
  8 11  2  0  0  0  0
  7  4  1  6  0  0  0
 17 29  1  1  0  0  0
M  END
>  <cdx:fragmentId>
29

$$$$
