353911.cdx
  Mrv1902 05222410262D          

 22 24  0  0  0  0            999 V2000
    5.4095  -10.6402    0.0000 O   0  0  0  0  0  0  0  0  0  0  0  0
    3.9805   -8.1652    0.0000 O   0  0  0  0  0  0  0  0  0  0  0  0
   10.4108  -11.0527    0.0000 O   0  0  0  0  0  0  0  0  0  0  0  0
    8.9818   -9.4027    0.0000 C   0  0  0  0  0  0  0  0  0  0  0  0
    9.6963   -9.8152    0.0000 C   0  0  0  0  0  0  0  0  0  0  0  0
    9.6963  -10.6402    0.0000 C   0  0  0  0  0  0  0  0  0  0  0  0
    8.9818  -11.0527    0.0000 C   0  0  0  0  0  0  0  0  0  0  0  0
    8.2674  -10.6402    0.0000 C   0  0  0  0  0  0  0  0  0  0  0  0
    8.2674   -9.8152    0.0000 C   0  0  0  0  0  0  0  0  0  0  0  0
    4.6950   -6.9277    0.0000 C   0  0  0  0  0  0  0  0  0  0  0  0
    5.4095   -7.3402    0.0000 O   0  0  0  0  0  0  0  0  0  0  0  0
    6.8384  -10.6402    0.0000 O   0  0  0  0  0  0  0  0  0  0  0  0
    6.8384   -8.1652    0.0000 O   0  0  0  0  0  0  0  0  0  0  0  0
    6.1239   -8.5777    0.0000 C   0  0  0  0  0  0  0  0  0  0  0  0
    5.4095   -8.1652    0.0000 C   0  0  0  0  0  0  0  0  0  0  0  0
    4.6950   -8.5777    0.0000 C   0  0  0  0  0  0  0  0  0  0  0  0
    4.6950   -9.4027    0.0000 C   0  0  0  0  0  0  0  0  0  0  0  0
    5.4095   -9.8152    0.0000 C   0  0  0  0  0  0  0  0  0  0  0  0
    6.1239   -9.4027    0.0000 C   0  0  0  0  0  0  0  0  0  0  0  0
    6.8384   -9.8152    0.0000 C   0  0  0  0  0  0  0  0  0  0  0  0
    7.5529   -9.4027    0.0000 C   0  0  0  0  0  0  0  0  0  0  0  0
    7.5529   -8.5777    0.0000 C   0  0  0  0  0  0  0  0  0  0  0  0
 18  1  1  0  0  0  0
 16  2  1  0  0  0  0
 21  9  1  0  0  0  0
  6  3  1  0  0  0  0
  9  4  2  0  0  0  0
  5  4  1  0  0  0  0
  6  5  2  0  0  0  0
  7  6  1  0  0  0  0
  8  7  2  0  0  0  0
  9  8  1  0  0  0  0
 15 11  1  0  0  0  0
 11 10  1  0  0  0  0
 20 12  2  0  0  0  0
 22 13  1  0  0  0  0
 14 13  1  0  0  0  0
 19 14  2  0  0  0  0
 15 14  1  0  0  0  0
 16 15  2  0  0  0  0
 17 16  1  0  0  0  0
 18 17  2  0  0  0  0
 19 18  1  0  0  0  0
 20 19  1  0  0  0  0
 21 20  1  0  0  0  0
 22 21  2  0  0  0  0
M  END
>  <cdx:fragmentId>
5

$$$$
