3541.cdx
  Mrv1902 05222410212D          

 57 61  0  0  0  0            999 V2000
    5.6388   -6.6429    0.0000 C   0  0  0  0  0  0  0  0  0  0  0  0
    4.9244   -7.0554    0.0000 C   0  0  0  0  0  0  0  0  0  0  0  0
    4.2099   -6.6429    0.0000 C   0  0  0  0  0  0  0  0  0  0  0  0
    5.6388   -5.8179    0.0000 O   0  0  0  0  0  0  0  0  0  0  0  0
    6.3533   -7.0554    0.0000 O   0  0  0  0  0  0  0  0  0  0  0  0
    3.4954   -7.0554    0.0000 C   0  0  0  0  0  0  0  0  0  0  0  0
    2.7809   -6.6429    0.0000 C   0  0  0  0  0  0  0  0  0  0  0  0
    2.0665   -7.0554    0.0000 C   0  0  0  0  0  0  0  0  0  0  0  0
    2.0665   -7.8804    0.0000 C   0  0  0  0  0  0  0  0  0  0  0  0
    2.7809   -8.2929    0.0000 C   0  0  0  0  0  0  0  0  0  0  0  0
    3.4954   -7.8804    0.0000 C   0  0  0  0  0  0  0  0  0  0  0  0
    1.3520   -8.2929    0.0000 O   0  0  0  0  0  0  0  0  0  0  0  0
    1.3520   -6.6429    0.0000 O   0  0  0  0  0  0  0  0  0  0  0  0
    7.7822   -5.4054    0.0000 O   0  0  0  0  0  0  0  0  0  0  0  0
    7.0678   -5.8179    0.0000 C   0  0  1  0  0  0  0  0  0  0  0  0
    7.0678   -6.6429    0.0000 C   0  0  2  0  0  0  0  0  0  0  0  0
    7.7822   -7.0554    0.0000 C   0  0  1  0  0  0  0  0  0  0  0  0
    8.4967   -6.6429    0.0000 C   0  0  2  0  0  0  0  0  0  0  0  0
    8.4967   -5.8179    0.0000 C   0  0  2  0  0  0  0  0  0  0  0  0
    6.3533   -5.4054    0.0000 C   0  0  0  0  0  0  0  0  0  0  0  0
    6.3533   -4.5804    0.0000 O   0  0  0  0  0  0  0  0  0  0  0  0
    4.9244   -4.5804    0.0000 O   0  0  0  0  0  0  0  0  0  0  0  0
    5.6388   -4.1679    0.0000 C   0  0  2  0  0  0  0  0  0  0  0  0
    5.6388   -3.3429    0.0000 C   0  0  1  0  0  0  0  0  0  0  0  0
    4.9244   -2.9304    0.0000 C   0  0  1  0  0  0  0  0  0  0  0  0
    4.2099   -3.3429    0.0000 C   0  0  2  0  0  0  0  0  0  0  0  0
    4.2099   -4.1679    0.0000 C   0  0  2  0  0  0  0  0  0  0  0  0
    3.4954   -4.5804    0.0000 C   0  0  0  0  0  0  0  0  0  0  0  0
    3.4954   -2.9304    0.0000 O   0  0  0  0  0  0  0  0  0  0  0  0
    4.9244   -2.1054    0.0000 O   0  0  0  0  0  0  0  0  0  0  0  0
    6.3533   -2.9304    0.0000 O   0  0  0  0  0  0  0  0  0  0  0  0
    7.7822   -7.8804    0.0000 O   0  0  0  0  0  0  0  0  0  0  0  0
    6.3533   -7.8804    0.0000 O   0  0  0  0  0  0  0  0  0  0  0  0
    7.0678   -8.2929    0.0000 C   0  0  2  0  0  0  0  0  0  0  0  0
    7.0678   -9.1179    0.0000 C   0  0  1  0  0  0  0  0  0  0  0  0
    6.3533   -9.5304    0.0000 C   0  0  1  0  0  0  0  0  0  0  0  0
    5.6388   -9.1179    0.0000 C   0  0  2  0  0  0  0  0  0  0  0  0
    5.6388   -8.2929    0.0000 C   0  0  2  0  0  0  0  0  0  0  0  0
    4.9244   -7.8804    0.0000 C   0  0  0  0  0  0  0  0  0  0  0  0
    4.9244   -9.5304    0.0000 O   0  0  0  0  0  0  0  0  0  0  0  0
    6.3533  -10.3554    0.0000 O   0  0  0  0  0  0  0  0  0  0  0  0
    7.7822   -9.5304    0.0000 O   0  0  0  0  0  0  0  0  0  0  0  0
    9.2112   -7.0554    0.0000 O   0  0  0  0  0  0  0  0  0  0  0  0
    9.2112   -5.4054    0.0000 O   0  0  0  0  0  0  0  0  0  0  0  0
    9.9256   -5.8179    0.0000 C   0  0  0  0  0  0  0  0  0  0  0  0
   10.6401   -5.4054    0.0000 C   0  0  0  0  0  0  0  0  0  0  0  0
   11.3546   -5.8179    0.0000 C   0  0  0  0  0  0  0  0  0  0  0  0
   12.0691   -5.4054    0.0000 C   0  0  0  0  0  0  0  0  0  0  0  0
   12.7835   -5.8179    0.0000 C   0  0  0  0  0  0  0  0  0  0  0  0
   12.7835   -6.6429    0.0000 C   0  0  0  0  0  0  0  0  0  0  0  0
   12.0691   -7.0554    0.0000 C   0  0  0  0  0  0  0  0  0  0  0  0
   11.3546   -6.6429    0.0000 C   0  0  0  0  0  0  0  0  0  0  0  0
   13.4980   -7.0554    0.0000 O   0  0  0  0  0  0  0  0  0  0  0  0
   13.4980   -5.4054    0.0000 O   0  0  0  0  0  0  0  0  0  0  0  0
   10.0362   -7.0554    0.0000 C   0  0  0  0  0  0  0  0  0  0  0  0
   10.4487   -7.7698    0.0000 O   0  0  0  0  0  0  0  0  0  0  0  0
   10.4487   -6.3409    0.0000 C   0  0  0  0  0  0  0  0  0  0  0  0
  1  2  1  0  0  0  0
  2  3  2  0  0  0  0
  1  4  2  0  0  0  0
  1  5  1  0  0  0  0
  6  7  1  0  0  0  0
  7  8  2  0  0  0  0
  8  9  1  0  0  0  0
  9 10  2  0  0  0  0
 10 11  1  0  0  0  0
  6 11  2  0  0  0  0
  9 12  1  0  0  0  0
  8 13  1  0  0  0  0
  3  6  1  0  0  0  0
 14 15  1  0  0  0  0
 15 16  1  0  0  0  0
 16 17  1  0  0  0  0
 17 18  1  0  0  0  0
 18 19  1  0  0  0  0
 14 19  1  0  0  0  0
 22 23  1  0  0  0  0
 23 24  1  0  0  0  0
 24 25  1  0  0  0  0
 25 26  1  0  0  0  0
 26 27  1  0  0  0  0
 22 27  1  0  0  0  0
 27 28  1  1  0  0  0
 26 29  1  6  0  0  0
 25 30  1  1  0  0  0
 24 31  1  1  0  0  0
 23 21  1  6  0  0  0
 20 21  1  0  0  0  0
 15 20  1  1  0  0  0
 33 34  1  0  0  0  0
 34 35  1  0  0  0  0
 35 36  1  0  0  0  0
 36 37  1  0  0  0  0
 37 38  1  0  0  0  0
 33 38  1  0  0  0  0
 38 39  1  6  0  0  0
 37 40  1  1  0  0  0
 36 41  1  6  0  0  0
 35 42  1  6  0  0  0
 34 32  1  1  0  0  0
 17 32  1  1  0  0  0
 18 43  1  6  0  0  0
 45 46  1  0  0  0  0
 44 45  1  0  0  0  0
 47 48  1  0  0  0  0
 48 49  2  0  0  0  0
 49 50  1  0  0  0  0
 50 51  2  0  0  0  0
 51 52  1  0  0  0  0
 47 52  2  0  0  0  0
 50 53  1  0  0  0  0
 49 54  1  0  0  0  0
 46 47  1  0  0  0  0
 19 44  1  1  0  0  0
 16  5  1  6  0  0  0
 43 55  1  0  0  0  0
 55 56  2  0  0  0  0
 55 57  1  0  0  0  0
M  END
>  <cdx:groupId>
206

>  <cdx:fragmentId>
207

$$$$
