35411.cdx
  Mrv1902 05222410222D          

  9  9  0  0  0  0            999 V2000
    4.5040   -3.1969    0.0000 C   0  0  0  0  0  0  0  0  0  0  0  0
    4.0915   -3.9113    0.0000 C   0  0  0  0  0  0  0  0  0  0  0  0
    3.2665   -3.9113    0.0000 C   0  0  0  0  0  0  0  0  0  0  0  0
    2.8540   -3.1969    0.0000 C   0  0  0  0  0  0  0  0  0  0  0  0
    3.2665   -2.4824    0.0000 C   0  0  0  0  0  0  0  0  0  0  0  0
    4.0915   -2.4824    0.0000 C   0  0  0  0  0  0  0  0  0  0  0  0
    5.2185   -2.7844    0.0000 C   0  0  0  0  0  0  0  0  0  0  0  0
    5.2185   -3.6094    0.0000 C   0  0  0  0  0  0  0  0  0  0  0  0
    5.9330   -3.1969    0.0000 C   0  0  0  0  0  0  0  0  0  0  0  0
  1  2  1  0  0  0  0
  2  3  1  0  0  0  0
  3  4  1  0  0  0  0
  4  5  1  0  0  0  0
  5  6  1  0  0  0  0
  1  6  1  0  0  0  0
  1  7  1  0  0  0  0
  8  9  1  0  0  0  0
  1  8  1  0  0  0  0
M  END
>  <cdx:groupId>
29

>  <cdx:fragmentId>
5

$$$$
