354159.cdx
  Mrv1902 05222410242D          

 24 25  0  0  0  0            999 V2000
   13.6826  -13.9734    0.0000 C   0  0  0  0  0  0  0  0  0  0  0  0
   12.9681  -14.3859    0.0000 C   0  0  0  0  0  0  0  0  0  0  0  0
   12.2536  -13.9734    0.0000 C   0  0  0  0  0  0  0  0  0  0  0  0
   11.5392  -14.3859    0.0000 C   0  0  0  0  0  0  0  0  0  0  0  0
   13.6826  -13.1484    0.0000 O   0  0  0  0  0  0  0  0  0  0  0  0
   14.3970  -14.3859    0.0000 O   0  0  0  0  0  0  0  0  0  0  0  0
   12.9681  -15.2109    0.0000 C   0  0  0  0  0  0  0  0  0  0  0  0
   15.1115  -13.9734    0.0000 C   0  0  0  0  0  0  0  0  0  0  0  0
   15.8260  -15.2109    0.0000 O   0  0  0  0  0  0  0  0  0  0  0  0
   15.8260  -14.3859    0.0000 C   0  0  0  0  0  0  0  0  0  0  0  0
   16.5405  -14.7984    0.0000 C   0  0  0  0  0  0  0  0  0  0  0  0
   15.8260  -13.5609    0.0000 C   0  0  0  0  0  0  0  0  0  0  0  0
   16.5405  -13.1484    0.0000 C   0  0  0  0  0  0  0  0  0  0  0  0
   16.5405  -12.3234    0.0000 C   0  0  0  0  0  0  0  0  0  0  0  0
   15.8260  -11.9109    0.0000 C   0  0  0  0  0  0  0  0  0  0  0  0
   15.1115  -12.3234    0.0000 C   0  0  0  0  0  0  0  0  0  0  0  0
   15.1115  -13.1484    0.0000 C   0  0  0  0  0  0  0  0  0  0  0  0
   17.2549  -13.5609    0.0000 O   0  0  0  0  0  0  0  0  0  0  0  0
   17.9694  -13.1484    0.0000 C   0  0  0  0  0  0  0  0  0  0  0  0
   18.6839  -13.5609    0.0000 C   0  0  0  0  0  0  0  0  0  0  0  0
   18.6839  -14.3859    0.0000 C   0  0  0  0  0  0  0  0  0  0  0  0
   17.9694  -12.3234    0.0000 O   0  0  0  0  0  0  0  0  0  0  0  0
   19.3983  -13.1484    0.0000 C   0  0  0  0  0  0  0  0  0  0  0  0
   15.8260  -11.0859    0.0000 C   0  0  0  0  0  0  0  0  0  0  0  0
  1  2  1  0  0  0  0
  2  3  1  0  0  0  0
  3  4  1  0  0  0  0
  1  5  2  0  0  0  0
  1  6  1  0  0  0  0
  2  7  1  0  0  0  0
  9 10  1  0  0  0  0
 10 11  1  0  0  0  0
  9 11  1  0  0  0  0
 12 13  1  0  0  0  0
 13 14  2  0  0  0  0
 14 15  1  0  0  0  0
 15 16  2  0  0  0  0
 16 17  1  0  0  0  0
 12 17  2  0  0  0  0
 19 20  1  0  0  0  0
 20 21  1  0  0  0  0
 19 22  2  0  0  0  0
 18 19  1  0  0  0  0
 20 23  1  0  0  0  0
 13 18  1  0  0  0  0
 15 24  1  0  0  0  0
 10 12  1  0  0  0  0
  8 10  1  0  0  0  0
  6  8  1  0  0  0  0
M  END
>  <cdx:groupId>
2175

>  <cdx:fragmentId>
2127

$$$$
