354264.cdx
  Mrv1902 05222410272D          

  9  8  0  0  0  0            999 V2000
    6.0203   -5.8115    0.0000 C   0  0  0  0  0  0  0  0  0  0  0  0
    6.7352   -6.2232    0.0000 C   0  0  0  0  0  0  0  0  0  0  0  0
    7.4493   -5.8100    0.0000 C   0  0  0  0  0  0  0  0  0  0  0  0
    8.1642   -6.2217    0.0000 C   0  0  0  0  0  0  0  0  0  0  0  0
    8.8782   -5.8084    0.0000 C   0  0  0  0  0  0  0  0  0  0  0  0
    9.5931   -6.2201    0.0000 C   0  0  0  0  0  0  0  0  0  0  0  0
    5.3063   -6.2248    0.0000 O   0  0  0  0  0  0  0  0  0  0  0  0
    6.7361   -7.0482    0.0000 C   0  0  0  0  0  0  0  0  0  0  0  0
    6.0221   -7.4615    0.0000 C   0  0  0  0  0  0  0  0  0  0  0  0
  1  2  1  0  0  0  0
  2  3  2  0  0  0  0
  3  4  1  0  0  0  0
  4  5  1  0  0  0  0
  5  6  1  0  0  0  0
  1  7  2  0  0  0  0
  8  9  1  0  0  0  0
  2  8  1  0  0  0  0
M  END
>  <cdx:fragmentId>
5

$$$$
