14035432.cdx
  Mrv1902 05222410252D          

 35 37  0  0  0  0            999 V2000
    4.0531  -15.4599    0.0000 O   0  0  0  0  0  0  0  0  0  0  0  0
    3.3387  -15.8724    0.0000 C   0  0  1  0  0  0  0  0  0  0  0  0
    3.3387  -16.6974    0.0000 C   0  0  2  0  0  0  0  0  0  0  0  0
    4.0531  -17.1099    0.0000 C   0  0  1  0  0  0  0  0  0  0  0  0
    4.7676  -16.6974    0.0000 C   0  0  2  0  0  0  0  0  0  0  0  0
    4.7676  -15.8724    0.0000 C   0  0  2  0  0  0  0  0  0  0  0  0
    2.6242  -17.1099    0.0000 O   0  0  0  0  0  0  0  0  0  0  0  0
    4.0531  -17.9349    0.0000 O   0  0  0  0  0  0  0  0  0  0  0  0
    5.4821  -17.1099    0.0000 O   0  0  0  0  0  0  0  0  0  0  0  0
    5.4821  -15.4599    0.0000 O   0  0  0  0  0  0  0  0  0  0  0  0
    6.1965  -15.8724    0.0000 C   0  0  0  0  0  0  0  0  0  0  0  0
    6.9110  -14.6349    0.0000 O   0  0  0  0  0  0  0  0  0  0  0  0
    6.9110  -15.4599    0.0000 C   0  0  1  0  0  0  0  0  0  0  0  0
    7.6255  -15.8724    0.0000 C   0  0  2  0  0  0  0  0  0  0  0  0
    8.3400  -15.4599    0.0000 C   0  0  1  0  0  0  0  0  0  0  0  0
    8.3400  -14.6349    0.0000 C   0  0  2  0  0  0  0  0  0  0  0  0
    7.6255  -14.2224    0.0000 C   0  0  2  0  0  0  0  0  0  0  0  0
    7.6255  -13.3974    0.0000 O   0  0  0  0  0  0  0  0  0  0  0  0
    8.3400  -12.9849    0.0000 C   0  0  0  0  0  0  0  0  0  0  0  0
    8.3400  -12.1599    0.0000 C   0  0  0  0  0  0  0  0  0  0  0  0
    9.0544  -11.7474    0.0000 C   0  0  0  0  0  0  0  0  0  0  0  0
    9.7689  -12.1599    0.0000 C   0  0  0  0  0  0  0  0  0  0  0  0
    9.7689  -12.9849    0.0000 C   0  0  0  0  0  0  0  0  0  0  0  0
    9.0544  -13.3974    0.0000 C   0  0  0  0  0  0  0  0  0  0  0  0
    7.6255  -11.7474    0.0000 O   0  0  0  0  0  0  0  0  0  0  0  0
    6.9110  -12.1599    0.0000 C   0  0  0  0  0  0  0  0  0  0  0  0
   10.4834  -11.7474    0.0000 C   0  0  0  0  0  0  0  0  0  0  0  0
   11.1978  -12.1599    0.0000 C   0  0  0  0  0  0  0  0  0  0  0  0
   11.9123  -11.7474    0.0000 C   0  0  0  0  0  0  0  0  0  0  0  0
   12.6268  -12.1599    0.0000 O   0  0  0  0  0  0  0  0  0  0  0  0
    9.0544  -14.2224    0.0000 O   0  0  0  0  0  0  0  0  0  0  0  0
    9.0544  -15.8724    0.0000 O   0  0  0  0  0  0  0  0  0  0  0  0
    7.6255  -16.6974    0.0000 O   0  0  0  0  0  0  0  0  0  0  0  0
    2.6242  -15.4599    0.0000 C   0  0  0  0  0  0  0  0  0  0  0  0
    1.9097  -15.8724    0.0000 O   0  0  0  0  0  0  0  0  0  0  0  0
  1  2  1  0  0  0  0
  2  3  1  0  0  0  0
  3  4  1  0  0  0  0
  4  5  1  0  0  0  0
  5  6  1  0  0  0  0
  1  6  1  0  0  0  0
  3  7  1  6  0  0  0
  4  8  1  1  0  0  0
  5  9  1  6  0  0  0
 10 11  1  0  0  0  0
 12 13  1  0  0  0  0
 13 14  1  0  0  0  0
 14 15  1  0  0  0  0
 15 16  1  0  0  0  0
 16 17  1  0  0  0  0
 12 17  1  0  0  0  0
 19 20  1  0  0  0  0
 20 21  2  0  0  0  0
 21 22  1  0  0  0  0
 22 23  2  0  0  0  0
 23 24  1  0  0  0  0
 19 24  2  0  0  0  0
 18 19  1  0  0  0  0
 25 26  1  0  0  0  0
 20 25  1  0  0  0  0
 27 28  2  0  0  0  0
 28 29  1  0  0  0  0
 29 30  1  0  0  0  0
 22 27  1  0  0  0  0
 17 18  1  1  0  0  0
 16 31  1  6  0  0  0
 15 32  1  1  0  0  0
 14 33  1  6  0  0  0
 13 11  1  1  0  0  0
  6 10  1  1  0  0  0
 34 35  1  0  0  0  0
  2 34  1  1  0  0  0
M  END
>  <cdx:groupId>
100506

>  <cdx:fragmentId>
100438

$$$$
