57354351.cdx
  Mrv1902 05222410212D          

 17 16  0  0  0  0            999 V2000
    7.2682  -15.0969    0.0000 C   0  0  0  0  0  0  0  0  0  0  0  0
    6.5538  -15.5094    0.0000 C   0  0  0  0  0  0  0  0  0  0  0  0
    5.8393  -15.0969    0.0000 C   0  0  0  0  0  0  0  0  0  0  0  0
    5.1248  -15.5094    0.0000 C   0  0  0  0  0  0  0  0  0  0  0  0
    4.4104  -15.0969    0.0000 C   0  0  0  0  0  0  0  0  0  0  0  0
    3.6959  -15.5094    0.0000 C   0  0  0  0  0  0  0  0  0  0  0  0
    2.9814  -15.0969    0.0000 C   0  0  0  0  0  0  0  0  0  0  0  0
    2.9814  -14.2719    0.0000 C   0  0  0  0  0  0  0  0  0  0  0  0
    7.2682  -14.2719    0.0000 O   0  0  0  0  0  0  0  0  0  0  0  0
    7.9827  -15.5094    0.0000 O   0  0  0  0  0  0  0  0  0  0  0  0
    2.2670  -15.5094    0.0000 C   0  0  0  0  0  0  0  0  0  0  0  0
    8.6972  -15.0969    0.0000 C   0  0  0  0  0  0  0  0  0  0  0  0
    9.4117  -15.5094    0.0000 C   0  0  0  0  0  0  0  0  0  0  0  0
   10.1261  -15.0969    0.0000 C   0  0  0  0  0  0  0  0  0  0  0  0
   10.8406  -15.5094    0.0000 C   0  0  0  0  0  0  0  0  0  0  0  0
   11.5551  -15.0969    0.0000 C   0  0  0  0  0  0  0  0  0  0  0  0
   12.2695  -15.5094    0.0000 C   0  0  0  0  0  0  0  0  0  0  0  0
  1  2  1  0  0  0  0
  2  3  1  0  0  0  0
  3  4  1  0  0  0  0
  4  5  1  0  0  0  0
  5  6  1  0  0  0  0
  6  7  1  0  0  0  0
  7  8  1  0  0  0  0
  1  9  2  0  0  0  0
  1 10  1  0  0  0  0
  7 11  1  0  0  0  0
 12 13  1  0  0  0  0
 13 14  1  0  0  0  0
 14 15  1  0  0  0  0
 15 16  1  0  0  0  0
 16 17  1  0  0  0  0
 10 12  1  0  0  0  0
M  END
>  <cdx:groupId>
192682

>  <cdx:fragmentId>
192635

$$$$
