354448.cdx
  Mrv1902 05222410262D          

 13 13  0  0  0  0            999 V2000
    6.9208   -6.1888    0.0000 C   0  0  0  0  0  0  0  0  0  0  0  0
    7.6353   -6.6013    0.0000 C   0  0  0  0  0  0  0  0  0  0  0  0
    8.3498   -6.1888    0.0000 C   0  0  0  0  0  0  0  0  0  0  0  0
    9.0642   -6.6013    0.0000 C   0  0  0  0  0  0  0  0  0  0  0  0
    9.7787   -6.1888    0.0000 C   0  0  0  0  0  0  0  0  0  0  0  0
    8.3498   -5.3638    0.0000 O   0  0  0  0  0  0  0  0  0  0  0  0
    6.2063   -6.6013    0.0000 C   0  0  0  0  0  0  0  0  0  0  0  0
    6.2063   -7.4263    0.0000 C   0  0  0  0  0  0  0  0  0  0  0  0
    5.4919   -7.8388    0.0000 C   0  0  0  0  0  0  0  0  0  0  0  0
    4.7774   -7.4263    0.0000 C   0  0  0  0  0  0  0  0  0  0  0  0
    4.7774   -6.6013    0.0000 C   0  0  0  0  0  0  0  0  0  0  0  0
    5.4919   -6.1888    0.0000 C   0  0  0  0  0  0  0  0  0  0  0  0
    9.0642   -7.4263    0.0000 C   0  0  0  0  0  0  0  0  0  0  0  0
  1  2  2  0  0  0  0
  2  3  1  0  0  0  0
  3  4  1  0  0  0  0
  4  5  1  0  0  0  0
  3  6  2  0  0  0  0
  7  8  1  0  0  0  0
  8  9  2  0  0  0  0
  9 10  1  0  0  0  0
 10 11  2  0  0  0  0
 11 12  1  0  0  0  0
  7 12  2  0  0  0  0
  1  7  1  0  0  0  0
  4 13  1  0  0  0  0
M  END
>  <cdx:fragmentId>
23944

$$$$
