35456.cdx
  Mrv1902 05222410262D          

 13 12  0  0  0  0            999 V2000
    8.1706   -5.1216    0.0000 C   0  0  0  0  0  0  0  0  0  0  0  0
    7.4561   -4.7091    0.0000 C   0  0  0  0  0  0  0  0  0  0  0  0
    6.7416   -5.1216    0.0000 C   0  0  2  0  0  0  0  0  0  0  0  0
    6.0272   -4.7091    0.0000 C   0  0  1  0  0  0  0  0  0  0  0  0
    5.3127   -5.1216    0.0000 C   0  0  1  0  0  0  0  0  0  0  0  0
    4.5982   -4.7091    0.0000 C   0  0  0  0  0  0  0  0  0  0  0  0
    8.1706   -5.9466    0.0000 O   0  0  0  0  0  0  0  0  0  0  0  0
    8.8851   -4.7091    0.0000 O   0  0  0  0  0  0  0  0  0  0  0  0
    7.4561   -3.8841    0.0000 O   0  0  0  0  0  0  0  0  0  0  0  0
    3.8838   -5.1216    0.0000 O   0  0  0  0  0  0  0  0  0  0  0  0
    5.3127   -5.9466    0.0000 O   0  0  0  0  0  0  0  0  0  0  0  0
    6.0272   -3.8841    0.0000 O   0  0  0  0  0  0  0  0  0  0  0  0
    6.7416   -5.9466    0.0000 O   0  0  0  0  0  0  0  0  0  0  0  0
  1  2  1  0  0  0  0
  2  3  1  0  0  0  0
  3  4  1  0  0  0  0
  4  5  1  0  0  0  0
  5  6  1  0  0  0  0
  1  7  2  0  0  0  0
  1  8  1  0  0  0  0
  2  9  2  0  0  0  0
  6 10  1  0  0  0  0
  5 11  1  6  0  0  0
  4 12  1  1  0  0  0
  3 13  1  1  0  0  0
M  END
>  <cdx:groupId>
18407

>  <cdx:fragmentId>
18372

$$$$
