355323.cdx
  Mrv1902 05222410242D          

 19 21  0  0  0  0            999 V2000
   10.0035   -7.6588    0.0000 O   0  0  0  0  0  0  0  0  0  0  0  0
    8.5784   -6.8273    0.0000 O   0  0  0  0  0  0  0  0  0  0  0  0
   10.1083   -8.8968    0.0000 C   0  0  0  0  0  0  0  0  0  0  0  0
    9.6926   -9.6094    0.0000 C   0  0  0  0  0  0  0  0  0  0  0  0
    4.2802   -9.2825    0.0000 O   0  0  0  0  0  0  0  0  0  0  0  0
    5.7091   -9.2891    0.0000 O   0  0  0  0  0  0  0  0  0  0  0  0
    4.9966   -8.8733    0.0000 C   0  0  0  0  0  0  0  0  0  0  0  0
    5.0004   -8.0483    0.0000 C   0  0  0  0  0  0  0  0  0  0  0  0
    5.7167   -7.6391    0.0000 C   0  0  0  0  0  0  0  0  0  0  0  0
    8.5670   -9.3022    0.0000 O   0  0  0  0  0  0  0  0  0  0  0  0
    7.8544   -8.8864    0.0000 C   0  0  0  0  0  0  0  0  0  0  0  0
    7.1381   -9.2957    0.0000 C   0  0  0  0  0  0  0  0  0  0  0  0
    6.4255   -8.8799    0.0000 C   0  0  0  0  0  0  0  0  0  0  0  0
    6.4293   -8.0549    0.0000 C   0  0  0  0  0  0  0  0  0  0  0  0
    7.1457   -7.6457    0.0000 C   0  0  0  0  0  0  0  0  0  0  0  0
    7.8582   -8.0615    0.0000 C   0  0  0  0  0  0  0  0  0  0  0  0
    8.5746   -7.6522    0.0000 C   0  0  2  0  0  0  0  0  0  0  0  0
    9.2871   -8.0680    0.0000 C   0  0  1  0  0  0  0  0  0  0  0  0
    9.2834   -8.8930    0.0000 C   0  0  0  0  0  0  0  0  0  0  0  0
 18  1  1  6  0  0  0
 17  2  1  1  0  0  0
 19  3  1  0  0  0  0
 19  4  1  0  0  0  0
  7  5  2  0  0  0  0
  6 13  1  0  0  0  0
  9 14  1  0  0  0  0
  7  6  1  0  0  0  0
  8  7  1  0  0  0  0
  9  8  2  0  0  0  0
 19 10  1  0  0  0  0
 11 10  1  0  0  0  0
 16 11  2  0  0  0  0
 12 11  1  0  0  0  0
 13 12  2  0  0  0  0
 14 13  1  0  0  0  0
 15 14  2  0  0  0  0
 16 15  1  0  0  0  0
 17 16  1  0  0  0  0
 18 17  1  0  0  0  0
 19 18  1  0  0  0  0
M  END
>  <cdx:fragmentId>
46766

$$$$
