3035544.cdx
  Mrv1902 05222410252D          

 34 38  0  0  0  0            999 V2000
   14.8554  -11.3189    0.0000 O   0  0  0  0  0  0  0  0  0  0  0  0
   14.8554  -10.4939    0.0000 C   0  0  1  0  0  0  0  0  0  0  0  0
   15.5699  -10.0814    0.0000 C   0  0  0  0  0  0  0  0  0  0  0  0
   16.2843  -10.4939    0.0000 C   0  0  0  0  0  0  0  0  0  0  0  0
   16.9988  -10.0814    0.0000 C   0  0  0  0  0  0  0  0  0  0  0  0
   17.7834  -10.3364    0.0000 O   0  0  0  0  0  0  0  0  0  0  0  0
   18.2683   -9.6689    0.0000 C   0  0  0  0  0  0  0  0  0  0  0  0
   17.7834   -9.0015    0.0000 O   0  0  0  0  0  0  0  0  0  0  0  0
   16.9988   -9.2564    0.0000 C   0  0  0  0  0  0  0  0  0  0  0  0
   16.2843   -8.8439    0.0000 C   0  0  0  0  0  0  0  0  0  0  0  0
   15.5699   -9.2564    0.0000 C   0  0  0  0  0  0  0  0  0  0  0  0
   14.8554   -8.8439    0.0000 C   0  0  2  0  0  0  0  0  0  0  0  0
   14.1409   -9.2564    0.0000 C   0  0  1  0  0  0  0  0  0  0  0  0
   14.0547   -8.4359    0.0000 H   0  0  0  0  0  0  0  0  0  0  0  0
   13.3563   -9.0015    0.0000 C   0  0  0  0  0  0  0  0  0  0  0  0
   13.1013   -8.2169    0.0000 O   0  0  0  0  0  0  0  0  0  0  0  0
   12.8714   -9.6689    0.0000 O   0  0  0  0  0  0  0  0  0  0  0  0
   13.3563  -10.3364    0.0000 C   0  0  0  0  0  0  0  0  0  0  0  0
   14.1409  -10.0814    0.0000 C   0  0  2  0  0  0  0  0  0  0  0  0
   14.0547  -10.9019    0.0000 H   0  0  0  0  0  0  0  0  0  0  0  0
   14.8554   -8.0189    0.0000 C   0  0  0  0  0  0  0  0  0  0  0  0
   14.1409   -7.6064    0.0000 C   0  0  0  0  0  0  0  0  0  0  0  0
   14.1409   -6.7814    0.0000 C   0  0  0  0  0  0  0  0  0  0  0  0
   13.4264   -6.3689    0.0000 O   0  0  0  0  0  0  0  0  0  0  0  0
   12.7120   -6.7814    0.0000 C   0  0  0  0  0  0  0  0  0  0  0  0
   14.8554   -6.3689    0.0000 C   0  0  0  0  0  0  0  0  0  0  0  0
   14.8554   -5.5439    0.0000 O   0  0  0  0  0  0  0  0  0  0  0  0
   14.1409   -5.1314    0.0000 C   0  0  0  0  0  0  0  0  0  0  0  0
   15.5699   -6.7814    0.0000 C   0  0  0  0  0  0  0  0  0  0  0  0
   16.2843   -6.3689    0.0000 O   0  0  0  0  0  0  0  0  0  0  0  0
   16.9988   -6.7814    0.0000 C   0  0  0  0  0  0  0  0  0  0  0  0
   15.5699   -7.6064    0.0000 C   0  0  0  0  0  0  0  0  0  0  0  0
   16.2843  -11.3189    0.0000 O   0  0  0  0  0  0  0  0  0  0  0  0
   16.9988  -11.7314    0.0000 C   0  0  0  0  0  0  0  0  0  0  0  0
  2  1  1  6  0  0  0
  2  3  1  0  0  0  0
  3  4  2  0  0  0  0
  4  5  1  0  0  0  0
  5  6  1  0  0  0  0
  6  7  1  0  0  0  0
  7  8  1  0  0  0  0
  8  9  1  0  0  0  0
  5  9  2  0  0  0  0
  9 10  1  0  0  0  0
 10 11  2  0  0  0  0
  3 11  1  0  0  0  0
 11 12  1  0  0  0  0
 12 13  1  0  0  0  0
 13 14  1  1  0  0  0
 13 15  1  0  0  0  0
 15 16  2  0  0  0  0
 15 17  1  0  0  0  0
 17 18  1  0  0  0  0
 18 19  1  0  0  0  0
 19 20  1  6  0  0  0
  2 19  1  0  0  0  0
 13 19  1  0  0  0  0
 12 21  1  6  0  0  0
 21 22  1  0  0  0  0
 22 23  2  0  0  0  0
 23 24  1  0  0  0  0
 24 25  1  0  0  0  0
 23 26  1  0  0  0  0
 26 27  1  0  0  0  0
 27 28  1  0  0  0  0
 26 29  2  0  0  0  0
 29 30  1  0  0  0  0
 30 31  1  0  0  0  0
 29 32  1  0  0  0  0
 21 32  2  0  0  0  0
 33 34  1  0  0  0  0
  4 33  1  0  0  0  0
M  END
>  <cdx:groupId>
18518

>  <cdx:fragmentId>
18413

$$$$
