3035561.cdx
  Mrv1902 05222410212D          

 58 64  0  0  0  0            999 V2000
   20.3943   -8.8082    0.0000 C   0  0  0  0  0  0  0  0  0  0  0  0
   21.1358   -8.4466    0.0000 C   0  0  2  0  0  0  0  0  0  0  0  0
   21.1933   -7.6236    0.0000 C   0  0  0  0  0  0  0  0  0  0  0  0
   20.5093   -7.1622    0.0000 C   0  0  0  0  0  0  0  0  0  0  0  0
   19.7678   -7.5239    0.0000 C   0  0  1  0  0  0  0  0  0  0  0  0
   19.0839   -7.0626    0.0000 C   0  0  0  0  0  0  0  0  0  0  0  0
   18.3424   -7.4243    0.0000 C   0  0  0  0  0  0  0  0  0  0  0  0
   18.2848   -8.2473    0.0000 C   0  0  1  0  0  0  0  0  0  0  0  0
   17.5433   -8.6089    0.0000 C   0  0  0  0  0  0  0  0  0  0  0  0
   16.8594   -8.1476    0.0000 C   0  0  0  0  0  0  0  0  0  0  0  0
   16.1179   -8.5093    0.0000 C   0  0  0  0  0  0  0  0  0  0  0  0
   16.0603   -9.3323    0.0000 C   0  0  0  0  0  0  0  0  0  0  0  0
   15.3188   -9.6939    0.0000 C   0  0  1  0  0  0  0  0  0  0  0  0
   15.2613  -10.5169    0.0000 C   0  0  1  0  0  0  0  0  0  0  0  0
   15.9453  -10.9782    0.0000 C   0  0  1  0  0  0  0  0  0  0  0  0
   16.6868  -10.6166    0.0000 C   0  0  0  0  0  0  0  0  0  0  0  0
   16.7443   -9.7936    0.0000 C   0  0  2  0  0  0  0  0  0  0  0  0
   17.4858   -9.4319    0.0000 C   0  0  0  0  0  0  0  0  0  0  0  0
   18.1698   -9.8932    0.0000 C   0  0  0  0  0  0  0  0  0  0  0  0
   18.9113   -9.5316    0.0000 C   0  0  0  0  0  0  0  0  0  0  0  0
   18.9688   -8.7086    0.0000 C   0  0  0  0  0  0  0  0  0  0  0  0
   19.7103   -8.3469    0.0000 C   0  0  2  0  0  0  0  0  0  0  0  0
   21.8197   -8.9079    0.0000 C   0  0  0  0  0  0  0  0  0  0  0  0
   21.7622   -9.7309    0.0000 O   0  0  0  0  0  0  0  0  0  0  0  0
   22.5612   -8.5462    0.0000 O   0  0  0  0  0  0  0  0  0  0  0  0
   19.8254   -6.7009    0.0000 C   0  0  0  0  0  0  0  0  0  0  0  0
   19.1414   -6.2396    0.0000 O   0  0  0  0  0  0  0  0  0  0  0  0
   20.5669   -6.3393    0.0000 O   0  0  0  0  0  0  0  0  0  0  0  0
   17.4283  -10.2549    0.0000 C   0  0  0  0  0  0  0  0  0  0  0  0
   14.4958   -9.6364    0.0000 C   0  0  0  0  0  0  0  0  0  0  0  0
   18.2273   -9.0702    0.0000 C   0  0  0  0  0  0  0  0  0  0  0  0
   17.6009   -7.7859    0.0000 C   0  0  0  0  0  0  0  0  0  0  0  0
   21.8773   -8.0849    0.0000 C   0  0  0  0  0  0  0  0  0  0  0  0
   14.9572   -8.9524    0.0000 C   0  0  0  0  0  0  0  0  0  0  0  0
   15.4185   -8.2685    0.0000 O   0  0  0  0  0  0  0  0  0  0  0  0
   15.8877  -11.8012    0.0000 O   0  0  0  0  0  0  0  0  0  0  0  0
   14.5198  -10.8786    0.0000 O   0  0  0  0  0  0  0  0  0  0  0  0
   15.1462  -12.1629    0.0000 O   0  0  0  0  0  0  0  0  0  0  0  0
   14.4623  -11.7016    0.0000 C   0  0  1  0  0  0  0  0  0  0  0  0
   13.7208  -12.0633    0.0000 C   0  0  2  0  0  0  0  0  0  0  0  0
   13.6632  -12.8863    0.0000 C   0  0  1  0  0  0  0  0  0  0  0  0
   14.3472  -13.3476    0.0000 C   0  0  2  0  0  0  0  0  0  0  0  0
   15.0887  -12.9859    0.0000 C   0  0  0  0  0  0  0  0  0  0  0  0
   14.2897  -14.1706    0.0000 O   0  0  0  0  0  0  0  0  0  0  0  0
   12.8642  -14.0709    0.0000 O   0  0  0  0  0  0  0  0  0  0  0  0
   13.5482  -14.5322    0.0000 C   0  0  1  0  0  0  0  0  0  0  0  0
   13.4906  -15.3552    0.0000 C   0  0  2  0  0  0  0  0  0  0  0  0
   12.7491  -15.7169    0.0000 C   0  0  1  0  0  0  0  0  0  0  0  0
   12.0652  -15.2556    0.0000 C   0  0  2  0  0  0  0  0  0  0  0  0
   12.1227  -14.4326    0.0000 C   0  0  2  0  0  0  0  0  0  0  0  0
   11.4387  -13.9713    0.0000 C   0  0  0  0  0  0  0  0  0  0  0  0
   10.6972  -14.3329    0.0000 O   0  0  0  0  0  0  0  0  0  0  0  0
   11.3237  -15.6172    0.0000 O   0  0  0  0  0  0  0  0  0  0  0  0
   12.6916  -16.5399    0.0000 O   0  0  0  0  0  0  0  0  0  0  0  0
   14.1746  -15.8165    0.0000 O   0  0  0  0  0  0  0  0  0  0  0  0
   12.9217  -13.2479    0.0000 O   0  0  0  0  0  0  0  0  0  0  0  0
   13.0368  -11.6019    0.0000 O   0  0  0  0  0  0  0  0  0  0  0  0
   19.0263   -7.8856    0.0000 H   0  0  0  0  0  0  0  0  0  0  0  0
  1  2  1  0  0  0  0
  2  3  1  0  0  0  0
  3  4  1  0  0  0  0
  4  5  1  0  0  0  0
  5  6  1  0  0  0  0
  6  7  1  0  0  0  0
  7  8  1  0  0  0  0
  8  9  1  0  0  0  0
  9 10  1  0  0  0  0
 10 11  1  0  0  0  0
 11 12  1  0  0  0  0
 12 13  1  0  0  0  0
 13 14  1  0  0  0  0
 14 15  1  0  0  0  0
 15 16  1  0  0  0  0
 16 17  1  0  0  0  0
 12 17  1  0  0  0  0
 17 18  1  0  0  0  0
  9 18  1  0  0  0  0
 18 19  1  0  0  0  0
 19 20  1  0  0  0  0
 20 21  2  0  0  0  0
  8 21  1  0  0  0  0
 21 22  1  0  0  0  0
  5 22  1  0  0  0  0
  1 22  1  0  0  0  0
 23 24  2  0  0  0  0
 23 25  1  0  0  0  0
  2 23  1  0  0  0  0
 26 27  2  0  0  0  0
 26 28  1  0  0  0  0
  5 26  1  1  0  0  0
 17 29  1  6  0  0  0
 13 30  1  1  0  0  0
  9 31  1  0  0  0  0
  8 32  1  1  0  0  0
  2 33  1  1  0  0  0
 34 35  1  0  0  0  0
 13 34  1  6  0  0  0
 15 36  1  1  0  0  0
 38 39  1  0  0  0  0
 39 40  1  0  0  0  0
 40 41  1  0  0  0  0
 41 42  1  0  0  0  0
 42 43  1  0  0  0  0
 38 43  1  0  0  0  0
 45 46  1  0  0  0  0
 46 47  1  0  0  0  0
 47 48  1  0  0  0  0
 48 49  1  0  0  0  0
 49 50  1  0  0  0  0
 45 50  1  0  0  0  0
 51 52  1  0  0  0  0
 50 51  1  6  0  0  0
 49 53  1  1  0  0  0
 48 54  1  6  0  0  0
 47 55  1  1  0  0  0
 46 44  1  6  0  0  0
 42 44  1  6  0  0  0
 41 56  1  1  0  0  0
 40 57  1  6  0  0  0
 39 37  1  1  0  0  0
 14 37  1  1  0  0  0
 22 58  1  6  0  0  0
M  END
>  <cdx:groupId>
18709

>  <cdx:fragmentId>
18532

$$$$
