355853.cdx
  Mrv1902 05222410202D          

 15 14  0  0  0  0            999 V2000
    4.1971   -6.8519    0.0000 C   0  0  0  0  0  0  0  0  0  0  0  0
    3.4862   -6.4331    0.0000 C   0  0  0  0  0  0  0  0  0  0  0  0
    2.7682   -6.8394    0.0000 C   0  0  0  0  0  0  0  0  0  0  0  0
    4.1899   -7.6768    0.0000 O   0  0  0  0  0  0  0  0  0  0  0  0
    4.9151   -6.4456    0.0000 O   0  0  0  0  0  0  0  0  0  0  0  0
    5.6259   -6.8643    0.0000 C   0  0  0  0  0  0  0  0  0  0  0  0
    6.3440   -6.4580    0.0000 C   0  0  0  0  0  0  0  0  0  0  0  0
    7.0548   -6.8767    0.0000 C   0  0  0  0  0  0  0  0  0  0  0  0
    7.0477   -7.7017    0.0000 C   0  0  0  0  0  0  0  0  0  0  0  0
    7.7729   -6.4705    0.0000 C   0  0  0  0  0  0  0  0  0  0  0  0
    8.4837   -6.8892    0.0000 C   0  0  0  0  0  0  0  0  0  0  0  0
    9.2018   -6.4829    0.0000 C   0  0  0  0  0  0  0  0  0  0  0  0
    9.9126   -6.9016    0.0000 C   0  0  0  0  0  0  0  0  0  0  0  0
   10.6306   -6.4953    0.0000 C   0  0  0  0  0  0  0  0  0  0  0  0
    9.9054   -7.7266    0.0000 C   0  0  0  0  0  0  0  0  0  0  0  0
  1  2  1  0  0  0  0
  2  3  1  0  0  0  0
  1  4  2  0  0  0  0
  1  5  1  0  0  0  0
  6  7  1  0  0  0  0
  7  8  2  0  0  0  0
  8  9  1  0  0  0  0
  8 10  1  0  0  0  0
 10 11  1  0  0  0  0
 11 12  1  0  0  0  0
 12 13  2  0  0  0  0
 13 14  1  0  0  0  0
 13 15  1  0  0  0  0
  5  6  1  0  0  0  0
M  END
>  <cdx:fragmentId>
23986

$$$$
