356.cdx
  Mrv1902 05222410252D          

  8  7  0  0  0  0            999 V2000
    6.7700   -2.3306    0.0000 C   0  0  0  0  0  0  0  0  0  0  0  0
    6.0556   -2.7431    0.0000 C   0  0  0  0  0  0  0  0  0  0  0  0
    5.3411   -2.3306    0.0000 C   0  0  0  0  0  0  0  0  0  0  0  0
    4.6266   -2.7431    0.0000 C   0  0  0  0  0  0  0  0  0  0  0  0
    3.9121   -2.3306    0.0000 C   0  0  0  0  0  0  0  0  0  0  0  0
    3.1977   -2.7431    0.0000 C   0  0  0  0  0  0  0  0  0  0  0  0
    2.4832   -2.3306    0.0000 C   0  0  0  0  0  0  0  0  0  0  0  0
    1.7687   -2.7431    0.0000 C   0  0  0  0  0  0  0  0  0  0  0  0
  1  2  1  0  0  0  0
  2  3  1  0  0  0  0
  3  4  1  0  0  0  0
  4  5  1  0  0  0  0
  5  6  1  0  0  0  0
  6  7  1  0  0  0  0
  7  8  1  0  0  0  0
M  END
>  <cdx:groupId>
25

>  <cdx:fragmentId>
5

$$$$
