356329.cdx
  Mrv1902 05222410272D          

 24 27  0  0  0  0            999 V2000
    5.6636   -8.2175    0.0000 O   0  0  0  0  0  0  0  0  0  0  0  0
    5.1787   -8.8849    0.0000 C   0  0  0  0  0  0  0  0  0  0  0  0
    5.6636   -9.5524    0.0000 C   0  0  0  0  0  0  0  0  0  0  0  0
    6.4482   -9.2974    0.0000 C   0  0  0  0  0  0  0  0  0  0  0  0
    7.1627   -9.7099    0.0000 C   0  0  0  0  0  0  0  0  0  0  0  0
    7.8772   -9.2974    0.0000 C   0  0  0  0  0  0  0  0  0  0  0  0
    7.8772   -8.4724    0.0000 C   0  0  0  0  0  0  0  0  0  0  0  0
    7.1627   -8.0599    0.0000 C   0  0  0  0  0  0  0  0  0  0  0  0
    6.4482   -8.4724    0.0000 C   0  0  0  0  0  0  0  0  0  0  0  0
    8.5916   -9.7099    0.0000 C   0  0  0  0  0  0  0  0  0  0  0  0
    9.3061   -9.2974    0.0000 C   0  0  0  0  0  0  0  0  0  0  0  0
    9.3061   -8.4724    0.0000 C   0  0  2  0  0  0  0  0  0  0  0  0
   10.0206   -8.0599    0.0000 C   0  0  0  0  0  0  0  0  0  0  0  0
   10.0206   -7.2349    0.0000 C   0  0  0  0  0  0  0  0  0  0  0  0
    9.3061   -6.8224    0.0000 C   0  0  0  0  0  0  0  0  0  0  0  0
    8.5916   -7.2349    0.0000 C   0  0  0  0  0  0  0  0  0  0  0  0
    8.5916   -8.0599    0.0000 C   0  0  1  0  0  0  0  0  0  0  0  0
    4.3537   -8.8849    0.0000 O   0  0  0  0  0  0  0  0  0  0  0  0
    5.4087  -10.3370    0.0000 C   0  0  0  0  0  0  0  0  0  0  0  0
    7.8772   -7.6474    0.0000 C   0  0  0  0  0  0  0  0  0  0  0  0
   10.8456   -8.0599    0.0000 C   0  0  0  0  0  0  0  0  0  0  0  0
   10.4331   -8.7744    0.0000 C   0  0  0  0  0  0  0  0  0  0  0  0
    7.1627  -10.5349    0.0000 O   0  0  0  0  0  0  0  0  0  0  0  0
   10.0206   -8.8849    0.0000 H   0  0  0  0  0  0  0  0  0  0  0  0
  1  2  1  0  0  0  0
  2  3  1  0  0  0  0
  3  4  1  0  0  0  0
  4  5  1  0  0  0  0
  5  6  2  0  0  0  0
  6  7  1  0  0  0  0
  7  8  2  0  0  0  0
  8  9  1  0  0  0  0
  4  9  2  0  0  0  0
  1  9  1  0  0  0  0
 10 11  1  0  0  0  0
 11 12  1  0  0  0  0
 12 13  1  0  0  0  0
 13 14  1  0  0  0  0
 14 15  1  0  0  0  0
 15 16  1  0  0  0  0
 16 17  1  0  0  0  0
 12 17  1  0  0  0  0
 10  6  1  0  0  0  0
 17  7  1  0  0  0  0
  2 18  2  0  0  0  0
  3 19  2  0  0  0  0
 17 20  1  1  0  0  0
 13 21  1  0  0  0  0
 13 22  1  0  0  0  0
  5 23  1  0  0  0  0
 12 24  1  6  0  0  0
M  END
>  <cdx:groupId>
37188

>  <cdx:fragmentId>
37116

$$$$
