356759.cdx
  Mrv1902 05222410232D          

 23 24  0  0  0  0            999 V2000
    4.9931   -8.2884    0.0000 C   0  0  0  0  0  0  0  0  0  0  0  0
    4.9931   -9.1134    0.0000 C   0  0  0  0  0  0  0  0  0  0  0  0
    5.7076   -9.5259    0.0000 C   0  0  0  0  0  0  0  0  0  0  0  0
    6.4220   -9.1134    0.0000 C   0  0  0  0  0  0  0  0  0  0  0  0
    6.4220   -8.2884    0.0000 C   0  0  0  0  0  0  0  0  0  0  0  0
    5.7076   -7.8759    0.0000 C   0  0  0  0  0  0  0  0  0  0  0  0
    4.2786   -7.8759    0.0000 O   0  0  0  0  0  0  0  0  0  0  0  0
    7.1365   -7.8759    0.0000 C   0  0  0  0  0  0  0  0  0  0  0  0
    7.8510   -8.2884    0.0000 C   0  0  0  0  0  0  0  0  0  0  0  0
    8.5655   -7.8759    0.0000 C   0  0  0  0  0  0  0  0  0  0  0  0
    8.5655   -7.0509    0.0000 C   0  0  0  0  0  0  0  0  0  0  0  0
    9.2799   -6.6384    0.0000 C   0  0  0  0  0  0  0  0  0  0  0  0
    9.9944   -7.0509    0.0000 C   0  0  0  0  0  0  0  0  0  0  0  0
    9.9944   -7.8759    0.0000 C   0  0  0  0  0  0  0  0  0  0  0  0
    9.2799   -8.2884    0.0000 C   0  0  0  0  0  0  0  0  0  0  0  0
   10.7089   -8.2884    0.0000 O   0  0  0  0  0  0  0  0  0  0  0  0
   10.7089   -9.1134    0.0000 C   0  0  0  0  0  0  0  0  0  0  0  0
   10.7089   -6.6384    0.0000 O   0  0  0  0  0  0  0  0  0  0  0  0
   11.4233   -7.0509    0.0000 C   0  0  0  0  0  0  0  0  0  0  0  0
    9.2799   -5.8134    0.0000 O   0  0  0  0  0  0  0  0  0  0  0  0
    8.5655   -5.4009    0.0000 C   0  0  0  0  0  0  0  0  0  0  0  0
    4.2786   -9.5259    0.0000 O   0  0  0  0  0  0  0  0  0  0  0  0
    3.5642   -9.1134    0.0000 C   0  0  0  0  0  0  0  0  0  0  0  0
  1  2  1  0  0  0  0
  2  3  2  0  0  0  0
  3  4  1  0  0  0  0
  4  5  2  0  0  0  0
  5  6  1  0  0  0  0
  1  6  2  0  0  0  0
  1  7  1  0  0  0  0
  8  9  1  0  0  0  0
 10 11  1  0  0  0  0
 11 12  2  0  0  0  0
 12 13  1  0  0  0  0
 13 14  2  0  0  0  0
 14 15  1  0  0  0  0
 10 15  2  0  0  0  0
 16 17  1  0  0  0  0
 14 16  1  0  0  0  0
 18 19  1  0  0  0  0
 13 18  1  0  0  0  0
 20 21  1  0  0  0  0
 12 20  1  0  0  0  0
  9 10  1  0  0  0  0
  5  8  1  0  0  0  0
 22 23  1  0  0  0  0
  2 22  1  0  0  0  0
M  END
>  <cdx:fragmentId>
2202

$$$$
