5357252.cdx
  Mrv1902 05222410242D          

  7  6  0  0  0  0            999 V2000
    9.2112   -6.7904    0.0000 C   0  0  0  0  0  0  0  0  0  0  0  0
    8.4967   -7.2029    0.0000 C   0  0  0  0  0  0  0  0  0  0  0  0
    7.7822   -6.7904    0.0000 C   0  0  0  0  0  0  0  0  0  0  0  0
    7.0678   -7.2029    0.0000 C   0  0  0  0  0  0  0  0  0  0  0  0
    6.3533   -6.7904    0.0000 C   0  0  0  0  0  0  0  0  0  0  0  0
    5.6388   -7.2029    0.0000 C   0  0  0  0  0  0  0  0  0  0  0  0
    6.3533   -5.9654    0.0000 C   0  0  0  0  0  0  0  0  0  0  0  0
  1  2  1  0  0  0  0
  2  3  2  0  0  0  0
  3  4  1  0  0  0  0
  4  5  1  0  0  0  0
  5  6  1  0  0  0  0
  5  7  1  0  0  0  0
M  END
>  <cdx:groupId>
22

>  <cdx:fragmentId>
5

$$$$
