5357430.cdx
  Mrv1902 05222410262D          

 13 14  0  0  0  0            999 V2000
   16.4373   -9.4627    0.0000 C   0  0  0  0  0  0  0  0  0  0  0  0
   16.4373   -8.6377    0.0000 C   0  0  0  0  0  0  0  0  0  0  0  0
   15.7229   -8.2252    0.0000 C   0  0  0  0  0  0  0  0  0  0  0  0
   15.7229   -7.4002    0.0000 C   0  0  0  0  0  0  0  0  0  0  0  0
   15.0084   -6.9877    0.0000 C   0  0  0  0  0  0  0  0  0  0  0  0
   14.2939   -7.4002    0.0000 C   0  0  0  0  0  0  0  0  0  0  0  0
   14.2939   -8.2252    0.0000 C   0  0  0  0  0  0  0  0  0  0  0  0
   13.5795   -8.6377    0.0000 C   0  0  0  0  0  0  0  0  0  0  0  0
   13.5795   -9.4627    0.0000 C   0  0  0  0  0  0  0  0  0  0  0  0
   14.2939   -9.8752    0.0000 C   0  0  0  0  0  0  0  0  0  0  0  0
   15.0084   -9.4627    0.0000 C   0  0  0  0  0  0  0  0  0  0  0  0
   15.7229   -9.8752    0.0000 C   0  0  0  0  0  0  0  0  0  0  0  0
   17.1518   -9.0502    0.0000 O   0  0  0  0  0  0  0  0  0  0  0  0
  1  2  1  0  0  0  0
  2  3  1  0  0  0  0
  3  4  1  0  0  0  0
  4  5  1  0  0  0  0
  5  6  2  0  0  0  0
  6  7  1  0  0  0  0
  7  8  1  0  0  0  0
  8  9  1  0  0  0  0
  9 10  2  0  0  0  0
 10 11  1  0  0  0  0
 11 12  1  0  0  0  0
  1 12  1  0  0  0  0
  1 13  1  0  0  0  0
  2 13  1  0  0  0  0
M  END
>  <cdx:groupId>
24217

>  <cdx:fragmentId>
24180

$$$$
