358.cdx
  Mrv1902 05222410222D          

 36 40  0  0  0  0            999 V2000
    4.9768   -8.3548    0.0000 C   0  0  0  0  0  0  0  0  0  0  0  0
    4.9768   -9.1798    0.0000 C   0  0  1  0  0  0  0  0  0  0  0  0
    5.6913   -9.5923    0.0000 C   0  0  0  0  0  0  0  0  0  0  0  0
    6.4058   -9.1798    0.0000 C   0  0  2  0  0  0  0  0  0  0  0  0
    6.4058   -8.3548    0.0000 C   0  0  2  0  0  0  0  0  0  0  0  0
    5.6913   -7.9423    0.0000 C   0  0  0  0  0  0  0  0  0  0  0  0
    7.1202   -9.5923    0.0000 C   0  0  0  0  0  0  0  0  0  0  0  0
    7.8347   -9.1798    0.0000 C   0  0  0  0  0  0  0  0  0  0  0  0
    7.8347   -8.3548    0.0000 C   0  0  2  0  0  0  0  0  0  0  0  0
    7.1202   -7.9423    0.0000 C   0  0  2  0  0  0  0  0  0  0  0  0
    8.5492   -7.9423    0.0000 C   0  0  1  0  0  0  0  0  0  0  0  0
    8.5492   -7.1173    0.0000 C   0  0  1  0  0  0  0  0  0  0  0  0
    7.8347   -6.7048    0.0000 C   0  0  0  0  0  0  0  0  0  0  0  0
    7.1202   -7.1173    0.0000 C   0  0  0  0  0  0  0  0  0  0  0  0
    4.2624   -9.5923    0.0000 O   0  0  0  0  0  0  0  0  0  0  0  0
    6.4058   -7.5298    0.0000 C   0  0  0  0  0  0  0  0  0  0  0  0
    6.4058  -10.0048    0.0000 H   0  0  0  0  0  0  0  0  0  0  0  0
    7.8347   -7.5298    0.0000 H   0  0  0  0  0  0  0  0  0  0  0  0
    8.5492   -8.7673    0.0000 O   0  0  0  0  0  0  0  0  0  0  0  0
    8.5492   -6.2923    0.0000 C   0  0  0  0  0  0  0  0  0  0  0  0
    7.1202   -8.7673    0.0000 H   0  0  0  0  0  0  0  0  0  0  0  0
    4.2624   -7.9423    0.0000 O   0  0  0  0  0  0  0  0  0  0  0  0
    9.3338   -8.1972    0.0000 C   0  0  0  0  0  0  0  0  0  0  0  0
    9.8187   -7.5298    0.0000 C   0  0  0  0  0  0  0  0  0  0  0  0
    9.3338   -6.8624    0.0000 C   0  0  2  0  0  0  0  0  0  0  0  0
    9.5887   -6.0777    0.0000 C   0  0  0  0  0  0  0  0  0  0  0  0
   10.3734   -5.8228    0.0000 C   0  0  0  0  0  0  0  0  0  0  0  0
   10.3734   -4.9978    0.0000 O   0  0  0  0  0  0  0  0  0  0  0  0
    9.5887   -4.7429    0.0000 C   0  0  0  0  0  0  0  0  0  0  0  0
    9.1038   -5.4103    0.0000 C   0  0  0  0  0  0  0  0  0  0  0  0
    9.3338   -3.9582    0.0000 O   0  0  0  0  0  0  0  0  0  0  0  0
    8.2788   -5.4103    0.0000 O   0  0  0  0  0  0  0  0  0  0  0  0
    5.6913   -7.1173    0.0000 O   0  0  0  0  0  0  0  0  0  0  0  0
    3.5479   -9.1798    0.0000 C   0  0  0  0  0  0  0  0  0  0  0  0
    2.8334   -9.5923    0.0000 C   0  0  0  0  0  0  0  0  0  0  0  0
    3.5479   -8.3548    0.0000 O   0  0  0  0  0  0  0  0  0  0  0  0
  1  2  1  0  0  0  0
  2  3  1  0  0  0  0
  3  4  1  0  0  0  0
  4  5  1  0  0  0  0
  5  6  1  0  0  0  0
  6  1  1  0  0  0  0
  4  7  1  0  0  0  0
  7  8  1  0  0  0  0
  8  9  1  0  0  0  0
  9 10  1  0  0  0  0
 10  5  1  0  0  0  0
  9 11  1  0  0  0  0
 11 12  1  0  0  0  0
 12 13  1  0  0  0  0
 13 14  1  0  0  0  0
 14 10  1  0  0  0  0
  2 15  1  1  0  0  0
  5 16  1  1  0  0  0
  4 17  1  1  0  0  0
  9 18  1  1  0  0  0
 11 19  1  1  0  0  0
 12 20  1  1  0  0  0
 10 21  1  6  0  0  0
  1 22  1  0  0  0  0
 11 23  1  0  0  0  0
 23 24  1  0  0  0  0
 24 25  1  0  0  0  0
 25 12  1  0  0  0  0
 25 26  1  1  0  0  0
 26 27  1  0  0  0  0
 27 28  1  0  0  0  0
 28 29  1  0  0  0  0
 29 30  1  0  0  0  0
 30 26  2  0  0  0  0
 29 31  2  0  0  0  0
 30 32  1  0  0  0  0
 16 33  1  0  0  0  0
 15 34  1  0  0  0  0
 34 35  1  0  0  0  0
 34 36  2  0  0  0  0
M  END
>  <cdx:fragmentId>
5

$$$$
