358120.cdx
  Mrv1902 05222410202D          

 46 51  0  0  0  0            999 V2000
    8.1259   -7.0429    0.0000 C   0  0  0  0  0  0  0  0  0  0  0  0
    8.1211   -7.8679    0.0000 C   0  0  0  0  0  0  0  0  0  0  0  0
    8.8332   -8.2845    0.0000 C   0  0  0  0  0  0  0  0  0  0  0  0
    9.5500   -7.8762    0.0000 C   0  0  0  0  0  0  0  0  0  0  0  0
    9.5548   -7.0512    0.0000 C   0  0  0  0  0  0  0  0  0  0  0  0
    8.8427   -6.6346    0.0000 C   0  0  0  0  0  0  0  0  0  0  0  0
   10.2621   -8.2928    0.0000 O   0  0  0  0  0  0  0  0  0  0  0  0
    8.8284   -9.1095    0.0000 O   0  0  0  0  0  0  0  0  0  0  0  0
    8.1115   -9.5179    0.0000 C   0  0  0  0  0  0  0  0  0  0  0  0
    7.3994   -9.1013    0.0000 C   0  0  0  0  0  0  0  0  0  0  0  0
    6.6826   -9.5096    0.0000 C   0  0  0  0  0  0  0  0  0  0  0  0
    6.6778  -10.3346    0.0000 C   0  0  0  0  0  0  0  0  0  0  0  0
    7.3899  -10.7512    0.0000 C   0  0  0  0  0  0  0  0  0  0  0  0
    8.1067  -10.3429    0.0000 C   0  0  0  0  0  0  0  0  0  0  0  0
    5.9610  -10.7429    0.0000 C   0  0  0  0  0  0  0  0  0  0  0  0
    5.9562  -11.5679    0.0000 C   0  0  2  0  0  0  0  0  0  0  0  0
    5.2394  -11.9762    0.0000 C   0  0  0  0  0  0  0  0  0  0  0  0
    5.2346  -12.8013    0.0000 C   0  0  0  0  0  0  0  0  0  0  0  0
    5.9466  -13.2179    0.0000 C   0  0  0  0  0  0  0  0  0  0  0  0
    6.6635  -12.8095    0.0000 C   0  0  0  0  0  0  0  0  0  0  0  0
    6.6683  -11.9846    0.0000 N   0  0  0  0  0  0  0  0  0  0  0  0
    4.5273  -11.5596    0.0000 C   0  0  0  0  0  0  0  0  0  0  0  0
    3.8104  -11.9680    0.0000 C   0  0  0  0  0  0  0  0  0  0  0  0
    3.8057  -12.7929    0.0000 C   0  0  0  0  0  0  0  0  0  0  0  0
    4.5177  -13.2096    0.0000 C   0  0  0  0  0  0  0  0  0  0  0  0
    7.3851  -11.5762    0.0000 C   0  0  0  0  0  0  0  0  0  0  0  0
    3.0984  -11.5513    0.0000 O   0  0  0  0  0  0  0  0  0  0  0  0
    2.3815  -11.9597    0.0000 C   0  0  0  0  0  0  0  0  0  0  0  0
    3.0888  -13.2013    0.0000 O   0  0  0  0  0  0  0  0  0  0  0  0
    3.0840  -14.0263    0.0000 C   0  0  0  0  0  0  0  0  0  0  0  0
    7.4138   -6.6263    0.0000 C   0  0  0  0  0  0  0  0  0  0  0  0
    3.8245   -5.4388    0.0000 C   0  0  0  0  0  0  0  0  0  0  0  0
    4.5447   -5.8413    0.0000 O   0  0  0  0  0  0  0  0  0  0  0  0
    4.5100   -3.3666    0.0000 C   0  0  0  0  0  0  0  0  0  0  0  0
    4.5216   -4.1915    0.0000 O   0  0  0  0  0  0  0  0  0  0  0  0
    5.9504   -4.1715    0.0000 C   0  0  0  0  0  0  0  0  0  0  0  0
    5.2417   -4.5939    0.0000 C   0  0  0  0  0  0  0  0  0  0  0  0
    5.2533   -5.4189    0.0000 C   0  0  0  0  0  0  0  0  0  0  0  0
    5.9735   -5.8214    0.0000 C   0  0  0  0  0  0  0  0  0  0  0  0
    8.0994   -4.5540    0.0000 C   0  0  0  0  0  0  0  0  0  0  0  0
    7.3792   -4.1515    0.0000 C   0  0  0  0  0  0  0  0  0  0  0  0
    6.6706   -4.5740    0.0000 C   0  0  0  0  0  0  0  0  0  0  0  0
    6.6821   -5.3989    0.0000 C   0  0  0  0  0  0  0  0  0  0  0  0
    7.4023   -5.8014    0.0000 C   0  0  2  0  0  0  0  0  0  0  0  0
    8.1109   -5.3789    0.0000 N   0  0  0  0  0  0  0  0  0  0  0  0
    8.8311   -5.7814    0.0000 C   0  0  0  0  0  0  0  0  0  0  0  0
 44 31  1  6  0  0  0
 33 32  1  0  0  0  0
 38 33  1  0  0  0  0
 35 34  1  0  0  0  0
 37 35  1  0  0  0  0
 36 42  1  0  0  0  0
 37 36  2  0  0  0  0
 38 37  1  0  0  0  0
 39 38  2  0  0  0  0
 43 39  1  0  0  0  0
 40 45  1  0  0  0  0
 41 40  1  0  0  0  0
 42 41  1  0  0  0  0
 43 42  2  0  0  0  0
 44 43  1  0  0  0  0
 45 44  1  0  0  0  0
 31  1  1  0  0  0  0
  1  2  1  0  0  0  0
  2  3  2  0  0  0  0
  3  4  1  0  0  0  0
  4  5  2  0  0  0  0
  5  6  1  0  0  0  0
  6  1  2  0  0  0  0
  4  7  1  0  0  0  0
  3  8  1  0  0  0  0
  8  9  1  0  0  0  0
  9 10  2  0  0  0  0
 10 11  1  0  0  0  0
 11 12  2  0  0  0  0
 12 13  1  0  0  0  0
 13 14  2  0  0  0  0
 14  9  1  0  0  0  0
 12 15  1  0  0  0  0
 16 15  1  1  0  0  0
 16 17  1  0  0  0  0
 17 18  2  0  0  0  0
 18 19  1  0  0  0  0
 19 20  1  0  0  0  0
 20 21  1  0  0  0  0
 21 16  1  0  0  0  0
 17 22  1  0  0  0  0
 22 23  2  0  0  0  0
 23 24  1  0  0  0  0
 24 25  2  0  0  0  0
 25 18  1  0  0  0  0
 21 26  1  0  0  0  0
 23 27  1  0  0  0  0
 27 28  1  0  0  0  0
 24 29  1  0  0  0  0
 29 30  1  0  0  0  0
 45 46  1  0  0  0  0
M  END
>  <cdx:fragmentId>
7850

$$$$
