35821.cdx
  Mrv1902 05222410232D          

 14 14  0  0  0  0            999 V2000
    8.8046   -2.9195    0.0000 C   0  0  0  0  0  0  0  0  0  0  0  0
    8.0901   -2.5070    0.0000 C   0  0  0  0  0  0  0  0  0  0  0  0
    7.3757   -2.9195    0.0000 C   0  0  0  0  0  0  0  0  0  0  0  0
    6.6612   -2.5070    0.0000 C   0  0  0  0  0  0  0  0  0  0  0  0
    8.0901   -1.6820    0.0000 O   0  0  0  0  0  0  0  0  0  0  0  0
    5.9467   -2.9195    0.0000 C   0  0  0  0  0  0  0  0  0  0  0  0
    5.2322   -2.5070    0.0000 C   0  0  0  0  0  0  0  0  0  0  0  0
    4.5178   -2.9195    0.0000 C   0  0  0  0  0  0  0  0  0  0  0  0
    4.5178   -3.7445    0.0000 C   0  0  0  0  0  0  0  0  0  0  0  0
    5.2322   -4.1570    0.0000 C   0  0  0  0  0  0  0  0  0  0  0  0
    5.9467   -3.7445    0.0000 C   0  0  0  0  0  0  0  0  0  0  0  0
    6.3592   -4.4590    0.0000 C   0  0  0  0  0  0  0  0  0  0  0  0
    6.7717   -3.7445    0.0000 C   0  0  0  0  0  0  0  0  0  0  0  0
    5.2322   -1.6820    0.0000 C   0  0  0  0  0  0  0  0  0  0  0  0
  1  2  1  0  0  0  0
  2  3  1  0  0  0  0
  3  4  1  0  0  0  0
  2  5  2  0  0  0  0
  6  7  1  0  0  0  0
  7  8  2  0  0  0  0
  8  9  1  0  0  0  0
  9 10  1  0  0  0  0
 10 11  1  0  0  0  0
  6 11  1  0  0  0  0
 11 12  1  0  0  0  0
 11 13  1  0  0  0  0
  7 14  1  0  0  0  0
  4  6  1  0  0  0  0
M  END
>  <cdx:groupId>
44

>  <cdx:fragmentId>
15

$$$$
