78358492.cdx
  Mrv1902 05222410202D          

 41 46  0  0  0  0            999 V2000
   11.0856   -4.8102    0.0000 C   0  0  0  0  0  0  0  0  0  0  0  0
   10.3711   -4.3977    0.0000 C   0  0  0  0  0  0  0  0  0  0  0  0
    9.6567   -4.8102    0.0000 C   0  0  0  0  0  0  0  0  0  0  0  0
    9.6567   -5.6352    0.0000 C   0  0  0  0  0  0  0  0  0  0  0  0
   11.8001   -4.3977    0.0000 O   0  0  0  0  0  0  0  0  0  0  0  0
   10.3711   -3.5727    0.0000 C   0  0  0  0  0  0  0  0  0  0  0  0
    7.7428   -5.7928    0.0000 C   0  0  2  0  0  0  0  0  0  0  0  0
    8.2277   -6.4602    0.0000 C   0  0  2  0  0  0  0  0  0  0  0  0
    7.5133   -6.0477    0.0000 O   0  0  0  0  0  0  0  0  0  0  0  0
    6.7988   -6.4602    0.0000 C   0  0  0  0  0  0  0  0  0  0  0  0
    6.0843   -6.0477    0.0000 C   0  0  0  0  0  0  0  0  0  0  0  0
    5.3699   -6.4602    0.0000 C   0  0  0  0  0  0  0  0  0  0  0  0
    4.6554   -6.0477    0.0000 O   0  0  0  0  0  0  0  0  0  0  0  0
    3.9409   -6.4602    0.0000 C   0  0  0  0  0  0  0  0  0  0  0  0
    3.9409   -7.2852    0.0000 C   0  0  0  0  0  0  0  0  0  0  0  0
    4.6554   -7.6977    0.0000 C   0  0  0  0  0  0  0  0  0  0  0  0
    5.3699   -7.2852    0.0000 C   0  0  0  0  0  0  0  0  0  0  0  0
    6.0843   -7.6977    0.0000 C   0  0  0  0  0  0  0  0  0  0  0  0
    6.7988   -7.2852    0.0000 C   0  0  0  0  0  0  0  0  0  0  0  0
    7.5133   -7.6977    0.0000 C   0  0  0  0  0  0  0  0  0  0  0  0
    8.2277   -7.2852    0.0000 C   0  0  0  0  0  0  0  0  0  0  0  0
    8.9422   -7.6977    0.0000 C   0  0  0  0  0  0  0  0  0  0  0  0
    9.6567   -7.2852    0.0000 C   0  0  0  0  0  0  0  0  0  0  0  0
    9.6567   -6.4602    0.0000 C   0  0  0  0  0  0  0  0  0  0  0  0
    8.9422   -6.0477    0.0000 C   0  0  1  0  0  0  0  0  0  0  0  0
    8.9125   -5.2232    0.0000 O   0  0  0  0  0  0  0  0  0  0  0  0
    8.1055   -5.0517    0.0000 C   0  0  0  0  0  0  0  0  0  0  0  0
    8.6058   -5.7739    0.0000 C   0  0  0  0  0  0  0  0  0  0  0  0
   10.3711   -6.0477    0.0000 O   0  0  0  0  0  0  0  0  0  0  0  0
    7.5133   -8.5227    0.0000 O   0  0  0  0  0  0  0  0  0  0  0  0
    6.0843   -5.2227    0.0000 C   0  0  0  0  0  0  0  0  0  0  0  0
    5.3699   -4.8102    0.0000 C   0  0  0  0  0  0  0  0  0  0  0  0
    5.3699   -3.9852    0.0000 C   0  0  0  0  0  0  0  0  0  0  0  0
    6.0843   -3.5727    0.0000 C   0  0  0  0  0  0  0  0  0  0  0  0
    4.6554   -3.5727    0.0000 C   0  0  0  0  0  0  0  0  0  0  0  0
    7.3911   -4.6392    0.0000 C   0  0  0  0  0  0  0  0  0  0  0  0
    8.1055   -4.2267    0.0000 C   0  0  0  0  0  0  0  0  0  0  0  0
    3.1159   -6.4602    0.0000 C   0  0  0  0  0  0  0  0  0  0  0  0
    3.5284   -5.7457    0.0000 C   0  0  0  0  0  0  0  0  0  0  0  0
    6.0843   -8.5227    0.0000 O   0  0  0  0  0  0  0  0  0  0  0  0
    7.1108   -5.2625    0.0000 H   0  0  0  0  0  0  0  0  0  0  0  0
  1  2  1  0  0  0  0
  2  3  2  0  0  0  0
  3  4  1  0  0  0  0
  1  5  2  0  0  0  0
  2  6  1  0  0  0  0
  7  8  1  0  0  0  0
  8  9  1  6  0  0  0
  9 10  1  0  0  0  0
 10 11  1  0  0  0  0
 11 12  2  0  0  0  0
 12 13  1  0  0  0  0
 13 14  1  0  0  0  0
 14 15  1  0  0  0  0
 15 16  2  0  0  0  0
 16 17  1  0  0  0  0
 17 18  2  0  0  0  0
 18 19  1  0  0  0  0
 19 20  1  0  0  0  0
 20 21  1  0  0  0  0
 21 22  2  0  0  0  0
 22 23  1  0  0  0  0
 23 24  1  0  0  0  0
 24 25  1  0  0  0  0
 25 26  1  0  0  0  0
 26 27  1  0  0  0  0
  7 27  1  0  0  0  0
  7 28  1  1  0  0  0
 28 23  1  0  0  0  0
  8 25  1  0  0  0  0
  8 21  1  0  0  0  0
 10 19  2  0  0  0  0
 12 17  1  0  0  0  0
 24 29  2  0  0  0  0
 20 30  2  0  0  0  0
 31 32  1  0  0  0  0
 32 33  2  0  0  0  0
 33 34  1  0  0  0  0
 33 35  1  0  0  0  0
 11 31  1  0  0  0  0
 27 36  1  0  0  0  0
 27 37  1  0  0  0  0
 14 38  1  0  0  0  0
 14 39  1  0  0  0  0
 18 40  1  0  0  0  0
 25  4  1  6  0  0  0
  7 41  1  0  0  0  0
M  END
>  <cdx:groupId>
167

>  <cdx:fragmentId>
54

$$$$
