358881.cdx
  Mrv1902 05222410272D          

 24 27  0  0  0  0            999 V2000
    6.6785   -9.7065    0.0000 C   0  0  0  0  0  0  0  0  0  0  0  0
    7.3930   -9.2940    0.0000 N   0  3  0  0  0  0  0  0  0  0  0  0
    7.3930   -8.4690    0.0000 C   0  0  0  0  0  0  0  0  0  0  0  0
    6.6785   -8.0565    0.0000 C   0  0  0  0  0  0  0  0  0  0  0  0
    5.9640   -8.4690    0.0000 C   0  0  0  0  0  0  0  0  0  0  0  0
    5.2496   -8.0565    0.0000 C   0  0  0  0  0  0  0  0  0  0  0  0
    4.5351   -8.4690    0.0000 C   0  0  0  0  0  0  0  0  0  0  0  0
    4.5351   -9.2940    0.0000 C   0  0  0  0  0  0  0  0  0  0  0  0
    5.2496   -9.7065    0.0000 C   0  0  0  0  0  0  0  0  0  0  0  0
    5.9640   -9.2940    0.0000 C   0  0  0  0  0  0  0  0  0  0  0  0
    8.1075   -9.7065    0.0000 C   0  0  0  0  0  0  0  0  0  0  0  0
    8.8219   -9.2940    0.0000 C   0  0  0  0  0  0  0  0  0  0  0  0
    8.8219   -8.4690    0.0000 C   0  0  0  0  0  0  0  0  0  0  0  0
    9.5364   -8.0565    0.0000 C   0  0  0  0  0  0  0  0  0  0  0  0
    9.5364   -7.2315    0.0000 C   0  0  0  0  0  0  0  0  0  0  0  0
    8.8219   -6.8190    0.0000 C   0  0  0  0  0  0  0  0  0  0  0  0
    8.1075   -7.2315    0.0000 C   0  0  0  0  0  0  0  0  0  0  0  0
    8.1075   -8.0565    0.0000 C   0  0  0  0  0  0  0  0  0  0  0  0
    8.8219   -5.9940    0.0000 O   0  0  0  0  0  0  0  0  0  0  0  0
    3.8206   -9.7065    0.0000 O   0  0  0  0  0  0  0  0  0  0  0  0
    5.2496  -10.5315    0.0000 O   0  0  0  0  0  0  0  0  0  0  0  0
    4.5351  -10.9440    0.0000 C   0  0  0  0  0  0  0  0  0  0  0  0
   10.2509   -6.8190    0.0000 O   0  0  0  0  0  0  0  0  0  0  0  0
   10.9653   -7.2315    0.0000 C   0  0  0  0  0  0  0  0  0  0  0  0
  1  2  1  0  0  0  0
  2  3  2  0  0  0  0
  3  4  1  0  0  0  0
  4  5  2  0  0  0  0
  5  6  1  0  0  0  0
  6  7  2  0  0  0  0
  7  8  1  0  0  0  0
  8  9  2  0  0  0  0
  9 10  1  0  0  0  0
  1 10  2  0  0  0  0
  5 10  1  0  0  0  0
 11 12  1  0  0  0  0
 12 13  1  0  0  0  0
 13 14  1  0  0  0  0
 14 15  2  0  0  0  0
 15 16  1  0  0  0  0
 16 17  2  0  0  0  0
 17 18  1  0  0  0  0
 13 18  2  0  0  0  0
 11  2  1  0  0  0  0
 18  3  1  0  0  0  0
 16 19  1  0  0  0  0
  8 20  1  0  0  0  0
 21 22  1  0  0  0  0
  9 21  1  0  0  0  0
 23 24  1  0  0  0  0
 15 23  1  0  0  0  0
M  CHG  1   2   1
M  END
>  <cdx:fragmentId>
46828

$$$$
