359.cdx
  Mrv1902 05222410212D          

  9  9  0  0  0  0            999 V2000
    6.0150   -8.3403    0.0000 N   0  0  0  0  0  0  0  0  0  0  0  0
    6.0150   -9.1653    0.0000 C   0  0  0  0  0  0  0  0  0  0  0  0
    6.7295   -9.5778    0.0000 N   0  0  0  0  0  0  0  0  0  0  0  0
    7.4440   -9.1653    0.0000 C   0  0  0  0  0  0  0  0  0  0  0  0
    7.4440   -8.3403    0.0000 C   0  0  0  0  0  0  0  0  0  0  0  0
    6.7295   -7.9278    0.0000 C   0  0  0  0  0  0  0  0  0  0  0  0
    8.1585   -7.9278    0.0000 C   0  0  0  0  0  0  0  0  0  0  0  0
    8.1585   -9.5778    0.0000 O   0  0  0  0  0  0  0  0  0  0  0  0
    8.8729   -8.3403    0.0000 O   0  0  0  0  0  0  0  0  0  0  0  0
  1  2  1  0  0  0  0
  2  3  1  0  0  0  0
  3  4  1  0  0  0  0
  4  5  2  0  0  0  0
  5  6  1  0  0  0  0
  6  1  1  0  0  0  0
  5  7  1  0  0  0  0
  4  8  1  0  0  0  0
  7  9  2  0  0  0  0
M  END
>  <cdx:fragmentId>
5

$$$$
