3590.cdx
  Mrv1902 05222410222D          

 10  9  0  0  0  0            999 V2000
    8.4753   -8.4750    0.0000 C   0  0  0  0  0  0  0  0  0  0  0  0
    7.7608   -8.8875    0.0000 C   0  0  0  0  0  0  0  0  0  0  0  0
    7.0463   -8.4750    0.0000 C   0  0  0  0  0  0  0  0  0  0  0  0
    6.3318   -8.8875    0.0000 C   0  0  0  0  0  0  0  0  0  0  0  0
    5.6174   -8.4750    0.0000 C   0  0  0  0  0  0  0  0  0  0  0  0
    4.9029   -8.8875    0.0000 C   0  0  0  0  0  0  0  0  0  0  0  0
    9.1897   -8.0625    0.0000 O   0  0  0  0  0  0  0  0  0  0  0  0
    5.6174   -7.6500    0.0000 N   0  0  0  0  0  0  0  0  0  0  0  0
    8.0628   -7.7605    0.0000 C   0  0  0  0  0  0  0  0  0  0  0  0
    8.8878   -9.1895    0.0000 C   0  0  0  0  0  0  0  0  0  0  0  0
  1  2  1  0  0  0  0
  2  3  1  0  0  0  0
  3  4  1  0  0  0  0
  4  5  1  0  0  0  0
  5  6  1  0  0  0  0
  1  7  1  0  0  0  0
  5  8  1  0  0  0  0
  1  9  1  0  0  0  0
  1 10  1  0  0  0  0
M  END
>  <cdx:fragmentId>
5

$$$$
