359271.cdx
  Mrv1902 05222410212D          

 25 29  0  0  0  0            999 V2000
    6.0391   -4.6816    0.0000 O   0  0  0  0  0  0  0  0  0  0  0  0
    6.0391   -8.8066    0.0000 O   0  0  0  0  0  0  0  0  0  0  0  0
    8.1825   -5.0941    0.0000 C   0  0  0  0  0  0  0  0  0  0  0  0
    7.4680   -4.6816    0.0000 C   0  0  0  0  0  0  0  0  0  0  0  0
    6.7536   -5.0941    0.0000 C   0  0  0  0  0  0  0  0  0  0  0  0
    6.7536   -5.9191    0.0000 C   0  0  0  0  0  0  0  0  0  0  0  0
    6.1325   -6.7375    0.0000 O   0  0  0  0  0  0  0  0  0  0  0  0
    7.4680   -6.3316    0.0000 C   0  0  0  0  0  0  0  0  0  0  0  0
    7.4680   -7.1566    0.0000 C   0  0  1  0  0  0  0  0  0  0  0  0
    6.7536   -7.5691    0.0000 C   0  0  2  0  0  0  0  0  0  0  0  0
    6.7536   -8.3941    0.0000 C   0  0  2  0  0  0  0  0  0  0  0  0
    7.4680   -8.8066    0.0000 C   0  0  0  0  0  0  0  0  0  0  0  0
    8.1825   -8.3941    0.0000 C   0  0  0  0  0  0  0  0  0  0  0  0
    8.1825   -7.5691    0.0000 C   0  0  1  0  0  0  0  0  0  0  0  0
    8.1825   -6.7441    0.0000 H   0  0  0  0  0  0  0  0  0  0  0  0
    8.8970   -7.1566    0.0000 C   0  0  2  0  0  0  0  0  0  0  0  0
    8.8825   -8.0575    0.0000 N   0  0  0  0  0  0  0  0  0  0  0  0
    9.5970   -8.4700    0.0000 C   0  0  0  0  0  0  0  0  0  0  0  0
    8.1816   -8.5674    0.0000 C   0  0  0  0  0  0  0  0  0  0  0  0
    7.4800   -8.0575    0.0000 C   0  0  0  0  0  0  0  0  0  0  0  0
    8.8970   -6.3316    0.0000 C   0  0  0  0  0  0  0  0  0  0  0  0
    8.1825   -5.9191    0.0000 C   0  0  0  0  0  0  0  0  0  0  0  0
    5.9567   -7.7826    0.0000 H   0  0  0  0  0  0  0  0  0  0  0  0
    5.3246   -5.0941    0.0000 C   0  0  0  0  0  0  0  0  0  0  0  0
    4.6102   -4.6816    0.0000 C   0  0  0  0  0  0  0  0  0  0  0  0
  3  4  2  0  0  0  0
  4  5  1  0  0  0  0
  1  5  1  0  0  0  0
  5  6  2  0  0  0  0
  6  7  1  0  0  0  0
  6  8  1  0  0  0  0
  8  9  1  0  0  0  0
  9 10  1  0  0  0  0
 10  7  1  0  0  0  0
 10 11  1  0  0  0  0
 11  2  1  6  0  0  0
 11 12  1  0  0  0  0
 12 13  2  0  0  0  0
 13 14  1  0  0  0  0
  9 14  1  0  0  0  0
 14 15  1  1  0  0  0
 14 16  1  0  0  0  0
 16 17  1  1  0  0  0
 17 18  1  0  0  0  0
 17 19  1  0  0  0  0
 19 20  1  0  0  0  0
  9 20  1  1  0  0  0
 16 21  1  0  0  0  0
 21 22  1  0  0  0  0
  8 22  2  0  0  0  0
  3 22  1  0  0  0  0
 10 23  1  1  0  0  0
  1 24  1  0  0  0  0
 24 25  1  0  0  0  0
M  END
>  <cdx:fragmentId>
1183

$$$$
