359371.cdx
  Mrv1902 05222410192D          

 23 26  0  0  0  0            999 V2000
    6.9151   -6.4900    0.0000 H   0  0  0  0  0  0  0  0  0  0  0  0
    8.0329   -5.3539    0.0000 H   0  0  0  0  0  0  0  0  0  0  0  0
   10.6091   -6.0306    0.0000 C   0  0  0  0  0  0  0  0  0  0  0  0
    9.8980   -6.4489    0.0000 C   0  0  0  0  0  0  0  0  0  0  0  0
    9.1803   -6.0422    0.0000 C   0  0  0  0  0  0  0  0  0  0  0  0
    4.0640   -7.3381    0.0000 O   0  0  0  0  0  0  0  0  0  0  0  0
    8.4691   -6.4605    0.0000 N   0  0  0  0  0  0  0  0  0  0  0  0
    8.5019   -7.3880    0.0000 C   0  0  0  0  0  0  0  0  0  0  0  0
    7.7275   -7.7550    0.0000 C   0  0  0  0  0  0  0  0  0  0  0  0
    6.9285   -8.1399    0.0000 C   0  0  0  0  0  0  0  0  0  0  0  0
    7.6463   -8.5466    0.0000 C   0  0  0  0  0  0  0  0  0  0  0  0
    8.3574   -8.1283    0.0000 C   0  0  0  0  0  0  0  0  0  0  0  0
    8.3507   -7.3034    0.0000 C   0  0  0  0  0  0  0  0  0  0  0  0
    7.6329   -6.8967    0.0000 C   0  0  1  0  0  0  0  0  0  0  0  0
    7.6262   -6.0717    0.0000 C   0  0  1  0  0  0  0  0  0  0  0  0
    6.9084   -5.6650    0.0000 C   0  0  0  0  0  0  0  0  0  0  0  0
    6.1973   -6.0833    0.0000 C   0  0  0  0  0  0  0  0  0  0  0  0
    5.4795   -5.6766    0.0000 C   0  0  0  0  0  0  0  0  0  0  0  0
    4.7684   -6.0949    0.0000 C   0  0  0  0  0  0  0  0  0  0  0  0
    4.7751   -6.9198    0.0000 C   0  0  0  0  0  0  0  0  0  0  0  0
    5.4929   -7.3265    0.0000 C   0  0  0  0  0  0  0  0  0  0  0  0
    6.2040   -6.9083    0.0000 C   0  0  0  0  0  0  0  0  0  0  0  0
    6.9218   -7.3150    0.0000 C   0  0  2  0  0  0  0  0  0  0  0  0
 14  1  1  1  0  0  0
 15  2  1  6  0  0  0
  7  5  1  0  0  0  0
  4  3  2  0  0  0  0
  5  4  1  0  0  0  0
 20  6  1  0  0  0  0
 22 17  2  0  0  0  0
 23 14  1  0  0  0  0
 15  7  1  0  0  0  0
 23  9  1  0  0  0  0
 23 10  1  6  0  0  0
  8  7  1  0  0  0  0
  9  8  1  0  0  0  0
 11 10  1  0  0  0  0
 12 11  1  0  0  0  0
 13 12  1  0  0  0  0
 14 13  1  0  0  0  0
 15 14  1  0  0  0  0
 16 15  1  0  0  0  0
 17 16  1  0  0  0  0
 18 17  1  0  0  0  0
 19 18  2  0  0  0  0
 20 19  1  0  0  0  0
 21 20  2  0  0  0  0
 22 21  1  0  0  0  0
 23 22  1  0  0  0  0
M  END
>  <cdx:fragmentId>
24389

$$$$
