359485.cdx
  Mrv1902 05222410252D          

 19 21  0  0  0  0            999 V2000
    6.2602   -5.4681    0.0000 C   0  0  0  0  0  0  0  0  0  0  0  0
    6.2602   -6.2763    0.0000 C   0  0  0  0  0  0  0  0  0  0  0  0
    6.9726   -6.6924    0.0000 C   0  0  0  0  0  0  0  0  0  0  0  0
    5.5477   -6.6924    0.0000 C   0  0  0  0  0  0  0  0  0  0  0  0
    7.6849   -6.2763    0.0000 C   0  0  0  0  0  0  0  0  0  0  0  0
    6.9726   -7.5245    0.0000 C   0  0  0  0  0  0  0  0  0  0  0  0
    5.5477   -7.5245    0.0000 C   0  0  0  0  0  0  0  0  0  0  0  0
    8.3974   -6.6924    0.0000 C   0  0  0  0  0  0  0  0  0  0  0  0
    7.6849   -5.4441    0.0000 C   0  0  0  0  0  0  0  0  0  0  0  0
    7.6849   -7.9376    0.0000 O   0  0  0  0  0  0  0  0  0  0  0  0
    6.2602   -7.9376    0.0000 C   0  0  0  0  0  0  0  0  0  0  0  0
    4.8563   -7.9226    0.0000 O   0  0  0  0  0  0  0  0  0  0  0  0
    8.3974   -7.5245    0.0000 C   0  0  0  0  0  0  0  0  0  0  0  0
    9.1099   -6.2763    0.0000 C   0  0  0  0  0  0  0  0  0  0  0  0
    8.3974   -5.0281    0.0000 C   0  0  0  0  0  0  0  0  0  0  0  0
    9.0888   -7.9226    0.0000 O   0  0  0  0  0  0  0  0  0  0  0  0
    9.8012   -6.6774    0.0000 O   0  0  0  0  0  0  0  0  0  0  0  0
    9.1099   -5.4441    0.0000 C   0  0  0  0  0  0  0  0  0  0  0  0
    8.3974   -4.2229    0.0000 O   0  0  0  0  0  0  0  0  0  0  0  0
  1  2  1  0  0  0  0
  2  3  2  0  0  0  0
  2  4  1  0  0  0  0
  3  5  1  0  0  0  0
  3  6  1  0  0  0  0
  4  7  2  0  0  0  0
  5  8  2  0  0  0  0
  5  9  1  0  0  0  0
  6 10  1  0  0  0  0
  6 11  2  0  0  0  0
  7 11  1  0  0  0  0
  7 12  1  0  0  0  0
  8 13  1  0  0  0  0
  8 14  1  0  0  0  0
  9 15  2  0  0  0  0
 10 13  1  0  0  0  0
 13 16  2  0  0  0  0
 14 17  1  0  0  0  0
 14 18  2  0  0  0  0
 15 18  1  0  0  0  0
 15 19  1  0  0  0  0
M  END
>  <cdx:fragmentId>
24541

$$$$
