45359883.cdx
  Mrv1902 05222410222D          

 43 47  0  0  0  0            999 V2000
    6.2958  -15.2702    0.0000 C   0  0  0  0  0  0  0  0  0  0  0  0
    6.2958  -16.0952    0.0000 C   0  0  0  0  0  0  0  0  0  0  0  0
    7.0103  -16.5077    0.0000 C   0  0  0  0  0  0  0  0  0  0  0  0
    7.0103  -17.3327    0.0000 C   0  0  0  0  0  0  0  0  0  0  0  0
    6.2958  -17.7452    0.0000 C   0  0  0  0  0  0  0  0  0  0  0  0
    5.5814  -17.3327    0.0000 C   0  0  0  0  0  0  0  0  0  0  0  0
    5.5814  -16.5077    0.0000 C   0  0  0  0  0  0  0  0  0  0  0  0
    5.5814  -14.8577    0.0000 O   0  0  0  0  0  0  0  0  0  0  0  0
    7.0103  -14.8577    0.0000 O   0  0  0  0  0  0  0  0  0  0  0  0
    4.8669  -16.0952    0.0000 C   0  0  0  0  0  0  0  0  0  0  0  0
    4.1524  -16.5077    0.0000 C   0  0  0  0  0  0  0  0  0  0  0  0
    3.4380  -16.0952    0.0000 C   0  0  0  0  0  0  0  0  0  0  0  0
    3.4380  -15.2702    0.0000 C   0  0  0  0  0  0  0  0  0  0  0  0
    4.1524  -14.8577    0.0000 C   0  0  0  0  0  0  0  0  0  0  0  0
    4.8669  -15.2702    0.0000 C   0  0  0  0  0  0  0  0  0  0  0  0
    2.7235  -16.5077    0.0000 O   0  0  0  0  0  0  0  0  0  0  0  0
    6.2958  -18.5702    0.0000 O   0  0  0  0  0  0  0  0  0  0  0  0
    7.7248  -16.0952    0.0000 O   0  0  0  0  0  0  0  0  0  0  0  0
    7.7248  -12.7952    0.0000 O   0  0  0  0  0  0  0  0  0  0  0  0
    7.7248  -13.6202    0.0000 C   0  0  2  0  0  0  0  0  0  0  0  0
    7.0103  -14.0327    0.0000 C   0  0  1  0  0  0  0  0  0  0  0  0
    6.2958  -13.6202    0.0000 C   0  0  2  0  0  0  0  0  0  0  0  0
    6.2958  -12.7952    0.0000 C   0  0  1  0  0  0  0  0  0  0  0  0
    7.0103  -12.3827    0.0000 C   0  0  1  0  0  0  0  0  0  0  0  0
    7.0103  -11.5577    0.0000 C   0  0  0  0  0  0  0  0  0  0  0  0
    6.2958  -11.1452    0.0000 O   0  0  0  0  0  0  0  0  0  0  0  0
    5.5814  -12.3827    0.0000 O   0  0  0  0  0  0  0  0  0  0  0  0
    5.5814  -14.0327    0.0000 O   0  0  0  0  0  0  0  0  0  0  0  0
    8.4393  -14.0327    0.0000 O   0  0  0  0  0  0  0  0  0  0  0  0
    9.8682  -12.3827    0.0000 C   0  0  0  0  0  0  0  0  0  0  0  0
   10.5827  -12.7952    0.0000 C   0  0  0  0  0  0  0  0  0  0  0  0
   10.5827  -13.6202    0.0000 C   0  0  2  0  0  0  0  0  0  0  0  0
    9.8682  -14.0327    0.0000 C   0  0  2  0  0  0  0  0  0  0  0  0
    9.1537  -13.6202    0.0000 C   0  0  1  0  0  0  0  0  0  0  0  0
    9.1537  -12.7952    0.0000 O   0  0  0  0  0  0  0  0  0  0  0  0
   11.2971  -12.3827    0.0000 C   0  0  0  0  0  0  0  0  0  0  0  0
   11.2971  -14.0327    0.0000 C   0  0  0  0  0  0  0  0  0  0  0  0
   12.0116  -13.6202    0.0000 C   0  0  0  0  0  0  0  0  0  0  0  0
   12.0116  -12.7952    0.0000 O   0  0  0  0  0  0  0  0  0  0  0  0
   11.2971  -11.5577    0.0000 O   0  0  0  0  0  0  0  0  0  0  0  0
   10.5827  -14.4452    0.0000 O   0  0  0  0  0  0  0  0  0  0  0  0
    9.8682  -14.8577    0.0000 C   0  0  0  0  0  0  0  0  0  0  0  0
    9.1537  -15.2702    0.0000 C   0  0  0  0  0  0  0  0  0  0  0  0
  1  2  1  0  0  0  0
  2  3  1  0  0  0  0
  3  4  2  0  0  0  0
  4  5  1  0  0  0  0
  5  6  2  0  0  0  0
  6  7  1  0  0  0  0
  2  7  2  0  0  0  0
  1  8  2  0  0  0  0
  1  9  1  0  0  0  0
 10 11  1  0  0  0  0
 11 12  2  0  0  0  0
 12 13  1  0  0  0  0
 13 14  2  0  0  0  0
 14 15  1  0  0  0  0
 10 15  2  0  0  0  0
 12 16  1  0  0  0  0
  7 10  1  0  0  0  0
  5 17  1  0  0  0  0
  3 18  1  0  0  0  0
 19 20  1  0  0  0  0
 20 21  1  0  0  0  0
 21 22  1  0  0  0  0
 22 23  1  0  0  0  0
 23 24  1  0  0  0  0
 19 24  1  0  0  0  0
 25 26  1  0  0  0  0
 24 25  1  1  0  0  0
 23 27  1  6  0  0  0
 22 28  1  1  0  0  0
 30 31  2  0  0  0  0
 31 32  1  0  0  0  0
 32 33  1  0  0  0  0
 33 34  1  0  0  0  0
 34 35  1  0  0  0  0
 30 35  1  0  0  0  0
 37 38  1  0  0  0  0
 38 39  1  0  0  0  0
 36 39  1  0  0  0  0
 36 31  1  0  0  0  0
 37 32  1  0  0  0  0
 36 40  2  0  0  0  0
 32 41  1  6  0  0  0
 42 43  2  0  0  0  0
 33 42  1  1  0  0  0
 34 29  1  6  0  0  0
 20 29  1  1  0  0  0
 21  9  1  6  0  0  0
M  END
>  <cdx:groupId>
173211

>  <cdx:fragmentId>
173139

$$$$
