102359988.cdx
  Mrv1902 05222410272D          

 43 49  0  0  0  0            999 V2000
    6.1847  -14.7508    0.0000 C   0  0  2  0  0  0  0  0  0  0  0  0
    4.8606  -15.8339    0.0000 C   0  0  1  0  0  0  0  0  0  0  0  0
    4.8476  -15.0099    0.0000 O   0  0  0  0  0  0  0  0  0  0  0  0
    5.2785  -14.3064    0.0000 C   0  0  0  0  0  0  0  0  0  0  0  0
    6.0190  -13.9426    0.0000 C   0  0  1  0  0  0  0  0  0  0  0  0
    6.7364  -13.5352    0.0000 C   0  0  0  0  0  0  0  0  0  0  0  0
    7.3455  -14.0916    0.0000 C   0  0  0  0  0  0  0  0  0  0  0  0
    8.1666  -14.0112    0.0000 C   0  0  2  0  0  0  0  0  0  0  0  0
    8.5075  -13.2600    0.0000 C   0  0  1  0  0  0  0  0  0  0  0  0
    8.0274  -12.5891    0.0000 C   0  0  0  0  0  0  0  0  0  0  0  0
    8.3683  -11.8378    0.0000 C   0  0  0  0  0  0  0  0  0  0  0  0
    9.1894  -11.7575    0.0000 C   0  0  0  0  0  0  0  0  0  0  0  0
    9.6695  -12.4284    0.0000 C   0  0  0  0  0  0  0  0  0  0  0  0
    9.3286  -13.1796    0.0000 C   0  0  2  0  0  0  0  0  0  0  0  0
    9.8087  -13.8505    0.0000 C   0  0  0  0  0  0  0  0  0  0  0  0
    9.4678  -14.6018    0.0000 C   0  0  0  0  0  0  0  0  0  0  0  0
    8.6467  -14.6821    0.0000 C   0  0  1  0  0  0  0  0  0  0  0  0
    8.3058  -15.4334    0.0000 C   0  0  1  0  0  0  0  0  0  0  0  0
    8.2015  -16.2518    0.0000 O   0  0  0  0  0  0  0  0  0  0  0  0
    7.3910  -16.4055    0.0000 C   0  0  0  0  0  0  0  0  0  0  0  0
    6.7130  -16.8756    0.0000 C   0  0  1  0  0  0  0  0  0  0  0  0
    6.6088  -17.6940    0.0000 C   0  0  0  0  0  0  0  0  0  0  0  0
    5.8479  -18.0129    0.0000 O   0  0  0  0  0  0  0  0  0  0  0  0
    5.1913  -17.5134    0.0000 C   0  0  2  0  0  0  0  0  0  0  0  0
    5.2955  -16.6950    0.0000 C   0  0  0  0  0  0  0  0  0  0  0  0
    6.0564  -16.3761    0.0000 C   0  0  1  0  0  0  0  0  0  0  0  0
    6.3286  -15.5973    0.0000 C   0  0  0  0  0  0  0  0  0  0  0  0
    7.0046  -14.8429    0.0000 O   0  0  0  0  0  0  0  0  0  0  0  0
    7.4847  -15.5138    0.0000 C   0  0  0  0  0  0  0  0  0  0  0  0
    4.7229  -13.6966    0.0000 O   0  0  0  0  0  0  0  0  0  0  0  0
    7.2063  -12.6695    0.0000 O   0  0  0  0  0  0  0  0  0  0  0  0
    7.2654  -18.1935    0.0000 O   0  0  0  0  0  0  0  0  0  0  0  0
    6.9074  -16.1031    0.0000 O   0  0  0  0  0  0  0  0  0  0  0  0
    5.4556  -15.8107    0.0000 C   0  0  0  0  0  0  0  0  0  0  0  0
    7.7085  -13.0547    0.0000 C   0  0  0  0  0  0  0  0  0  0  0  0
    4.0401  -15.9204    0.0000 C   0  0  0  0  0  0  0  0  0  0  0  0
   10.1497  -13.0992    0.0000 O   0  0  0  0  0  0  0  0  0  0  0  0
    5.6065  -13.2281    0.0000 O   0  0  0  0  0  0  0  0  0  0  0  0
    7.4859  -13.5450    0.0000 H   0  0  0  0  0  0  0  0  0  0  0  0
    9.2361  -15.2594    0.0000 H   0  0  0  0  0  0  0  0  0  0  0  0
    9.0483  -15.7929    0.0000 H   0  0  0  0  0  0  0  0  0  0  0  0
    7.4275  -17.2881    0.0000 H   0  0  0  0  0  0  0  0  0  0  0  0
    4.4768  -17.9259    0.0000 H   0  0  0  0  0  0  0  0  0  0  0  0
  1  2  1  0  0  0  0
  2  3  1  0  0  0  0
  3  4  1  0  0  0  0
  4  5  1  0  0  0  0
  5  6  1  0  0  0  0
  6  7  1  0  0  0  0
  7  8  1  0  0  0  0
  8  9  1  0  0  0  0
  9 10  1  0  0  0  0
 10 11  1  0  0  0  0
 11 12  2  0  0  0  0
 12 13  1  0  0  0  0
 13 14  1  0  0  0  0
 14 15  1  0  0  0  0
 15 16  2  0  0  0  0
 16 17  1  0  0  0  0
 17 18  1  0  0  0  0
 18 19  1  0  0  0  0
 19 20  1  0  0  0  0
 20 21  1  0  0  0  0
 21 22  1  0  0  0  0
 22 23  1  0  0  0  0
 23 24  1  0  0  0  0
 24 25  1  6  0  0  0
 25 26  1  0  0  0  0
 26 27  1  0  0  0  0
 28 29  1  0  0  0  0
  1 27  1  6  0  0  0
  1 28  1  0  0  0  0
 18 29  1  6  0  0  0
 21 26  1  0  0  0  0
  2 24  1  0  0  0  0
  8 17  1  0  0  0  0
  9 14  1  0  0  0  0
  1  5  1  0  0  0  0
  4 30  2  0  0  0  0
 10 31  2  0  0  0  0
 22 32  2  0  0  0  0
 29 33  2  0  0  0  0
 26 34  1  6  0  0  0
  9 35  1  6  0  0  0
  2 36  1  1  0  0  0
 14 37  1  1  0  0  0
  5 38  1  6  0  0  0
  8 39  1  1  0  0  0
 17 40  1  6  0  0  0
 18 41  1  0  0  0  0
 21 42  1  6  0  0  0
 24 43  1  0  0  0  0
M  END
>  <cdx:groupId>
37327

>  <cdx:fragmentId>
37195

$$$$
