36.cdx
  Mrv1902 05222410282D          

 44 49  0  0  0  0            999 V2000
   14.4023  -10.0011    0.0000 C   0  0  0  0  0  0  0  0  0  0  0  0
   14.4023  -10.8261    0.0000 C   0  0  1  0  0  0  0  0  0  0  0  0
   15.1167  -11.2386    0.0000 C   0  0  0  0  0  0  0  0  0  0  0  0
   15.8312  -10.8261    0.0000 C   0  0  2  0  0  0  0  0  0  0  0  0
   15.8312  -10.0011    0.0000 C   0  0  2  0  0  0  0  0  0  0  0  0
   15.1167   -9.5886    0.0000 C   0  0  0  0  0  0  0  0  0  0  0  0
   16.5457  -11.2386    0.0000 C   0  0  0  0  0  0  0  0  0  0  0  0
   17.2601  -10.8261    0.0000 C   0  0  0  0  0  0  0  0  0  0  0  0
   17.2601  -10.0011    0.0000 C   0  0  2  0  0  0  0  0  0  0  0  0
   16.5457   -9.5886    0.0000 C   0  0  2  0  0  0  0  0  0  0  0  0
   17.9746   -9.5886    0.0000 C   0  0  2  0  0  0  0  0  0  0  0  0
   17.9746   -8.7636    0.0000 C   0  0  2  0  0  0  0  0  0  0  0  0
   17.2601   -8.3511    0.0000 C   0  0  2  0  0  0  0  0  0  0  0  0
   16.5457   -8.7636    0.0000 C   0  0  0  0  0  0  0  0  0  0  0  0
   18.7592   -9.8436    0.0000 C   0  0  1  0  0  0  0  0  0  0  0  0
   19.2442   -9.1761    0.0000 C   0  0  2  0  0  0  0  0  0  0  0  0
   18.7592   -8.5087    0.0000 C   0  0  2  0  0  0  0  0  0  0  0  0
   19.0142   -7.7241    0.0000 C   0  0  0  0  0  0  0  0  0  0  0  0
   19.8211   -7.5526    0.0000 C   0  0  0  0  0  0  0  0  0  0  0  0
   18.4621   -7.1110    0.0000 C   0  0  0  0  0  0  0  0  0  0  0  0
   20.0761   -6.7679    0.0000 C   0  0  0  0  0  0  0  0  0  0  0  0
   18.7171   -6.3264    0.0000 O   0  0  0  0  0  0  0  0  0  0  0  0
   19.5240   -6.1548    0.0000 C   0  0  0  0  0  0  0  0  0  0  0  0
   19.7790   -5.3702    0.0000 O   0  0  0  0  0  0  0  0  0  0  0  0
   13.6878  -11.2386    0.0000 O   0  0  0  0  0  0  0  0  0  0  0  0
   15.8312   -9.1761    0.0000 C   0  0  0  0  0  0  0  0  0  0  0  0
   15.8312  -11.6511    0.0000 H   0  0  0  0  0  0  0  0  0  0  0  0
   17.2601   -7.5261    0.0000 H   0  0  0  0  0  0  0  0  0  0  0  0
   18.0608   -7.9432    0.0000 C   0  0  0  0  0  0  0  0  0  0  0  0
   20.0692   -9.1761    0.0000 H   0  0  0  0  0  0  0  0  0  0  0  0
   18.0608  -10.4091    0.0000 O   0  0  0  0  0  0  0  0  0  0  0  0
   12.9733  -10.8261    0.0000 C   0  0  0  0  0  0  0  0  0  0  0  0
   12.2588  -11.2386    0.0000 C   0  0  0  0  0  0  0  0  0  0  0  0
   12.9733  -10.0011    0.0000 O   0  0  0  0  0  0  0  0  0  0  0  0
   11.5444  -10.8261    0.0000 C   0  0  0  0  0  0  0  0  0  0  0  0
   10.8299  -11.2386    0.0000 C   0  0  0  0  0  0  0  0  0  0  0  0
   10.1154  -10.8261    0.0000 C   0  0  0  0  0  0  0  0  0  0  0  0
    9.4010  -11.2386    0.0000 C   0  0  0  0  0  0  0  0  0  0  0  0
    8.6865  -10.8261    0.0000 C   0  0  0  0  0  0  0  0  0  0  0  0
    7.9720  -11.2386    0.0000 C   0  0  0  0  0  0  0  0  0  0  0  0
    7.2575  -10.8261    0.0000 O   0  0  0  0  0  0  0  0  0  0  0  0
    7.9720  -12.0636    0.0000 O   0  0  0  0  0  0  0  0  0  0  0  0
   16.5457  -10.4136    0.0000 H   0  0  0  0  0  0  0  0  0  0  0  0
   17.2601   -9.1761    0.0000 H   0  0  0  0  0  0  0  0  0  0  0  0
  1  2  1  0  0  0  0
  2  3  1  0  0  0  0
  3  4  1  0  0  0  0
  4  5  1  0  0  0  0
  5  6  1  0  0  0  0
  6  1  1  0  0  0  0
  4  7  1  0  0  0  0
  7  8  1  0  0  0  0
  8  9  1  0  0  0  0
  9 10  1  0  0  0  0
 10  5  1  0  0  0  0
  9 11  1  0  0  0  0
 11 12  1  0  0  0  0
 12 13  1  0  0  0  0
 13 14  1  0  0  0  0
 14 10  1  0  0  0  0
 11 15  1  0  0  0  0
 15 16  1  0  0  0  0
 16 17  1  0  0  0  0
 17 12  1  0  0  0  0
 17 18  1  1  0  0  0
 18 19  1  0  0  0  0
 18 20  2  0  0  0  0
 19 21  2  0  0  0  0
 20 22  1  0  0  0  0
 21 23  1  0  0  0  0
 22 23  1  0  0  0  0
 23 24  2  0  0  0  0
  2 25  1  1  0  0  0
  5 26  1  1  0  0  0
  4 27  1  1  0  0  0
 13 28  1  1  0  0  0
 12 29  1  1  0  0  0
 16 30  1  1  0  0  0
 11 31  1  1  0  0  0
 15 31  1  1  0  0  0
 25 32  1  0  0  0  0
 32 33  1  0  0  0  0
 32 34  2  0  0  0  0
 33 35  1  0  0  0  0
 35 36  1  0  0  0  0
 36 37  1  0  0  0  0
 37 38  1  0  0  0  0
 38 39  1  0  0  0  0
 39 40  1  0  0  0  0
 40 41  1  0  0  0  0
 40 42  2  0  0  0  0
 10 43  1  6  0  0  0
  9 44  1  1  0  0  0
M  END
>  <cdx:fragmentId>
206

$$$$
