360253.cdx
  Mrv1902 05222410202D          

 16 16  0  0  0  0            999 V2000
    6.8213   -6.3666    0.0000 C   0  0  0  0  0  0  0  0  0  0  0  0
    7.5370   -6.7770    0.0000 C   0  0  0  0  0  0  0  0  0  0  0  0
    8.2502   -6.3623    0.0000 C   0  0  0  0  0  0  0  0  0  0  0  0
    8.2478   -5.5373    0.0000 C   0  0  0  0  0  0  0  0  0  0  0  0
    8.9610   -5.1227    0.0000 C   0  0  0  0  0  0  0  0  0  0  0  0
    8.9586   -4.2977    0.0000 C   0  0  0  0  0  0  0  0  0  0  0  0
    8.2429   -3.8874    0.0000 C   0  0  0  0  0  0  0  0  0  0  0  0
    7.5467  -10.0769    0.0000 C   0  0  0  0  0  0  0  0  0  0  0  0
    9.6718   -3.8831    0.0000 C   0  0  0  0  0  0  0  0  0  0  0  0
    6.1105   -7.6062    0.0000 O   0  0  0  0  0  0  0  0  0  0  0  0
    6.8286   -8.8416    0.0000 C   0  0  0  0  0  0  0  0  0  0  0  0
    7.5443   -9.2519    0.0000 C   0  0  0  0  0  0  0  0  0  0  0  0
    8.2575   -8.8373    0.0000 C   0  0  0  0  0  0  0  0  0  0  0  0
    8.2551   -8.0123    0.0000 C   0  0  0  0  0  0  0  0  0  0  0  0
    7.5394   -7.6020    0.0000 C   0  0  0  0  0  0  0  0  0  0  0  0
    6.8262   -8.0166    0.0000 C   0  0  0  0  0  0  0  0  0  0  0  0
 12  8  1  0  0  0  0
 15  2  1  0  0  0  0
 16 10  1  0  0  0  0
 16 11  2  0  0  0  0
 12 11  1  0  0  0  0
 13 12  2  0  0  0  0
 14 13  1  0  0  0  0
 15 14  2  0  0  0  0
 16 15  1  0  0  0  0
  2  1  1  0  0  0  0
  2  3  1  0  0  0  0
  3  4  1  0  0  0  0
  4  5  1  0  0  0  0
  5  6  2  0  0  0  0
  6  7  1  0  0  0  0
  6  9  1  0  0  0  0
M  END
>  <cdx:fragmentId>
17

$$$$
