57360392.cdx
  Mrv1902 05222410222D          

  8  7  0  0  0  0            999 V2000
    8.9507   -3.8604    0.0000 C   0  0  0  0  0  0  0  0  0  0  0  0
    8.2362   -4.2729    0.0000 C   0  0  0  0  0  0  0  0  0  0  0  0
    8.9507   -3.0354    0.0000 O   0  0  0  0  0  0  0  0  0  0  0  0
    9.6652   -4.2729    0.0000 O   0  5  0  0  0  0  0  0  0  0  0  0
    7.5218   -3.8604    0.0000 S   0  0  0  0  0  0  0  0  0  0  0  0
    6.8073   -4.2729    0.0000 C   0  0  0  0  0  0  0  0  0  0  0  0
    6.0928   -3.8604    0.0000 C   0  0  0  0  0  0  0  0  0  0  0  0
    5.3784   -4.2729    0.0000 C   0  0  0  0  0  0  0  0  0  0  0  0
  1  2  1  0  0  0  0
  1  3  2  0  0  0  0
  1  4  1  0  0  0  0
  6  7  1  0  0  0  0
  7  8  1  0  0  0  0
  5  6  1  0  0  0  0
  2  5  1  0  0  0  0
M  CHG  1   4  -1
M  END
>  <cdx:groupId>
29

>  <cdx:fragmentId>
19

$$$$
