45360314.cdx
  Mrv1902 05222410272D          

 23 25  0  0  0  0            999 V2000
    5.6069  -15.3192    0.0000 C   0  0  0  0  0  0  0  0  0  0  0  0
    5.6069  -16.1442    0.0000 C   0  0  0  0  0  0  0  0  0  0  0  0
    6.3214  -16.5567    0.0000 C   0  0  0  0  0  0  0  0  0  0  0  0
    7.0358  -16.1442    0.0000 C   0  0  0  0  0  0  0  0  0  0  0  0
    7.7503  -16.5567    0.0000 C   0  0  0  0  0  0  0  0  0  0  0  0
    8.4648  -16.1442    0.0000 C   0  0  0  0  0  0  0  0  0  0  0  0
    8.4648  -15.3192    0.0000 C   0  0  0  0  0  0  0  0  0  0  0  0
    7.7503  -14.9067    0.0000 C   0  0  0  0  0  0  0  0  0  0  0  0
    7.0358  -15.3192    0.0000 C   0  0  0  0  0  0  0  0  0  0  0  0
    6.3214  -14.9067    0.0000 O   0  0  0  0  0  0  0  0  0  0  0  0
    9.2494  -15.0643    0.0000 O   0  0  0  0  0  0  0  0  0  0  0  0
    9.2494  -16.3992    0.0000 C   0  0  0  0  0  0  0  0  0  0  0  0
    9.7343  -15.7317    0.0000 C   0  0  0  0  0  0  0  0  0  0  0  0
    4.8924  -14.9067    0.0000 O   0  0  0  0  0  0  0  0  0  0  0  0
    7.7503  -17.3817    0.0000 O   0  0  0  0  0  0  0  0  0  0  0  0
    8.4648  -17.7942    0.0000 C   0  0  0  0  0  0  0  0  0  0  0  0
    7.7503  -14.0817    0.0000 C   0  0  0  0  0  0  0  0  0  0  0  0
    8.4648  -13.6692    0.0000 C   0  0  0  0  0  0  0  0  0  0  0  0
    8.4648  -12.8442    0.0000 C   0  0  0  0  0  0  0  0  0  0  0  0
    7.7503  -12.4317    0.0000 C   0  0  0  0  0  0  0  0  0  0  0  0
    9.1793  -12.4317    0.0000 C   0  0  0  0  0  0  0  0  0  0  0  0
    8.4648  -12.0192    0.0000 O   0  0  0  0  0  0  0  0  0  0  0  0
    9.1793  -14.0817    0.0000 O   0  0  0  0  0  0  0  0  0  0  0  0
  1  2  1  0  0  0  0
  2  3  2  0  0  0  0
  3  4  1  0  0  0  0
  4  5  2  0  0  0  0
  5  6  1  0  0  0  0
  6  7  2  0  0  0  0
  7  8  1  0  0  0  0
  8  9  2  0  0  0  0
  4  9  1  0  0  0  0
  9 10  1  0  0  0  0
  1 10  1  0  0  0  0
 12 13  2  0  0  0  0
 11 13  1  0  0  0  0
 12  6  1  0  0  0  0
 11  7  1  0  0  0  0
  1 14  2  0  0  0  0
 15 16  1  0  0  0  0
  5 15  1  0  0  0  0
 17 18  1  0  0  0  0
 18 19  1  0  0  0  0
 19 20  1  0  0  0  0
 19 21  1  0  0  0  0
 19 22  1  0  0  0  0
 18 23  1  0  0  0  0
  8 17  1  0  0  0  0
M  END
>  <cdx:groupId>
173432

>  <cdx:fragmentId>
173364

$$$$
