10360513.cdx
  Mrv1902 05222410272D          

 27 28  0  0  0  0            999 V2000
   10.8416  -15.2573    0.0000 C   0  0  0  0  0  0  0  0  0  0  0  0
   11.5561  -14.8448    0.0000 C   0  0  0  0  0  0  0  0  0  0  0  0
   10.8416  -16.0823    0.0000 O   0  0  0  0  0  0  0  0  0  0  0  0
   10.1271  -14.8448    0.0000 O   0  0  0  0  0  0  0  0  0  0  0  0
    9.4127  -15.2573    0.0000 C   0  0  0  0  0  0  0  0  0  0  0  0
    8.6982  -14.8448    0.0000 C   0  0  0  0  0  0  0  0  0  0  0  0
    7.9837  -15.2573    0.0000 C   0  0  0  0  0  0  0  0  0  0  0  0
    7.2693  -14.8448    0.0000 C   0  0  2  0  0  0  0  0  0  0  0  0
    7.2693  -14.0198    0.0000 C   0  0  0  0  0  0  0  0  0  0  0  0
    4.3412  -16.3373    0.0000 O   0  0  0  0  0  0  0  0  0  0  0  0
    3.8563  -15.6698    0.0000 C   0  0  0  0  0  0  0  0  0  0  0  0
    4.3412  -15.0024    0.0000 C   0  0  0  0  0  0  0  0  0  0  0  0
    5.1258  -15.2573    0.0000 C   0  0  1  0  0  0  0  0  0  0  0  0
    5.8403  -14.8448    0.0000 C   0  0  2  0  0  0  0  0  0  0  0  0
    6.5548  -15.2573    0.0000 C   0  0  0  0  0  0  0  0  0  0  0  0
    6.5548  -16.0823    0.0000 C   0  0  0  0  0  0  0  0  0  0  0  0
    5.8403  -16.4948    0.0000 C   0  0  0  0  0  0  0  0  0  0  0  0
    5.1258  -16.0823    0.0000 C   0  0  1  0  0  0  0  0  0  0  0  0
    3.0313  -15.6698    0.0000 O   0  0  0  0  0  0  0  0  0  0  0  0
    4.0863  -14.2178    0.0000 C   0  0  0  0  0  0  0  0  0  0  0  0
    7.2693  -16.4948    0.0000 C   0  0  0  0  0  0  0  0  0  0  0  0
    5.8403  -13.7723    0.0000 O   0  0  0  0  0  0  0  0  0  0  0  0
    5.1258  -13.3598    0.0000 C   0  0  0  0  0  0  0  0  0  0  0  0
    5.1258  -12.5348    0.0000 O   0  0  0  0  0  0  0  0  0  0  0  0
    4.4114  -13.7723    0.0000 C   0  0  0  0  0  0  0  0  0  0  0  0
    5.0396  -14.4368    0.0000 H   0  0  0  0  0  0  0  0  0  0  0  0
    5.0396  -16.9028    0.0000 H   0  0  0  0  0  0  0  0  0  0  0  0
  1  2  1  0  0  0  0
  1  3  2  0  0  0  0
  1  4  1  0  0  0  0
  5  6  1  0  0  0  0
  6  7  1  0  0  0  0
  7  8  1  0  0  0  0
  8  9  1  1  0  0  0
 10 11  1  0  0  0  0
 11 12  1  0  0  0  0
 12 13  1  0  0  0  0
 13 14  1  0  0  0  0
 14 15  1  0  0  0  0
 15 16  2  0  0  0  0
 16 17  1  0  0  0  0
 17 18  1  0  0  0  0
 13 18  1  0  0  0  0
 10 18  1  0  0  0  0
 11 19  2  0  0  0  0
 12 20  2  0  0  0  0
 16 21  1  0  0  0  0
 23 24  2  0  0  0  0
 23 25  1  0  0  0  0
 22 23  1  0  0  0  0
 14 22  1  1  0  0  0
  8 15  1  0  0  0  0
  4  5  1  0  0  0  0
 13 26  1  6  0  0  0
 18 27  1  6  0  0  0
M  END
>  <cdx:groupId>
46991

>  <cdx:fragmentId>
46930

$$$$
