3608.cdx
  Mrv1902 05222410212D          

 36 39  0  0  0  0            999 V2000
    9.9754   -5.8922    0.0000 C   0  0  0  0  0  0  0  0  0  0  0  0
    9.7205   -6.6768    0.0000 C   0  0  0  0  0  0  0  0  0  0  0  0
    8.9135   -6.8484    0.0000 C   0  0  0  0  0  0  0  0  0  0  0  0
    8.3615   -6.2353    0.0000 C   0  0  0  0  0  0  0  0  0  0  0  0
   11.0373   -4.9361    0.0000 O   0  0  0  0  0  0  0  0  0  0  0  0
    5.0160   -8.7129    0.0000 C   0  0  0  0  0  0  0  0  0  0  0  0
    4.3016   -9.1254    0.0000 C   0  0  0  0  0  0  0  0  0  0  0  0
    4.3016   -9.9504    0.0000 C   0  0  1  0  0  0  0  0  0  0  0  0
    5.0160  -10.3629    0.0000 C   0  0  0  0  0  0  0  0  0  0  0  0
    5.7305   -9.9504    0.0000 C   0  0  2  0  0  0  0  0  0  0  0  0
    6.4450  -10.3629    0.0000 C   0  0  0  0  0  0  0  0  0  0  0  0
    7.1595   -9.9504    0.0000 C   0  0  1  0  0  0  0  0  0  0  0  0
    7.1595   -9.1254    0.0000 C   0  0  0  0  0  0  0  0  0  0  0  0
    7.8739   -8.7129    0.0000 C   0  0  2  0  0  0  0  0  0  0  0  0
    8.6585   -8.9679    0.0000 C   0  0  0  0  0  0  0  0  0  0  0  0
    9.1435   -8.3004    0.0000 C   0  0  0  0  0  0  0  0  0  0  0  0
    8.6585   -7.6330    0.0000 C   0  0  1  0  0  0  0  0  0  0  0  0
    7.8739   -7.8879    0.0000 C   0  0  1  0  0  0  0  0  0  0  0  0
    7.1595   -7.4754    0.0000 C   0  0  0  0  0  0  0  0  0  0  0  0
    6.4450   -7.8879    0.0000 C   0  0  0  0  0  0  0  0  0  0  0  0
    6.4450   -8.7129    0.0000 C   0  0  0  0  0  0  0  0  0  0  0  0
    5.7305   -9.1254    0.0000 C   0  0  1  0  0  0  0  0  0  0  0  0
    8.9135   -9.7525    0.0000 O   0  0  0  0  0  0  0  0  0  0  0  0
    5.7305   -7.4754    0.0000 O   0  0  0  0  0  0  0  0  0  0  0  0
    7.8739   -9.5150    0.0000 C   0  0  0  0  0  0  0  0  0  0  0  0
    7.8739   -7.0916    0.0000 C   0  0  0  0  0  0  0  0  0  0  0  0
    5.7305   -8.3004    0.0000 C   0  0  0  0  0  0  0  0  0  0  0  0
    5.4285  -11.0774    0.0000 C   0  0  0  0  0  0  0  0  0  0  0  0
    4.6035  -11.0774    0.0000 C   0  0  0  0  0  0  0  0  0  0  0  0
    7.8739  -10.3629    0.0000 O   0  0  0  0  0  0  0  0  0  0  0  0
    3.5871  -10.3629    0.0000 O   0  0  0  0  0  0  0  0  0  0  0  0
    5.7305  -10.7754    0.0000 H   0  0  0  0  0  0  0  0  0  0  0  0
   11.3344   -6.3338    0.0000 O   0  0  0  0  0  0  0  0  0  0  0  0
   10.7824   -5.7207    0.0000 C   0  0  0  0  0  0  0  0  0  0  0  0
    9.4432   -7.3781    0.0000 H   0  0  0  0  0  0  0  0  0  0  0  0
    9.1684   -6.0638    0.0000 O   0  0  0  0  0  0  0  0  0  0  0  0
 34  5  1  0  0  0  0
 34 33  2  0  0  0  0
 34  1  1  0  0  0  0
  1  2  1  0  0  0  0
  2  3  1  0  0  0  0
  3  4  1  6  0  0  0
  6  7  1  0  0  0  0
  7  8  1  0  0  0  0
  8  9  1  0  0  0  0
  9 10  1  0  0  0  0
 10 11  1  0  0  0  0
 11 12  1  0  0  0  0
 12 13  1  0  0  0  0
 13 14  1  0  0  0  0
 14 15  1  0  0  0  0
 15 16  1  0  0  0  0
 17 16  1  0  0  0  0
 17 18  1  0  0  0  0
 14 18  1  0  0  0  0
 18 19  1  0  0  0  0
 19 20  1  0  0  0  0
 20 21  1  0  0  0  0
 13 21  2  0  0  0  0
 21 22  1  0  0  0  0
 10 22  1  0  0  0  0
  6 22  1  0  0  0  0
 15 23  2  0  0  0  0
 20 24  2  0  0  0  0
 14 25  1  6  0  0  0
 18 26  1  1  0  0  0
 22 27  1  1  0  0  0
  9 28  1  0  0  0  0
  9 29  1  0  0  0  0
 12 30  1  1  0  0  0
  8 31  1  1  0  0  0
  3 17  1  0  0  0  0
 10 32  1  6  0  0  0
 17 35  1  6  0  0  0
  3 36  1  0  0  0  0
M  END
>  <cdx:fragmentId>
132632

$$$$
