71361104.cdx
  Mrv1902 05222410222D          

 13 14  0  0  0  0            999 V2000
    7.2164  -14.4771    0.0000 C   0  0  2  0  0  0  0  0  0  0  0  0
    6.5020  -14.8896    0.0000 C   0  0  0  0  0  0  0  0  0  0  0  0
    6.5020  -15.7146    0.0000 C   0  0  0  0  0  0  0  0  0  0  0  0
    7.2164  -16.1271    0.0000 C   0  0  0  0  0  0  0  0  0  0  0  0
    7.9309  -15.7146    0.0000 C   0  0  1  0  0  0  0  0  0  0  0  0
    7.3990  -15.1966    0.0000 C   0  0  2  0  0  0  0  0  0  0  0  0
    7.9309  -14.8896    0.0000 C   0  0  0  0  0  0  0  0  0  0  0  0
    6.8632  -15.5059    0.0000 O   0  0  0  0  0  0  0  0  0  0  0  0
    8.3434  -14.1752    0.0000 C   0  0  0  0  0  0  0  0  0  0  0  0
    8.7559  -14.8896    0.0000 C   0  0  0  0  0  0  0  0  0  0  0  0
    5.7875  -14.4771    0.0000 C   0  0  0  0  0  0  0  0  0  0  0  0
    7.2164  -13.6521    0.0000 H   0  0  0  0  0  0  0  0  0  0  0  0
    8.6454  -16.1271    0.0000 H   0  0  0  0  0  0  0  0  0  0  0  0
  1  2  1  0  0  0  0
  2  3  2  0  0  0  0
  3  4  1  0  0  0  0
  4  5  1  0  0  0  0
  5  6  1  0  0  0  0
  1  6  1  0  0  0  0
  1  7  1  1  0  0  0
  5  7  1  1  0  0  0
  6  8  1  6  0  0  0
  7  9  1  0  0  0  0
  7 10  1  0  0  0  0
  2 11  1  0  0  0  0
  1 12  1  0  0  0  0
  5 13  1  0  0  0  0
M  END
>  <cdx:groupId>
199166

>  <cdx:fragmentId>
199129

$$$$
