36133.cdx
  Mrv1902 05222410222D          

 48 54  0  0  0  0            999 V2000
    9.9830   -6.6000    0.0000 C   0  0  2  0  0  0  0  0  0  0  0  0
    9.9830   -7.4250    0.0000 C   0  0  0  0  0  0  0  0  0  0  0  0
   10.6975   -7.8375    0.0000 C   0  0  1  0  0  0  0  0  0  0  0  0
   11.4120   -7.4250    0.0000 C   0  0  1  0  0  0  0  0  0  0  0  0
   11.4120   -6.6000    0.0000 C   0  0  0  0  0  0  0  0  0  0  0  0
   10.6975   -6.1875    0.0000 C   0  0  1  0  0  0  0  0  0  0  0  0
   10.6975   -5.3625    0.0000 C   0  0  0  0  0  0  0  0  0  0  0  0
   12.0450   -6.2150    0.0000 O   0  0  0  0  0  0  0  0  0  0  0  0
   10.6975   -7.0125    0.0000 C   0  0  2  0  0  0  0  0  0  0  0  0
    9.2686   -6.1875    0.0000 O   0  0  0  0  0  0  0  0  0  0  0  0
   12.0450   -7.8100    0.0000 O   0  0  0  0  0  0  0  0  0  0  0  0
   11.4120   -8.2500    0.0000 O   0  0  0  0  0  0  0  0  0  0  0  0
   10.0925   -7.7825    0.0000 C   0  0  0  0  0  0  0  0  0  0  0  0
   10.0925   -8.6075    0.0000 O   0  0  0  0  0  0  0  0  0  0  0  0
   12.0450   -7.0125    0.0000 C   0  0  1  0  0  0  0  0  0  0  0  0
    9.3740   -9.0130    0.0000 C   0  0  0  0  0  0  0  0  0  0  0  0
    8.6636   -8.5935    0.0000 O   0  0  0  0  0  0  0  0  0  0  0  0
    9.3659   -9.8379    0.0000 C   0  0  0  0  0  0  0  0  0  0  0  0
   10.0763  -10.2574    0.0000 C   0  0  0  0  0  0  0  0  0  0  0  0
   10.0682  -11.0824    0.0000 C   0  0  0  0  0  0  0  0  0  0  0  0
    9.3498  -11.4879    0.0000 C   0  0  0  0  0  0  0  0  0  0  0  0
    8.6394  -11.0684    0.0000 C   0  0  0  0  0  0  0  0  0  0  0  0
    8.6475  -10.2434    0.0000 C   0  0  0  0  0  0  0  0  0  0  0  0
    8.5541   -6.6000    0.0000 C   0  0  2  0  0  0  0  0  0  0  0  0
    7.8396   -6.1875    0.0000 O   0  0  0  0  0  0  0  0  0  0  0  0
    7.1251   -6.6000    0.0000 C   0  0  1  0  0  0  0  0  0  0  0  0
    7.1251   -7.4250    0.0000 C   0  0  2  0  0  0  0  0  0  0  0  0
    7.8396   -7.8375    0.0000 C   0  0  1  0  0  0  0  0  0  0  0  0
    8.5541   -7.4250    0.0000 C   0  0  1  0  0  0  0  0  0  0  0  0
    6.4107   -6.1875    0.0000 C   0  0  0  0  0  0  0  0  0  0  0  0
    7.8396   -8.6625    0.0000 O   0  0  0  0  0  0  0  0  0  0  0  0
    9.2686   -7.8375    0.0000 O   0  0  0  0  0  0  0  0  0  0  0  0
    6.4107   -7.8375    0.0000 O   0  0  0  0  0  0  0  0  0  0  0  0
    5.6962   -6.6000    0.0000 O   0  0  0  0  0  0  0  0  0  0  0  0
   10.6975   -8.6625    0.0000 H   0  0  0  0  0  0  0  0  0  0  0  0
   12.9525   -6.9850    0.0000 H   0  0  0  0  0  0  0  0  0  0  0  0
    9.3417  -12.3128    0.0000 O   0  0  0  0  0  0  0  0  0  0  0  0
    4.9817   -6.1875    0.0000 C   0  0  0  0  0  0  0  0  0  0  0  0
    4.2673   -6.6000    0.0000 C   0  0  0  0  0  0  0  0  0  0  0  0
    4.9817   -5.3625    0.0000 O   0  0  0  0  0  0  0  0  0  0  0  0
    3.5528   -6.1875    0.0000 C   0  0  0  0  0  0  0  0  0  0  0  0
    2.8383   -6.6000    0.0000 C   0  0  0  0  0  0  0  0  0  0  0  0
    2.8383   -7.4250    0.0000 C   0  0  0  0  0  0  0  0  0  0  0  0
    3.5528   -7.8375    0.0000 C   0  0  0  0  0  0  0  0  0  0  0  0
    4.2673   -7.4250    0.0000 C   0  0  0  0  0  0  0  0  0  0  0  0
    2.1238   -6.1875    0.0000 O   0  0  0  0  0  0  0  0  0  0  0  0
    2.1238   -7.8375    0.0000 O   0  0  0  0  0  0  0  0  0  0  0  0
    3.5528   -8.6625    0.0000 O   0  0  0  0  0  0  0  0  0  0  0  0
  1  2  1  0  0  0  0
  2  3  1  0  0  0  0
  3  4  1  0  0  0  0
  4  5  1  0  0  0  0
  5  6  1  0  0  0  0
  6  1  1  0  0  0  0
  6  7  1  6  0  0  0
  6  8  1  0  0  0  0
  3  9  1  0  0  0  0
  1 10  1  1  0  0  0
  4 11  1  0  0  0  0
  4 12  1  6  0  0  0
  9  1  1  0  0  0  0
  9 13  1  1  0  0  0
 13 14  1  0  0  0  0
 11 15  1  0  0  0  0
  8 15  1  0  0  0  0
  9 15  1  0  0  0  0
 14 16  1  0  0  0  0
 16 17  2  0  0  0  0
 16 18  1  0  0  0  0
 18 19  2  0  0  0  0
 19 20  1  0  0  0  0
 20 21  2  0  0  0  0
 21 22  1  0  0  0  0
 22 23  2  0  0  0  0
 23 18  1  0  0  0  0
 24 10  1  1  0  0  0
 24 25  1  0  0  0  0
 25 26  1  0  0  0  0
 26 27  1  0  0  0  0
 27 28  1  0  0  0  0
 28 29  1  0  0  0  0
 29 24  1  0  0  0  0
 26 30  1  1  0  0  0
 28 31  1  1  0  0  0
 29 32  1  6  0  0  0
 27 33  1  6  0  0  0
 30 34  1  0  0  0  0
  3 35  1  1  0  0  0
 15 36  1  1  0  0  0
 21 37  1  0  0  0  0
 34 38  1  0  0  0  0
 38 39  1  0  0  0  0
 38 40  2  0  0  0  0
 39 41  2  0  0  0  0
 41 42  1  0  0  0  0
 42 43  2  0  0  0  0
 43 44  1  0  0  0  0
 44 45  2  0  0  0  0
 45 39  1  0  0  0  0
 42 46  1  0  0  0  0
 43 47  1  0  0  0  0
 44 48  1  0  0  0  0
M  END
>  <cdx:fragmentId>
157

$$$$
