3614.cdx
  Mrv1902 05222410232D          

  9  9  0  0  0  0            999 V2000
    8.4086   -5.1636    0.0000 C   0  0  0  0  0  0  0  0  0  0  0  0
    7.6941   -5.5761    0.0000 C   0  0  0  0  0  0  0  0  0  0  0  0
    6.0864   -4.1716    0.0000 C   0  0  0  0  0  0  0  0  0  0  0  0
    6.8934   -4.3432    0.0000 N   0  0  0  0  0  0  0  0  0  0  0  0
    6.9797   -5.1636    0.0000 C   0  0  0  0  0  0  0  0  0  0  0  0
    6.2260   -5.4992    0.0000 C   0  0  0  0  0  0  0  0  0  0  0  0
    5.6739   -4.8861    0.0000 N   0  0  0  0  0  0  0  0  0  0  0  0
    4.8535   -4.9723    0.0000 C   0  0  0  0  0  0  0  0  0  0  0  0
    9.1231   -5.5761    0.0000 N   0  0  0  0  0  0  0  0  0  0  0  0
  1  2  1  0  0  0  0
  3  4  2  0  0  0  0
  4  5  1  0  0  0  0
  5  6  2  0  0  0  0
  6  7  1  0  0  0  0
  3  7  1  0  0  0  0
  7  8  1  0  0  0  0
  2  5  1  0  0  0  0
  1  9  1  0  0  0  0
M  END
>  <cdx:groupId>
29

>  <cdx:fragmentId>
9

$$$$
