36145.cdx
  Mrv1902 05222410202D          

 38 43  0  0  0  0            999 V2000
   11.0982   -4.1247    0.0000 O   0  0  0  0  0  0  0  0  0  0  0  0
   10.6132   -4.7921    0.0000 C   0  0  0  0  0  0  0  0  0  0  0  0
   11.0982   -5.4596    0.0000 C   0  0  0  0  0  0  0  0  0  0  0  0
   11.8828   -5.2046    0.0000 C   0  0  0  0  0  0  0  0  0  0  0  0
   11.8828   -4.3796    0.0000 C   0  0  0  0  0  0  0  0  0  0  0  0
   12.5502   -3.8947    0.0000 O   0  0  0  0  0  0  0  0  0  0  0  0
    7.2007   -7.3241    0.0000 C   0  0  0  0  0  0  0  0  0  0  0  0
    6.4862   -7.7366    0.0000 C   0  0  0  0  0  0  0  0  0  0  0  0
    6.4862   -8.5616    0.0000 C   0  0  1  0  0  0  0  0  0  0  0  0
    7.2007   -8.9741    0.0000 C   0  0  0  0  0  0  0  0  0  0  0  0
    7.9152   -8.5616    0.0000 C   0  0  1  0  0  0  0  0  0  0  0  0
    8.6296   -8.9741    0.0000 C   0  0  0  0  0  0  0  0  0  0  0  0
    9.3441   -8.5616    0.0000 C   0  0  0  0  0  0  0  0  0  0  0  0
    9.3441   -7.7366    0.0000 C   0  0  0  0  0  0  0  0  0  0  0  0
   10.0586   -7.3241    0.0000 C   0  0  1  0  0  0  0  0  0  0  0  0
   10.8432   -7.5791    0.0000 C   0  0  0  0  0  0  0  0  0  0  0  0
   11.3281   -6.9116    0.0000 C   0  0  0  0  0  0  0  0  0  0  0  0
   10.8432   -6.2442    0.0000 C   0  0  1  0  0  0  0  0  0  0  0  0
   10.0586   -6.4991    0.0000 C   0  0  1  0  0  0  0  0  0  0  0  0
    9.3441   -6.0866    0.0000 C   0  0  0  0  0  0  0  0  0  0  0  0
    8.6296   -6.4991    0.0000 C   0  0  0  0  0  0  0  0  0  0  0  0
    8.6296   -7.3241    0.0000 C   0  0  0  0  0  0  0  0  0  0  0  0
    7.9152   -7.7366    0.0000 C   0  0  1  0  0  0  0  0  0  0  0  0
   10.1448   -5.6787    0.0000 C   0  0  0  0  0  0  0  0  0  0  0  0
    7.9152   -6.9116    0.0000 C   0  0  0  0  0  0  0  0  0  0  0  0
    5.7718   -8.9741    0.0000 O   0  0  0  0  0  0  0  0  0  0  0  0
    5.0573   -7.7366    0.0000 O   0  0  0  0  0  0  0  0  0  0  0  0
    5.0573   -8.5616    0.0000 C   0  0  2  0  0  0  0  0  0  0  0  0
    4.3428   -8.9741    0.0000 C   0  0  0  0  0  0  0  0  0  0  0  0
    3.6284   -8.5616    0.0000 C   0  0  0  0  0  0  0  0  0  0  0  0
    3.6284   -7.7366    0.0000 C   0  0  1  0  0  0  0  0  0  0  0  0
    4.3428   -7.3241    0.0000 C   0  0  0  0  0  0  0  0  0  0  0  0
    4.3428   -6.4991    0.0000 C   0  0  0  0  0  0  0  0  0  0  0  0
    2.9139   -8.9741    0.0000 O   0  0  0  0  0  0  0  0  0  0  0  0
    2.1994   -8.5616    0.0000 C   0  0  0  0  0  0  0  0  0  0  0  0
    2.9139   -7.3241    0.0000 O   0  0  0  0  0  0  0  0  0  0  0  0
   10.1448   -8.1446    0.0000 O   0  0  0  0  0  0  0  0  0  0  0  0
    7.9152   -9.3866    0.0000 O   0  0  0  0  0  0  0  0  0  0  0  0
  1  2  1  0  0  0  0
  2  3  1  0  0  0  0
  3  4  2  0  0  0  0
  4  5  1  0  0  0  0
  1  5  1  0  0  0  0
  5  6  2  0  0  0  0
  7  8  1  0  0  0  0
  8  9  1  0  0  0  0
  9 10  1  0  0  0  0
 10 11  1  0  0  0  0
 11 12  1  0  0  0  0
 12 13  1  0  0  0  0
 13 14  1  0  0  0  0
 14 15  1  0  0  0  0
 15 16  1  0  0  0  0
 16 17  1  0  0  0  0
 17 18  1  0  0  0  0
 18 19  1  0  0  0  0
 15 19  1  0  0  0  0
 19 20  1  0  0  0  0
 20 21  1  0  0  0  0
 21 22  1  0  0  0  0
 14 22  1  0  0  0  0
 22 23  1  0  0  0  0
 11 23  1  0  0  0  0
  7 23  1  0  0  0  0
 19 24  1  1  0  0  0
 23 25  1  1  0  0  0
 27 28  1  0  0  0  0
 28 29  1  0  0  0  0
 29 30  1  0  0  0  0
 30 31  1  0  0  0  0
 31 32  1  0  0  0  0
 27 32  1  0  0  0  0
 32 33  1  0  0  0  0
 34 35  1  0  0  0  0
 30 34  1  0  0  0  0
 31 36  1  6  0  0  0
 28 26  1  1  0  0  0
  9 26  1  1  0  0  0
 15 37  1  1  0  0  0
 11 38  1  1  0  0  0
 18  3  1  1  0  0  0
M  END
>  <cdx:groupId>
121

>  <cdx:fragmentId>
17

$$$$
