10361658.cdx
  Mrv1902 05222410202D          

 27 29  0  0  0  0            999 V2000
    6.5135   -8.3512    0.0000 C   0  0  0  0  0  0  0  0  0  0  0  0
    6.5135   -7.5262    0.0000 C   0  0  0  0  0  0  0  0  0  0  0  0
    5.7990   -7.1137    0.0000 C   0  0  0  0  0  0  0  0  0  0  0  0
    5.0846   -7.5262    0.0000 C   0  0  0  0  0  0  0  0  0  0  0  0
    4.3701   -7.1137    0.0000 C   0  0  0  0  0  0  0  0  0  0  0  0
    3.6556   -7.5262    0.0000 C   0  0  0  0  0  0  0  0  0  0  0  0
    3.6556   -8.3512    0.0000 C   0  0  0  0  0  0  0  0  0  0  0  0
    4.3701   -8.7637    0.0000 C   0  0  0  0  0  0  0  0  0  0  0  0
    5.0846   -8.3512    0.0000 C   0  0  0  0  0  0  0  0  0  0  0  0
    5.7990   -8.7637    0.0000 O   0  0  0  0  0  0  0  0  0  0  0  0
    5.7990   -6.2887    0.0000 O   0  0  0  0  0  0  0  0  0  0  0  0
    2.9412   -8.7637    0.0000 O   0  0  0  0  0  0  0  0  0  0  0  0
    7.2280   -7.1137    0.0000 C   0  0  0  0  0  0  0  0  0  0  0  0
    7.9425   -7.5262    0.0000 C   0  0  0  0  0  0  0  0  0  0  0  0
    8.6569   -7.1137    0.0000 C   0  0  0  0  0  0  0  0  0  0  0  0
    8.6569   -6.2887    0.0000 C   0  0  0  0  0  0  0  0  0  0  0  0
    7.9425   -5.8762    0.0000 C   0  0  0  0  0  0  0  0  0  0  0  0
    7.2280   -6.2887    0.0000 C   0  0  0  0  0  0  0  0  0  0  0  0
    9.3714   -7.5262    0.0000 C   0  0  0  0  0  0  0  0  0  0  0  0
   10.0859   -7.1137    0.0000 C   0  0  0  0  0  0  0  0  0  0  0  0
   10.8003   -7.5262    0.0000 C   0  0  0  0  0  0  0  0  0  0  0  0
   10.8003   -8.3512    0.0000 C   0  0  0  0  0  0  0  0  0  0  0  0
   11.5148   -7.1137    0.0000 C   0  0  0  0  0  0  0  0  0  0  0  0
    7.9425   -8.3512    0.0000 O   0  0  0  0  0  0  0  0  0  0  0  0
    8.6569   -8.7637    0.0000 C   0  0  0  0  0  0  0  0  0  0  0  0
    6.5135   -5.8762    0.0000 O   0  0  0  0  0  0  0  0  0  0  0  0
    9.3714   -5.8762    0.0000 O   0  0  0  0  0  0  0  0  0  0  0  0
  1  2  2  0  0  0  0
  2  3  1  0  0  0  0
  3  4  1  0  0  0  0
  4  5  1  0  0  0  0
  5  6  2  0  0  0  0
  6  7  1  0  0  0  0
  7  8  2  0  0  0  0
  8  9  1  0  0  0  0
  4  9  2  0  0  0  0
  9 10  1  0  0  0  0
  1 10  1  0  0  0  0
  3 11  2  0  0  0  0
  7 12  1  0  0  0  0
 13 14  1  0  0  0  0
 14 15  2  0  0  0  0
 15 16  1  0  0  0  0
 16 17  2  0  0  0  0
 17 18  1  0  0  0  0
 13 18  2  0  0  0  0
 19 20  1  0  0  0  0
 20 21  2  0  0  0  0
 21 22  1  0  0  0  0
 21 23  1  0  0  0  0
 15 19  1  0  0  0  0
 24 25  1  0  0  0  0
 14 24  1  0  0  0  0
 18 26  1  0  0  0  0
 16 27  1  0  0  0  0
  2 13  1  0  0  0  0
M  END
>  <cdx:fragmentId>
47023

$$$$
