5361813.cdx
  Mrv1902 05222410272D          

 25 26  0  0  0  0            999 V2000
   15.5094   -8.4215    0.0000 C   0  0  0  0  0  0  0  0  0  0  0  0
   15.5094   -9.2465    0.0000 C   0  0  0  0  0  0  0  0  0  0  0  0
   14.7950   -9.6590    0.0000 C   0  0  0  0  0  0  0  0  0  0  0  0
   14.7950  -10.4840    0.0000 O   0  0  0  0  0  0  0  0  0  0  0  0
   14.0805   -9.2465    0.0000 C   0  0  0  0  0  0  0  0  0  0  0  0
   13.3660   -9.6590    0.0000 C   0  0  0  0  0  0  0  0  0  0  0  0
   12.6515   -9.2465    0.0000 C   0  0  0  0  0  0  0  0  0  0  0  0
   12.6515   -8.4215    0.0000 C   0  0  0  0  0  0  0  0  0  0  0  0
   13.3660   -8.0090    0.0000 C   0  0  0  0  0  0  0  0  0  0  0  0
   14.0805   -8.4215    0.0000 C   0  0  0  0  0  0  0  0  0  0  0  0
   14.7950   -8.0090    0.0000 O   0  0  0  0  0  0  0  0  0  0  0  0
   16.2239   -9.6590    0.0000 C   0  0  0  0  0  0  0  0  0  0  0  0
   16.9384   -9.2465    0.0000 C   0  0  0  0  0  0  0  0  0  0  0  0
   17.6528   -9.6590    0.0000 C   0  0  0  0  0  0  0  0  0  0  0  0
   17.6528  -10.4840    0.0000 C   0  0  0  0  0  0  0  0  0  0  0  0
   16.9384  -10.8965    0.0000 C   0  0  0  0  0  0  0  0  0  0  0  0
   16.2239  -10.4840    0.0000 C   0  0  0  0  0  0  0  0  0  0  0  0
   16.2239   -8.0090    0.0000 C   0  0  0  0  0  0  0  0  0  0  0  0
   11.9371   -8.0090    0.0000 O   0  0  0  0  0  0  0  0  0  0  0  0
   13.3660   -7.1840    0.0000 C   0  0  0  0  0  0  0  0  0  0  0  0
   12.6515   -6.7715    0.0000 N   0  0  0  0  0  0  0  0  0  0  0  0
   11.9371   -7.1840    0.0000 C   0  0  0  0  0  0  0  0  0  0  0  0
   12.6515   -5.9465    0.0000 C   0  0  0  0  0  0  0  0  0  0  0  0
   18.4778   -8.4215    0.0000 H   0  0  0  0  0  0  0  0  0  0  0  0
   19.3028   -8.4215    0.0000 Cl  0  0  0  0  0  0  0  0  0  0  0  0
  1  2  2  0  0  0  0
  2  3  1  0  0  0  0
  3  4  2  0  0  0  0
  3  5  1  0  0  0  0
  5  6  1  0  0  0  0
  6  7  2  0  0  0  0
  7  8  1  0  0  0  0
  8  9  2  0  0  0  0
  9 10  1  0  0  0  0
  5 10  2  0  0  0  0
 10 11  1  0  0  0  0
  1 11  1  0  0  0  0
  2 12  1  0  0  0  0
 12 13  1  0  0  0  0
 13 14  2  0  0  0  0
 14 15  1  0  0  0  0
 15 16  2  0  0  0  0
 16 17  1  0  0  0  0
 12 17  2  0  0  0  0
  1 18  1  0  0  0  0
  8 19  1  0  0  0  0
 21 22  1  0  0  0  0
 21 23  1  0  0  0  0
 20 21  1  0  0  0  0
  9 20  1  0  0  0  0
 24 25  1  0  0  0  0
M  END
>  <cdx:groupId>
24662

>  <cdx:fragmentId>
24635

$$$$
