361935.cdx
  Mrv1902 05222410222D          

 93102  0  0  0  0            999 V2000
   12.9508  -11.7150    0.0000 C   0  0  1  0  0  0  0  0  0  0  0  0
   12.9508  -10.8900    0.0000 C   0  0  1  0  0  0  0  0  0  0  0  0
   13.6653  -10.4775    0.0000 C   0  0  0  0  0  0  0  0  0  0  0  0
   13.6653  -12.1275    0.0000 C   0  0  0  0  0  0  0  0  0  0  0  0
   14.3797  -11.7150    0.0000 C   0  0  2  0  0  0  0  0  0  0  0  0
   15.0942  -12.1275    0.0000 C   0  0  0  0  0  0  0  0  0  0  0  0
   15.8087  -11.7150    0.0000 C   0  0  0  0  0  0  0  0  0  0  0  0
   15.8087  -10.8900    0.0000 C   0  0  1  0  0  0  0  0  0  0  0  0
   16.5232  -10.4775    0.0000 C   0  0  2  0  0  0  0  0  0  0  0  0
   17.3078  -10.7324    0.0000 C   0  0  0  0  0  0  0  0  0  0  0  0
   17.7927  -10.0650    0.0000 C   0  0  2  0  0  0  0  0  0  0  0  0
   18.2776  -10.7324    0.0000 H   0  0  0  0  0  0  0  0  0  0  0  0
   18.5773   -9.8101    0.0000 O   0  0  0  0  0  0  0  0  0  0  0  0
   17.3078   -9.3976    0.0000 C   0  0  2  0  0  0  0  0  0  0  0  0
   16.9461   -8.6561    0.0000 H   0  0  0  0  0  0  0  0  0  0  0  0
   17.7927   -8.7301    0.0000 C   0  0  1  0  0  0  0  0  0  0  0  0
   18.5773   -8.9851    0.0000 C   0  0  1  0  0  0  0  0  0  0  0  0
   19.3978   -8.8988    0.0000 C   0  0  0  0  0  0  0  0  0  0  0  0
   19.8827   -9.5663    0.0000 C   0  0  0  0  0  0  0  0  0  0  0  0
   20.7032   -9.4800    0.0000 C   0  0  2  0  0  0  0  0  0  0  0  0
   21.0388   -8.7263    0.0000 C   0  0  0  0  0  0  0  0  0  0  0  0
   21.1881  -10.1475    0.0000 C   0  0  0  0  0  0  0  0  0  0  0  0
   17.5378   -7.9455    0.0000 C   0  0  0  0  0  0  0  0  0  0  0  0
   16.5232   -9.6525    0.0000 C   0  0  2  0  0  0  0  0  0  0  0  0
   16.5232   -8.8275    0.0000 C   0  0  0  0  0  0  0  0  0  0  0  0
   15.8087   -9.2400    0.0000 C   0  0  0  0  0  0  0  0  0  0  0  0
   15.0942   -9.6525    0.0000 C   0  0  0  0  0  0  0  0  0  0  0  0
   15.0942  -10.4775    0.0000 C   0  0  2  0  0  0  0  0  0  0  0  0
   14.3797  -10.8900    0.0000 C   0  0  1  0  0  0  0  0  0  0  0  0
   14.3797  -10.0650    0.0000 C   0  0  0  0  0  0  0  0  0  0  0  0
   15.0942  -11.3025    0.0000 H   0  0  0  0  0  0  0  0  0  0  0  0
   15.8087  -10.0650    0.0000 H   0  0  0  0  0  0  0  0  0  0  0  0
   16.5232  -11.3025    0.0000 H   0  0  0  0  0  0  0  0  0  0  0  0
   12.2363  -12.1275    0.0000 O   0  0  0  0  0  0  0  0  0  0  0  0
   10.8071  -10.4633    0.0000 C   0  0  2  0  0  0  0  0  0  0  0  0
   10.0909  -10.8729    0.0000 C   0  0  1  0  0  0  0  0  0  0  0  0
   10.0876  -11.6978    0.0000 C   0  0  1  0  0  0  0  0  0  0  0  0
   10.8003  -12.1133    0.0000 C   0  0  2  0  0  0  0  0  0  0  0  0
   11.5165  -11.7037    0.0000 C   0  0  1  0  0  0  0  0  0  0  0  0
   11.5199  -10.8787    0.0000 O   0  0  0  0  0  0  0  0  0  0  0  0
   10.8105   -9.6383    0.0000 C   0  0  0  0  0  0  0  0  0  0  0  0
    9.3714  -12.1074    0.0000 O   0  0  0  0  0  0  0  0  0  0  0  0
    9.3782  -10.4574    0.0000 O   0  0  0  0  0  0  0  0  0  0  0  0
   10.7970  -12.9383    0.0000 O   0  0  0  0  0  0  0  0  0  0  0  0
   10.0977   -9.2229    0.0000 O   0  0  0  0  0  0  0  0  0  0  0  0
   22.0086  -10.0612    0.0000 O   0  0  0  0  0  0  0  0  0  0  0  0
   22.4935  -10.7287    0.0000 C   0  0  2  0  0  0  0  0  0  0  0  0
   22.1580  -11.4823    0.0000 O   0  0  0  0  0  0  0  0  0  0  0  0
   22.6429  -12.1498    0.0000 C   0  0  1  0  0  0  0  0  0  0  0  0
   23.4634  -12.0635    0.0000 C   0  0  2  0  0  0  0  0  0  0  0  0
   23.7989  -11.3099    0.0000 C   0  0  1  0  0  0  0  0  0  0  0  0
   23.3140  -10.6424    0.0000 C   0  0  1  0  0  0  0  0  0  0  0  0
   22.3073  -12.9035    0.0000 C   0  0  0  0  0  0  0  0  0  0  0  0
   24.6194  -11.2236    0.0000 O   0  0  0  0  0  0  0  0  0  0  0  0
   23.6496   -9.8888    0.0000 O   0  0  0  0  0  0  0  0  0  0  0  0
   23.9483  -12.7310    0.0000 O   0  0  0  0  0  0  0  0  0  0  0  0
   22.7923  -13.5709    0.0000 O   0  0  0  0  0  0  0  0  0  0  0  0
    8.9836   -9.7329    0.0000 C   0  0  2  0  0  0  0  0  0  0  0  0
    9.4167   -9.0307    0.0000 O   0  0  0  0  0  0  0  0  0  0  0  0
    9.0135   -8.3043    0.0000 C   0  0  1  0  0  0  0  0  0  0  0  0
    8.1887   -8.2871    0.0000 C   0  0  2  0  0  0  0  0  0  0  0  0
    7.7555   -8.9960    0.0000 C   0  0  1  0  0  0  0  0  0  0  0  0
    8.1589   -9.7156    0.0000 C   0  0  1  0  0  0  0  0  0  0  0  0
    9.4394   -7.5977    0.0000 C   0  0  0  0  0  0  0  0  0  0  0  0
    6.9306   -8.9804    0.0000 O   0  0  0  0  0  0  0  0  0  0  0  0
    7.7927   -7.5633    0.0000 O   0  0  0  0  0  0  0  0  0  0  0  0
    7.7344  -10.4231    0.0000 O   0  0  0  0  0  0  0  0  0  0  0  0
    9.0405   -6.8756    0.0000 O   0  0  0  0  0  0  0  0  0  0  0  0
    6.3013  -10.4328    0.0000 O   0  0  0  0  0  0  0  0  0  0  0  0
    7.0223  -10.8397    0.0000 C   0  0  2  0  0  0  0  0  0  0  0  0
    6.5317   -8.2583    0.0000 C   0  0  2  0  0  0  0  0  0  0  0  0
    6.9708   -7.5599    0.0000 O   0  0  0  0  0  0  0  0  0  0  0  0
    6.5855   -6.8304    0.0000 C   0  0  1  0  0  0  0  0  0  0  0  0
    5.7611   -6.7993    0.0000 C   0  0  2  0  0  0  0  0  0  0  0  0
    5.3220   -7.4977    0.0000 C   0  0  1  0  0  0  0  0  0  0  0  0
    5.7073   -8.2272    0.0000 C   0  0  1  0  0  0  0  0  0  0  0  0
    5.6040  -10.8540    0.0000 C   0  0  1  0  0  0  0  0  0  0  0  0
    5.6128  -11.6965    0.0000 C   0  0  2  0  0  0  0  0  0  0  0  0
    6.3264  -12.1106    0.0000 C   0  0  1  0  0  0  0  0  0  0  0  0
    7.0311  -11.6822    0.0000 C   0  0  1  0  0  0  0  0  0  0  0  0
    4.8834  -10.4523    0.0000 C   0  0  0  0  0  0  0  0  0  0  0  0
    6.3348  -12.9356    0.0000 O   0  0  0  0  0  0  0  0  0  0  0  0
    7.7523  -12.0828    0.0000 O   0  0  0  0  0  0  0  0  0  0  0  0
    4.9000  -12.1119    0.0000 O   0  0  0  0  0  0  0  0  0  0  0  0
    7.0247   -6.1320    0.0000 C   0  0  0  0  0  0  0  0  0  0  0  0
    4.4976   -7.4666    0.0000 O   0  0  0  0  0  0  0  0  0  0  0  0
    5.2681   -8.9256    0.0000 O   0  0  0  0  0  0  0  0  0  0  0  0
    5.3758   -6.0698    0.0000 O   0  0  0  0  0  0  0  0  0  0  0  0
    6.6394   -5.4024    0.0000 O   0  0  0  0  0  0  0  0  0  0  0  0
    4.1752  -10.8756    0.0000 O   0  0  0  0  0  0  0  0  0  0  0  0
   14.3797  -12.5400    0.0000 H   0  0  0  0  0  0  0  0  0  0  0  0
   18.7908   -8.1882    0.0000 O   0  0  0  0  0  0  0  0  0  0  0  0
   12.2363  -10.4775    0.0000 O   0  0  0  0  0  0  0  0  0  0  0  0
  1  2  1  0  0  0  0
  2  3  1  0  0  0  0
  1  4  1  0  0  0  0
  4  5  1  0  0  0  0
  5  6  1  0  0  0  0
  6  7  1  0  0  0  0
  7  8  1  0  0  0  0
  8  9  1  0  0  0  0
  9 10  1  0  0  0  0
 10 11  1  0  0  0  0
 11 12  1  6  0  0  0
 11 13  1  0  0  0  0
 11 14  1  0  0  0  0
 14 15  1  6  0  0  0
 14 16  1  0  0  0  0
 16 17  1  0  0  0  0
 13 17  1  0  0  0  0
 17 18  1  0  0  0  0
 18 19  1  0  0  0  0
 19 20  1  0  0  0  0
 20 21  1  6  0  0  0
 20 22  1  0  0  0  0
 16 23  1  6  0  0  0
 14 24  1  0  0  0  0
  9 24  1  0  0  0  0
 24 25  1  1  0  0  0
 24 26  1  0  0  0  0
 26 27  1  0  0  0  0
 27 28  1  0  0  0  0
  8 28  1  0  0  0  0
 28 29  1  0  0  0  0
  3 29  1  0  0  0  0
  5 29  1  0  0  0  0
 29 30  1  1  0  0  0
 28 31  1  6  0  0  0
  8 32  1  1  0  0  0
  9 33  1  6  0  0  0
  1 34  1  1  0  0  0
 35 36  1  0  0  0  0
 36 37  1  0  0  0  0
 37 38  1  0  0  0  0
 38 39  1  0  0  0  0
 39 40  1  0  0  0  0
 40 35  1  0  0  0  0
 35 41  1  1  0  0  0
 37 42  1  1  0  0  0
 36 43  1  1  0  0  0
 38 44  1  6  0  0  0
 41 45  1  0  0  0  0
 39 34  1  1  0  0  0
 22 46  1  0  0  0  0
 47 46  1  1  0  0  0
 47 48  1  0  0  0  0
 48 49  1  0  0  0  0
 49 50  1  0  0  0  0
 50 51  1  0  0  0  0
 51 52  1  0  0  0  0
 52 47  1  0  0  0  0
 49 53  1  1  0  0  0
 51 54  1  1  0  0  0
 52 55  1  6  0  0  0
 50 56  1  6  0  0  0
 53 57  1  0  0  0  0
 58 43  1  1  0  0  0
 58 59  1  0  0  0  0
 59 60  1  0  0  0  0
 60 61  1  0  0  0  0
 61 62  1  0  0  0  0
 62 63  1  0  0  0  0
 63 58  1  0  0  0  0
 60 64  1  1  0  0  0
 62 65  1  1  0  0  0
 61 66  1  6  0  0  0
 63 67  1  6  0  0  0
 64 68  1  0  0  0  0
 70 67  1  1  0  0  0
 71 65  1  1  0  0  0
 71 72  1  0  0  0  0
 72 73  1  0  0  0  0
 73 74  1  0  0  0  0
 74 75  1  0  0  0  0
 75 76  1  0  0  0  0
 76 71  1  0  0  0  0
 70 69  1  0  0  0  0
 69 77  1  0  0  0  0
 77 78  1  0  0  0  0
 78 79  1  0  0  0  0
 79 80  1  0  0  0  0
 80 70  1  0  0  0  0
 77 81  1  1  0  0  0
 79 82  1  1  0  0  0
 80 83  1  6  0  0  0
 78 84  1  6  0  0  0
 73 85  1  1  0  0  0
 75 86  1  1  0  0  0
 76 87  1  6  0  0  0
 74 88  1  6  0  0  0
 85 89  1  0  0  0  0
 81 90  1  0  0  0  0
  5 91  1  6  0  0  0
 17 92  1  6  0  0  0
  2 93  1  6  0  0  0
M  END
>  <cdx:fragmentId>
5

$$$$
