361936.cdx
  Mrv1902 05222410212D          

 96105  0  0  0  0            999 V2000
   12.9508  -11.1650    0.0000 C   0  0  1  0  0  0  0  0  0  0  0  0
   12.9508  -10.3400    0.0000 C   0  0  1  0  0  0  0  0  0  0  0  0
   13.6653   -9.9275    0.0000 C   0  0  0  0  0  0  0  0  0  0  0  0
   13.6653  -11.5775    0.0000 C   0  0  0  0  0  0  0  0  0  0  0  0
   14.3797  -11.1650    0.0000 C   0  0  2  0  0  0  0  0  0  0  0  0
   15.0942  -11.5775    0.0000 C   0  0  0  0  0  0  0  0  0  0  0  0
   15.8087  -11.1650    0.0000 C   0  0  0  0  0  0  0  0  0  0  0  0
   15.8087  -10.3400    0.0000 C   0  0  1  0  0  0  0  0  0  0  0  0
   16.5232   -9.9275    0.0000 C   0  0  2  0  0  0  0  0  0  0  0  0
   17.3078  -10.1824    0.0000 C   0  0  0  0  0  0  0  0  0  0  0  0
   17.7927   -9.5150    0.0000 C   0  0  2  0  0  0  0  0  0  0  0  0
   18.2776  -10.1824    0.0000 H   0  0  0  0  0  0  0  0  0  0  0  0
   18.5773   -9.2601    0.0000 O   0  0  0  0  0  0  0  0  0  0  0  0
   17.3078   -8.8476    0.0000 C   0  0  2  0  0  0  0  0  0  0  0  0
   16.9461   -8.1061    0.0000 H   0  0  0  0  0  0  0  0  0  0  0  0
   17.7927   -8.1801    0.0000 C   0  0  1  0  0  0  0  0  0  0  0  0
   18.5773   -8.4351    0.0000 C   0  0  1  0  0  0  0  0  0  0  0  0
   19.3978   -8.3488    0.0000 C   0  0  0  0  0  0  0  0  0  0  0  0
   19.8827   -9.0163    0.0000 C   0  0  0  0  0  0  0  0  0  0  0  0
   20.7032   -8.9300    0.0000 C   0  0  2  0  0  0  0  0  0  0  0  0
   21.0388   -8.1763    0.0000 C   0  0  0  0  0  0  0  0  0  0  0  0
   21.1881   -9.5975    0.0000 C   0  0  0  0  0  0  0  0  0  0  0  0
   17.5378   -7.3955    0.0000 C   0  0  0  0  0  0  0  0  0  0  0  0
   16.5232   -9.1025    0.0000 C   0  0  2  0  0  0  0  0  0  0  0  0
   16.5232   -8.2775    0.0000 C   0  0  0  0  0  0  0  0  0  0  0  0
   15.8087   -8.6900    0.0000 C   0  0  0  0  0  0  0  0  0  0  0  0
   15.0942   -9.1025    0.0000 C   0  0  0  0  0  0  0  0  0  0  0  0
   15.0942   -9.9275    0.0000 C   0  0  2  0  0  0  0  0  0  0  0  0
   14.3797  -10.3400    0.0000 C   0  0  1  0  0  0  0  0  0  0  0  0
   14.3797   -9.5150    0.0000 C   0  0  0  0  0  0  0  0  0  0  0  0
   15.0942  -10.7525    0.0000 H   0  0  0  0  0  0  0  0  0  0  0  0
   15.8087   -9.5150    0.0000 H   0  0  0  0  0  0  0  0  0  0  0  0
   16.5232  -10.7525    0.0000 H   0  0  0  0  0  0  0  0  0  0  0  0
   12.2363  -11.5775    0.0000 O   0  0  0  0  0  0  0  0  0  0  0  0
   10.8071   -9.9133    0.0000 C   0  0  2  0  0  0  0  0  0  0  0  0
   10.0909  -10.3229    0.0000 C   0  0  1  0  0  0  0  0  0  0  0  0
   10.0876  -11.1478    0.0000 C   0  0  1  0  0  0  0  0  0  0  0  0
   10.8003  -11.5633    0.0000 C   0  0  2  0  0  0  0  0  0  0  0  0
   11.5165  -11.1537    0.0000 C   0  0  1  0  0  0  0  0  0  0  0  0
   11.5199  -10.3287    0.0000 O   0  0  0  0  0  0  0  0  0  0  0  0
   10.8105   -9.0883    0.0000 C   0  0  0  0  0  0  0  0  0  0  0  0
    9.3714  -11.5574    0.0000 O   0  0  0  0  0  0  0  0  0  0  0  0
    9.3782   -9.9074    0.0000 O   0  0  0  0  0  0  0  0  0  0  0  0
   10.7970  -12.3883    0.0000 O   0  0  0  0  0  0  0  0  0  0  0  0
   10.0977   -8.6729    0.0000 O   0  0  0  0  0  0  0  0  0  0  0  0
   22.0086   -9.5112    0.0000 O   0  0  0  0  0  0  0  0  0  0  0  0
   22.4935  -10.1787    0.0000 C   0  0  2  0  0  0  0  0  0  0  0  0
   22.1580  -10.9323    0.0000 O   0  0  0  0  0  0  0  0  0  0  0  0
   22.6429  -11.5998    0.0000 C   0  0  1  0  0  0  0  0  0  0  0  0
   23.4634  -11.5135    0.0000 C   0  0  2  0  0  0  0  0  0  0  0  0
   23.7989  -10.7599    0.0000 C   0  0  1  0  0  0  0  0  0  0  0  0
   23.3140  -10.0924    0.0000 C   0  0  1  0  0  0  0  0  0  0  0  0
   22.3073  -12.3535    0.0000 C   0  0  0  0  0  0  0  0  0  0  0  0
   24.6194  -10.6736    0.0000 O   0  0  0  0  0  0  0  0  0  0  0  0
   23.6496   -9.3388    0.0000 O   0  0  0  0  0  0  0  0  0  0  0  0
   23.9483  -12.1810    0.0000 O   0  0  0  0  0  0  0  0  0  0  0  0
   22.7923  -13.0209    0.0000 O   0  0  0  0  0  0  0  0  0  0  0  0
    8.9836   -9.1829    0.0000 C   0  0  2  0  0  0  0  0  0  0  0  0
    9.4167   -8.4807    0.0000 O   0  0  0  0  0  0  0  0  0  0  0  0
    9.0135   -7.7543    0.0000 C   0  0  1  0  0  0  0  0  0  0  0  0
    8.1887   -7.7371    0.0000 C   0  0  2  0  0  0  0  0  0  0  0  0
    7.7555   -8.4460    0.0000 C   0  0  1  0  0  0  0  0  0  0  0  0
    8.1589   -9.1656    0.0000 C   0  0  1  0  0  0  0  0  0  0  0  0
    9.4394   -7.0477    0.0000 C   0  0  0  0  0  0  0  0  0  0  0  0
    6.9306   -8.4304    0.0000 O   0  0  0  0  0  0  0  0  0  0  0  0
    7.7927   -7.0133    0.0000 O   0  0  0  0  0  0  0  0  0  0  0  0
    7.7344   -9.8731    0.0000 O   0  0  0  0  0  0  0  0  0  0  0  0
    9.0405   -6.3256    0.0000 O   0  0  0  0  0  0  0  0  0  0  0  0
    6.3013   -9.8828    0.0000 O   0  0  0  0  0  0  0  0  0  0  0  0
    7.0223  -10.2897    0.0000 C   0  0  2  0  0  0  0  0  0  0  0  0
    6.5317   -7.7083    0.0000 C   0  0  2  0  0  0  0  0  0  0  0  0
    6.9708   -7.0099    0.0000 O   0  0  0  0  0  0  0  0  0  0  0  0
    6.5855   -6.2804    0.0000 C   0  0  1  0  0  0  0  0  0  0  0  0
    5.7611   -6.2493    0.0000 C   0  0  2  0  0  0  0  0  0  0  0  0
    5.3220   -6.9477    0.0000 C   0  0  1  0  0  0  0  0  0  0  0  0
    5.7073   -7.6772    0.0000 C   0  0  1  0  0  0  0  0  0  0  0  0
    5.6040  -10.3040    0.0000 C   0  0  1  0  0  0  0  0  0  0  0  0
    5.6128  -11.1465    0.0000 C   0  0  2  0  0  0  0  0  0  0  0  0
    6.3264  -11.5606    0.0000 C   0  0  1  0  0  0  0  0  0  0  0  0
    7.0311  -11.1322    0.0000 C   0  0  1  0  0  0  0  0  0  0  0  0
    4.8834   -9.9023    0.0000 C   0  0  0  0  0  0  0  0  0  0  0  0
    6.3348  -12.3856    0.0000 O   0  0  0  0  0  0  0  0  0  0  0  0
    7.7523  -11.5328    0.0000 O   0  0  0  0  0  0  0  0  0  0  0  0
    4.9000  -11.5619    0.0000 O   0  0  0  0  0  0  0  0  0  0  0  0
    7.0247   -5.5820    0.0000 C   0  0  0  0  0  0  0  0  0  0  0  0
    4.4976   -6.9166    0.0000 O   0  0  0  0  0  0  0  0  0  0  0  0
    5.2681   -8.3756    0.0000 O   0  0  0  0  0  0  0  0  0  0  0  0
    5.3758   -5.5198    0.0000 O   0  0  0  0  0  0  0  0  0  0  0  0
    6.6394   -4.8524    0.0000 O   0  0  0  0  0  0  0  0  0  0  0  0
    4.1752  -10.3256    0.0000 O   0  0  0  0  0  0  0  0  0  0  0  0
   14.3797  -11.9900    0.0000 H   0  0  0  0  0  0  0  0  0  0  0  0
   18.7908   -7.6382    0.0000 O   0  0  0  0  0  0  0  0  0  0  0  0
   12.2363   -9.9275    0.0000 O   0  0  0  0  0  0  0  0  0  0  0  0
    9.4664   -5.6191    0.0000 C   0  0  0  0  0  0  0  0  0  0  0  0
    9.0675   -4.8969    0.0000 O   0  0  0  0  0  0  0  0  0  0  0  0
   10.2913   -5.6346    0.0000 C   0  0  0  0  0  0  0  0  0  0  0  0
  1  2  1  0  0  0  0
  2  3  1  0  0  0  0
  1  4  1  0  0  0  0
  4  5  1  0  0  0  0
  5  6  1  0  0  0  0
  6  7  1  0  0  0  0
  7  8  1  0  0  0  0
  8  9  1  0  0  0  0
  9 10  1  0  0  0  0
 10 11  1  0  0  0  0
 11 12  1  6  0  0  0
 11 13  1  0  0  0  0
 11 14  1  0  0  0  0
 14 15  1  6  0  0  0
 14 16  1  0  0  0  0
 16 17  1  0  0  0  0
 13 17  1  0  0  0  0
 17 18  1  0  0  0  0
 18 19  1  0  0  0  0
 19 20  1  0  0  0  0
 20 21  1  6  0  0  0
 20 22  1  0  0  0  0
 16 23  1  6  0  0  0
 14 24  1  0  0  0  0
  9 24  1  0  0  0  0
 24 25  1  1  0  0  0
 24 26  1  0  0  0  0
 26 27  1  0  0  0  0
 27 28  1  0  0  0  0
  8 28  1  0  0  0  0
 28 29  1  0  0  0  0
  3 29  1  0  0  0  0
  5 29  1  0  0  0  0
 29 30  1  1  0  0  0
 28 31  1  6  0  0  0
  8 32  1  1  0  0  0
  9 33  1  6  0  0  0
  1 34  1  1  0  0  0
 35 36  1  0  0  0  0
 36 37  1  0  0  0  0
 37 38  1  0  0  0  0
 38 39  1  0  0  0  0
 39 40  1  0  0  0  0
 40 35  1  0  0  0  0
 35 41  1  1  0  0  0
 37 42  1  1  0  0  0
 36 43  1  1  0  0  0
 38 44  1  6  0  0  0
 41 45  1  0  0  0  0
 39 34  1  1  0  0  0
 22 46  1  0  0  0  0
 47 46  1  1  0  0  0
 47 48  1  0  0  0  0
 48 49  1  0  0  0  0
 49 50  1  0  0  0  0
 50 51  1  0  0  0  0
 51 52  1  0  0  0  0
 52 47  1  0  0  0  0
 49 53  1  1  0  0  0
 51 54  1  1  0  0  0
 52 55  1  6  0  0  0
 50 56  1  6  0  0  0
 53 57  1  0  0  0  0
 58 43  1  1  0  0  0
 58 59  1  0  0  0  0
 59 60  1  0  0  0  0
 60 61  1  0  0  0  0
 61 62  1  0  0  0  0
 62 63  1  0  0  0  0
 63 58  1  0  0  0  0
 60 64  1  1  0  0  0
 62 65  1  1  0  0  0
 61 66  1  6  0  0  0
 63 67  1  6  0  0  0
 64 68  1  0  0  0  0
 70 67  1  1  0  0  0
 71 65  1  1  0  0  0
 71 72  1  0  0  0  0
 72 73  1  0  0  0  0
 73 74  1  0  0  0  0
 74 75  1  0  0  0  0
 75 76  1  0  0  0  0
 76 71  1  0  0  0  0
 70 69  1  0  0  0  0
 69 77  1  0  0  0  0
 77 78  1  0  0  0  0
 78 79  1  0  0  0  0
 79 80  1  0  0  0  0
 80 70  1  0  0  0  0
 77 81  1  1  0  0  0
 79 82  1  1  0  0  0
 80 83  1  6  0  0  0
 78 84  1  6  0  0  0
 73 85  1  1  0  0  0
 75 86  1  1  0  0  0
 76 87  1  6  0  0  0
 74 88  1  6  0  0  0
 85 89  1  0  0  0  0
 81 90  1  0  0  0  0
  5 91  1  6  0  0  0
 17 92  1  6  0  0  0
  2 93  1  6  0  0  0
 68 94  1  0  0  0  0
 94 95  2  0  0  0  0
 94 96  1  0  0  0  0
M  END
>  <cdx:fragmentId>
5

$$$$
