362.cdx
  Mrv1902 05222410232D          

  7  6  0  0  0  0            999 V2000
    6.0059   -9.1083    0.0000 N   0  0  0  0  0  0  0  0  0  0  0  0
    8.1493   -8.6959    0.0000 O   0  0  0  0  0  0  0  0  0  0  0  0
    6.0059   -7.4583    0.0000 S   0  0  0  0  0  0  0  0  0  0  0  0
    6.7204   -7.8708    0.0000 C   0  0  0  0  0  0  0  0  0  0  0  0
    6.7203   -8.6958    0.0000 C   0  0  1  0  0  0  0  0  0  0  0  0
    7.4348   -9.1083    0.0000 C   0  0  0  0  0  0  0  0  0  0  0  0
    7.4348   -9.9333    0.0000 O   0  0  0  0  0  0  0  0  0  0  0  0
  5  1  1  1  0  0  0
  6  2  1  0  0  0  0
  3  4  1  0  0  0  0
  4  5  1  0  0  0  0
  5  6  1  0  0  0  0
  6  7  2  0  0  0  0
M  END
>  <cdx:fragmentId>
3

$$$$
