3622.cdx
  Mrv1902 05222410212D          

 24 25  0  0  0  0            999 V2000
    6.0059   -9.1083    0.0000 N   0  0  0  0  0  0  0  0  0  0  0  0
    8.1493   -8.6959    0.0000 O   0  0  0  0  0  0  0  0  0  0  0  0
    6.0059   -7.4583    0.0000 S   0  0  0  0  0  0  0  0  0  0  0  0
    6.7204   -7.8708    0.0000 C   0  0  0  0  0  0  0  0  0  0  0  0
    6.7203   -8.6958    0.0000 C   0  0  1  0  0  0  0  0  0  0  0  0
    7.4348   -9.1083    0.0000 C   0  0  0  0  0  0  0  0  0  0  0  0
    7.4348   -9.9333    0.0000 O   0  0  0  0  0  0  0  0  0  0  0  0
    6.0060   -6.6333    0.0000 C   0  0  0  0  0  0  0  0  0  0  0  0
    5.2915   -6.2207    0.0000 O   0  0  0  0  0  0  0  0  0  0  0  0
    6.7205   -6.2208    0.0000 C   0  0  0  0  0  0  0  0  0  0  0  0
    7.4349   -6.6334    0.0000 C   0  0  0  0  0  0  0  0  0  0  0  0
    8.1494   -6.2208    0.0000 C   0  0  0  0  0  0  0  0  0  0  0  0
    8.1494   -5.3958    0.0000 C   0  0  0  0  0  0  0  0  0  0  0  0
    7.4349   -4.9832    0.0000 C   0  0  0  0  0  0  0  0  0  0  0  0
    6.7205   -5.3958    0.0000 C   0  0  0  0  0  0  0  0  0  0  0  0
    5.2914   -8.6957    0.0000 C   0  0  0  0  0  0  0  0  0  0  0  0
    4.5769   -9.1082    0.0000 C   0  0  0  0  0  0  0  0  0  0  0  0
    5.2914   -7.8707    0.0000 O   0  0  0  0  0  0  0  0  0  0  0  0
    3.8625   -8.6956    0.0000 C   0  0  0  0  0  0  0  0  0  0  0  0
    3.1480   -9.1082    0.0000 C   0  0  0  0  0  0  0  0  0  0  0  0
    3.1480   -9.9332    0.0000 C   0  0  0  0  0  0  0  0  0  0  0  0
    3.8625  -10.3457    0.0000 C   0  0  0  0  0  0  0  0  0  0  0  0
    4.5769   -9.9332    0.0000 C   0  0  0  0  0  0  0  0  0  0  0  0
    8.8637   -9.1084    0.0000 C   0  0  0  0  0  0  0  0  0  0  0  0
  5  1  1  1  0  0  0
  6  2  1  0  0  0  0
  3  4  1  0  0  0  0
  4  5  1  0  0  0  0
  5  6  1  0  0  0  0
  6  7  2  0  0  0  0
  3  8  1  0  0  0  0
  8  9  2  0  0  0  0
  8 10  1  0  0  0  0
 10 11  1  0  0  0  0
 11 12  1  0  0  0  0
 12 13  1  0  0  0  0
 13 14  1  0  0  0  0
 14 15  1  0  0  0  0
 15 10  1  0  0  0  0
  1 16  1  0  0  0  0
 16 17  1  0  0  0  0
 16 18  2  0  0  0  0
 17 19  1  0  0  0  0
 19 20  1  0  0  0  0
 20 21  1  0  0  0  0
 21 22  1  0  0  0  0
 22 23  1  0  0  0  0
 23 17  1  0  0  0  0
  2 24  1  0  0  0  0
M  END
>  <cdx:fragmentId>
3

$$$$
