5362376.cdx
  Mrv1902 05222410252D          

 30 30  0  0  0  0            999 V2000
   18.0021   -9.3698    0.0000 O   0  0  0  0  0  0  0  0  0  0  0  0
   18.4146   -8.6553    0.0000 S   0  0  0  0  0  0  0  0  0  0  0  0
   17.7001   -8.2428    0.0000 C   0  0  0  0  0  0  0  0  0  0  0  0
   16.9856   -8.6553    0.0000 C   0  0  0  0  0  0  0  0  0  0  0  0
   16.2711   -8.2428    0.0000 C   0  0  0  0  0  0  0  0  0  0  0  0
   15.5567   -8.6553    0.0000 C   0  0  0  0  0  0  0  0  0  0  0  0
   14.8422   -8.2428    0.0000 C   0  0  2  0  0  0  0  0  0  0  0  0
   14.1277   -8.6553    0.0000 N   0  0  0  0  0  0  0  0  0  0  0  0
   13.4133   -8.2428    0.0000 C   0  0  0  0  0  0  0  0  0  0  0  0
   12.6988   -8.6553    0.0000 C   0  0  0  0  0  0  0  0  0  0  0  0
   11.9843   -8.2428    0.0000 O   0  0  0  0  0  0  0  0  0  0  0  0
   11.2698   -8.6553    0.0000 C   0  0  0  0  0  0  0  0  0  0  0  0
   10.5554   -8.2428    0.0000 C   0  0  0  0  0  0  0  0  0  0  0  0
    9.8409   -8.6553    0.0000 C   0  0  0  0  0  0  0  0  0  0  0  0
    9.8409   -9.4803    0.0000 C   0  0  0  0  0  0  0  0  0  0  0  0
   10.5554   -9.8928    0.0000 C   0  0  0  0  0  0  0  0  0  0  0  0
   11.2698   -9.4803    0.0000 C   0  0  0  0  0  0  0  0  0  0  0  0
   11.9843   -9.8928    0.0000 O   0  0  0  0  0  0  0  0  0  0  0  0
   12.6988   -9.4803    0.0000 C   0  0  0  0  0  0  0  0  0  0  0  0
   13.4133   -9.8928    0.0000 C   0  0  0  0  0  0  0  0  0  0  0  0
   14.8422   -7.4178    0.0000 C   0  0  0  0  0  0  0  0  0  0  0  0
   16.2711   -7.4178    0.0000 C   0  0  0  0  0  0  0  0  0  0  0  0
   16.9856   -7.0053    0.0000 C   0  0  0  0  0  0  0  0  0  0  0  0
   17.7001   -7.4178    0.0000 C   0  0  0  0  0  0  0  0  0  0  0  0
   18.4146   -7.0053    0.0000 O   0  0  0  0  0  0  0  0  0  0  0  0
   19.1290   -7.4178    0.0000 C   0  0  0  0  0  0  0  0  0  0  0  0
   19.1290   -9.0678    0.0000 N   0  0  0  0  0  0  0  0  0  0  0  0
   18.8271   -7.9409    0.0000 O   0  0  0  0  0  0  0  0  0  0  0  0
   19.9540   -8.4491    0.0000 H   0  0  0  0  0  0  0  0  0  0  0  0
   20.7790   -8.4491    0.0000 Cl  0  0  0  0  0  0  0  0  0  0  0  0
  1  2  2  0  0  0  0
  2  3  1  0  0  0  0
  3  4  1  0  0  0  0
  4  5  2  0  0  0  0
  5  6  1  0  0  0  0
  6  7  1  0  0  0  0
  7  8  1  0  0  0  0
  8  9  1  0  0  0  0
  9 10  1  0  0  0  0
 10 11  1  0  0  0  0
 11 12  1  0  0  0  0
 12 13  1  0  0  0  0
 13 14  2  0  0  0  0
 14 15  1  0  0  0  0
 15 16  2  0  0  0  0
 16 17  1  0  0  0  0
 12 17  2  0  0  0  0
 17 18  1  0  0  0  0
 18 19  1  0  0  0  0
 19 20  1  0  0  0  0
  7 21  1  6  0  0  0
  5 22  1  0  0  0  0
 22 23  2  0  0  0  0
 23 24  1  0  0  0  0
  3 24  2  0  0  0  0
 24 25  1  0  0  0  0
 25 26  1  0  0  0  0
  2 27  1  0  0  0  0
  2 28  2  0  0  0  0
 29 30  1  0  0  0  0
M  END
>  <cdx:groupId>
24760

>  <cdx:fragmentId>
24729

$$$$
