5362666.cdx
  Mrv1902 05222410282D          

 17 17  0  0  0  0            999 V2000
   10.7773   -6.1349    0.0000 O   0  0  0  0  0  0  0  0  0  0  0  0
    9.9703   -6.3064    0.0000 C   0  0  0  0  0  0  0  0  0  0  0  0
    9.8841   -7.1269    0.0000 C   0  0  0  0  0  0  0  0  0  0  0  0
   10.6377   -7.4624    0.0000 C   0  0  0  0  0  0  0  0  0  0  0  0
   11.1898   -6.8493    0.0000 C   0  0  0  0  0  0  0  0  0  0  0  0
    9.3572   -5.7543    0.0000 O   0  0  0  0  0  0  0  0  0  0  0  0
   12.0103   -6.9356    0.0000 O   0  0  0  0  0  0  0  0  0  0  0  0
    9.1696   -7.5394    0.0000 C   0  0  0  0  0  0  0  0  0  0  0  0
    8.4551   -7.1269    0.0000 C   0  0  0  0  0  0  0  0  0  0  0  0
    7.7407   -7.5394    0.0000 C   0  0  0  0  0  0  0  0  0  0  0  0
    7.0262   -7.1269    0.0000 C   0  0  0  0  0  0  0  0  0  0  0  0
    6.3117   -7.5394    0.0000 C   0  0  0  0  0  0  0  0  0  0  0  0
    5.5972   -7.1269    0.0000 C   0  0  0  0  0  0  0  0  0  0  0  0
    4.8828   -7.5394    0.0000 C   0  0  0  0  0  0  0  0  0  0  0  0
    4.1683   -7.1269    0.0000 C   0  0  0  0  0  0  0  0  0  0  0  0
    3.4538   -7.5394    0.0000 C   0  0  0  0  0  0  0  0  0  0  0  0
    2.7394   -7.1269    0.0000 C   0  0  0  0  0  0  0  0  0  0  0  0
  1  2  1  0  0  0  0
  2  3  1  0  0  0  0
  3  4  1  0  0  0  0
  4  5  1  0  0  0  0
  1  5  1  0  0  0  0
  2  6  2  0  0  0  0
  5  7  2  0  0  0  0
  8  9  1  0  0  0  0
  9 10  2  0  0  0  0
 10 11  1  0  0  0  0
 11 12  1  0  0  0  0
 12 13  1  0  0  0  0
 13 14  1  0  0  0  0
 14 15  1  0  0  0  0
 15 16  1  0  0  0  0
 16 17  1  0  0  0  0
  3  8  1  0  0  0  0
M  END
>  <cdx:groupId>
53

>  <cdx:fragmentId>
19

$$$$
