5362667.cdx
  Mrv1902 05222410282D          

 21 20  0  0  0  0            999 V2000
   20.8273   -8.6553    0.0000 C   0  0  0  0  0  0  0  0  0  0  0  0
   20.1128   -9.0678    0.0000 C   0  0  0  0  0  0  0  0  0  0  0  0
   19.3983   -8.6553    0.0000 C   0  0  0  0  0  0  0  0  0  0  0  0
   18.6839   -9.0678    0.0000 C   0  0  0  0  0  0  0  0  0  0  0  0
   17.9694   -8.6553    0.0000 C   0  0  0  0  0  0  0  0  0  0  0  0
   17.2549   -9.0678    0.0000 C   0  0  0  0  0  0  0  0  0  0  0  0
   16.5405   -8.6553    0.0000 C   0  0  0  0  0  0  0  0  0  0  0  0
   15.8260   -9.0678    0.0000 C   0  0  0  0  0  0  0  0  0  0  0  0
   15.1115   -8.6553    0.0000 C   0  0  0  0  0  0  0  0  0  0  0  0
   14.3970   -9.0678    0.0000 C   0  0  0  0  0  0  0  0  0  0  0  0
   13.6826   -8.6553    0.0000 C   0  0  0  0  0  0  0  0  0  0  0  0
   12.9681   -9.0678    0.0000 C   0  0  0  0  0  0  0  0  0  0  0  0
   12.2536   -8.6553    0.0000 C   0  0  0  0  0  0  0  0  0  0  0  0
   11.5392   -9.0678    0.0000 C   0  0  0  0  0  0  0  0  0  0  0  0
   10.8247   -8.6553    0.0000 C   0  0  0  0  0  0  0  0  0  0  0  0
   10.1102   -9.0678    0.0000 C   0  0  0  0  0  0  0  0  0  0  0  0
    9.3958   -8.6553    0.0000 C   0  0  0  0  0  0  0  0  0  0  0  0
    8.6813   -9.0678    0.0000 C   0  0  0  0  0  0  0  0  0  0  0  0
   20.8273   -7.8303    0.0000 O   0  0  0  0  0  0  0  0  0  0  0  0
   21.5418   -9.0678    0.0000 O   0  0  0  0  0  0  0  0  0  0  0  0
   22.2562   -8.6553    0.0000 C   0  0  0  0  0  0  0  0  0  0  0  0
  1  2  1  0  0  0  0
  2  3  2  0  0  0  0
  3  4  1  0  0  0  0
  4  5  1  0  0  0  0
  5  6  2  0  0  0  0
  6  7  1  0  0  0  0
  7  8  1  0  0  0  0
  8  9  1  0  0  0  0
  9 10  1  0  0  0  0
 10 11  1  0  0  0  0
 11 12  1  0  0  0  0
 12 13  1  0  0  0  0
 13 14  1  0  0  0  0
 14 15  1  0  0  0  0
 15 16  1  0  0  0  0
 16 17  1  0  0  0  0
 17 18  1  0  0  0  0
  1 19  2  0  0  0  0
  1 20  1  0  0  0  0
 20 21  1  0  0  0  0
M  END
>  <cdx:groupId>
25034

>  <cdx:fragmentId>
24975

$$$$
