5362795.cdx
  Mrv1902 05222410212D          

 15 14  0  0  0  0            999 V2000
   19.4966   -8.7600    0.0000 C   0  0  0  0  0  0  0  0  0  0  0  0
   18.7821   -8.3475    0.0000 C   0  0  0  0  0  0  0  0  0  0  0  0
   18.0676   -8.7600    0.0000 C   0  0  0  0  0  0  0  0  0  0  0  0
   17.3531   -8.3475    0.0000 C   0  0  0  0  0  0  0  0  0  0  0  0
   16.6387   -8.7600    0.0000 C   0  0  0  0  0  0  0  0  0  0  0  0
   15.9242   -8.3475    0.0000 C   0  0  0  0  0  0  0  0  0  0  0  0
   15.2097   -8.7600    0.0000 C   0  0  0  0  0  0  0  0  0  0  0  0
   14.3847   -8.7600    0.0000 C   0  0  0  0  0  0  0  0  0  0  0  0
   13.6703   -8.3475    0.0000 C   0  0  0  0  0  0  0  0  0  0  0  0
   12.9558   -8.7600    0.0000 C   0  0  0  0  0  0  0  0  0  0  0  0
   12.2413   -8.3475    0.0000 C   0  0  0  0  0  0  0  0  0  0  0  0
   11.5268   -8.7600    0.0000 C   0  0  0  0  0  0  0  0  0  0  0  0
   10.8124   -8.3475    0.0000 C   0  0  0  0  0  0  0  0  0  0  0  0
   10.0979   -8.7600    0.0000 C   0  0  0  0  0  0  0  0  0  0  0  0
   20.2110   -8.3475    0.0000 O   0  0  0  0  0  0  0  0  0  0  0  0
  1  2  1  0  0  0  0
  2  3  1  0  0  0  0
  3  4  1  0  0  0  0
  4  5  1  0  0  0  0
  5  6  1  0  0  0  0
  6  7  1  0  0  0  0
  7  8  2  0  0  0  0
  8  9  1  0  0  0  0
  9 10  1  0  0  0  0
 10 11  1  0  0  0  0
 11 12  1  0  0  0  0
 12 13  1  0  0  0  0
 13 14  1  0  0  0  0
  1 15  1  0  0  0  0
M  END
>  <cdx:groupId>
25470

>  <cdx:fragmentId>
25429

$$$$
