362707.cdx
  Mrv1902 05222410282D          

 13 12  0  0  0  0            999 V2000
    7.4820   -6.6820    0.0000 C   0  0  0  0  0  0  0  0  0  0  0  0
    7.4707   -5.8571    0.0000 C   0  0  0  0  0  0  0  0  0  0  0  0
    8.1795   -5.4349    0.0000 C   0  0  0  0  0  0  0  0  0  0  0  0
    8.1683   -4.6100    0.0000 C   0  0  0  0  0  0  0  0  0  0  0  0
    8.8771   -4.1878    0.0000 C   0  0  0  0  0  0  0  0  0  0  0  0
    3.9155   -7.1431    0.0000 C   0  0  0  0  0  0  0  0  0  0  0  0
    4.6243   -6.7209    0.0000 C   0  0  0  0  0  0  0  0  0  0  0  0
    5.3444   -7.1237    0.0000 C   0  0  0  0  0  0  0  0  0  0  0  0
    6.0532   -6.7015    0.0000 C   0  0  0  0  0  0  0  0  0  0  0  0
    6.0756   -8.3513    0.0000 O   0  0  0  0  0  0  0  0  0  0  0  0
    8.8659   -3.3629    0.0000 C   0  0  0  0  0  0  0  0  0  0  0  0
    6.7732   -7.1042    0.0000 C   0  0  0  0  0  0  0  0  0  0  0  0
    6.7844   -7.9291    0.0000 C   0  0  0  0  0  0  0  0  0  0  0  0
 12  9  1  0  0  0  0
  7  6  1  0  0  0  0
  8  7  1  0  0  0  0
  9  8  1  0  0  0  0
 13 10  1  0  0  0  0
 12  1  2  0  0  0  0
 13 12  1  0  0  0  0
  1  2  1  0  0  0  0
  2  3  1  0  0  0  0
  3  4  1  0  0  0  0
  4  5  1  0  0  0  0
  5 11  2  0  0  0  0
M  END
>  <cdx:fragmentId>
25284

$$$$
