362755.cdx
  Mrv1902 05222410202D          

 15 14  0  0  0  0            999 V2000
    2.7809   -6.8469    0.0000 C   0  0  0  0  0  0  0  0  0  0  0  0
    3.4954   -7.2594    0.0000 O   0  0  0  0  0  0  0  0  0  0  0  0
    4.2099   -6.0219    0.0000 O   0  0  0  0  0  0  0  0  0  0  0  0
   12.0691   -7.2594    0.0000 C   0  0  0  0  0  0  0  0  0  0  0  0
   11.3546   -6.8469    0.0000 C   0  0  0  0  0  0  0  0  0  0  0  0
   10.6401   -7.2594    0.0000 C   0  0  0  0  0  0  0  0  0  0  0  0
    9.9256   -6.8469    0.0000 C   0  0  0  0  0  0  0  0  0  0  0  0
    9.2112   -7.2594    0.0000 C   0  0  0  0  0  0  0  0  0  0  0  0
    8.4967   -6.8469    0.0000 C   0  0  0  0  0  0  0  0  0  0  0  0
    7.7822   -7.2594    0.0000 C   0  0  0  0  0  0  0  0  0  0  0  0
    7.0678   -6.8469    0.0000 C   0  0  0  0  0  0  0  0  0  0  0  0
    6.3533   -7.2594    0.0000 C   0  0  0  0  0  0  0  0  0  0  0  0
    5.6388   -6.8469    0.0000 C   0  0  0  0  0  0  0  0  0  0  0  0
    4.9244   -7.2594    0.0000 C   0  0  0  0  0  0  0  0  0  0  0  0
    4.2099   -6.8469    0.0000 C   0  0  0  0  0  0  0  0  0  0  0  0
  2  1  1  0  0  0  0
 15  2  1  0  0  0  0
 15  3  2  0  0  0  0
  5  4  1  0  0  0  0
  6  5  1  0  0  0  0
  7  6  2  0  0  0  0
  8  7  1  0  0  0  0
  9  8  1  0  0  0  0
 10  9  1  0  0  0  0
 11 10  1  0  0  0  0
 12 11  1  0  0  0  0
 13 12  1  0  0  0  0
 14 13  1  0  0  0  0
 15 14  1  0  0  0  0
M  END
>  <cdx:groupId>
46

>  <cdx:fragmentId>
5

$$$$
