362887.cdx
  Mrv1902 05222410262D          

 19 22  0  0  0  0            999 V2000
    7.7138   -7.7630    0.0000 C   0  0  0  0  0  0  0  0  0  0  0  0
    7.7138   -6.9380    0.0000 C   0  0  0  0  0  0  0  0  0  0  0  0
    6.9993   -8.1755    0.0000 O   0  0  0  0  0  0  0  0  0  0  0  0
    8.4282   -8.1755    0.0000 C   0  0  0  0  0  0  0  0  0  0  0  0
    8.8407   -8.8900    0.0000 C   0  0  0  0  0  0  0  0  0  0  0  0
    9.2532   -8.1755    0.0000 C   0  0  0  0  0  0  0  0  0  0  0  0
    8.4282   -9.6044    0.0000 C   0  0  0  0  0  0  0  0  0  0  0  0
    9.2532   -9.6044    0.0000 C   0  0  0  0  0  0  0  0  0  0  0  0
    9.9677  -10.0169    0.0000 C   0  0  0  0  0  0  0  0  0  0  0  0
    9.2532  -10.4294    0.0000 C   0  0  0  0  0  0  0  0  0  0  0  0
    3.9203   -7.3505    0.0000 C   0  0  0  0  0  0  0  0  0  0  0  0
    3.9203   -6.5255    0.0000 C   0  0  0  0  0  0  0  0  0  0  0  0
    4.6348   -6.9380    0.0000 C   0  0  0  0  0  0  0  0  0  0  0  0
    5.0473   -6.2235    0.0000 C   0  0  0  0  0  0  0  0  0  0  0  0
    5.8723   -7.6525    0.0000 C   0  0  0  0  0  0  0  0  0  0  0  0
    5.4598   -6.9380    0.0000 C   0  0  0  0  0  0  0  0  0  0  0  0
    6.2848   -6.9380    0.0000 C   0  0  0  0  0  0  0  0  0  0  0  0
    6.9993   -5.7005    0.0000 C   0  0  0  0  0  0  0  0  0  0  0  0
    6.9993   -6.5255    0.0000 C   0  0  0  0  0  0  0  0  0  0  0  0
 19 17  1  0  0  0  0
 16 13  1  0  0  0  0
 13 11  1  0  0  0  0
 12 11  1  0  0  0  0
 13 12  1  0  0  0  0
 16 14  1  0  0  0  0
 17 15  1  0  0  0  0
 16 15  1  0  0  0  0
 17 16  1  0  0  0  0
 19 18  1  0  0  0  0
  2 19  2  0  0  0  0
  1  2  1  0  0  0  0
  1  3  2  0  0  0  0
  4  5  1  0  0  0  0
  5  6  1  0  0  0  0
  4  6  1  0  0  0  0
  5  7  1  0  0  0  0
  8  9  1  0  0  0  0
  9 10  1  0  0  0  0
  8 10  1  0  0  0  0
  5  8  1  0  0  0  0
  1  4  1  0  0  0  0
M  END
>  <cdx:fragmentId>
25772

$$$$
