362897.cdx
  Mrv1902 05222410282D          

  7  6  0  0  0  0            999 V2000
    8.0369   -6.8614    0.0000 C   0  0  0  0  0  0  0  0  0  0  0  0
    7.3224   -6.4489    0.0000 C   0  0  0  0  0  0  0  0  0  0  0  0
    6.6079   -6.8614    0.0000 C   0  0  0  0  0  0  0  0  0  0  0  0
    5.8935   -6.4489    0.0000 C   0  0  0  0  0  0  0  0  0  0  0  0
    8.7513   -6.4489    0.0000 O   0  0  0  0  0  0  0  0  0  0  0  0
    7.3224   -5.6239    0.0000 C   0  0  0  0  0  0  0  0  0  0  0  0
    6.6079   -5.2114    0.0000 C   0  0  0  0  0  0  0  0  0  0  0  0
  1  2  1  0  0  0  0
  2  3  2  0  0  0  0
  3  4  1  0  0  0  0
  1  5  2  0  0  0  0
  6  7  1  0  0  0  0
  2  6  1  0  0  0  0
M  END
>  <cdx:fragmentId>
25989

$$$$
