362830.cdx
  Mrv1902 05222410242D          

 17 16  0  0  0  0            999 V2000
    5.4603   -5.2453    0.0000 C   0  0  0  0  0  0  0  0  0  0  0  0
    4.7459   -5.6578    0.0000 C   0  0  0  0  0  0  0  0  0  0  0  0
    4.0314   -5.2453    0.0000 C   0  0  0  0  0  0  0  0  0  0  0  0
    4.0314   -4.4203    0.0000 C   0  0  0  0  0  0  0  0  0  0  0  0
    3.3169   -5.6578    0.0000 C   0  0  0  0  0  0  0  0  0  0  0  0
    5.4603   -4.4203    0.0000 O   0  0  0  0  0  0  0  0  0  0  0  0
    6.1748   -5.6578    0.0000 O   0  0  0  0  0  0  0  0  0  0  0  0
    6.8893   -5.2453    0.0000 C   0  0  0  0  0  0  0  0  0  0  0  0
    7.6038   -5.6578    0.0000 C   0  0  0  0  0  0  0  0  0  0  0  0
    8.3182   -5.2453    0.0000 C   0  0  0  0  0  0  0  0  0  0  0  0
    8.3182   -4.4203    0.0000 C   0  0  0  0  0  0  0  0  0  0  0  0
    9.0327   -5.6578    0.0000 C   0  0  0  0  0  0  0  0  0  0  0  0
    9.7472   -5.2453    0.0000 C   0  0  0  0  0  0  0  0  0  0  0  0
   10.4616   -5.6578    0.0000 C   0  0  0  0  0  0  0  0  0  0  0  0
   11.1761   -5.2453    0.0000 C   0  0  0  0  0  0  0  0  0  0  0  0
   11.8906   -5.6578    0.0000 C   0  0  0  0  0  0  0  0  0  0  0  0
   11.1761   -4.4203    0.0000 C   0  0  0  0  0  0  0  0  0  0  0  0
  1  2  1  0  0  0  0
  2  3  1  0  0  0  0
  3  4  1  0  0  0  0
  3  5  1  0  0  0  0
  1  6  2  0  0  0  0
  1  7  1  0  0  0  0
  8  9  1  0  0  0  0
  9 10  2  0  0  0  0
 10 11  1  0  0  0  0
 10 12  1  0  0  0  0
 12 13  1  0  0  0  0
 13 14  1  0  0  0  0
 14 15  2  0  0  0  0
 15 16  1  0  0  0  0
 15 17  1  0  0  0  0
  7  8  1  0  0  0  0
M  END
>  <cdx:groupId>
25650

>  <cdx:fragmentId>
25617

$$$$
