5362863.cdx
  Mrv1902 05222410192D          

 19 18  0  0  0  0            999 V2000
    8.8727   -8.6377    0.0000 C   0  0  0  0  0  0  0  0  0  0  0  0
    9.5872   -8.2252    0.0000 C   0  0  0  0  0  0  0  0  0  0  0  0
   10.3017   -8.6377    0.0000 C   0  0  0  0  0  0  0  0  0  0  0  0
   11.0161   -8.2252    0.0000 C   0  0  0  0  0  0  0  0  0  0  0  0
   11.8411   -8.2252    0.0000 C   0  0  0  0  0  0  0  0  0  0  0  0
   12.5556   -8.6377    0.0000 C   0  0  0  0  0  0  0  0  0  0  0  0
   13.3806   -8.6377    0.0000 C   0  0  0  0  0  0  0  0  0  0  0  0
   14.0951   -8.2252    0.0000 C   0  0  0  0  0  0  0  0  0  0  0  0
   14.8095   -8.6377    0.0000 C   0  0  0  0  0  0  0  0  0  0  0  0
   15.6345   -8.6377    0.0000 C   0  0  0  0  0  0  0  0  0  0  0  0
   16.3490   -8.2252    0.0000 C   0  0  0  0  0  0  0  0  0  0  0  0
   17.0635   -8.6377    0.0000 C   0  0  0  0  0  0  0  0  0  0  0  0
   17.7780   -8.2252    0.0000 C   0  0  0  0  0  0  0  0  0  0  0  0
   18.4924   -8.6377    0.0000 C   0  0  0  0  0  0  0  0  0  0  0  0
   19.2069   -8.2252    0.0000 C   0  0  0  0  0  0  0  0  0  0  0  0
   19.9214   -8.6377    0.0000 C   0  0  0  0  0  0  0  0  0  0  0  0
   20.6358   -8.2252    0.0000 C   0  0  0  0  0  0  0  0  0  0  0  0
   21.3503   -8.6377    0.0000 C   0  0  0  0  0  0  0  0  0  0  0  0
   22.0648   -8.2252    0.0000 C   0  0  0  0  0  0  0  0  0  0  0  0
  1  2  1  0  0  0  0
  2  3  1  0  0  0  0
  3  4  1  0  0  0  0
  4  5  2  0  0  0  0
  5  6  1  0  0  0  0
  6  7  2  0  0  0  0
  7  8  1  0  0  0  0
  8  9  1  0  0  0  0
  9 10  2  0  0  0  0
 10 11  1  0  0  0  0
 11 12  1  0  0  0  0
 12 13  1  0  0  0  0
 13 14  1  0  0  0  0
 14 15  1  0  0  0  0
 15 16  1  0  0  0  0
 16 17  1  0  0  0  0
 17 18  1  0  0  0  0
 18 19  1  0  0  0  0
M  END
>  <cdx:groupId>
25713

>  <cdx:fragmentId>
25660

$$$$
