5362891.cdx
  Mrv1902 05222410272D          

 10  9  0  0  0  0            999 V2000
   16.8977   -7.4002    0.0000 C   0  0  0  0  0  0  0  0  0  0  0  0
   16.8977   -8.2252    0.0000 C   0  0  0  0  0  0  0  0  0  0  0  0
   16.1832   -8.6377    0.0000 C   0  0  0  0  0  0  0  0  0  0  0  0
   15.4688   -8.2252    0.0000 C   0  0  0  0  0  0  0  0  0  0  0  0
   14.7543   -8.6377    0.0000 C   0  0  0  0  0  0  0  0  0  0  0  0
   14.0398   -8.2252    0.0000 C   0  0  0  0  0  0  0  0  0  0  0  0
   13.3253   -8.6377    0.0000 C   0  0  0  0  0  0  0  0  0  0  0  0
   16.1832   -9.4627    0.0000 C   0  0  0  0  0  0  0  0  0  0  0  0
   14.7543   -9.4627    0.0000 C   0  0  0  0  0  0  0  0  0  0  0  0
   17.6122   -8.6377    0.0000 C   0  0  0  0  0  0  0  0  0  0  0  0
  1  2  2  0  0  0  0
  2  3  1  0  0  0  0
  3  4  1  0  0  0  0
  4  5  1  0  0  0  0
  5  6  2  0  0  0  0
  6  7  1  0  0  0  0
  3  8  2  0  0  0  0
  5  9  1  0  0  0  0
  2 10  1  0  0  0  0
M  END
>  <cdx:groupId>
25956

>  <cdx:fragmentId>
25930

$$$$
