362876.cdx
  Mrv1902 05222410192D          

 11 10  0  0  0  0            999 V2000
    5.7677   -7.9978    0.0000 C   0  0  0  0  0  0  0  0  0  0  0  0
    6.4866   -7.5930    0.0000 C   0  0  0  0  0  0  0  0  0  0  0  0
    6.4956   -6.7681    0.0000 C   0  0  0  0  0  0  0  0  0  0  0  0
    7.2145   -6.3634    0.0000 C   0  0  0  0  0  0  0  0  0  0  0  0
    7.9245   -6.7836    0.0000 C   0  0  0  0  0  0  0  0  0  0  0  0
    8.6434   -6.3789    0.0000 C   0  0  0  0  0  0  0  0  0  0  0  0
    9.3533   -6.7992    0.0000 C   0  0  0  0  0  0  0  0  0  0  0  0
   10.0722   -6.3945    0.0000 C   0  0  0  0  0  0  0  0  0  0  0  0
    5.7587   -8.8227    0.0000 O   0  0  0  0  0  0  0  0  0  0  0  0
    9.3443   -7.6241    0.0000 C   0  0  0  0  0  0  0  0  0  0  0  0
    5.7857   -6.3478    0.0000 C   0  0  0  0  0  0  0  0  0  0  0  0
  1  2  1  0  0  0  0
  2  3  1  0  0  0  0
  3  4  2  0  0  0  0
  4  5  1  0  0  0  0
  5  6  1  0  0  0  0
  6  7  2  0  0  0  0
  7  8  1  0  0  0  0
  1  9  1  0  0  0  0
  7 10  1  0  0  0  0
  3 11  1  0  0  0  0
M  END
>  <cdx:fragmentId>
25726

$$$$
