362950.cdx
  Mrv1902 05222410242D          

 31 34  0  0  0  0            999 V2000
    8.7804   -9.1737    0.0000 N   0  0  0  0  0  0  0  0  0  0  0  0
    9.4948   -8.7612    0.0000 N   0  0  0  0  0  0  0  0  0  0  0  0
   10.3198   -8.7612    0.0000 C   0  0  0  0  0  0  0  0  0  0  0  0
    9.9073   -8.0467    0.0000 C   0  0  0  0  0  0  0  0  0  0  0  0
   11.0343   -9.1737    0.0000 C   0  0  0  0  0  0  0  0  0  0  0  0
   11.7488   -8.7612    0.0000 C   0  0  0  0  0  0  0  0  0  0  0  0
   12.4633   -9.1737    0.0000 C   0  0  0  0  0  0  0  0  0  0  0  0
   12.4633   -9.9987    0.0000 C   0  0  0  0  0  0  0  0  0  0  0  0
   11.7488  -10.4112    0.0000 C   0  0  0  0  0  0  0  0  0  0  0  0
   11.0343   -9.9987    0.0000 C   0  0  0  0  0  0  0  0  0  0  0  0
    8.0659   -8.7612    0.0000 C   0  0  0  0  0  0  0  0  0  0  0  0
    7.3514   -9.1737    0.0000 C   0  0  0  0  0  0  0  0  0  0  0  0
    6.6370   -8.7612    0.0000 C   0  0  0  0  0  0  0  0  0  0  0  0
    5.9225   -9.1737    0.0000 C   0  0  0  0  0  0  0  0  0  0  0  0
    5.2080   -8.7612    0.0000 C   0  0  0  0  0  0  0  0  0  0  0  0
    4.4935   -9.1737    0.0000 C   0  0  0  0  0  0  0  0  0  0  0  0
    3.7791   -8.7612    0.0000 C   0  0  0  0  0  0  0  0  0  0  0  0
    3.0646   -9.1737    0.0000 C   0  0  0  0  0  0  0  0  0  0  0  0
    2.3501   -8.7612    0.0000 C   0  0  0  0  0  0  0  0  0  0  0  0
    1.6357   -9.1737    0.0000 C   0  0  0  0  0  0  0  0  0  0  0  0
    8.4784   -7.2217    0.0000 O   0  0  0  0  0  0  0  0  0  0  0  0
    8.0659   -7.9362    0.0000 C   0  0  0  0  0  0  0  0  0  0  0  0
    7.6534   -7.2217    0.0000 C   0  0  0  0  0  0  0  0  0  0  0  0
    6.9389   -6.8092    0.0000 C   0  0  0  0  0  0  0  0  0  0  0  0
    6.2245   -7.2217    0.0000 C   0  0  0  0  0  0  0  0  0  0  0  0
    5.5100   -6.8092    0.0000 C   0  0  0  0  0  0  0  0  0  0  0  0
    5.5100   -5.9842    0.0000 C   0  0  0  0  0  0  0  0  0  0  0  0
    6.2245   -5.5717    0.0000 C   0  0  0  0  0  0  0  0  0  0  0  0
    6.9389   -5.9842    0.0000 C   0  0  0  0  0  0  0  0  0  0  0  0
    2.3501   -7.9362    0.0000 C   0  0  0  0  0  0  0  0  0  0  0  0
    5.2080   -7.9362    0.0000 C   0  0  0  0  0  0  0  0  0  0  0  0
  2  3  1  0  0  0  0
  3  4  1  0  0  0  0
  2  4  1  0  0  0  0
  5  6  1  0  0  0  0
  6  7  2  0  0  0  0
  7  8  1  0  0  0  0
  8  9  2  0  0  0  0
  9 10  1  0  0  0  0
  5 10  2  0  0  0  0
  3  5  1  0  0  0  0
  1  2  1  0  0  0  0
 11 12  1  0  0  0  0
 12 13  1  0  0  0  0
 13 14  1  0  0  0  0
 14 15  2  0  0  0  0
 15 16  1  0  0  0  0
 16 17  1  0  0  0  0
 17 18  1  0  0  0  0
 18 19  2  0  0  0  0
 19 20  1  0  0  0  0
 21 22  1  0  0  0  0
 22 23  1  0  0  0  0
 21 23  1  0  0  0  0
 24 25  1  0  0  0  0
 25 26  2  0  0  0  0
 26 27  1  0  0  0  0
 27 28  2  0  0  0  0
 28 29  1  0  0  0  0
 24 29  2  0  0  0  0
 23 24  1  0  0  0  0
 11 22  1  0  0  0  0
 19 30  1  0  0  0  0
 15 31  1  0  0  0  0
  1 11  2  0  0  0  0
M  END
>  <cdx:fragmentId>
26059

$$$$
