5363097.cdx
  Mrv1902 05222410252D          

 18 17  0  0  0  0            999 V2000
   10.1991   -8.1502    0.0000 C   0  0  0  0  0  0  0  0  0  0  0  0
   10.9136   -8.5627    0.0000 C   0  0  0  0  0  0  0  0  0  0  0  0
   11.6280   -8.1502    0.0000 C   0  0  0  0  0  0  0  0  0  0  0  0
   12.3425   -8.5627    0.0000 C   0  0  0  0  0  0  0  0  0  0  0  0
   13.0570   -8.1502    0.0000 C   0  0  0  0  0  0  0  0  0  0  0  0
   13.7714   -8.5627    0.0000 C   0  0  0  0  0  0  0  0  0  0  0  0
   14.4859   -8.1502    0.0000 C   0  0  0  0  0  0  0  0  0  0  0  0
   15.2004   -8.5627    0.0000 C   0  0  0  0  0  0  0  0  0  0  0  0
   15.9149   -8.1502    0.0000 C   0  0  0  0  0  0  0  0  0  0  0  0
   16.6293   -8.5627    0.0000 C   0  0  0  0  0  0  0  0  0  0  0  0
   17.3438   -8.1502    0.0000 C   0  0  0  0  0  0  0  0  0  0  0  0
   18.0583   -8.5627    0.0000 C   0  0  0  0  0  0  0  0  0  0  0  0
   18.7727   -8.1502    0.0000 C   0  0  0  0  0  0  0  0  0  0  0  0
   19.4872   -8.5627    0.0000 C   0  0  0  0  0  0  0  0  0  0  0  0
   20.2017   -8.1502    0.0000 C   0  0  0  0  0  0  0  0  0  0  0  0
   20.9161   -8.5627    0.0000 C   0  0  0  0  0  0  0  0  0  0  0  0
   21.6306   -8.1502    0.0000 C   0  0  0  0  0  0  0  0  0  0  0  0
    9.4846   -8.5627    0.0000 O   0  0  0  0  0  0  0  0  0  0  0  0
  1  2  1  0  0  0  0
  2  3  1  0  0  0  0
  3  4  1  0  0  0  0
  4  5  1  0  0  0  0
  5  6  1  0  0  0  0
  6  7  1  0  0  0  0
  7  8  1  0  0  0  0
  8  9  1  0  0  0  0
  9 10  1  0  0  0  0
 10 11  1  0  0  0  0
 11 12  1  0  0  0  0
 12 13  1  0  0  0  0
 13 14  1  0  0  0  0
 14 15  1  0  0  0  0
 15 16  2  0  0  0  0
 16 17  1  0  0  0  0
  1 18  2  0  0  0  0
M  END
>  <cdx:groupId>
26242

>  <cdx:fragmentId>
26192

$$$$
