363099.cdx
  Mrv1902 05222410212D          

 16 17  0  0  0  0            999 V2000
    9.4750   -6.9652    0.0000 C   0  0  0  0  0  0  0  0  0  0  0  0
    4.7757   -6.0296    0.0000 C   0  0  0  0  0  0  0  0  0  0  0  0
    6.2046   -6.0296    0.0000 C   0  0  0  0  0  0  0  0  0  0  0  0
    5.4902   -6.4421    0.0000 C   0  0  0  0  0  0  0  0  0  0  0  0
    5.4902   -7.2671    0.0000 C   0  0  0  0  0  0  0  0  0  0  0  0
    6.2046   -7.6796    0.0000 C   0  0  0  0  0  0  0  0  0  0  0  0
    6.2046   -8.5046    0.0000 C   0  0  0  0  0  0  0  0  0  0  0  0
    6.9191   -8.9171    0.0000 C   0  0  0  0  0  0  0  0  0  0  0  0
    6.9191   -9.7421    0.0000 C   0  0  0  0  0  0  0  0  0  0  0  0
    9.7770   -8.0921    0.0000 O   0  0  0  0  0  0  0  0  0  0  0  0
    9.0625   -8.5046    0.0000 C   0  0  0  0  0  0  0  0  0  0  0  0
    8.3480   -8.9171    0.0000 C   0  0  0  0  0  0  0  0  0  0  0  0
    7.6336   -8.5046    0.0000 C   0  0  0  0  0  0  0  0  0  0  0  0
    7.6336   -7.6796    0.0000 C   0  0  0  0  0  0  0  0  0  0  0  0
    8.3480   -7.2671    0.0000 C   0  0  0  0  0  0  0  0  0  0  0  0
    9.0625   -7.6796    0.0000 C   0  0  0  0  0  0  0  0  0  0  0  0
 16  1  1  0  0  0  0
 13  8  1  0  0  0  0
  4  2  1  0  0  0  0
  4  3  1  0  0  0  0
  5  4  2  0  0  0  0
  6  5  1  0  0  0  0
  7  6  1  0  0  0  0
  8  7  2  0  0  0  0
  9  8  1  0  0  0  0
 16 11  1  0  0  0  0
 16 10  1  0  0  0  0
 11 10  1  0  0  0  0
 12 11  1  0  0  0  0
 13 12  1  0  0  0  0
 14 13  1  0  0  0  0
 15 14  1  0  0  0  0
 16 15  1  0  0  0  0
M  END
>  <cdx:fragmentId>
26265

$$$$
