5363092.cdx
  Mrv1902 05222410242D          

 23 22  0  0  0  0            999 V2000
   21.7076   -8.6553    0.0000 C   0  0  0  0  0  0  0  0  0  0  0  0
   20.9931   -9.0678    0.0000 C   0  0  0  0  0  0  0  0  0  0  0  0
   20.2786   -8.6553    0.0000 C   0  0  0  0  0  0  0  0  0  0  0  0
   19.5641   -9.0678    0.0000 C   0  0  0  0  0  0  0  0  0  0  0  0
   18.8497   -8.6553    0.0000 C   0  0  0  0  0  0  0  0  0  0  0  0
   18.1352   -9.0678    0.0000 C   0  0  0  0  0  0  0  0  0  0  0  0
   17.4207   -8.6553    0.0000 C   0  0  0  0  0  0  0  0  0  0  0  0
   16.7063   -9.0678    0.0000 C   0  0  0  0  0  0  0  0  0  0  0  0
   15.8813   -9.0678    0.0000 C   0  0  0  0  0  0  0  0  0  0  0  0
   15.1668   -8.6553    0.0000 C   0  0  0  0  0  0  0  0  0  0  0  0
   14.4523   -9.0678    0.0000 C   0  0  0  0  0  0  0  0  0  0  0  0
   13.6273   -9.0678    0.0000 C   0  0  0  0  0  0  0  0  0  0  0  0
   12.9128   -8.6553    0.0000 C   0  0  0  0  0  0  0  0  0  0  0  0
   12.1984   -9.0678    0.0000 C   0  0  0  0  0  0  0  0  0  0  0  0
   11.3734   -9.0678    0.0000 C   0  0  0  0  0  0  0  0  0  0  0  0
   10.6589   -8.6553    0.0000 C   0  0  0  0  0  0  0  0  0  0  0  0
    9.9444   -9.0678    0.0000 C   0  0  0  0  0  0  0  0  0  0  0  0
    9.2300   -8.6553    0.0000 C   0  0  0  0  0  0  0  0  0  0  0  0
    8.5155   -9.0678    0.0000 C   0  0  0  0  0  0  0  0  0  0  0  0
    7.8010   -8.6553    0.0000 C   0  0  0  0  0  0  0  0  0  0  0  0
   21.7076   -7.8303    0.0000 O   0  0  0  0  0  0  0  0  0  0  0  0
   22.4220   -9.0678    0.0000 O   0  0  0  0  0  0  0  0  0  0  0  0
   23.1365   -8.6553    0.0000 C   0  0  0  0  0  0  0  0  0  0  0  0
  1  2  1  0  0  0  0
  2  3  1  0  0  0  0
  3  4  1  0  0  0  0
  4  5  1  0  0  0  0
  5  6  1  0  0  0  0
  6  7  1  0  0  0  0
  7  8  1  0  0  0  0
  8  9  2  0  0  0  0
  9 10  1  0  0  0  0
 10 11  1  0  0  0  0
 11 12  2  0  0  0  0
 12 13  1  0  0  0  0
 13 14  1  0  0  0  0
 14 15  2  0  0  0  0
 15 16  1  0  0  0  0
 16 17  1  0  0  0  0
 17 18  1  0  0  0  0
 18 19  1  0  0  0  0
 19 20  1  0  0  0  0
  1 21  2  0  0  0  0
  1 22  1  0  0  0  0
 22 23  1  0  0  0  0
M  END
>  <cdx:groupId>
26182

>  <cdx:fragmentId>
26117

$$$$
