363138.cdx
  Mrv1902 05222410212D          

 12 11  0  0  0  0            999 V2000
    9.9122   -6.7843    0.0000 C   0  0  0  0  0  0  0  0  0  0  0  0
    9.1977   -7.1968    0.0000 C   0  0  0  0  0  0  0  0  0  0  0  0
    8.4832   -6.7843    0.0000 C   0  0  0  0  0  0  0  0  0  0  0  0
    7.7688   -7.1968    0.0000 C   0  0  0  0  0  0  0  0  0  0  0  0
    7.0543   -6.7843    0.0000 C   0  0  0  0  0  0  0  0  0  0  0  0
    6.3398   -7.1968    0.0000 C   0  0  0  0  0  0  0  0  0  0  0  0
    6.3398   -8.0218    0.0000 C   0  0  0  0  0  0  0  0  0  0  0  0
    9.1977   -8.0218    0.0000 O   0  0  0  0  0  0  0  0  0  0  0  0
    5.6253   -6.7843    0.0000 C   0  0  0  0  0  0  0  0  0  0  0  0
    7.0543   -5.9593    0.0000 C   0  0  0  0  0  0  0  0  0  0  0  0
    6.3398   -5.5468    0.0000 C   0  0  0  0  0  0  0  0  0  0  0  0
    7.7688   -5.5468    0.0000 C   0  0  0  0  0  0  0  0  0  0  0  0
  1  2  1  0  0  0  0
  2  3  1  0  0  0  0
  3  4  2  0  0  0  0
  4  5  1  0  0  0  0
  5  6  2  0  0  0  0
  6  7  1  0  0  0  0
  2  8  1  0  0  0  0
  6  9  1  0  0  0  0
 10 11  1  0  0  0  0
 10 12  1  0  0  0  0
  5 10  1  0  0  0  0
M  END
>  <cdx:fragmentId>
26304

$$$$
