363101.cdx
  Mrv1902 05222410222D          

 24 25  0  0  0  0            999 V2000
    4.9244   -7.8107    0.0000 C   0  0  0  0  0  0  0  0  0  0  0  0
    4.9244   -6.9857    0.0000 C   0  0  0  0  0  0  0  0  0  0  0  0
    4.2099   -6.5732    0.0000 C   0  0  0  0  0  0  0  0  0  0  0  0
    3.4954   -6.9857    0.0000 C   0  0  0  0  0  0  0  0  0  0  0  0
    3.4954   -7.8107    0.0000 C   0  0  0  0  0  0  0  0  0  0  0  0
    4.2099   -8.2232    0.0000 C   0  0  0  0  0  0  0  0  0  0  0  0
    5.6388   -8.2232    0.0000 C   0  0  0  0  0  0  0  0  0  0  0  0
    6.3533   -7.8107    0.0000 O   0  0  0  0  0  0  0  0  0  0  0  0
    5.6388   -6.5732    0.0000 C   0  0  0  0  0  0  0  0  0  0  0  0
    6.3533   -6.9857    0.0000 C   0  0  0  0  0  0  0  0  0  0  0  0
    7.0678   -6.5732    0.0000 C   0  0  0  0  0  0  0  0  0  0  0  0
    7.7822   -6.9857    0.0000 C   0  0  0  0  0  0  0  0  0  0  0  0
    8.4967   -6.5732    0.0000 C   0  0  0  0  0  0  0  0  0  0  0  0
    9.2112   -6.9857    0.0000 C   0  0  0  0  0  0  0  0  0  0  0  0
    9.9256   -6.5732    0.0000 C   0  0  0  0  0  0  0  0  0  0  0  0
   10.6401   -6.9857    0.0000 C   0  0  0  0  0  0  0  0  0  0  0  0
   11.3546   -6.5732    0.0000 C   0  0  0  0  0  0  0  0  0  0  0  0
   11.3546   -5.7482    0.0000 C   0  0  0  0  0  0  0  0  0  0  0  0
   10.6401   -5.3357    0.0000 C   0  0  0  0  0  0  0  0  0  0  0  0
    9.9256   -5.7482    0.0000 C   0  0  0  0  0  0  0  0  0  0  0  0
    9.1006   -5.7482    0.0000 C   0  0  0  0  0  0  0  0  0  0  0  0
    9.5131   -5.0338    0.0000 C   0  0  0  0  0  0  0  0  0  0  0  0
   10.6401   -7.8107    0.0000 C   0  0  0  0  0  0  0  0  0  0  0  0
    7.7822   -7.8107    0.0000 C   0  0  0  0  0  0  0  0  0  0  0  0
  1  2  2  0  0  0  0
  2  3  1  0  0  0  0
  3  4  1  0  0  0  0
  4  5  1  0  0  0  0
  5  6  1  0  0  0  0
  1  6  1  0  0  0  0
  7  8  2  0  0  0  0
  1  7  1  0  0  0  0
  9 10  2  0  0  0  0
 10 11  1  0  0  0  0
 11 12  2  0  0  0  0
 12 13  1  0  0  0  0
 13 14  2  0  0  0  0
 15 16  2  0  0  0  0
 16 17  1  0  0  0  0
 17 18  1  0  0  0  0
 18 19  1  0  0  0  0
 19 20  1  0  0  0  0
 15 20  1  0  0  0  0
 20 21  1  0  0  0  0
 20 22  1  0  0  0  0
 16 23  1  0  0  0  0
 14 15  1  0  0  0  0
 12 24  1  0  0  0  0
  2  9  1  0  0  0  0
M  END
>  <cdx:fragmentId>
33

$$$$
