363209.cdx
  Mrv1902 05222410272D          

 24 27  0  0  0  0            999 V2000
    7.2755   -7.9272    0.0000 C   0  0  0  0  0  0  0  0  0  0  0  0
    7.9900   -7.5147    0.0000 N   0  3  0  0  0  0  0  0  0  0  0  0
    7.9900   -6.6897    0.0000 C   0  0  0  0  0  0  0  0  0  0  0  0
    7.2755   -6.2772    0.0000 C   0  0  0  0  0  0  0  0  0  0  0  0
    6.5610   -6.6897    0.0000 C   0  0  0  0  0  0  0  0  0  0  0  0
    5.8466   -6.2772    0.0000 C   0  0  0  0  0  0  0  0  0  0  0  0
    5.1321   -6.6897    0.0000 C   0  0  0  0  0  0  0  0  0  0  0  0
    5.1321   -7.5147    0.0000 C   0  0  0  0  0  0  0  0  0  0  0  0
    5.8466   -7.9272    0.0000 C   0  0  0  0  0  0  0  0  0  0  0  0
    6.5610   -7.5147    0.0000 C   0  0  0  0  0  0  0  0  0  0  0  0
    8.7045   -7.9272    0.0000 C   0  0  0  0  0  0  0  0  0  0  0  0
    9.4189   -7.5147    0.0000 C   0  0  0  0  0  0  0  0  0  0  0  0
    9.4189   -6.6897    0.0000 C   0  0  0  0  0  0  0  0  0  0  0  0
   10.1334   -6.2772    0.0000 C   0  0  0  0  0  0  0  0  0  0  0  0
   10.1334   -5.4522    0.0000 C   0  0  0  0  0  0  0  0  0  0  0  0
    9.4189   -5.0397    0.0000 C   0  0  0  0  0  0  0  0  0  0  0  0
    8.7045   -5.4522    0.0000 C   0  0  0  0  0  0  0  0  0  0  0  0
    8.7045   -6.2772    0.0000 C   0  0  0  0  0  0  0  0  0  0  0  0
    9.4189   -4.2147    0.0000 O   0  0  0  0  0  0  0  0  0  0  0  0
   10.8479   -5.0397    0.0000 O   0  0  0  0  0  0  0  0  0  0  0  0
    4.4176   -7.9272    0.0000 O   0  0  0  0  0  0  0  0  0  0  0  0
    3.7032   -7.5147    0.0000 C   0  0  0  0  0  0  0  0  0  0  0  0
    5.8466   -8.7522    0.0000 O   0  0  0  0  0  0  0  0  0  0  0  0
    5.1321   -9.1647    0.0000 C   0  0  0  0  0  0  0  0  0  0  0  0
  1  2  1  0  0  0  0
  2  3  2  0  0  0  0
  3  4  1  0  0  0  0
  4  5  2  0  0  0  0
  5  6  1  0  0  0  0
  6  7  2  0  0  0  0
  7  8  1  0  0  0  0
  8  9  2  0  0  0  0
  9 10  1  0  0  0  0
  1 10  2  0  0  0  0
  5 10  1  0  0  0  0
 11 12  1  0  0  0  0
 12 13  1  0  0  0  0
 13 14  1  0  0  0  0
 14 15  2  0  0  0  0
 15 16  1  0  0  0  0
 16 17  2  0  0  0  0
 17 18  1  0  0  0  0
 13 18  2  0  0  0  0
 11  2  1  0  0  0  0
 18  3  1  0  0  0  0
 16 19  1  0  0  0  0
 15 20  1  0  0  0  0
 21 22  1  0  0  0  0
  8 21  1  0  0  0  0
 23 24  1  0  0  0  0
  9 23  1  0  0  0  0
M  CHG  1   2   1
M  END
>  <cdx:groupId>
77

>  <cdx:fragmentId>
5

$$$$
