5363282.cdx
  Mrv1902 05222410252D          

 20 19  0  0  0  0            999 V2000
    9.6977   -8.6553    0.0000 C   0  0  0  0  0  0  0  0  0  0  0  0
    8.9833   -9.0678    0.0000 C   0  0  0  0  0  0  0  0  0  0  0  0
    9.6977   -7.8303    0.0000 O   0  0  0  0  0  0  0  0  0  0  0  0
   10.4122   -9.0678    0.0000 O   0  0  0  0  0  0  0  0  0  0  0  0
   11.1267   -8.6553    0.0000 C   0  0  0  0  0  0  0  0  0  0  0  0
   11.8411   -9.0678    0.0000 C   0  0  0  0  0  0  0  0  0  0  0  0
   12.5556   -8.6553    0.0000 C   0  0  0  0  0  0  0  0  0  0  0  0
   13.2701   -9.0678    0.0000 C   0  0  0  0  0  0  0  0  0  0  0  0
   13.9845   -8.6553    0.0000 C   0  0  0  0  0  0  0  0  0  0  0  0
   14.6990   -9.0678    0.0000 C   0  0  0  0  0  0  0  0  0  0  0  0
   15.4135   -8.6553    0.0000 C   0  0  0  0  0  0  0  0  0  0  0  0
   16.1280   -9.0678    0.0000 C   0  0  0  0  0  0  0  0  0  0  0  0
   16.8424   -8.6553    0.0000 C   0  0  0  0  0  0  0  0  0  0  0  0
   17.5569   -9.0678    0.0000 C   0  0  0  0  0  0  0  0  0  0  0  0
   18.2714   -8.6553    0.0000 C   0  0  0  0  0  0  0  0  0  0  0  0
   19.0964   -8.6553    0.0000 C   0  0  0  0  0  0  0  0  0  0  0  0
   19.8108   -9.0678    0.0000 C   0  0  0  0  0  0  0  0  0  0  0  0
   20.5253   -8.6553    0.0000 C   0  0  0  0  0  0  0  0  0  0  0  0
   21.2398   -9.0678    0.0000 C   0  0  0  0  0  0  0  0  0  0  0  0
   21.9543   -8.6553    0.0000 C   0  0  0  0  0  0  0  0  0  0  0  0
  1  2  1  0  0  0  0
  1  3  2  0  0  0  0
  1  4  1  0  0  0  0
  5  6  1  0  0  0  0
  6  7  1  0  0  0  0
  7  8  1  0  0  0  0
  8  9  1  0  0  0  0
  9 10  1  0  0  0  0
 10 11  1  0  0  0  0
 11 12  2  0  0  0  0
 12 13  1  0  0  0  0
 13 14  1  0  0  0  0
 14 15  1  0  0  0  0
 15 16  2  0  0  0  0
 16 17  1  0  0  0  0
 17 18  1  0  0  0  0
 18 19  1  0  0  0  0
 19 20  1  0  0  0  0
  4  5  1  0  0  0  0
M  END
>  <cdx:groupId>
26549

>  <cdx:fragmentId>
26501

$$$$
