5363254.cdx
  Mrv1902 05222410252D          

 23 22  0  0  0  0            999 V2000
    8.2688   -8.7699    0.0000 C   0  0  0  0  0  0  0  0  0  0  0  0
    8.9833   -8.3574    0.0000 C   0  0  0  0  0  0  0  0  0  0  0  0
    9.6977   -8.7699    0.0000 C   0  0  0  0  0  0  0  0  0  0  0  0
   10.4122   -8.3574    0.0000 C   0  0  0  0  0  0  0  0  0  0  0  0
   11.1267   -8.7699    0.0000 C   0  0  0  0  0  0  0  0  0  0  0  0
   11.8411   -8.3574    0.0000 C   0  0  0  0  0  0  0  0  0  0  0  0
   12.6661   -8.3574    0.0000 C   0  0  0  0  0  0  0  0  0  0  0  0
   13.3806   -8.7699    0.0000 C   0  0  0  0  0  0  0  0  0  0  0  0
   14.0951   -8.3574    0.0000 C   0  0  0  0  0  0  0  0  0  0  0  0
   14.8095   -8.7699    0.0000 C   0  0  0  0  0  0  0  0  0  0  0  0
   15.5240   -8.3574    0.0000 C   0  0  0  0  0  0  0  0  0  0  0  0
   16.2385   -8.7699    0.0000 C   0  0  0  0  0  0  0  0  0  0  0  0
   16.9530   -8.3574    0.0000 C   0  0  0  0  0  0  0  0  0  0  0  0
   17.6674   -8.7699    0.0000 C   0  0  0  0  0  0  0  0  0  0  0  0
   18.3819   -8.3574    0.0000 C   0  0  0  0  0  0  0  0  0  0  0  0
   19.0964   -8.7699    0.0000 C   0  0  0  0  0  0  0  0  0  0  0  0
   19.8108   -8.3574    0.0000 C   0  0  0  0  0  0  0  0  0  0  0  0
   20.5253   -8.7699    0.0000 C   0  0  0  0  0  0  0  0  0  0  0  0
   21.2398   -8.3574    0.0000 C   0  0  0  0  0  0  0  0  0  0  0  0
   21.9543   -8.7699    0.0000 C   0  0  0  0  0  0  0  0  0  0  0  0
   22.6687   -8.3574    0.0000 C   0  0  0  0  0  0  0  0  0  0  0  0
   15.5240   -7.5324    0.0000 O   0  0  0  0  0  0  0  0  0  0  0  0
   11.1267   -9.5949    0.0000 C   0  0  0  0  0  0  0  0  0  0  0  0
  1  2  1  0  0  0  0
  2  3  1  0  0  0  0
  3  4  1  0  0  0  0
  4  5  1  0  0  0  0
  5  6  1  0  0  0  0
  6  7  2  0  0  0  0
  7  8  1  0  0  0  0
  8  9  1  0  0  0  0
  9 10  1  0  0  0  0
 10 11  1  0  0  0  0
 11 12  1  0  0  0  0
 12 13  1  0  0  0  0
 13 14  1  0  0  0  0
 14 15  1  0  0  0  0
 15 16  1  0  0  0  0
 16 17  1  0  0  0  0
 17 18  1  0  0  0  0
 18 19  1  0  0  0  0
 19 20  1  0  0  0  0
 20 21  1  0  0  0  0
 11 22  2  0  0  0  0
  5 23  1  0  0  0  0
M  END
>  <cdx:groupId>
26409

>  <cdx:fragmentId>
26344

$$$$
