5363376.cdx
  Mrv1902 05222410202D          

 12 11  0  0  0  0            999 V2000
   13.6783   -9.7606    0.0000 C   0  0  0  0  0  0  0  0  0  0  0  0
   12.9638  -10.1731    0.0000 C   0  0  0  0  0  0  0  0  0  0  0  0
   13.6783   -8.9356    0.0000 O   0  0  0  0  0  0  0  0  0  0  0  0
   14.3928  -10.1731    0.0000 O   0  0  0  0  0  0  0  0  0  0  0  0
   15.1072   -9.7606    0.0000 C   0  0  0  0  0  0  0  0  0  0  0  0
   15.8217  -10.1731    0.0000 C   0  0  0  0  0  0  0  0  0  0  0  0
   16.5362   -9.7606    0.0000 C   0  0  0  0  0  0  0  0  0  0  0  0
   16.5362   -8.9356    0.0000 C   0  0  0  0  0  0  0  0  0  0  0  0
   17.2506   -8.5231    0.0000 C   0  0  0  0  0  0  0  0  0  0  0  0
   17.2506   -7.6981    0.0000 C   0  0  0  0  0  0  0  0  0  0  0  0
   17.9651   -7.2856    0.0000 C   0  0  0  0  0  0  0  0  0  0  0  0
   17.9651   -6.4606    0.0000 C   0  0  0  0  0  0  0  0  0  0  0  0
  1  2  1  0  0  0  0
  1  3  2  0  0  0  0
  1  4  1  0  0  0  0
  5  6  1  0  0  0  0
  6  7  2  0  0  0  0
  7  8  1  0  0  0  0
  8  9  1  0  0  0  0
  9 10  1  0  0  0  0
 10 11  1  0  0  0  0
 11 12  2  0  0  0  0
  4  5  1  0  0  0  0
M  END
>  <cdx:groupId>
26618

>  <cdx:fragmentId>
26594

$$$$
