363397.cdx
  Mrv1902 05222410272D          

 12 11  0  0  0  0            999 V2000
    9.9256   -6.0611    0.0000 C   0  0  0  0  0  0  0  0  0  0  0  0
    9.2112   -6.4736    0.0000 C   0  0  0  0  0  0  0  0  0  0  0  0
    8.4967   -6.0611    0.0000 C   0  0  0  0  0  0  0  0  0  0  0  0
    7.7822   -6.4736    0.0000 C   0  0  0  0  0  0  0  0  0  0  0  0
    7.0678   -6.0611    0.0000 C   0  0  0  0  0  0  0  0  0  0  0  0
    6.3533   -6.4736    0.0000 C   0  0  0  0  0  0  0  0  0  0  0  0
    5.6388   -6.0611    0.0000 C   0  0  0  0  0  0  0  0  0  0  0  0
    4.9244   -6.4736    0.0000 C   0  0  0  0  0  0  0  0  0  0  0  0
   10.6401   -6.4736    0.0000 O   0  0  0  0  0  0  0  0  0  0  0  0
    4.2099   -6.0611    0.0000 O   0  0  0  0  0  0  0  0  0  0  0  0
    6.3533   -7.2986    0.0000 C   0  0  0  0  0  0  0  0  0  0  0  0
    9.2112   -7.2986    0.0000 C   0  0  0  0  0  0  0  0  0  0  0  0
  1  2  1  0  0  0  0
  2  3  2  0  0  0  0
  3  4  1  0  0  0  0
  4  5  1  0  0  0  0
  5  6  1  0  0  0  0
  6  7  2  0  0  0  0
  7  8  1  0  0  0  0
  1  9  1  0  0  0  0
  8 10  1  0  0  0  0
  6 11  1  0  0  0  0
  2 12  1  0  0  0  0
M  END
>  <cdx:fragmentId>
5

$$$$
