3633.cdx
  Mrv1902 05222410222D          

 65 71  0  0  0  0            999 V2000
    6.2595   -8.1606    0.0000 C   0  0  0  0  0  0  0  0  0  0  0  0
    6.2595   -8.9856    0.0000 C   0  0  1  0  0  0  0  0  0  0  0  0
    6.9740   -9.3981    0.0000 C   0  0  2  0  0  0  0  0  0  0  0  0
    7.6885   -8.9856    0.0000 C   0  0  1  0  0  0  0  0  0  0  0  0
    7.6885   -8.1606    0.0000 C   0  0  2  0  0  0  0  0  0  0  0  0
    6.9740   -7.7481    0.0000 C   0  0  0  0  0  0  0  0  0  0  0  0
    8.4029   -9.3981    0.0000 C   0  0  0  0  0  0  0  0  0  0  0  0
    9.1174   -8.9856    0.0000 C   0  0  0  0  0  0  0  0  0  0  0  0
    9.1174   -8.1606    0.0000 C   0  0  2  0  0  0  0  0  0  0  0  0
    8.4029   -7.7481    0.0000 C   0  0  2  0  0  0  0  0  0  0  0  0
    9.8319   -7.7481    0.0000 C   0  0  1  0  0  0  0  0  0  0  0  0
    9.8319   -6.9231    0.0000 C   0  0  0  0  0  0  0  0  0  0  0  0
    9.1174   -6.5106    0.0000 C   0  0  0  0  0  0  0  0  0  0  0  0
    8.4029   -6.9231    0.0000 C   0  0  0  0  0  0  0  0  0  0  0  0
   10.5464   -8.1606    0.0000 C   0  0  0  0  0  0  0  0  0  0  0  0
   11.2608   -7.7481    0.0000 C   0  0  0  0  0  0  0  0  0  0  0  0
   11.2608   -6.9231    0.0000 C   0  0  2  0  0  0  0  0  0  0  0  0
   10.5464   -6.5106    0.0000 C   0  0  1  0  0  0  0  0  0  0  0  0
   11.9753   -6.5106    0.0000 C   0  0  1  0  0  0  0  0  0  0  0  0
   11.9753   -5.6856    0.0000 C   0  0  0  0  0  0  0  0  0  0  0  0
   11.2608   -5.2731    0.0000 C   0  0  1  0  0  0  0  0  0  0  0  0
   10.5464   -5.6856    0.0000 C   0  0  0  0  0  0  0  0  0  0  0  0
    6.5615  -10.1126    0.0000 C   0  0  0  0  0  0  0  0  0  0  0  0
    7.3865  -10.1126    0.0000 C   0  0  0  0  0  0  0  0  0  0  0  0
   11.6733   -4.5587    0.0000 C   0  0  0  0  0  0  0  0  0  0  0  0
   12.4983   -4.5587    0.0000 O   0  0  0  0  0  0  0  0  0  0  0  0
   11.2608   -3.8442    0.0000 O   0  0  0  0  0  0  0  0  0  0  0  0
    5.5451   -9.3981    0.0000 O   0  0  0  0  0  0  0  0  0  0  0  0
    7.6885   -7.3356    0.0000 C   0  0  0  0  0  0  0  0  0  0  0  0
    9.1174   -7.3356    0.0000 C   0  0  0  0  0  0  0  0  0  0  0  0
    9.8319   -6.0981    0.0000 H   0  0  0  0  0  0  0  0  0  0  0  0
   11.9753   -7.3356    0.0000 C   0  0  0  0  0  0  0  0  0  0  0  0
   10.8483   -4.5587    0.0000 C   0  0  0  0  0  0  0  0  0  0  0  0
    9.8319   -8.5731    0.0000 C   0  0  0  0  0  0  0  0  0  0  0  0
    8.4029   -8.5731    0.0000 H   0  0  0  0  0  0  0  0  0  0  0  0
    7.6885   -9.8106    0.0000 H   0  0  0  0  0  0  0  0  0  0  0  0
    7.6885   -6.5106    0.0000 O   0  0  0  0  0  0  0  0  0  0  0  0
    4.8306   -8.9856    0.0000 C   0  0  1  0  0  0  0  0  0  0  0  0
    4.8306   -8.1606    0.0000 O   0  0  0  0  0  0  0  0  0  0  0  0
    4.1161   -7.7481    0.0000 C   0  0  1  0  0  0  0  0  0  0  0  0
    3.4016   -8.1606    0.0000 C   0  0  2  0  0  0  0  0  0  0  0  0
    3.4016   -8.9856    0.0000 C   0  0  1  0  0  0  0  0  0  0  0  0
    4.1161   -9.3981    0.0000 C   0  0  1  0  0  0  0  0  0  0  0  0
    4.1161   -6.9231    0.0000 C   0  0  0  0  0  0  0  0  0  0  0  0
    2.6872   -9.3981    0.0000 O   0  0  0  0  0  0  0  0  0  0  0  0
    2.6872   -7.7481    0.0000 O   0  0  0  0  0  0  0  0  0  0  0  0
    4.1161  -10.2231    0.0000 O   0  0  0  0  0  0  0  0  0  0  0  0
    4.8306   -6.5106    0.0000 O   0  0  0  0  0  0  0  0  0  0  0  0
    3.4016   -6.5106    0.0000 O   0  0  0  0  0  0  0  0  0  0  0  0
    3.4016  -10.6356    0.0000 C   0  0  2  0  0  0  0  0  0  0  0  0
    2.6872  -10.2231    0.0000 O   0  0  0  0  0  0  0  0  0  0  0  0
    1.9727  -10.6356    0.0000 C   0  0  1  0  0  0  0  0  0  0  0  0
    1.9727  -11.4606    0.0000 C   0  0  2  0  0  0  0  0  0  0  0  0
    2.6872  -11.8731    0.0000 C   0  0  1  0  0  0  0  0  0  0  0  0
    3.4016  -11.4606    0.0000 C   0  0  1  0  0  0  0  0  0  0  0  0
    1.2582  -10.2231    0.0000 C   0  0  0  0  0  0  0  0  0  0  0  0
    2.6872  -12.6981    0.0000 O   0  0  0  0  0  0  0  0  0  0  0  0
    1.2582  -11.8731    0.0000 O   0  0  0  0  0  0  0  0  0  0  0  0
    4.1161  -11.8731    0.0000 O   0  0  0  0  0  0  0  0  0  0  0  0
    0.5438  -10.6356    0.0000 O   0  0  0  0  0  0  0  0  0  0  0  0
    1.2582   -9.3981    0.0000 O   0  0  0  0  0  0  0  0  0  0  0  0
   12.6898   -6.9231    0.0000 O   0  0  0  0  0  0  0  0  0  0  0  0
   13.4042   -6.5106    0.0000 C   0  0  0  0  0  0  0  0  0  0  0  0
   14.1187   -6.9231    0.0000 C   0  0  0  0  0  0  0  0  0  0  0  0
   13.4042   -5.6856    0.0000 O   0  0  0  0  0  0  0  0  0  0  0  0
  1  2  1  0  0  0  0
  2  3  1  0  0  0  0
  3  4  1  0  0  0  0
  4  5  1  0  0  0  0
  5  6  1  0  0  0  0
  6  1  1  0  0  0  0
  4  7  1  0  0  0  0
  7  8  1  0  0  0  0
  8  9  1  0  0  0  0
  9 10  1  0  0  0  0
 10  5  1  0  0  0  0
  9 11  1  0  0  0  0
 11 12  1  0  0  0  0
 12 13  2  0  0  0  0
 13 14  1  0  0  0  0
 14 10  1  0  0  0  0
 11 15  1  0  0  0  0
 15 16  1  0  0  0  0
 16 17  1  0  0  0  0
 17 18  1  0  0  0  0
 18 12  1  0  0  0  0
 17 19  1  0  0  0  0
 19 20  1  0  0  0  0
 20 21  1  0  0  0  0
 21 22  1  0  0  0  0
 22 18  1  0  0  0  0
  3 23  1  6  0  0  0
  3 24  1  1  0  0  0
 21 25  1  1  0  0  0
 25 26  1  0  0  0  0
 25 27  2  0  0  0  0
  2 28  1  1  0  0  0
  5 29  1  1  0  0  0
  9 30  1  1  0  0  0
 18 31  1  1  0  0  0
 17 32  1  1  0  0  0
 21 33  1  6  0  0  0
 11 34  1  6  0  0  0
 10 35  1  6  0  0  0
  4 36  1  6  0  0  0
 14 37  2  0  0  0  0
 38 28  1  6  0  0  0
 38 39  1  0  0  0  0
 39 40  1  0  0  0  0
 40 41  1  0  0  0  0
 41 42  1  0  0  0  0
 42 43  1  0  0  0  0
 43 38  1  0  0  0  0
 40 44  1  1  0  0  0
 42 45  1  1  0  0  0
 41 46  1  6  0  0  0
 43 47  1  6  0  0  0
 44 48  2  0  0  0  0
 44 49  1  0  0  0  0
 50 47  1  1  0  0  0
 50 51  1  0  0  0  0
 51 52  1  0  0  0  0
 52 53  1  0  0  0  0
 53 54  1  0  0  0  0
 54 55  1  0  0  0  0
 55 50  1  0  0  0  0
 52 56  1  1  0  0  0
 54 57  1  1  0  0  0
 53 58  1  6  0  0  0
 55 59  1  6  0  0  0
 56 60  1  0  0  0  0
 56 61  2  0  0  0  0
 19 62  1  1  0  0  0
 62 63  1  0  0  0  0
 63 64  1  0  0  0  0
 63 65  2  0  0  0  0
M  END
>  <cdx:fragmentId>
4796

$$$$
