5363412.cdx
  Mrv1902 05222410192D          

 20 19  0  0  0  0            999 V2000
   10.8247   -9.1418    0.0000 C   0  0  0  0  0  0  0  0  0  0  0  0
   10.1102   -8.7293    0.0000 C   0  0  0  0  0  0  0  0  0  0  0  0
   10.8247   -9.9668    0.0000 O   0  0  0  0  0  0  0  0  0  0  0  0
   11.5392   -8.7293    0.0000 O   0  0  0  0  0  0  0  0  0  0  0  0
   12.2536   -9.1418    0.0000 C   0  0  0  0  0  0  0  0  0  0  0  0
   12.9681   -8.7293    0.0000 C   0  0  0  0  0  0  0  0  0  0  0  0
   13.6826   -9.1418    0.0000 C   0  0  0  0  0  0  0  0  0  0  0  0
   14.3970   -8.7293    0.0000 C   0  0  0  0  0  0  0  0  0  0  0  0
   15.1115   -9.1418    0.0000 C   0  0  0  0  0  0  0  0  0  0  0  0
   15.8260   -8.7293    0.0000 C   0  0  0  0  0  0  0  0  0  0  0  0
   16.5405   -9.1418    0.0000 C   0  0  0  0  0  0  0  0  0  0  0  0
   17.2549   -8.7293    0.0000 C   0  0  0  0  0  0  0  0  0  0  0  0
   17.9694   -9.1418    0.0000 C   0  0  0  0  0  0  0  0  0  0  0  0
   18.6839   -8.7293    0.0000 C   0  0  0  0  0  0  0  0  0  0  0  0
   19.3983   -9.1418    0.0000 C   0  0  0  0  0  0  0  0  0  0  0  0
   20.1128   -8.7293    0.0000 C   0  0  0  0  0  0  0  0  0  0  0  0
   20.8273   -9.1418    0.0000 C   0  0  0  0  0  0  0  0  0  0  0  0
   18.6839   -7.9043    0.0000 C   0  0  0  0  0  0  0  0  0  0  0  0
   19.3983   -7.4918    0.0000 C   0  0  0  0  0  0  0  0  0  0  0  0
   19.3983   -6.6668    0.0000 C   0  0  0  0  0  0  0  0  0  0  0  0
  1  2  1  0  0  0  0
  1  3  2  0  0  0  0
  1  4  1  0  0  0  0
  5  6  1  0  0  0  0
  6  7  1  0  0  0  0
  7  8  1  0  0  0  0
  8  9  1  0  0  0  0
  9 10  2  0  0  0  0
 10 11  1  0  0  0  0
 11 12  1  0  0  0  0
 12 13  1  0  0  0  0
 13 14  2  0  0  0  0
 14 15  1  0  0  0  0
 15 16  1  0  0  0  0
 16 17  1  0  0  0  0
 18 19  1  0  0  0  0
 19 20  1  0  0  0  0
 14 18  1  0  0  0  0
  4  5  1  0  0  0  0
M  END
>  <cdx:groupId>
26826

>  <cdx:fragmentId>
26778

$$$$
