363411.cdx
  Mrv1902 05222410202D          

 15 16  0  0  0  0            999 V2000
    9.6965   -6.7576    0.0000 C   0  0  0  0  0  0  0  0  0  0  0  0
    8.9820   -7.1701    0.0000 C   0  0  0  0  0  0  0  0  0  0  0  0
    8.2675   -6.7576    0.0000 C   0  0  0  0  0  0  0  0  0  0  0  0
    7.5531   -7.1701    0.0000 C   0  0  0  0  0  0  0  0  0  0  0  0
    8.9820   -7.9951    0.0000 O   0  0  0  0  0  0  0  0  0  0  0  0
    7.2511   -5.2181    0.0000 O   0  0  0  0  0  0  0  0  0  0  0  0
    7.6636   -5.9326    0.0000 C   0  0  0  0  0  0  0  0  0  0  0  0
    6.8386   -5.9326    0.0000 C   0  0  0  0  0  0  0  0  0  0  0  0
    6.8386   -6.7576    0.0000 C   0  0  0  0  0  0  0  0  0  0  0  0
    6.1241   -7.1701    0.0000 C   0  0  0  0  0  0  0  0  0  0  0  0
    5.4096   -6.7576    0.0000 C   0  0  0  0  0  0  0  0  0  0  0  0
    5.4096   -5.9326    0.0000 C   0  0  0  0  0  0  0  0  0  0  0  0
    6.1241   -5.5201    0.0000 C   0  0  0  0  0  0  0  0  0  0  0  0
    6.5366   -7.8845    0.0000 C   0  0  0  0  0  0  0  0  0  0  0  0
    5.7116   -7.8845    0.0000 C   0  0  0  0  0  0  0  0  0  0  0  0
  1  2  1  0  0  0  0
  2  3  1  0  0  0  0
  3  4  2  0  0  0  0
  2  5  2  0  0  0  0
  6  7  1  0  0  0  0
  7  8  1  0  0  0  0
  8  9  1  0  0  0  0
  9 10  1  0  0  0  0
 10 11  1  0  0  0  0
 11 12  1  0  0  0  0
 12 13  1  0  0  0  0
  6  8  1  0  0  0  0
 13  8  1  0  0  0  0
 10 14  1  0  0  0  0
 10 15  1  0  0  0  0
  4  9  1  0  0  0  0
M  END
>  <cdx:fragmentId>
26727

$$$$
