363406.cdx
  Mrv1902 05222410192D          

 18 17  0  0  0  0            999 V2000
    4.2028   -7.7926    0.0000 C   0  0  0  0  0  0  0  0  0  0  0  0
    3.4883   -8.2051    0.0000 O   0  0  0  0  0  0  0  0  0  0  0  0
    4.9172   -8.2051    0.0000 O   0  0  0  0  0  0  0  0  0  0  0  0
    4.9172   -6.5551    0.0000 C   0  0  0  0  0  0  0  0  0  0  0  0
    5.6317   -6.9676    0.0000 C   0  0  0  0  0  0  0  0  0  0  0  0
    5.6317   -7.7926    0.0000 C   0  0  0  0  0  0  0  0  0  0  0  0
    6.3462   -8.2051    0.0000 C   0  0  0  0  0  0  0  0  0  0  0  0
    7.0606   -7.7926    0.0000 C   0  0  0  0  0  0  0  0  0  0  0  0
    7.7751   -8.2051    0.0000 C   0  0  0  0  0  0  0  0  0  0  0  0
    8.4896   -7.7926    0.0000 C   0  0  0  0  0  0  0  0  0  0  0  0
    9.2041   -8.2051    0.0000 C   0  0  0  0  0  0  0  0  0  0  0  0
    9.9185   -7.7926    0.0000 C   0  0  0  0  0  0  0  0  0  0  0  0
   10.6330   -8.2051    0.0000 C   0  0  0  0  0  0  0  0  0  0  0  0
   11.3475   -7.7926    0.0000 C   0  0  0  0  0  0  0  0  0  0  0  0
   11.3475   -6.9676    0.0000 C   0  0  0  0  0  0  0  0  0  0  0  0
   12.0619   -8.2051    0.0000 C   0  0  0  0  0  0  0  0  0  0  0  0
    8.4896   -6.9676    0.0000 C   0  0  0  0  0  0  0  0  0  0  0  0
    5.6317   -8.6176    0.0000 C   0  0  0  0  0  0  0  0  0  0  0  0
  1  2  2  0  0  0  0
  1  3  1  0  0  0  0
  4  5  2  0  0  0  0
  5  6  1  0  0  0  0
  6  7  1  0  0  0  0
  7  8  1  0  0  0  0
  8  9  1  0  0  0  0
  9 10  2  0  0  0  0
 10 11  1  0  0  0  0
 11 12  1  0  0  0  0
 12 13  1  0  0  0  0
 13 14  2  0  0  0  0
 14 15  1  0  0  0  0
 14 16  1  0  0  0  0
 10 17  1  0  0  0  0
  6 18  1  0  0  0  0
  3  6  1  0  0  0  0
M  END
>  <cdx:fragmentId>
26665

$$$$
