363527.cdx
  Mrv1902 05222410252D          

 16 15  0  0  0  0            999 V2000
    3.9904   -7.3694    0.0000 C   0  0  0  0  0  0  0  0  0  0  0  0
    3.2759   -6.9569    0.0000 C   0  0  0  0  0  0  0  0  0  0  0  0
    3.9904   -8.1944    0.0000 O   0  0  0  0  0  0  0  0  0  0  0  0
    4.7049   -6.9569    0.0000 O   0  0  0  0  0  0  0  0  0  0  0  0
    5.4194   -7.3694    0.0000 C   0  0  0  0  0  0  0  0  0  0  0  0
    6.1338   -6.9569    0.0000 C   0  0  0  0  0  0  0  0  0  0  0  0
    6.8483   -7.3694    0.0000 C   0  0  0  0  0  0  0  0  0  0  0  0
    7.5628   -6.9569    0.0000 C   0  0  0  0  0  0  0  0  0  0  0  0
    8.2772   -7.3694    0.0000 C   0  0  0  0  0  0  0  0  0  0  0  0
    8.9917   -6.9569    0.0000 C   0  0  0  0  0  0  0  0  0  0  0  0
    9.7062   -7.3694    0.0000 C   0  0  0  0  0  0  0  0  0  0  0  0
   10.4206   -6.9569    0.0000 C   0  0  0  0  0  0  0  0  0  0  0  0
   10.4206   -6.1319    0.0000 C   0  0  0  0  0  0  0  0  0  0  0  0
   11.1351   -5.7194    0.0000 C   0  0  0  0  0  0  0  0  0  0  0  0
   11.1351   -4.8944    0.0000 C   0  0  0  0  0  0  0  0  0  0  0  0
   11.8496   -4.4819    0.0000 C   0  0  0  0  0  0  0  0  0  0  0  0
  1  2  1  0  0  0  0
  1  3  2  0  0  0  0
  1  4  1  0  0  0  0
  5  6  1  0  0  0  0
  6  7  1  0  0  0  0
  7  8  1  0  0  0  0
  8  9  1  0  0  0  0
  9 10  1  0  0  0  0
 10 11  1  0  0  0  0
  4  5  1  0  0  0  0
 11 12  2  0  0  0  0
 12 13  1  0  0  0  0
 13 14  1  0  0  0  0
 14 15  1  0  0  0  0
 15 16  1  0  0  0  0
M  END
>  <cdx:fragmentId>
13

$$$$
