363695.cdx
  Mrv1902 05222410242D          

 11 10  0  0  0  0            999 V2000
    6.1104   -7.3764    0.0000 C   0  0  0  0  0  0  0  0  0  0  0  0
    5.6979   -6.6619    0.0000 C   0  0  0  0  0  0  0  0  0  0  0  0
    6.4071   -6.2403    0.0000 C   0  0  0  0  0  0  0  0  0  0  0  0
    7.1267   -6.6437    0.0000 C   0  0  0  0  0  0  0  0  0  0  0  0
    7.8359   -6.2221    0.0000 C   0  0  0  0  0  0  0  0  0  0  0  0
    8.5556   -6.6255    0.0000 C   0  0  0  0  0  0  0  0  0  0  0  0
    9.2647   -6.2039    0.0000 C   0  0  0  0  0  0  0  0  0  0  0  0
    9.9844   -6.6072    0.0000 C   0  0  0  0  0  0  0  0  0  0  0  0
    4.9888   -7.0835    0.0000 O   0  0  0  0  0  0  0  0  0  0  0  0
    8.5661   -7.4504    0.0000 C   0  0  0  0  0  0  0  0  0  0  0  0
    5.2854   -5.9474    0.0000 C   0  0  0  0  0  0  0  0  0  0  0  0
  1  2  1  0  0  0  0
  2  3  1  0  0  0  0
  3  4  2  0  0  0  0
  4  5  1  0  0  0  0
  5  6  2  0  0  0  0
  6  7  1  0  0  0  0
  7  8  2  0  0  0  0
  2  9  1  0  0  0  0
  6 10  1  0  0  0  0
  2 11  1  0  0  0  0
M  END
>  <cdx:fragmentId>
26937

$$$$
