363707.cdx
  Mrv1902 05222410222D          

 11 11  0  0  0  0            999 V2000
    6.5505   -9.4087    0.0000 O   0  0  0  0  0  0  0  0  0  0  0  0
    7.2631   -8.1701    0.0000 C   0  0  0  0  0  0  0  0  0  0  0  0
    6.5492   -8.5836    0.0000 C   0  0  0  0  0  0  0  0  0  0  0  0
    5.8341   -8.1722    0.0000 C   0  0  0  0  0  0  0  0  0  0  0  0
    5.8329   -7.3472    0.0000 C   0  0  0  0  0  0  0  0  0  0  0  0
    7.2618   -7.3450    0.0000 C   0  0  0  0  0  0  0  0  0  0  0  0
    6.5467   -6.9336    0.0000 C   0  0  0  0  0  0  0  0  0  0  0  0
    6.1342   -6.2192    0.0000 O   0  0  0  0  0  0  0  0  0  0  0  0
    6.9592   -6.2192    0.0000 C   0  0  0  0  0  0  0  0  0  0  0  0
    7.7842   -6.2192    0.0000 C   0  0  0  0  0  0  0  0  0  0  0  0
    8.1967   -5.5047    0.0000 O   0  0  0  0  0  0  0  0  0  0  0  0
  3  1  1  0  0  0  0
  5  7  1  0  0  0  0
  2  6  1  0  0  0  0
  3  2  1  0  0  0  0
  4  3  1  0  0  0  0
  5  4  1  0  0  0  0
  7  6  1  0  0  0  0
  7  8  1  0  0  0  0
  7  9  1  0  0  0  0
  9 10  1  0  0  0  0
 10 11  1  0  0  0  0
M  END
>  <cdx:fragmentId>
2401

$$$$
