363805.cdx
  Mrv1902 05222410262D          

 16 17  0  0  0  0            999 V2000
    7.6047   -7.1667    0.0000 C   0  0  0  0  0  0  0  0  0  0  0  0
    6.8902   -7.5792    0.0000 C   0  0  0  0  0  0  0  0  0  0  0  0
    6.1757   -7.1667    0.0000 C   0  0  0  0  0  0  0  0  0  0  0  0
    6.1757   -6.3417    0.0000 C   0  0  0  0  0  0  0  0  0  0  0  0
    6.8902   -5.9292    0.0000 C   0  0  0  0  0  0  0  0  0  0  0  0
    7.6047   -6.3417    0.0000 C   0  0  0  0  0  0  0  0  0  0  0  0
    8.3192   -6.7542    0.0000 O   0  0  0  0  0  0  0  0  0  0  0  0
    5.4613   -7.5792    0.0000 O   0  0  0  0  0  0  0  0  0  0  0  0
    8.0172   -7.8811    0.0000 C   0  0  0  0  0  0  0  0  0  0  0  0
    8.8422   -7.8811    0.0000 C   0  0  0  0  0  0  0  0  0  0  0  0
    9.2547   -8.5956    0.0000 C   0  0  0  0  0  0  0  0  0  0  0  0
   10.0797   -8.5956    0.0000 C   0  0  0  0  0  0  0  0  0  0  0  0
    8.8422   -9.3101    0.0000 O   0  0  0  0  0  0  0  0  0  0  0  0
    8.0172   -5.6272    0.0000 C   0  0  0  0  0  0  0  0  0  0  0  0
    7.3027   -8.2936    0.0000 C   0  0  0  0  0  0  0  0  0  0  0  0
    6.4777   -8.2936    0.0000 C   0  0  0  0  0  0  0  0  0  0  0  0
  1  2  1  0  0  0  0
  2  3  1  0  0  0  0
  3  4  1  0  0  0  0
  4  5  2  0  0  0  0
  5  6  1  0  0  0  0
  6  7  1  0  0  0  0
  1  7  1  0  0  0  0
  1  6  1  0  0  0  0
  3  8  2  0  0  0  0
  9 10  2  0  0  0  0
 10 11  1  0  0  0  0
 11 12  1  0  0  0  0
 11 13  2  0  0  0  0
  1  9  1  0  0  0  0
  6 14  1  0  0  0  0
  2 15  1  0  0  0  0
  2 16  1  0  0  0  0
M  END
>  <cdx:fragmentId>
26972

$$$$
