5363898.cdx
  Mrv1902 05222410232D          

 14 14  0  0  0  0            999 V2000
   18.0204   -8.4084    0.0000 C   0  0  0  0  0  0  0  0  0  0  0  0
   17.3059   -7.9959    0.0000 C   0  0  0  0  0  0  0  0  0  0  0  0
   16.5914   -8.4084    0.0000 C   0  0  0  0  0  0  0  0  0  0  0  0
   15.8770   -7.9959    0.0000 C   0  0  0  0  0  0  0  0  0  0  0  0
   17.3059   -7.1709    0.0000 O   0  0  0  0  0  0  0  0  0  0  0  0
   15.1625   -8.4084    0.0000 C   0  0  0  0  0  0  0  0  0  0  0  0
   15.1625   -9.2334    0.0000 C   0  0  0  0  0  0  0  0  0  0  0  0
   14.4480   -9.6459    0.0000 C   0  0  0  0  0  0  0  0  0  0  0  0
   13.7335   -9.2334    0.0000 C   0  0  0  0  0  0  0  0  0  0  0  0
   13.7335   -8.4084    0.0000 C   0  0  0  0  0  0  0  0  0  0  0  0
   14.4480   -7.9959    0.0000 C   0  0  0  0  0  0  0  0  0  0  0  0
   12.9085   -9.2334    0.0000 C   0  0  0  0  0  0  0  0  0  0  0  0
   13.3210   -9.9479    0.0000 C   0  0  0  0  0  0  0  0  0  0  0  0
   15.8770   -9.6459    0.0000 C   0  0  0  0  0  0  0  0  0  0  0  0
  1  2  1  0  0  0  0
  2  3  1  0  0  0  0
  3  4  2  0  0  0  0
  2  5  2  0  0  0  0
  6  7  2  0  0  0  0
  7  8  1  0  0  0  0
  8  9  1  0  0  0  0
  9 10  1  0  0  0  0
 10 11  2  0  0  0  0
  6 11  1  0  0  0  0
  9 12  1  0  0  0  0
  9 13  1  0  0  0  0
  7 14  1  0  0  0  0
  4  6  1  0  0  0  0
M  END
>  <cdx:groupId>
27113

>  <cdx:fragmentId>
27084

$$$$
