364396.cdx
  Mrv1902 05222410192D          

 28 28  0  0  0  0            999 V2000
    6.5840   -8.1711    0.0000 C   0  0  0  0  0  0  0  0  0  0  0  0
    6.5840   -8.9961    0.0000 C   0  0  2  0  0  0  0  0  0  0  0  0
    7.2985   -7.7586    0.0000 O   0  0  0  0  0  0  0  0  0  0  0  0
    5.8696   -7.7586    0.0000 N   0  0  0  0  0  0  0  0  0  0  0  0
    5.8696   -6.9336    0.0000 C   0  0  0  0  0  0  0  0  0  0  0  0
    5.1551   -6.5211    0.0000 C   0  0  0  0  0  0  0  0  0  0  0  0
    4.4406   -6.9336    0.0000 O   0  0  0  0  0  0  0  0  0  0  0  0
    5.1551   -5.6961    0.0000 O   0  0  0  0  0  0  0  0  0  0  0  0
   10.1564  -10.2336    0.0000 N   0  0  0  0  0  0  0  0  0  0  0  0
    5.1551  -13.9461    0.0000 O   0  0  0  0  0  0  0  0  0  0  0  0
    5.8696  -11.8836    0.0000 C   0  0  0  0  0  0  0  0  0  0  0  0
    5.8696  -12.7086    0.0000 C   0  0  0  0  0  0  0  0  0  0  0  0
    5.1551  -13.1211    0.0000 C   0  0  0  0  0  0  0  0  0  0  0  0
    4.4406  -12.7086    0.0000 C   0  0  0  0  0  0  0  0  0  0  0  0
    4.4406  -11.8836    0.0000 C   0  0  0  0  0  0  0  0  0  0  0  0
    5.1551  -11.4711    0.0000 C   0  0  0  0  0  0  0  0  0  0  0  0
    5.1551  -10.6461    0.0000 C   0  0  0  0  0  0  0  0  0  0  0  0
    5.8696  -10.2336    0.0000 S   0  0  0  0  0  0  0  0  0  0  0  0
    5.8696   -9.4086    0.0000 C   0  0  0  0  0  0  0  0  0  0  0  0
    7.2985   -9.4086    0.0000 N   0  0  0  0  0  0  0  0  0  0  0  0
    8.0130   -8.1711    0.0000 O   0  0  0  0  0  0  0  0  0  0  0  0
   11.5853   -9.4086    0.0000 O   0  0  0  0  0  0  0  0  0  0  0  0
   10.8709   -8.1711    0.0000 O   0  0  0  0  0  0  0  0  0  0  0  0
    8.0130   -8.9961    0.0000 C   0  0  0  0  0  0  0  0  0  0  0  0
    8.7274   -9.4086    0.0000 C   0  0  0  0  0  0  0  0  0  0  0  0
    9.4419   -8.9961    0.0000 C   0  0  0  0  0  0  0  0  0  0  0  0
   10.1564   -9.4086    0.0000 C   0  0  1  0  0  0  0  0  0  0  0  0
   10.8709   -8.9961    0.0000 C   0  0  0  0  0  0  0  0  0  0  0  0
 27  9  1  1  0  0  0
 24 20  1  0  0  0  0
  2 20  1  1  0  0  0
 19 18  1  0  0  0  0
 17 16  1  0  0  0  0
 13 10  1  0  0  0  0
 16 11  2  0  0  0  0
 12 11  1  0  0  0  0
 13 12  2  0  0  0  0
 14 13  1  0  0  0  0
 15 14  2  0  0  0  0
 16 15  1  0  0  0  0
 18 17  1  0  0  0  0
 24 21  2  0  0  0  0
 28 22  1  0  0  0  0
 28 23  2  0  0  0  0
 25 24  1  0  0  0  0
 26 25  1  0  0  0  0
 27 26  1  0  0  0  0
 28 27  1  0  0  0  0
  1  2  1  0  0  0  0
  2 19  1  0  0  0  0
  1  3  2  0  0  0  0
  6  7  2  0  0  0  0
  6  8  1  0  0  0  0
  5  6  1  0  0  0  0
  4  5  1  0  0  0  0
  1  4  1  0  0  0  0
M  END
>  <cdx:fragmentId>
47118

$$$$
