5364497.cdx
  Mrv1902 05222410212D          

 19 18  0  0  0  0            999 V2000
   21.1509   -8.7922    0.0000 C   0  0  0  0  0  0  0  0  0  0  0  0
   20.4365   -8.3797    0.0000 C   0  0  0  0  0  0  0  0  0  0  0  0
   19.7220   -8.7922    0.0000 C   0  0  0  0  0  0  0  0  0  0  0  0
   19.0075   -8.3797    0.0000 C   0  0  0  0  0  0  0  0  0  0  0  0
   18.2930   -8.7922    0.0000 C   0  0  0  0  0  0  0  0  0  0  0  0
   17.5786   -8.3797    0.0000 C   0  0  0  0  0  0  0  0  0  0  0  0
   16.8641   -8.7922    0.0000 C   0  0  0  0  0  0  0  0  0  0  0  0
   16.1496   -8.3797    0.0000 C   0  0  0  0  0  0  0  0  0  0  0  0
   15.4352   -8.7922    0.0000 C   0  0  0  0  0  0  0  0  0  0  0  0
   14.7207   -8.3797    0.0000 C   0  0  0  0  0  0  0  0  0  0  0  0
   14.0062   -8.7922    0.0000 C   0  0  0  0  0  0  0  0  0  0  0  0
   13.2917   -8.3797    0.0000 C   0  0  0  0  0  0  0  0  0  0  0  0
   12.5773   -8.7922    0.0000 C   0  0  0  0  0  0  0  0  0  0  0  0
   11.7523   -8.7922    0.0000 C   0  0  0  0  0  0  0  0  0  0  0  0
   11.0378   -8.3797    0.0000 C   0  0  0  0  0  0  0  0  0  0  0  0
   10.3233   -8.7922    0.0000 C   0  0  0  0  0  0  0  0  0  0  0  0
    9.6089   -8.3797    0.0000 C   0  0  0  0  0  0  0  0  0  0  0  0
    8.8944   -8.7922    0.0000 C   0  0  0  0  0  0  0  0  0  0  0  0
   21.8654   -8.3797    0.0000 O   0  0  0  0  0  0  0  0  0  0  0  0
  1  2  1  0  0  0  0
  2  3  1  0  0  0  0
  3  4  1  0  0  0  0
  4  5  1  0  0  0  0
  5  6  1  0  0  0  0
  6  7  1  0  0  0  0
  7  8  1  0  0  0  0
  8  9  1  0  0  0  0
  9 10  1  0  0  0  0
 10 11  1  0  0  0  0
 11 12  1  0  0  0  0
 12 13  1  0  0  0  0
 13 14  2  0  0  0  0
 14 15  1  0  0  0  0
 15 16  1  0  0  0  0
 16 17  1  0  0  0  0
 17 18  1  0  0  0  0
  1 19  2  0  0  0  0
M  END
>  <cdx:groupId>
27390

>  <cdx:fragmentId>
27337

$$$$
