364432.cdx
  Mrv1902 05222410192D          

 21 20  0  0  0  0            999 V2000
    0.6375   -6.4344    0.0000 C   0  0  0  0  0  0  0  0  0  0  0  0
    1.3520   -6.0219    0.0000 O   0  0  0  0  0  0  0  0  0  0  0  0
    2.0665   -7.2594    0.0000 O   0  0  0  0  0  0  0  0  0  0  0  0
   14.2125   -6.0219    0.0000 C   0  0  0  0  0  0  0  0  0  0  0  0
   13.4980   -6.4344    0.0000 C   0  0  0  0  0  0  0  0  0  0  0  0
   12.7835   -6.0219    0.0000 C   0  0  0  0  0  0  0  0  0  0  0  0
   12.0691   -6.4344    0.0000 C   0  0  0  0  0  0  0  0  0  0  0  0
   11.3546   -6.0219    0.0000 C   0  0  0  0  0  0  0  0  0  0  0  0
   10.6401   -6.4344    0.0000 C   0  0  0  0  0  0  0  0  0  0  0  0
    9.9256   -6.0219    0.0000 C   0  0  0  0  0  0  0  0  0  0  0  0
    9.2112   -6.4344    0.0000 C   0  0  0  0  0  0  0  0  0  0  0  0
    8.4967   -6.0219    0.0000 C   0  0  0  0  0  0  0  0  0  0  0  0
    7.7822   -6.4344    0.0000 C   0  0  0  0  0  0  0  0  0  0  0  0
    7.0678   -6.0219    0.0000 C   0  0  0  0  0  0  0  0  0  0  0  0
    6.3533   -6.4344    0.0000 C   0  0  0  0  0  0  0  0  0  0  0  0
    5.6388   -6.0219    0.0000 C   0  0  0  0  0  0  0  0  0  0  0  0
    4.9244   -6.4344    0.0000 C   0  0  0  0  0  0  0  0  0  0  0  0
    4.2099   -6.0219    0.0000 C   0  0  0  0  0  0  0  0  0  0  0  0
    3.4954   -6.4344    0.0000 C   0  0  0  0  0  0  0  0  0  0  0  0
    2.7809   -6.0219    0.0000 C   0  0  0  0  0  0  0  0  0  0  0  0
    2.0665   -6.4344    0.0000 C   0  0  0  0  0  0  0  0  0  0  0  0
  2  1  1  0  0  0  0
 21  2  1  0  0  0  0
 21  3  2  0  0  0  0
  5  4  1  0  0  0  0
  6  5  1  0  0  0  0
  7  6  1  0  0  0  0
  8  7  1  0  0  0  0
  9  8  1  0  0  0  0
 10  9  1  0  0  0  0
 11 10  2  0  0  0  0
 12 11  1  0  0  0  0
 13 12  1  0  0  0  0
 14 13  1  0  0  0  0
 15 14  1  0  0  0  0
 16 15  1  0  0  0  0
 17 16  1  0  0  0  0
 18 17  1  0  0  0  0
 19 18  1  0  0  0  0
 20 19  1  0  0  0  0
 21 20  1  0  0  0  0
M  END
>  <cdx:groupId>
64

>  <cdx:fragmentId>
5

$$$$
