5364413.cdx
  Mrv1902 05222410272D          

 20 19  0  0  0  0            999 V2000
   20.9255   -8.9784    0.0000 C   0  0  0  0  0  0  0  0  0  0  0  0
   20.2110   -8.5659    0.0000 C   0  0  0  0  0  0  0  0  0  0  0  0
   19.4966   -8.9784    0.0000 C   0  0  0  0  0  0  0  0  0  0  0  0
   18.7821   -8.5659    0.0000 C   0  0  0  0  0  0  0  0  0  0  0  0
   18.0676   -8.9784    0.0000 C   0  0  0  0  0  0  0  0  0  0  0  0
   17.3531   -8.5659    0.0000 C   0  0  0  0  0  0  0  0  0  0  0  0
   16.6387   -8.9784    0.0000 C   0  0  0  0  0  0  0  0  0  0  0  0
   15.9242   -8.5659    0.0000 C   0  0  0  0  0  0  0  0  0  0  0  0
   15.2097   -8.9784    0.0000 C   0  0  0  0  0  0  0  0  0  0  0  0
   14.4953   -8.5659    0.0000 C   0  0  0  0  0  0  0  0  0  0  0  0
   13.7808   -8.9784    0.0000 C   0  0  0  0  0  0  0  0  0  0  0  0
   13.0663   -8.5659    0.0000 C   0  0  0  0  0  0  0  0  0  0  0  0
   12.3518   -8.9784    0.0000 C   0  0  0  0  0  0  0  0  0  0  0  0
   11.5268   -8.9784    0.0000 C   0  0  0  0  0  0  0  0  0  0  0  0
   10.8124   -8.5659    0.0000 C   0  0  0  0  0  0  0  0  0  0  0  0
   10.0979   -8.9784    0.0000 C   0  0  0  0  0  0  0  0  0  0  0  0
    9.3834   -8.5659    0.0000 C   0  0  0  0  0  0  0  0  0  0  0  0
    8.6690   -8.9784    0.0000 C   0  0  0  0  0  0  0  0  0  0  0  0
   21.6400   -8.5659    0.0000 O   0  0  0  0  0  0  0  0  0  0  0  0
   20.2110   -7.7409    0.0000 C   0  0  0  0  0  0  0  0  0  0  0  0
  1  2  1  0  0  0  0
  2  3  1  0  0  0  0
  3  4  2  0  0  0  0
  4  5  1  0  0  0  0
  5  6  1  0  0  0  0
  6  7  1  0  0  0  0
  7  8  1  0  0  0  0
  8  9  1  0  0  0  0
  9 10  1  0  0  0  0
 10 11  1  0  0  0  0
 11 12  1  0  0  0  0
 12 13  1  0  0  0  0
 13 14  2  0  0  0  0
 14 15  1  0  0  0  0
 15 16  1  0  0  0  0
 16 17  1  0  0  0  0
 17 18  1  0  0  0  0
  1 19  1  0  0  0  0
  2 20  1  0  0  0  0
M  END
>  <cdx:groupId>
27199

>  <cdx:fragmentId>
27143

$$$$
