5364458.cdx
  Mrv1902 05222410252D          

 10  9  0  0  0  0            999 V2000
    4.2181   -6.3026    0.0000 C   0  0  0  0  0  0  0  0  0  0  0  0
    4.9326   -5.8901    0.0000 C   0  0  0  0  0  0  0  0  0  0  0  0
    5.6471   -6.3026    0.0000 C   0  0  0  0  0  0  0  0  0  0  0  0
    6.3615   -5.8901    0.0000 C   0  0  0  0  0  0  0  0  0  0  0  0
    7.0760   -6.3026    0.0000 C   0  0  0  0  0  0  0  0  0  0  0  0
    7.7905   -5.8901    0.0000 C   0  0  0  0  0  0  0  0  0  0  0  0
    8.5050   -6.3026    0.0000 C   0  0  0  0  0  0  0  0  0  0  0  0
    9.2194   -5.8901    0.0000 C   0  0  0  0  0  0  0  0  0  0  0  0
    9.9339   -6.3026    0.0000 C   0  0  0  0  0  0  0  0  0  0  0  0
   10.6484   -5.8901    0.0000 C   0  0  0  0  0  0  0  0  0  0  0  0
  1  2  1  0  0  0  0
  2  3  1  0  0  0  0
  3  4  1  0  0  0  0
  4  5  2  0  0  0  0
  5  6  1  0  0  0  0
  6  7  1  0  0  0  0
  7  8  1  0  0  0  0
  8  9  1  0  0  0  0
  9 10  1  0  0  0  0
M  END
>  <cdx:groupId>
31

>  <cdx:fragmentId>
5

$$$$
