364494.cdx
  Mrv1902 05222410212D          

 16 15  0  0  0  0            999 V2000
    3.7014   -7.1252    0.0000 C   0  0  0  0  0  0  0  0  0  0  0  0
    4.4159   -6.7127    0.0000 C   0  0  0  0  0  0  0  0  0  0  0  0
    5.1303   -7.1252    0.0000 C   0  0  0  0  0  0  0  0  0  0  0  0
    5.8448   -6.7127    0.0000 C   0  0  0  0  0  0  0  0  0  0  0  0
    6.5593   -7.1252    0.0000 C   0  0  0  0  0  0  0  0  0  0  0  0
    7.2738   -6.7127    0.0000 C   0  0  0  0  0  0  0  0  0  0  0  0
    7.9882   -7.1252    0.0000 C   0  0  0  0  0  0  0  0  0  0  0  0
    8.7027   -6.7127    0.0000 C   0  0  0  0  0  0  0  0  0  0  0  0
    9.4172   -7.1252    0.0000 C   0  0  0  0  0  0  0  0  0  0  0  0
   10.1316   -6.7127    0.0000 C   0  0  0  0  0  0  0  0  0  0  0  0
   10.8461   -7.1252    0.0000 C   0  0  0  0  0  0  0  0  0  0  0  0
   11.5606   -6.7127    0.0000 C   0  0  0  0  0  0  0  0  0  0  0  0
   12.2751   -7.1252    0.0000 C   0  0  0  0  0  0  0  0  0  0  0  0
    2.9869   -6.7127    0.0000 C   0  0  0  0  0  0  0  0  0  0  0  0
    2.9869   -5.8877    0.0000 C   0  0  0  0  0  0  0  0  0  0  0  0
    2.2725   -5.4752    0.0000 C   0  0  0  0  0  0  0  0  0  0  0  0
  1  2  1  0  0  0  0
  2  3  1  0  0  0  0
  3  4  1  0  0  0  0
  4  5  1  0  0  0  0
  5  6  1  0  0  0  0
  6  7  1  0  0  0  0
  7  8  1  0  0  0  0
  8  9  1  0  0  0  0
  9 10  1  0  0  0  0
 10 11  1  0  0  0  0
 11 12  1  0  0  0  0
 12 13  1  0  0  0  0
  1 14  2  0  0  0  0
 14 15  1  0  0  0  0
 15 16  1  0  0  0  0
M  END
>  <cdx:fragmentId>
27284

$$$$
