5364564.cdx
  Mrv1902 05222410282D          

 16 15  0  0  0  0            999 V2000
    2.0112   -6.8392    0.0000 C   0  0  0  0  0  0  0  0  0  0  0  0
    2.7257   -6.4267    0.0000 C   0  0  0  0  0  0  0  0  0  0  0  0
    3.4401   -6.8392    0.0000 C   0  0  0  0  0  0  0  0  0  0  0  0
    4.1546   -6.4267    0.0000 C   0  0  0  0  0  0  0  0  0  0  0  0
    4.8691   -6.8392    0.0000 C   0  0  0  0  0  0  0  0  0  0  0  0
    5.5836   -6.4267    0.0000 C   0  0  0  0  0  0  0  0  0  0  0  0
    6.2980   -6.8392    0.0000 C   0  0  0  0  0  0  0  0  0  0  0  0
    7.1230   -6.8392    0.0000 C   0  0  0  0  0  0  0  0  0  0  0  0
    7.8375   -6.4267    0.0000 C   0  0  0  0  0  0  0  0  0  0  0  0
    8.5520   -6.8392    0.0000 C   0  0  0  0  0  0  0  0  0  0  0  0
    9.2664   -6.4267    0.0000 C   0  0  0  0  0  0  0  0  0  0  0  0
    9.9809   -6.8392    0.0000 C   0  0  0  0  0  0  0  0  0  0  0  0
   10.6954   -6.4267    0.0000 C   0  0  0  0  0  0  0  0  0  0  0  0
   11.4099   -6.8392    0.0000 C   0  0  0  0  0  0  0  0  0  0  0  0
   12.1243   -6.4267    0.0000 C   0  0  0  0  0  0  0  0  0  0  0  0
   12.8388   -6.8392    0.0000 C   0  0  0  0  0  0  0  0  0  0  0  0
  1  2  1  0  0  0  0
  2  3  1  0  0  0  0
  3  4  1  0  0  0  0
  4  5  1  0  0  0  0
  5  6  1  0  0  0  0
  6  7  1  0  0  0  0
  7  8  2  0  0  0  0
  8  9  1  0  0  0  0
  9 10  1  0  0  0  0
 10 11  1  0  0  0  0
 11 12  1  0  0  0  0
 12 13  1  0  0  0  0
 13 14  1  0  0  0  0
 14 15  1  0  0  0  0
 15 16  1  0  0  0  0
M  END
>  <cdx:groupId>
49

>  <cdx:fragmentId>
5

$$$$
