5364519.cdx
  Mrv1902 05222410222D          

  9  8  0  0  0  0            999 V2000
    9.4189   -5.9617    0.0000 C   0  0  0  0  0  0  0  0  0  0  0  0
    8.7045   -6.3742    0.0000 C   0  0  0  0  0  0  0  0  0  0  0  0
    8.7045   -7.1992    0.0000 C   0  0  0  0  0  0  0  0  0  0  0  0
    7.9900   -7.6117    0.0000 C   0  0  0  0  0  0  0  0  0  0  0  0
    7.2755   -7.1992    0.0000 C   0  0  0  0  0  0  0  0  0  0  0  0
    6.5610   -7.6117    0.0000 C   0  0  0  0  0  0  0  0  0  0  0  0
    5.8466   -7.1992    0.0000 C   0  0  0  0  0  0  0  0  0  0  0  0
    5.1321   -7.6117    0.0000 C   0  0  0  0  0  0  0  0  0  0  0  0
    9.4189   -5.1367    0.0000 O   0  0  0  0  0  0  0  0  0  0  0  0
  1  2  1  0  0  0  0
  2  3  1  0  0  0  0
  3  4  2  0  0  0  0
  4  5  1  0  0  0  0
  5  6  1  0  0  0  0
  6  7  1  0  0  0  0
  7  8  1  0  0  0  0
  1  9  1  0  0  0  0
M  END
>  <cdx:groupId>
28

>  <cdx:fragmentId>
5

$$$$
