364580.cdx
  Mrv1902 05222410192D          

  9  8  0  0  0  0            999 V2000
    4.4981   -6.6150    0.0000 C   0  0  0  0  0  0  0  0  0  0  0  0
    5.2126   -6.2025    0.0000 C   0  0  0  0  0  0  0  0  0  0  0  0
    5.9270   -6.6150    0.0000 C   0  0  0  0  0  0  0  0  0  0  0  0
    6.6415   -6.2025    0.0000 C   0  0  0  0  0  0  0  0  0  0  0  0
    7.3560   -6.6150    0.0000 C   0  0  0  0  0  0  0  0  0  0  0  0
    8.0705   -6.2025    0.0000 C   0  0  0  0  0  0  0  0  0  0  0  0
    8.7849   -6.6150    0.0000 C   0  0  0  0  0  0  0  0  0  0  0  0
    9.4994   -6.2025    0.0000 C   0  0  0  0  0  0  0  0  0  0  0  0
    5.2126   -5.3775    0.0000 O   0  0  0  0  0  0  0  0  0  0  0  0
  1  2  1  0  0  0  0
  2  3  1  0  0  0  0
  3  4  2  0  0  0  0
  4  5  1  0  0  0  0
  5  6  2  0  0  0  0
  6  7  1  0  0  0  0
  7  8  1  0  0  0  0
  2  9  1  0  0  0  0
M  END
>  <cdx:groupId>
27550

>  <cdx:fragmentId>
27527

$$$$
