5364555.cdx
  Mrv1902 05222410182D          

 17 16  0  0  0  0            999 V2000
    9.7530   -8.6995    0.0000 C   0  0  0  0  0  0  0  0  0  0  0  0
   10.4675   -8.2870    0.0000 C   0  0  0  0  0  0  0  0  0  0  0  0
   11.1819   -8.6995    0.0000 C   0  0  0  0  0  0  0  0  0  0  0  0
   11.8964   -8.2870    0.0000 C   0  0  0  0  0  0  0  0  0  0  0  0
   12.6109   -8.6995    0.0000 C   0  0  0  0  0  0  0  0  0  0  0  0
   13.3253   -8.2870    0.0000 C   0  0  0  0  0  0  0  0  0  0  0  0
   14.0398   -8.6995    0.0000 C   0  0  0  0  0  0  0  0  0  0  0  0
   14.7543   -8.2870    0.0000 C   0  0  0  0  0  0  0  0  0  0  0  0
   15.4688   -8.6995    0.0000 C   0  0  0  0  0  0  0  0  0  0  0  0
   16.1832   -8.2870    0.0000 C   0  0  0  0  0  0  0  0  0  0  0  0
   16.8977   -8.6995    0.0000 C   0  0  0  0  0  0  0  0  0  0  0  0
   17.6122   -8.2870    0.0000 C   0  0  0  0  0  0  0  0  0  0  0  0
   18.3266   -8.6995    0.0000 C   0  0  0  0  0  0  0  0  0  0  0  0
   19.0411   -8.2870    0.0000 C   0  0  0  0  0  0  0  0  0  0  0  0
   19.7556   -8.6995    0.0000 C   0  0  0  0  0  0  0  0  0  0  0  0
   20.4701   -8.2870    0.0000 C   0  0  0  0  0  0  0  0  0  0  0  0
   21.1845   -8.6995    0.0000 C   0  0  0  0  0  0  0  0  0  0  0  0
  1  2  1  0  0  0  0
  2  3  1  0  0  0  0
  3  4  1  0  0  0  0
  4  5  1  0  0  0  0
  5  6  1  0  0  0  0
  6  7  1  0  0  0  0
  7  8  1  0  0  0  0
  8  9  2  0  0  0  0
  9 10  1  0  0  0  0
 10 11  1  0  0  0  0
 11 12  1  0  0  0  0
 12 13  1  0  0  0  0
 13 14  1  0  0  0  0
 14 15  1  0  0  0  0
 15 16  1  0  0  0  0
 16 17  1  0  0  0  0
M  END
>  <cdx:groupId>
27518

>  <cdx:fragmentId>
27471

$$$$
