364696.cdx
  Mrv1902 05222410212D          

 19 18  0  0  0  0            999 V2000
    2.7471   -6.0917    0.0000 C   0  0  0  0  0  0  0  0  0  0  0  0
    3.4637   -5.6797    0.0000 C   0  0  0  0  0  0  0  0  0  0  0  0
    4.1789   -6.0943    0.0000 C   0  0  0  0  0  0  0  0  0  0  0  0
    4.8955   -5.6823    0.0000 C   0  0  0  0  0  0  0  0  0  0  0  0
    5.6107   -6.0969    0.0000 C   0  0  0  0  0  0  0  0  0  0  0  0
    6.3273   -5.6849    0.0000 C   0  0  0  0  0  0  0  0  0  0  0  0
    7.0425   -6.0995    0.0000 C   0  0  0  0  0  0  0  0  0  0  0  0
    7.7591   -5.6875    0.0000 C   0  0  0  0  0  0  0  0  0  0  0  0
    8.4743   -6.1021    0.0000 C   0  0  0  0  0  0  0  0  0  0  0  0
    9.1909   -5.6901    0.0000 C   0  0  0  0  0  0  0  0  0  0  0  0
    9.9061   -6.1047    0.0000 C   0  0  0  0  0  0  0  0  0  0  0  0
   10.6227   -5.6927    0.0000 C   0  0  0  0  0  0  0  0  0  0  0  0
   11.3379   -6.1073    0.0000 C   0  0  0  0  0  0  0  0  0  0  0  0
   12.0545   -5.6953    0.0000 C   0  0  0  0  0  0  0  0  0  0  0  0
   12.7697   -6.1099    0.0000 C   0  0  0  0  0  0  0  0  0  0  0  0
   13.4863   -5.6979    0.0000 C   0  0  0  0  0  0  0  0  0  0  0  0
    2.7456   -6.9184    0.0000 O   0  0  0  0  0  0  0  0  0  0  0  0
    2.0319   -5.6771    0.0000 O   0  0  0  0  0  0  0  0  0  0  0  0
    1.3153   -6.0891    0.0000 C   0  0  0  0  0  0  0  0  0  0  0  0
  1  2  1  0  0  0  0
  2  3  1  0  0  0  0
  3  4  1  0  0  0  0
  4  5  1  0  0  0  0
  5  6  1  0  0  0  0
  6  7  1  0  0  0  0
  7  8  1  0  0  0  0
  8  9  1  0  0  0  0
  9 10  1  0  0  0  0
 10 11  1  0  0  0  0
 11 12  2  0  0  0  0
 12 13  1  0  0  0  0
 13 14  1  0  0  0  0
 14 15  1  0  0  0  0
 15 16  1  0  0  0  0
  1 17  2  0  0  0  0
  1 18  1  0  0  0  0
 18 19  1  0  0  0  0
M  END
>  <cdx:fragmentId>
27672

$$$$
