5364628.cdx
  Mrv1902 05222410272D          

  6  5  0  0  0  0            999 V2000
    7.9934   -7.2438    0.0000 C   0  0  0  0  0  0  0  0  0  0  0  0
    7.2790   -6.8313    0.0000 C   0  0  0  0  0  0  0  0  0  0  0  0
    6.5645   -7.2438    0.0000 C   0  0  0  0  0  0  0  0  0  0  0  0
    5.8500   -6.8313    0.0000 C   0  0  0  0  0  0  0  0  0  0  0  0
    5.8500   -6.0063    0.0000 C   0  0  0  0  0  0  0  0  0  0  0  0
    8.7079   -6.8313    0.0000 O   0  0  0  0  0  0  0  0  0  0  0  0
  1  2  1  0  0  0  0
  2  3  1  0  0  0  0
  3  4  2  0  0  0  0
  4  5  1  0  0  0  0
  1  6  1  0  0  0  0
M  END
>  <cdx:groupId>
19

>  <cdx:fragmentId>
5

$$$$
