364638.cdx
  Mrv1902 05222410272D          

 15 14  0  0  0  0            999 V2000
   10.3091   -8.9268    0.0000 C   0  0  0  0  0  0  0  0  0  0  0  0
    9.5947   -8.5143    0.0000 C   0  0  0  0  0  0  0  0  0  0  0  0
    8.8802   -8.9268    0.0000 C   0  0  0  0  0  0  0  0  0  0  0  0
    8.1657   -8.5143    0.0000 C   0  0  0  0  0  0  0  0  0  0  0  0
    7.4512   -8.9268    0.0000 C   0  0  0  0  0  0  0  0  0  0  0  0
    6.7368   -8.5143    0.0000 C   0  0  0  0  0  0  0  0  0  0  0  0
    6.0223   -8.9268    0.0000 C   0  0  0  0  0  0  0  0  0  0  0  0
    5.3078   -8.5143    0.0000 C   0  0  0  0  0  0  0  0  0  0  0  0
    4.5934   -8.9268    0.0000 C   0  0  0  0  0  0  0  0  0  0  0  0
    3.8789   -8.5143    0.0000 C   0  0  0  0  0  0  0  0  0  0  0  0
    3.1644   -8.9268    0.0000 C   0  0  0  0  0  0  0  0  0  0  0  0
   11.0236   -8.5143    0.0000 O   0  0  0  0  0  0  0  0  0  0  0  0
    3.8789   -7.6893    0.0000 C   0  0  0  0  0  0  0  0  0  0  0  0
    6.7368   -7.6893    0.0000 C   0  0  0  0  0  0  0  0  0  0  0  0
    9.5947   -7.6893    0.0000 C   0  0  0  0  0  0  0  0  0  0  0  0
  1  2  1  0  0  0  0
  2  3  1  0  0  0  0
  3  4  1  0  0  0  0
  4  5  1  0  0  0  0
  5  6  2  0  0  0  0
  6  7  1  0  0  0  0
  7  8  1  0  0  0  0
  8  9  1  0  0  0  0
  9 10  2  0  0  0  0
 10 11  1  0  0  0  0
  1 12  1  0  0  0  0
 10 13  1  0  0  0  0
  6 14  1  0  0  0  0
  2 15  1  0  0  0  0
M  END
>  <cdx:fragmentId>
10396

$$$$
