5364716.cdx
  Mrv1902 05222410242D          

 26 25  0  0  0  0            999 V2000
    1.1051   -6.1438    0.0000 C   0  0  0  0  0  0  0  0  0  0  0  0
    0.3907   -6.5563    0.0000 O   0  0  0  0  0  0  0  0  0  0  0  0
    1.8196   -6.5563    0.0000 O   0  0  0  0  0  0  0  0  0  0  0  0
    2.5341   -6.1438    0.0000 C   0  0  0  0  0  0  0  0  0  0  0  0
    3.2485   -6.5563    0.0000 C   0  0  0  0  0  0  0  0  0  0  0  0
    3.9630   -6.1438    0.0000 C   0  0  0  0  0  0  0  0  0  0  0  0
    4.6775   -6.5563    0.0000 C   0  0  0  0  0  0  0  0  0  0  0  0
    5.3920   -6.1438    0.0000 C   0  0  0  0  0  0  0  0  0  0  0  0
    6.1064   -6.5563    0.0000 C   0  0  0  0  0  0  0  0  0  0  0  0
    6.8209   -6.1438    0.0000 C   0  0  0  0  0  0  0  0  0  0  0  0
    7.5354   -6.5563    0.0000 C   0  0  0  0  0  0  0  0  0  0  0  0
    8.2498   -6.1438    0.0000 C   0  0  0  0  0  0  0  0  0  0  0  0
    8.9643   -6.5563    0.0000 C   0  0  0  0  0  0  0  0  0  0  0  0
    9.6788   -6.1438    0.0000 C   0  0  0  0  0  0  0  0  0  0  0  0
   10.3933   -6.5563    0.0000 C   0  0  0  0  0  0  0  0  0  0  0  0
   11.1077   -6.1438    0.0000 C   0  0  0  0  0  0  0  0  0  0  0  0
   11.8222   -6.5563    0.0000 C   0  0  0  0  0  0  0  0  0  0  0  0
   12.6472   -6.5563    0.0000 C   0  0  0  0  0  0  0  0  0  0  0  0
   13.3617   -6.1438    0.0000 C   0  0  0  0  0  0  0  0  0  0  0  0
   14.0761   -6.5563    0.0000 C   0  0  0  0  0  0  0  0  0  0  0  0
   14.7906   -6.1438    0.0000 C   0  0  0  0  0  0  0  0  0  0  0  0
   15.5051   -6.5563    0.0000 C   0  0  0  0  0  0  0  0  0  0  0  0
   16.2196   -6.1438    0.0000 C   0  0  0  0  0  0  0  0  0  0  0  0
   16.9340   -6.5563    0.0000 C   0  0  0  0  0  0  0  0  0  0  0  0
   17.6485   -6.1438    0.0000 C   0  0  0  0  0  0  0  0  0  0  0  0
   18.3630   -6.5563    0.0000 C   0  0  0  0  0  0  0  0  0  0  0  0
  1  2  2  0  0  0  0
  1  3  1  0  0  0  0
  4  5  1  0  0  0  0
  5  6  1  0  0  0  0
  6  7  1  0  0  0  0
  7  8  1  0  0  0  0
  8  9  1  0  0  0  0
  9 10  1  0  0  0  0
 10 11  1  0  0  0  0
 11 12  1  0  0  0  0
 12 13  1  0  0  0  0
 13 14  1  0  0  0  0
 14 15  1  0  0  0  0
 15 16  1  0  0  0  0
 16 17  1  0  0  0  0
 17 18  2  0  0  0  0
 18 19  1  0  0  0  0
 19 20  1  0  0  0  0
 20 21  1  0  0  0  0
 21 22  1  0  0  0  0
 22 23  1  0  0  0  0
 23 24  1  0  0  0  0
 24 25  1  0  0  0  0
 25 26  1  0  0  0  0
  3  4  1  0  0  0  0
M  END
>  <cdx:groupId>
79

>  <cdx:fragmentId>
11

$$$$
