364759.cdx
  Mrv1902 05222410272D          

 20 19  0  0  0  0            999 V2000
    2.8769   -7.5278    0.0000 C   0  0  0  0  0  0  0  0  0  0  0  0
    3.5914   -7.1153    0.0000 C   0  0  0  0  0  0  0  0  0  0  0  0
    4.3059   -7.5278    0.0000 C   0  0  0  0  0  0  0  0  0  0  0  0
    5.0203   -7.1153    0.0000 C   0  0  0  0  0  0  0  0  0  0  0  0
    5.7348   -7.5278    0.0000 C   0  0  0  0  0  0  0  0  0  0  0  0
    6.4493   -7.1153    0.0000 C   0  0  0  0  0  0  0  0  0  0  0  0
    7.1638   -7.5278    0.0000 C   0  0  0  0  0  0  0  0  0  0  0  0
    7.8782   -7.1153    0.0000 C   0  0  0  0  0  0  0  0  0  0  0  0
    8.5927   -7.5278    0.0000 C   0  0  0  0  0  0  0  0  0  0  0  0
    9.3072   -7.1153    0.0000 C   0  0  0  0  0  0  0  0  0  0  0  0
   10.0216   -7.5278    0.0000 C   0  0  0  0  0  0  0  0  0  0  0  0
   10.7361   -7.1153    0.0000 C   0  0  0  0  0  0  0  0  0  0  0  0
   11.4506   -7.5278    0.0000 C   0  0  0  0  0  0  0  0  0  0  0  0
   12.1651   -7.1153    0.0000 C   0  0  0  0  0  0  0  0  0  0  0  0
   12.8795   -7.5278    0.0000 C   0  0  0  0  0  0  0  0  0  0  0  0
   13.5940   -7.1153    0.0000 C   0  0  0  0  0  0  0  0  0  0  0  0
    2.8769   -8.3528    0.0000 O   0  0  0  0  0  0  0  0  0  0  0  0
    2.1625   -7.1153    0.0000 O   0  0  0  0  0  0  0  0  0  0  0  0
    1.4480   -7.5278    0.0000 C   0  0  0  0  0  0  0  0  0  0  0  0
    0.7335   -7.1153    0.0000 C   0  0  0  0  0  0  0  0  0  0  0  0
  1  2  1  0  0  0  0
  2  3  1  0  0  0  0
  3  4  1  0  0  0  0
  4  5  1  0  0  0  0
  5  6  1  0  0  0  0
  6  7  1  0  0  0  0
  7  8  1  0  0  0  0
  8  9  1  0  0  0  0
  9 10  2  0  0  0  0
 10 11  1  0  0  0  0
 11 12  1  0  0  0  0
 12 13  1  0  0  0  0
 13 14  1  0  0  0  0
 14 15  1  0  0  0  0
 15 16  1  0  0  0  0
  1 17  2  0  0  0  0
  1 18  1  0  0  0  0
 19 20  1  0  0  0  0
 18 19  1  0  0  0  0
M  END
>  <cdx:fragmentId>
27733

$$$$
