364942.cdx
  Mrv1902 05222410272D          

 11 10  0  0  0  0            999 V2000
    4.7166   -6.4206    0.0000 C   0  0  0  0  0  0  0  0  0  0  0  0
    5.4311   -6.8331    0.0000 C   0  0  0  0  0  0  0  0  0  0  0  0
    6.1455   -6.4206    0.0000 C   0  0  0  0  0  0  0  0  0  0  0  0
    6.8600   -6.8331    0.0000 C   0  0  0  0  0  0  0  0  0  0  0  0
    7.5745   -6.4206    0.0000 C   0  0  0  0  0  0  0  0  0  0  0  0
    8.2890   -6.8331    0.0000 C   0  0  0  0  0  0  0  0  0  0  0  0
    9.0034   -6.4206    0.0000 C   0  0  0  0  0  0  0  0  0  0  0  0
    9.7179   -6.8331    0.0000 C   0  0  0  0  0  0  0  0  0  0  0  0
   10.4324   -6.4206    0.0000 C   0  0  0  0  0  0  0  0  0  0  0  0
   11.1468   -6.8331    0.0000 C   0  0  0  0  0  0  0  0  0  0  0  0
    4.0021   -6.8331    0.0000 O   0  0  0  0  0  0  0  0  0  0  0  0
  1  2  1  0  0  0  0
  2  3  2  0  0  0  0
  3  4  1  0  0  0  0
  4  5  1  0  0  0  0
  5  6  1  0  0  0  0
  6  7  1  0  0  0  0
  7  8  1  0  0  0  0
  8  9  1  0  0  0  0
  9 10  1  0  0  0  0
  1 11  1  0  0  0  0
M  END
>  <cdx:groupId>
34

>  <cdx:fragmentId>
5

$$$$
