arachidonic acid.cdx
  Mrv1902 05222410212D          

 22 21  0  0  0  0            999 V2000
    3.4815   -9.0337    0.0000 O   0  0  0  0  0  0  0  0  0  0  0  0
    4.1960   -9.4462    0.0000 C   0  0  0  0  0  0  0  0  0  0  0  0
    4.9104   -9.0337    0.0000 C   0  0  0  0  0  0  0  0  0  0  0  0
    5.6249   -9.4462    0.0000 C   0  0  0  0  0  0  0  0  0  0  0  0
    6.3394   -9.0337    0.0000 C   0  0  0  0  0  0  0  0  0  0  0  0
    7.0539   -9.4462    0.0000 C   0  0  0  0  0  0  0  0  0  0  0  0
    7.7683   -9.0337    0.0000 C   0  0  0  0  0  0  0  0  0  0  0  0
    7.7683   -8.2088    0.0000 C   0  0  0  0  0  0  0  0  0  0  0  0
    8.4828   -7.7963    0.0000 C   0  0  0  0  0  0  0  0  0  0  0  0
    8.4828   -6.9712    0.0000 C   0  0  0  0  0  0  0  0  0  0  0  0
    7.7683   -6.5587    0.0000 C   0  0  0  0  0  0  0  0  0  0  0  0
    7.7683   -5.7338    0.0000 C   0  0  0  0  0  0  0  0  0  0  0  0
    7.0539   -5.3213    0.0000 C   0  0  0  0  0  0  0  0  0  0  0  0
    6.3394   -5.7338    0.0000 C   0  0  0  0  0  0  0  0  0  0  0  0
    5.6249   -5.3213    0.0000 C   0  0  0  0  0  0  0  0  0  0  0  0
    4.9104   -5.7338    0.0000 C   0  0  0  0  0  0  0  0  0  0  0  0
    4.9104   -6.5587    0.0000 C   0  0  0  0  0  0  0  0  0  0  0  0
    4.1960   -6.9712    0.0000 C   0  0  0  0  0  0  0  0  0  0  0  0
    3.4815   -6.5587    0.0000 C   0  0  0  0  0  0  0  0  0  0  0  0
    2.7670   -6.9712    0.0000 C   0  0  0  0  0  0  0  0  0  0  0  0
    2.0526   -6.5587    0.0000 C   0  0  0  0  0  0  0  0  0  0  0  0
    4.1960  -10.2713    0.0000 O   0  0  0  0  0  0  0  0  0  0  0  0
  1  2  1  0  0  0  0
  2  3  1  0  0  0  0
  3  4  1  0  0  0  0
  4  5  1  0  0  0  0
  5  6  1  0  0  0  0
  6  7  2  0  0  0  0
  7  8  1  0  0  0  0
  8  9  1  0  0  0  0
  9 10  2  0  0  0  0
 10 11  1  0  0  0  0
 11 12  1  0  0  0  0
 12 13  2  0  0  0  0
 13 14  1  0  0  0  0
 14 15  1  0  0  0  0
 15 16  2  0  0  0  0
 16 17  1  0  0  0  0
 17 18  1  0  0  0  0
 18 19  1  0  0  0  0
 19 20  1  0  0  0  0
 20 21  1  0  0  0  0
  2 22  2  0  0  0  0
M  END
>  <cdx:fragmentId>
4

$$$$
