365079.cdx
  Mrv1902 05222410262D          

  9  8  0  0  0  0            999 V2000
    6.7790   -6.4902    0.0000 C   0  0  0  0  0  0  0  0  0  0  0  0
    6.7790   -7.3152    0.0000 C   0  0  0  0  0  0  0  0  0  0  0  0
    7.4935   -7.7277    0.0000 C   0  0  0  0  0  0  0  0  0  0  0  0
    8.2080   -7.3152    0.0000 C   0  0  0  0  0  0  0  0  0  0  0  0
    8.2080   -6.4902    0.0000 C   0  0  0  0  0  0  0  0  0  0  0  0
    8.9224   -7.7277    0.0000 C   0  0  0  0  0  0  0  0  0  0  0  0
    6.0645   -6.0777    0.0000 O   0  0  0  0  0  0  0  0  0  0  0  0
    6.0645   -5.2527    0.0000 C   0  0  0  0  0  0  0  0  0  0  0  0
    5.3501   -4.8402    0.0000 C   0  0  0  0  0  0  0  0  0  0  0  0
  1  2  1  0  0  0  0
  2  3  2  0  0  0  0
  3  4  1  0  0  0  0
  4  5  1  0  0  0  0
  4  6  1  0  0  0  0
  8  9  1  0  0  0  0
  7  8  1  0  0  0  0
  1  7  1  0  0  0  0
M  END
>  <cdx:fragmentId>
28036

$$$$
