365004.cdx
  Mrv1902 05222410212D          

 12 11  0  0  0  0            999 V2000
    3.2240   -7.0440    0.0000 O   0  0  0  0  0  0  0  0  0  0  0  0
   11.0831   -6.6315    0.0000 C   0  0  0  0  0  0  0  0  0  0  0  0
   10.3687   -7.0440    0.0000 C   0  0  0  0  0  0  0  0  0  0  0  0
    9.6542   -6.6315    0.0000 C   0  0  0  0  0  0  0  0  0  0  0  0
    8.9397   -7.0440    0.0000 C   0  0  0  0  0  0  0  0  0  0  0  0
    8.2253   -6.6315    0.0000 C   0  0  0  0  0  0  0  0  0  0  0  0
    7.5108   -7.0440    0.0000 C   0  0  0  0  0  0  0  0  0  0  0  0
    6.7963   -6.6315    0.0000 C   0  0  0  0  0  0  0  0  0  0  0  0
    6.0818   -7.0440    0.0000 C   0  0  0  0  0  0  0  0  0  0  0  0
    5.3674   -6.6315    0.0000 C   0  0  0  0  0  0  0  0  0  0  0  0
    4.6529   -7.0440    0.0000 C   0  0  0  0  0  0  0  0  0  0  0  0
    3.9384   -6.6315    0.0000 C   0  0  0  0  0  0  0  0  0  0  0  0
 12  1  1  0  0  0  0
  3  2  1  0  0  0  0
  4  3  1  0  0  0  0
  5  4  1  0  0  0  0
  6  5  1  0  0  0  0
  7  6  1  0  0  0  0
  8  7  1  0  0  0  0
  9  8  1  0  0  0  0
 10  9  1  0  0  0  0
 11 10  2  0  0  0  0
 12 11  1  0  0  0  0
M  END
>  <cdx:fragmentId>
27798

$$$$
