365037.cdx
  Mrv1902 05222410262D          

 20 19  0  0  0  0            999 V2000
    0.4038   -8.9745    0.0000 C   0  0  0  0  0  0  0  0  0  0  0  0
    1.1183   -8.5620    0.0000 C   0  0  0  0  0  0  0  0  0  0  0  0
    1.8327   -8.9745    0.0000 C   0  0  0  0  0  0  0  0  0  0  0  0
    2.5472   -8.5620    0.0000 C   0  0  0  0  0  0  0  0  0  0  0  0
    3.2617   -8.9745    0.0000 C   0  0  0  0  0  0  0  0  0  0  0  0
    3.9761   -8.5620    0.0000 C   0  0  0  0  0  0  0  0  0  0  0  0
    4.6906   -8.9745    0.0000 C   0  0  0  0  0  0  0  0  0  0  0  0
    5.4051   -8.5620    0.0000 C   0  0  0  0  0  0  0  0  0  0  0  0
    6.1195   -8.9745    0.0000 C   0  0  0  0  0  0  0  0  0  0  0  0
    6.8340   -8.5620    0.0000 C   0  0  0  0  0  0  0  0  0  0  0  0
    7.5485   -8.9745    0.0000 C   0  0  0  0  0  0  0  0  0  0  0  0
    8.2630   -8.5620    0.0000 C   0  0  0  0  0  0  0  0  0  0  0  0
    8.9774   -8.9745    0.0000 C   0  0  0  0  0  0  0  0  0  0  0  0
    9.6919   -8.5620    0.0000 C   0  0  0  0  0  0  0  0  0  0  0  0
   10.4064   -8.9745    0.0000 C   0  0  0  0  0  0  0  0  0  0  0  0
   11.1208   -8.5620    0.0000 C   0  0  0  0  0  0  0  0  0  0  0  0
   11.8353   -8.9745    0.0000 C   0  0  0  0  0  0  0  0  0  0  0  0
   12.5498   -8.5620    0.0000 C   0  0  0  0  0  0  0  0  0  0  0  0
   13.2643   -8.9745    0.0000 C   0  0  0  0  0  0  0  0  0  0  0  0
   13.9787   -8.5620    0.0000 C   0  0  0  0  0  0  0  0  0  0  0  0
  1  2  1  0  0  0  0
  2  3  1  0  0  0  0
  3  4  1  0  0  0  0
  4  5  1  0  0  0  0
  5  6  1  0  0  0  0
  6  7  1  0  0  0  0
  7  8  1  0  0  0  0
  8  9  1  0  0  0  0
  9 10  2  0  0  0  0
 10 11  1  0  0  0  0
 11 12  1  0  0  0  0
 12 13  1  0  0  0  0
 13 14  1  0  0  0  0
 14 15  1  0  0  0  0
 15 16  1  0  0  0  0
 16 17  1  0  0  0  0
 17 18  1  0  0  0  0
 18 19  1  0  0  0  0
 19 20  1  0  0  0  0
M  END
>  <cdx:fragmentId>
27902

$$$$
