5365070.cdx
  Mrv1902 05222410182D          

 20 19  0  0  0  0            999 V2000
   12.1984   -8.3574    0.0000 C   0  0  0  0  0  0  0  0  0  0  0  0
   12.9128   -8.7699    0.0000 C   0  0  0  0  0  0  0  0  0  0  0  0
   13.6273   -8.3574    0.0000 C   0  0  0  0  0  0  0  0  0  0  0  0
   14.3418   -8.7699    0.0000 C   0  0  0  0  0  0  0  0  0  0  0  0
   15.0563   -8.3574    0.0000 C   0  0  0  0  0  0  0  0  0  0  0  0
   15.7707   -8.7699    0.0000 C   0  0  0  0  0  0  0  0  0  0  0  0
   16.4852   -8.3574    0.0000 C   0  0  0  0  0  0  0  0  0  0  0  0
   17.1997   -8.7699    0.0000 C   0  0  0  0  0  0  0  0  0  0  0  0
   17.9141   -8.3574    0.0000 C   0  0  0  0  0  0  0  0  0  0  0  0
   18.6286   -8.7699    0.0000 C   0  0  0  0  0  0  0  0  0  0  0  0
   19.3431   -8.3574    0.0000 C   0  0  0  0  0  0  0  0  0  0  0  0
   20.1681   -8.3574    0.0000 C   0  0  0  0  0  0  0  0  0  0  0  0
   20.8826   -8.7699    0.0000 C   0  0  0  0  0  0  0  0  0  0  0  0
   21.5970   -8.3574    0.0000 C   0  0  0  0  0  0  0  0  0  0  0  0
   18.6286   -9.5949    0.0000 C   0  0  0  0  0  0  0  0  0  0  0  0
   10.7694   -8.3574    0.0000 C   0  0  0  0  0  0  0  0  0  0  0  0
   10.0550   -8.7699    0.0000 C   0  0  0  0  0  0  0  0  0  0  0  0
    9.3405   -8.3574    0.0000 C   0  0  0  0  0  0  0  0  0  0  0  0
   10.7694   -7.5324    0.0000 O   0  0  0  0  0  0  0  0  0  0  0  0
   11.4839   -8.7699    0.0000 O   0  0  0  0  0  0  0  0  0  0  0  0
  1  2  1  0  0  0  0
  2  3  1  0  0  0  0
  3  4  1  0  0  0  0
  4  5  1  0  0  0  0
  5  6  1  0  0  0  0
  6  7  1  0  0  0  0
  7  8  1  0  0  0  0
  8  9  1  0  0  0  0
  9 10  1  0  0  0  0
 10 11  1  0  0  0  0
 11 12  2  0  0  0  0
 12 13  1  0  0  0  0
 13 14  1  0  0  0  0
 10 15  1  0  0  0  0
 16 17  1  0  0  0  0
 17 18  1  0  0  0  0
 16 19  2  0  0  0  0
 16 20  1  0  0  0  0
  1 20  1  0  0  0  0
M  END
>  <cdx:groupId>
28025

>  <cdx:fragmentId>
27969

$$$$
