5365075.cdx
  Mrv1902 05222410202D          

 23 22  0  0  0  0            999 V2000
    1.1221   -4.0067    0.0000 C   0  0  0  0  0  0  0  0  0  0  0  0
    1.8365   -3.5942    0.0000 C   0  0  0  0  0  0  0  0  0  0  0  0
    2.5510   -4.0067    0.0000 C   0  0  0  0  0  0  0  0  0  0  0  0
    3.2655   -3.5942    0.0000 C   0  0  0  0  0  0  0  0  0  0  0  0
    3.9799   -4.0067    0.0000 C   0  0  0  0  0  0  0  0  0  0  0  0
    4.6944   -3.5942    0.0000 C   0  0  0  0  0  0  0  0  0  0  0  0
    5.4089   -4.0067    0.0000 C   0  0  0  0  0  0  0  0  0  0  0  0
    6.1234   -3.5942    0.0000 C   0  0  0  0  0  0  0  0  0  0  0  0
    6.8378   -4.0067    0.0000 C   0  0  0  0  0  0  0  0  0  0  0  0
    7.6628   -4.0067    0.0000 C   0  0  0  0  0  0  0  0  0  0  0  0
    8.3773   -3.5942    0.0000 C   0  0  0  0  0  0  0  0  0  0  0  0
    9.0918   -4.0067    0.0000 C   0  0  0  0  0  0  0  0  0  0  0  0
    9.8062   -3.5942    0.0000 C   0  0  0  0  0  0  0  0  0  0  0  0
   10.5207   -4.0067    0.0000 C   0  0  0  0  0  0  0  0  0  0  0  0
   11.2352   -3.5942    0.0000 C   0  0  0  0  0  0  0  0  0  0  0  0
   11.9496   -4.0067    0.0000 C   0  0  0  0  0  0  0  0  0  0  0  0
   12.6641   -3.5942    0.0000 C   0  0  0  0  0  0  0  0  0  0  0  0
   13.3786   -4.0067    0.0000 C   0  0  0  0  0  0  0  0  0  0  0  0
   14.0931   -3.5942    0.0000 C   0  0  0  0  0  0  0  0  0  0  0  0
   14.8075   -4.0067    0.0000 C   0  0  0  0  0  0  0  0  0  0  0  0
   15.5220   -3.5942    0.0000 C   0  0  0  0  0  0  0  0  0  0  0  0
   16.2365   -4.0067    0.0000 C   0  0  0  0  0  0  0  0  0  0  0  0
   16.9509   -3.5942    0.0000 C   0  0  0  0  0  0  0  0  0  0  0  0
  1  2  1  0  0  0  0
  2  3  1  0  0  0  0
  3  4  1  0  0  0  0
  4  5  1  0  0  0  0
  5  6  1  0  0  0  0
  6  7  1  0  0  0  0
  7  8  1  0  0  0  0
  8  9  1  0  0  0  0
  9 10  2  0  0  0  0
 10 11  1  0  0  0  0
 11 12  1  0  0  0  0
 12 13  1  0  0  0  0
 13 14  1  0  0  0  0
 14 15  1  0  0  0  0
 15 16  1  0  0  0  0
 16 17  1  0  0  0  0
 17 18  1  0  0  0  0
 18 19  1  0  0  0  0
 19 20  1  0  0  0  0
 20 21  1  0  0  0  0
 21 22  1  0  0  0  0
 22 23  1  0  0  0  0
M  END
>  <cdx:fragmentId>
5

$$$$
