365367.cdx
  Mrv1902 05222410212D          

 12 11  0  0  0  0            999 V2000
   10.5073   -6.5974    0.0000 C   0  0  0  0  0  0  0  0  0  0  0  0
    4.0771   -7.0099    0.0000 N   0  0  0  0  0  0  0  0  0  0  0  0
    4.7916   -5.7724    0.0000 O   0  0  0  0  0  0  0  0  0  0  0  0
    9.7929   -7.8349    0.0000 C   0  0  0  0  0  0  0  0  0  0  0  0
    9.7929   -7.0099    0.0000 C   0  0  0  0  0  0  0  0  0  0  0  0
    9.0784   -6.5974    0.0000 C   0  0  0  0  0  0  0  0  0  0  0  0
    8.3639   -7.0099    0.0000 C   0  0  0  0  0  0  0  0  0  0  0  0
    7.6495   -6.5974    0.0000 C   0  0  0  0  0  0  0  0  0  0  0  0
    6.9350   -7.0099    0.0000 C   0  0  0  0  0  0  0  0  0  0  0  0
    6.2205   -6.5974    0.0000 C   0  0  0  0  0  0  0  0  0  0  0  0
    5.5060   -7.0099    0.0000 C   0  0  0  0  0  0  0  0  0  0  0  0
    4.7916   -6.5974    0.0000 C   0  0  0  0  0  0  0  0  0  0  0  0
  5  1  1  0  0  0  0
 12  2  1  0  0  0  0
 12  3  2  0  0  0  0
  5  4  1  0  0  0  0
  6  5  1  0  0  0  0
  7  6  2  0  0  0  0
  8  7  1  0  0  0  0
  9  8  1  0  0  0  0
 10  9  1  0  0  0  0
 11 10  1  0  0  0  0
 12 11  1  0  0  0  0
M  END
>  <cdx:fragmentId>
28066

$$$$
