5365587.cdx
  Mrv1902 05222410252D          

  9  8  0  0  0  0            999 V2000
    9.1734   -7.4560    0.0000 C   0  0  0  0  0  0  0  0  0  0  0  0
    9.8878   -7.0435    0.0000 O   0  0  0  0  0  0  0  0  0  0  0  0
    8.4589   -7.0435    0.0000 O   0  0  0  0  0  0  0  0  0  0  0  0
    7.7444   -7.4560    0.0000 C   0  0  0  0  0  0  0  0  0  0  0  0
    7.0300   -7.0435    0.0000 C   0  0  0  0  0  0  0  0  0  0  0  0
    6.3155   -7.4560    0.0000 C   0  0  0  0  0  0  0  0  0  0  0  0
    5.6010   -7.0435    0.0000 C   0  0  0  0  0  0  0  0  0  0  0  0
    5.6010   -6.2185    0.0000 C   0  0  0  0  0  0  0  0  0  0  0  0
    4.8865   -5.8060    0.0000 C   0  0  0  0  0  0  0  0  0  0  0  0
  1  2  2  0  0  0  0
  1  3  1  0  0  0  0
  4  5  1  0  0  0  0
  5  6  1  0  0  0  0
  6  7  2  0  0  0  0
  7  8  1  0  0  0  0
  8  9  1  0  0  0  0
  3  4  1  0  0  0  0
M  END
>  <cdx:groupId>
28

>  <cdx:fragmentId>
11

$$$$
