5365638.cdx
  Mrv1902 05222410232D          

 19 18  0  0  0  0            999 V2000
   20.1128   -8.6553    0.0000 C   0  0  0  0  0  0  0  0  0  0  0  0
   19.3983   -9.0678    0.0000 C   0  0  0  0  0  0  0  0  0  0  0  0
   18.6839   -8.6553    0.0000 C   0  0  0  0  0  0  0  0  0  0  0  0
   17.9694   -9.0678    0.0000 C   0  0  0  0  0  0  0  0  0  0  0  0
   17.2549   -8.6553    0.0000 C   0  0  0  0  0  0  0  0  0  0  0  0
   16.5405   -9.0678    0.0000 C   0  0  0  0  0  0  0  0  0  0  0  0
   15.8260   -8.6553    0.0000 C   0  0  0  0  0  0  0  0  0  0  0  0
   15.1115   -9.0678    0.0000 C   0  0  0  0  0  0  0  0  0  0  0  0
   14.3970   -8.6553    0.0000 C   0  0  0  0  0  0  0  0  0  0  0  0
   13.6826   -9.0678    0.0000 C   0  0  0  0  0  0  0  0  0  0  0  0
   12.9681   -8.6553    0.0000 C   0  0  0  0  0  0  0  0  0  0  0  0
   12.2536   -9.0678    0.0000 C   0  0  0  0  0  0  0  0  0  0  0  0
   11.5392   -8.6553    0.0000 C   0  0  0  0  0  0  0  0  0  0  0  0
   10.8247   -9.0678    0.0000 C   0  0  0  0  0  0  0  0  0  0  0  0
   10.1102   -8.6553    0.0000 C   0  0  0  0  0  0  0  0  0  0  0  0
    9.3958   -9.0678    0.0000 C   0  0  0  0  0  0  0  0  0  0  0  0
   20.1128   -7.8303    0.0000 O   0  0  0  0  0  0  0  0  0  0  0  0
   20.8273   -9.0678    0.0000 O   0  0  0  0  0  0  0  0  0  0  0  0
   21.5418   -8.6553    0.0000 C   0  0  0  0  0  0  0  0  0  0  0  0
  1  2  1  0  0  0  0
  2  3  1  0  0  0  0
  3  4  1  0  0  0  0
  4  5  2  0  0  0  0
  5  6  1  0  0  0  0
  6  7  1  0  0  0  0
  7  8  2  0  0  0  0
  8  9  1  0  0  0  0
  9 10  1  0  0  0  0
 10 11  2  0  0  0  0
 11 12  1  0  0  0  0
 12 13  1  0  0  0  0
 13 14  1  0  0  0  0
 14 15  1  0  0  0  0
 15 16  1  0  0  0  0
  1 17  2  0  0  0  0
  1 18  1  0  0  0  0
 18 19  1  0  0  0  0
M  END
>  <cdx:groupId>
28386

>  <cdx:fragmentId>
28333

$$$$
