365671.cdx
  Mrv1902 05222410192D          

 23 22  0  0  0  0            999 V2000
    2.3360   -5.9328    0.0000 Cl  0  0  0  0  0  0  0  0  0  0  0  0
    3.0504   -6.3453    0.0000 C   0  0  0  0  0  0  0  0  0  0  0  0
    3.7649   -5.9328    0.0000 C   0  0  0  0  0  0  0  0  0  0  0  0
    4.4794   -6.3453    0.0000 O   0  0  0  0  0  0  0  0  0  0  0  0
    5.1938   -5.1078    0.0000 O   0  0  0  0  0  0  0  0  0  0  0  0
   10.9096   -5.9328    0.0000 C   0  0  0  0  0  0  0  0  0  0  0  0
   10.1951   -6.3453    0.0000 C   0  0  0  0  0  0  0  0  0  0  0  0
    9.4807   -5.9328    0.0000 C   0  0  0  0  0  0  0  0  0  0  0  0
    8.7662   -6.3453    0.0000 C   0  0  0  0  0  0  0  0  0  0  0  0
    8.0517   -5.9328    0.0000 C   0  0  0  0  0  0  0  0  0  0  0  0
    7.3373   -6.3453    0.0000 C   0  0  0  0  0  0  0  0  0  0  0  0
    6.6228   -5.9328    0.0000 C   0  0  0  0  0  0  0  0  0  0  0  0
    5.9083   -6.3453    0.0000 C   0  0  0  0  0  0  0  0  0  0  0  0
    5.1938   -5.9328    0.0000 C   0  0  0  0  0  0  0  0  0  0  0  0
   11.6241   -6.3453    0.0000 C   0  0  0  0  0  0  0  0  0  0  0  0
   11.6241   -7.1703    0.0000 C   0  0  0  0  0  0  0  0  0  0  0  0
   12.3386   -7.5828    0.0000 C   0  0  0  0  0  0  0  0  0  0  0  0
   12.3385   -8.4078    0.0000 C   0  0  0  0  0  0  0  0  0  0  0  0
   11.6241   -8.8203    0.0000 C   0  0  0  0  0  0  0  0  0  0  0  0
   11.6241   -9.6453    0.0000 C   0  0  0  0  0  0  0  0  0  0  0  0
   10.9096  -10.0578    0.0000 C   0  0  0  0  0  0  0  0  0  0  0  0
   10.9096  -10.8828    0.0000 C   0  0  0  0  0  0  0  0  0  0  0  0
   10.1951  -11.2953    0.0000 C   0  0  0  0  0  0  0  0  0  0  0  0
  4  3  1  0  0  0  0
  2  1  1  0  0  0  0
  3  2  1  0  0  0  0
 14  4  1  0  0  0  0
 14  5  2  0  0  0  0
  7  6  1  0  0  0  0
  8  7  1  0  0  0  0
  9  8  1  0  0  0  0
 10  9  1  0  0  0  0
 11 10  1  0  0  0  0
 12 11  1  0  0  0  0
 13 12  1  0  0  0  0
 14 13  1  0  0  0  0
  6 15  2  0  0  0  0
 15 16  1  0  0  0  0
 16 17  1  0  0  0  0
 17 18  2  0  0  0  0
 18 19  1  0  0  0  0
 19 20  1  0  0  0  0
 20 21  1  0  0  0  0
 21 22  1  0  0  0  0
 22 23  1  0  0  0  0
M  END
>  <cdx:fragmentId>
28395

$$$$
