365767.cdx
  Mrv1902 05222410222D          

 11 10  0  0  0  0            999 V2000
    4.3301   -6.1989    0.0000 C   0  0  0  0  0  0  0  0  0  0  0  0
    5.0446   -6.6114    0.0000 C   0  0  0  0  0  0  0  0  0  0  0  0
    5.7590   -6.1989    0.0000 C   0  0  0  0  0  0  0  0  0  0  0  0
   10.7603   -6.6114    0.0000 C   0  0  0  0  0  0  0  0  0  0  0  0
    5.0446   -7.4364    0.0000 O   0  0  0  0  0  0  0  0  0  0  0  0
   10.0459   -6.1989    0.0000 C   0  0  0  0  0  0  0  0  0  0  0  0
    9.3314   -6.6114    0.0000 C   0  0  0  0  0  0  0  0  0  0  0  0
    8.6169   -6.1989    0.0000 C   0  0  0  0  0  0  0  0  0  0  0  0
    7.9024   -6.6114    0.0000 C   0  0  0  0  0  0  0  0  0  0  0  0
    7.1880   -6.1989    0.0000 C   0  0  0  0  0  0  0  0  0  0  0  0
    6.4735   -6.6114    0.0000 C   0  0  0  0  0  0  0  0  0  0  0  0
  6  4  1  0  0  0  0
  7  6  1  0  0  0  0
  8  7  1  0  0  0  0
  9  8  1  0  0  0  0
 10  9  1  0  0  0  0
 11 10  1  0  0  0  0
  1  2  1  0  0  0  0
  2  3  1  0  0  0  0
  3 11  2  0  0  0  0
  2  5  1  0  0  0  0
M  END
>  <cdx:fragmentId>
5

$$$$
