365825.cdx
  Mrv1902 05222410212D          

 11 10  0  0  0  0            999 V2000
    5.1421   -6.2452    0.0000 C   0  0  0  0  0  0  0  0  0  0  0  0
    5.8566   -6.6577    0.0000 C   0  0  0  0  0  0  0  0  0  0  0  0
    6.5711   -6.2452    0.0000 C   0  0  0  0  0  0  0  0  0  0  0  0
    7.2855   -6.6577    0.0000 C   0  0  0  0  0  0  0  0  0  0  0  0
    8.0000   -6.2452    0.0000 C   0  0  0  0  0  0  0  0  0  0  0  0
    8.7145   -6.6577    0.0000 C   0  0  0  0  0  0  0  0  0  0  0  0
    9.4290   -6.2452    0.0000 C   0  0  0  0  0  0  0  0  0  0  0  0
    9.4290   -5.4202    0.0000 C   0  0  0  0  0  0  0  0  0  0  0  0
    4.4277   -6.6577    0.0000 O   0  0  0  0  0  0  0  0  0  0  0  0
   10.1434   -6.6577    0.0000 C   0  0  0  0  0  0  0  0  0  0  0  0
    5.8566   -7.4827    0.0000 C   0  0  0  0  0  0  0  0  0  0  0  0
  1  2  1  0  0  0  0
  2  3  2  0  0  0  0
  3  4  1  0  0  0  0
  4  5  1  0  0  0  0
  5  6  1  0  0  0  0
  6  7  2  0  0  0  0
  7  8  1  0  0  0  0
  1  9  1  0  0  0  0
  7 10  1  0  0  0  0
  2 11  1  0  0  0  0
M  END
>  <cdx:groupId>
28719

>  <cdx:fragmentId>
28690

$$$$
