365842.cdx
  Mrv1902 05222410192D          

 13 12  0  0  0  0            999 V2000
    5.6528   -7.3131    0.0000 O   0  0  0  0  0  0  0  0  0  0  0  0
    4.9384   -6.9006    0.0000 C   0  0  0  0  0  0  0  0  0  0  0  0
    4.2239   -7.3131    0.0000 C   0  0  0  0  0  0  0  0  0  0  0  0
    6.3673   -6.9006    0.0000 C   0  0  0  0  0  0  0  0  0  0  0  0
    7.0818   -7.3131    0.0000 C   0  0  0  0  0  0  0  0  0  0  0  0
    7.7963   -6.9006    0.0000 C   0  0  0  0  0  0  0  0  0  0  0  0
    7.7963   -6.0756    0.0000 C   0  0  0  0  0  0  0  0  0  0  0  0
    8.5107   -7.3131    0.0000 C   0  0  0  0  0  0  0  0  0  0  0  0
    9.2252   -6.9006    0.0000 C   0  0  0  0  0  0  0  0  0  0  0  0
    9.9397   -7.3131    0.0000 C   0  0  0  0  0  0  0  0  0  0  0  0
   10.6541   -6.9006    0.0000 C   0  0  0  0  0  0  0  0  0  0  0  0
   10.6541   -6.0756    0.0000 C   0  0  0  0  0  0  0  0  0  0  0  0
   11.3686   -7.3131    0.0000 C   0  0  0  0  0  0  0  0  0  0  0  0
  2  3  2  0  0  0  0
  1  2  1  0  0  0  0
  4  5  1  0  0  0  0
  5  6  2  0  0  0  0
  6  7  1  0  0  0  0
  6  8  1  0  0  0  0
  8  9  1  0  0  0  0
  9 10  1  0  0  0  0
 10 11  2  0  0  0  0
 11 12  1  0  0  0  0
 11 13  1  0  0  0  0
  1  4  1  0  0  0  0
M  END
>  <cdx:fragmentId>
28732

$$$$
