365833.cdx
  Mrv1902 05222410202D          

 12 11  0  0  0  0            999 V2000
    5.7667  -10.3185    0.0000 C   0  0  0  0  0  0  0  0  0  0  0  0
    5.7667   -9.4935    0.0000 C   0  0  0  0  0  0  0  0  0  0  0  0
    6.4812   -9.0810    0.0000 C   0  0  0  0  0  0  0  0  0  0  0  0
    7.1956   -9.4935    0.0000 C   0  0  0  0  0  0  0  0  0  0  0  0
    7.9101   -9.0810    0.0000 C   0  0  0  0  0  0  0  0  0  0  0  0
    7.9101   -8.2560    0.0000 C   0  0  0  0  0  0  0  0  0  0  0  0
    8.6246   -7.8435    0.0000 C   0  0  0  0  0  0  0  0  0  0  0  0
    8.6246   -7.0185    0.0000 C   0  0  0  0  0  0  0  0  0  0  0  0
    9.3391   -6.6060    0.0000 C   0  0  0  0  0  0  0  0  0  0  0  0
    6.0687   -8.3665    0.0000 C   0  0  0  0  0  0  0  0  0  0  0  0
    6.8937   -8.3665    0.0000 C   0  0  0  0  0  0  0  0  0  0  0  0
    5.0522   -9.0810    0.0000 C   0  0  0  0  0  0  0  0  0  0  0  0
  1  2  1  0  0  0  0
  2  3  1  0  0  0  0
  3  4  1  0  0  0  0
  4  5  2  0  0  0  0
  5  6  1  0  0  0  0
  6  7  1  0  0  0  0
  7  8  1  0  0  0  0
  8  9  1  0  0  0  0
  3 10  1  0  0  0  0
  3 11  1  0  0  0  0
  2 12  1  0  0  0  0
M  END
>  <cdx:fragmentId>
5

$$$$
