5365928.cdx
  Mrv1902 05222410282D          

 16 15  0  0  0  0            999 V2000
   11.9853   -8.4909    0.0000 C   0  0  0  0  0  0  0  0  0  0  0  0
   12.6997   -8.9034    0.0000 C   0  0  0  0  0  0  0  0  0  0  0  0
   13.4142   -8.4909    0.0000 C   0  0  0  0  0  0  0  0  0  0  0  0
   14.1287   -8.9034    0.0000 C   0  0  0  0  0  0  0  0  0  0  0  0
   14.8431   -8.4909    0.0000 C   0  0  0  0  0  0  0  0  0  0  0  0
   15.5576   -8.9034    0.0000 C   0  0  0  0  0  0  0  0  0  0  0  0
   16.2721   -8.4909    0.0000 C   0  0  0  0  0  0  0  0  0  0  0  0
   16.9866   -8.9034    0.0000 C   0  0  0  0  0  0  0  0  0  0  0  0
   17.7010   -8.4909    0.0000 C   0  0  0  0  0  0  0  0  0  0  0  0
   18.4155   -8.9034    0.0000 C   0  0  0  0  0  0  0  0  0  0  0  0
   19.1300   -8.4909    0.0000 C   0  0  0  0  0  0  0  0  0  0  0  0
   19.1300   -7.6659    0.0000 C   0  0  0  0  0  0  0  0  0  0  0  0
   11.2708   -8.9034    0.0000 O   0  0  0  0  0  0  0  0  0  0  0  0
   19.8444   -8.9034    0.0000 C   0  0  0  0  0  0  0  0  0  0  0  0
   16.2721   -7.6659    0.0000 C   0  0  0  0  0  0  0  0  0  0  0  0
   13.4142   -7.6659    0.0000 C   0  0  0  0  0  0  0  0  0  0  0  0
  1  2  1  0  0  0  0
  2  3  2  0  0  0  0
  3  4  1  0  0  0  0
  4  5  2  0  0  0  0
  5  6  1  0  0  0  0
  6  7  2  0  0  0  0
  7  8  1  0  0  0  0
  8  9  1  0  0  0  0
  9 10  1  0  0  0  0
 10 11  2  0  0  0  0
 11 12  1  0  0  0  0
  1 13  2  0  0  0  0
 11 14  1  0  0  0  0
  7 15  1  0  0  0  0
  3 16  1  0  0  0  0
M  END
>  <cdx:groupId>
28988

>  <cdx:fragmentId>
28944

$$$$
