365985.cdx
  Mrv1902 05222410212D          

 12 11  0  0  0  0            999 V2000
    5.6388   -5.9697    0.0000 C   0  0  0  0  0  0  0  0  0  0  0  0
    4.9244   -6.3822    0.0000 C   0  0  0  0  0  0  0  0  0  0  0  0
    4.9244   -7.2072    0.0000 C   0  0  0  0  0  0  0  0  0  0  0  0
    5.6388   -5.1447    0.0000 O   0  0  0  0  0  0  0  0  0  0  0  0
    6.3533   -6.3822    0.0000 O   0  0  0  0  0  0  0  0  0  0  0  0
    4.2099   -5.9697    0.0000 C   0  0  0  0  0  0  0  0  0  0  0  0
    7.0678   -5.9697    0.0000 C   0  0  0  0  0  0  0  0  0  0  0  0
    7.7822   -6.3822    0.0000 C   0  0  0  0  0  0  0  0  0  0  0  0
    8.4967   -5.9697    0.0000 C   0  0  0  0  0  0  0  0  0  0  0  0
    9.2112   -6.3822    0.0000 C   0  0  0  0  0  0  0  0  0  0  0  0
    9.9256   -5.9697    0.0000 C   0  0  0  0  0  0  0  0  0  0  0  0
   10.6401   -6.3822    0.0000 C   0  0  0  0  0  0  0  0  0  0  0  0
  1  2  1  0  0  0  0
  2  3  1  0  0  0  0
  1  4  2  0  0  0  0
  1  5  1  0  0  0  0
  2  6  1  0  0  0  0
  7  8  1  0  0  0  0
  8  9  1  0  0  0  0
  9 10  2  0  0  0  0
 10 11  1  0  0  0  0
 11 12  1  0  0  0  0
  5  7  1  0  0  0  0
M  END
>  <cdx:groupId>
37

>  <cdx:fragmentId>
17

$$$$
