365910.cdx
  Mrv1902 05222410262D          

 13 12  0  0  0  0            999 V2000
    3.8111   -4.9978    0.0000 C   0  0  0  0  0  0  0  0  0  0  0  0
    4.5256   -5.4103    0.0000 O   0  0  0  0  0  0  0  0  0  0  0  0
    5.2401   -4.1728    0.0000 O   0  0  0  0  0  0  0  0  0  0  0  0
   10.2414   -5.4103    0.0000 C   0  0  0  0  0  0  0  0  0  0  0  0
    9.5269   -4.1728    0.0000 C   0  0  0  0  0  0  0  0  0  0  0  0
    9.5269   -4.9978    0.0000 C   0  0  0  0  0  0  0  0  0  0  0  0
    8.8124   -5.4103    0.0000 C   0  0  0  0  0  0  0  0  0  0  0  0
    8.0980   -4.9978    0.0000 C   0  0  0  0  0  0  0  0  0  0  0  0
    7.3835   -5.4103    0.0000 C   0  0  0  0  0  0  0  0  0  0  0  0
    6.6690   -4.1728    0.0000 C   0  0  0  0  0  0  0  0  0  0  0  0
    6.6690   -4.9978    0.0000 C   0  0  0  0  0  0  0  0  0  0  0  0
    5.9545   -5.4103    0.0000 C   0  0  0  0  0  0  0  0  0  0  0  0
    5.2401   -4.9978    0.0000 C   0  0  0  0  0  0  0  0  0  0  0  0
  2  1  1  0  0  0  0
 13  2  1  0  0  0  0
 13  3  2  0  0  0  0
  6  4  1  0  0  0  0
  6  5  1  0  0  0  0
  7  6  2  0  0  0  0
  8  7  1  0  0  0  0
  9  8  1  0  0  0  0
 11  9  1  0  0  0  0
 11 10  1  0  0  0  0
 12 11  2  0  0  0  0
 13 12  1  0  0  0  0
M  END
>  <cdx:groupId>
28938

>  <cdx:fragmentId>
28903

$$$$
