eicosatrienoic acid.cdx
  Mrv1902 05222410202D          

 22 21  0  0  0  0            999 V2000
    2.4090   -8.2088    0.0000 O   0  0  0  0  0  0  0  0  0  0  0  0
    3.1235   -8.6212    0.0000 C   0  0  0  0  0  0  0  0  0  0  0  0
    3.8379   -8.2088    0.0000 C   0  0  0  0  0  0  0  0  0  0  0  0
    4.5524   -8.6212    0.0000 C   0  0  0  0  0  0  0  0  0  0  0  0
    5.2669   -8.2088    0.0000 C   0  0  0  0  0  0  0  0  0  0  0  0
    5.9814   -8.6212    0.0000 C   0  0  0  0  0  0  0  0  0  0  0  0
    6.6958   -8.2088    0.0000 C   0  0  0  0  0  0  0  0  0  0  0  0
    7.4103   -8.6212    0.0000 C   0  0  0  0  0  0  0  0  0  0  0  0
    8.1248   -8.2088    0.0000 C   0  0  0  0  0  0  0  0  0  0  0  0
    8.8392   -8.6212    0.0000 C   0  0  0  0  0  0  0  0  0  0  0  0
    9.5537   -8.2088    0.0000 C   0  0  0  0  0  0  0  0  0  0  0  0
   10.2682   -8.6212    0.0000 C   0  0  0  0  0  0  0  0  0  0  0  0
   10.9827   -8.2088    0.0000 C   0  0  0  0  0  0  0  0  0  0  0  0
   10.9827   -7.3838    0.0000 C   0  0  0  0  0  0  0  0  0  0  0  0
   11.6971   -6.9712    0.0000 C   0  0  0  0  0  0  0  0  0  0  0  0
   11.6971   -6.1463    0.0000 C   0  0  0  0  0  0  0  0  0  0  0  0
   10.9827   -5.7338    0.0000 C   0  0  0  0  0  0  0  0  0  0  0  0
   10.9827   -4.9088    0.0000 C   0  0  0  0  0  0  0  0  0  0  0  0
   10.2682   -4.4962    0.0000 C   0  0  0  0  0  0  0  0  0  0  0  0
    9.5537   -4.9088    0.0000 C   0  0  0  0  0  0  0  0  0  0  0  0
    8.8392   -4.4962    0.0000 C   0  0  0  0  0  0  0  0  0  0  0  0
    3.1235   -9.4462    0.0000 O   0  0  0  0  0  0  0  0  0  0  0  0
  1  2  1  0  0  0  0
  2  3  1  0  0  0  0
  3  4  1  0  0  0  0
  4  5  1  0  0  0  0
  5  6  1  0  0  0  0
  6  7  1  0  0  0  0
  7  8  1  0  0  0  0
  8  9  1  0  0  0  0
  9 10  1  0  0  0  0
 10 11  1  0  0  0  0
 11 12  1  0  0  0  0
 12 13  2  0  0  0  0
 13 14  1  0  0  0  0
 14 15  1  0  0  0  0
 15 16  2  0  0  0  0
 16 17  1  0  0  0  0
 17 18  1  0  0  0  0
 18 19  2  0  0  0  0
 19 20  1  0  0  0  0
 20 21  1  0  0  0  0
  2 22  2  0  0  0  0
M  END
>  <cdx:fragmentId>
3

$$$$
