366074.cdx
  Mrv1902 05222410242D          

 14 14  0  0  0  0            999 V2000
    7.3331   -5.4896    0.0000 C   0  0  0  0  0  0  0  0  0  0  0  0
    8.0475   -5.9021    0.0000 C   0  0  0  0  0  0  0  0  0  0  0  0
    8.7620   -5.4896    0.0000 C   0  0  0  0  0  0  0  0  0  0  0  0
    9.4765   -5.9021    0.0000 C   0  0  0  0  0  0  0  0  0  0  0  0
    7.3331   -4.6646    0.0000 O   0  0  0  0  0  0  0  0  0  0  0  0
    6.6186   -5.9021    0.0000 C   0  0  0  0  0  0  0  0  0  0  0  0
    5.9041   -5.4896    0.0000 C   0  0  0  0  0  0  0  0  0  0  0  0
    5.1896   -5.9021    0.0000 C   0  0  0  0  0  0  0  0  0  0  0  0
    5.1896   -6.7271    0.0000 C   0  0  0  0  0  0  0  0  0  0  0  0
    5.9041   -7.1396    0.0000 C   0  0  0  0  0  0  0  0  0  0  0  0
    6.6186   -6.7271    0.0000 C   0  0  0  0  0  0  0  0  0  0  0  0
    7.4436   -6.7271    0.0000 C   0  0  0  0  0  0  0  0  0  0  0  0
    7.0311   -7.4415    0.0000 C   0  0  0  0  0  0  0  0  0  0  0  0
    5.9041   -4.6646    0.0000 C   0  0  0  0  0  0  0  0  0  0  0  0
  1  2  1  0  0  0  0
  2  3  2  0  0  0  0
  3  4  1  0  0  0  0
  1  5  2  0  0  0  0
  6  7  2  0  0  0  0
  7  8  1  0  0  0  0
  8  9  2  0  0  0  0
  9 10  1  0  0  0  0
 10 11  1  0  0  0  0
  6 11  1  0  0  0  0
 11 12  1  0  0  0  0
 11 13  1  0  0  0  0
  7 14  1  0  0  0  0
  1  6  1  0  0  0  0
M  END
>  <cdx:fragmentId>
29120

$$$$
