366139.cdx
  Mrv1902 05222410252D          

 54 57  0  0  0  0            999 V2000
    9.4020   -9.3667    0.0000 C   0  0  0  0  0  0  0  0  0  0  0  0
    9.9164  -10.0117    0.0000 C   0  0  0  0  0  0  0  0  0  0  0  0
   10.7322   -9.8887    0.0000 C   0  0  0  0  0  0  0  0  0  0  0  0
   11.2465  -10.5337    0.0000 C   0  0  0  0  0  0  0  0  0  0  0  0
   10.9451  -11.3017    0.0000 C   0  0  0  0  0  0  0  0  0  0  0  0
   10.1293  -11.4247    0.0000 C   0  0  0  0  0  0  0  0  0  0  0  0
    9.6150  -10.7797    0.0000 C   0  0  0  0  0  0  0  0  0  0  0  0
    9.7034   -8.5987    0.0000 O   0  0  0  0  0  0  0  0  0  0  0  0
    8.5862   -9.4896    0.0000 O   0  0  0  0  0  0  0  0  0  0  0  0
    5.9080   -7.2763    0.0000 C   0  0  1  0  0  0  0  0  0  0  0  0
    5.1936   -7.6888    0.0000 C   0  0  1  0  0  0  0  0  0  0  0  0
    4.4089   -7.4339    0.0000 C   0  0  0  0  0  0  0  0  0  0  0  0
    3.9240   -8.1013    0.0000 C   0  0  1  0  0  0  0  0  0  0  0  0
    4.4089   -8.7688    0.0000 C   0  0  1  0  0  0  0  0  0  0  0  0
    5.1936   -8.5138    0.0000 C   0  0  2  0  0  0  0  0  0  0  0  0
    5.9080   -8.9263    0.0000 C   0  0  2  0  0  0  0  0  0  0  0  0
    6.6225   -8.5138    0.0000 C   0  0  0  0  0  0  0  0  0  0  0  0
    7.2675   -9.0282    0.0000 C   0  0  1  0  0  0  0  0  0  0  0  0
    8.0718   -8.8446    0.0000 C   0  0  2  0  0  0  0  0  0  0  0  0
    8.4298   -8.1013    0.0000 C   0  0  2  0  0  0  0  0  0  0  0  0
    8.0718   -7.3580    0.0000 C   0  0  0  0  0  0  0  0  0  0  0  0
    7.2675   -7.1745    0.0000 C   0  0  2  0  0  0  0  0  0  0  0  0
    6.9397   -6.4174    0.0000 C   0  0  0  0  0  0  0  0  0  0  0  0
    6.1170   -6.4790    0.0000 C   0  0  1  0  0  0  0  0  0  0  0  0
    6.6225   -7.6888    0.0000 O   0  0  0  0  0  0  0  0  0  0  0  0
    7.3522   -5.7029    0.0000 O   0  0  0  0  0  0  0  0  0  0  0  0
    7.3119   -7.6923    0.0000 C   0  0  0  0  0  0  0  0  0  0  0  0
    5.5890   -5.8452    0.0000 C   0  0  0  0  0  0  0  0  0  0  0  0
    8.3346   -6.5760    0.0000 C   0  0  0  0  0  0  0  0  0  0  0  0
    8.8631   -7.1247    0.0000 C   0  0  0  0  0  0  0  0  0  0  0  0
    3.0990   -8.1013    0.0000 C   0  0  0  0  0  0  0  0  0  0  0  0
    5.3490   -6.6696    0.0000 O   0  0  0  0  0  0  0  0  0  0  0  0
    9.2548   -8.1013    0.0000 O   0  0  0  0  0  0  0  0  0  0  0  0
    9.6673   -7.3869    0.0000 C   0  0  0  0  0  0  0  0  0  0  0  0
    9.2548   -6.6724    0.0000 O   0  0  0  0  0  0  0  0  0  0  0  0
   10.4923   -7.3869    0.0000 C   0  0  0  0  0  0  0  0  0  0  0  0
    7.0839   -9.8325    0.0000 O   0  0  0  0  0  0  0  0  0  0  0  0
    7.6887  -10.3937    0.0000 C   0  0  0  0  0  0  0  0  0  0  0  0
    7.5353  -11.2043    0.0000 O   0  0  0  0  0  0  0  0  0  0  0  0
    8.4674  -10.1212    0.0000 C   0  0  0  0  0  0  0  0  0  0  0  0
    5.9080   -9.9988    0.0000 O   0  0  0  0  0  0  0  0  0  0  0  0
    5.1936  -10.4113    0.0000 C   0  0  0  0  0  0  0  0  0  0  0  0
    5.1936  -11.2363    0.0000 O   0  0  0  0  0  0  0  0  0  0  0  0
    4.4791   -9.9988    0.0000 C   0  0  0  0  0  0  0  0  0  0  0  0
    4.1540   -9.5534    0.0000 O   0  0  0  0  0  0  0  0  0  0  0  0
    3.3470   -9.7249    0.0000 C   0  0  0  0  0  0  0  0  0  0  0  0
    3.0921  -10.5095    0.0000 O   0  0  0  0  0  0  0  0  0  0  0  0
    2.7950   -9.1118    0.0000 C   0  0  0  0  0  0  0  0  0  0  0  0
    4.9662   -6.8958    0.0000 O   0  0  0  0  0  0  0  0  0  0  0  0
    4.1657   -6.6962    0.0000 C   0  0  0  0  0  0  0  0  0  0  0  0
    3.9383   -5.9032    0.0000 O   0  0  0  0  0  0  0  0  0  0  0  0
    3.5926   -7.2897    0.0000 C   0  0  0  0  0  0  0  0  0  0  0  0
    5.1073   -9.3343    0.0000 H   0  0  0  0  0  0  0  0  0  0  0  0
    7.7947   -6.5399    0.0000 H   0  0  0  0  0  0  0  0  0  0  0  0
  1  2  1  0  0  0  0
  2  3  1  0  0  0  0
  3  4  2  0  0  0  0
  4  5  1  0  0  0  0
  5  6  2  0  0  0  0
  6  7  1  0  0  0  0
  2  7  2  0  0  0  0
  1  8  2  0  0  0  0
  1  9  1  0  0  0  0
 10 11  1  0  0  0  0
 11 12  1  0  0  0  0
 12 13  1  0  0  0  0
 13 14  1  0  0  0  0
 14 15  1  0  0  0  0
 15 16  1  0  0  0  0
 16 17  1  0  0  0  0
 17 18  1  0  0  0  0
 18 19  1  0  0  0  0
 19 20  1  0  0  0  0
 20 21  1  0  0  0  0
 21 22  1  0  0  0  0
 22 23  1  0  0  0  0
 23 24  1  0  0  0  0
 10 24  1  0  0  0  0
 10 25  1  0  0  0  0
 25 22  1  0  0  0  0
 11 15  1  0  0  0  0
 23 26  2  0  0  0  0
 17 27  2  0  0  0  0
 24 28  1  6  0  0  0
 21 29  1  0  0  0  0
 21 30  1  0  0  0  0
 13 31  1  1  0  0  0
 10 32  1  6  0  0  0
 34 35  2  0  0  0  0
 34 36  1  0  0  0  0
 33 34  1  0  0  0  0
 20 33  1  6  0  0  0
 38 39  2  0  0  0  0
 38 40  1  0  0  0  0
 37 38  1  0  0  0  0
 18 37  1  1  0  0  0
 42 43  2  0  0  0  0
 42 44  1  0  0  0  0
 41 42  1  0  0  0  0
 16 41  1  6  0  0  0
 46 47  2  0  0  0  0
 46 48  1  0  0  0  0
 45 46  1  0  0  0  0
 14 45  1  1  0  0  0
 50 51  2  0  0  0  0
 50 52  1  0  0  0  0
 49 50  1  0  0  0  0
 11 49  1  1  0  0  0
 19  9  1  6  0  0  0
 15 53  1  6  0  0  0
 22 54  1  6  0  0  0
M  END
>  <cdx:groupId>
71116

>  <cdx:fragmentId>
70972

$$$$
