12366272.cdx
  Mrv1902 05222410242D          

 17 18  0  0  0  0            999 V2000
    7.9500  -14.0812    0.0000 O   0  0  0  0  0  0  0  0  0  0  0  0
    8.5020  -13.4681    0.0000 C   0  0  0  0  0  0  0  0  0  0  0  0
    8.0895  -12.7536    0.0000 C   0  0  0  0  0  0  0  0  0  0  0  0
    7.2826  -12.9251    0.0000 C   0  0  0  0  0  0  0  0  0  0  0  0
    7.1963  -13.7456    0.0000 C   0  0  0  0  0  0  0  0  0  0  0  0
    9.3225  -13.5543    0.0000 C   0  0  0  0  0  0  0  0  0  0  0  0
    9.8074  -12.8869    0.0000 O   0  0  0  0  0  0  0  0  0  0  0  0
    6.4818  -14.1581    0.0000 C   0  0  0  0  0  0  0  0  0  0  0  0
    5.7674  -13.7456    0.0000 O   0  0  0  0  0  0  0  0  0  0  0  0
    5.0529  -14.1581    0.0000 C   0  0  0  0  0  0  0  0  0  0  0  0
    5.8144  -15.4680    0.0000 O   0  0  0  0  0  0  0  0  0  0  0  0
    6.4818  -14.9831    0.0000 C   0  0  0  0  0  0  0  0  0  0  0  0
    7.1493  -15.4680    0.0000 C   0  0  0  0  0  0  0  0  0  0  0  0
    6.8943  -16.2526    0.0000 C   0  0  0  0  0  0  0  0  0  0  0  0
    6.0693  -16.2526    0.0000 C   0  0  0  0  0  0  0  0  0  0  0  0
    5.5844  -16.9201    0.0000 C   0  0  0  0  0  0  0  0  0  0  0  0
    4.7639  -16.8338    0.0000 O   0  0  0  0  0  0  0  0  0  0  0  0
  1  2  1  0  0  0  0
  2  3  2  0  0  0  0
  3  4  1  0  0  0  0
  4  5  2  0  0  0  0
  1  5  1  0  0  0  0
  6  7  2  0  0  0  0
  2  6  1  0  0  0  0
  9 10  1  0  0  0  0
  8  9  1  0  0  0  0
 11 12  1  0  0  0  0
 12 13  2  0  0  0  0
 13 14  1  0  0  0  0
 14 15  2  0  0  0  0
 11 15  1  0  0  0  0
 16 17  2  0  0  0  0
 15 16  1  0  0  0  0
  8 12  1  0  0  0  0
  5  8  1  0  0  0  0
M  END
>  <cdx:groupId>
92040

>  <cdx:fragmentId>
92011

$$$$
