5366246.cdx
  Mrv1902 05222410222D          

 10  9  0  0  0  0            999 V2000
   16.2262   -8.6352    0.0000 C   0  0  0  0  0  0  0  0  0  0  0  0
   16.2262   -9.4602    0.0000 C   0  0  0  0  0  0  0  0  0  0  0  0
   15.5117   -9.8727    0.0000 C   0  0  0  0  0  0  0  0  0  0  0  0
   14.7972   -9.4602    0.0000 C   0  0  0  0  0  0  0  0  0  0  0  0
   14.7972   -8.6352    0.0000 C   0  0  0  0  0  0  0  0  0  0  0  0
   14.0828   -8.2227    0.0000 C   0  0  0  0  0  0  0  0  0  0  0  0
   14.0828   -7.3977    0.0000 C   0  0  0  0  0  0  0  0  0  0  0  0
   13.3683   -6.9852    0.0000 C   0  0  0  0  0  0  0  0  0  0  0  0
   16.9406   -9.0477    0.0000 O   0  0  0  0  0  0  0  0  0  0  0  0
   16.9406   -9.8727    0.0000 C   0  0  0  0  0  0  0  0  0  0  0  0
  1  2  1  0  0  0  0
  2  3  1  0  0  0  0
  3  4  2  0  0  0  0
  4  5  1  0  0  0  0
  5  6  1  0  0  0  0
  6  7  1  0  0  0  0
  7  8  1  0  0  0  0
  2  9  1  0  0  0  0
  2 10  1  0  0  0  0
M  END
>  <cdx:groupId>
29252

>  <cdx:fragmentId>
29226

$$$$
