3663.cdx
  Mrv1902 05222410262D          

 38 45  0  0  0  0            999 V2000
    7.2055   -7.5968    0.0000 C   0  0  0  0  0  0  0  0  0  0  0  0
    7.2055   -6.7718    0.0000 C   0  0  0  0  0  0  0  0  0  0  0  0
    7.9201   -6.3595    0.0000 C   0  0  0  0  0  0  0  0  0  0  0  0
    8.6350   -6.7712    0.0000 C   0  0  0  0  0  0  0  0  0  0  0  0
    9.3493   -6.3585    0.0000 C   0  0  0  0  0  0  0  0  0  0  0  0
    9.3479   -5.5335    0.0000 C   0  0  0  0  0  0  0  0  0  0  0  0
    8.6330   -5.1217    0.0000 C   0  0  0  0  0  0  0  0  0  0  0  0
    7.9187   -5.5345    0.0000 C   0  0  0  0  0  0  0  0  0  0  0  0
    7.2038   -5.1227    0.0000 C   0  0  0  0  0  0  0  0  0  0  0  0
    6.4895   -5.5354    0.0000 C   0  0  0  0  0  0  0  0  0  0  0  0
    5.7746   -5.1236    0.0000 C   0  0  0  0  0  0  0  0  0  0  0  0
    5.0606   -5.5368    0.0000 C   0  0  0  0  0  0  0  0  0  0  0  0
    5.0614   -6.3618    0.0000 C   0  0  0  0  0  0  0  0  0  0  0  0
    5.7762   -6.7736    0.0000 C   0  0  0  0  0  0  0  0  0  0  0  0
    5.7765   -7.5986    0.0000 C   0  0  0  0  0  0  0  0  0  0  0  0
    5.0626   -8.0121    0.0000 C   0  0  0  0  0  0  0  0  0  0  0  0
    5.0637   -8.8371    0.0000 C   0  0  0  0  0  0  0  0  0  0  0  0
    5.7787   -9.2486    0.0000 C   0  0  0  0  0  0  0  0  0  0  0  0
    6.4926   -8.8352    0.0000 C   0  0  0  0  0  0  0  0  0  0  0  0
    7.2076   -9.2468    0.0000 C   0  0  0  0  0  0  0  0  0  0  0  0
    7.9215   -8.8333    0.0000 C   0  0  0  0  0  0  0  0  0  0  0  0
    8.6369   -9.2443    0.0000 C   0  0  0  0  0  0  0  0  0  0  0  0
    9.3514   -8.8321    0.0000 C   0  0  0  0  0  0  0  0  0  0  0  0
    9.3506   -8.0071    0.0000 C   0  0  0  0  0  0  0  0  0  0  0  0
    8.6352   -7.5962    0.0000 C   0  0  0  0  0  0  0  0  0  0  0  0
    7.9205   -8.0083    0.0000 C   0  0  0  0  0  0  0  0  0  0  0  0
    6.4915   -8.0102    0.0000 C   0  0  0  0  0  0  0  0  0  0  0  0
    6.4903   -6.3604    0.0000 C   0  0  0  0  0  0  0  0  0  0  0  0
    8.6330   -4.2967    0.0000 O   0  0  0  0  0  0  0  0  0  0  0  0
    8.6369  -10.0693    0.0000 O   0  0  0  0  0  0  0  0  0  0  0  0
   10.0651   -7.5946    0.0000 C   0  0  0  0  0  0  0  0  0  0  0  0
   10.0638   -6.7710    0.0000 C   0  0  0  0  0  0  0  0  0  0  0  0
    7.2076  -10.0718    0.0000 O   0  0  0  0  0  0  0  0  0  0  0  0
    5.7787  -10.0736    0.0000 O   0  0  0  0  0  0  0  0  0  0  0  0
    4.3481   -7.5996    0.0000 O   0  0  0  0  0  0  0  0  0  0  0  0
    4.3469   -6.7743    0.0000 O   0  0  0  0  0  0  0  0  0  0  0  0
    5.7746   -4.2986    0.0000 O   0  0  0  0  0  0  0  0  0  0  0  0
    7.2038   -4.2977    0.0000 O   0  0  0  0  0  0  0  0  0  0  0  0
  1  2  1  0  0  0  0
  2  3  2  0  0  0  0
  3  4  1  0  0  0  0
  4  5  1  0  0  0  0
  5  6  2  0  0  0  0
  6  7  1  0  0  0  0
  7  8  1  0  0  0  0
  8  9  2  0  0  0  0
  9 10  1  0  0  0  0
 10 11  2  0  0  0  0
 11 12  1  0  0  0  0
 12 13  2  0  0  0  0
 13 14  1  0  0  0  0
 14 15  1  0  0  0  0
 15 16  1  0  0  0  0
 16 17  2  0  0  0  0
 17 18  1  0  0  0  0
 18 19  2  0  0  0  0
 19 20  1  0  0  0  0
 20 21  2  0  0  0  0
 21 22  1  0  0  0  0
 22 23  1  0  0  0  0
 23 24  2  0  0  0  0
 24 25  1  0  0  0  0
 25 26  1  0  0  0  0
  1 26  2  0  0  0  0
  1 27  1  0  0  0  0
 27 15  2  0  0  0  0
 21 26  1  0  0  0  0
  4 25  2  0  0  0  0
 10 28  1  0  0  0  0
 28  2  1  0  0  0  0
  3  8  1  0  0  0  0
 19 27  1  0  0  0  0
 14 28  2  0  0  0  0
  7 29  2  0  0  0  0
 22 30  2  0  0  0  0
 24 31  1  0  0  0  0
  5 32  1  0  0  0  0
 20 33  1  0  0  0  0
 18 34  1  0  0  0  0
 16 35  1  0  0  0  0
 13 36  1  0  0  0  0
 11 37  1  0  0  0  0
  9 38  1  0  0  0  0
M  END
>  <cdx:fragmentId>
5

$$$$
