366426.cdx
  Mrv1902 05222410192D          

 24 23  0  0  0  0            999 V2000
    3.4810   -8.2156    0.0000 O   0  0  0  0  0  0  0  0  0  0  0  0
    4.1954   -8.6281    0.0000 C   0  0  0  0  0  0  0  0  0  0  0  0
    4.9099   -8.2156    0.0000 C   0  0  0  0  0  0  0  0  0  0  0  0
    5.6244   -8.6281    0.0000 C   0  0  0  0  0  0  0  0  0  0  0  0
    6.3389   -8.2156    0.0000 C   0  0  0  0  0  0  0  0  0  0  0  0
    7.0533   -8.6281    0.0000 C   0  0  0  0  0  0  0  0  0  0  0  0
    7.7678   -8.2156    0.0000 C   0  0  0  0  0  0  0  0  0  0  0  0
    8.4823   -8.6281    0.0000 C   0  0  0  0  0  0  0  0  0  0  0  0
    9.1967   -8.2156    0.0000 C   0  0  0  0  0  0  0  0  0  0  0  0
    9.9112   -8.6281    0.0000 C   0  0  0  0  0  0  0  0  0  0  0  0
   10.6257   -8.2156    0.0000 C   0  0  0  0  0  0  0  0  0  0  0  0
    4.1954   -9.4531    0.0000 O   0  0  0  0  0  0  0  0  0  0  0  0
   10.6257   -7.3906    0.0000 C   0  0  0  0  0  0  0  0  0  0  0  0
   11.3402   -6.9781    0.0000 C   0  0  0  0  0  0  0  0  0  0  0  0
   11.3402   -6.1531    0.0000 C   0  0  0  0  0  0  0  0  0  0  0  0
   10.6257   -5.7406    0.0000 C   0  0  0  0  0  0  0  0  0  0  0  0
   10.6257   -4.9156    0.0000 C   0  0  0  0  0  0  0  0  0  0  0  0
    9.9112   -4.5031    0.0000 C   0  0  0  0  0  0  0  0  0  0  0  0
    9.1967   -4.9156    0.0000 C   0  0  0  0  0  0  0  0  0  0  0  0
    8.4823   -4.5031    0.0000 C   0  0  0  0  0  0  0  0  0  0  0  0
    2.7665   -8.6281    0.0000 Si  0  0  0  0  0  0  0  0  0  0  0  0
    2.0518   -9.0406    0.0000 C   0  0  0  0  0  0  0  0  0  0  0  0
    2.3538   -7.9137    0.0000 C   0  0  0  0  0  0  0  0  0  0  0  0
    3.1788   -9.3426    0.0000 C   0  0  0  0  0  0  0  0  0  0  0  0
  1  2  1  0  0  0  0
  2  3  1  0  0  0  0
  3  4  1  0  0  0  0
  4  5  1  0  0  0  0
  5  6  1  0  0  0  0
  6  7  1  0  0  0  0
  7  8  1  0  0  0  0
  8  9  1  0  0  0  0
  9 10  1  0  0  0  0
 10 11  2  0  0  0  0
  2 12  2  0  0  0  0
 11 13  1  0  0  0  0
 13 14  1  0  0  0  0
 14 15  2  0  0  0  0
 15 16  1  0  0  0  0
 16 17  1  0  0  0  0
 17 18  2  0  0  0  0
 18 19  1  0  0  0  0
 19 20  1  0  0  0  0
  1 21  1  0  0  0  0
 21 22  1  0  0  0  0
 21 23  1  0  0  0  0
 21 24  1  0  0  0  0
M  END
>  <cdx:fragmentId>
3

$$$$
