36655.cdx
  Mrv1902 05222410222D          

 17 17  0  0  0  0            999 V2000
    5.6654   -6.6283    0.0000 C   0  0  0  0  0  0  0  0  0  0  0  0
    5.6654   -5.8033    0.0000 C   0  0  0  0  0  0  0  0  0  0  0  0
    4.9509   -5.3908    0.0000 C   0  0  0  0  0  0  0  0  0  0  0  0
    4.2364   -5.8033    0.0000 C   0  0  0  0  0  0  0  0  0  0  0  0
    4.2364   -6.6283    0.0000 C   0  0  0  0  0  0  0  0  0  0  0  0
    4.9509   -7.0408    0.0000 C   0  0  0  0  0  0  0  0  0  0  0  0
    6.3798   -7.0408    0.0000 C   0  0  0  0  0  0  0  0  0  0  0  0
    6.3798   -7.8658    0.0000 O   0  0  0  0  0  0  0  0  0  0  0  0
    7.0943   -6.6283    0.0000 O   0  0  0  0  0  0  0  0  0  0  0  0
    6.3798   -5.3908    0.0000 C   0  0  0  0  0  0  0  0  0  0  0  0
    6.3798   -4.5658    0.0000 O   0  0  0  0  0  0  0  0  0  0  0  0
    7.0943   -5.8033    0.0000 O   0  0  0  0  0  0  0  0  0  0  0  0
    7.8088   -7.0408    0.0000 C   0  0  0  0  0  0  0  0  0  0  0  0
    8.5233   -6.6283    0.0000 C   0  0  0  0  0  0  0  0  0  0  0  0
    9.2377   -7.0408    0.0000 C   0  0  0  0  0  0  0  0  0  0  0  0
    9.9522   -6.6283    0.0000 C   0  0  0  0  0  0  0  0  0  0  0  0
    7.8088   -5.3908    0.0000 C   0  0  0  0  0  0  0  0  0  0  0  0
  1  2  1  0  0  0  0
  2  3  2  0  0  0  0
  3  4  1  0  0  0  0
  4  5  2  0  0  0  0
  5  6  1  0  0  0  0
  1  6  2  0  0  0  0
  7  8  2  0  0  0  0
  7  9  1  0  0  0  0
  1  7  1  0  0  0  0
 10 11  2  0  0  0  0
 10 12  1  0  0  0  0
  2 10  1  0  0  0  0
 13 14  1  0  0  0  0
 14 15  1  0  0  0  0
 15 16  1  0  0  0  0
  9 13  1  0  0  0  0
 12 17  1  0  0  0  0
M  END
>  <cdx:groupId>
53

>  <cdx:fragmentId>
5

$$$$
