366591.cdx
  Mrv1902 05222410192D          

  9  8  0  0  0  0            999 V2000
    5.2496   -8.1036    0.0000 C   0  0  0  0  0  0  0  0  0  0  0  0
    5.9640   -8.5161    0.0000 C   0  0  0  0  0  0  0  0  0  0  0  0
    6.6785   -8.1036    0.0000 C   0  0  0  0  0  0  0  0  0  0  0  0
    7.3930   -8.5161    0.0000 C   0  0  0  0  0  0  0  0  0  0  0  0
    8.1075   -8.1036    0.0000 C   0  0  0  0  0  0  0  0  0  0  0  0
    8.8219   -8.5161    0.0000 C   0  0  0  0  0  0  0  0  0  0  0  0
    9.5364   -8.1036    0.0000 C   0  0  0  0  0  0  0  0  0  0  0  0
   10.2509   -8.5161    0.0000 C   0  0  0  0  0  0  0  0  0  0  0  0
    4.5351   -8.5161    0.0000 O   0  0  0  0  0  0  0  0  0  0  0  0
  1  2  1  0  0  0  0
  2  3  2  0  0  0  0
  3  4  1  0  0  0  0
  4  5  1  0  0  0  0
  5  6  1  0  0  0  0
  6  7  2  0  0  0  0
  7  8  1  0  0  0  0
  1  9  1  0  0  0  0
M  END
>  <cdx:fragmentId>
10444

$$$$
