366713.cdx
  Mrv1902 05222410242D          

 35 38  0  0  0  0            999 V2000
   11.6532   -8.4100    0.0000 C   0  0  0  0  0  0  0  0  0  0  0  0
   10.8462   -8.5815    0.0000 C   0  0  0  0  0  0  0  0  0  0  0  0
   10.5912   -9.3662    0.0000 C   0  0  0  0  0  0  0  0  0  0  0  0
    9.7843   -9.5377    0.0000 C   0  0  0  0  0  0  0  0  0  0  0  0
    9.5293  -10.3223    0.0000 C   0  0  0  0  0  0  0  0  0  0  0  0
    8.7224  -10.4938    0.0000 C   0  0  1  0  0  0  0  0  0  0  0  0
    8.1703   -9.8808    0.0000 C   0  0  0  0  0  0  0  0  0  0  0  0
   11.9081   -7.6254    0.0000 O   0  0  0  0  0  0  0  0  0  0  0  0
    4.8249  -12.3584    0.0000 C   0  0  0  0  0  0  0  0  0  0  0  0
    4.1105  -12.7709    0.0000 C   0  0  0  0  0  0  0  0  0  0  0  0
    4.1105  -13.5959    0.0000 C   0  0  1  0  0  0  0  0  0  0  0  0
    4.8249  -14.0084    0.0000 C   0  0  0  0  0  0  0  0  0  0  0  0
    5.5394  -13.5959    0.0000 C   0  0  2  0  0  0  0  0  0  0  0  0
    6.2539  -14.0084    0.0000 C   0  0  0  0  0  0  0  0  0  0  0  0
    6.9683  -13.5959    0.0000 C   0  0  0  0  0  0  0  0  0  0  0  0
    6.9683  -12.7709    0.0000 C   0  0  0  0  0  0  0  0  0  0  0  0
    7.6828  -12.3584    0.0000 C   0  0  2  0  0  0  0  0  0  0  0  0
    8.4674  -12.6133    0.0000 C   0  0  0  0  0  0  0  0  0  0  0  0
    8.9523  -11.9459    0.0000 C   0  0  0  0  0  0  0  0  0  0  0  0
    8.4674  -11.2785    0.0000 C   0  0  1  0  0  0  0  0  0  0  0  0
    7.6828  -11.5334    0.0000 C   0  0  1  0  0  0  0  0  0  0  0  0
    6.9683  -11.1209    0.0000 C   0  0  0  0  0  0  0  0  0  0  0  0
    6.2539  -11.5334    0.0000 C   0  0  0  0  0  0  0  0  0  0  0  0
    6.2539  -12.3584    0.0000 C   0  0  0  0  0  0  0  0  0  0  0  0
    5.5394  -12.7709    0.0000 C   0  0  1  0  0  0  0  0  0  0  0  0
    7.6828  -14.0084    0.0000 O   0  0  0  0  0  0  0  0  0  0  0  0
    3.3960  -14.0084    0.0000 O   0  0  0  0  0  0  0  0  0  0  0  0
    7.6828  -13.1834    0.0000 C   0  0  0  0  0  0  0  0  0  0  0  0
    7.6828  -10.7084    0.0000 C   0  0  0  0  0  0  0  0  0  0  0  0
    5.5394  -11.9459    0.0000 C   0  0  0  0  0  0  0  0  0  0  0  0
    5.2374  -14.7229    0.0000 C   0  0  0  0  0  0  0  0  0  0  0  0
    4.4124  -14.7229    0.0000 C   0  0  0  0  0  0  0  0  0  0  0  0
   10.2942   -7.9685    0.0000 C   0  0  0  0  0  0  0  0  0  0  0  0
    5.5394  -14.4209    0.0000 H   0  0  0  0  0  0  0  0  0  0  0  0
    9.2520  -11.0235    0.0000 H   0  0  0  0  0  0  0  0  0  0  0  0
  1  2  1  0  0  0  0
  2  3  2  0  0  0  0
  3  4  1  0  0  0  0
  4  5  1  0  0  0  0
  5  6  1  0  0  0  0
  6  7  1  6  0  0  0
  1  8  2  0  0  0  0
  9 10  1  0  0  0  0
 10 11  1  0  0  0  0
 11 12  1  0  0  0  0
 12 13  1  0  0  0  0
 13 14  1  0  0  0  0
 14 15  1  0  0  0  0
 15 16  1  0  0  0  0
 16 17  1  0  0  0  0
 17 18  1  0  0  0  0
 18 19  1  0  0  0  0
 20 19  1  0  0  0  0
 20 21  1  0  0  0  0
 17 21  1  0  0  0  0
 21 22  1  0  0  0  0
 22 23  1  0  0  0  0
 23 24  1  0  0  0  0
 16 24  2  0  0  0  0
 24 25  1  0  0  0  0
 13 25  1  0  0  0  0
  9 25  1  0  0  0  0
 15 26  2  0  0  0  0
 11 27  1  1  0  0  0
 17 28  1  6  0  0  0
 21 29  1  1  0  0  0
 25 30  1  1  0  0  0
 12 31  1  0  0  0  0
 12 32  1  0  0  0  0
  6 20  1  0  0  0  0
  2 33  1  0  0  0  0
 13 34  1  6  0  0  0
 20 35  1  6  0  0  0
M  END
>  <cdx:groupId>
45783

>  <cdx:fragmentId>
45697

$$$$
