367.cdx
  Mrv1902 05222410212D          

 49 52  0  0  0  0            999 V2000
   14.3772   -9.8565    0.0000 C   0  0  0  0  0  0  0  0  0  0  0  0
   14.3772  -10.6815    0.0000 C   0  0  1  0  0  0  0  0  0  0  0  0
   15.0916  -11.0940    0.0000 C   0  0  0  0  0  0  0  0  0  0  0  0
   15.8061  -10.6815    0.0000 C   0  0  0  0  0  0  0  0  0  0  0  0
   15.8061   -9.8565    0.0000 C   0  0  2  0  0  0  0  0  0  0  0  0
   15.0916   -9.4440    0.0000 C   0  0  0  0  0  0  0  0  0  0  0  0
   16.5206  -11.0940    0.0000 C   0  0  0  0  0  0  0  0  0  0  0  0
   17.2350  -10.6815    0.0000 C   0  0  0  0  0  0  0  0  0  0  0  0
   17.2350   -9.8565    0.0000 C   0  0  2  0  0  0  0  0  0  0  0  0
   16.5206   -9.4440    0.0000 C   0  0  2  0  0  0  0  0  0  0  0  0
   17.9495   -9.4440    0.0000 C   0  0  1  0  0  0  0  0  0  0  0  0
   17.9495   -8.6190    0.0000 C   0  0  2  0  0  0  0  0  0  0  0  0
   17.2350   -8.2065    0.0000 C   0  0  0  0  0  0  0  0  0  0  0  0
   16.5206   -8.6190    0.0000 C   0  0  0  0  0  0  0  0  0  0  0  0
   18.7341   -9.6990    0.0000 C   0  0  0  0  0  0  0  0  0  0  0  0
   19.2191   -9.0315    0.0000 C   0  0  0  0  0  0  0  0  0  0  0  0
   18.7341   -8.3641    0.0000 C   0  0  2  0  0  0  0  0  0  0  0  0
   15.8061   -9.0315    0.0000 C   0  0  0  0  0  0  0  0  0  0  0  0
   17.9495   -7.7940    0.0000 C   0  0  0  0  0  0  0  0  0  0  0  0
   13.6627  -11.0940    0.0000 O   0  0  0  0  0  0  0  0  0  0  0  0
   16.5206  -10.2690    0.0000 H   0  0  0  0  0  0  0  0  0  0  0  0
   17.2350   -9.0315    0.0000 H   0  0  0  0  0  0  0  0  0  0  0  0
   17.9495  -10.2690    0.0000 H   0  0  0  0  0  0  0  0  0  0  0  0
   18.9891   -7.5795    0.0000 C   0  0  2  0  0  0  0  0  0  0  0  0
   18.4370   -6.9664    0.0000 C   0  0  0  0  0  0  0  0  0  0  0  0
   19.7960   -7.4080    0.0000 C   0  0  0  0  0  0  0  0  0  0  0  0
   20.0510   -6.6233    0.0000 C   0  0  0  0  0  0  0  0  0  0  0  0
   20.8580   -6.4518    0.0000 C   0  0  0  0  0  0  0  0  0  0  0  0
   21.1129   -5.6672    0.0000 C   0  0  0  0  0  0  0  0  0  0  0  0
   20.5609   -5.0541    0.0000 C   0  0  0  0  0  0  0  0  0  0  0  0
   21.9199   -5.4957    0.0000 C   0  0  0  0  0  0  0  0  0  0  0  0
   19.5591   -8.3641    0.0000 H   0  0  0  0  0  0  0  0  0  0  0  0
   12.9482  -10.6815    0.0000 C   0  0  0  0  0  0  0  0  0  0  0  0
   12.2337  -11.0940    0.0000 C   0  0  0  0  0  0  0  0  0  0  0  0
   11.5193  -10.6815    0.0000 C   0  0  0  0  0  0  0  0  0  0  0  0
   10.8048  -11.0940    0.0000 C   0  0  0  0  0  0  0  0  0  0  0  0
   10.0903  -10.6815    0.0000 C   0  0  0  0  0  0  0  0  0  0  0  0
    9.3759  -11.0940    0.0000 C   0  0  0  0  0  0  0  0  0  0  0  0
    8.6614  -10.6815    0.0000 C   0  0  0  0  0  0  0  0  0  0  0  0
    7.9469  -11.0940    0.0000 C   0  0  0  0  0  0  0  0  0  0  0  0
    7.2324  -10.6815    0.0000 C   0  0  0  0  0  0  0  0  0  0  0  0
    6.5180  -11.0940    0.0000 C   0  0  0  0  0  0  0  0  0  0  0  0
    5.8035  -10.6815    0.0000 C   0  0  0  0  0  0  0  0  0  0  0  0
    5.0890  -11.0940    0.0000 C   0  0  0  0  0  0  0  0  0  0  0  0
    4.3746  -10.6815    0.0000 C   0  0  0  0  0  0  0  0  0  0  0  0
    3.6601  -11.0940    0.0000 C   0  0  0  0  0  0  0  0  0  0  0  0
    2.9456  -10.6815    0.0000 C   0  0  0  0  0  0  0  0  0  0  0  0
    2.2312  -11.0940    0.0000 C   0  0  0  0  0  0  0  0  0  0  0  0
   12.9482   -9.8565    0.0000 O   0  0  0  0  0  0  0  0  0  0  0  0
  1  2  1  0  0  0  0
  2  3  1  0  0  0  0
  3  4  1  0  0  0  0
  4  5  1  0  0  0  0
  5  6  1  0  0  0  0
  6  1  1  0  0  0  0
  4  7  2  0  0  0  0
  7  8  1  0  0  0  0
  8  9  1  0  0  0  0
  9 10  1  0  0  0  0
 10  5  1  0  0  0  0
  9 11  1  0  0  0  0
 11 12  1  0  0  0  0
 12 13  1  0  0  0  0
 13 14  1  0  0  0  0
 14 10  1  0  0  0  0
 11 15  1  0  0  0  0
 15 16  1  0  0  0  0
 16 17  1  0  0  0  0
 17 12  1  0  0  0  0
  5 18  1  1  0  0  0
 12 19  1  1  0  0  0
  2 20  1  1  0  0  0
 10 21  1  6  0  0  0
  9 22  1  1  0  0  0
 11 23  1  6  0  0  0
 17 24  1  0  0  0  0
 24 25  1  6  0  0  0
 24 26  1  0  0  0  0
 26 27  1  0  0  0  0
 27 28  1  0  0  0  0
 28 29  1  0  0  0  0
 29 30  1  0  0  0  0
 29 31  1  0  0  0  0
 17 32  1  6  0  0  0
 20 33  1  0  0  0  0
 33 34  1  0  0  0  0
 34 35  1  0  0  0  0
 35 36  1  0  0  0  0
 36 37  1  0  0  0  0
 37 38  1  0  0  0  0
 38 39  1  0  0  0  0
 39 40  1  0  0  0  0
 40 41  1  0  0  0  0
 41 42  1  0  0  0  0
 42 43  1  0  0  0  0
 43 44  1  0  0  0  0
 44 45  1  0  0  0  0
 45 46  1  0  0  0  0
 46 47  1  0  0  0  0
 47 48  1  0  0  0  0
 33 49  2  0  0  0  0
M  END
>  <cdx:fragmentId>
5

$$$$
