12367055.cdx
  Mrv1902 05222410262D          

 14 15  0  0  0  0            999 V2000
    7.8035  -14.3256    0.0000 O   0  0  0  0  0  0  0  0  0  0  0  0
    7.3186  -13.6582    0.0000 C   0  0  0  0  0  0  0  0  0  0  0  0
    6.5339  -13.9131    0.0000 C   0  0  0  0  0  0  0  0  0  0  0  0
    6.5339  -14.7381    0.0000 C   0  0  0  0  0  0  0  0  0  0  0  0
    7.3186  -14.9931    0.0000 C   0  0  0  0  0  0  0  0  0  0  0  0
    5.8195  -15.1506    0.0000 C   0  0  0  0  0  0  0  0  0  0  0  0
    5.1050  -14.7381    0.0000 C   0  0  0  0  0  0  0  0  0  0  0  0
    5.1050  -13.9131    0.0000 C   0  0  0  0  0  0  0  0  0  0  0  0
    5.8195  -13.5006    0.0000 C   0  0  0  0  0  0  0  0  0  0  0  0
    7.5735  -12.8736    0.0000 O   0  0  0  0  0  0  0  0  0  0  0  0
    7.5735  -15.7777    0.0000 C   0  0  0  0  0  0  0  0  0  0  0  0
    8.3805  -15.9492    0.0000 C   0  0  0  0  0  0  0  0  0  0  0  0
    8.6354  -16.7338    0.0000 C   0  0  0  0  0  0  0  0  0  0  0  0
    9.4424  -16.9054    0.0000 C   0  0  0  0  0  0  0  0  0  0  0  0
  1  2  1  0  0  0  0
  2  3  1  0  0  0  0
  3  4  1  0  0  0  0
  4  5  1  0  0  0  0
  1  5  1  0  0  0  0
  6  7  1  0  0  0  0
  7  8  1  0  0  0  0
  8  9  1  0  0  0  0
  9  3  1  0  0  0  0
  6  4  1  0  0  0  0
  2 10  2  0  0  0  0
 11 12  1  0  0  0  0
 12 13  1  0  0  0  0
 13 14  1  0  0  0  0
  5 11  1  0  0  0  0
M  END
>  <cdx:groupId>
92091

>  <cdx:fragmentId>
92051

$$$$
