3672.cdx
  Mrv1902 05222410282D          

 15 15  0  0  0  0            999 V2000
    3.4986   -2.3386    0.0000 C   0  0  0  0  0  0  0  0  0  0  0  0
    2.7841   -1.9261    0.0000 C   0  0  0  0  0  0  0  0  0  0  0  0
    3.4986   -3.1636    0.0000 C   0  0  0  0  0  0  0  0  0  0  0  0
    4.2131   -1.9261    0.0000 C   0  0  0  0  0  0  0  0  0  0  0  0
    4.9275   -2.3386    0.0000 C   0  0  0  0  0  0  0  0  0  0  0  0
    4.9275   -3.1636    0.0000 C   0  0  0  0  0  0  0  0  0  0  0  0
    5.6420   -3.5761    0.0000 C   0  0  0  0  0  0  0  0  0  0  0  0
    6.3565   -3.1636    0.0000 C   0  0  0  0  0  0  0  0  0  0  0  0
    6.3565   -2.3386    0.0000 C   0  0  0  0  0  0  0  0  0  0  0  0
    5.6420   -1.9261    0.0000 C   0  0  0  0  0  0  0  0  0  0  0  0
    7.0710   -3.5761    0.0000 C   0  0  0  0  0  0  0  0  0  0  0  0
    7.0710   -4.4011    0.0000 C   0  0  0  0  0  0  0  0  0  0  0  0
    7.7854   -3.1636    0.0000 C   0  0  0  0  0  0  0  0  0  0  0  0
    7.7854   -2.3386    0.0000 O   0  0  0  0  0  0  0  0  0  0  0  0
    8.4999   -3.5761    0.0000 O   0  0  0  0  0  0  0  0  0  0  0  0
  1  2  1  0  0  0  0
  1  3  1  0  0  0  0
  1  4  1  0  0  0  0
  4  5  1  0  0  0  0
  5  6  1  0  0  0  0
  6  7  2  0  0  0  0
  7  8  1  0  0  0  0
  8  9  2  0  0  0  0
  9 10  1  0  0  0  0
  5 10  2  0  0  0  0
  8 11  1  0  0  0  0
 11 12  1  0  0  0  0
 11 13  1  0  0  0  0
 13 14  2  0  0  0  0
 13 15  1  0  0  0  0
M  END
>  <cdx:groupId>
47

>  <cdx:fragmentId>
5

$$$$
