367369.cdx
  Mrv1902 05222410242D          

 24 23  0  0  0  0            999 V2000
    6.6497  -11.3187    0.0000 C   0  0  0  0  0  0  0  0  0  0  0  0
    7.3642  -10.9062    0.0000 C   0  0  0  0  0  0  0  0  0  0  0  0
    8.0786  -11.3187    0.0000 C   0  0  0  0  0  0  0  0  0  0  0  0
    8.7931  -10.9062    0.0000 C   0  0  0  0  0  0  0  0  0  0  0  0
    9.5076  -11.3187    0.0000 C   0  0  0  0  0  0  0  0  0  0  0  0
    6.6497  -12.1437    0.0000 O   0  0  0  0  0  0  0  0  0  0  0  0
    5.9352  -10.9062    0.0000 O   0  0  0  0  0  0  0  0  0  0  0  0
    5.2208  -11.3187    0.0000 C   0  0  0  0  0  0  0  0  0  0  0  0
    4.5063  -10.9062    0.0000 C   0  0  0  0  0  0  0  0  0  0  0  0
   10.2221  -10.9062    0.0000 C   0  0  0  0  0  0  0  0  0  0  0  0
   10.2221  -10.0812    0.0000 C   0  0  0  0  0  0  0  0  0  0  0  0
   10.9365   -9.6687    0.0000 C   0  0  0  0  0  0  0  0  0  0  0  0
   10.9365   -8.8437    0.0000 C   0  0  0  0  0  0  0  0  0  0  0  0
   10.2221   -8.4312    0.0000 C   0  0  0  0  0  0  0  0  0  0  0  0
   10.2221   -7.6062    0.0000 C   0  0  0  0  0  0  0  0  0  0  0  0
    9.5076   -7.1937    0.0000 C   0  0  0  0  0  0  0  0  0  0  0  0
    8.7931   -7.6062    0.0000 C   0  0  0  0  0  0  0  0  0  0  0  0
    8.0786   -7.1937    0.0000 C   0  0  0  0  0  0  0  0  0  0  0  0
    7.3642   -7.6062    0.0000 C   0  0  0  0  0  0  0  0  0  0  0  0
    7.3642   -8.4312    0.0000 C   0  0  0  0  0  0  0  0  0  0  0  0
    6.6497   -8.8437    0.0000 C   0  0  0  0  0  0  0  0  0  0  0  0
    5.9352   -8.4312    0.0000 C   0  0  0  0  0  0  0  0  0  0  0  0
    5.2208   -8.8437    0.0000 C   0  0  0  0  0  0  0  0  0  0  0  0
    4.5063   -8.4312    0.0000 C   0  0  0  0  0  0  0  0  0  0  0  0
  1  2  1  0  0  0  0
  2  3  1  0  0  0  0
  3  4  1  0  0  0  0
  4  5  1  0  0  0  0
  1  6  2  0  0  0  0
  1  7  1  0  0  0  0
  8  9  1  0  0  0  0
  7  8  1  0  0  0  0
  5 10  2  0  0  0  0
 10 11  1  0  0  0  0
 11 12  1  0  0  0  0
 12 13  2  0  0  0  0
 13 14  1  0  0  0  0
 14 15  1  0  0  0  0
 15 16  2  0  0  0  0
 16 17  1  0  0  0  0
 17 18  1  0  0  0  0
 18 19  2  0  0  0  0
 19 20  1  0  0  0  0
 20 21  1  0  0  0  0
 21 22  1  0  0  0  0
 22 23  1  0  0  0  0
 23 24  1  0  0  0  0
M  END
>  <cdx:groupId>
73

>  <cdx:fragmentId>
5

$$$$
