5367375.cdx
  Mrv1902 05222410202D          

 12 12  0  0  0  0            999 V2000
   16.8977   -9.4627    0.0000 C   0  0  0  0  0  0  0  0  0  0  0  0
   16.1832   -9.8752    0.0000 C   0  0  0  0  0  0  0  0  0  0  0  0
   15.4688   -9.4627    0.0000 C   0  0  0  0  0  0  0  0  0  0  0  0
   14.7543   -9.8752    0.0000 C   0  0  0  0  0  0  0  0  0  0  0  0
   14.0398   -9.4627    0.0000 C   0  0  0  0  0  0  0  0  0  0  0  0
   14.0398   -8.6377    0.0000 C   0  0  0  0  0  0  0  0  0  0  0  0
   14.7543   -8.2252    0.0000 C   0  0  0  0  0  0  0  0  0  0  0  0
   14.7543   -7.4002    0.0000 C   0  0  0  0  0  0  0  0  0  0  0  0
   15.4688   -6.9877    0.0000 C   0  0  0  0  0  0  0  0  0  0  0  0
   16.1832   -7.4002    0.0000 C   0  0  0  0  0  0  0  0  0  0  0  0
   16.1832   -8.2252    0.0000 C   0  0  0  0  0  0  0  0  0  0  0  0
   16.8977   -8.6377    0.0000 C   0  0  0  0  0  0  0  0  0  0  0  0
  1  2  2  0  0  0  0
  2  3  1  0  0  0  0
  3  4  1  0  0  0  0
  4  5  2  0  0  0  0
  5  6  1  0  0  0  0
  6  7  1  0  0  0  0
  7  8  1  0  0  0  0
  8  9  2  0  0  0  0
  9 10  1  0  0  0  0
 10 11  1  0  0  0  0
 11 12  1  0  0  0  0
  1 12  1  0  0  0  0
M  END
>  <cdx:groupId>
29598

>  <cdx:fragmentId>
29565

$$$$
