367388.cdx
  Mrv1902 05222410222D          

  9  8  0  0  0  0            999 V2000
    9.5684   -6.4267    0.0000 C   0  0  0  0  0  0  0  0  0  0  0  0
    8.8539   -6.0142    0.0000 C   0  0  0  0  0  0  0  0  0  0  0  0
    8.1395   -6.4267    0.0000 C   0  0  0  0  0  0  0  0  0  0  0  0
    7.4250   -6.8392    0.0000 C   0  0  0  0  0  0  0  0  0  0  0  0
    6.7105   -7.2517    0.0000 C   0  0  0  0  0  0  0  0  0  0  0  0
    5.9961   -6.8392    0.0000 C   0  0  0  0  0  0  0  0  0  0  0  0
    5.2816   -7.2517    0.0000 C   0  0  0  0  0  0  0  0  0  0  0  0
    4.5671   -6.8392    0.0000 C   0  0  0  0  0  0  0  0  0  0  0  0
    9.5684   -7.2517    0.0000 C   0  0  0  0  0  0  0  0  0  0  0  0
  1  2  2  0  0  0  0
  2  3  1  0  0  0  0
  3  4  3  0  0  0  0
  4  5  1  0  0  0  0
  5  6  1  0  0  0  0
  6  7  1  0  0  0  0
  7  8  1  0  0  0  0
  1  9  1  0  0  0  0
M  END
>  <cdx:fragmentId>
5

$$$$
