5367366.cdx
  Mrv1902 05222410222D          

 17 16  0  0  0  0            999 V2000
   20.5470   -8.7922    0.0000 C   0  0  0  0  0  0  0  0  0  0  0  0
   19.8325   -8.3797    0.0000 C   0  0  0  0  0  0  0  0  0  0  0  0
   19.1180   -8.7922    0.0000 C   0  0  0  0  0  0  0  0  0  0  0  0
   18.4036   -8.3797    0.0000 C   0  0  0  0  0  0  0  0  0  0  0  0
   17.6891   -8.7922    0.0000 C   0  0  0  0  0  0  0  0  0  0  0  0
   16.9746   -8.3797    0.0000 C   0  0  0  0  0  0  0  0  0  0  0  0
   16.2602   -8.7922    0.0000 C   0  0  0  0  0  0  0  0  0  0  0  0
   15.4352   -8.7922    0.0000 C   0  0  0  0  0  0  0  0  0  0  0  0
   14.7207   -8.3797    0.0000 C   0  0  0  0  0  0  0  0  0  0  0  0
   14.0062   -8.7922    0.0000 C   0  0  0  0  0  0  0  0  0  0  0  0
   13.1812   -8.7922    0.0000 C   0  0  0  0  0  0  0  0  0  0  0  0
   12.4667   -8.3797    0.0000 C   0  0  0  0  0  0  0  0  0  0  0  0
   11.7523   -8.7922    0.0000 C   0  0  0  0  0  0  0  0  0  0  0  0
   10.9273   -8.7922    0.0000 C   0  0  0  0  0  0  0  0  0  0  0  0
   10.2128   -8.3797    0.0000 C   0  0  0  0  0  0  0  0  0  0  0  0
    9.4983   -8.7922    0.0000 C   0  0  0  0  0  0  0  0  0  0  0  0
   21.2615   -8.3797    0.0000 O   0  0  0  0  0  0  0  0  0  0  0  0
  1  2  1  0  0  0  0
  2  3  1  0  0  0  0
  3  4  1  0  0  0  0
  4  5  1  0  0  0  0
  5  6  1  0  0  0  0
  6  7  1  0  0  0  0
  7  8  2  0  0  0  0
  8  9  1  0  0  0  0
  9 10  1  0  0  0  0
 10 11  2  0  0  0  0
 11 12  1  0  0  0  0
 12 13  1  0  0  0  0
 13 14  2  0  0  0  0
 14 15  1  0  0  0  0
 15 16  1  0  0  0  0
  1 17  2  0  0  0  0
M  END
>  <cdx:groupId>
29556

>  <cdx:fragmentId>
29509

$$$$
