367374.cdx
  Mrv1902 05222410212D          

 13 12  0  0  0  0            999 V2000
    2.8536   -8.2500    0.0000 C   0  0  0  0  0  0  0  0  0  0  0  0
    3.5680   -7.8375    0.0000 C   0  0  0  0  0  0  0  0  0  0  0  0
    4.2825   -8.2500    0.0000 C   0  0  0  0  0  0  0  0  0  0  0  0
    4.9970   -7.8375    0.0000 C   0  0  0  0  0  0  0  0  0  0  0  0
    5.8220   -7.8375    0.0000 C   0  0  0  0  0  0  0  0  0  0  0  0
    6.5364   -8.2500    0.0000 C   0  0  0  0  0  0  0  0  0  0  0  0
    7.2509   -8.6625    0.0000 C   0  0  0  0  0  0  0  0  0  0  0  0
    7.9654   -9.0750    0.0000 C   0  0  0  0  0  0  0  0  0  0  0  0
    8.6799   -8.6625    0.0000 C   0  0  0  0  0  0  0  0  0  0  0  0
    9.3943   -9.0750    0.0000 C   0  0  0  0  0  0  0  0  0  0  0  0
   10.1088   -8.6625    0.0000 C   0  0  0  0  0  0  0  0  0  0  0  0
   10.8233   -9.0750    0.0000 C   0  0  0  0  0  0  0  0  0  0  0  0
   11.5377   -8.6625    0.0000 C   0  0  0  0  0  0  0  0  0  0  0  0
  1  2  1  0  0  0  0
  2  3  1  0  0  0  0
  3  4  1  0  0  0  0
  4  5  2  0  0  0  0
  5  6  1  0  0  0  0
  6  7  3  0  0  0  0
  7  8  1  0  0  0  0
  8  9  1  0  0  0  0
  9 10  1  0  0  0  0
 10 11  1  0  0  0  0
 11 12  1  0  0  0  0
 12 13  1  0  0  0  0
M  END
>  <cdx:fragmentId>
5

$$$$
