367327.cdx
  Mrv1902 05222410282D          

 19 18  0  0  0  0            999 V2000
   12.9279   -8.7180    0.0000 C   0  0  0  0  0  0  0  0  0  0  0  0
   12.2134   -8.3055    0.0000 C   0  0  0  0  0  0  0  0  0  0  0  0
   11.4989   -8.7180    0.0000 C   0  0  0  0  0  0  0  0  0  0  0  0
   10.7845   -8.3055    0.0000 C   0  0  0  0  0  0  0  0  0  0  0  0
   10.0700   -8.7180    0.0000 C   0  0  0  0  0  0  0  0  0  0  0  0
    9.3555   -8.3055    0.0000 C   0  0  0  0  0  0  0  0  0  0  0  0
    8.6410   -8.7180    0.0000 C   0  0  0  0  0  0  0  0  0  0  0  0
    7.9266   -8.3055    0.0000 C   0  0  0  0  0  0  0  0  0  0  0  0
    7.2121   -8.7180    0.0000 C   0  0  0  0  0  0  0  0  0  0  0  0
    6.3871   -8.7180    0.0000 C   0  0  0  0  0  0  0  0  0  0  0  0
    5.6726   -8.3055    0.0000 C   0  0  0  0  0  0  0  0  0  0  0  0
    4.9582   -8.7180    0.0000 C   0  0  0  0  0  0  0  0  0  0  0  0
    4.1332   -8.7180    0.0000 C   0  0  0  0  0  0  0  0  0  0  0  0
    3.4187   -8.3055    0.0000 C   0  0  0  0  0  0  0  0  0  0  0  0
    2.7042   -8.7180    0.0000 C   0  0  0  0  0  0  0  0  0  0  0  0
    1.8792   -8.7180    0.0000 C   0  0  0  0  0  0  0  0  0  0  0  0
    1.1648   -8.3055    0.0000 C   0  0  0  0  0  0  0  0  0  0  0  0
    0.4503   -8.7180    0.0000 C   0  0  0  0  0  0  0  0  0  0  0  0
   13.6423   -8.3055    0.0000 O   0  0  0  0  0  0  0  0  0  0  0  0
  1  2  1  0  0  0  0
  2  3  1  0  0  0  0
  3  4  1  0  0  0  0
  4  5  1  0  0  0  0
  5  6  1  0  0  0  0
  6  7  1  0  0  0  0
  7  8  1  0  0  0  0
  8  9  1  0  0  0  0
  9 10  2  0  0  0  0
 10 11  1  0  0  0  0
 11 12  1  0  0  0  0
 12 13  2  0  0  0  0
 13 14  1  0  0  0  0
 14 15  1  0  0  0  0
 15 16  2  0  0  0  0
 16 17  1  0  0  0  0
 17 18  1  0  0  0  0
  1 19  1  0  0  0  0
M  END
>  <cdx:fragmentId>
79

$$$$
