367408.cdx
  Mrv1902 05222410242D          

 15 14  0  0  0  0            999 V2000
    2.6022   -7.6928    0.0000 C   0  0  0  0  0  0  0  0  0  0  0  0
    3.3167   -8.1053    0.0000 O   0  0  0  0  0  0  0  0  0  0  0  0
    4.0311   -6.8678    0.0000 O   0  0  0  0  0  0  0  0  0  0  0  0
   11.8903   -8.1053    0.0000 C   0  0  0  0  0  0  0  0  0  0  0  0
   11.1758   -7.6928    0.0000 C   0  0  0  0  0  0  0  0  0  0  0  0
   10.4614   -8.1053    0.0000 C   0  0  0  0  0  0  0  0  0  0  0  0
    9.7469   -7.6928    0.0000 C   0  0  0  0  0  0  0  0  0  0  0  0
    9.0324   -8.1053    0.0000 C   0  0  0  0  0  0  0  0  0  0  0  0
    8.3180   -7.6928    0.0000 C   0  0  0  0  0  0  0  0  0  0  0  0
    7.6035   -8.1053    0.0000 C   0  0  0  0  0  0  0  0  0  0  0  0
    6.8890   -7.6928    0.0000 C   0  0  0  0  0  0  0  0  0  0  0  0
    6.1745   -8.1053    0.0000 C   0  0  0  0  0  0  0  0  0  0  0  0
    5.4601   -7.6928    0.0000 C   0  0  0  0  0  0  0  0  0  0  0  0
    4.7456   -8.1053    0.0000 C   0  0  0  0  0  0  0  0  0  0  0  0
    4.0311   -7.6928    0.0000 C   0  0  0  0  0  0  0  0  0  0  0  0
  2  1  1  0  0  0  0
 15  2  1  0  0  0  0
 15  3  2  0  0  0  0
  5  4  1  0  0  0  0
  6  5  1  0  0  0  0
  7  6  1  0  0  0  0
  8  7  1  0  0  0  0
  9  8  1  0  0  0  0
 10  9  2  0  0  0  0
 11 10  1  0  0  0  0
 12 11  1  0  0  0  0
 13 12  2  0  0  0  0
 14 13  1  0  0  0  0
 15 14  1  0  0  0  0
M  END
>  <cdx:groupId>
29712

>  <cdx:fragmentId>
29671

$$$$
