367436.cdx
  Mrv1902 05222410262D          

 12 12  0  0  0  0            999 V2000
    7.0195   -4.7743    0.0000 C   0  0  0  0  0  0  0  0  0  0  0  0
    7.5218   -5.4288    0.0000 C   0  0  0  0  0  0  0  0  0  0  0  0
    7.4141   -6.2467    0.0000 C   0  0  0  0  0  0  0  0  0  0  0  0
    6.7596   -6.7490    0.0000 C   0  0  0  0  0  0  0  0  0  0  0  0
    5.9416   -6.6413    0.0000 C   0  0  0  0  0  0  0  0  0  0  0  0
    5.4394   -5.9868    0.0000 C   0  0  0  0  0  0  0  0  0  0  0  0
    5.5471   -5.1688    0.0000 C   0  0  0  0  0  0  0  0  0  0  0  0
    6.2016   -4.6666    0.0000 C   0  0  0  0  0  0  0  0  0  0  0  0
    8.1286   -6.6592    0.0000 C   0  0  0  0  0  0  0  0  0  0  0  0
    8.8430   -6.2467    0.0000 C   0  0  0  0  0  0  0  0  0  0  0  0
    9.5575   -6.6592    0.0000 C   0  0  0  0  0  0  0  0  0  0  0  0
    8.1286   -7.4842    0.0000 C   0  0  0  0  0  0  0  0  0  0  0  0
  1  2  2  0  0  0  0
  2  3  1  0  0  0  0
  3  4  1  0  0  0  0
  4  5  1  0  0  0  0
  5  6  2  0  0  0  0
  6  7  1  0  0  0  0
  7  8  1  0  0  0  0
  1  8  1  0  0  0  0
  9 10  1  0  0  0  0
 10 11  2  0  0  0  0
  9 12  1  0  0  0  0
  3  9  1  0  0  0  0
M  END
>  <cdx:fragmentId>
29913

$$$$
