367410.cdx
  Mrv1902 05222410212D          

 11 10  0  0  0  0            999 V2000
    4.0683   -6.0089    0.0000 C   0  0  0  0  0  0  0  0  0  0  0  0
    4.7827   -6.4214    0.0000 C   0  0  0  0  0  0  0  0  0  0  0  0
    4.7827   -7.2464    0.0000 C   0  0  0  0  0  0  0  0  0  0  0  0
    5.4972   -7.6589    0.0000 C   0  0  0  0  0  0  0  0  0  0  0  0
    6.2117   -7.2464    0.0000 C   0  0  0  0  0  0  0  0  0  0  0  0
    6.9261   -7.6589    0.0000 C   0  0  0  0  0  0  0  0  0  0  0  0
    7.6406   -7.2464    0.0000 C   0  0  0  0  0  0  0  0  0  0  0  0
    8.3551   -7.6589    0.0000 C   0  0  0  0  0  0  0  0  0  0  0  0
    9.0696   -7.2464    0.0000 C   0  0  0  0  0  0  0  0  0  0  0  0
    9.7840   -7.6589    0.0000 C   0  0  0  0  0  0  0  0  0  0  0  0
   10.4985   -7.2464    0.0000 C   0  0  0  0  0  0  0  0  0  0  0  0
  1  2  2  0  0  0  0
  2  3  1  0  0  0  0
  3  4  2  0  0  0  0
  4  5  1  0  0  0  0
  5  6  2  0  0  0  0
  6  7  1  0  0  0  0
  7  8  1  0  0  0  0
  8  9  1  0  0  0  0
  9 10  1  0  0  0  0
 10 11  1  0  0  0  0
M  END
>  <cdx:fragmentId>
29722

$$$$
