5367451.cdx
  Mrv1902 05222410262D          

  9 10  0  0  0  0            999 V2000
   16.0988   -8.0189    0.0000 C   0  0  0  0  0  0  0  0  0  0  0  0
   15.5154   -7.4356    0.0000 C   0  0  0  0  0  0  0  0  0  0  0  0
   14.6904   -7.4356    0.0000 C   0  0  0  0  0  0  0  0  0  0  0  0
   14.1071   -8.0189    0.0000 C   0  0  0  0  0  0  0  0  0  0  0  0
   14.1071   -8.8439    0.0000 C   0  0  0  0  0  0  0  0  0  0  0  0
   14.6904   -9.4273    0.0000 C   0  0  0  0  0  0  0  0  0  0  0  0
   15.5154   -9.4273    0.0000 C   0  0  0  0  0  0  0  0  0  0  0  0
   16.0988   -8.8439    0.0000 C   0  0  0  0  0  0  0  0  0  0  0  0
   16.8133   -8.4314    0.0000 C   0  0  0  0  0  0  0  0  0  0  0  0
  1  2  2  0  0  0  0
  2  3  1  0  0  0  0
  3  4  1  0  0  0  0
  4  5  1  0  0  0  0
  5  6  1  0  0  0  0
  6  7  1  0  0  0  0
  7  8  1  0  0  0  0
  8  9  1  0  0  0  0
  1  9  1  0  0  0  0
  1  8  1  0  0  0  0
M  END
>  <cdx:groupId>
29979

>  <cdx:fragmentId>
29954

$$$$
