367416.cdx
  Mrv1902 05222410222D          

 12 11  0  0  0  0            999 V2000
   11.4783   -5.8327    0.0000 C   0  0  0  0  0  0  0  0  0  0  0  0
   10.7639   -6.2452    0.0000 C   0  0  0  0  0  0  0  0  0  0  0  0
   10.0494   -5.8327    0.0000 C   0  0  0  0  0  0  0  0  0  0  0  0
    9.3349   -6.2452    0.0000 C   0  0  0  0  0  0  0  0  0  0  0  0
    8.6205   -5.8327    0.0000 C   0  0  0  0  0  0  0  0  0  0  0  0
    7.9060   -6.2452    0.0000 C   0  0  0  0  0  0  0  0  0  0  0  0
    7.1915   -5.8327    0.0000 C   0  0  0  0  0  0  0  0  0  0  0  0
    6.4770   -6.2452    0.0000 C   0  0  0  0  0  0  0  0  0  0  0  0
    5.7626   -5.8327    0.0000 C   0  0  0  0  0  0  0  0  0  0  0  0
    5.0481   -6.2452    0.0000 C   0  0  0  0  0  0  0  0  0  0  0  0
    4.3336   -5.8327    0.0000 C   0  0  0  0  0  0  0  0  0  0  0  0
    3.6192   -6.2452    0.0000 C   0  0  0  0  0  0  0  0  0  0  0  0
  2  1  1  0  0  0  0
  3  2  1  0  0  0  0
  4  3  1  0  0  0  0
  5  4  1  0  0  0  0
  6  5  1  0  0  0  0
  7  6  1  0  0  0  0
  8  7  2  0  0  0  0
  9  8  1  0  0  0  0
 10  9  2  0  0  0  0
 11 10  1  0  0  0  0
 12 11  2  0  0  0  0
M  END
>  <cdx:fragmentId>
29796

$$$$
