5367433.cdx
  Mrv1902 05222410242D          

 23 22  0  0  0  0            999 V2000
   21.5418   -8.6553    0.0000 C   0  0  0  0  0  0  0  0  0  0  0  0
   20.8273   -9.0678    0.0000 C   0  0  0  0  0  0  0  0  0  0  0  0
   20.1128   -8.6553    0.0000 C   0  0  0  0  0  0  0  0  0  0  0  0
   19.3983   -9.0678    0.0000 C   0  0  0  0  0  0  0  0  0  0  0  0
   18.6839   -8.6553    0.0000 C   0  0  0  0  0  0  0  0  0  0  0  0
   17.9694   -9.0678    0.0000 C   0  0  0  0  0  0  0  0  0  0  0  0
   17.2549   -8.6553    0.0000 C   0  0  0  0  0  0  0  0  0  0  0  0
   16.5405   -9.0678    0.0000 C   0  0  0  0  0  0  0  0  0  0  0  0
   15.8260   -8.6553    0.0000 C   0  0  0  0  0  0  0  0  0  0  0  0
   15.1115   -9.0678    0.0000 C   0  0  0  0  0  0  0  0  0  0  0  0
   14.3970   -8.6553    0.0000 C   0  0  0  0  0  0  0  0  0  0  0  0
   13.6826   -9.0678    0.0000 C   0  0  0  0  0  0  0  0  0  0  0  0
   12.9681   -8.6553    0.0000 C   0  0  0  0  0  0  0  0  0  0  0  0
   12.2536   -9.0678    0.0000 C   0  0  0  0  0  0  0  0  0  0  0  0
   11.5392   -8.6553    0.0000 C   0  0  0  0  0  0  0  0  0  0  0  0
   10.8247   -9.0678    0.0000 C   0  0  0  0  0  0  0  0  0  0  0  0
   10.1102   -8.6553    0.0000 C   0  0  0  0  0  0  0  0  0  0  0  0
    9.3958   -9.0678    0.0000 C   0  0  0  0  0  0  0  0  0  0  0  0
    8.6813   -8.6553    0.0000 C   0  0  0  0  0  0  0  0  0  0  0  0
    7.9668   -9.0678    0.0000 C   0  0  0  0  0  0  0  0  0  0  0  0
   21.5418   -7.8303    0.0000 O   0  0  0  0  0  0  0  0  0  0  0  0
   22.2562   -9.0678    0.0000 O   0  0  0  0  0  0  0  0  0  0  0  0
   22.9707   -8.6553    0.0000 C   0  0  0  0  0  0  0  0  0  0  0  0
  1  2  1  0  0  0  0
  2  3  1  0  0  0  0
  3  4  1  0  0  0  0
  4  5  1  0  0  0  0
  5  6  2  0  0  0  0
  6  7  1  0  0  0  0
  7  8  1  0  0  0  0
  8  9  2  0  0  0  0
  9 10  1  0  0  0  0
 10 11  1  0  0  0  0
 11 12  2  0  0  0  0
 12 13  1  0  0  0  0
 13 14  1  0  0  0  0
 14 15  2  0  0  0  0
 15 16  1  0  0  0  0
 16 17  1  0  0  0  0
 17 18  2  0  0  0  0
 18 19  1  0  0  0  0
 19 20  1  0  0  0  0
  1 21  2  0  0  0  0
  1 22  1  0  0  0  0
 22 23  1  0  0  0  0
M  END
>  <cdx:groupId>
29901

>  <cdx:fragmentId>
29836

$$$$
