5367407.cdx
  Mrv1902 05222410202D          

 20 19  0  0  0  0            999 V2000
   20.4701   -8.2857    0.0000 C   0  0  0  0  0  0  0  0  0  0  0  0
   19.7556   -8.6982    0.0000 C   0  0  0  0  0  0  0  0  0  0  0  0
   19.0411   -8.2857    0.0000 C   0  0  0  0  0  0  0  0  0  0  0  0
   18.3266   -8.6982    0.0000 C   0  0  0  0  0  0  0  0  0  0  0  0
   17.6122   -8.2857    0.0000 C   0  0  0  0  0  0  0  0  0  0  0  0
   16.8977   -8.6982    0.0000 C   0  0  0  0  0  0  0  0  0  0  0  0
   16.1832   -8.2857    0.0000 C   0  0  0  0  0  0  0  0  0  0  0  0
   15.4688   -8.6982    0.0000 C   0  0  0  0  0  0  0  0  0  0  0  0
   14.7543   -9.1107    0.0000 C   0  0  0  0  0  0  0  0  0  0  0  0
   14.0398   -9.5232    0.0000 C   0  0  0  0  0  0  0  0  0  0  0  0
   13.3253   -9.1107    0.0000 C   0  0  0  0  0  0  0  0  0  0  0  0
   12.6109   -9.5232    0.0000 C   0  0  0  0  0  0  0  0  0  0  0  0
   11.8964   -9.1107    0.0000 C   0  0  0  0  0  0  0  0  0  0  0  0
   11.1819   -9.5232    0.0000 C   0  0  0  0  0  0  0  0  0  0  0  0
   10.4675   -9.1107    0.0000 C   0  0  0  0  0  0  0  0  0  0  0  0
    9.7530   -9.5232    0.0000 C   0  0  0  0  0  0  0  0  0  0  0  0
    9.0385   -9.1107    0.0000 C   0  0  0  0  0  0  0  0  0  0  0  0
   20.4701   -7.4607    0.0000 O   0  0  0  0  0  0  0  0  0  0  0  0
   21.1845   -8.6982    0.0000 O   0  0  0  0  0  0  0  0  0  0  0  0
   21.8990   -8.2857    0.0000 C   0  0  0  0  0  0  0  0  0  0  0  0
  1  2  1  0  0  0  0
  2  3  1  0  0  0  0
  3  4  1  0  0  0  0
  4  5  1  0  0  0  0
  5  6  1  0  0  0  0
  6  7  1  0  0  0  0
  7  8  1  0  0  0  0
  8  9  3  0  0  0  0
  9 10  1  0  0  0  0
 10 11  2  0  0  0  0
 11 12  1  0  0  0  0
 12 13  1  0  0  0  0
 13 14  1  0  0  0  0
 14 15  1  0  0  0  0
 15 16  1  0  0  0  0
 16 17  1  0  0  0  0
  1 18  2  0  0  0  0
  1 19  1  0  0  0  0
 19 20  1  0  0  0  0
M  END
>  <cdx:groupId>
29662

>  <cdx:fragmentId>
29606

$$$$
