367417.cdx
  Mrv1902 05222410232D          

 10 11  0  0  0  0            999 V2000
    5.5825  -10.4500    0.0000 C   0  0  0  0  0  0  0  0  0  0  0  0
    6.6550  -10.2025    0.0000 C   0  0  0  0  0  0  0  0  0  0  0  0
    7.8375  -10.5050    0.0000 C   0  0  0  0  0  0  0  0  0  0  0  0
    8.1675   -9.5700    0.0000 C   0  0  0  0  0  0  0  0  0  0  0  0
    5.5275   -9.5150    0.0000 C   0  0  0  0  0  0  0  0  0  0  0  0
    7.0028   -9.2836    0.0000 C   0  0  0  0  0  0  0  0  0  0  0  0
    6.5906   -8.5699    0.0000 C   0  0  0  0  0  0  0  0  0  0  0  0
    6.4415  -10.9994    0.0000 C   0  0  0  0  0  0  0  0  0  0  0  0
    6.0072   -7.9866    0.0000 C   0  0  0  0  0  0  0  0  0  0  0  0
    7.0031   -7.8554    0.0000 C   0  0  0  0  0  0  0  0  0  0  0  0
  1  2  1  0  0  0  0
  2  3  1  0  0  0  0
  3  4  1  0  0  0  0
  1  5  1  0  0  0  0
  5  6  1  0  0  0  0
  4  6  1  0  0  0  0
  6  7  1  0  0  0  0
  2  7  1  0  0  0  0
  2  8  1  0  0  0  0
  7  9  1  0  0  0  0
  7 10  1  0  0  0  0
M  END
>  <cdx:fragmentId>
840

$$$$
