367678.cdx
  Mrv1902 05222410262D          

 16 16  0  0  0  0            999 V2000
    7.9241   -5.2825    0.0000 C   0  0  0  0  0  0  0  0  0  0  0  0
    8.3366   -5.9970    0.0000 C   0  0  0  0  0  0  0  0  0  0  0  0
    7.9241   -6.7115    0.0000 C   0  0  0  0  0  0  0  0  0  0  0  0
    8.4384   -7.3565    0.0000 C   0  0  0  0  0  0  0  0  0  0  0  0
    8.2549   -8.1608    0.0000 C   0  0  0  0  0  0  0  0  0  0  0  0
    7.5116   -8.5188    0.0000 C   0  0  0  0  0  0  0  0  0  0  0  0
    6.7683   -8.1608    0.0000 C   0  0  0  0  0  0  0  0  0  0  0  0
    6.5847   -7.3565    0.0000 C   0  0  0  0  0  0  0  0  0  0  0  0
    7.0991   -6.7115    0.0000 C   0  0  0  0  0  0  0  0  0  0  0  0
    6.6866   -5.9970    0.0000 C   0  0  0  0  0  0  0  0  0  0  0  0
    7.0991   -5.2825    0.0000 C   0  0  0  0  0  0  0  0  0  0  0  0
    7.9241   -4.4575    0.0000 O   0  0  0  0  0  0  0  0  0  0  0  0
    5.7804   -7.1729    0.0000 C   0  0  0  0  0  0  0  0  0  0  0  0
    9.0706   -8.2838    0.0000 C   0  0  0  0  0  0  0  0  0  0  0  0
    8.5563   -8.9288    0.0000 C   0  0  0  0  0  0  0  0  0  0  0  0
    8.6385   -4.8700    0.0000 C   0  0  0  0  0  0  0  0  0  0  0  0
  1  2  1  0  0  0  0
  2  3  1  0  0  0  0
  3  4  2  0  0  0  0
  4  5  1  0  0  0  0
  5  6  1  0  0  0  0
  6  7  1  0  0  0  0
  7  8  2  0  0  0  0
  8  9  1  0  0  0  0
  9 10  1  0  0  0  0
 10 11  1  0  0  0  0
  1 11  1  0  0  0  0
  1 12  1  0  0  0  0
  8 13  1  0  0  0  0
  5 14  1  0  0  0  0
  5 15  1  0  0  0  0
  1 16  1  0  0  0  0
M  END
>  <cdx:fragmentId>
57

$$$$
