367698.cdx
  Mrv1902 05222410182D          

 16 16  0  0  0  0            999 V2000
    6.7140   -6.8373    0.0000 C   0  0  0  0  0  0  0  0  0  0  0  0
    5.9995   -6.4248    0.0000 C   0  0  0  0  0  0  0  0  0  0  0  0
    6.7140   -7.6623    0.0000 O   0  0  0  0  0  0  0  0  0  0  0  0
    7.4284   -6.4248    0.0000 O   0  0  0  0  0  0  0  0  0  0  0  0
    5.2850   -6.8373    0.0000 C   0  0  0  0  0  0  0  0  0  0  0  0
    4.5706   -6.4248    0.0000 C   0  0  0  0  0  0  0  0  0  0  0  0
    3.8561   -6.8373    0.0000 C   0  0  0  0  0  0  0  0  0  0  0  0
    3.8561   -7.6623    0.0000 C   0  0  0  0  0  0  0  0  0  0  0  0
    4.5706   -8.0748    0.0000 C   0  0  0  0  0  0  0  0  0  0  0  0
    5.2850   -7.6623    0.0000 C   0  0  0  0  0  0  0  0  0  0  0  0
    8.1429   -6.8373    0.0000 C   0  0  0  0  0  0  0  0  0  0  0  0
    8.8574   -6.4248    0.0000 C   0  0  0  0  0  0  0  0  0  0  0  0
    9.5719   -6.8373    0.0000 C   0  0  0  0  0  0  0  0  0  0  0  0
   10.2863   -6.4248    0.0000 C   0  0  0  0  0  0  0  0  0  0  0  0
   10.2863   -5.5998    0.0000 C   0  0  0  0  0  0  0  0  0  0  0  0
   11.0008   -5.1873    0.0000 C   0  0  0  0  0  0  0  0  0  0  0  0
  1  2  1  0  0  0  0
  1  3  2  0  0  0  0
  1  4  1  0  0  0  0
  5  6  1  0  0  0  0
  6  7  2  0  0  0  0
  7  8  1  0  0  0  0
  8  9  2  0  0  0  0
  9 10  1  0  0  0  0
  5 10  2  0  0  0  0
  2  5  1  0  0  0  0
 11 12  1  0  0  0  0
 12 13  1  0  0  0  0
 13 14  2  0  0  0  0
 14 15  1  0  0  0  0
 15 16  1  0  0  0  0
  4 11  1  0  0  0  0
M  END
>  <cdx:fragmentId>
67

$$$$
