367682.cdx
  Mrv1902 05222410272D          

 13 12  0  0  0  0            999 V2000
    6.6968   -6.2388    0.0000 C   0  0  0  0  0  0  0  0  0  0  0  0
    5.9823   -5.8263    0.0000 C   0  0  0  0  0  0  0  0  0  0  0  0
    5.2678   -6.2388    0.0000 C   0  0  0  0  0  0  0  0  0  0  0  0
    4.5534   -5.8263    0.0000 C   0  0  0  0  0  0  0  0  0  0  0  0
    3.8389   -6.2388    0.0000 C   0  0  0  0  0  0  0  0  0  0  0  0
    6.6968   -7.0638    0.0000 O   0  0  0  0  0  0  0  0  0  0  0  0
    7.4113   -5.8263    0.0000 O   0  0  0  0  0  0  0  0  0  0  0  0
    8.1257   -6.2388    0.0000 C   0  0  0  0  0  0  0  0  0  0  0  0
    8.8402   -5.8263    0.0000 C   0  0  0  0  0  0  0  0  0  0  0  0
    9.5547   -6.2388    0.0000 C   0  0  0  0  0  0  0  0  0  0  0  0
   10.2691   -5.8263    0.0000 C   0  0  0  0  0  0  0  0  0  0  0  0
   10.2691   -5.0013    0.0000 C   0  0  0  0  0  0  0  0  0  0  0  0
   10.9836   -4.5888    0.0000 C   0  0  0  0  0  0  0  0  0  0  0  0
  1  2  1  0  0  0  0
  2  3  1  0  0  0  0
  3  4  1  0  0  0  0
  4  5  1  0  0  0  0
  1  6  2  0  0  0  0
  1  7  1  0  0  0  0
  8  9  1  0  0  0  0
  9 10  1  0  0  0  0
 10 11  2  0  0  0  0
 11 12  1  0  0  0  0
 12 13  1  0  0  0  0
  7  8  1  0  0  0  0
M  END
>  <cdx:fragmentId>
30190

$$$$
