5367692.cdx
  Mrv1902 05222410272D          

 18 17  0  0  0  0            999 V2000
   10.4122   -8.6553    0.0000 C   0  0  0  0  0  0  0  0  0  0  0  0
    9.6977   -9.0678    0.0000 C   0  0  0  0  0  0  0  0  0  0  0  0
   10.4122   -7.8303    0.0000 O   0  0  0  0  0  0  0  0  0  0  0  0
   11.1267   -9.0678    0.0000 O   0  0  0  0  0  0  0  0  0  0  0  0
   11.8411   -8.6553    0.0000 C   0  0  0  0  0  0  0  0  0  0  0  0
   12.5556   -9.0678    0.0000 C   0  0  0  0  0  0  0  0  0  0  0  0
   13.2701   -8.6553    0.0000 C   0  0  0  0  0  0  0  0  0  0  0  0
   13.9845   -9.0678    0.0000 C   0  0  0  0  0  0  0  0  0  0  0  0
   14.6990   -8.6553    0.0000 C   0  0  0  0  0  0  0  0  0  0  0  0
   15.4135   -9.0678    0.0000 C   0  0  0  0  0  0  0  0  0  0  0  0
   16.1280   -8.6553    0.0000 C   0  0  0  0  0  0  0  0  0  0  0  0
   16.8424   -9.0678    0.0000 C   0  0  0  0  0  0  0  0  0  0  0  0
   17.5569   -8.6553    0.0000 C   0  0  0  0  0  0  0  0  0  0  0  0
   18.2714   -9.0678    0.0000 C   0  0  0  0  0  0  0  0  0  0  0  0
   18.9858   -8.6553    0.0000 C   0  0  0  0  0  0  0  0  0  0  0  0
   19.8108   -8.6553    0.0000 C   0  0  0  0  0  0  0  0  0  0  0  0
   20.5253   -9.0678    0.0000 C   0  0  0  0  0  0  0  0  0  0  0  0
   21.2398   -8.6553    0.0000 C   0  0  0  0  0  0  0  0  0  0  0  0
  1  2  1  0  0  0  0
  1  3  2  0  0  0  0
  1  4  1  0  0  0  0
  5  6  1  0  0  0  0
  6  7  1  0  0  0  0
  7  8  1  0  0  0  0
  8  9  1  0  0  0  0
  9 10  1  0  0  0  0
 10 11  1  0  0  0  0
 11 12  1  0  0  0  0
 12 13  1  0  0  0  0
 13 14  1  0  0  0  0
 14 15  1  0  0  0  0
 15 16  2  0  0  0  0
 16 17  1  0  0  0  0
 17 18  1  0  0  0  0
  4  5  1  0  0  0  0
M  END
>  <cdx:groupId>
30284

>  <cdx:fragmentId>
30242

$$$$
