367784.cdx
  Mrv1902 05222410242D          

 19 18  0  0  0  0            999 V2000
   11.4762   -9.7228    0.0000 C   0  0  0  0  0  0  0  0  0  0  0  0
   10.7617   -9.3103    0.0000 C   0  0  0  0  0  0  0  0  0  0  0  0
   10.0472   -9.7228    0.0000 C   0  0  0  0  0  0  0  0  0  0  0  0
    9.3328   -9.3103    0.0000 C   0  0  0  0  0  0  0  0  0  0  0  0
    8.6183   -9.7228    0.0000 C   0  0  0  0  0  0  0  0  0  0  0  0
    7.9038   -9.3103    0.0000 C   0  0  0  0  0  0  0  0  0  0  0  0
    7.1893   -9.7228    0.0000 C   0  0  0  0  0  0  0  0  0  0  0  0
    6.4749   -9.3103    0.0000 C   0  0  0  0  0  0  0  0  0  0  0  0
    5.7604   -9.7228    0.0000 C   0  0  0  0  0  0  0  0  0  0  0  0
    5.0669   -9.4526    0.0000 C   0  0  0  0  0  0  0  0  0  0  0  0
    5.0042   -8.8760    0.0000 C   0  0  0  0  0  0  0  0  0  0  0  0
    4.3005   -8.4455    0.0000 C   0  0  0  0  0  0  0  0  0  0  0  0
    4.3214   -7.6208    0.0000 C   0  0  0  0  0  0  0  0  0  0  0  0
    3.6177   -7.1902    0.0000 C   0  0  0  0  0  0  0  0  0  0  0  0
    3.6387   -6.3655    0.0000 C   0  0  0  0  0  0  0  0  0  0  0  0
    2.9349   -5.9350    0.0000 C   0  0  0  0  0  0  0  0  0  0  0  0
    2.9559   -5.1102    0.0000 C   0  0  0  0  0  0  0  0  0  0  0  0
    2.2521   -4.6797    0.0000 C   0  0  0  0  0  0  0  0  0  0  0  0
   12.1906   -9.3103    0.0000 Cl  0  0  0  0  0  0  0  0  0  0  0  0
  1  2  1  0  0  0  0
  2  3  1  0  0  0  0
  3  4  1  0  0  0  0
  4  5  1  0  0  0  0
  5  6  1  0  0  0  0
  6  7  1  0  0  0  0
  7  8  1  0  0  0  0
  8  9  1  0  0  0  0
  9 10  2  0  0  0  0
 10 11  1  0  0  0  0
 11 12  1  0  0  0  0
 12 13  1  0  0  0  0
 13 14  1  0  0  0  0
 14 15  1  0  0  0  0
 15 16  1  0  0  0  0
 16 17  1  0  0  0  0
 17 18  1  0  0  0  0
  1 19  1  0  0  0  0
M  END
>  <cdx:groupId>
30434

>  <cdx:fragmentId>
30381

$$$$
