5367706.cdx
  Mrv1902 05222410182D          

 15 15  0  0  0  0            999 V2000
    6.3567   -6.2752    0.0000 C   0  0  0  0  0  0  0  0  0  0  0  0
    5.6423   -6.6877    0.0000 C   0  0  0  0  0  0  0  0  0  0  0  0
    5.6423   -7.5127    0.0000 C   0  0  0  0  0  0  0  0  0  0  0  0
    4.9278   -7.9252    0.0000 C   0  0  0  0  0  0  0  0  0  0  0  0
    4.2133   -7.5127    0.0000 C   0  0  0  0  0  0  0  0  0  0  0  0
    4.2133   -6.6877    0.0000 C   0  0  0  0  0  0  0  0  0  0  0  0
    4.9278   -6.2752    0.0000 C   0  0  0  0  0  0  0  0  0  0  0  0
    6.3567   -5.4502    0.0000 O   0  0  0  0  0  0  0  0  0  0  0  0
    7.0712   -6.6877    0.0000 O   0  0  0  0  0  0  0  0  0  0  0  0
    7.7857   -6.2752    0.0000 C   0  0  0  0  0  0  0  0  0  0  0  0
    8.5001   -6.6877    0.0000 C   0  0  0  0  0  0  0  0  0  0  0  0
    9.2146   -6.2752    0.0000 C   0  0  0  0  0  0  0  0  0  0  0  0
    9.9291   -6.6877    0.0000 C   0  0  0  0  0  0  0  0  0  0  0  0
    9.9291   -7.5127    0.0000 C   0  0  0  0  0  0  0  0  0  0  0  0
   10.6436   -7.9252    0.0000 C   0  0  0  0  0  0  0  0  0  0  0  0
  1  2  1  0  0  0  0
  2  3  1  0  0  0  0
  3  4  2  0  0  0  0
  4  5  1  0  0  0  0
  5  6  2  0  0  0  0
  6  7  1  0  0  0  0
  2  7  2  0  0  0  0
  1  8  2  0  0  0  0
  1  9  1  0  0  0  0
 10 11  1  0  0  0  0
 11 12  1  0  0  0  0
 12 13  2  0  0  0  0
 13 14  1  0  0  0  0
 14 15  1  0  0  0  0
  9 10  1  0  0  0  0
M  END
>  <cdx:groupId>
47

>  <cdx:fragmentId>
5

$$$$
