5367745.cdx
  Mrv1902 05222410232D          

 10  9  0  0  0  0            999 V2000
   15.4688   -8.3574    0.0000 C   0  0  0  0  0  0  0  0  0  0  0  0
   14.7543   -8.7699    0.0000 C   0  0  0  0  0  0  0  0  0  0  0  0
   14.7543   -9.5949    0.0000 C   0  0  0  0  0  0  0  0  0  0  0  0
   14.0398   -8.3574    0.0000 C   0  0  0  0  0  0  0  0  0  0  0  0
   13.3253   -8.7699    0.0000 C   0  0  0  0  0  0  0  0  0  0  0  0
   15.4688   -7.5324    0.0000 O   0  0  0  0  0  0  0  0  0  0  0  0
   16.1832   -8.7699    0.0000 O   0  0  0  0  0  0  0  0  0  0  0  0
   16.8977   -8.3574    0.0000 C   0  0  0  0  0  0  0  0  0  0  0  0
   16.8977   -7.5324    0.0000 C   0  0  0  0  0  0  0  0  0  0  0  0
   17.6122   -8.7699    0.0000 C   0  0  0  0  0  0  0  0  0  0  0  0
  1  2  1  0  0  0  0
  2  3  1  0  0  0  0
  2  4  2  0  0  0  0
  4  5  1  0  0  0  0
  1  6  2  0  0  0  0
  1  7  1  0  0  0  0
  8  9  1  0  0  0  0
  8 10  1  0  0  0  0
  7  8  1  0  0  0  0
M  END
>  <cdx:groupId>
30320

>  <cdx:fragmentId>
30294

$$$$
