5367785.cdx
  Mrv1902 05222410242D          

 17 16  0  0  0  0            999 V2000
    5.2816   -6.4894    0.0000 C   0  0  0  0  0  0  0  0  0  0  0  0
    4.5671   -6.9019    0.0000 C   0  0  0  0  0  0  0  0  0  0  0  0
    3.8526   -6.4894    0.0000 C   0  0  0  0  0  0  0  0  0  0  0  0
    3.1382   -6.9019    0.0000 C   0  0  0  0  0  0  0  0  0  0  0  0
    5.2816   -5.6644    0.0000 O   0  0  0  0  0  0  0  0  0  0  0  0
    5.9961   -6.9019    0.0000 O   0  0  0  0  0  0  0  0  0  0  0  0
    4.5671   -7.7269    0.0000 C   0  0  0  0  0  0  0  0  0  0  0  0
    6.7105   -6.4894    0.0000 C   0  0  0  0  0  0  0  0  0  0  0  0
    7.4250   -6.9019    0.0000 C   0  0  0  0  0  0  0  0  0  0  0  0
    8.1395   -6.4894    0.0000 C   0  0  0  0  0  0  0  0  0  0  0  0
    8.8539   -6.9019    0.0000 C   0  0  0  0  0  0  0  0  0  0  0  0
    9.5684   -6.4894    0.0000 C   0  0  0  0  0  0  0  0  0  0  0  0
   10.2829   -6.9019    0.0000 C   0  0  0  0  0  0  0  0  0  0  0  0
   10.9974   -6.4894    0.0000 C   0  0  0  0  0  0  0  0  0  0  0  0
   10.9974   -5.6644    0.0000 C   0  0  0  0  0  0  0  0  0  0  0  0
   11.7118   -6.9019    0.0000 C   0  0  0  0  0  0  0  0  0  0  0  0
    8.1395   -5.6644    0.0000 C   0  0  0  0  0  0  0  0  0  0  0  0
  1  2  1  0  0  0  0
  2  3  2  0  0  0  0
  3  4  1  0  0  0  0
  1  5  2  0  0  0  0
  1  6  1  0  0  0  0
  2  7  1  0  0  0  0
  8  9  1  0  0  0  0
  9 10  2  0  0  0  0
 10 11  1  0  0  0  0
 11 12  1  0  0  0  0
 12 13  1  0  0  0  0
 13 14  2  0  0  0  0
 14 15  1  0  0  0  0
 14 16  1  0  0  0  0
 10 17  1  0  0  0  0
  6  8  1  0  0  0  0
M  END
>  <cdx:groupId>
52

>  <cdx:fragmentId>
19

$$$$
