367766.cdx
  Mrv1902 05222410212D          

 16 16  0  0  0  0            999 V2000
    5.0504   -7.5638    0.0000 C   0  0  0  0  0  0  0  0  0  0  0  0
    4.3360   -7.9763    0.0000 C   0  0  0  0  0  0  0  0  0  0  0  0
    3.6215   -7.5638    0.0000 C   0  0  0  0  0  0  0  0  0  0  0  0
    3.6215   -6.7388    0.0000 C   0  0  0  0  0  0  0  0  0  0  0  0
    4.3360   -6.3263    0.0000 C   0  0  0  0  0  0  0  0  0  0  0  0
    5.0504   -6.7388    0.0000 C   0  0  0  0  0  0  0  0  0  0  0  0
    5.7649   -6.3263    0.0000 C   0  0  0  0  0  0  0  0  0  0  0  0
    6.4794   -6.7388    0.0000 C   0  0  0  0  0  0  0  0  0  0  0  0
    7.1938   -6.3263    0.0000 C   0  0  0  0  0  0  0  0  0  0  0  0
    7.9083   -6.7388    0.0000 O   0  0  0  0  0  0  0  0  0  0  0  0
    8.6228   -5.5013    0.0000 O   0  0  0  0  0  0  0  0  0  0  0  0
   10.7662   -6.7388    0.0000 C   0  0  0  0  0  0  0  0  0  0  0  0
   10.0517   -6.3263    0.0000 C   0  0  0  0  0  0  0  0  0  0  0  0
    9.3372   -7.5638    0.0000 C   0  0  0  0  0  0  0  0  0  0  0  0
    9.3372   -6.7388    0.0000 C   0  0  0  0  0  0  0  0  0  0  0  0
    8.6228   -6.3263    0.0000 C   0  0  0  0  0  0  0  0  0  0  0  0
 10  9  1  0  0  0  0
  6  1  2  0  0  0  0
  2  1  1  0  0  0  0
  3  2  2  0  0  0  0
  4  3  1  0  0  0  0
  5  4  2  0  0  0  0
  6  5  1  0  0  0  0
  7  6  1  0  0  0  0
  8  7  2  0  0  0  0
  9  8  1  0  0  0  0
 16 10  1  0  0  0  0
 16 11  2  0  0  0  0
 13 12  1  0  0  0  0
 15 13  2  0  0  0  0
 15 14  1  0  0  0  0
 16 15  1  0  0  0  0
M  END
>  <cdx:fragmentId>
30341

$$$$
