5367881.cdx
  Mrv1902 05222410182D          

 24 28  0  0  0  0            999 V2000
   15.1287   -8.6759    0.0000 N   0  0  0  0  0  0  0  0  0  0  0  0
   14.4612   -9.1608    0.0000 C   0  0  0  0  0  0  0  0  0  0  0  0
   13.6542   -8.9893    0.0000 C   0  0  0  0  0  0  0  0  0  0  0  0
   13.1022   -9.6024    0.0000 C   0  0  0  0  0  0  0  0  0  0  0  0
   13.3572  -10.3870    0.0000 C   0  0  0  0  0  0  0  0  0  0  0  0
   14.1641  -10.5585    0.0000 C   0  0  0  0  0  0  0  0  0  0  0  0
   14.7162   -9.9454    0.0000 C   0  0  0  0  0  0  0  0  0  0  0  0
   15.5412   -9.9454    0.0000 C   0  0  0  0  0  0  0  0  0  0  0  0
   16.1774  -10.4707    0.0000 C   0  0  0  0  0  0  0  0  0  0  0  0
   16.9586  -10.2056    0.0000 C   0  0  0  0  0  0  0  0  0  0  0  0
   17.1407   -9.4009    0.0000 N   0  0  0  0  0  0  0  0  0  0  0  0
   17.5658   -8.1634    0.0000 C   0  0  0  0  0  0  0  0  0  0  0  0
   16.7824   -7.4309    0.0000 C   0  0  0  0  0  0  0  0  0  0  0  0
   15.9686   -7.5198    0.0000 C   0  0  0  0  0  0  0  0  0  0  0  0
   16.6360   -8.0047    0.0000 C   0  0  0  0  0  0  0  0  0  0  0  0
   16.5498   -8.8252    0.0000 C   0  0  0  0  0  0  0  0  0  0  0  0
   15.7961   -9.1608    0.0000 C   0  0  0  0  0  0  0  0  0  0  0  0
   15.2149   -7.8554    0.0000 C   0  0  0  0  0  0  0  0  0  0  0  0
   14.5475   -7.3705    0.0000 C   0  0  0  0  0  0  0  0  0  0  0  0
   14.6337   -6.5500    0.0000 O   0  0  0  0  0  0  0  0  0  0  0  0
   13.7938   -7.7060    0.0000 O   0  0  0  0  0  0  0  0  0  0  0  0
   17.0431   -6.6482    0.0000 C   0  0  0  0  0  0  0  0  0  0  0  0
   17.8513   -6.4826    0.0000 C   0  0  0  0  0  0  0  0  0  0  0  0
   13.1263   -7.2211    0.0000 C   0  0  0  0  0  0  0  0  0  0  0  0
  1  2  1  0  0  0  0
  2  3  2  0  0  0  0
  3  4  1  0  0  0  0
  4  5  2  0  0  0  0
  5  6  1  0  0  0  0
  6  7  2  0  0  0  0
  7  8  1  0  0  0  0
  8  9  1  0  0  0  0
  9 10  1  0  0  0  0
 10 11  1  0  0  0  0
 11 12  1  0  0  0  0
 12 13  1  0  0  0  0
 13 14  1  0  0  0  0
 14 15  1  0  0  0  0
 15 16  1  0  0  0  0
 16 17  1  0  0  0  0
  1 17  1  0  0  0  0
  1 18  1  0  0  0  0
 18 14  1  0  0  0  0
  8 17  2  0  0  0  0
 11 16  1  0  0  0  0
  2  7  1  0  0  0  0
 19 20  2  0  0  0  0
 19 21  1  0  0  0  0
 18 19  1  0  0  0  0
 22 23  1  0  0  0  0
 13 22  2  0  0  0  0
 21 24  1  0  0  0  0
M  END
>  <cdx:groupId>
30519

>  <cdx:fragmentId>
30446

$$$$
