5367917.cdx
  Mrv1902 05222410262D          

 12 11  0  0  0  0            999 V2000
   17.9694   -8.2428    0.0000 C   0  0  0  0  0  0  0  0  0  0  0  0
   17.2549   -8.6553    0.0000 C   0  0  0  0  0  0  0  0  0  0  0  0
   16.5405   -8.2428    0.0000 C   0  0  0  0  0  0  0  0  0  0  0  0
   15.8260   -8.6553    0.0000 C   0  0  0  0  0  0  0  0  0  0  0  0
   15.1115   -8.2428    0.0000 C   0  0  0  0  0  0  0  0  0  0  0  0
   14.3970   -8.6553    0.0000 C   0  0  0  0  0  0  0  0  0  0  0  0
   13.6826   -8.2428    0.0000 C   0  0  0  0  0  0  0  0  0  0  0  0
   12.9681   -8.6553    0.0000 C   0  0  0  0  0  0  0  0  0  0  0  0
   17.2549   -9.4803    0.0000 O   0  0  0  0  0  0  0  0  0  0  0  0
   13.6826   -7.4178    0.0000 O   0  0  0  0  0  0  0  0  0  0  0  0
   15.1115   -7.4178    0.0000 O   0  0  0  0  0  0  0  0  0  0  0  0
   15.8260   -9.4803    0.0000 O   0  0  0  0  0  0  0  0  0  0  0  0
  1  2  1  0  0  0  0
  2  3  1  0  0  0  0
  3  4  2  0  0  0  0
  4  5  1  0  0  0  0
  5  6  2  0  0  0  0
  6  7  1  0  0  0  0
  7  8  1  0  0  0  0
  2  9  2  0  0  0  0
  7 10  2  0  0  0  0
  5 11  1  0  0  0  0
  4 12  1  0  0  0  0
M  END
>  <cdx:groupId>
30562

>  <cdx:fragmentId>
30530

$$$$
