36808.cdx
  Mrv1902 05222410272D          

 33 36  0  0  0  0            999 V2000
    9.1368   -6.0521    0.0000 C   0  0  0  0  0  0  0  0  0  0  0  0
    8.8819   -6.8368    0.0000 C   0  0  0  0  0  0  0  0  0  0  0  0
    8.0749   -7.0083    0.0000 C   0  0  1  0  0  0  0  0  0  0  0  0
    7.5229   -6.3952    0.0000 C   0  0  0  0  0  0  0  0  0  0  0  0
    4.1775   -8.8729    0.0000 C   0  0  0  0  0  0  0  0  0  0  0  0
    3.4630   -9.2854    0.0000 C   0  0  0  0  0  0  0  0  0  0  0  0
    3.4630  -10.1104    0.0000 C   0  0  1  0  0  0  0  0  0  0  0  0
    4.1775  -10.5229    0.0000 C   0  0  0  0  0  0  0  0  0  0  0  0
    4.8919  -10.1104    0.0000 C   0  0  0  0  0  0  0  0  0  0  0  0
    5.6064  -10.5229    0.0000 C   0  0  0  0  0  0  0  0  0  0  0  0
    6.3209  -10.1104    0.0000 C   0  0  0  0  0  0  0  0  0  0  0  0
    6.3209   -9.2854    0.0000 C   0  0  1  0  0  0  0  0  0  0  0  0
    7.0353   -8.8729    0.0000 C   0  0  2  0  0  0  0  0  0  0  0  0
    7.8200   -9.1278    0.0000 C   0  0  0  0  0  0  0  0  0  0  0  0
    8.3049   -8.4604    0.0000 C   0  0  0  0  0  0  0  0  0  0  0  0
    7.8200   -7.7929    0.0000 C   0  0  1  0  0  0  0  0  0  0  0  0
    7.0353   -8.0479    0.0000 C   0  0  1  0  0  0  0  0  0  0  0  0
    6.3209   -7.6354    0.0000 C   0  0  0  0  0  0  0  0  0  0  0  0
    5.6064   -8.0479    0.0000 C   0  0  0  0  0  0  0  0  0  0  0  0
    5.6064   -8.8729    0.0000 C   0  0  2  0  0  0  0  0  0  0  0  0
    4.8919   -9.2854    0.0000 C   0  0  1  0  0  0  0  0  0  0  0  0
    7.0353   -7.2229    0.0000 C   0  0  0  0  0  0  0  0  0  0  0  0
    4.8919   -8.4604    0.0000 C   0  0  0  0  0  0  0  0  0  0  0  0
    2.7485  -10.5229    0.0000 O   0  0  0  0  0  0  0  0  0  0  0  0
    6.3209   -8.4604    0.0000 H   0  0  0  0  0  0  0  0  0  0  0  0
    5.6064   -9.6979    0.0000 H   0  0  0  0  0  0  0  0  0  0  0  0
    7.0353   -9.6979    0.0000 H   0  0  0  0  0  0  0  0  0  0  0  0
    8.6046   -7.5380    0.0000 H   0  0  0  0  0  0  0  0  0  0  0  0
    9.9438   -5.8806    0.0000 C   0  0  0  0  0  0  0  0  0  0  0  0
   10.1987   -5.0960    0.0000 C   0  0  0  0  0  0  0  0  0  0  0  0
   11.0057   -4.9245    0.0000 C   0  0  0  0  0  0  0  0  0  0  0  0
    9.6467   -4.4829    0.0000 C   0  0  0  0  0  0  0  0  0  0  0  0
   10.4958   -6.4937    0.0000 O   0  0  0  0  0  0  0  0  0  0  0  0
  1  2  1  0  0  0  0
  2  3  1  0  0  0  0
  3  4  1  6  0  0  0
  5  6  1  0  0  0  0
  6  7  1  0  0  0  0
  7  8  1  0  0  0  0
  8  9  1  0  0  0  0
  9 10  2  0  0  0  0
 10 11  1  0  0  0  0
 11 12  1  0  0  0  0
 12 13  1  0  0  0  0
 13 14  1  0  0  0  0
 14 15  1  0  0  0  0
 16 15  1  0  0  0  0
 16 17  1  0  0  0  0
 13 17  1  0  0  0  0
 17 18  1  0  0  0  0
 18 19  1  0  0  0  0
 19 20  1  0  0  0  0
 12 20  1  0  0  0  0
 20 21  1  0  0  0  0
  9 21  1  0  0  0  0
  5 21  1  0  0  0  0
 17 22  1  1  0  0  0
 21 23  1  1  0  0  0
  7 24  1  1  0  0  0
  3 16  1  0  0  0  0
 12 25  1  1  0  0  0
 20 26  1  6  0  0  0
 13 27  1  6  0  0  0
 16 28  1  6  0  0  0
  1 29  1  0  0  0  0
 29 30  1  0  0  0  0
 30 31  1  0  0  0  0
 30 32  1  0  0  0  0
 29 33  2  0  0  0  0
M  END
>  <cdx:fragmentId>
65537

$$$$
