5368199.cdx
  Mrv1902 05222410272D          

 15 14  0  0  0  0            999 V2000
   17.7010   -6.9448    0.0000 C   0  0  0  0  0  0  0  0  0  0  0  0
   16.9866   -7.3573    0.0000 C   0  0  0  0  0  0  0  0  0  0  0  0
   16.2721   -7.7698    0.0000 C   0  0  0  0  0  0  0  0  0  0  0  0
   16.2721   -8.5948    0.0000 C   0  0  0  0  0  0  0  0  0  0  0  0
   15.5576   -9.0073    0.0000 C   0  0  0  0  0  0  0  0  0  0  0  0
   14.8431   -8.5948    0.0000 C   0  0  0  0  0  0  0  0  0  0  0  0
   14.1287   -9.0073    0.0000 C   0  0  0  0  0  0  0  0  0  0  0  0
   13.4142   -8.5948    0.0000 C   0  0  0  0  0  0  0  0  0  0  0  0
   12.6997   -9.0073    0.0000 C   0  0  0  0  0  0  0  0  0  0  0  0
   11.9853   -8.5948    0.0000 O   0  0  0  0  0  0  0  0  0  0  0  0
   16.9866   -9.0073    0.0000 C   0  0  0  0  0  0  0  0  0  0  0  0
   16.9866   -9.8323    0.0000 O   0  0  0  0  0  0  0  0  0  0  0  0
   17.7010   -8.5948    0.0000 O   0  0  0  0  0  0  0  0  0  0  0  0
   18.4155   -9.0073    0.0000 C   0  0  0  0  0  0  0  0  0  0  0  0
   19.1300   -8.5948    0.0000 C   0  0  0  0  0  0  0  0  0  0  0  0
  1  2  3  0  0  0  0
  2  3  1  0  0  0  0
  3  4  1  0  0  0  0
  4  5  1  0  0  0  0
  5  6  2  0  0  0  0
  6  7  1  0  0  0  0
  7  8  1  0  0  0  0
  8  9  1  0  0  0  0
  9 10  2  0  0  0  0
 11 12  2  0  0  0  0
 14 15  1  0  0  0  0
 13 14  1  0  0  0  0
 11 13  1  0  0  0  0
  4 11  1  0  0  0  0
M  END
>  <cdx:groupId>
30611

>  <cdx:fragmentId>
30570

$$$$
