5368226.cdx
  Mrv1902 05222410182D          

 19 20  0  0  0  0            999 V2000
   18.6372   -7.7269    0.0000 O   0  0  0  0  0  0  0  0  0  0  0  0
   19.0497   -8.4413    0.0000 C   0  0  0  0  0  0  0  0  0  0  0  0
   18.2247   -8.4413    0.0000 C   0  0  0  0  0  0  0  0  0  0  0  0
   19.8747   -8.4413    0.0000 C   0  0  0  0  0  0  0  0  0  0  0  0
   19.4622   -9.1558    0.0000 C   0  0  0  0  0  0  0  0  0  0  0  0
   17.5102   -8.8538    0.0000 C   0  0  0  0  0  0  0  0  0  0  0  0
   16.7958   -8.4413    0.0000 C   0  0  0  0  0  0  0  0  0  0  0  0
   16.0813   -8.8538    0.0000 C   0  0  0  0  0  0  0  0  0  0  0  0
   15.3668   -8.4413    0.0000 C   0  0  0  0  0  0  0  0  0  0  0  0
   14.6523   -8.8538    0.0000 C   0  0  0  0  0  0  0  0  0  0  0  0
   16.0813   -9.6788    0.0000 C   0  0  0  0  0  0  0  0  0  0  0  0
   13.9379   -8.4413    0.0000 O   0  0  0  0  0  0  0  0  0  0  0  0
   13.2234   -8.8538    0.0000 C   0  0  0  0  0  0  0  0  0  0  0  0
   12.5089   -8.4413    0.0000 C   0  0  0  0  0  0  0  0  0  0  0  0
   11.7945   -8.8538    0.0000 C   0  0  0  0  0  0  0  0  0  0  0  0
   11.0800   -8.4413    0.0000 C   0  0  0  0  0  0  0  0  0  0  0  0
   11.0800   -7.6163    0.0000 C   0  0  0  0  0  0  0  0  0  0  0  0
   11.7945   -7.2038    0.0000 C   0  0  0  0  0  0  0  0  0  0  0  0
   12.5089   -7.6163    0.0000 C   0  0  0  0  0  0  0  0  0  0  0  0
  1  2  1  0  0  0  0
  2  3  1  0  0  0  0
  1  3  1  0  0  0  0
  2  4  1  0  0  0  0
  2  5  1  0  0  0  0
  6  7  1  0  0  0  0
  7  8  1  0  0  0  0
  8  9  2  0  0  0  0
  9 10  1  0  0  0  0
  8 11  1  0  0  0  0
 13 14  1  0  0  0  0
 14 15  1  0  0  0  0
 15 16  2  0  0  0  0
 16 17  1  0  0  0  0
 17 18  2  0  0  0  0
 18 19  1  0  0  0  0
 14 19  2  0  0  0  0
 12 13  1  0  0  0  0
 10 12  1  0  0  0  0
  3  6  1  0  0  0  0
M  END
>  <cdx:groupId>
30674

>  <cdx:fragmentId>
30643

$$$$
