5368360.cdx
  Mrv1902 05222410272D          

  7  7  0  0  0  0            999 V2000
   13.8981   -7.9790    0.0000 C   0  0  0  0  0  0  0  0  0  0  0  0
   14.6950   -7.7655    0.0000 C   0  0  0  0  0  0  0  0  0  0  0  0
   14.9085   -8.5624    0.0000 C   0  0  0  0  0  0  0  0  0  0  0  0
   14.1116   -8.7759    0.0000 C   0  0  0  0  0  0  0  0  0  0  0  0
   15.6230   -8.9749    0.0000 C   0  0  0  0  0  0  0  0  0  0  0  0
   16.3374   -8.5624    0.0000 C   0  0  0  0  0  0  0  0  0  0  0  0
   17.0519   -8.9749    0.0000 C   0  0  0  0  0  0  0  0  0  0  0  0
  1  2  2  0  0  0  0
  2  3  1  0  0  0  0
  3  4  1  0  0  0  0
  1  4  1  0  0  0  0
  5  6  1  0  0  0  0
  6  7  2  0  0  0  0
  3  5  2  0  0  0  0
M  END
>  <cdx:groupId>
30698

>  <cdx:fragmentId>
30680

$$$$
