5368396.cdx
  Mrv1902 05222410192D          

 42 43  0  0  0  0            999 V2000
    7.2523  -21.6754    0.0000 C   0  0  0  0  0  0  0  0  0  0  0  0
    7.2523  -20.8504    0.0000 C   0  0  0  0  0  0  0  0  0  0  0  0
    7.9668  -20.4379    0.0000 C   0  0  0  0  0  0  0  0  0  0  0  0
    8.6813  -20.8504    0.0000 C   0  0  0  0  0  0  0  0  0  0  0  0
    8.6813  -21.6754    0.0000 C   0  0  0  0  0  0  0  0  0  0  0  0
    7.9668  -22.0879    0.0000 C   0  0  0  0  0  0  0  0  0  0  0  0
    6.5379  -22.0879    0.0000 O   0  0  0  0  0  0  0  0  0  0  0  0
    9.5063  -21.6754    0.0000 C   0  0  0  0  0  0  0  0  0  0  0  0
    9.0938  -22.3898    0.0000 C   0  0  0  0  0  0  0  0  0  0  0  0
    7.9668  -19.6129    0.0000 C   0  0  0  0  0  0  0  0  0  0  0  0
    9.3958  -20.4379    0.0000 C   0  0  0  0  0  0  0  0  0  0  0  0
   10.1102  -20.8504    0.0000 C   0  0  0  0  0  0  0  0  0  0  0  0
   10.8247  -20.4379    0.0000 C   0  0  0  0  0  0  0  0  0  0  0  0
   11.5392  -20.8504    0.0000 C   0  0  0  0  0  0  0  0  0  0  0  0
   12.2536  -20.4379    0.0000 C   0  0  0  0  0  0  0  0  0  0  0  0
   12.9681  -20.8504    0.0000 C   0  0  0  0  0  0  0  0  0  0  0  0
   13.6826  -20.4379    0.0000 C   0  0  0  0  0  0  0  0  0  0  0  0
   14.3970  -20.8504    0.0000 C   0  0  0  0  0  0  0  0  0  0  0  0
   15.1115  -20.4379    0.0000 C   0  0  0  0  0  0  0  0  0  0  0  0
   15.8260  -20.8504    0.0000 C   0  0  0  0  0  0  0  0  0  0  0  0
   16.5405  -20.4379    0.0000 C   0  0  0  0  0  0  0  0  0  0  0  0
   17.2549  -20.8504    0.0000 C   0  0  0  0  0  0  0  0  0  0  0  0
   17.9694  -20.4379    0.0000 C   0  0  0  0  0  0  0  0  0  0  0  0
   18.6839  -20.8504    0.0000 C   0  0  0  0  0  0  0  0  0  0  0  0
   19.3983  -20.4379    0.0000 C   0  0  0  0  0  0  0  0  0  0  0  0
   20.1128  -20.8504    0.0000 C   0  0  0  0  0  0  0  0  0  0  0  0
   20.8273  -20.4379    0.0000 C   0  0  0  0  0  0  0  0  0  0  0  0
   21.5418  -20.8504    0.0000 C   0  0  0  0  0  0  0  0  0  0  0  0
   20.1128  -21.6754    0.0000 C   0  0  0  0  0  0  0  0  0  0  0  0
   17.2549  -21.6754    0.0000 C   0  0  0  0  0  0  0  0  0  0  0  0
   13.6826  -19.6129    0.0000 C   0  0  0  0  0  0  0  0  0  0  0  0
   10.8247  -19.6129    0.0000 C   0  0  0  0  0  0  0  0  0  0  0  0
   22.2562  -20.4379    0.0000 C   0  0  0  0  0  0  0  0  0  0  0  0
   22.9707  -20.8504    0.0000 C   0  0  0  0  0  0  0  0  0  0  0  0
   23.6852  -20.4379    0.0000 C   0  0  0  0  0  0  0  0  0  0  0  0
   23.6852  -19.6129    0.0000 C   0  0  0  0  0  0  0  0  0  0  0  0
   22.9707  -19.2004    0.0000 C   0  0  0  0  0  0  0  0  0  0  0  0
   22.2562  -19.6129    0.0000 C   0  0  0  0  0  0  0  0  0  0  0  0
   21.4312  -19.6129    0.0000 C   0  0  0  0  0  0  0  0  0  0  0  0
   21.8437  -18.8984    0.0000 C   0  0  0  0  0  0  0  0  0  0  0  0
   22.9707  -21.6754    0.0000 C   0  0  0  0  0  0  0  0  0  0  0  0
   24.3996  -19.2004    0.0000 O   0  0  0  0  0  0  0  0  0  0  0  0
  1  2  1  0  0  0  0
  2  3  1  0  0  0  0
  3  4  2  0  0  0  0
  4  5  1  0  0  0  0
  5  6  1  0  0  0  0
  1  6  1  0  0  0  0
  1  7  1  0  0  0  0
  5  8  1  0  0  0  0
  5  9  1  0  0  0  0
  3 10  1  0  0  0  0
 11 12  2  0  0  0  0
 12 13  1  0  0  0  0
 13 14  2  0  0  0  0
 14 15  1  0  0  0  0
 15 16  2  0  0  0  0
 16 17  1  0  0  0  0
 17 18  2  0  0  0  0
 18 19  1  0  0  0  0
 19 20  2  0  0  0  0
 20 21  1  0  0  0  0
 21 22  2  0  0  0  0
 22 23  1  0  0  0  0
 23 24  2  0  0  0  0
 24 25  1  0  0  0  0
 25 26  2  0  0  0  0
 26 27  1  0  0  0  0
 27 28  2  0  0  0  0
 26 29  1  0  0  0  0
 22 30  1  0  0  0  0
 17 31  1  0  0  0  0
 13 32  1  0  0  0  0
 33 34  1  0  0  0  0
 34 35  2  0  0  0  0
 35 36  1  0  0  0  0
 36 37  1  0  0  0  0
 37 38  1  0  0  0  0
 33 38  1  0  0  0  0
 38 39  1  0  0  0  0
 38 40  1  0  0  0  0
 34 41  1  0  0  0  0
 36 42  1  0  0  0  0
 28 33  1  0  0  0  0
  4 11  1  0  0  0  0
M  END
>  <cdx:groupId>
1628

>  <cdx:fragmentId>
1524

$$$$
