5368398.cdx
  Mrv1902 05222410262D          

 11 12  0  0  0  0            999 V2000
   14.7914   -7.7524    0.0000 C   0  0  0  0  0  0  0  0  0  0  0  0
   14.0770   -7.3399    0.0000 C   0  0  0  0  0  0  0  0  0  0  0  0
   13.3625   -7.7524    0.0000 C   0  0  0  0  0  0  0  0  0  0  0  0
   13.3625   -8.5774    0.0000 C   0  0  0  0  0  0  0  0  0  0  0  0
   14.0770   -8.9899    0.0000 C   0  0  0  0  0  0  0  0  0  0  0  0
   14.7914   -8.5774    0.0000 C   0  0  0  0  0  0  0  0  0  0  0  0
   15.6164   -8.5774    0.0000 C   0  0  0  0  0  0  0  0  0  0  0  0
   15.6164   -7.7524    0.0000 C   0  0  0  0  0  0  0  0  0  0  0  0
   16.1998   -9.1608    0.0000 C   0  0  0  0  0  0  0  0  0  0  0  0
   16.9967   -8.9473    0.0000 C   0  0  0  0  0  0  0  0  0  0  0  0
   17.5801   -9.5306    0.0000 C   0  0  0  0  0  0  0  0  0  0  0  0
  1  2  2  0  0  0  0
  2  3  1  0  0  0  0
  3  4  1  0  0  0  0
  4  5  1  0  0  0  0
  5  6  1  0  0  0  0
  6  7  1  0  0  0  0
  7  8  1  0  0  0  0
  1  8  1  0  0  0  0
  1  6  1  0  0  0  0
  9 10  2  0  0  0  0
 10 11  1  0  0  0  0
  7  9  1  0  0  0  0
M  END
>  <cdx:groupId>
30736

>  <cdx:fragmentId>
30705

$$$$
