5368460.cdx
  Mrv1902 05222410242D          

 11 10  0  0  0  0            999 V2000
    8.8161   -7.0515    0.0000 C   0  0  0  0  0  0  0  0  0  0  0  0
    8.1017   -6.6390    0.0000 C   0  0  0  0  0  0  0  0  0  0  0  0
    7.3872   -7.0515    0.0000 C   0  0  0  0  0  0  0  0  0  0  0  0
    6.6727   -6.6390    0.0000 C   0  0  0  0  0  0  0  0  0  0  0  0
    5.9582   -7.0515    0.0000 C   0  0  0  0  0  0  0  0  0  0  0  0
    5.2438   -6.6390    0.0000 C   0  0  0  0  0  0  0  0  0  0  0  0
    9.5306   -6.6390    0.0000 O   0  0  0  0  0  0  0  0  0  0  0  0
    8.8161   -5.4015    0.0000 C   0  0  0  0  0  0  0  0  0  0  0  0
    8.1017   -5.8140    0.0000 C   0  0  0  0  0  0  0  0  0  0  0  0
    7.3872   -5.4015    0.0000 C   0  0  0  0  0  0  0  0  0  0  0  0
    7.3872   -7.8765    0.0000 C   0  0  0  0  0  0  0  0  0  0  0  0
  1  2  1  0  0  0  0
  2  3  1  0  0  0  0
  3  4  2  0  0  0  0
  4  5  1  0  0  0  0
  5  6  2  0  0  0  0
  1  7  2  0  0  0  0
  8  9  1  0  0  0  0
  9 10  1  0  0  0  0
  2  9  2  0  0  0  0
  3 11  1  0  0  0  0
M  END
>  <cdx:groupId>
34

>  <cdx:fragmentId>
5

$$$$
