368592.cdx
  Mrv1902 05222410202D          

 14 14  0  0  0  0            999 V2000
    7.2486   -6.9979    0.0000 O   0  0  0  0  0  0  0  0  0  0  0  0
    7.6611   -6.2834    0.0000 C   0  0  0  0  0  0  0  0  0  0  0  0
    6.8361   -6.2834    0.0000 C   0  0  0  0  0  0  0  0  0  0  0  0
    6.1216   -5.8709    0.0000 C   0  0  0  0  0  0  0  0  0  0  0  0
    5.4071   -6.2834    0.0000 C   0  0  0  0  0  0  0  0  0  0  0  0
    5.4071   -7.1084    0.0000 C   0  0  0  0  0  0  0  0  0  0  0  0
    5.4071   -7.9334    0.0000 C   0  0  0  0  0  0  0  0  0  0  0  0
    5.4071   -8.7584    0.0000 C   0  0  0  0  0  0  0  0  0  0  0  0
    5.4071   -9.5834    0.0000 C   0  0  0  0  0  0  0  0  0  0  0  0
    5.4071  -10.4084    0.0000 C   0  0  0  0  0  0  0  0  0  0  0  0
    5.4071  -11.2334    0.0000 C   0  0  0  0  0  0  0  0  0  0  0  0
    5.4071  -12.0584    0.0000 C   0  0  0  0  0  0  0  0  0  0  0  0
    8.3756   -5.8709    0.0000 C   0  0  0  0  0  0  0  0  0  0  0  0
    9.0900   -6.2834    0.0000 C   0  0  0  0  0  0  0  0  0  0  0  0
  1  2  1  0  0  0  0
  2  3  1  0  0  0  0
  1  3  1  0  0  0  0
  4  5  2  0  0  0  0
  5  6  1  0  0  0  0
  6  7  3  0  0  0  0
  7  8  1  0  0  0  0
  8  9  3  0  0  0  0
  9 10  1  0  0  0  0
 10 11  3  0  0  0  0
 11 12  1  0  0  0  0
  3  4  1  0  0  0  0
 13 14  2  0  0  0  0
  2 13  1  0  0  0  0
M  END
>  <cdx:fragmentId>
11

$$$$
