368743.cdx
  Mrv1902 05222410182D          

 16 17  0  0  0  0            999 V2000
   13.6396   -7.9449    0.0000 C   0  0  0  0  0  0  0  0  0  0  0  0
   13.6396   -8.7699    0.0000 C   0  0  0  0  0  0  0  0  0  0  0  0
   14.3541   -9.1824    0.0000 C   0  0  0  0  0  0  0  0  0  0  0  0
   15.0686   -8.7699    0.0000 C   0  0  0  0  0  0  0  0  0  0  0  0
   15.7830   -9.1824    0.0000 C   0  0  0  0  0  0  0  0  0  0  0  0
   12.9252   -7.5324    0.0000 O   0  0  0  0  0  0  0  0  0  0  0  0
   12.9252   -9.1824    0.0000 C   0  0  0  0  0  0  0  0  0  0  0  0
   17.2120   -9.1824    0.0000 C   0  0  0  0  0  0  0  0  0  0  0  0
   17.9265   -8.7699    0.0000 C   0  0  0  0  0  0  0  0  0  0  0  0
   17.9265   -7.9449    0.0000 C   0  0  0  0  0  0  0  0  0  0  0  0
   17.2120   -7.5324    0.0000 C   0  0  0  0  0  0  0  0  0  0  0  0
   16.4975   -7.9449    0.0000 C   0  0  0  0  0  0  0  0  0  0  0  0
   16.4975   -8.7699    0.0000 C   0  0  0  0  0  0  0  0  0  0  0  0
   17.0294   -8.4630    0.0000 C   0  0  0  0  0  0  0  0  0  0  0  0
   16.4975   -9.5949    0.0000 C   0  0  0  0  0  0  0  0  0  0  0  0
   18.6409   -9.1824    0.0000 C   0  0  0  0  0  0  0  0  0  0  0  0
  1  2  1  0  0  0  0
  2  3  2  0  0  0  0
  3  4  1  0  0  0  0
  4  5  1  0  0  0  0
  1  6  1  0  0  0  0
  2  7  1  0  0  0  0
  8  9  1  0  0  0  0
  9 10  2  0  0  0  0
 10 11  1  0  0  0  0
 11 12  1  0  0  0  0
 12 13  1  0  0  0  0
  8 13  1  0  0  0  0
  8 14  1  0  0  0  0
 14 12  1  0  0  0  0
 13 15  1  0  0  0  0
  9 16  1  0  0  0  0
  5 13  1  0  0  0  0
M  END
>  <cdx:fragmentId>
30789

$$$$
