5368759.cdx
  Mrv1902 05222410272D          

 25 25  0  0  0  0            999 V2000
   12.2107   -9.7705    0.0000 C   0  0  0  0  0  0  0  0  0  0  0  0
   12.9252  -10.1830    0.0000 C   0  0  0  0  0  0  0  0  0  0  0  0
   13.6396   -9.7705    0.0000 C   0  0  0  0  0  0  0  0  0  0  0  0
   14.3541  -10.1830    0.0000 C   0  0  0  0  0  0  0  0  0  0  0  0
   15.0686   -9.7705    0.0000 C   0  0  0  0  0  0  0  0  0  0  0  0
   15.7830  -10.1830    0.0000 C   0  0  0  0  0  0  0  0  0  0  0  0
   16.4975   -9.7705    0.0000 C   0  0  0  0  0  0  0  0  0  0  0  0
   17.2120  -10.1830    0.0000 C   0  0  0  0  0  0  0  0  0  0  0  0
   17.9265   -9.7705    0.0000 C   0  0  0  0  0  0  0  0  0  0  0  0
   18.6409  -10.1830    0.0000 C   0  0  0  0  0  0  0  0  0  0  0  0
   19.3554   -9.7705    0.0000 C   0  0  0  0  0  0  0  0  0  0  0  0
   19.3554   -8.9455    0.0000 C   0  0  0  0  0  0  0  0  0  0  0  0
   11.4962  -10.1830    0.0000 O   0  0  0  0  0  0  0  0  0  0  0  0
   17.9265   -8.9455    0.0000 S   0  0  0  0  0  0  0  0  0  0  0  0
   18.7515   -8.9455    0.0000 O   0  0  0  0  0  0  0  0  0  0  0  0
   17.1015   -8.9455    0.0000 O   0  0  0  0  0  0  0  0  0  0  0  0
   17.9265   -8.1205    0.0000 C   0  0  0  0  0  0  0  0  0  0  0  0
   17.2120   -7.7080    0.0000 C   0  0  0  0  0  0  0  0  0  0  0  0
   17.2120   -6.8830    0.0000 C   0  0  0  0  0  0  0  0  0  0  0  0
   17.9265   -6.4705    0.0000 C   0  0  0  0  0  0  0  0  0  0  0  0
   18.6409   -6.8830    0.0000 C   0  0  0  0  0  0  0  0  0  0  0  0
   18.6409   -7.7080    0.0000 C   0  0  0  0  0  0  0  0  0  0  0  0
   20.0699  -10.1830    0.0000 C   0  0  0  0  0  0  0  0  0  0  0  0
   16.4975   -8.9455    0.0000 C   0  0  0  0  0  0  0  0  0  0  0  0
   13.6396   -8.9455    0.0000 C   0  0  0  0  0  0  0  0  0  0  0  0
  1  2  1  0  0  0  0
  2  3  2  0  0  0  0
  3  4  1  0  0  0  0
  4  5  1  0  0  0  0
  5  6  1  0  0  0  0
  6  7  2  0  0  0  0
  7  8  1  0  0  0  0
  8  9  1  0  0  0  0
  9 10  1  0  0  0  0
 10 11  2  0  0  0  0
 11 12  1  0  0  0  0
  1 13  1  0  0  0  0
 14 15  2  0  0  0  0
 14 16  2  0  0  0  0
 17 18  1  0  0  0  0
 18 19  2  0  0  0  0
 19 20  1  0  0  0  0
 20 21  2  0  0  0  0
 21 22  1  0  0  0  0
 17 22  2  0  0  0  0
 14 17  1  0  0  0  0
  9 14  1  0  0  0  0
 11 23  1  0  0  0  0
  7 24  1  0  0  0  0
  3 25  1  0  0  0  0
M  END
>  <cdx:groupId>
30903

>  <cdx:fragmentId>
30831

$$$$
