5368777.cdx
  Mrv1902 05222410262D          

 10  9  0  0  0  0            999 V2000
   16.9163   -7.7731    0.0000 C   0  0  0  0  0  0  0  0  0  0  0  0
   16.9163   -8.5981    0.0000 C   0  0  0  0  0  0  0  0  0  0  0  0
   16.2018   -9.0106    0.0000 C   0  0  0  0  0  0  0  0  0  0  0  0
   15.4873   -8.5981    0.0000 C   0  0  0  0  0  0  0  0  0  0  0  0
   14.7728   -9.0106    0.0000 C   0  0  0  0  0  0  0  0  0  0  0  0
   14.0584   -8.5981    0.0000 C   0  0  0  0  0  0  0  0  0  0  0  0
   13.3439   -9.0106    0.0000 C   0  0  0  0  0  0  0  0  0  0  0  0
   14.0584   -7.7731    0.0000 C   0  0  0  0  0  0  0  0  0  0  0  0
   15.4873   -7.7731    0.0000 C   0  0  0  0  0  0  0  0  0  0  0  0
   17.6307   -9.0106    0.0000 C   0  0  0  0  0  0  0  0  0  0  0  0
  1  2  2  0  0  0  0
  2  3  1  0  0  0  0
  3  4  2  0  0  0  0
  4  5  1  0  0  0  0
  5  6  1  0  0  0  0
  6  7  2  0  0  0  0
  6  8  1  0  0  0  0
  4  9  1  0  0  0  0
  2 10  1  0  0  0  0
M  END
>  <cdx:groupId>
30941

>  <cdx:fragmentId>
30915

$$$$
