5368943.cdx
  Mrv1902 05222410272D          

 13 12  0  0  0  0            999 V2000
   18.6839   -7.7982    0.0000 C   0  0  0  0  0  0  0  0  0  0  0  0
   18.6839   -8.6232    0.0000 C   0  0  0  0  0  0  0  0  0  0  0  0
   17.9694   -9.0357    0.0000 C   0  0  0  0  0  0  0  0  0  0  0  0
   17.2549   -8.6232    0.0000 C   0  0  0  0  0  0  0  0  0  0  0  0
   16.5405   -9.0357    0.0000 C   0  0  0  0  0  0  0  0  0  0  0  0
   15.8260   -8.6232    0.0000 C   0  0  0  0  0  0  0  0  0  0  0  0
   15.1115   -9.0357    0.0000 C   0  0  0  0  0  0  0  0  0  0  0  0
   14.3970   -8.6232    0.0000 C   0  0  0  0  0  0  0  0  0  0  0  0
   13.6826   -9.0357    0.0000 C   0  0  0  0  0  0  0  0  0  0  0  0
   12.9681   -8.6232    0.0000 C   0  0  0  0  0  0  0  0  0  0  0  0
   12.2536   -9.0357    0.0000 C   0  0  0  0  0  0  0  0  0  0  0  0
   11.5392   -8.6232    0.0000 C   0  0  0  0  0  0  0  0  0  0  0  0
   19.3983   -9.0357    0.0000 C   0  0  0  0  0  0  0  0  0  0  0  0
  1  2  1  0  0  0  0
  2  3  1  0  0  0  0
  3  4  2  0  0  0  0
  4  5  1  0  0  0  0
  5  6  2  0  0  0  0
  6  7  1  0  0  0  0
  7  8  1  0  0  0  0
  8  9  1  0  0  0  0
  9 10  1  0  0  0  0
 10 11  1  0  0  0  0
 11 12  1  0  0  0  0
  2 13  1  0  0  0  0
M  END
>  <cdx:groupId>
31120

>  <cdx:fragmentId>
31085

$$$$
