369.cdx
  Mrv1902 05222410242D          

 33 36  0  0  0  0            999 V2000
    4.9401   -9.4596    0.0000 C   0  0  0  0  0  0  0  0  0  0  0  0
    4.2256   -9.8721    0.0000 C   0  0  0  0  0  0  0  0  0  0  0  0
    4.2256  -10.6971    0.0000 C   0  0  1  0  0  0  0  0  0  0  0  0
    4.9401  -11.1096    0.0000 C   0  0  0  0  0  0  0  0  0  0  0  0
    5.6546  -10.6971    0.0000 C   0  0  0  0  0  0  0  0  0  0  0  0
    6.3690  -11.1096    0.0000 C   0  0  0  0  0  0  0  0  0  0  0  0
    7.0835  -10.6971    0.0000 C   0  0  0  0  0  0  0  0  0  0  0  0
    7.0835   -9.8721    0.0000 C   0  0  1  0  0  0  0  0  0  0  0  0
    7.7980   -9.4596    0.0000 C   0  0  2  0  0  0  0  0  0  0  0  0
    8.5826   -9.7145    0.0000 C   0  0  0  0  0  0  0  0  0  0  0  0
    9.0675   -9.0471    0.0000 C   0  0  0  0  0  0  0  0  0  0  0  0
    8.5826   -8.3796    0.0000 C   0  0  1  0  0  0  0  0  0  0  0  0
    7.7980   -8.6346    0.0000 C   0  0  1  0  0  0  0  0  0  0  0  0
    7.0835   -8.2221    0.0000 C   0  0  0  0  0  0  0  0  0  0  0  0
    6.3690   -8.6346    0.0000 C   0  0  0  0  0  0  0  0  0  0  0  0
    6.3690   -9.4596    0.0000 C   0  0  2  0  0  0  0  0  0  0  0  0
    5.6546   -9.8721    0.0000 C   0  0  1  0  0  0  0  0  0  0  0  0
    3.5112  -11.1096    0.0000 O   0  0  0  0  0  0  0  0  0  0  0  0
    7.7980  -11.1096    0.0000 O   0  0  0  0  0  0  0  0  0  0  0  0
    8.2855   -6.9819    0.0000 C   0  0  0  0  0  0  0  0  0  0  0  0
    8.8375   -7.5950    0.0000 C   0  0  2  0  0  0  0  0  0  0  0  0
    9.6445   -7.4235    0.0000 C   0  0  0  0  0  0  0  0  0  0  0  0
    9.8995   -6.6389    0.0000 C   0  0  0  0  0  0  0  0  0  0  0  0
   10.7064   -6.4673    0.0000 C   0  0  0  0  0  0  0  0  0  0  0  0
   10.9614   -5.6827    0.0000 C   0  0  0  0  0  0  0  0  0  0  0  0
   10.4093   -5.0696    0.0000 C   0  0  0  0  0  0  0  0  0  0  0  0
   11.7683   -5.5112    0.0000 C   0  0  0  0  0  0  0  0  0  0  0  0
    7.7980   -7.8096    0.0000 C   0  0  0  0  0  0  0  0  0  0  0  0
    5.6546   -9.0471    0.0000 C   0  0  0  0  0  0  0  0  0  0  0  0
    7.0835   -9.0471    0.0000 H   0  0  0  0  0  0  0  0  0  0  0  0
    6.3690  -10.2846    0.0000 H   0  0  0  0  0  0  0  0  0  0  0  0
    7.7980  -10.2846    0.0000 H   0  0  0  0  0  0  0  0  0  0  0  0
    9.4076   -8.3796    0.0000 H   0  0  0  0  0  0  0  0  0  0  0  0
  1  2  1  0  0  0  0
  2  3  1  0  0  0  0
  3  4  1  0  0  0  0
  4  5  1  0  0  0  0
  5  6  2  0  0  0  0
  6  7  1  0  0  0  0
  7  8  1  0  0  0  0
  8  9  1  0  0  0  0
  9 10  1  0  0  0  0
 10 11  1  0  0  0  0
 12 11  1  0  0  0  0
 12 13  1  0  0  0  0
  9 13  1  0  0  0  0
 13 14  1  0  0  0  0
 14 15  1  0  0  0  0
 15 16  1  0  0  0  0
  8 16  1  0  0  0  0
 16 17  1  0  0  0  0
  5 17  1  0  0  0  0
  1 17  1  0  0  0  0
  3 18  1  1  0  0  0
  7 19  2  0  0  0  0
 21 20  1  6  0  0  0
 21 22  1  0  0  0  0
 22 23  1  0  0  0  0
 23 24  1  0  0  0  0
 24 25  1  0  0  0  0
 25 26  1  0  0  0  0
 25 27  1  0  0  0  0
 12 21  1  0  0  0  0
 13 28  1  1  0  0  0
 17 29  1  1  0  0  0
  8 30  1  1  0  0  0
 16 31  1  6  0  0  0
  9 32  1  6  0  0  0
 12 33  1  6  0  0  0
M  END
>  <cdx:groupId>
143203

>  <cdx:fragmentId>
143107

$$$$
