5369061.cdx
  Mrv1902 05222410202D          

  9  8  0  0  0  0            999 V2000
    9.9256   -6.8531    0.0000 C   0  0  0  0  0  0  0  0  0  0  0  0
    9.2112   -7.2656    0.0000 C   0  0  0  0  0  0  0  0  0  0  0  0
    8.4967   -6.8531    0.0000 C   0  0  0  0  0  0  0  0  0  0  0  0
    7.7822   -7.2656    0.0000 C   0  0  0  0  0  0  0  0  0  0  0  0
    7.0678   -6.8531    0.0000 C   0  0  0  0  0  0  0  0  0  0  0  0
    6.3533   -7.2656    0.0000 C   0  0  0  0  0  0  0  0  0  0  0  0
    5.6388   -6.8531    0.0000 C   0  0  0  0  0  0  0  0  0  0  0  0
    4.9244   -7.2656    0.0000 C   0  0  0  0  0  0  0  0  0  0  0  0
    8.4967   -6.0281    0.0000 O   0  0  0  0  0  0  0  0  0  0  0  0
  1  2  1  0  0  0  0
  2  3  1  0  0  0  0
  3  4  1  0  0  0  0
  4  5  2  0  0  0  0
  5  6  1  0  0  0  0
  6  7  1  0  0  0  0
  7  8  1  0  0  0  0
  3  9  2  0  0  0  0
M  END
>  <cdx:groupId>
28

>  <cdx:fragmentId>
5

$$$$
