3693.cdx
  Mrv1902 05222410192D          

 40 46  0  0  0  0            999 V2000
    5.4910   -7.4960    0.0000 C   0  0  1  0  0  0  0  0  0  0  0  0
    4.7812   -7.9164    0.0000 C   0  0  0  0  0  0  0  0  0  0  0  0
    4.0622   -7.5119    0.0000 C   0  0  2  0  0  0  0  0  0  0  0  0
    4.0530   -6.6870    0.0000 C   0  0  0  0  0  0  0  0  0  0  0  0
    4.7628   -6.2666    0.0000 C   0  0  0  0  0  0  0  0  0  0  0  0
    5.4818   -6.6711    0.0000 C   0  0  1  0  0  0  0  0  0  0  0  0
    3.3524   -7.9324    0.0000 H   0  0  0  0  0  0  0  0  0  0  0  0
    5.2016   -8.6263    0.0000 C   0  0  0  0  0  0  0  0  0  0  0  0
    4.3767   -8.6355    0.0000 C   0  0  0  0  0  0  0  0  0  0  0  0
    5.5002   -8.3210    0.0000 H   0  0  0  0  0  0  0  0  0  0  0  0
    4.9388   -7.3293    0.0000 O   0  0  0  0  0  0  0  0  0  0  0  0
    6.1417   -8.0032    0.0000 C   0  0  0  0  0  0  0  0  0  0  0  0
    6.9440   -7.8106    0.0000 C   0  0  0  0  0  0  0  0  0  0  0  0
    7.2936   -7.0634    0.0000 C   0  0  0  0  0  0  0  0  0  0  0  0
    6.9274   -6.3241    0.0000 C   0  0  0  0  0  0  0  0  0  0  0  0
    6.1211   -6.1495    0.0000 C   0  0  0  0  0  0  0  0  0  0  0  0
    8.1169   -7.1159    0.0000 C   0  0  1  0  0  0  0  0  0  0  0  0
    8.5740   -6.4291    0.0000 C   0  0  2  0  0  0  0  0  0  0  0  0
    8.2078   -5.6898    0.0000 C   0  0  0  0  0  0  0  0  0  0  0  0
    7.3845   -5.6374    0.0000 C   0  0  0  0  0  0  0  0  0  0  0  0
    8.6288   -7.7628    0.0000 C   0  0  2  0  0  0  0  0  0  0  0  0
    9.4023   -7.4759    0.0000 C   0  0  2  0  0  0  0  0  0  0  0  0
    9.3685   -6.6516    0.0000 C   0  0  2  0  0  0  0  0  0  0  0  0
    9.4362   -8.3002    0.0000 O   0  0  0  0  0  0  0  0  0  0  0  0
   10.2306   -8.5227    0.0000 C   0  0  2  0  0  0  0  0  0  0  0  0
   10.6878   -7.8360    0.0000 C   0  0  2  0  0  0  0  0  0  0  0  0
   10.1758   -7.1890    0.0000 O   0  0  0  0  0  0  0  0  0  0  0  0
   10.2934   -6.1338    0.0000 C   0  0  1  0  0  0  0  0  0  0  0  0
   11.0274   -6.8010    0.0000 C   0  0  0  0  0  0  0  0  0  0  0  0
   10.2703   -5.3091    0.0000 C   0  0  0  0  0  0  0  0  0  0  0  0
    9.3566   -5.8267    0.0000 H   0  0  0  0  0  0  0  0  0  0  0  0
   11.4876   -8.0380    0.0000 H   0  0  0  0  0  0  0  0  0  0  0  0
   10.5176   -9.2962    0.0000 C   0  0  0  0  0  0  0  0  0  0  0  0
   11.3113   -9.0713    0.0000 C   0  0  0  0  0  0  0  0  0  0  0  0
    9.7238   -9.5212    0.0000 C   0  0  0  0  0  0  0  0  0  0  0  0
   10.7425  -10.0900    0.0000 O   0  0  0  0  0  0  0  0  0  0  0  0
    9.6557   -9.1144    0.0000 H   0  0  0  0  0  0  0  0  0  0  0  0
    8.9763   -5.7088    0.0000 C   0  0  0  0  0  0  0  0  0  0  0  0
    7.7147   -7.8362    0.0000 C   0  0  0  0  0  0  0  0  0  0  0  0
    8.4063   -8.5573    0.0000 O   0  0  0  0  0  0  0  0  0  0  0  0
  1  2  1  0  0  0  0
  2  3  1  0  0  0  0
  3  4  1  0  0  0  0
  4  5  1  0  0  0  0
  5  6  1  0  0  0  0
  1  6  1  0  0  0  0
  3  7  1  1  0  0  0
  2  8  1  0  0  0  0
  2  9  1  0  0  0  0
  1 10  1  6  0  0  0
  6 11  1  0  0  0  0
 11  3  1  0  0  0  0
  1 12  1  0  0  0  0
 12 13  1  0  0  0  0
 13 14  1  0  0  0  0
 14 15  2  0  0  0  0
 15 16  1  0  0  0  0
  6 16  1  1  0  0  0
 14 17  1  0  0  0  0
 17 18  1  0  0  0  0
 18 19  1  0  0  0  0
 19 20  1  0  0  0  0
 20 15  1  0  0  0  0
 17 21  1  0  0  0  0
 21 22  1  0  0  0  0
 22 23  1  0  0  0  0
 23 18  1  0  0  0  0
 22 24  1  6  0  0  0
 24 25  1  0  0  0  0
 25 26  1  0  0  0  0
 26 27  1  0  0  0  0
 27 22  1  0  0  0  0
 23 28  1  0  0  0  0
 28 29  1  0  0  0  0
 29 26  1  0  0  0  0
 28 30  1  6  0  0  0
 23 31  1  6  0  0  0
 26 32  1  1  0  0  0
 25 33  1  0  0  0  0
 33 34  1  0  0  0  0
 33 35  1  0  0  0  0
 33 36  1  0  0  0  0
 25 37  1  1  0  0  0
 18 38  1  1  0  0  0
 17 39  1  6  0  0  0
 21 40  1  6  0  0  0
M  END
>  <cdx:fragmentId>
239

$$$$
