369489.cdx
  Mrv1902 05222410182D          

 11 11  0  0  0  0            999 V2000
    5.2803   -6.4193    0.0000 C   0  0  0  0  0  0  0  0  0  0  0  0
    5.9946   -6.8321    0.0000 C   0  0  0  0  0  0  0  0  0  0  0  0
    5.9943   -7.6571    0.0000 C   0  0  0  0  0  0  0  0  0  0  0  0
    6.7086   -8.0699    0.0000 C   0  0  0  0  0  0  0  0  0  0  0  0
    6.7093   -6.4199    0.0000 O   0  0  0  0  0  0  0  0  0  0  0  0
    6.7082   -8.8949    0.0000 C   0  0  0  0  0  0  0  0  0  0  0  0
    7.4225   -9.3077    0.0000 C   0  0  0  0  0  0  0  0  0  0  0  0
    7.4222  -10.1327    0.0000 C   0  0  0  0  0  0  0  0  0  0  0  0
    6.7075  -10.5449    0.0000 C   0  0  0  0  0  0  0  0  0  0  0  0
    5.9932  -10.1321    0.0000 C   0  0  0  0  0  0  0  0  0  0  0  0
    5.9936   -9.3071    0.0000 C   0  0  0  0  0  0  0  0  0  0  0  0
  1  2  1  0  0  0  0
  2  3  1  0  0  0  0
  3  4  2  0  0  0  0
  2  5  1  0  0  0  0
  6  7  1  0  0  0  0
  7  8  2  0  0  0  0
  8  9  1  0  0  0  0
  9 10  2  0  0  0  0
 10 11  1  0  0  0  0
  6 11  2  0  0  0  0
  4  6  1  0  0  0  0
M  END
>  <cdx:fragmentId>
15

$$$$
