369742.cdx
  Mrv1902 05222410242D          

 13 13  0  0  0  0            999 V2000
    5.9998   -6.0661    0.0000 C   0  0  0  0  0  0  0  0  0  0  0  0
    5.2853   -6.4786    0.0000 C   0  0  0  0  0  0  0  0  0  0  0  0
    5.2853   -7.3036    0.0000 C   0  0  0  0  0  0  0  0  0  0  0  0
    5.9998   -7.7161    0.0000 C   0  0  0  0  0  0  0  0  0  0  0  0
    6.7142   -7.3036    0.0000 C   0  0  0  0  0  0  0  0  0  0  0  0
    6.7142   -6.4786    0.0000 C   0  0  0  0  0  0  0  0  0  0  0  0
    7.5392   -7.3036    0.0000 C   0  0  0  0  0  0  0  0  0  0  0  0
    7.1267   -8.0180    0.0000 C   0  0  0  0  0  0  0  0  0  0  0  0
    5.9998   -5.2411    0.0000 C   0  0  0  0  0  0  0  0  0  0  0  0
    7.4287   -6.0661    0.0000 C   0  0  0  0  0  0  0  0  0  0  0  0
    8.1432   -6.4786    0.0000 C   0  0  0  0  0  0  0  0  0  0  0  0
    8.8576   -6.0661    0.0000 C   0  0  0  0  0  0  0  0  0  0  0  0
    9.5721   -6.4786    0.0000 C   0  0  0  0  0  0  0  0  0  0  0  0
  1  2  2  0  0  0  0
  2  3  1  0  0  0  0
  3  4  1  0  0  0  0
  4  5  1  0  0  0  0
  5  6  1  0  0  0  0
  1  6  1  0  0  0  0
  5  7  1  0  0  0  0
  5  8  1  0  0  0  0
  1  9  1  0  0  0  0
 10 11  1  0  0  0  0
 11 12  2  0  0  0  0
 12 13  1  0  0  0  0
  6 10  2  0  0  0  0
M  END
>  <cdx:groupId>
41

>  <cdx:fragmentId>
5

$$$$
