369743.cdx
  Mrv1902 05222410242D          

 13 13  0  0  0  0            999 V2000
    7.8920   -6.5130    0.0000 C   0  0  0  0  0  0  0  0  0  0  0  0
    8.5954   -6.0819    0.0000 C   0  0  0  0  0  0  0  0  0  0  0  0
    8.5739   -5.2572    0.0000 C   0  0  0  0  0  0  0  0  0  0  0  0
    9.2773   -4.8262    0.0000 C   0  0  0  0  0  0  0  0  0  0  0  0
    9.3420   -7.3003    0.0000 C   0  0  0  0  0  0  0  0  0  0  0  0
    6.3854   -7.7903    0.0000 C   0  0  0  0  0  0  0  0  0  0  0  0
    6.7791   -7.0653    0.0000 C   0  0  0  0  0  0  0  0  0  0  0  0
    7.2317   -8.5934    0.0000 C   0  0  0  0  0  0  0  0  0  0  0  0
    7.2101   -7.7687    0.0000 C   0  0  0  0  0  0  0  0  0  0  0  0
    7.9136   -7.3377    0.0000 C   0  0  0  0  0  0  0  0  0  0  0  0
    8.6386   -7.7314    0.0000 C   0  0  0  0  0  0  0  0  0  0  0  0
    8.6601   -8.5561    0.0000 C   0  0  0  0  0  0  0  0  0  0  0  0
    7.9567   -8.9871    0.0000 C   0  0  0  0  0  0  0  0  0  0  0  0
 10  1  1  0  0  0  0
 11  5  1  0  0  0  0
  9  6  1  0  0  0  0
  9  7  1  0  0  0  0
 13  8  1  0  0  0  0
  9  8  1  0  0  0  0
 10  9  1  0  0  0  0
 11 10  1  0  0  0  0
 12 11  1  0  0  0  0
 13 12  2  0  0  0  0
  1  2  2  0  0  0  0
  2  3  1  0  0  0  0
  3  4  2  0  0  0  0
M  END
>  <cdx:fragmentId>
31173

$$$$
