369731.cdx
  Mrv1902 05222410272D          

 13 14  0  0  0  0            999 V2000
    7.2543   -7.8743    0.0000 C   0  0  0  0  0  0  0  0  0  0  0  0
    6.5398   -8.2868    0.0000 C   0  0  0  0  0  0  0  0  0  0  0  0
    5.8254   -7.8743    0.0000 C   0  0  0  0  0  0  0  0  0  0  0  0
    5.8254   -7.0493    0.0000 C   0  0  0  0  0  0  0  0  0  0  0  0
    6.5398   -6.6368    0.0000 C   0  0  0  0  0  0  0  0  0  0  0  0
    7.2543   -7.0493    0.0000 C   0  0  0  0  0  0  0  0  0  0  0  0
    7.9688   -7.4618    0.0000 O   0  0  0  0  0  0  0  0  0  0  0  0
    7.6668   -6.3348    0.0000 C   0  0  0  0  0  0  0  0  0  0  0  0
    8.4918   -6.3348    0.0000 C   0  0  0  0  0  0  0  0  0  0  0  0
    8.9043   -5.6203    0.0000 C   0  0  0  0  0  0  0  0  0  0  0  0
    8.4918   -4.9058    0.0000 C   0  0  0  0  0  0  0  0  0  0  0  0
    9.7293   -5.6203    0.0000 C   0  0  0  0  0  0  0  0  0  0  0  0
    7.6668   -8.5887    0.0000 C   0  0  0  0  0  0  0  0  0  0  0  0
  1  2  1  0  0  0  0
  2  3  1  0  0  0  0
  3  4  1  0  0  0  0
  4  5  1  0  0  0  0
  5  6  1  0  0  0  0
  6  7  1  0  0  0  0
  1  7  1  0  0  0  0
  1  6  1  0  0  0  0
  8  9  2  0  0  0  0
  9 10  1  0  0  0  0
 10 11  2  0  0  0  0
 10 12  1  0  0  0  0
  6  8  1  0  0  0  0
  1 13  1  0  0  0  0
M  END
>  <cdx:fragmentId>
31127

$$$$
