369949.cdx
  Mrv1902 05222410252D          

 21 21  0  0  0  0            999 V2000
    5.3828   -7.0055    0.0000 C   0  0  0  0  0  0  0  0  0  0  0  0
    6.0973   -7.4180    0.0000 C   0  0  0  0  0  0  0  0  0  0  0  0
    6.8118   -7.0055    0.0000 C   0  0  2  0  0  0  0  0  0  0  0  0
    7.5263   -7.4180    0.0000 C   0  0  0  0  0  0  0  0  0  0  0  0
    8.2407   -7.0055    0.0000 C   0  0  2  0  0  0  0  0  0  0  0  0
    8.9552   -7.4180    0.0000 C   0  0  0  0  0  0  0  0  0  0  0  0
    9.6697   -7.0055    0.0000 C   0  0  0  0  0  0  0  0  0  0  0  0
   10.3841   -7.4180    0.0000 C   0  0  0  0  0  0  0  0  0  0  0  0
   11.0986   -7.0055    0.0000 C   0  0  0  0  0  0  0  0  0  0  0  0
   11.8131   -7.4180    0.0000 C   0  0  0  0  0  0  0  0  0  0  0  0
    6.8118   -6.1805    0.0000 O   0  0  0  0  0  0  0  0  0  0  0  0
    8.2407   -6.1805    0.0000 O   0  0  0  0  0  0  0  0  0  0  0  0
    4.6684   -7.4180    0.0000 C   0  0  0  0  0  0  0  0  0  0  0  0
    3.9539   -7.0055    0.0000 C   0  0  0  0  0  0  0  0  0  0  0  0
    3.2394   -7.4180    0.0000 C   0  0  0  0  0  0  0  0  0  0  0  0
    3.2394   -8.2430    0.0000 C   0  0  0  0  0  0  0  0  0  0  0  0
    3.9539   -8.6555    0.0000 C   0  0  0  0  0  0  0  0  0  0  0  0
    4.6684   -8.2430    0.0000 C   0  0  0  0  0  0  0  0  0  0  0  0
    2.5250   -7.0055    0.0000 O   0  0  0  0  0  0  0  0  0  0  0  0
    1.8105   -7.4180    0.0000 C   0  0  0  0  0  0  0  0  0  0  0  0
    2.5250   -8.6555    0.0000 O   0  0  0  0  0  0  0  0  0  0  0  0
  1  2  1  0  0  0  0
  2  3  1  0  0  0  0
  3  4  1  0  0  0  0
  4  5  1  0  0  0  0
  5  6  1  0  0  0  0
  6  7  1  0  0  0  0
  7  8  1  0  0  0  0
  8  9  1  0  0  0  0
  9 10  1  0  0  0  0
  3 11  1  1  0  0  0
  5 12  1  1  0  0  0
 13 14  1  0  0  0  0
 14 15  2  0  0  0  0
 15 16  1  0  0  0  0
 16 17  2  0  0  0  0
 17 18  1  0  0  0  0
 13 18  2  0  0  0  0
 19 20  1  0  0  0  0
 15 19  1  0  0  0  0
 16 21  1  0  0  0  0
  1 13  1  0  0  0  0
M  END
>  <cdx:groupId>
8202

>  <cdx:fragmentId>
8142

$$$$
