369944.cdx
  Mrv1902 05222410212D          

 14 14  0  0  0  0            999 V2000
    6.1975   -7.2816    0.0000 C   0  0  0  0  0  0  0  0  0  0  0  0
    6.9120   -7.6941    0.0000 C   0  0  0  0  0  0  0  0  0  0  0  0
    7.6264   -7.2816    0.0000 C   0  0  0  0  0  0  0  0  0  0  0  0
    8.3409   -7.6941    0.0000 C   0  0  0  0  0  0  0  0  0  0  0  0
    9.0554   -7.2816    0.0000 C   0  0  0  0  0  0  0  0  0  0  0  0
    9.0554   -6.4566    0.0000 C   0  0  0  0  0  0  0  0  0  0  0  0
    8.3409   -6.0441    0.0000 C   0  0  0  0  0  0  0  0  0  0  0  0
    7.6264   -6.4566    0.0000 C   0  0  0  0  0  0  0  0  0  0  0  0
    6.9120   -6.0441    0.0000 C   0  0  0  0  0  0  0  0  0  0  0  0
    6.1975   -6.4566    0.0000 C   0  0  0  0  0  0  0  0  0  0  0  0
    5.4830   -7.6941    0.0000 O   0  0  0  0  0  0  0  0  0  0  0  0
    5.4830   -6.0441    0.0000 C   0  0  0  0  0  0  0  0  0  0  0  0
    5.4830   -5.2191    0.0000 C   0  0  0  0  0  0  0  0  0  0  0  0
    4.7685   -6.4566    0.0000 C   0  0  0  0  0  0  0  0  0  0  0  0
  1  2  1  0  0  0  0
  2  3  1  0  0  0  0
  3  4  2  0  0  0  0
  4  5  1  0  0  0  0
  5  6  1  0  0  0  0
  6  7  1  0  0  0  0
  7  8  2  0  0  0  0
  8  9  1  0  0  0  0
  9 10  1  0  0  0  0
  1 10  1  0  0  0  0
  1 11  2  0  0  0  0
 12 13  2  0  0  0  0
 12 14  1  0  0  0  0
 10 12  1  0  0  0  0
M  END
>  <cdx:groupId>
31256

>  <cdx:fragmentId>
31217

$$$$
