3699.cdx
  Mrv1902 05222410282D          

 62 68  0  0  0  0            999 V2000
    6.9195   -8.1331    0.0000 C   0  0  0  0  0  0  0  0  0  0  0  0
    6.9195   -8.9581    0.0000 C   0  0  1  0  0  0  0  0  0  0  0  0
    7.6340   -9.3706    0.0000 C   0  0  2  0  0  0  0  0  0  0  0  0
    8.3485   -8.9581    0.0000 C   0  0  1  0  0  0  0  0  0  0  0  0
    8.3485   -8.1331    0.0000 C   0  0  2  0  0  0  0  0  0  0  0  0
    7.6340   -7.7206    0.0000 C   0  0  0  0  0  0  0  0  0  0  0  0
    9.0629   -9.3706    0.0000 C   0  0  0  0  0  0  0  0  0  0  0  0
    9.7774   -8.9581    0.0000 C   0  0  0  0  0  0  0  0  0  0  0  0
    9.7774   -8.1331    0.0000 C   0  0  2  0  0  0  0  0  0  0  0  0
    9.0629   -7.7206    0.0000 C   0  0  2  0  0  0  0  0  0  0  0  0
   10.4919   -7.7206    0.0000 C   0  0  1  0  0  0  0  0  0  0  0  0
   10.4919   -6.8956    0.0000 C   0  0  0  0  0  0  0  0  0  0  0  0
    9.7774   -6.4831    0.0000 C   0  0  0  0  0  0  0  0  0  0  0  0
    9.0629   -6.8956    0.0000 C   0  0  0  0  0  0  0  0  0  0  0  0
   11.2064   -8.1331    0.0000 C   0  0  0  0  0  0  0  0  0  0  0  0
   11.9208   -7.7206    0.0000 C   0  0  0  0  0  0  0  0  0  0  0  0
   11.9208   -6.8956    0.0000 C   0  0  2  0  0  0  0  0  0  0  0  0
   11.2064   -6.4831    0.0000 C   0  0  1  0  0  0  0  0  0  0  0  0
   12.6353   -6.4831    0.0000 C   0  0  1  0  0  0  0  0  0  0  0  0
   12.6353   -5.6581    0.0000 C   0  0  0  0  0  0  0  0  0  0  0  0
   11.9208   -5.2456    0.0000 C   0  0  1  0  0  0  0  0  0  0  0  0
   11.2064   -5.6581    0.0000 C   0  0  0  0  0  0  0  0  0  0  0  0
    7.2215  -10.0851    0.0000 C   0  0  0  0  0  0  0  0  0  0  0  0
    8.0465  -10.0851    0.0000 C   0  0  0  0  0  0  0  0  0  0  0  0
   12.3333   -4.5312    0.0000 C   0  0  0  0  0  0  0  0  0  0  0  0
   13.1583   -4.5312    0.0000 O   0  0  0  0  0  0  0  0  0  0  0  0
   11.9208   -3.8167    0.0000 O   0  0  0  0  0  0  0  0  0  0  0  0
    6.2051   -9.3706    0.0000 O   0  0  0  0  0  0  0  0  0  0  0  0
    8.3485   -7.3081    0.0000 C   0  0  0  0  0  0  0  0  0  0  0  0
    9.7774   -7.3081    0.0000 C   0  0  0  0  0  0  0  0  0  0  0  0
   10.4919   -6.0706    0.0000 H   0  0  0  0  0  0  0  0  0  0  0  0
   12.6353   -7.3081    0.0000 C   0  0  0  0  0  0  0  0  0  0  0  0
   11.5083   -4.5312    0.0000 C   0  0  0  0  0  0  0  0  0  0  0  0
   10.4919   -8.5456    0.0000 C   0  0  0  0  0  0  0  0  0  0  0  0
    9.0629   -8.5456    0.0000 H   0  0  0  0  0  0  0  0  0  0  0  0
    8.3485   -9.7831    0.0000 H   0  0  0  0  0  0  0  0  0  0  0  0
    8.3485   -6.4831    0.0000 O   0  0  0  0  0  0  0  0  0  0  0  0
    5.4906   -8.9581    0.0000 C   0  0  1  0  0  0  0  0  0  0  0  0
    5.4906   -8.1331    0.0000 O   0  0  0  0  0  0  0  0  0  0  0  0
    4.7761   -7.7206    0.0000 C   0  0  1  0  0  0  0  0  0  0  0  0
    4.0616   -8.1331    0.0000 C   0  0  2  0  0  0  0  0  0  0  0  0
    4.0616   -8.9581    0.0000 C   0  0  1  0  0  0  0  0  0  0  0  0
    4.7761   -9.3706    0.0000 C   0  0  1  0  0  0  0  0  0  0  0  0
    4.7761   -6.8956    0.0000 C   0  0  0  0  0  0  0  0  0  0  0  0
    3.3472   -9.3706    0.0000 O   0  0  0  0  0  0  0  0  0  0  0  0
    3.3472   -7.7206    0.0000 O   0  0  0  0  0  0  0  0  0  0  0  0
    4.7761  -10.1956    0.0000 O   0  0  0  0  0  0  0  0  0  0  0  0
    5.4906   -6.4831    0.0000 O   0  0  0  0  0  0  0  0  0  0  0  0
    4.0616   -6.4831    0.0000 O   0  0  0  0  0  0  0  0  0  0  0  0
    4.0616  -10.6081    0.0000 C   0  0  2  0  0  0  0  0  0  0  0  0
    3.3472  -10.1956    0.0000 O   0  0  0  0  0  0  0  0  0  0  0  0
    2.6327  -10.6081    0.0000 C   0  0  1  0  0  0  0  0  0  0  0  0
    2.6327  -11.4331    0.0000 C   0  0  2  0  0  0  0  0  0  0  0  0
    3.3472  -11.8456    0.0000 C   0  0  1  0  0  0  0  0  0  0  0  0
    4.0616  -11.4331    0.0000 C   0  0  1  0  0  0  0  0  0  0  0  0
    1.9182  -10.1956    0.0000 C   0  0  0  0  0  0  0  0  0  0  0  0
    3.3472  -12.6706    0.0000 O   0  0  0  0  0  0  0  0  0  0  0  0
    1.9182  -11.8456    0.0000 O   0  0  0  0  0  0  0  0  0  0  0  0
    4.7761  -11.8456    0.0000 O   0  0  0  0  0  0  0  0  0  0  0  0
    1.2038  -10.6081    0.0000 O   0  0  0  0  0  0  0  0  0  0  0  0
    1.9182   -9.3706    0.0000 O   0  0  0  0  0  0  0  0  0  0  0  0
   13.3498   -6.8956    0.0000 O   0  0  0  0  0  0  0  0  0  0  0  0
  1  2  1  0  0  0  0
  2  3  1  0  0  0  0
  3  4  1  0  0  0  0
  4  5  1  0  0  0  0
  5  6  1  0  0  0  0
  6  1  1  0  0  0  0
  4  7  1  0  0  0  0
  7  8  1  0  0  0  0
  8  9  1  0  0  0  0
  9 10  1  0  0  0  0
 10  5  1  0  0  0  0
  9 11  1  0  0  0  0
 11 12  1  0  0  0  0
 12 13  2  0  0  0  0
 13 14  1  0  0  0  0
 14 10  1  0  0  0  0
 11 15  1  0  0  0  0
 15 16  1  0  0  0  0
 16 17  1  0  0  0  0
 17 18  1  0  0  0  0
 18 12  1  0  0  0  0
 17 19  1  0  0  0  0
 19 20  1  0  0  0  0
 20 21  1  0  0  0  0
 21 22  1  0  0  0  0
 22 18  1  0  0  0  0
  3 23  1  6  0  0  0
  3 24  1  1  0  0  0
 21 25  1  1  0  0  0
 25 26  1  0  0  0  0
 25 27  2  0  0  0  0
  2 28  1  1  0  0  0
  5 29  1  1  0  0  0
  9 30  1  1  0  0  0
 18 31  1  1  0  0  0
 17 32  1  1  0  0  0
 21 33  1  6  0  0  0
 11 34  1  6  0  0  0
 10 35  1  6  0  0  0
  4 36  1  6  0  0  0
 14 37  2  0  0  0  0
 38 28  1  6  0  0  0
 38 39  1  0  0  0  0
 39 40  1  0  0  0  0
 40 41  1  0  0  0  0
 41 42  1  0  0  0  0
 42 43  1  0  0  0  0
 43 38  1  0  0  0  0
 40 44  1  1  0  0  0
 42 45  1  1  0  0  0
 41 46  1  6  0  0  0
 43 47  1  6  0  0  0
 44 48  2  0  0  0  0
 44 49  1  0  0  0  0
 50 47  1  1  0  0  0
 50 51  1  0  0  0  0
 51 52  1  0  0  0  0
 52 53  1  0  0  0  0
 53 54  1  0  0  0  0
 54 55  1  0  0  0  0
 55 50  1  0  0  0  0
 52 56  1  1  0  0  0
 54 57  1  1  0  0  0
 53 58  1  6  0  0  0
 55 59  1  6  0  0  0
 56 60  1  0  0  0  0
 56 61  2  0  0  0  0
 19 62  1  1  0  0  0
M  END
>  <cdx:fragmentId>
4796

$$$$
