5369926.cdx
  Mrv1902 05222410192D          

 16 18  0  0  0  0            999 V2000
    7.2525   -6.4028    0.0000 C   0  0  0  0  0  0  0  0  0  0  0  0
    7.9670   -5.9903    0.0000 C   0  0  0  0  0  0  0  0  0  0  0  0
    8.6815   -5.5778    0.0000 O   0  0  0  0  0  0  0  0  0  0  0  0
    8.6815   -6.4028    0.0000 C   0  0  0  0  0  0  0  0  0  0  0  0
    8.6815   -7.2278    0.0000 C   0  0  0  0  0  0  0  0  0  0  0  0
    7.9670   -7.6403    0.0000 C   0  0  0  0  0  0  0  0  0  0  0  0
    7.2525   -7.2278    0.0000 C   0  0  0  0  0  0  0  0  0  0  0  0
    6.5381   -6.8153    0.0000 C   0  0  0  0  0  0  0  0  0  0  0  0
    7.5545   -5.2759    0.0000 C   0  0  0  0  0  0  0  0  0  0  0  0
    6.7295   -5.2759    0.0000 C   0  0  0  0  0  0  0  0  0  0  0  0
    6.3170   -4.5614    0.0000 C   0  0  0  0  0  0  0  0  0  0  0  0
    6.7295   -3.8469    0.0000 C   0  0  0  0  0  0  0  0  0  0  0  0
    5.4920   -4.5614    0.0000 C   0  0  0  0  0  0  0  0  0  0  0  0
    8.3795   -8.3548    0.0000 C   0  0  0  0  0  0  0  0  0  0  0  0
    7.5545   -8.3548    0.0000 C   0  0  0  0  0  0  0  0  0  0  0  0
    9.5065   -6.4028    0.0000 C   0  0  0  0  0  0  0  0  0  0  0  0
  1  2  1  0  0  0  0
  2  3  1  0  0  0  0
  3  4  1  0  0  0  0
  4  5  1  0  0  0  0
  5  6  1  0  0  0  0
  6  7  1  0  0  0  0
  7  8  1  0  0  0  0
  1  8  1  0  0  0  0
  1  7  1  0  0  0  0
  2  4  1  0  0  0  0
  9 10  2  0  0  0  0
 10 11  1  0  0  0  0
 11 12  2  0  0  0  0
 11 13  1  0  0  0  0
  2  9  1  0  0  0  0
  6 14  1  0  0  0  0
  6 15  1  0  0  0  0
  4 16  1  0  0  0  0
M  END
>  <cdx:groupId>
52

>  <cdx:fragmentId>
5

$$$$
