370105.cdx
  Mrv1902 05222410262D          

 17 18  0  0  0  0            999 V2000
    8.9531   -8.1800    0.0000 O   0  0  0  0  0  0  0  0  0  0  0  0
    9.5059   -8.7924    0.0000 C   0  0  0  0  0  0  0  0  0  0  0  0
    9.0942   -9.5074    0.0000 C   0  0  0  0  0  0  0  0  0  0  0  0
    8.2870   -9.3368    0.0000 C   0  0  0  0  0  0  0  0  0  0  0  0
    8.1998   -8.5164    0.0000 C   0  0  0  0  0  0  0  0  0  0  0  0
   10.1727   -8.3067    0.0000 C   0  0  0  0  0  0  0  0  0  0  0  0
   10.2599   -9.1271    0.0000 C   0  0  0  0  0  0  0  0  0  0  0  0
    7.4849   -8.1047    0.0000 C   0  0  0  0  0  0  0  0  0  0  0  0
    7.4839   -7.2797    0.0000 C   0  0  0  0  0  0  0  0  0  0  0  0
    6.0168   -8.1834    0.0000 O   0  0  0  0  0  0  0  0  0  0  0  0
    6.7709   -8.5180    0.0000 C   0  0  0  0  0  0  0  0  0  0  0  0
    6.6856   -9.3386    0.0000 C   0  0  0  0  0  0  0  0  0  0  0  0
    5.8788   -9.5111    0.0000 C   0  0  0  0  0  0  0  0  0  0  0  0
    5.4655   -8.7971    0.0000 C   0  0  0  0  0  0  0  0  0  0  0  0
    4.7122   -9.1335    0.0000 C   0  0  0  0  0  0  0  0  0  0  0  0
    4.7975   -8.3129    0.0000 C   0  0  0  0  0  0  0  0  0  0  0  0
    4.0442   -8.6494    0.0000 C   0  0  0  0  0  0  0  0  0  0  0  0
  1  2  1  0  0  0  0
  2  3  1  0  0  0  0
  3  4  2  0  0  0  0
  4  5  1  0  0  0  0
  1  5  1  0  0  0  0
  2  6  1  0  0  0  0
  2  7  1  0  0  0  0
  8  9  1  0  0  0  0
 10 11  1  0  0  0  0
 11 12  1  0  0  0  0
 12 13  1  0  0  0  0
 13 14  1  0  0  0  0
 10 14  1  0  0  0  0
 14 15  1  0  0  0  0
 16 17  2  0  0  0  0
 14 16  1  0  0  0  0
  8 11  1  0  0  0  0
  5  8  2  0  0  0  0
M  END
>  <cdx:fragmentId>
23

$$$$
