5370101.cdx
  Mrv1902 05222410282D          

  9  8  0  0  0  0            999 V2000
   17.6122   -9.1680    0.0000 C   0  0  0  0  0  0  0  0  0  0  0  0
   16.8977   -8.7555    0.0000 C   0  0  0  0  0  0  0  0  0  0  0  0
   16.1832   -9.1680    0.0000 C   0  0  0  0  0  0  0  0  0  0  0  0
   15.4688   -8.7555    0.0000 C   0  0  0  0  0  0  0  0  0  0  0  0
   14.7543   -9.1680    0.0000 C   0  0  0  0  0  0  0  0  0  0  0  0
   14.0398   -8.7555    0.0000 C   0  0  0  0  0  0  0  0  0  0  0  0
   14.0398   -7.9305    0.0000 C   0  0  0  0  0  0  0  0  0  0  0  0
   16.8977   -7.9305    0.0000 O   0  0  0  0  0  0  0  0  0  0  0  0
   13.3253   -9.1680    0.0000 C   0  0  0  0  0  0  0  0  0  0  0  0
  1  2  1  0  0  0  0
  2  3  1  0  0  0  0
  3  4  2  0  0  0  0
  4  5  1  0  0  0  0
  5  6  2  0  0  0  0
  6  7  1  0  0  0  0
  2  8  2  0  0  0  0
  6  9  1  0  0  0  0
M  END
>  <cdx:groupId>
31287

>  <cdx:fragmentId>
31264

$$$$
