3701.cdx
  Mrv1902 05222410262D          

 74 81  0  0  0  0            999 V2000
    6.8645   -9.1506    0.0000 C   0  0  0  0  0  0  0  0  0  0  0  0
    6.8645   -9.9756    0.0000 C   0  0  1  0  0  0  0  0  0  0  0  0
    7.5790  -10.3881    0.0000 C   0  0  2  0  0  0  0  0  0  0  0  0
    8.2935   -9.9756    0.0000 C   0  0  1  0  0  0  0  0  0  0  0  0
    8.2935   -9.1506    0.0000 C   0  0  2  0  0  0  0  0  0  0  0  0
    7.5790   -8.7381    0.0000 C   0  0  0  0  0  0  0  0  0  0  0  0
    9.0079  -10.3881    0.0000 C   0  0  0  0  0  0  0  0  0  0  0  0
    9.7224   -9.9756    0.0000 C   0  0  0  0  0  0  0  0  0  0  0  0
    9.7224   -9.1506    0.0000 C   0  0  2  0  0  0  0  0  0  0  0  0
    9.0079   -8.7381    0.0000 C   0  0  2  0  0  0  0  0  0  0  0  0
   10.4369   -8.7381    0.0000 C   0  0  1  0  0  0  0  0  0  0  0  0
   10.4369   -7.9131    0.0000 C   0  0  0  0  0  0  0  0  0  0  0  0
    9.7224   -7.5006    0.0000 C   0  0  0  0  0  0  0  0  0  0  0  0
    9.0079   -7.9131    0.0000 C   0  0  0  0  0  0  0  0  0  0  0  0
   11.1514   -9.1506    0.0000 C   0  0  0  0  0  0  0  0  0  0  0  0
   11.8658   -8.7381    0.0000 C   0  0  0  0  0  0  0  0  0  0  0  0
   11.8658   -7.9131    0.0000 C   0  0  2  0  0  0  0  0  0  0  0  0
   11.1514   -7.5006    0.0000 C   0  0  1  0  0  0  0  0  0  0  0  0
   12.5803   -7.5006    0.0000 C   0  0  2  0  0  0  0  0  0  0  0  0
   12.5803   -6.6756    0.0000 C   0  0  0  0  0  0  0  0  0  0  0  0
   11.8658   -6.2631    0.0000 C   0  0  1  0  0  0  0  0  0  0  0  0
   11.1514   -6.6756    0.0000 C   0  0  0  0  0  0  0  0  0  0  0  0
    7.1665  -11.1026    0.0000 C   0  0  0  0  0  0  0  0  0  0  0  0
    7.9915  -11.1026    0.0000 C   0  0  0  0  0  0  0  0  0  0  0  0
   12.2783   -5.5487    0.0000 C   0  0  0  0  0  0  0  0  0  0  0  0
   13.1033   -5.5487    0.0000 O   0  0  0  0  0  0  0  0  0  0  0  0
   11.8658   -4.8342    0.0000 O   0  0  0  0  0  0  0  0  0  0  0  0
    6.1501  -10.3881    0.0000 O   0  0  0  0  0  0  0  0  0  0  0  0
    8.2935   -8.3256    0.0000 C   0  0  0  0  0  0  0  0  0  0  0  0
    9.7224   -8.3256    0.0000 C   0  0  0  0  0  0  0  0  0  0  0  0
   10.4369   -7.0881    0.0000 H   0  0  0  0  0  0  0  0  0  0  0  0
   12.5803   -8.3256    0.0000 C   0  0  0  0  0  0  0  0  0  0  0  0
   11.4533   -5.5487    0.0000 C   0  0  0  0  0  0  0  0  0  0  0  0
   10.4369   -9.5631    0.0000 C   0  0  0  0  0  0  0  0  0  0  0  0
    9.0079   -9.5631    0.0000 H   0  0  0  0  0  0  0  0  0  0  0  0
    8.2935  -10.8006    0.0000 H   0  0  0  0  0  0  0  0  0  0  0  0
    8.2935   -7.5006    0.0000 O   0  0  0  0  0  0  0  0  0  0  0  0
    5.4356   -9.9756    0.0000 C   0  0  1  0  0  0  0  0  0  0  0  0
    5.4356   -9.1506    0.0000 O   0  0  0  0  0  0  0  0  0  0  0  0
    4.7211   -8.7381    0.0000 C   0  0  1  0  0  0  0  0  0  0  0  0
    4.0066   -9.1506    0.0000 C   0  0  2  0  0  0  0  0  0  0  0  0
    4.0066   -9.9756    0.0000 C   0  0  1  0  0  0  0  0  0  0  0  0
    4.7211  -10.3881    0.0000 C   0  0  1  0  0  0  0  0  0  0  0  0
    4.7211   -7.9131    0.0000 C   0  0  0  0  0  0  0  0  0  0  0  0
    3.2922  -10.3881    0.0000 O   0  0  0  0  0  0  0  0  0  0  0  0
    3.2922   -8.7381    0.0000 O   0  0  0  0  0  0  0  0  0  0  0  0
    4.7211  -11.2131    0.0000 O   0  0  0  0  0  0  0  0  0  0  0  0
    5.4356   -7.5006    0.0000 O   0  0  0  0  0  0  0  0  0  0  0  0
    4.0066   -7.5006    0.0000 O   0  0  0  0  0  0  0  0  0  0  0  0
    4.0066  -11.6256    0.0000 C   0  0  2  0  0  0  0  0  0  0  0  0
    3.2922  -11.2131    0.0000 O   0  0  0  0  0  0  0  0  0  0  0  0
    2.5777  -11.6256    0.0000 C   0  0  1  0  0  0  0  0  0  0  0  0
    2.5777  -12.4506    0.0000 C   0  0  2  0  0  0  0  0  0  0  0  0
    3.2922  -12.8631    0.0000 C   0  0  1  0  0  0  0  0  0  0  0  0
    4.0066  -12.4506    0.0000 C   0  0  1  0  0  0  0  0  0  0  0  0
    1.8632  -11.2131    0.0000 C   0  0  0  0  0  0  0  0  0  0  0  0
    3.2922  -13.6881    0.0000 O   0  0  0  0  0  0  0  0  0  0  0  0
    1.8632  -12.8631    0.0000 O   0  0  0  0  0  0  0  0  0  0  0  0
    4.7211  -12.8631    0.0000 O   0  0  0  0  0  0  0  0  0  0  0  0
    1.1488  -11.6256    0.0000 O   0  0  0  0  0  0  0  0  0  0  0  0
    1.8632  -10.3881    0.0000 O   0  0  0  0  0  0  0  0  0  0  0  0
   13.2948   -7.9131    0.0000 H   0  0  0  0  0  0  0  0  0  0  0  0
    7.5790  -11.8171    0.0000 O   0  0  0  0  0  0  0  0  0  0  0  0
   13.5158   -4.8342    0.0000 C   0  0  2  0  0  0  0  0  0  0  0  0
   14.3408   -4.8342    0.0000 O   0  0  0  0  0  0  0  0  0  0  0  0
   14.7533   -4.1197    0.0000 C   0  0  1  0  0  0  0  0  0  0  0  0
   14.3408   -3.4052    0.0000 C   0  0  2  0  0  0  0  0  0  0  0  0
   13.5158   -3.4052    0.0000 C   0  0  1  0  0  0  0  0  0  0  0  0
   13.1033   -4.1197    0.0000 C   0  0  1  0  0  0  0  0  0  0  0  0
   15.5783   -4.1197    0.0000 C   0  0  0  0  0  0  0  0  0  0  0  0
   13.1033   -2.6908    0.0000 O   0  0  0  0  0  0  0  0  0  0  0  0
   12.2783   -4.1197    0.0000 O   0  0  0  0  0  0  0  0  0  0  0  0
   14.7533   -2.6908    0.0000 O   0  0  0  0  0  0  0  0  0  0  0  0
   15.9908   -3.4052    0.0000 O   0  0  0  0  0  0  0  0  0  0  0  0
  1  2  1  0  0  0  0
  2  3  1  0  0  0  0
  3  4  1  0  0  0  0
  4  5  1  0  0  0  0
  5  6  1  0  0  0  0
  6  1  1  0  0  0  0
  4  7  1  0  0  0  0
  7  8  1  0  0  0  0
  8  9  1  0  0  0  0
  9 10  1  0  0  0  0
 10  5  1  0  0  0  0
  9 11  1  0  0  0  0
 11 12  1  0  0  0  0
 12 13  2  0  0  0  0
 13 14  1  0  0  0  0
 14 10  1  0  0  0  0
 11 15  1  0  0  0  0
 15 16  1  0  0  0  0
 16 17  1  0  0  0  0
 17 18  1  0  0  0  0
 18 12  1  0  0  0  0
 17 19  1  0  0  0  0
 19 20  1  0  0  0  0
 20 21  1  0  0  0  0
 21 22  1  0  0  0  0
 22 18  1  0  0  0  0
  3 23  1  6  0  0  0
  3 24  1  1  0  0  0
 21 25  1  1  0  0  0
 25 26  1  0  0  0  0
 25 27  2  0  0  0  0
  2 28  1  1  0  0  0
  5 29  1  1  0  0  0
  9 30  1  1  0  0  0
 18 31  1  1  0  0  0
 17 32  1  1  0  0  0
 21 33  1  6  0  0  0
 11 34  1  6  0  0  0
 10 35  1  6  0  0  0
  4 36  1  6  0  0  0
 14 37  2  0  0  0  0
 38 28  1  6  0  0  0
 38 39  1  0  0  0  0
 39 40  1  0  0  0  0
 40 41  1  0  0  0  0
 41 42  1  0  0  0  0
 42 43  1  0  0  0  0
 43 38  1  0  0  0  0
 40 44  1  1  0  0  0
 42 45  1  1  0  0  0
 41 46  1  6  0  0  0
 43 47  1  6  0  0  0
 44 48  2  0  0  0  0
 44 49  1  0  0  0  0
 50 47  1  1  0  0  0
 50 51  1  0  0  0  0
 51 52  1  0  0  0  0
 52 53  1  0  0  0  0
 53 54  1  0  0  0  0
 54 55  1  0  0  0  0
 55 50  1  0  0  0  0
 52 56  1  1  0  0  0
 54 57  1  1  0  0  0
 53 58  1  6  0  0  0
 55 59  1  6  0  0  0
 56 60  1  0  0  0  0
 56 61  2  0  0  0  0
 19 62  1  1  0  0  0
 24 63  1  0  0  0  0
 64 26  1  1  0  0  0
 64 65  1  0  0  0  0
 65 66  1  0  0  0  0
 66 67  1  0  0  0  0
 67 68  1  0  0  0  0
 68 69  1  0  0  0  0
 69 64  1  0  0  0  0
 66 70  1  1  0  0  0
 68 71  1  1  0  0  0
 69 72  1  6  0  0  0
 67 73  1  6  0  0  0
 70 74  1  0  0  0  0
M  END
>  <cdx:fragmentId>
4796

$$$$
