370350.cdx
  Mrv1902 05222410212D          

 21 20  0  0  0  0            999 V2000
    0.4588   -7.6103    0.0000 C   0  0  0  0  0  0  0  0  0  0  0  0
    1.1733   -7.1978    0.0000 O   0  0  0  0  0  0  0  0  0  0  0  0
    1.8877   -8.4353    0.0000 O   0  0  0  0  0  0  0  0  0  0  0  0
   14.0337   -7.1978    0.0000 C   0  0  0  0  0  0  0  0  0  0  0  0
   13.3193   -7.6103    0.0000 C   0  0  0  0  0  0  0  0  0  0  0  0
   12.6048   -7.1978    0.0000 C   0  0  0  0  0  0  0  0  0  0  0  0
   11.8903   -7.6103    0.0000 C   0  0  0  0  0  0  0  0  0  0  0  0
   11.1758   -7.1978    0.0000 C   0  0  0  0  0  0  0  0  0  0  0  0
   10.4614   -7.6103    0.0000 C   0  0  0  0  0  0  0  0  0  0  0  0
    9.7469   -7.1978    0.0000 C   0  0  0  0  0  0  0  0  0  0  0  0
    9.0324   -7.6103    0.0000 C   0  0  0  0  0  0  0  0  0  0  0  0
    8.3180   -7.1978    0.0000 C   0  0  0  0  0  0  0  0  0  0  0  0
    7.6035   -7.6103    0.0000 C   0  0  0  0  0  0  0  0  0  0  0  0
    6.8890   -7.1978    0.0000 C   0  0  0  0  0  0  0  0  0  0  0  0
    6.1745   -7.6103    0.0000 C   0  0  0  0  0  0  0  0  0  0  0  0
    5.4601   -7.1978    0.0000 C   0  0  0  0  0  0  0  0  0  0  0  0
    4.7456   -7.6103    0.0000 C   0  0  0  0  0  0  0  0  0  0  0  0
    4.0311   -7.1978    0.0000 C   0  0  0  0  0  0  0  0  0  0  0  0
    3.3167   -7.6103    0.0000 C   0  0  0  0  0  0  0  0  0  0  0  0
    2.6022   -7.1978    0.0000 C   0  0  0  0  0  0  0  0  0  0  0  0
    1.8877   -7.6103    0.0000 C   0  0  0  0  0  0  0  0  0  0  0  0
  2  1  1  0  0  0  0
 21  2  1  0  0  0  0
 21  3  2  0  0  0  0
  5  4  1  0  0  0  0
  6  5  1  0  0  0  0
  7  6  1  0  0  0  0
  8  7  1  0  0  0  0
  9  8  1  0  0  0  0
 10  9  1  0  0  0  0
 11 10  1  0  0  0  0
 12 11  1  0  0  0  0
 13 12  1  0  0  0  0
 14 13  1  0  0  0  0
 15 14  1  0  0  0  0
 16 15  1  0  0  0  0
 17 16  1  0  0  0  0
 18 17  1  0  0  0  0
 19 18  1  0  0  0  0
 20 19  2  0  0  0  0
 21 20  1  0  0  0  0
M  END
>  <cdx:fragmentId>
31353

$$$$
