370371.cdx
  Mrv1902 05222410232D          

 22 22  0  0  0  0            999 V2000
    3.0941   -5.8167    0.0000 O   0  0  0  0  0  0  0  0  0  0  0  0
   13.8111   -7.0542    0.0000 C   0  0  0  0  0  0  0  0  0  0  0  0
   13.0967   -6.6417    0.0000 C   0  0  0  0  0  0  0  0  0  0  0  0
   12.3822   -7.0542    0.0000 C   0  0  0  0  0  0  0  0  0  0  0  0
   11.6677   -6.6417    0.0000 C   0  0  0  0  0  0  0  0  0  0  0  0
   10.9533   -7.0542    0.0000 C   0  0  0  0  0  0  0  0  0  0  0  0
   10.2388   -6.6417    0.0000 C   0  0  0  0  0  0  0  0  0  0  0  0
    9.5243   -7.0542    0.0000 C   0  0  0  0  0  0  0  0  0  0  0  0
    8.8098   -6.6417    0.0000 C   0  0  0  0  0  0  0  0  0  0  0  0
    8.0954   -7.0542    0.0000 C   0  0  0  0  0  0  0  0  0  0  0  0
    7.3809   -6.6417    0.0000 C   0  0  0  0  0  0  0  0  0  0  0  0
    6.6664   -7.0542    0.0000 C   0  0  0  0  0  0  0  0  0  0  0  0
    5.9520   -6.6417    0.0000 C   0  0  0  0  0  0  0  0  0  0  0  0
    5.2375   -7.0542    0.0000 C   0  0  0  0  0  0  0  0  0  0  0  0
    4.5230   -6.6417    0.0000 C   0  0  0  0  0  0  0  0  0  0  0  0
    3.8085   -7.0542    0.0000 C   0  0  0  0  0  0  0  0  0  0  0  0
    3.0941   -6.6417    0.0000 C   0  0  0  0  0  0  0  0  0  0  0  0
    1.6259   -6.7187    0.0000 C   0  0  0  0  0  0  0  0  0  0  0  0
    1.0739   -7.3318    0.0000 C   0  0  0  0  0  0  0  0  0  0  0  0
    1.4864   -8.0462    0.0000 C   0  0  0  0  0  0  0  0  0  0  0  0
    2.2934   -7.8747    0.0000 C   0  0  0  0  0  0  0  0  0  0  0  0
    2.3796   -7.0542    0.0000 N   0  0  0  0  0  0  0  0  0  0  0  0
 22 17  1  0  0  0  0
 17  1  2  0  0  0  0
  3  2  1  0  0  0  0
  4  3  1  0  0  0  0
  5  4  1  0  0  0  0
  6  5  1  0  0  0  0
  7  6  1  0  0  0  0
  8  7  2  0  0  0  0
  9  8  1  0  0  0  0
 10  9  1  0  0  0  0
 11 10  2  0  0  0  0
 12 11  1  0  0  0  0
 13 12  1  0  0  0  0
 14 13  1  0  0  0  0
 15 14  1  0  0  0  0
 16 15  1  0  0  0  0
 17 16  1  0  0  0  0
 22 18  1  0  0  0  0
 19 18  1  0  0  0  0
 20 19  1  0  0  0  0
 21 20  1  0  0  0  0
 22 21  1  0  0  0  0
M  END
>  <cdx:fragmentId>
31432

$$$$
