37079.cdx
  Mrv1902 05222410272D          

  8  7  0  0  0  0            999 V2000
    5.9145   -3.6965    0.0000 C   0  0  0  0  0  0  0  0  0  0  0  0
    5.2000   -4.1090    0.0000 C   0  0  0  0  0  0  0  0  0  0  0  0
    4.4855   -3.6965    0.0000 C   0  0  0  0  0  0  0  0  0  0  0  0
    3.7710   -4.1090    0.0000 C   0  0  0  0  0  0  0  0  0  0  0  0
    3.0566   -3.6965    0.0000 C   0  0  0  0  0  0  0  0  0  0  0  0
    2.3421   -4.1090    0.0000 C   0  0  0  0  0  0  0  0  0  0  0  0
    6.6289   -4.1090    0.0000 N   0  0  0  0  0  0  0  0  0  0  0  0
    7.3434   -3.6965    0.0000 C   0  0  0  0  0  0  0  0  0  0  0  0
  1  2  1  0  0  0  0
  2  3  1  0  0  0  0
  3  4  1  0  0  0  0
  4  5  1  0  0  0  0
  5  6  1  0  0  0  0
  1  7  1  0  0  0  0
  7  8  1  0  0  0  0
M  END
>  <cdx:groupId>
25

>  <cdx:fragmentId>
5

$$$$
