3707.cdx
  Mrv1902 05222410282D          

 35 39  0  0  0  0            999 V2000
    3.0145   -8.4975    0.0000 C   0  0  0  0  0  0  0  0  0  0  0  0
    3.0145   -9.3225    0.0000 C   0  0  0  0  0  0  0  0  0  0  0  0
    3.7290   -9.7350    0.0000 C   0  0  0  0  0  0  0  0  0  0  0  0
    4.4435   -9.3225    0.0000 C   0  0  1  0  0  0  0  0  0  0  0  0
    4.4435   -8.4975    0.0000 C   0  0  2  0  0  0  0  0  0  0  0  0
    3.7290   -8.0850    0.0000 C   0  0  0  0  0  0  0  0  0  0  0  0
    5.1579   -9.7350    0.0000 C   0  0  0  0  0  0  0  0  0  0  0  0
    5.8724   -9.3225    0.0000 C   0  0  0  0  0  0  0  0  0  0  0  0
    5.8724   -8.4975    0.0000 C   0  0  2  0  0  0  0  0  0  0  0  0
    5.1579   -8.0850    0.0000 C   0  0  1  0  0  0  0  0  0  0  0  0
    6.5869   -8.0850    0.0000 C   0  0  1  0  0  0  0  0  0  0  0  0
    6.5869   -7.2600    0.0000 C   0  0  2  0  0  0  0  0  0  0  0  0
    5.8724   -6.8475    0.0000 C   0  0  0  0  0  0  0  0  0  0  0  0
    5.1579   -7.2600    0.0000 C   0  0  0  0  0  0  0  0  0  0  0  0
    7.3715   -8.3399    0.0000 C   0  0  0  0  0  0  0  0  0  0  0  0
    7.8564   -7.6725    0.0000 C   0  0  0  0  0  0  0  0  0  0  0  0
    7.3715   -7.0051    0.0000 C   0  0  2  0  0  0  0  0  0  0  0  0
    3.3165  -10.4495    0.0000 C   0  0  0  0  0  0  0  0  0  0  0  0
    4.1415  -10.4495    0.0000 C   0  0  0  0  0  0  0  0  0  0  0  0
    4.4435   -7.6725    0.0000 C   0  0  0  0  0  0  0  0  0  0  0  0
    6.5869   -6.4350    0.0000 C   0  0  0  0  0  0  0  0  0  0  0  0
    6.5869   -8.9100    0.0000 C   0  0  0  0  0  0  0  0  0  0  0  0
    4.4435  -10.1475    0.0000 H   0  0  0  0  0  0  0  0  0  0  0  0
    5.8724   -7.6725    0.0000 H   0  0  0  0  0  0  0  0  0  0  0  0
    2.3001   -9.7350    0.0000 O   0  0  0  0  0  0  0  0  0  0  0  0
    7.6264   -6.2204    0.0000 C   0  0  2  0  0  0  0  0  0  0  0  0
    7.0744   -5.6073    0.0000 C   0  0  0  0  0  0  0  0  0  0  0  0
    8.4334   -6.0489    0.0000 C   0  0  0  0  0  0  0  0  0  0  0  0
    8.6884   -5.2643    0.0000 C   0  0  0  0  0  0  0  0  0  0  0  0
    9.4953   -5.0928    0.0000 C   0  0  0  0  0  0  0  0  0  0  0  0
   10.0474   -5.7059    0.0000 C   0  0  0  0  0  0  0  0  0  0  0  0
    9.7503   -4.3081    0.0000 C   0  0  0  0  0  0  0  0  0  0  0  0
    9.1982   -3.6950    0.0000 C   0  0  0  0  0  0  0  0  0  0  0  0
   10.5572   -4.1366    0.0000 C   0  0  0  0  0  0  0  0  0  0  0  0
    8.1965   -7.0051    0.0000 H   0  0  0  0  0  0  0  0  0  0  0  0
  1  2  1  0  0  0  0
  2  3  1  0  0  0  0
  3  4  1  0  0  0  0
  4  5  1  0  0  0  0
  5  6  1  0  0  0  0
  6  1  1  0  0  0  0
  4  7  1  0  0  0  0
  7  8  1  0  0  0  0
  8  9  1  0  0  0  0
  9 10  1  0  0  0  0
 10  5  1  0  0  0  0
  9 11  1  0  0  0  0
 11 12  1  0  0  0  0
 12 13  1  0  0  0  0
 13 14  1  0  0  0  0
 14 10  1  0  0  0  0
 11 15  1  0  0  0  0
 15 16  1  0  0  0  0
 16 17  1  0  0  0  0
 17 12  1  0  0  0  0
  3 18  1  0  0  0  0
  3 19  1  0  0  0  0
  5 20  1  1  0  0  0
 10 20  1  1  0  0  0
 12 21  1  1  0  0  0
 11 22  1  6  0  0  0
  4 23  1  6  0  0  0
  9 24  1  1  0  0  0
  2 25  2  0  0  0  0
 17 26  1  0  0  0  0
 26 27  1  6  0  0  0
 26 28  1  0  0  0  0
 28 29  1  0  0  0  0
 29 30  1  0  0  0  0
 30 31  2  0  0  0  0
 30 32  1  0  0  0  0
 32 33  1  0  0  0  0
 32 34  1  0  0  0  0
 17 35  1  6  0  0  0
M  END
>  <cdx:fragmentId>
5

$$$$
