371256.cdx
  Mrv1902 05222410242D          

 26 28  0  0  0  0            999 V2000
    7.2755   -8.0767    0.0000 C   0  0  0  0  0  0  0  0  0  0  0  0
    7.9900   -7.6642    0.0000 N   0  3  0  0  0  0  0  0  0  0  0  0
    7.9900   -6.8392    0.0000 C   0  0  0  0  0  0  0  0  0  0  0  0
    7.2755   -6.4267    0.0000 C   0  0  0  0  0  0  0  0  0  0  0  0
    6.5610   -6.8392    0.0000 C   0  0  0  0  0  0  0  0  0  0  0  0
    5.8466   -6.4267    0.0000 C   0  0  0  0  0  0  0  0  0  0  0  0
    5.1321   -6.8392    0.0000 C   0  0  0  0  0  0  0  0  0  0  0  0
    5.1321   -7.6642    0.0000 C   0  0  0  0  0  0  0  0  0  0  0  0
    5.8466   -8.0767    0.0000 C   0  0  0  0  0  0  0  0  0  0  0  0
    6.5610   -7.6642    0.0000 C   0  0  0  0  0  0  0  0  0  0  0  0
    8.7045   -8.0767    0.0000 C   0  0  0  0  0  0  0  0  0  0  0  0
    9.4189   -7.6642    0.0000 C   0  0  0  0  0  0  0  0  0  0  0  0
    9.4189   -6.8392    0.0000 C   0  0  0  0  0  0  0  0  0  0  0  0
   10.1334   -6.4267    0.0000 C   0  0  0  0  0  0  0  0  0  0  0  0
   10.1334   -5.6017    0.0000 C   0  0  0  0  0  0  0  0  0  0  0  0
    9.4189   -5.1892    0.0000 C   0  0  0  0  0  0  0  0  0  0  0  0
    8.7045   -5.6017    0.0000 C   0  0  0  0  0  0  0  0  0  0  0  0
    8.7045   -6.4267    0.0000 C   0  0  0  0  0  0  0  0  0  0  0  0
   10.8479   -5.1892    0.0000 O   0  0  0  0  0  0  0  0  0  0  0  0
    4.4176   -8.0767    0.0000 O   0  0  0  0  0  0  0  0  0  0  0  0
    3.7032   -7.6642    0.0000 C   0  0  0  0  0  0  0  0  0  0  0  0
    5.8466   -8.9017    0.0000 O   0  0  0  0  0  0  0  0  0  0  0  0
    5.1321   -9.3142    0.0000 C   0  0  0  0  0  0  0  0  0  0  0  0
    9.4189   -4.3642    0.0000 O   0  0  0  0  0  0  0  0  0  0  0  0
   10.1334   -3.9517    0.0000 C   0  0  0  0  0  0  0  0  0  0  0  0
    7.9900   -8.4892    0.0000 Cl  0  5  0  0  0  0  0  0  0  0  0  0
  1  2  1  0  0  0  0
  2  3  2  0  0  0  0
  3  4  1  0  0  0  0
  4  5  2  0  0  0  0
  5  6  1  0  0  0  0
  6  7  2  0  0  0  0
  7  8  1  0  0  0  0
  8  9  2  0  0  0  0
  9 10  1  0  0  0  0
  1 10  2  0  0  0  0
  5 10  1  0  0  0  0
 11 12  1  0  0  0  0
 12 13  1  0  0  0  0
 13 14  1  0  0  0  0
 14 15  2  0  0  0  0
 15 16  1  0  0  0  0
 16 17  2  0  0  0  0
 17 18  1  0  0  0  0
 13 18  2  0  0  0  0
 11  2  1  0  0  0  0
 18  3  1  0  0  0  0
 15 19  1  0  0  0  0
 20 21  1  0  0  0  0
  8 20  1  0  0  0  0
 22 23  1  0  0  0  0
  9 22  1  0  0  0  0
 24 25  1  0  0  0  0
 16 24  1  0  0  0  0
M  CHG  2   2   1  26  -1
M  END
>  <cdx:groupId>
82

>  <cdx:fragmentId>
53

$$$$
