5371301.cdx
  Mrv1902 05222410232D          

 15 15  0  0  0  0            999 V2000
   16.8934   -8.8846    0.0000 C   0  0  0  0  0  0  0  0  0  0  0  0
   16.1789   -8.4721    0.0000 C   0  0  0  0  0  0  0  0  0  0  0  0
   16.1789   -7.6471    0.0000 C   0  0  0  0  0  0  0  0  0  0  0  0
   16.8934   -7.2346    0.0000 C   0  0  0  0  0  0  0  0  0  0  0  0
   17.6079   -7.6471    0.0000 C   0  0  0  0  0  0  0  0  0  0  0  0
   17.6079   -8.4721    0.0000 C   0  0  0  0  0  0  0  0  0  0  0  0
   16.8934   -9.7096    0.0000 O   0  0  0  0  0  0  0  0  0  0  0  0
   15.4645   -8.8846    0.0000 C   0  0  0  0  0  0  0  0  0  0  0  0
   14.7500   -8.4721    0.0000 C   0  0  0  0  0  0  0  0  0  0  0  0
   14.0355   -8.8846    0.0000 C   0  0  0  0  0  0  0  0  0  0  0  0
   14.0355   -9.7096    0.0000 C   0  0  0  0  0  0  0  0  0  0  0  0
   13.3210   -8.4721    0.0000 C   0  0  0  0  0  0  0  0  0  0  0  0
   15.3539   -7.6471    0.0000 C   0  0  0  0  0  0  0  0  0  0  0  0
   15.7664   -6.9327    0.0000 C   0  0  0  0  0  0  0  0  0  0  0  0
   16.1789   -9.2971    0.0000 C   0  0  0  0  0  0  0  0  0  0  0  0
  1  2  1  0  0  0  0
  2  3  1  0  0  0  0
  3  4  1  0  0  0  0
  4  5  1  0  0  0  0
  5  6  1  0  0  0  0
  1  6  1  0  0  0  0
  1  7  2  0  0  0  0
  8  9  2  0  0  0  0
  9 10  1  0  0  0  0
 10 11  2  0  0  0  0
 10 12  1  0  0  0  0
  2  8  1  0  0  0  0
  3 13  1  0  0  0  0
  3 14  1  0  0  0  0
  2 15  1  0  0  0  0
M  END
>  <cdx:groupId>
31570

>  <cdx:fragmentId>
31528

$$$$
