5371839.cdx
  Mrv1902 05222410262D          

 15 16  0  0  0  0            999 V2000
    9.2009   -6.7874    0.0000 C   0  0  0  0  0  0  0  0  0  0  0  0
    8.4864   -7.1999    0.0000 C   0  0  0  0  0  0  0  0  0  0  0  0
    7.7719   -6.7874    0.0000 C   0  0  0  0  0  0  0  0  0  0  0  0
    7.7719   -5.9624    0.0000 C   0  0  0  0  0  0  0  0  0  0  0  0
    8.4864   -5.5499    0.0000 C   0  0  0  0  0  0  0  0  0  0  0  0
    9.2009   -5.9624    0.0000 C   0  0  0  0  0  0  0  0  0  0  0  0
    9.9153   -6.3749    0.0000 C   0  0  0  0  0  0  0  0  0  0  0  0
    8.4864   -8.0249    0.0000 C   0  0  0  0  0  0  0  0  0  0  0  0
    7.0575   -7.1999    0.0000 C   0  0  0  0  0  0  0  0  0  0  0  0
    6.3430   -6.7874    0.0000 C   0  0  0  0  0  0  0  0  0  0  0  0
    5.6285   -7.1999    0.0000 C   0  0  0  0  0  0  0  0  0  0  0  0
    5.6285   -8.0249    0.0000 C   0  0  0  0  0  0  0  0  0  0  0  0
    4.9140   -6.7874    0.0000 C   0  0  0  0  0  0  0  0  0  0  0  0
    6.9469   -5.9624    0.0000 C   0  0  0  0  0  0  0  0  0  0  0  0
    7.3594   -5.2480    0.0000 C   0  0  0  0  0  0  0  0  0  0  0  0
  1  2  1  0  0  0  0
  2  3  1  0  0  0  0
  3  4  1  0  0  0  0
  4  5  1  0  0  0  0
  5  6  1  0  0  0  0
  6  7  1  0  0  0  0
  1  7  1  0  0  0  0
  1  6  1  0  0  0  0
  2  8  2  0  0  0  0
  9 10  1  0  0  0  0
 10 11  1  0  0  0  0
 11 12  2  0  0  0  0
 11 13  1  0  0  0  0
  3  9  2  0  0  0  0
  4 14  1  0  0  0  0
  4 15  1  0  0  0  0
M  END
>  <cdx:groupId>
48

>  <cdx:fragmentId>
5

$$$$
