5371961.cdx
  Mrv1902 05222410282D          

 11 11  0  0  0  0            999 V2000
    9.0617   -7.1687    0.0000 N   0  0  0  0  0  0  0  0  0  0  0  0
    9.7762   -7.5812    0.0000 O   0  0  0  0  0  0  0  0  0  0  0  0
    8.3472   -7.5812    0.0000 C   0  0  0  0  0  0  0  0  0  0  0  0
    7.6327   -7.1687    0.0000 C   0  0  0  0  0  0  0  0  0  0  0  0
    6.9183   -7.5812    0.0000 C   0  0  0  0  0  0  0  0  0  0  0  0
    6.2038   -7.1687    0.0000 C   0  0  0  0  0  0  0  0  0  0  0  0
    6.2038   -6.3437    0.0000 C   0  0  0  0  0  0  0  0  0  0  0  0
    6.9183   -5.9312    0.0000 C   0  0  0  0  0  0  0  0  0  0  0  0
    7.6327   -6.3437    0.0000 C   0  0  0  0  0  0  0  0  0  0  0  0
    5.4893   -5.9312    0.0000 O   0  0  0  0  0  0  0  0  0  0  0  0
    4.7749   -6.3437    0.0000 C   0  0  0  0  0  0  0  0  0  0  0  0
  1  2  1  0  0  0  0
  4  5  1  0  0  0  0
  5  6  2  0  0  0  0
  6  7  1  0  0  0  0
  7  8  2  0  0  0  0
  8  9  1  0  0  0  0
  4  9  2  0  0  0  0
 10 11  1  0  0  0  0
  7 10  1  0  0  0  0
  3  4  1  0  0  0  0
  1  3  2  0  0  0  0
M  END
>  <cdx:fragmentId>
3

$$$$
