372072.cdx
  Mrv1902 05222410272D          

 18 19  0  0  0  0            999 V2000
    6.8025   -6.9602    0.0000 Si  0  0  0  0  0  0  0  0  0  0  0  0
    6.0880   -7.3727    0.0000 C   0  0  0  0  0  0  0  0  0  0  0  0
    6.8025   -7.7852    0.0000 C   0  0  0  0  0  0  0  0  0  0  0  0
    6.0880   -6.5477    0.0000 C   0  0  0  0  0  0  0  0  0  0  0  0
    7.5170   -6.5477    0.0000 C   0  0  0  0  0  0  0  0  0  0  0  0
    8.2314   -6.9602    0.0000 C   0  0  0  0  0  0  0  0  0  0  0  0
    8.2314   -7.7852    0.0000 C   0  0  0  0  0  0  0  0  0  0  0  0
    8.9459   -8.1977    0.0000 C   0  0  0  0  0  0  0  0  0  0  0  0
    8.9459   -9.0227    0.0000 C   0  0  0  0  0  0  0  0  0  0  0  0
    8.2314   -9.4352    0.0000 C   0  0  0  0  0  0  0  0  0  0  0  0
    7.5170   -9.0227    0.0000 C   0  0  0  0  0  0  0  0  0  0  0  0
    7.5170   -8.1977    0.0000 C   0  0  0  0  0  0  0  0  0  0  0  0
    7.5170   -5.7227    0.0000 C   0  0  0  0  0  0  0  0  0  0  0  0
    6.8025   -5.3102    0.0000 C   0  0  0  0  0  0  0  0  0  0  0  0
    6.8025   -4.4852    0.0000 C   0  0  0  0  0  0  0  0  0  0  0  0
    7.5170   -4.0727    0.0000 C   0  0  0  0  0  0  0  0  0  0  0  0
    8.2314   -4.4852    0.0000 C   0  0  0  0  0  0  0  0  0  0  0  0
    8.2314   -5.3102    0.0000 C   0  0  0  0  0  0  0  0  0  0  0  0
  1  2  1  0  0  0  0
  1  3  1  0  0  0  0
  1  4  1  0  0  0  0
  5  6  2  0  0  0  0
  7  8  1  0  0  0  0
  8  9  2  0  0  0  0
  9 10  1  0  0  0  0
 10 11  2  0  0  0  0
 11 12  1  0  0  0  0
  7 12  2  0  0  0  0
  6  7  1  0  0  0  0
 13 14  1  0  0  0  0
 14 15  2  0  0  0  0
 15 16  1  0  0  0  0
 16 17  2  0  0  0  0
 17 18  1  0  0  0  0
 13 18  2  0  0  0  0
  5 13  1  0  0  0  0
  1  5  1  0  0  0  0
M  END
>  <cdx:fragmentId>
31591

$$$$
