372162.cdx
  Mrv1902 05222410232D          

 26 27  0  0  0  0            999 V2000
   11.8557  -10.0235    0.0000 C   0  0  0  0  0  0  0  0  0  0  0  0
   11.1412   -9.6110    0.0000 C   0  0  0  0  0  0  0  0  0  0  0  0
   11.1412   -8.7860    0.0000 C   0  0  0  0  0  0  0  0  0  0  0  0
   11.8557   -8.3735    0.0000 C   0  0  0  0  0  0  0  0  0  0  0  0
   12.5702   -9.6110    0.0000 C   0  0  0  0  0  0  0  0  0  0  0  0
   12.5702   -8.7860    0.0000 C   0  0  0  0  0  0  0  0  0  0  0  0
   13.3548   -8.5310    0.0000 O   0  0  0  0  0  0  0  0  0  0  0  0
   13.8397   -9.1985    0.0000 C   0  0  0  0  0  0  0  0  0  0  0  0
   13.3548   -9.8659    0.0000 O   0  0  0  0  0  0  0  0  0  0  0  0
    1.1386   -9.6110    0.0000 C   0  0  0  0  0  0  0  0  0  0  0  0
    0.4242   -8.3735    0.0000 C   0  0  0  0  0  0  0  0  0  0  0  0
    1.1386   -8.7860    0.0000 C   0  0  0  0  0  0  0  0  0  0  0  0
    1.8531   -8.3735    0.0000 C   0  0  0  0  0  0  0  0  0  0  0  0
    2.5676   -8.7860    0.0000 N   0  0  0  0  0  0  0  0  0  0  0  0
    3.2820   -7.5485    0.0000 O   0  0  0  0  0  0  0  0  0  0  0  0
   10.4268   -8.3735    0.0000 C   0  0  0  0  0  0  0  0  0  0  0  0
    9.7123   -8.7860    0.0000 C   0  0  0  0  0  0  0  0  0  0  0  0
    8.9978   -8.3735    0.0000 C   0  0  0  0  0  0  0  0  0  0  0  0
    8.2833   -8.7860    0.0000 C   0  0  0  0  0  0  0  0  0  0  0  0
    7.5689   -8.3735    0.0000 C   0  0  0  0  0  0  0  0  0  0  0  0
    6.8544   -8.7860    0.0000 C   0  0  0  0  0  0  0  0  0  0  0  0
    6.1399   -8.3735    0.0000 C   0  0  0  0  0  0  0  0  0  0  0  0
    5.4255   -8.7860    0.0000 C   0  0  0  0  0  0  0  0  0  0  0  0
    4.7110   -8.3735    0.0000 C   0  0  0  0  0  0  0  0  0  0  0  0
    3.9965   -8.7860    0.0000 C   0  0  0  0  0  0  0  0  0  0  0  0
    3.2820   -8.3735    0.0000 C   0  0  0  0  0  0  0  0  0  0  0  0
 16  3  1  0  0  0  0
  4  6  2  0  0  0  0
  1  5  2  0  0  0  0
  2  1  1  0  0  0  0
  3  2  2  0  0  0  0
  4  3  1  0  0  0  0
  9  5  1  0  0  0  0
  6  5  1  0  0  0  0
  7  6  1  0  0  0  0
  8  7  1  0  0  0  0
  9  8  1  0  0  0  0
 14 13  1  0  0  0  0
 12 10  1  0  0  0  0
 12 11  1  0  0  0  0
 13 12  1  0  0  0  0
 26 14  1  0  0  0  0
 26 15  2  0  0  0  0
 17 16  2  0  0  0  0
 18 17  1  0  0  0  0
 19 18  1  0  0  0  0
 20 19  1  0  0  0  0
 21 20  1  0  0  0  0
 22 21  1  0  0  0  0
 23 22  2  0  0  0  0
 24 23  1  0  0  0  0
 25 24  2  0  0  0  0
 26 25  1  0  0  0  0
M  END
>  <cdx:groupId>
31770

>  <cdx:fragmentId>
31694

$$$$
