5372142.cdx
  Mrv1902 05222410202D          

 16 16  0  0  0  0            999 V2000
   15.2169   -7.2179    0.0000 C   0  0  0  0  0  0  0  0  0  0  0  0
   16.0419   -7.2179    0.0000 C   0  0  0  0  0  0  0  0  0  0  0  0
   16.4544   -7.9323    0.0000 C   0  0  0  0  0  0  0  0  0  0  0  0
   16.0419   -8.6468    0.0000 C   0  0  0  0  0  0  0  0  0  0  0  0
   16.5563   -9.2918    0.0000 C   0  0  0  0  0  0  0  0  0  0  0  0
   16.3727  -10.0961    0.0000 C   0  0  0  0  0  0  0  0  0  0  0  0
   15.6294  -10.4541    0.0000 C   0  0  0  0  0  0  0  0  0  0  0  0
   14.8861  -10.0961    0.0000 C   0  0  0  0  0  0  0  0  0  0  0  0
   14.7025   -9.2918    0.0000 C   0  0  0  0  0  0  0  0  0  0  0  0
   15.2169   -8.6468    0.0000 C   0  0  0  0  0  0  0  0  0  0  0  0
   14.8044   -7.9323    0.0000 C   0  0  0  0  0  0  0  0  0  0  0  0
   14.8044   -6.5034    0.0000 O   0  0  0  0  0  0  0  0  0  0  0  0
   13.9142   -9.5350    0.0000 C   0  0  0  0  0  0  0  0  0  0  0  0
   14.0977   -8.7307    0.0000 C   0  0  0  0  0  0  0  0  0  0  0  0
   17.0177  -10.6105    0.0000 C   0  0  0  0  0  0  0  0  0  0  0  0
   16.4544   -6.5034    0.0000 C   0  0  0  0  0  0  0  0  0  0  0  0
  1  2  1  0  0  0  0
  2  3  2  0  0  0  0
  3  4  1  0  0  0  0
  4  5  1  0  0  0  0
  5  6  1  0  0  0  0
  6  7  2  0  0  0  0
  7  8  1  0  0  0  0
  8  9  1  0  0  0  0
  9 10  1  0  0  0  0
 10 11  2  0  0  0  0
  1 11  1  0  0  0  0
  1 12  2  0  0  0  0
  9 13  1  0  0  0  0
  9 14  1  0  0  0  0
  6 15  1  0  0  0  0
  2 16  1  0  0  0  0
M  END
>  <cdx:groupId>
31683

>  <cdx:fragmentId>
31638

$$$$
