37246.cdx
  Mrv1902 05222410272D          

 12 12  0  0  0  0            999 V2000
    4.0403   -3.0007    0.0000 C   0  0  0  0  0  0  0  0  0  0  0  0
    4.0403   -3.8257    0.0000 C   0  0  0  0  0  0  0  0  0  0  0  0
    4.7548   -4.2382    0.0000 C   0  0  0  0  0  0  0  0  0  0  0  0
    5.4693   -3.8257    0.0000 C   0  0  0  0  0  0  0  0  0  0  0  0
    5.4693   -3.0007    0.0000 C   0  0  0  0  0  0  0  0  0  0  0  0
    4.7548   -2.5882    0.0000 C   0  0  0  0  0  0  0  0  0  0  0  0
    3.3258   -2.5882    0.0000 O   0  0  0  0  0  0  0  0  0  0  0  0
    6.1837   -4.2382    0.0000 O   0  0  0  0  0  0  0  0  0  0  0  0
    5.8818   -2.2862    0.0000 C   0  0  0  0  0  0  0  0  0  0  0  0
    6.2943   -3.0007    0.0000 C   0  0  0  0  0  0  0  0  0  0  0  0
    4.7548   -5.0632    0.0000 C   0  0  0  0  0  0  0  0  0  0  0  0
    3.3258   -4.2382    0.0000 O   0  0  0  0  0  0  0  0  0  0  0  0
  1  2  1  0  0  0  0
  2  3  2  0  0  0  0
  3  4  1  0  0  0  0
  4  5  1  0  0  0  0
  5  6  1  0  0  0  0
  1  6  1  0  0  0  0
  1  7  2  0  0  0  0
  4  8  2  0  0  0  0
  5  9  1  0  0  0  0
  5 10  1  0  0  0  0
  3 11  1  0  0  0  0
  2 12  1  0  0  0  0
M  END
>  <cdx:groupId>
38

>  <cdx:fragmentId>
5

$$$$
