372743.cdx
  Mrv1902 05222410222D          

  9  8  0  0  0  0            999 V2000
    6.3533   -7.6086    0.0000 C   0  0  0  0  0  0  0  0  0  0  0  0
    6.3533   -6.7836    0.0000 C   0  0  0  0  0  0  0  0  0  0  0  0
    7.0678   -6.3711    0.0000 C   0  0  0  0  0  0  0  0  0  0  0  0
    7.7822   -6.7836    0.0000 C   0  0  0  0  0  0  0  0  0  0  0  0
    8.4967   -6.3711    0.0000 C   0  0  0  0  0  0  0  0  0  0  0  0
    9.2112   -6.7836    0.0000 C   0  0  0  0  0  0  0  0  0  0  0  0
    7.0678   -5.5461    0.0000 C   0  0  0  0  0  0  0  0  0  0  0  0
    5.6388   -6.3711    0.0000 C   0  0  0  0  0  0  0  0  0  0  0  0
    7.7822   -7.6086    0.0000 Cl  0  0  0  0  0  0  0  0  0  0  0  0
  1  2  2  0  0  0  0
  2  3  1  0  0  0  0
  3  4  2  0  0  0  0
  4  5  1  0  0  0  0
  5  6  1  0  0  0  0
  3  7  1  0  0  0  0
  2  8  1  0  0  0  0
  4  9  1  0  0  0  0
M  END
>  <cdx:fragmentId>
5

$$$$
