5373288.cdx
  Mrv1902 05222410212D          

 25 27  0  0  0  0            999 V2000
   15.8500   -7.2140    0.0000 S   0  0  0  0  0  0  0  0  0  0  0  0
   15.0430   -7.3855    0.0000 C   0  0  0  0  0  0  0  0  0  0  0  0
   14.9568   -8.2060    0.0000 N   0  0  0  0  0  0  0  0  0  0  0  0
   15.7105   -8.5416    0.0000 C   0  0  0  0  0  0  0  0  0  0  0  0
   16.2625   -7.9285    0.0000 C   0  0  0  0  0  0  0  0  0  0  0  0
   14.4299   -6.8335    0.0000 O   0  0  0  0  0  0  0  0  0  0  0  0
   15.8820   -9.3485    0.0000 O   0  0  0  0  0  0  0  0  0  0  0  0
   17.0830   -8.0147    0.0000 C   0  0  0  0  0  0  0  0  0  0  0  0
   17.4185   -8.7684    0.0000 C   0  0  0  0  0  0  0  0  0  0  0  0
   18.2390   -8.8546    0.0000 C   0  0  0  0  0  0  0  0  0  0  0  0
   18.5746   -9.6083    0.0000 C   0  0  0  0  0  0  0  0  0  0  0  0
   18.0896  -10.2757    0.0000 C   0  0  0  0  0  0  0  0  0  0  0  0
   17.2692  -10.1895    0.0000 C   0  0  0  0  0  0  0  0  0  0  0  0
   16.9336   -9.4358    0.0000 C   0  0  0  0  0  0  0  0  0  0  0  0
   19.3950   -9.6945    0.0000 F   0  0  0  0  0  0  0  0  0  0  0  0
   14.2423   -8.6185    0.0000 C   0  0  0  0  0  0  0  0  0  0  0  0
   13.5278   -8.2060    0.0000 N   0  0  0  0  0  0  0  0  0  0  0  0
   12.8134   -8.6185    0.0000 C   0  0  0  0  0  0  0  0  0  0  0  0
   12.8134   -9.4435    0.0000 C   0  0  0  0  0  0  0  0  0  0  0  0
   12.0989   -9.8560    0.0000 C   0  0  0  0  0  0  0  0  0  0  0  0
   11.3844   -9.4435    0.0000 C   0  0  0  0  0  0  0  0  0  0  0  0
   11.3844   -8.6185    0.0000 C   0  0  0  0  0  0  0  0  0  0  0  0
   12.0989   -8.2060    0.0000 C   0  0  0  0  0  0  0  0  0  0  0  0
   13.5278   -9.8560    0.0000 O   0  0  0  0  0  0  0  0  0  0  0  0
   14.2423   -9.4435    0.0000 C   0  0  0  0  0  0  0  0  0  0  0  0
  1  2  1  0  0  0  0
  2  3  1  0  0  0  0
  3  4  1  0  0  0  0
  4  5  1  0  0  0  0
  1  5  1  0  0  0  0
  2  6  2  0  0  0  0
  4  7  2  0  0  0  0
  8  9  1  0  0  0  0
  9 10  1  0  0  0  0
 10 11  2  0  0  0  0
 11 12  1  0  0  0  0
 12 13  2  0  0  0  0
 13 14  1  0  0  0  0
  9 14  2  0  0  0  0
 11 15  1  0  0  0  0
  5  8  2  0  0  0  0
 17 18  1  0  0  0  0
 18 19  1  0  0  0  0
 19 20  2  0  0  0  0
 20 21  1  0  0  0  0
 21 22  2  0  0  0  0
 22 23  1  0  0  0  0
 18 23  2  0  0  0  0
 24 25  1  0  0  0  0
 19 24  1  0  0  0  0
 16 17  1  0  0  0  0
  3 16  1  0  0  0  0
M  END
>  <cdx:groupId>
32090

>  <cdx:fragmentId>
32030

$$$$
