373545.cdx
  Mrv1902 05222410262D          

 13 13  0  0  0  0            999 V2000
    6.3533   -6.2126    0.0000 C   0  0  0  0  0  0  0  0  0  0  0  0
    7.0678   -6.6251    0.0000 C   0  0  0  0  0  0  0  0  0  0  0  0
    7.0678   -7.4501    0.0000 C   0  0  0  0  0  0  0  0  0  0  0  0
    6.3533   -7.8626    0.0000 C   0  0  0  0  0  0  0  0  0  0  0  0
    5.6388   -7.4501    0.0000 C   0  0  0  0  0  0  0  0  0  0  0  0
    5.6388   -6.6251    0.0000 C   0  0  0  0  0  0  0  0  0  0  0  0
    4.9244   -7.8626    0.0000 C   0  0  0  0  0  0  0  0  0  0  0  0
    7.7822   -7.8626    0.0000 C   0  0  0  0  0  0  0  0  0  0  0  0
    6.3533   -5.3876    0.0000 C   0  0  0  0  0  0  0  0  0  0  0  0
    7.7822   -6.2126    0.0000 C   0  0  0  0  0  0  0  0  0  0  0  0
    8.4967   -6.6251    0.0000 C   0  0  0  0  0  0  0  0  0  0  0  0
    9.2112   -6.2126    0.0000 C   0  0  0  0  0  0  0  0  0  0  0  0
    9.9256   -6.6251    0.0000 C   0  0  0  0  0  0  0  0  0  0  0  0
  1  2  1  0  0  0  0
  2  3  2  0  0  0  0
  3  4  1  0  0  0  0
  4  5  2  0  0  0  0
  5  6  1  0  0  0  0
  1  6  2  0  0  0  0
  5  7  1  0  0  0  0
  3  8  1  0  0  0  0
  1  9  1  0  0  0  0
 10 11  2  0  0  0  0
 11 12  1  0  0  0  0
 12 13  2  0  0  0  0
  2 10  1  0  0  0  0
M  END
>  <cdx:fragmentId>
5

$$$$
