374379.cdx
  Mrv1902 05222410202D          

 25 26  0  0  0  0            999 V2000
    3.4988   -8.3457    0.0000 C   0  0  0  0  0  0  0  0  0  0  0  0
   10.6436   -7.5207    0.0000 C   0  0  0  0  0  0  0  0  0  0  0  0
    9.9291   -7.1082    0.0000 C   0  0  0  0  0  0  0  0  0  0  0  0
    9.2146   -7.5207    0.0000 C   0  0  0  0  0  0  0  0  0  0  0  0
    8.5001   -7.1082    0.0000 C   0  0  0  0  0  0  0  0  0  0  0  0
    7.7857   -7.5207    0.0000 C   0  0  0  0  0  0  0  0  0  0  0  0
    7.0712   -7.1082    0.0000 C   0  0  0  0  0  0  0  0  0  0  0  0
    6.3567   -7.5207    0.0000 C   0  0  0  0  0  0  0  0  0  0  0  0
    5.6423   -7.1082    0.0000 C   0  0  0  0  0  0  0  0  0  0  0  0
    4.9278   -7.5207    0.0000 C   0  0  0  0  0  0  0  0  0  0  0  0
    3.4988   -5.0457    0.0000 O   0  0  0  0  0  0  0  0  0  0  0  0
    2.7844   -7.1082    0.0000 C   0  0  0  0  0  0  0  0  0  0  0  0
    2.0699   -7.5207    0.0000 C   0  0  0  0  0  0  0  0  0  0  0  0
    1.3554   -7.1082    0.0000 C   0  0  0  0  0  0  0  0  0  0  0  0
    1.3554   -6.2832    0.0000 C   0  0  0  0  0  0  0  0  0  0  0  0
    2.0699   -5.8707    0.0000 C   0  0  0  0  0  0  0  0  0  0  0  0
    2.7844   -6.2832    0.0000 C   0  0  0  0  0  0  0  0  0  0  0  0
    3.4988   -5.8707    0.0000 C   0  0  0  0  0  0  0  0  0  0  0  0
    4.2133   -6.2832    0.0000 C   0  0  0  0  0  0  0  0  0  0  0  0
    4.2133   -7.1082    0.0000 C   0  0  0  0  0  0  0  0  0  0  0  0
    3.4988   -7.5207    0.0000 N   0  0  0  0  0  0  0  0  0  0  0  0
   10.6436   -8.3457    0.0000 C   0  0  0  0  0  0  0  0  0  0  0  0
   11.3580   -8.7582    0.0000 C   0  0  0  0  0  0  0  0  0  0  0  0
   11.3580   -9.5832    0.0000 C   0  0  0  0  0  0  0  0  0  0  0  0
   12.0725   -9.9957    0.0000 C   0  0  0  0  0  0  0  0  0  0  0  0
 21  1  1  0  0  0  0
 20 10  1  0  0  0  0
  3  2  2  0  0  0  0
  4  3  1  0  0  0  0
  5  4  1  0  0  0  0
  6  5  1  0  0  0  0
  7  6  1  0  0  0  0
  8  7  1  0  0  0  0
  9  8  1  0  0  0  0
 10  9  1  0  0  0  0
 18 11  2  0  0  0  0
 17 12  2  0  0  0  0
 21 12  1  0  0  0  0
 13 12  1  0  0  0  0
 14 13  2  0  0  0  0
 15 14  1  0  0  0  0
 16 15  2  0  0  0  0
 17 16  1  0  0  0  0
 18 17  1  0  0  0  0
 19 18  1  0  0  0  0
 20 19  2  0  0  0  0
 21 20  1  0  0  0  0
  2 22  1  0  0  0  0
 22 23  1  0  0  0  0
 23 24  1  0  0  0  0
 24 25  1  0  0  0  0
M  END
>  <cdx:fragmentId>
27

$$$$
