374451.cdx
  Mrv1902 05222410222D          

 19 20  0  0  0  0            999 V2000
    8.8825   -7.6947    0.0000 O   0  0  0  0  0  0  0  0  0  0  0  0
   10.3115   -9.3447    0.0000 O   0  0  0  0  0  0  0  0  0  0  0  0
   10.3115   -8.5197    0.0000 C   0  0  0  0  0  0  0  0  0  0  0  0
    9.5970   -9.7572    0.0000 C   0  0  0  0  0  0  0  0  0  0  0  0
    9.5970   -8.9322    0.0000 C   0  0  0  0  0  0  0  0  0  0  0  0
    8.8825   -8.5197    0.0000 C   0  0  1  0  0  0  0  0  0  0  0  0
    8.1681   -8.9322    0.0000 C   0  0  0  0  0  0  0  0  0  0  0  0
    8.1681   -7.2822    0.0000 O   0  0  0  0  0  0  0  0  0  0  0  0
    3.8812   -7.2822    0.0000 O   0  0  0  0  0  0  0  0  0  0  0  0
    5.3102   -7.2822    0.0000 O   0  0  0  0  0  0  0  0  0  0  0  0
    6.0246   -7.6947    0.0000 C   0  0  0  0  0  0  0  0  0  0  0  0
    6.7391   -7.2822    0.0000 C   0  0  0  0  0  0  0  0  0  0  0  0
    7.4536   -7.6947    0.0000 C   0  0  0  0  0  0  0  0  0  0  0  0
    7.4536   -8.5197    0.0000 C   0  0  0  0  0  0  0  0  0  0  0  0
    6.7391   -8.9322    0.0000 C   0  0  0  0  0  0  0  0  0  0  0  0
    6.0246   -8.5197    0.0000 C   0  0  0  0  0  0  0  0  0  0  0  0
    5.3102   -8.9322    0.0000 C   0  0  0  0  0  0  0  0  0  0  0  0
    4.5957   -8.5197    0.0000 C   0  0  0  0  0  0  0  0  0  0  0  0
    4.5957   -7.6947    0.0000 C   0  0  0  0  0  0  0  0  0  0  0  0
 14  7  1  0  0  0  0
  6  1  1  1  0  0  0
  5  2  1  0  0  0  0
  5  3  1  0  0  0  0
  5  4  1  0  0  0  0
  6  5  1  0  0  0  0
  7  6  1  0  0  0  0
 13  8  1  0  0  0  0
 19  9  2  0  0  0  0
 19 10  1  0  0  0  0
 11 10  1  0  0  0  0
 16 11  2  0  0  0  0
 12 11  1  0  0  0  0
 13 12  2  0  0  0  0
 14 13  1  0  0  0  0
 15 14  2  0  0  0  0
 16 15  1  0  0  0  0
 17 16  1  0  0  0  0
 18 17  2  0  0  0  0
 19 18  1  0  0  0  0
M  END
>  <cdx:fragmentId>
5

$$$$
