5374611.cdx
  Mrv1902 05222410272D          

 16 17  0  0  0  0            999 V2000
   15.9102   -8.1409    0.0000 C   0  0  0  0  0  0  0  0  0  0  0  0
   15.3268   -7.5575    0.0000 C   0  0  0  0  0  0  0  0  0  0  0  0
   14.5018   -7.5575    0.0000 C   0  0  0  0  0  0  0  0  0  0  0  0
   13.9184   -8.1409    0.0000 C   0  0  2  0  0  0  0  0  0  0  0  0
   13.9184   -8.9659    0.0000 C   0  0  0  0  0  0  0  0  0  0  0  0
   14.5018   -9.5492    0.0000 C   0  0  0  0  0  0  0  0  0  0  0  0
   15.3268   -9.5492    0.0000 C   0  0  0  0  0  0  0  0  0  0  0  0
   15.9102   -8.9659    0.0000 C   0  0  1  0  0  0  0  0  0  0  0  0
   16.6948   -9.2208    0.0000 C   0  0  0  0  0  0  0  0  0  0  0  0
   17.1797   -8.5534    0.0000 C   0  0  1  0  0  0  0  0  0  0  0  0
   16.6948   -7.8859    0.0000 C   0  0  1  0  0  0  0  0  0  0  0  0
   13.1562   -9.2816    0.0000 O   0  0  0  0  0  0  0  0  0  0  0  0
   16.9497   -7.1013    0.0000 C   0  0  0  0  0  0  0  0  0  0  0  0
   18.0047   -8.5534    0.0000 C   0  0  0  0  0  0  0  0  0  0  0  0
   16.1028   -9.7681    0.0000 C   0  0  0  0  0  0  0  0  0  0  0  0
   13.1562   -7.8251    0.0000 C   0  0  0  0  0  0  0  0  0  0  0  0
  1  2  2  0  0  0  0
  2  3  1  0  0  0  0
  3  4  1  0  0  0  0
  4  5  1  0  0  0  0
  5  6  1  0  0  0  0
  6  7  1  0  0  0  0
  7  8  1  0  0  0  0
  8  9  1  0  0  0  0
  9 10  1  0  0  0  0
 10 11  1  0  0  0  0
  1 11  1  0  0  0  0
  1  8  1  0  0  0  0
  5 12  2  0  0  0  0
 11 13  1  6  0  0  0
 10 14  1  1  0  0  0
  8 15  1  1  0  0  0
  4 16  1  6  0  0  0
M  END
>  <cdx:groupId>
32308

>  <cdx:fragmentId>
32262

$$$$
