37509.cdx
  Mrv1902 05222410272D          

 15 14  0  0  0  0            999 V2000
   10.2993   -5.5012    0.0000 C   0  0  0  0  0  0  0  0  0  0  0  0
    9.5880   -5.9191    0.0000 O   0  0  0  0  0  0  0  0  0  0  0  0
   11.0232   -6.7332    0.0000 C   0  0  0  0  0  0  0  0  0  0  0  0
   10.3119   -7.1511    0.0000 O   0  0  0  0  0  0  0  0  0  0  0  0
    6.0315   -8.0088    0.0000 C   0  0  0  0  0  0  0  0  0  0  0  0
    8.8893   -7.9870    0.0000 C   0  0  0  0  0  0  0  0  0  0  0  0
    3.8787   -6.7876    0.0000 O   0  0  0  0  0  0  0  0  0  0  0  0
    9.5943   -6.7441    0.0000 C   0  0  0  0  0  0  0  0  0  0  0  0
    8.8830   -7.1620    0.0000 C   0  0  0  0  0  0  0  0  0  0  0  0
    8.1654   -6.7550    0.0000 C   0  0  0  0  0  0  0  0  0  0  0  0
    7.4541   -7.1729    0.0000 C   0  0  0  0  0  0  0  0  0  0  0  0
    6.7365   -6.7658    0.0000 C   0  0  0  0  0  0  0  0  0  0  0  0
    6.0252   -7.1838    0.0000 C   0  0  0  0  0  0  0  0  0  0  0  0
    5.3076   -6.7767    0.0000 C   0  0  0  0  0  0  0  0  0  0  0  0
    4.5963   -7.1947    0.0000 C   0  0  0  0  0  0  0  0  0  0  0  0
  8  2  1  0  0  0  0
  2  1  1  0  0  0  0
  8  4  1  0  0  0  0
  4  3  1  0  0  0  0
 13  5  1  0  0  0  0
  9  6  1  0  0  0  0
 15  7  2  0  0  0  0
  9  8  1  0  0  0  0
 10  9  2  0  0  0  0
 11 10  1  0  0  0  0
 12 11  1  0  0  0  0
 13 12  1  0  0  0  0
 14 13  2  0  0  0  0
 15 14  1  0  0  0  0
M  END
>  <cdx:fragmentId>
5

$$$$
