37512.cdx
  Mrv1902 05222410182D          

 39 41  0  0  0  0            999 V2000
    6.6913   -5.5335    0.0000 C   0  0  0  0  0  0  0  0  0  0  0  0
    6.7046   -6.3584    0.0000 C   0  0  2  0  0  0  0  0  0  0  0  0
    7.4256   -6.7594    0.0000 C   0  0  0  0  0  0  0  0  0  0  0  0
    8.1333   -6.3355    0.0000 C   0  0  1  0  0  0  0  0  0  0  0  0
    8.1201   -5.5106    0.0000 C   0  0  0  0  0  0  0  0  0  0  0  0
    7.4388   -7.5843    0.0000 O   0  0  0  0  0  0  0  0  0  0  0  0
    9.0259   -3.6544    0.0000 C   0  0  0  0  0  0  0  0  0  0  0  0
    6.1503   -4.4151    0.0000 C   0  0  0  0  0  0  0  0  0  0  0  0
    6.9752   -4.4018    0.0000 O   0  0  0  0  0  0  0  0  0  0  0  0
    8.6250   -4.3754    0.0000 O   0  0  0  0  0  0  0  0  0  0  0  0
    7.3761   -3.6808    0.0000 O   0  0  0  0  0  0  0  0  0  0  0  0
    7.8001   -4.3886    0.0000 C   0  0  0  0  0  0  0  0  0  0  0  0
   13.8484   -6.2437    0.0000 O   0  0  0  0  0  0  0  0  0  0  0  0
   13.8748   -7.8935    0.0000 O   0  0  0  0  0  0  0  0  0  0  0  0
   11.7251   -7.5155    0.0000 C   0  0  0  0  0  0  0  0  0  0  0  0
   12.4461   -7.9164    0.0000 C   0  0  0  0  0  0  0  0  0  0  0  0
   13.1538   -7.4925    0.0000 C   0  0  0  0  0  0  0  0  0  0  0  0
   13.1406   -6.6676    0.0000 C   0  0  0  0  0  0  0  0  0  0  0  0
   12.4196   -6.2667    0.0000 C   0  0  0  0  0  0  0  0  0  0  0  0
   11.7118   -6.6906    0.0000 C   0  0  0  0  0  0  0  0  0  0  0  0
    9.5488   -5.4876    0.0000 O   0  0  0  0  0  0  0  0  0  0  0  0
   10.9908   -6.2896    0.0000 C   0  0  0  0  0  0  0  0  0  0  0  0
   10.2831   -6.7135    0.0000 C   0  0  0  0  0  0  0  0  0  0  0  0
    9.5621   -6.3125    0.0000 C   0  0  0  0  0  0  0  0  0  0  0  0
    8.8543   -6.7364    0.0000 O   0  0  0  0  0  0  0  0  0  0  0  0
    0.9963   -6.3607    0.0000 O   0  0  0  0  0  0  0  0  0  0  0  0
    0.9933   -8.0107    0.0000 O   0  0  0  0  0  0  0  0  0  0  0  0
    3.1374   -7.6021    0.0000 C   0  0  0  0  0  0  0  0  0  0  0  0
    2.4222   -8.0133    0.0000 C   0  0  0  0  0  0  0  0  0  0  0  0
    1.7085   -7.5995    0.0000 C   0  0  0  0  0  0  0  0  0  0  0  0
    1.7100   -6.7745    0.0000 C   0  0  0  0  0  0  0  0  0  0  0  0
    2.4252   -6.3633    0.0000 C   0  0  0  0  0  0  0  0  0  0  0  0
    3.1389   -6.7771    0.0000 C   0  0  0  0  0  0  0  0  0  0  0  0
    5.2846   -5.5435    0.0000 O   0  0  0  0  0  0  0  0  0  0  0  0
    3.8541   -6.3659    0.0000 C   0  0  0  0  0  0  0  0  0  0  0  0
    4.5679   -6.7797    0.0000 C   0  0  0  0  0  0  0  0  0  0  0  0
    5.2831   -6.3685    0.0000 C   0  0  0  0  0  0  0  0  0  0  0  0
    5.9968   -6.7823    0.0000 O   0  0  0  0  0  0  0  0  0  0  0  0
    7.3991   -5.1096    0.0000 C   0  0  0  0  0  0  0  0  0  0  0  0
 10  7  1  0  0  0  0
 39  9  1  0  0  0  0
  9  8  1  0  0  0  0
 39 12  1  0  0  0  0
 12 10  1  0  0  0  0
 12 11  2  0  0  0  0
 25 24  1  0  0  0  0
 22 20  1  0  0  0  0
 18 13  1  0  0  0  0
 17 14  1  0  0  0  0
 20 15  2  0  0  0  0
 16 15  1  0  0  0  0
 17 16  2  0  0  0  0
 18 17  1  0  0  0  0
 19 18  2  0  0  0  0
 20 19  1  0  0  0  0
 24 21  2  0  0  0  0
 23 22  2  0  0  0  0
 24 23  1  0  0  0  0
 38 37  1  0  0  0  0
 35 33  1  0  0  0  0
 31 26  1  0  0  0  0
 30 27  1  0  0  0  0
 33 28  2  0  0  0  0
 29 28  1  0  0  0  0
 30 29  2  0  0  0  0
 31 30  1  0  0  0  0
 32 31  2  0  0  0  0
 33 32  1  0  0  0  0
 37 34  2  0  0  0  0
 36 35  2  0  0  0  0
 37 36  1  0  0  0  0
 39  1  1  0  0  0  0
  1  2  1  0  0  0  0
  2  3  1  0  0  0  0
  3  4  1  0  0  0  0
  4  5  1  0  0  0  0
 39  5  1  0  0  0  0
  3  6  1  0  0  0  0
  4 25  1  1  0  0  0
  2 38  1  6  0  0  0
M  END
>  <cdx:fragmentId>
64

$$$$
