16.cdx
  Mrv1902 05222410202D          

 13 13  0  0  0  0            999 V2000
    8.6451   -6.3408    0.0000 C   0  0  0  0  0  0  0  0  0  0  0  0
    9.3596   -6.7533    0.0000 C   0  0  0  0  0  0  0  0  0  0  0  0
    7.9306   -6.7533    0.0000 C   0  0  0  0  0  0  0  0  0  0  0  0
    7.2162   -6.3408    0.0000 C   0  0  0  0  0  0  0  0  0  0  0  0
    6.5017   -6.7533    0.0000 C   0  0  0  0  0  0  0  0  0  0  0  0
    6.5017   -7.5783    0.0000 C   0  0  0  0  0  0  0  0  0  0  0  0
    7.2162   -7.9908    0.0000 C   0  0  0  0  0  0  0  0  0  0  0  0
    7.9306   -7.5783    0.0000 C   0  0  0  0  0  0  0  0  0  0  0  0
    8.6451   -7.9908    0.0000 O   0  0  0  0  0  0  0  0  0  0  0  0
    9.3596   -7.5783    0.0000 C   0  0  0  0  0  0  0  0  0  0  0  0
    5.7872   -7.9908    0.0000 O   0  0  0  0  0  0  0  0  0  0  0  0
    7.2162   -5.5158    0.0000 O   0  0  0  0  0  0  0  0  0  0  0  0
    8.6451   -5.5158    0.0000 O   0  0  0  0  0  0  0  0  0  0  0  0
  1  2  1  0  0  0  0
  3  4  1  0  0  0  0
  4  5  2  0  0  0  0
  5  6  1  0  0  0  0
  6  7  2  0  0  0  0
  7  8  1  0  0  0  0
  3  8  2  0  0  0  0
  9 10  1  0  0  0  0
  8  9  1  0  0  0  0
  6 11  1  0  0  0  0
  4 12  1  0  0  0  0
  1  3  1  0  0  0  0
  1 13  2  0  0  0  0
M  END
>  <cdx:fragmentId>
77

$$$$
