37517.cdx
  Mrv1902 05222410202D          

 25 27  0  0  0  0            999 V2000
    7.5939   -8.6487    0.0000 C   0  0  0  0  0  0  0  0  0  0  0  0
    7.5939   -7.8237    0.0000 C   0  0  0  0  0  0  0  0  0  0  0  0
    8.3083   -9.0613    0.0000 C   0  0  0  0  0  0  0  0  0  0  0  0
    9.0228   -8.6487    0.0000 C   0  0  0  0  0  0  0  0  0  0  0  0
    9.0228   -7.8237    0.0000 C   0  0  0  0  0  0  0  0  0  0  0  0
    8.3083   -7.4112    0.0000 C   0  0  0  0  0  0  0  0  0  0  0  0
    9.7373   -9.0613    0.0000 O   0  0  0  0  0  0  0  0  0  0  0  0
   10.4518   -8.6487    0.0000 C   0  0  0  0  0  0  0  0  0  0  0  0
   10.4518   -7.8237    0.0000 C   0  0  0  0  0  0  0  0  0  0  0  0
    9.7373   -7.4112    0.0000 C   0  0  0  0  0  0  0  0  0  0  0  0
   11.1662   -9.0613    0.0000 O   0  0  0  0  0  0  0  0  0  0  0  0
    6.8092   -7.5688    0.0000 C   0  0  1  0  0  0  0  0  0  0  0  0
    6.3243   -8.2363    0.0000 C   0  0  2  0  0  0  0  0  0  0  0  0
    6.8092   -8.9037    0.0000 O   0  0  0  0  0  0  0  0  0  0  0  0
    5.4993   -8.2363    0.0000 C   0  0  0  0  0  0  0  0  0  0  0  0
    6.5543   -6.7842    0.0000 O   0  0  0  0  0  0  0  0  0  0  0  0
    5.0868   -8.9507    0.0000 O   0  0  0  0  0  0  0  0  0  0  0  0
    5.0868   -7.5218    0.0000 C   0  0  0  0  0  0  0  0  0  0  0  0
    4.6743   -8.2363    0.0000 C   0  0  0  0  0  0  0  0  0  0  0  0
    5.4993   -9.6652    0.0000 C   0  0  0  0  0  0  0  0  0  0  0  0
    5.0868  -10.3797    0.0000 C   0  0  0  0  0  0  0  0  0  0  0  0
    6.3243   -9.6652    0.0000 O   0  0  0  0  0  0  0  0  0  0  0  0
    5.4993  -11.0941    0.0000 C   0  0  0  0  0  0  0  0  0  0  0  0
    4.2618  -10.3797    0.0000 C   0  0  0  0  0  0  0  0  0  0  0  0
    5.0868  -11.8086    0.0000 C   0  0  0  0  0  0  0  0  0  0  0  0
  1  2  2  0  0  0  0
  1  3  1  0  0  0  0
  3  4  2  0  0  0  0
  4  5  1  0  0  0  0
  5  6  2  0  0  0  0
  6  2  1  0  0  0  0
  4  7  1  0  0  0  0
  7  8  1  0  0  0  0
  8  9  1  0  0  0  0
  9 10  2  0  0  0  0
 10  5  1  0  0  0  0
  8 11  2  0  0  0  0
  2 12  1  0  0  0  0
 12 13  1  0  0  0  0
 13 14  1  0  0  0  0
 14  1  1  0  0  0  0
 13 15  1  6  0  0  0
 12 16  1  1  0  0  0
 15 17  1  0  0  0  0
 15 18  1  0  0  0  0
 15 19  1  0  0  0  0
 17 20  1  0  0  0  0
 20 21  1  0  0  0  0
 20 22  2  0  0  0  0
 21 23  2  0  0  0  0
 21 24  1  0  0  0  0
 23 25  1  0  0  0  0
M  END
>  <cdx:fragmentId>
5

$$$$
