37510.cdx
  Mrv1902 05222410192D          

 15 14  0  0  0  0            999 V2000
    4.8066   -6.1644    0.0000 C   0  0  0  0  0  0  0  0  0  0  0  0
    5.5220   -5.7534    0.0000 C   0  0  0  0  0  0  0  0  0  0  0  0
    6.2355   -6.1675    0.0000 C   0  0  0  0  0  0  0  0  0  0  0  0
    6.9509   -5.7565    0.0000 C   0  0  0  0  0  0  0  0  0  0  0  0
    7.6645   -6.1706    0.0000 C   0  0  0  0  0  0  0  0  0  0  0  0
    8.3798   -5.7596    0.0000 C   0  0  0  0  0  0  0  0  0  0  0  0
    9.0934   -6.1737    0.0000 C   0  0  0  0  0  0  0  0  0  0  0  0
    9.0916   -6.9987    0.0000 C   0  0  0  0  0  0  0  0  0  0  0  0
    4.0930   -5.7503    0.0000 O   0  0  0  0  0  0  0  0  0  0  0  0
    9.8088   -5.7627    0.0000 C   0  0  0  0  0  0  0  0  0  0  0  0
    6.2337   -6.9925    0.0000 C   0  0  0  0  0  0  0  0  0  0  0  0
    9.8052   -7.4127    0.0000 O   0  0  0  0  0  0  0  0  0  0  0  0
    9.8034   -8.2377    0.0000 C   0  0  0  0  0  0  0  0  0  0  0  0
    8.3763   -7.4096    0.0000 O   0  0  0  0  0  0  0  0  0  0  0  0
    8.3745   -8.2346    0.0000 C   0  0  0  0  0  0  0  0  0  0  0  0
  1  2  1  0  0  0  0
  2  3  2  0  0  0  0
  3  4  1  0  0  0  0
  4  5  1  0  0  0  0
  5  6  1  0  0  0  0
  6  7  2  0  0  0  0
  7  8  1  0  0  0  0
  1  9  2  0  0  0  0
  7 10  1  0  0  0  0
  3 11  1  0  0  0  0
 12 13  1  0  0  0  0
  8 12  1  0  0  0  0
 14 15  1  0  0  0  0
  8 14  1  0  0  0  0
M  END
>  <cdx:fragmentId>
53

$$$$
