37519.cdx
  Mrv1902 05222410272D          

 35 39  0  0  0  0            999 V2000
    6.3047   -7.7686    0.0000 C   0  0  2  0  0  0  0  0  0  0  0  0
    5.5902   -7.3561    0.0000 C   0  0  0  0  0  0  0  0  0  0  0  0
    5.5902   -8.1811    0.0000 C   0  0  1  0  0  0  0  0  0  0  0  0
    4.8758   -7.7686    0.0000 C   0  0  0  0  0  0  0  0  0  0  0  0
    4.1613   -8.1811    0.0000 C   0  0  0  0  0  0  0  0  0  0  0  0
    4.1613   -9.0061    0.0000 C   0  0  1  0  0  0  0  0  0  0  0  0
    4.8758   -9.4186    0.0000 C   0  0  0  0  0  0  0  0  0  0  0  0
    5.5902   -9.0061    0.0000 C   0  0  2  0  0  0  0  0  0  0  0  0
    6.3047   -9.4186    0.0000 C   0  0  0  0  0  0  0  0  0  0  0  0
    7.0192   -9.0061    0.0000 C   0  0  0  0  0  0  0  0  0  0  0  0
    7.0192   -8.1811    0.0000 C   0  0  1  0  0  0  0  0  0  0  0  0
    7.7337   -7.7686    0.0000 C   0  0  2  0  0  0  0  0  0  0  0  0
    8.5183   -8.0235    0.0000 C   0  0  0  0  0  0  0  0  0  0  0  0
    9.0032   -7.3561    0.0000 C   0  0  0  0  0  0  0  0  0  0  0  0
    8.5183   -6.6887    0.0000 C   0  0  1  0  0  0  0  0  0  0  0  0
    7.7337   -6.9436    0.0000 C   0  0  1  0  0  0  0  0  0  0  0  0
    7.0192   -6.5311    0.0000 C   0  0  0  0  0  0  0  0  0  0  0  0
    6.3047   -6.9436    0.0000 C   0  0  0  0  0  0  0  0  0  0  0  0
    3.4468   -9.4186    0.0000 O   0  0  0  0  0  0  0  0  0  0  0  0
    8.2212   -5.2909    0.0000 C   0  0  0  0  0  0  0  0  0  0  0  0
    8.7732   -5.9040    0.0000 C   0  0  2  0  0  0  0  0  0  0  0  0
    9.5802   -5.7325    0.0000 C   0  0  0  0  0  0  0  0  0  0  0  0
    9.8351   -4.9479    0.0000 C   0  0  0  0  0  0  0  0  0  0  0  0
   10.6421   -4.7764    0.0000 C   0  0  0  0  0  0  0  0  0  0  0  0
   10.8970   -3.9917    0.0000 C   0  0  0  0  0  0  0  0  0  0  0  0
   10.3450   -3.3786    0.0000 C   0  0  0  0  0  0  0  0  0  0  0  0
   11.1941   -5.3894    0.0000 C   0  0  0  0  0  0  0  0  0  0  0  0
   11.7040   -3.8202    0.0000 C   0  0  0  0  0  0  0  0  0  0  0  0
    7.8199   -6.1231    0.0000 C   0  0  0  0  0  0  0  0  0  0  0  0
    7.7337   -8.5936    0.0000 C   0  0  0  0  0  0  0  0  0  0  0  0
    5.2883  -10.1331    0.0000 C   0  0  0  0  0  0  0  0  0  0  0  0
    4.4633  -10.1331    0.0000 C   0  0  0  0  0  0  0  0  0  0  0  0
    5.5902   -9.8311    0.0000 H   0  0  0  0  0  0  0  0  0  0  0  0
    7.0192   -7.3561    0.0000 H   0  0  0  0  0  0  0  0  0  0  0  0
    9.3029   -6.4337    0.0000 H   0  0  0  0  0  0  0  0  0  0  0  0
  1  2  1  1  0  0  0
  3  2  1  1  0  0  0
  3  4  1  0  0  0  0
  4  5  1  0  0  0  0
  5  6  1  0  0  0  0
  6  7  1  0  0  0  0
  7  8  1  0  0  0  0
  8  9  1  0  0  0  0
  9 10  1  0  0  0  0
 10 11  1  0  0  0  0
 11 12  1  0  0  0  0
 12 13  1  0  0  0  0
 13 14  1  0  0  0  0
 14 15  1  0  0  0  0
 15 16  1  0  0  0  0
 16 17  1  0  0  0  0
 17 18  1  0  0  0  0
  1 18  1  0  0  0  0
  1 11  1  0  0  0  0
  1  3  1  0  0  0  0
  3  8  1  0  0  0  0
 12 16  1  0  0  0  0
  6 19  1  1  0  0  0
 21 20  1  6  0  0  0
 21 22  1  0  0  0  0
 22 23  1  0  0  0  0
 23 24  1  0  0  0  0
 24 25  1  0  0  0  0
 25 26  1  0  0  0  0
 24 27  2  0  0  0  0
 25 28  1  0  0  0  0
 15 21  1  0  0  0  0
 16 29  1  1  0  0  0
 12 30  1  6  0  0  0
  7 31  1  0  0  0  0
  7 32  1  0  0  0  0
  8 33  1  6  0  0  0
 11 34  1  1  0  0  0
 15 35  1  6  0  0  0
M  END
>  <cdx:fragmentId>
5

$$$$
