37518.cdx
  Mrv1902 05222410262D          

 33 36  0  0  0  0            999 V2000
    4.8758   -8.0780    0.0000 C   0  0  0  0  0  0  0  0  0  0  0  0
    4.1613   -8.4905    0.0000 C   0  0  0  0  0  0  0  0  0  0  0  0
    4.1613   -9.3155    0.0000 C   0  0  1  0  0  0  0  0  0  0  0  0
    4.8758   -9.7280    0.0000 C   0  0  0  0  0  0  0  0  0  0  0  0
    5.5902   -9.3155    0.0000 C   0  0  0  0  0  0  0  0  0  0  0  0
    6.3047   -9.7280    0.0000 C   0  0  0  0  0  0  0  0  0  0  0  0
    7.0192   -9.3155    0.0000 C   0  0  0  0  0  0  0  0  0  0  0  0
    7.0192   -8.4905    0.0000 C   0  0  1  0  0  0  0  0  0  0  0  0
    7.7337   -8.0780    0.0000 C   0  0  2  0  0  0  0  0  0  0  0  0
    8.5183   -8.3330    0.0000 C   0  0  0  0  0  0  0  0  0  0  0  0
    9.0032   -7.6655    0.0000 C   0  0  0  0  0  0  0  0  0  0  0  0
    8.5183   -6.9981    0.0000 C   0  0  1  0  0  0  0  0  0  0  0  0
    7.7337   -7.2530    0.0000 C   0  0  1  0  0  0  0  0  0  0  0  0
    7.0192   -6.8405    0.0000 C   0  0  0  0  0  0  0  0  0  0  0  0
    6.3047   -7.2530    0.0000 C   0  0  0  0  0  0  0  0  0  0  0  0
    6.3047   -8.0780    0.0000 C   0  0  2  0  0  0  0  0  0  0  0  0
    5.5902   -8.4905    0.0000 C   0  0  1  0  0  0  0  0  0  0  0  0
    3.4468   -9.7280    0.0000 O   0  0  0  0  0  0  0  0  0  0  0  0
    8.2212   -5.6004    0.0000 C   0  0  0  0  0  0  0  0  0  0  0  0
    8.7732   -6.2135    0.0000 C   0  0  2  0  0  0  0  0  0  0  0  0
    9.5802   -6.0420    0.0000 C   0  0  0  0  0  0  0  0  0  0  0  0
    9.8351   -5.2573    0.0000 C   0  0  0  0  0  0  0  0  0  0  0  0
   10.6421   -5.0858    0.0000 C   0  0  0  0  0  0  0  0  0  0  0  0
   10.8970   -4.3012    0.0000 C   0  0  0  0  0  0  0  0  0  0  0  0
   10.3450   -3.6881    0.0000 C   0  0  0  0  0  0  0  0  0  0  0  0
   11.1941   -5.6989    0.0000 C   0  0  0  0  0  0  0  0  0  0  0  0
   11.7040   -4.1297    0.0000 C   0  0  0  0  0  0  0  0  0  0  0  0
    7.8199   -6.4326    0.0000 C   0  0  0  0  0  0  0  0  0  0  0  0
    5.5902   -7.6655    0.0000 C   0  0  0  0  0  0  0  0  0  0  0  0
    7.0192   -7.6655    0.0000 H   0  0  0  0  0  0  0  0  0  0  0  0
    6.3047   -8.9030    0.0000 H   0  0  0  0  0  0  0  0  0  0  0  0
    7.7337   -8.9030    0.0000 H   0  0  0  0  0  0  0  0  0  0  0  0
    9.3029   -6.7432    0.0000 H   0  0  0  0  0  0  0  0  0  0  0  0
  1  2  1  0  0  0  0
  2  3  1  0  0  0  0
  3  4  1  0  0  0  0
  4  5  1  0  0  0  0
  5  6  2  0  0  0  0
  6  7  1  0  0  0  0
  7  8  1  0  0  0  0
  8  9  1  0  0  0  0
  9 10  1  0  0  0  0
 10 11  1  0  0  0  0
 11 12  1  0  0  0  0
 12 13  1  0  0  0  0
  9 13  1  0  0  0  0
 13 14  1  0  0  0  0
 14 15  1  0  0  0  0
 15 16  1  0  0  0  0
  8 16  1  0  0  0  0
 16 17  1  0  0  0  0
  5 17  1  0  0  0  0
  1 17  1  0  0  0  0
  3 18  1  1  0  0  0
 20 19  1  6  0  0  0
 20 21  1  0  0  0  0
 21 22  1  0  0  0  0
 22 23  1  0  0  0  0
 23 24  1  0  0  0  0
 24 25  1  0  0  0  0
 23 26  2  0  0  0  0
 24 27  1  0  0  0  0
 12 20  1  0  0  0  0
 13 28  1  1  0  0  0
 17 29  1  1  0  0  0
  8 30  1  1  0  0  0
 16 31  1  6  0  0  0
  9 32  1  6  0  0  0
 12 33  1  6  0  0  0
M  END
>  <cdx:fragmentId>
5

$$$$
