37522.cdx
  Mrv1902 05222410282D          

 49 54  0  0  0  0            999 V2000
    8.4015   -8.5322    0.0000 H   0  0  0  0  0  0  0  0  0  0  0  0
   10.5162   -5.6234    0.0000 C   0  0  1  0  0  0  0  0  0  0  0  0
   11.2265   -5.2037    0.0000 C   0  0  1  0  0  0  0  0  0  0  0  0
   11.9450   -5.6090    0.0000 C   0  0  0  0  0  0  0  0  0  0  0  0
   11.9533   -6.4340    0.0000 C   0  0  0  0  0  0  0  0  0  0  0  0
   11.2430   -6.8536    0.0000 C   0  0  2  0  0  0  0  0  0  0  0  0
   11.2513   -7.6786    0.0000 C   0  0  0  0  0  0  0  0  0  0  0  0
   10.5410   -8.0982    0.0000 C   0  0  0  0  0  0  0  0  0  0  0  0
    9.8224   -7.6929    0.0000 C   0  0  1  0  0  0  0  0  0  0  0  0
    9.1121   -8.1126    0.0000 C   0  0  2  0  0  0  0  0  0  0  0  0
    9.1204   -8.9375    0.0000 C   0  0  0  0  0  0  0  0  0  0  0  0
    8.4101   -9.3572    0.0000 C   0  0  0  0  0  0  0  0  0  0  0  0
    7.6916   -8.9519    0.0000 C   0  0  1  0  0  0  0  0  0  0  0  0
    6.9813   -9.3715    0.0000 C   0  0  0  0  0  0  0  0  0  0  0  0
    6.2627   -8.9662    0.0000 C   0  0  2  0  0  0  0  0  0  0  0  0
    6.2544   -8.1413    0.0000 C   0  0  1  0  0  0  0  0  0  0  0  0
    6.9647   -7.7216    0.0000 C   0  0  0  0  0  0  0  0  0  0  0  0
    7.6833   -8.1269    0.0000 C   0  0  2  0  0  0  0  0  0  0  0  0
    8.3936   -7.7073    0.0000 C   0  0  1  0  0  0  0  0  0  0  0  0
    8.3853   -6.8823    0.0000 C   0  0  0  0  0  0  0  0  0  0  0  0
    9.0956   -6.4627    0.0000 C   0  0  0  0  0  0  0  0  0  0  0  0
    9.8142   -6.8680    0.0000 C   0  0  0  0  0  0  0  0  0  0  0  0
   10.5245   -6.4483    0.0000 C   0  0  2  0  0  0  0  0  0  0  0  0
   11.9616   -7.2589    0.0000 C   0  0  0  0  0  0  0  0  0  0  0  0
   11.9699   -8.0839    0.0000 O   0  0  0  0  0  0  0  0  0  0  0  0
   12.6719   -6.8393    0.0000 O   0  0  0  0  0  0  0  0  0  0  0  0
    7.6750   -7.3020    0.0000 C   0  0  0  0  0  0  0  0  0  0  0  0
    7.4009  -10.0818    0.0000 C   0  0  0  0  0  0  0  0  0  0  0  0
    6.5759  -10.0901    0.0000 C   0  0  0  0  0  0  0  0  0  0  0  0
    9.1039   -7.2876    0.0000 C   0  0  0  0  0  0  0  0  0  0  0  0
    9.8307   -8.5179    0.0000 C   0  0  0  0  0  0  0  0  0  0  0  0
   11.2182   -4.3788    0.0000 C   0  0  0  0  0  0  0  0  0  0  0  0
   10.0965   -4.9131    0.0000 C   0  0  0  0  0  0  0  0  0  0  0  0
    5.5524   -9.3859    0.0000 O   0  0  0  0  0  0  0  0  0  0  0  0
    4.8338   -8.9805    0.0000 C   0  0  0  0  0  0  0  0  0  0  0  0
    4.1235   -9.4002    0.0000 C   0  0  0  0  0  0  0  0  0  0  0  0
    3.4049   -8.9949    0.0000 C   0  0  0  0  0  0  0  0  0  0  0  0
    4.8255   -8.1556    0.0000 O   0  0  0  0  0  0  0  0  0  0  0  0
    3.3967   -8.1699    0.0000 C   0  0  0  0  0  0  0  0  0  0  0  0
    2.6781   -7.7646    0.0000 C   0  0  0  0  0  0  0  0  0  0  0  0
    2.6698   -6.9397    0.0000 C   0  0  0  0  0  0  0  0  0  0  0  0
    3.3801   -6.5200    0.0000 C   0  0  0  0  0  0  0  0  0  0  0  0
    4.0987   -6.9253    0.0000 C   0  0  0  0  0  0  0  0  0  0  0  0
    4.1070   -7.7503    0.0000 C   0  0  0  0  0  0  0  0  0  0  0  0
    3.3718   -5.6951    0.0000 O   0  0  0  0  0  0  0  0  0  0  0  0
    5.5358   -7.7359    0.0000 O   0  0  0  0  0  0  0  0  0  0  0  0
    9.6912   -5.6316    0.0000 O   0  0  0  0  0  0  0  0  0  0  0  0
    7.6998   -9.7768    0.0000 H   0  0  0  0  0  0  0  0  0  0  0  0
   10.5327   -7.2733    0.0000 H   0  0  0  0  0  0  0  0  0  0  0  0
 19  1  1  6  0  0  0
  2  3  1  0  0  0  0
  3  4  1  0  0  0  0
  4  5  1  0  0  0  0
  5  6  1  0  0  0  0
  6  7  1  0  0  0  0
  7  8  1  0  0  0  0
  8  9  1  0  0  0  0
  9 10  1  0  0  0  0
 10 11  1  0  0  0  0
 11 12  1  0  0  0  0
 12 13  1  0  0  0  0
 13 14  1  0  0  0  0
 14 15  1  0  0  0  0
 15 16  1  0  0  0  0
 16 17  1  0  0  0  0
 17 18  1  0  0  0  0
 13 18  1  0  0  0  0
 18 19  1  0  0  0  0
 10 19  1  0  0  0  0
 19 20  1  0  0  0  0
 20 21  1  0  0  0  0
 21 22  2  0  0  0  0
  9 22  1  0  0  0  0
 22 23  1  0  0  0  0
  6 23  1  0  0  0  0
  2 23  1  0  0  0  0
 24 25  2  0  0  0  0
 24 26  1  0  0  0  0
  6 24  1  1  0  0  0
 18 27  1  1  0  0  0
 14 28  1  0  0  0  0
 14 29  1  0  0  0  0
 10 30  1  1  0  0  0
  9 31  1  6  0  0  0
  3 32  1  6  0  0  0
  2 33  1  1  0  0  0
 35 36  1  0  0  0  0
 36 37  2  0  0  0  0
 35 38  2  0  0  0  0
 39 40  1  0  0  0  0
 40 41  2  0  0  0  0
 41 42  1  0  0  0  0
 42 43  2  0  0  0  0
 43 44  1  0  0  0  0
 39 44  2  0  0  0  0
 42 45  1  0  0  0  0
 37 39  1  0  0  0  0
 34 35  1  0  0  0  0
 15 34  1  1  0  0  0
 16 46  1  6  0  0  0
  2 47  1  6  0  0  0
 13 48  1  6  0  0  0
 23 49  1  1  0  0  0
M  END
>  <cdx:fragmentId>
7

$$$$
