37529.cdx
  Mrv1902 05222410202D          

 72 79  0  0  0  0            999 V2000
    5.8212  -11.1788    0.0000 C   0  0  0  0  0  0  0  0  0  0  0  0
    5.8212  -12.0038    0.0000 C   0  0  1  0  0  0  0  0  0  0  0  0
    6.5356  -12.4162    0.0000 C   0  0  0  0  0  0  0  0  0  0  0  0
    7.2501  -12.0038    0.0000 C   0  0  1  0  0  0  0  0  0  0  0  0
    7.2501  -11.1788    0.0000 C   0  0  2  0  0  0  0  0  0  0  0  0
    6.5356  -10.7663    0.0000 C   0  0  0  0  0  0  0  0  0  0  0  0
    7.9646  -12.4162    0.0000 C   0  0  0  0  0  0  0  0  0  0  0  0
    8.6791  -12.0038    0.0000 C   0  0  0  0  0  0  0  0  0  0  0  0
    8.6791  -11.1788    0.0000 C   0  0  2  0  0  0  0  0  0  0  0  0
    7.9646  -10.7663    0.0000 C   0  0  2  0  0  0  0  0  0  0  0  0
    9.3935  -10.7663    0.0000 C   0  0  1  0  0  0  0  0  0  0  0  0
    9.3935   -9.9413    0.0000 C   0  0  1  0  0  0  0  0  0  0  0  0
    8.6791   -9.5287    0.0000 C   0  0  1  0  0  0  0  0  0  0  0  0
    7.9646   -9.9413    0.0000 C   0  0  1  0  0  0  0  0  0  0  0  0
    5.1067  -12.4162    0.0000 O   0  0  0  0  0  0  0  0  0  0  0  0
    7.2501  -10.3537    0.0000 C   0  0  0  0  0  0  0  0  0  0  0  0
    8.6791  -10.3537    0.0000 H   0  0  0  0  0  0  0  0  0  0  0  0
    9.3935  -11.5913    0.0000 O   0  0  0  0  0  0  0  0  0  0  0  0
    9.3935   -9.1162    0.0000 C   0  0  0  0  0  0  0  0  0  0  0  0
    8.6791   -8.7037    0.0000 O   0  0  0  0  0  0  0  0  0  0  0  0
    7.2501  -12.8287    0.0000 H   0  0  0  0  0  0  0  0  0  0  0  0
    7.9646  -11.5913    0.0000 H   0  0  0  0  0  0  0  0  0  0  0  0
    7.2501   -9.5287    0.0000 O   0  0  0  0  0  0  0  0  0  0  0  0
    3.6766  -10.7539    0.0000 C   0  0  2  0  0  0  0  0  0  0  0  0
    2.9608  -11.1641    0.0000 C   0  0  2  0  0  0  0  0  0  0  0  0
    2.9581  -11.9890    0.0000 C   0  0  2  0  0  0  0  0  0  0  0  0
    3.6712  -12.4039    0.0000 C   0  0  0  0  0  0  0  0  0  0  0  0
    4.3870  -11.9938    0.0000 C   0  0  1  0  0  0  0  0  0  0  0  0
    4.3897  -11.1688    0.0000 O   0  0  0  0  0  0  0  0  0  0  0  0
    3.6794   -9.9289    0.0000 C   0  0  0  0  0  0  0  0  0  0  0  0
    2.2477  -10.7492    0.0000 O   0  0  0  0  0  0  0  0  0  0  0  0
    2.2423  -12.3992    0.0000 O   0  0  0  0  0  0  0  0  0  0  0  0
    2.2504   -9.9242    0.0000 C   0  0  2  0  0  0  0  0  0  0  0  0
    2.9662   -9.5141    0.0000 O   0  0  0  0  0  0  0  0  0  0  0  0
    2.9690   -8.6891    0.0000 C   0  0  1  0  0  0  0  0  0  0  0  0
    2.2559   -8.2742    0.0000 C   0  0  2  0  0  0  0  0  0  0  0  0
    1.5400   -8.6844    0.0000 C   0  0  1  0  0  0  0  0  0  0  0  0
    1.5373   -9.5094    0.0000 C   0  0  0  0  0  0  0  0  0  0  0  0
    3.6848   -8.2789    0.0000 C   0  0  0  0  0  0  0  0  0  0  0  0
    0.8269   -8.2695    0.0000 O   0  0  0  0  0  0  0  0  0  0  0  0
    2.2586   -7.4492    0.0000 O   0  0  0  0  0  0  0  0  0  0  0  0
    2.9734   -7.0373    0.0000 C   0  0  2  0  0  0  0  0  0  0  0  0
    3.6875   -7.4503    0.0000 O   0  0  0  0  0  0  0  0  0  0  0  0
    4.4023   -7.0384    0.0000 C   0  0  1  0  0  0  0  0  0  0  0  0
    4.4030   -6.2134    0.0000 C   0  0  2  0  0  0  0  0  0  0  0  0
    3.6888   -5.8003    0.0000 C   0  0  2  0  0  0  0  0  0  0  0  0
    2.9740   -6.2123    0.0000 C   0  0  1  0  0  0  0  0  0  0  0  0
    5.1165   -7.4515    0.0000 C   0  0  0  0  0  0  0  0  0  0  0  0
    5.1178   -5.8015    0.0000 O   0  0  0  0  0  0  0  0  0  0  0  0
    3.6895   -4.9753    0.0000 O   0  0  0  0  0  0  0  0  0  0  0  0
    2.2596   -5.7998    0.0000 O   0  0  0  0  0  0  0  0  0  0  0  0
    2.2395  -13.2242    0.0000 C   0  0  0  0  0  0  0  0  0  0  0  0
    0.1111   -8.6796    0.0000 C   0  0  0  0  0  0  0  0  0  0  0  0
    4.4043   -4.5634    0.0000 C   0  0  0  0  0  0  0  0  0  0  0  0
   10.1782  -11.0212    0.0000 C   0  0  0  0  0  0  0  0  0  0  0  0
   10.6631  -10.3537    0.0000 C   0  0  0  0  0  0  0  0  0  0  0  0
   10.1782   -9.6863    0.0000 C   0  0  2  0  0  0  0  0  0  0  0  0
   10.4331   -8.9017    0.0000 C   0  0  1  0  0  0  0  0  0  0  0  0
   10.9628   -9.4314    0.0000 H   0  0  0  0  0  0  0  0  0  0  0  0
    9.8811   -8.2886    0.0000 C   0  0  0  0  0  0  0  0  0  0  0  0
   11.2401   -8.7302    0.0000 O   0  0  0  0  0  0  0  0  0  0  0  0
   11.7921   -9.3433    0.0000 C   0  0  2  0  0  0  0  0  0  0  0  0
   11.5372  -10.1279    0.0000 O   0  0  0  0  0  0  0  0  0  0  0  0
   12.0892  -10.7410    0.0000 C   0  0  1  0  0  0  0  0  0  0  0  0
   12.8962  -10.5694    0.0000 C   0  0  2  0  0  0  0  0  0  0  0  0
   13.1511   -9.7848    0.0000 C   0  0  1  0  0  0  0  0  0  0  0  0
   12.5991   -9.1717    0.0000 C   0  0  1  0  0  0  0  0  0  0  0  0
   11.8343  -11.5256    0.0000 C   0  0  0  0  0  0  0  0  0  0  0  0
   13.9581   -9.6133    0.0000 O   0  0  0  0  0  0  0  0  0  0  0  0
   12.8540   -8.3871    0.0000 O   0  0  0  0  0  0  0  0  0  0  0  0
   13.4482  -11.1825    0.0000 O   0  0  0  0  0  0  0  0  0  0  0  0
   12.3863  -12.1387    0.0000 O   0  0  0  0  0  0  0  0  0  0  0  0
  1  2  1  0  0  0  0
  2  3  1  0  0  0  0
  3  4  1  0  0  0  0
  4  5  1  0  0  0  0
  5  6  1  0  0  0  0
  6  1  1  0  0  0  0
  4  7  1  0  0  0  0
  7  8  1  0  0  0  0
  8  9  1  0  0  0  0
  9 10  1  0  0  0  0
 10  5  1  0  0  0  0
  9 11  1  0  0  0  0
 11 12  1  0  0  0  0
 12 13  1  0  0  0  0
 13 14  1  0  0  0  0
 14 10  1  0  0  0  0
  2 15  1  1  0  0  0
  5 16  1  1  0  0  0
  9 17  1  1  0  0  0
 11 18  1  1  0  0  0
 12 19  1  1  0  0  0
 13 20  1  1  0  0  0
  4 21  1  6  0  0  0
 10 22  1  6  0  0  0
 14 23  1  6  0  0  0
 24 25  1  0  0  0  0
 25 26  1  0  0  0  0
 26 27  1  0  0  0  0
 27 28  1  0  0  0  0
 28 29  1  0  0  0  0
 29 24  1  0  0  0  0
 24 30  1  1  0  0  0
 25 31  1  6  0  0  0
 26 32  1  6  0  0  0
 33 31  1  1  0  0  0
 33 34  1  0  0  0  0
 34 35  1  0  0  0  0
 35 36  1  0  0  0  0
 36 37  1  0  0  0  0
 37 38  1  0  0  0  0
 38 33  1  0  0  0  0
 35 39  1  1  0  0  0
 37 40  1  1  0  0  0
 36 41  1  6  0  0  0
 42 41  1  1  0  0  0
 42 43  1  0  0  0  0
 43 44  1  0  0  0  0
 44 45  1  0  0  0  0
 45 46  1  0  0  0  0
 46 47  1  0  0  0  0
 47 42  1  0  0  0  0
 44 48  1  1  0  0  0
 45 49  1  6  0  0  0
 46 50  1  6  0  0  0
 47 51  1  6  0  0  0
 32 52  1  0  0  0  0
 40 53  1  0  0  0  0
 50 54  1  0  0  0  0
 28 15  1  1  0  0  0
 11 55  1  0  0  0  0
 55 56  1  0  0  0  0
 56 57  1  0  0  0  0
 57 12  1  0  0  0  0
 57 58  1  0  0  0  0
 57 59  1  6  0  0  0
 58 60  1  0  0  0  0
 58 61  1  1  0  0  0
 62 61  1  1  0  0  0
 62 63  1  0  0  0  0
 63 64  1  0  0  0  0
 64 65  1  0  0  0  0
 65 66  1  0  0  0  0
 66 67  1  0  0  0  0
 67 62  1  0  0  0  0
 64 68  1  1  0  0  0
 66 69  1  1  0  0  0
 67 70  1  6  0  0  0
 65 71  1  6  0  0  0
 68 72  1  0  0  0  0
M  END
>  <cdx:fragmentId>
92

$$$$
