5375252.cdx
  Mrv1902 05222410282D          

 14 15  0  0  0  0            999 V2000
   17.2120   -9.2741    0.0000 C   0  0  0  0  0  0  0  0  0  0  0  0
   17.2120   -8.4491    0.0000 C   0  0  0  0  0  0  0  0  0  0  0  0
   16.4975   -8.0366    0.0000 C   0  0  0  0  0  0  0  0  0  0  0  0
   16.4975   -7.2116    0.0000 O   0  0  0  0  0  0  0  0  0  0  0  0
   15.7830   -8.4491    0.0000 C   0  0  0  0  0  0  0  0  0  0  0  0
   15.0686   -8.0366    0.0000 C   0  0  0  0  0  0  0  0  0  0  0  0
   14.3541   -8.4491    0.0000 C   0  0  0  0  0  0  0  0  0  0  0  0
   14.3541   -9.2741    0.0000 C   0  0  0  0  0  0  0  0  0  0  0  0
   15.0686   -9.6866    0.0000 C   0  0  0  0  0  0  0  0  0  0  0  0
   15.7830   -9.2741    0.0000 C   0  0  0  0  0  0  0  0  0  0  0  0
   16.4975   -9.6866    0.0000 O   0  0  0  0  0  0  0  0  0  0  0  0
   17.9265   -9.6866    0.0000 C   0  0  0  0  0  0  0  0  0  0  0  0
   13.6396   -9.6866    0.0000 O   0  0  0  0  0  0  0  0  0  0  0  0
   15.0686   -7.2116    0.0000 O   0  0  0  0  0  0  0  0  0  0  0  0
  1  2  2  0  0  0  0
  2  3  1  0  0  0  0
  3  4  2  0  0  0  0
  3  5  1  0  0  0  0
  5  6  1  0  0  0  0
  6  7  2  0  0  0  0
  7  8  1  0  0  0  0
  8  9  2  0  0  0  0
  9 10  1  0  0  0  0
  5 10  2  0  0  0  0
 10 11  1  0  0  0  0
  1 11  1  0  0  0  0
  1 12  1  0  0  0  0
  8 13  1  0  0  0  0
  6 14  1  0  0  0  0
M  END
>  <cdx:groupId>
32419

>  <cdx:fragmentId>
32379

$$$$
