36.cdx
  Mrv1902 05222410282D          

 31 35  0  0  0  0            999 V2000
    2.2021   -1.9378    0.0000 C   0  0  0  0  0  0  0  0  0  0  0  0
    1.9532   -2.7244    0.0000 C   0  0  0  0  0  0  0  0  0  0  0  0
    2.5099   -3.3332    0.0000 C   0  0  0  0  0  0  0  0  0  0  0  0
    3.3156   -3.1555    0.0000 C   0  0  0  0  0  0  0  0  0  0  0  0
    3.5645   -2.3689    0.0000 C   0  0  0  0  0  0  0  0  0  0  0  0
    3.0077   -1.7601    0.0000 C   0  0  0  0  0  0  0  0  0  0  0  0
    3.9867   -3.6353    0.0000 N   0  0  0  0  0  0  0  0  0  0  0  0
    4.6504   -3.1453    0.0000 C   0  0  0  0  0  0  0  0  0  0  0  0
    4.3894   -2.3626    0.0000 C   0  0  0  0  0  0  0  0  0  0  0  0
    5.4587   -3.3106    0.0000 C   0  0  2  0  0  0  0  0  0  0  0  0
    6.0060   -2.6933    0.0000 N   0  0  0  0  0  0  0  0  0  0  0  0
    5.7450   -1.9106    0.0000 C   0  0  0  0  0  0  0  0  0  0  0  0
    4.9368   -1.7453    0.0000 C   0  0  0  0  0  0  0  0  0  0  0  0
    1.1476   -2.9021    0.0000 O   0  0  0  0  0  0  0  0  0  0  0  0
    5.7196   -4.0932    0.0000 C   0  0  0  0  0  0  0  0  0  0  0  0
    6.5279   -4.2586    0.0000 C   0  0  0  0  0  0  0  0  0  0  0  0
    7.0752   -3.6413    0.0000 C   0  0  0  0  0  0  0  0  0  0  0  0
    6.8142   -2.8586    0.0000 C   0  0  0  0  0  0  0  0  0  0  0  0
    6.7888   -5.0412    0.0000 C   0  0  0  0  0  0  0  0  0  0  0  0
    7.5971   -5.2065    0.0000 C   0  0  0  0  0  0  0  0  0  0  0  0
    8.1444   -4.5892    0.0000 O   0  0  0  0  0  0  0  0  0  0  0  0
    7.8834   -3.8066    0.0000 C   0  0  0  0  0  0  0  0  0  0  0  0
    0.5909   -2.2932    0.0000 C   0  0  0  0  0  0  0  0  0  0  0  0
    5.9445   -4.8419    0.0000 C   0  0  0  0  0  0  0  0  0  0  0  0
    7.6585   -3.0579    0.0000 C   0  0  0  0  0  0  0  0  0  0  0  0
    4.8753   -3.8940    0.0000 H   0  0  0  0  0  0  0  0  0  0  0  0
    6.2055   -5.6246    0.0000 C   0  0  0  0  0  0  0  0  0  0  0  0
    6.4190   -6.4215    0.0000 O   0  0  0  0  0  0  0  0  0  0  0  0
    5.4086   -5.4111    0.0000 O   0  0  0  0  0  0  0  0  0  0  0  0
    4.8252   -5.9944    0.0000 C   0  0  0  0  0  0  0  0  0  0  0  0
    8.5979   -3.3941    0.0000 C   0  0  0  0  0  0  0  0  0  0  0  0
  1  2  2  0  0  0  0
  2  3  1  0  0  0  0
  3  4  2  0  0  0  0
  4  5  1  0  0  0  0
  5  6  2  0  0  0  0
  6  1  1  0  0  0  0
  4  7  1  0  0  0  0
  7  8  1  0  0  0  0
  8  9  2  0  0  0  0
  9  5  1  0  0  0  0
  8 10  1  0  0  0  0
 10 11  1  0  0  0  0
 11 12  1  0  0  0  0
 12 13  1  0  0  0  0
 13  9  1  0  0  0  0
  2 14  1  0  0  0  0
 10 15  1  0  0  0  0
 15 16  1  0  0  0  0
 16 17  1  0  0  0  0
 17 18  1  0  0  0  0
 18 11  1  0  0  0  0
 16 19  1  0  0  0  0
 20 21  1  0  0  0  0
 21 22  1  0  0  0  0
 22 17  1  0  0  0  0
 14 23  1  0  0  0  0
 16 24  1  0  0  0  0
 17 25  1  0  0  0  0
 10 26  1  1  0  0  0
 19 20  2  0  0  0  0
 19 27  1  0  0  0  0
 22 31  1  0  0  0  0
 27 28  2  0  0  0  0
 27 29  1  0  0  0  0
 29 30  1  0  0  0  0
M  STY  1   1 SUP
M  SAL   1  4  27  28  29  30
M  SBL   1  1  31
M  SMT   1 COOCH3
M  SAP   1  1  27  19  1
M  END
>  <cdx:fragmentId>
72

$$$$
