37533.cdx
  Mrv1902 05222410262D          

 23 25  0  0  0  0            999 V2000
    5.5588   -6.8147    0.0000 O   0  0  0  0  0  0  0  0  0  0  0  0
    4.1299   -7.6397    0.0000 O   0  0  0  0  0  0  0  0  0  0  0  0
    9.8456   -9.2897    0.0000 O   0  0  0  0  0  0  0  0  0  0  0  0
    8.4167   -6.8147    0.0000 O   0  0  0  0  0  0  0  0  0  0  0  0
   10.5601   -8.0522    0.0000 C   0  0  0  0  0  0  0  0  0  0  0  0
    9.8456   -7.6397    0.0000 O   0  0  0  0  0  0  0  0  0  0  0  0
    4.1299   -9.2897    0.0000 C   0  0  0  0  0  0  0  0  0  0  0  0
    6.9878  -10.1147    0.0000 O   0  0  0  0  0  0  0  0  0  0  0  0
    6.9878   -6.8147    0.0000 O   0  0  0  0  0  0  0  0  0  0  0  0
    6.2733   -8.0522    0.0000 C   0  0  0  0  0  0  0  0  0  0  0  0
    6.9878   -7.6397    0.0000 C   0  0  0  0  0  0  0  0  0  0  0  0
    7.7022   -8.0522    0.0000 C   0  0  0  0  0  0  0  0  0  0  0  0
    8.4167   -7.6397    0.0000 C   0  0  0  0  0  0  0  0  0  0  0  0
    9.1312   -8.0522    0.0000 C   0  0  0  0  0  0  0  0  0  0  0  0
    9.1312   -8.8772    0.0000 C   0  0  0  0  0  0  0  0  0  0  0  0
    8.4167   -9.2897    0.0000 C   0  0  0  0  0  0  0  0  0  0  0  0
    7.7022   -8.8772    0.0000 C   0  0  0  0  0  0  0  0  0  0  0  0
    6.9878   -9.2897    0.0000 C   0  0  0  0  0  0  0  0  0  0  0  0
    6.2733   -8.8772    0.0000 C   0  0  0  0  0  0  0  0  0  0  0  0
    5.5588   -9.2897    0.0000 C   0  0  0  0  0  0  0  0  0  0  0  0
    4.8443   -8.8772    0.0000 C   0  0  0  0  0  0  0  0  0  0  0  0
    4.8443   -8.0522    0.0000 C   0  0  0  0  0  0  0  0  0  0  0  0
    5.5588   -7.6397    0.0000 C   0  0  0  0  0  0  0  0  0  0  0  0
 23  1  1  0  0  0  0
 22  2  1  0  0  0  0
 15  3  1  0  0  0  0
 13  4  1  0  0  0  0
 14  6  1  0  0  0  0
  6  5  1  0  0  0  0
 21  7  1  0  0  0  0
 18  8  2  0  0  0  0
 11  9  2  0  0  0  0
 23 10  2  0  0  0  0
 19 10  1  0  0  0  0
 11 10  1  0  0  0  0
 12 11  1  0  0  0  0
 17 12  2  0  0  0  0
 13 12  1  0  0  0  0
 14 13  2  0  0  0  0
 15 14  1  0  0  0  0
 16 15  2  0  0  0  0
 17 16  1  0  0  0  0
 18 17  1  0  0  0  0
 19 18  1  0  0  0  0
 20 19  2  0  0  0  0
 21 20  1  0  0  0  0
 22 21  2  0  0  0  0
 23 22  1  0  0  0  0
M  END
>  <cdx:fragmentId>
5

$$$$
