37531.cdx
  Mrv1902 05222410272D          

  7  6  0  0  0  0            999 V2000
    6.1445   -5.8964    0.0000 C   0  0  0  0  0  0  0  0  0  0  0  0
    6.8589   -6.3089    0.0000 C   0  0  0  0  0  0  0  0  0  0  0  0
    7.5734   -5.8964    0.0000 C   0  0  0  0  0  0  0  0  0  0  0  0
    8.2879   -6.3089    0.0000 C   0  0  0  0  0  0  0  0  0  0  0  0
    9.0024   -5.8964    0.0000 C   0  0  0  0  0  0  0  0  0  0  0  0
    9.7168   -6.3089    0.0000 C   0  0  0  0  0  0  0  0  0  0  0  0
    5.4300   -6.3089    0.0000 O   0  0  0  0  0  0  0  0  0  0  0  0
  1  2  2  0  0  0  0
  2  3  1  0  0  0  0
  3  4  1  0  0  0  0
  4  5  1  0  0  0  0
  5  6  1  0  0  0  0
  1  7  1  0  0  0  0
M  END
>  <cdx:fragmentId>
5

$$$$
