37530.cdx
  Mrv1902 05222410262D          

 71 78  0  0  0  0            999 V2000
    7.9937  -10.3812    0.0000 C   0  0  0  0  0  0  0  0  0  0  0  0
    7.9937  -11.2062    0.0000 C   0  0  1  0  0  0  0  0  0  0  0  0
    8.7081  -11.6187    0.0000 C   0  0  0  0  0  0  0  0  0  0  0  0
    9.4226  -11.2062    0.0000 C   0  0  1  0  0  0  0  0  0  0  0  0
    9.4226  -10.3812    0.0000 C   0  0  2  0  0  0  0  0  0  0  0  0
    8.7081   -9.9688    0.0000 C   0  0  0  0  0  0  0  0  0  0  0  0
   10.1371  -11.6187    0.0000 C   0  0  0  0  0  0  0  0  0  0  0  0
   10.8516  -11.2062    0.0000 C   0  0  0  0  0  0  0  0  0  0  0  0
   10.8516  -10.3812    0.0000 C   0  0  2  0  0  0  0  0  0  0  0  0
   10.1371   -9.9688    0.0000 C   0  0  2  0  0  0  0  0  0  0  0  0
   11.5660   -9.9688    0.0000 C   0  0  1  0  0  0  0  0  0  0  0  0
   11.5660   -9.1438    0.0000 C   0  0  1  0  0  0  0  0  0  0  0  0
   10.8516   -8.7313    0.0000 C   0  0  1  0  0  0  0  0  0  0  0  0
   10.1371   -9.1438    0.0000 C   0  0  1  0  0  0  0  0  0  0  0  0
    7.2792  -11.6187    0.0000 O   0  0  0  0  0  0  0  0  0  0  0  0
    9.4226   -9.5563    0.0000 C   0  0  0  0  0  0  0  0  0  0  0  0
   10.8516   -9.5563    0.0000 H   0  0  0  0  0  0  0  0  0  0  0  0
   11.5660  -10.7937    0.0000 O   0  0  0  0  0  0  0  0  0  0  0  0
   11.5660   -8.3187    0.0000 C   0  0  0  0  0  0  0  0  0  0  0  0
   10.8516   -7.9063    0.0000 O   0  0  0  0  0  0  0  0  0  0  0  0
    9.4226  -12.0313    0.0000 H   0  0  0  0  0  0  0  0  0  0  0  0
   10.1371  -10.7937    0.0000 H   0  0  0  0  0  0  0  0  0  0  0  0
    9.4226   -8.7313    0.0000 O   0  0  0  0  0  0  0  0  0  0  0  0
    6.5696  -13.6936    0.0000 C   0  0  2  0  0  0  0  0  0  0  0  0
    7.2857  -14.1033    0.0000 C   0  0  2  0  0  0  0  0  0  0  0  0
    7.9985  -13.6880    0.0000 C   0  0  2  0  0  0  0  0  0  0  0  0
    7.9953  -12.8630    0.0000 C   0  0  0  0  0  0  0  0  0  0  0  0
    7.2792  -12.4533    0.0000 C   0  0  1  0  0  0  0  0  0  0  0  0
    6.5663  -12.8686    0.0000 O   0  0  0  0  0  0  0  0  0  0  0  0
    5.8567  -14.1089    0.0000 C   0  0  0  0  0  0  0  0  0  0  0  0
    7.2889  -14.9283    0.0000 O   0  0  0  0  0  0  0  0  0  0  0  0
    8.7146  -14.0977    0.0000 O   0  0  0  0  0  0  0  0  0  0  0  0
    6.5760  -15.3436    0.0000 C   0  0  2  0  0  0  0  0  0  0  0  0
    5.8600  -14.9339    0.0000 O   0  0  0  0  0  0  0  0  0  0  0  0
    5.1471  -15.3492    0.0000 C   0  0  1  0  0  0  0  0  0  0  0  0
    5.1503  -16.1742    0.0000 C   0  0  2  0  0  0  0  0  0  0  0  0
    5.8664  -16.5839    0.0000 C   0  0  1  0  0  0  0  0  0  0  0  0
    6.5793  -16.1686    0.0000 C   0  0  0  0  0  0  0  0  0  0  0  0
    4.4310  -14.9395    0.0000 C   0  0  0  0  0  0  0  0  0  0  0  0
    5.8697  -17.4088    0.0000 O   0  0  0  0  0  0  0  0  0  0  0  0
    4.4375  -16.5895    0.0000 O   0  0  0  0  0  0  0  0  0  0  0  0
    3.7204  -16.1816    0.0000 C   0  0  2  0  0  0  0  0  0  0  0  0
    3.7151  -15.3566    0.0000 O   0  0  0  0  0  0  0  0  0  0  0  0
    2.9980  -14.9487    0.0000 C   0  0  1  0  0  0  0  0  0  0  0  0
    2.2862  -15.3658    0.0000 C   0  0  2  0  0  0  0  0  0  0  0  0
    2.2915  -16.1907    0.0000 C   0  0  2  0  0  0  0  0  0  0  0  0
    3.0086  -16.5986    0.0000 C   0  0  1  0  0  0  0  0  0  0  0  0
    2.9927  -14.1237    0.0000 C   0  0  0  0  0  0  0  0  0  0  0  0
    1.5691  -14.9579    0.0000 O   0  0  0  0  0  0  0  0  0  0  0  0
    1.5797  -16.6078    0.0000 O   0  0  0  0  0  0  0  0  0  0  0  0
    3.0145  -17.4236    0.0000 O   0  0  0  0  0  0  0  0  0  0  0  0
    9.4274  -13.6824    0.0000 C   0  0  0  0  0  0  0  0  0  0  0  0
    6.5857  -17.8185    0.0000 C   0  0  0  0  0  0  0  0  0  0  0  0
    0.8626  -16.1999    0.0000 C   0  0  0  0  0  0  0  0  0  0  0  0
   12.3507  -10.2237    0.0000 C   0  0  0  0  0  0  0  0  0  0  0  0
   12.8356   -9.5563    0.0000 C   0  0  0  0  0  0  0  0  0  0  0  0
   12.3507   -8.8888    0.0000 C   0  0  2  0  0  0  0  0  0  0  0  0
   12.6056   -8.1042    0.0000 C   0  0  1  0  0  0  0  0  0  0  0  0
   13.1353   -8.6339    0.0000 H   0  0  0  0  0  0  0  0  0  0  0  0
   12.0536   -7.4911    0.0000 C   0  0  0  0  0  0  0  0  0  0  0  0
   13.4126   -7.9327    0.0000 O   0  0  0  0  0  0  0  0  0  0  0  0
    7.9937   -8.7313    0.0000 C   0  0  0  0  0  0  0  0  0  0  0  0
    8.7081   -8.3187    0.0000 C   0  0  0  0  0  0  0  0  0  0  0  0
    8.7081   -7.4937    0.0000 O   0  0  0  0  0  0  0  0  0  0  0  0
    7.2792   -8.3188    0.0000 C   0  0  0  0  0  0  0  0  0  0  0  0
    6.5647   -8.7313    0.0000 C   0  0  0  0  0  0  0  0  0  0  0  0
    5.8503   -8.3188    0.0000 C   0  0  0  0  0  0  0  0  0  0  0  0
    5.1358   -8.7313    0.0000 C   0  0  0  0  0  0  0  0  0  0  0  0
    5.1358   -9.5563    0.0000 C   0  0  0  0  0  0  0  0  0  0  0  0
    5.8503   -9.9688    0.0000 C   0  0  0  0  0  0  0  0  0  0  0  0
    6.5647   -9.5563    0.0000 C   0  0  0  0  0  0  0  0  0  0  0  0
  1  2  1  0  0  0  0
  2  3  1  0  0  0  0
  3  4  1  0  0  0  0
  4  5  1  0  0  0  0
  5  6  1  0  0  0  0
  6  1  1  0  0  0  0
  4  7  1  0  0  0  0
  7  8  1  0  0  0  0
  8  9  1  0  0  0  0
  9 10  1  0  0  0  0
 10  5  1  0  0  0  0
  9 11  1  0  0  0  0
 11 12  1  0  0  0  0
 12 13  1  0  0  0  0
 13 14  1  0  0  0  0
 14 10  1  0  0  0  0
  2 15  1  1  0  0  0
  5 16  1  1  0  0  0
  9 17  1  1  0  0  0
 11 18  1  1  0  0  0
 12 19  1  1  0  0  0
 13 20  1  1  0  0  0
  4 21  1  6  0  0  0
 10 22  1  6  0  0  0
 14 23  1  6  0  0  0
 24 25  1  0  0  0  0
 25 26  1  0  0  0  0
 26 27  1  0  0  0  0
 27 28  1  0  0  0  0
 28 29  1  0  0  0  0
 29 24  1  0  0  0  0
 24 30  1  1  0  0  0
 25 31  1  6  0  0  0
 26 32  1  6  0  0  0
 33 31  1  1  0  0  0
 33 34  1  0  0  0  0
 34 35  1  0  0  0  0
 35 36  1  0  0  0  0
 36 37  1  0  0  0  0
 37 38  1  0  0  0  0
 38 33  1  0  0  0  0
 35 39  1  1  0  0  0
 37 40  1  1  0  0  0
 36 41  1  6  0  0  0
 42 41  1  1  0  0  0
 42 43  1  0  0  0  0
 43 44  1  0  0  0  0
 44 45  1  0  0  0  0
 45 46  1  0  0  0  0
 46 47  1  0  0  0  0
 47 42  1  0  0  0  0
 44 48  1  1  0  0  0
 45 49  1  6  0  0  0
 46 50  1  6  0  0  0
 47 51  1  6  0  0  0
 32 52  1  0  0  0  0
 40 53  1  0  0  0  0
 50 54  1  0  0  0  0
 28 15  1  1  0  0  0
 11 55  1  0  0  0  0
 55 56  1  0  0  0  0
 56 57  1  0  0  0  0
 57 12  1  0  0  0  0
 57 58  1  0  0  0  0
 57 59  1  6  0  0  0
 58 60  1  0  0  0  0
 58 61  1  1  0  0  0
 23 63  1  0  0  0  0
 63 62  1  0  0  0  0
 63 64  2  0  0  0  0
 62 65  2  0  0  0  0
 65 66  1  0  0  0  0
 66 67  2  0  0  0  0
 67 68  1  0  0  0  0
 68 69  2  0  0  0  0
 69 70  1  0  0  0  0
 70 71  2  0  0  0  0
 71 66  1  0  0  0  0
M  END
>  <cdx:fragmentId>
92

$$$$
