37535.cdx
  Mrv1902 05222410272D          

 21 23  0  0  0  0            999 V2000
    5.8465   -6.3071    0.0000 O   0  0  0  0  0  0  0  0  0  0  0  0
    5.1320   -6.7196    0.0000 C   0  0  0  0  0  0  0  0  0  0  0  0
    5.1320   -7.5446    0.0000 C   0  0  0  0  0  0  0  0  0  0  0  0
    4.3175   -7.8237    0.0000 C   0  0  0  0  0  0  0  0  0  0  0  0
    4.3175   -8.4975    0.0000 C   0  0  0  0  0  0  0  0  0  0  0  0
    3.7262   -8.8825    0.0000 C   0  0  0  0  0  0  0  0  0  0  0  0
    4.5375   -8.8413    0.0000 C   0  0  0  0  0  0  0  0  0  0  0  0
    4.9913   -9.3500    0.0000 C   0  0  0  0  0  0  0  0  0  0  0  0
    5.6925   -8.5938    0.0000 C   0  0  0  0  0  0  0  0  0  0  0  0
    5.6925   -7.8513    0.0000 C   0  0  0  0  0  0  0  0  0  0  0  0
    4.9775   -8.8275    0.0000 C   0  0  0  0  0  0  0  0  0  0  0  0
    4.5100   -8.2637    0.0000 C   0  0  0  0  0  0  0  0  0  0  0  0
    5.1158   -5.1314    0.0000 O   0  0  0  0  0  0  0  0  0  0  0  0
    8.6881   -1.4189    0.0000 C   0  0  0  0  0  0  0  0  0  0  0  0
    7.9737   -1.8314    0.0000 C   0  0  0  0  0  0  0  0  0  0  0  0
    7.9737   -2.6564    0.0000 C   0  0  0  0  0  0  0  0  0  0  0  0
    7.2592   -3.0689    0.0000 C   0  0  0  0  0  0  0  0  0  0  0  0
    7.2592   -3.8939    0.0000 C   0  0  0  0  0  0  0  0  0  0  0  0
    6.5447   -4.3064    0.0000 C   0  0  0  0  0  0  0  0  0  0  0  0
    6.5447   -5.1314    0.0000 C   0  0  0  0  0  0  0  0  0  0  0  0
    5.8303   -5.5439    0.0000 C   0  0  0  0  0  0  0  0  0  0  0  0
  3  4  1  0  0  0  0
  4  5  1  0  0  0  0
  5  6  1  0  0  0  0
  6  7  1  0  0  0  0
  7  8  1  0  0  0  0
  8  9  1  0  0  0  0
  9 10  1  0  0  0  0
  3 10  1  0  0  0  0
  9 11  1  0  0  0  0
  5 11  1  0  0  0  0
  7 12  1  0  0  0  0
  3 12  1  0  0  0  0
  2  3  1  0  0  0  0
  1  2  1  0  0  0  0
 21 13  2  0  0  0  0
 15 14  1  0  0  0  0
 16 15  1  0  0  0  0
 17 16  1  0  0  0  0
 18 17  1  0  0  0  0
 19 18  1  0  0  0  0
 20 19  1  0  0  0  0
 21 20  1  0  0  0  0
  1 21  1  0  0  0  0
M  END
>  <cdx:fragmentId>
80

$$$$
