37538.cdx
  Mrv1902 05222410192D          

 58 63  0  0  0  0            999 V2000
    4.0705   -8.6281    0.0000 C   0  0  0  0  0  0  0  0  0  0  0  0
    4.0705   -9.4531    0.0000 C   0  0  1  0  0  0  0  0  0  0  0  0
    4.7850   -9.8656    0.0000 C   0  0  1  0  0  0  0  0  0  0  0  0
    5.4995   -9.4531    0.0000 C   0  0  0  0  0  0  0  0  0  0  0  0
    5.4995   -8.6281    0.0000 C   0  0  1  0  0  0  0  0  0  0  0  0
    4.7850   -8.2156    0.0000 C   0  0  0  0  0  0  0  0  0  0  0  0
    6.2139   -9.8656    0.0000 C   0  0  0  0  0  0  0  0  0  0  0  0
    6.9284   -9.4531    0.0000 C   0  0  0  0  0  0  0  0  0  0  0  0
    6.9284   -8.6281    0.0000 C   0  0  2  0  0  0  0  0  0  0  0  0
    6.2139   -8.2156    0.0000 C   0  0  1  0  0  0  0  0  0  0  0  0
    7.6429   -8.2156    0.0000 C   0  0  1  0  0  0  0  0  0  0  0  0
    7.6429   -7.3906    0.0000 C   0  0  2  0  0  0  0  0  0  0  0  0
    6.9284   -6.9781    0.0000 C   0  0  0  0  0  0  0  0  0  0  0  0
    6.2139   -7.3906    0.0000 C   0  0  1  0  0  0  0  0  0  0  0  0
    8.4275   -8.4706    0.0000 C   0  0  0  0  0  0  0  0  0  0  0  0
    8.9124   -7.8031    0.0000 C   0  0  0  0  0  0  0  0  0  0  0  0
    8.4275   -7.1357    0.0000 C   0  0  2  0  0  0  0  0  0  0  0  0
    8.6410   -6.3388    0.0000 C   0  0  2  0  0  0  0  0  0  0  0  0
    8.0577   -5.7554    0.0000 C   0  0  0  0  0  0  0  0  0  0  0  0
    8.2712   -4.9585    0.0000 C   0  0  1  0  0  0  0  0  0  0  0  0
    7.6450   -4.5925    0.0000 C   0  0  0  0  0  0  0  0  0  0  0  0
    6.8481   -4.8060    0.0000 C   0  0  0  0  0  0  0  0  0  0  0  0
    9.0962   -4.9585    0.0000 O   0  0  0  0  0  0  0  0  0  0  0  0
    7.6429   -6.5656    0.0000 C   0  0  0  0  0  0  0  0  0  0  0  0
    6.9284   -7.8031    0.0000 H   0  0  0  0  0  0  0  0  0  0  0  0
    4.2016  -10.4490    0.0000 C   0  0  0  0  0  0  0  0  0  0  0  0
    3.4872  -10.0365    0.0000 O   0  0  0  0  0  0  0  0  0  0  0  0
    5.4995  -10.2781    0.0000 C   0  0  0  0  0  0  0  0  0  0  0  0
    5.4995   -7.8031    0.0000 H   0  0  0  0  0  0  0  0  0  0  0  0
    7.8564   -9.0125    0.0000 C   0  0  0  0  0  0  0  0  0  0  0  0
    5.4171   -7.1771    0.0000 O   0  0  0  0  0  0  0  0  0  0  0  0
    9.2244   -6.9222    0.0000 H   0  0  0  0  0  0  0  0  0  0  0  0
    9.3555   -5.9263    0.0000 C   0  0  0  0  0  0  0  0  0  0  0  0
    6.9305   -4.1800    0.0000 O   0  0  0  0  0  0  0  0  0  0  0  0
    7.6450   -3.7675    0.0000 C   0  0  0  0  0  0  0  0  0  0  0  0
    6.2139   -9.0406    0.0000 C   0  0  0  0  0  0  0  0  0  0  0  0
    9.5087   -4.2441    0.0000 C   0  0  2  0  0  0  0  0  0  0  0  0
   10.3337   -4.2441    0.0000 O   0  0  0  0  0  0  0  0  0  0  0  0
   10.7462   -3.5296    0.0000 C   0  0  1  0  0  0  0  0  0  0  0  0
   10.3337   -2.8151    0.0000 C   0  0  2  0  0  0  0  0  0  0  0  0
    9.5087   -2.8151    0.0000 C   0  0  1  0  0  0  0  0  0  0  0  0
    9.0962   -3.5296    0.0000 C   0  0  1  0  0  0  0  0  0  0  0  0
   11.5712   -3.5296    0.0000 C   0  0  0  0  0  0  0  0  0  0  0  0
    9.0962   -2.1007    0.0000 O   0  0  0  0  0  0  0  0  0  0  0  0
    8.2712   -3.5296    0.0000 O   0  0  0  0  0  0  0  0  0  0  0  0
   10.7462   -2.1007    0.0000 O   0  0  0  0  0  0  0  0  0  0  0  0
   11.9837   -2.8151    0.0000 O   0  0  0  0  0  0  0  0  0  0  0  0
    3.4440  -10.8571    0.0000 C   0  0  2  0  0  0  0  0  0  0  0  0
    2.7242  -11.2601    0.0000 O   0  0  0  0  0  0  0  0  0  0  0  0
    2.7132  -12.0850    0.0000 C   0  0  1  0  0  0  0  0  0  0  0  0
    3.4222  -12.5070    0.0000 C   0  0  2  0  0  0  0  0  0  0  0  0
    4.1420  -12.1040    0.0000 C   0  0  1  0  0  0  0  0  0  0  0  0
    4.1530  -11.2790    0.0000 C   0  0  1  0  0  0  0  0  0  0  0  0
    1.9934  -12.4880    0.0000 C   0  0  0  0  0  0  0  0  0  0  0  0
    4.8510  -12.5259    0.0000 O   0  0  0  0  0  0  0  0  0  0  0  0
    4.8729  -10.8760    0.0000 O   0  0  0  0  0  0  0  0  0  0  0  0
    3.4112  -13.3319    0.0000 O   0  0  0  0  0  0  0  0  0  0  0  0
    1.9824  -13.3129    0.0000 O   0  0  0  0  0  0  0  0  0  0  0  0
  1  2  1  0  0  0  0
  2  3  1  0  0  0  0
  3  4  1  0  0  0  0
  4  5  1  0  0  0  0
  5  6  1  0  0  0  0
  6  1  1  0  0  0  0
  4  7  2  0  0  0  0
  7  8  1  0  0  0  0
  8  9  1  0  0  0  0
  9 10  1  0  0  0  0
 10  5  1  0  0  0  0
  9 11  1  0  0  0  0
 11 12  1  0  0  0  0
 12 13  1  0  0  0  0
 13 14  1  0  0  0  0
 14 10  1  0  0  0  0
 11 15  1  0  0  0  0
 15 16  1  0  0  0  0
 16 17  1  0  0  0  0
 17 12  1  0  0  0  0
 17 18  1  0  0  0  0
 18 19  1  0  0  0  0
 19 20  1  0  0  0  0
 20 21  1  0  0  0  0
 21 22  1  0  0  0  0
 20 23  1  1  0  0  0
 12 24  1  1  0  0  0
  9 25  1  1  0  0  0
  3 26  1  1  0  0  0
  2 27  1  1  0  0  0
  3 28  1  6  0  0  0
  5 29  1  6  0  0  0
 11 30  1  6  0  0  0
 14 31  1  6  0  0  0
 17 32  1  6  0  0  0
 18 33  1  6  0  0  0
 21 34  1  0  0  0  0
 21 35  1  0  0  0  0
 10 36  1  1  0  0  0
 37 23  1  1  0  0  0
 37 38  1  0  0  0  0
 38 39  1  0  0  0  0
 39 40  1  0  0  0  0
 40 41  1  0  0  0  0
 41 42  1  0  0  0  0
 42 37  1  0  0  0  0
 39 43  1  1  0  0  0
 41 44  1  1  0  0  0
 42 45  1  6  0  0  0
 40 46  1  6  0  0  0
 43 47  1  0  0  0  0
 48 49  1  0  0  0  0
 49 50  1  0  0  0  0
 50 51  1  0  0  0  0
 51 52  1  0  0  0  0
 52 53  1  0  0  0  0
 53 48  1  0  0  0  0
 50 54  1  1  0  0  0
 52 55  1  1  0  0  0
 53 56  1  6  0  0  0
 51 57  1  6  0  0  0
 54 58  1  0  0  0  0
 48 27  1  1  0  0  0
M  END
>  <cdx:fragmentId>
180

$$$$
