37.cdx
  Mrv1902 05222410282D          

 36 39  0  0  0  0            999 V2000
    2.1730   -5.3006    0.0000 C   0  0  0  0  0  0  0  0  0  0  0  0
    2.1730   -6.1256    0.0000 C   0  0  1  0  0  0  0  0  0  0  0  0
    2.8875   -6.5381    0.0000 C   0  0  1  0  0  0  0  0  0  0  0  0
    3.6020   -6.1256    0.0000 C   0  0  0  0  0  0  0  0  0  0  0  0
    3.6020   -5.3006    0.0000 C   0  0  1  0  0  0  0  0  0  0  0  0
    2.8875   -4.8881    0.0000 C   0  0  0  0  0  0  0  0  0  0  0  0
    4.3164   -6.5381    0.0000 C   0  0  0  0  0  0  0  0  0  0  0  0
    5.0309   -6.1256    0.0000 C   0  0  0  0  0  0  0  0  0  0  0  0
    5.0309   -5.3006    0.0000 C   0  0  2  0  0  0  0  0  0  0  0  0
    4.3164   -4.8881    0.0000 C   0  0  1  0  0  0  0  0  0  0  0  0
    5.7454   -4.8881    0.0000 C   0  0  1  0  0  0  0  0  0  0  0  0
    5.7454   -4.0631    0.0000 C   0  0  2  0  0  0  0  0  0  0  0  0
    5.0309   -3.6506    0.0000 C   0  0  0  0  0  0  0  0  0  0  0  0
    4.3164   -4.0631    0.0000 C   0  0  1  0  0  0  0  0  0  0  0  0
    6.5300   -5.1431    0.0000 C   0  0  0  0  0  0  0  0  0  0  0  0
    7.0149   -4.4756    0.0000 C   0  0  0  0  0  0  0  0  0  0  0  0
    6.5300   -3.8082    0.0000 C   0  0  2  0  0  0  0  0  0  0  0  0
    6.7435   -3.0113    0.0000 C   0  0  2  0  0  0  0  0  0  0  0  0
    6.1602   -2.4279    0.0000 C   0  0  0  0  0  0  0  0  0  0  0  0
    6.3737   -1.6310    0.0000 C   0  0  1  0  0  0  0  0  0  0  0  0
    5.7903   -1.0477    0.0000 C   0  0  0  0  0  0  0  0  0  0  0  0
    4.9934   -1.2612    0.0000 C   0  0  0  0  0  0  0  0  0  0  0  0
    7.1987   -1.6310    0.0000 O   0  0  0  0  0  0  0  0  0  0  0  0
    5.7454   -3.2381    0.0000 C   0  0  0  0  0  0  0  0  0  0  0  0
    5.0309   -4.4756    0.0000 H   0  0  0  0  0  0  0  0  0  0  0  0
    2.3041   -7.1215    0.0000 C   0  0  0  0  0  0  0  0  0  0  0  0
    1.5897   -6.7090    0.0000 O   0  0  0  0  0  0  0  0  0  0  0  0
    3.6020   -6.9506    0.0000 C   0  0  0  0  0  0  0  0  0  0  0  0
    3.6020   -4.4756    0.0000 H   0  0  0  0  0  0  0  0  0  0  0  0
    5.9589   -5.6850    0.0000 C   0  0  0  0  0  0  0  0  0  0  0  0
    3.5196   -3.8496    0.0000 O   0  0  0  0  0  0  0  0  0  0  0  0
    7.3269   -3.5947    0.0000 H   0  0  0  0  0  0  0  0  0  0  0  0
    7.4580   -2.5988    0.0000 C   0  0  0  0  0  0  0  0  0  0  0  0
    5.2070   -0.4643    0.0000 O   0  0  0  0  0  0  0  0  0  0  0  0
    6.2028   -0.3332    0.0000 C   0  0  0  0  0  0  0  0  0  0  0  0
    4.3164   -5.7131    0.0000 C   0  0  0  0  0  0  0  0  0  0  0  0
  1  2  1  0  0  0  0
  2  3  1  0  0  0  0
  3  4  1  0  0  0  0
  4  5  1  0  0  0  0
  5  6  1  0  0  0  0
  6  1  1  0  0  0  0
  4  7  2  0  0  0  0
  7  8  1  0  0  0  0
  8  9  1  0  0  0  0
  9 10  1  0  0  0  0
 10  5  1  0  0  0  0
  9 11  1  0  0  0  0
 11 12  1  0  0  0  0
 12 13  1  0  0  0  0
 13 14  1  0  0  0  0
 14 10  1  0  0  0  0
 11 15  1  0  0  0  0
 15 16  1  0  0  0  0
 16 17  1  0  0  0  0
 17 12  1  0  0  0  0
 17 18  1  0  0  0  0
 18 19  1  0  0  0  0
 19 20  1  0  0  0  0
 20 21  1  0  0  0  0
 21 22  1  0  0  0  0
 20 23  1  1  0  0  0
 12 24  1  1  0  0  0
  9 25  1  1  0  0  0
  3 26  1  1  0  0  0
  2 27  1  1  0  0  0
  3 28  1  6  0  0  0
  5 29  1  6  0  0  0
 11 30  1  6  0  0  0
 14 31  1  6  0  0  0
 17 32  1  6  0  0  0
 18 33  1  6  0  0  0
 21 34  1  0  0  0  0
 21 35  1  0  0  0  0
 10 36  1  1  0  0  0
M  END
>  <cdx:fragmentId>
180

$$$$
