375422.cdx
  Mrv1902 05222410252D          

 16 17  0  0  0  0            999 V2000
    8.2742   -9.6129    0.0000 O   0  0  0  0  0  0  0  0  0  0  0  0
    8.7591   -8.9454    0.0000 C   0  0  0  0  0  0  0  0  0  0  0  0
    8.2742   -8.2780    0.0000 C   0  0  0  0  0  0  0  0  0  0  0  0
    7.4896   -8.5329    0.0000 C   0  0  1  0  0  0  0  0  0  0  0  0
    6.7751   -8.1204    0.0000 C   0  0  0  0  0  0  0  0  0  0  0  0
    6.0606   -8.5329    0.0000 C   0  0  0  0  0  0  0  0  0  0  0  0
    6.0606   -9.3579    0.0000 C   0  0  1  0  0  0  0  0  0  0  0  0
    6.7751   -9.7704    0.0000 C   0  0  0  0  0  0  0  0  0  0  0  0
    7.4896   -9.3579    0.0000 C   0  0  1  0  0  0  0  0  0  0  0  0
    9.5841   -8.9454    0.0000 O   0  0  0  0  0  0  0  0  0  0  0  0
    5.3462   -8.1204    0.0000 O   0  0  0  0  0  0  0  0  0  0  0  0
    8.5291   -7.4934    0.0000 C   0  0  0  0  0  0  0  0  0  0  0  0
    5.6481  -10.0724    0.0000 C   0  0  0  0  0  0  0  0  0  0  0  0
    5.2356   -9.3579    0.0000 O   0  0  0  0  0  0  0  0  0  0  0  0
    7.4896   -7.7079    0.0000 H   0  0  0  0  0  0  0  0  0  0  0  0
    7.4896  -10.1829    0.0000 H   0  0  0  0  0  0  0  0  0  0  0  0
  1  2  1  0  0  0  0
  2  3  1  0  0  0  0
  3  4  1  0  0  0  0
  4  5  1  0  0  0  0
  5  6  1  0  0  0  0
  6  7  1  0  0  0  0
  7  8  1  0  0  0  0
  8  9  1  0  0  0  0
  4  9  1  0  0  0  0
  1  9  1  0  0  0  0
  2 10  2  0  0  0  0
  6 11  2  0  0  0  0
  3 12  2  0  0  0  0
  7 13  1  1  0  0  0
  7 14  1  6  0  0  0
  4 15  1  1  0  0  0
  9 16  1  1  0  0  0
M  END
>  <cdx:fragmentId>
47567

$$$$
