3754.cdx
  Mrv1902 05222410202D          

 56 60  0  0  0  0            999 V2000
    5.7336  -10.7556    0.0000 C   0  0  0  0  0  0  0  0  0  0  0  0
    5.7336  -11.5806    0.0000 C   0  0  1  0  0  0  0  0  0  0  0  0
    6.4481  -11.9931    0.0000 C   0  0  0  0  0  0  0  0  0  0  0  0
    7.1626  -11.5806    0.0000 C   0  0  0  0  0  0  0  0  0  0  0  0
    7.1626  -10.7556    0.0000 C   0  0  2  0  0  0  0  0  0  0  0  0
    6.4481  -10.3431    0.0000 C   0  0  0  0  0  0  0  0  0  0  0  0
    7.8770  -11.9931    0.0000 C   0  0  0  0  0  0  0  0  0  0  0  0
    8.5915  -11.5806    0.0000 C   0  0  0  0  0  0  0  0  0  0  0  0
    8.5915  -10.7556    0.0000 C   0  0  2  0  0  0  0  0  0  0  0  0
    7.8770  -10.3431    0.0000 C   0  0  2  0  0  0  0  0  0  0  0  0
    9.3060  -10.3431    0.0000 C   0  0  1  0  0  0  0  0  0  0  0  0
    9.3060   -9.5181    0.0000 C   0  0  2  0  0  0  0  0  0  0  0  0
    8.5915   -9.1056    0.0000 C   0  0  0  0  0  0  0  0  0  0  0  0
    7.8770   -9.5181    0.0000 C   0  0  0  0  0  0  0  0  0  0  0  0
   10.0906  -10.5981    0.0000 C   0  0  0  0  0  0  0  0  0  0  0  0
   10.5755   -9.9306    0.0000 C   0  0  0  0  0  0  0  0  0  0  0  0
   10.0906   -9.2632    0.0000 C   0  0  2  0  0  0  0  0  0  0  0  0
   10.3041   -8.4663    0.0000 C   0  0  1  0  0  0  0  0  0  0  0  0
   11.1010   -8.2528    0.0000 C   0  0  0  0  0  0  0  0  0  0  0  0
    5.0192  -11.9931    0.0000 O   0  0  0  0  0  0  0  0  0  0  0  0
    7.1626   -9.9306    0.0000 C   0  0  0  0  0  0  0  0  0  0  0  0
    9.3060   -8.6931    0.0000 C   0  0  0  0  0  0  0  0  0  0  0  0
    9.7208   -7.8830    0.0000 C   0  0  0  0  0  0  0  0  0  0  0  0
   11.3146   -7.4559    0.0000 C   0  0  0  0  0  0  0  0  0  0  0  0
   12.1000   -7.2325    0.0000 C   0  0  2  0  0  0  0  0  0  0  0  0
   12.3135   -6.4356    0.0000 C   0  0  0  0  0  0  0  0  0  0  0  0
   13.1104   -6.2221    0.0000 C   0  0  0  0  0  0  0  0  0  0  0  0
   11.7302   -5.8522    0.0000 C   0  0  0  0  0  0  0  0  0  0  0  0
   12.6834   -7.8159    0.0000 C   0  0  0  0  0  0  0  0  0  0  0  0
   13.4803   -7.6023    0.0000 C   0  0  0  0  0  0  0  0  0  0  0  0
    7.8770  -11.1681    0.0000 H   0  0  0  0  0  0  0  0  0  0  0  0
    8.5915   -9.9306    0.0000 H   0  0  0  0  0  0  0  0  0  0  0  0
    9.3060  -11.1681    0.0000 H   0  0  0  0  0  0  0  0  0  0  0  0
   10.8875   -9.0497    0.0000 H   0  0  0  0  0  0  0  0  0  0  0  0
    4.3047  -11.5806    0.0000 C   0  0  2  0  0  0  0  0  0  0  0  0
    4.3047  -10.7556    0.0000 O   0  0  0  0  0  0  0  0  0  0  0  0
    3.5902  -10.3431    0.0000 C   0  0  1  0  0  0  0  0  0  0  0  0
    2.8757  -10.7556    0.0000 C   0  0  2  0  0  0  0  0  0  0  0  0
    2.8757  -11.5806    0.0000 C   0  0  1  0  0  0  0  0  0  0  0  0
    3.5902  -11.9931    0.0000 C   0  0  1  0  0  0  0  0  0  0  0  0
    3.5902   -9.5181    0.0000 C   0  0  0  0  0  0  0  0  0  0  0  0
    2.1613  -11.9931    0.0000 O   0  0  0  0  0  0  0  0  0  0  0  0
    2.1613  -10.3431    0.0000 O   0  0  0  0  0  0  0  0  0  0  0  0
    3.5902  -12.8181    0.0000 O   0  0  0  0  0  0  0  0  0  0  0  0
    2.8757   -9.1056    0.0000 O   0  0  0  0  0  0  0  0  0  0  0  0
    2.8757   -8.2806    0.0000 C   0  0  0  0  0  0  0  0  0  0  0  0
    3.5902   -7.8681    0.0000 C   0  0  0  0  0  0  0  0  0  0  0  0
    3.5902   -7.0431    0.0000 C   0  0  0  0  0  0  0  0  0  0  0  0
    4.3047   -6.6306    0.0000 C   0  0  0  0  0  0  0  0  0  0  0  0
    4.3047   -5.8056    0.0000 C   0  0  0  0  0  0  0  0  0  0  0  0
    5.0192   -5.3931    0.0000 C   0  0  0  0  0  0  0  0  0  0  0  0
    5.0192   -4.5681    0.0000 C   0  0  0  0  0  0  0  0  0  0  0  0
    5.7336   -4.1556    0.0000 C   0  0  0  0  0  0  0  0  0  0  0  0
    5.7336   -3.3306    0.0000 C   0  0  0  0  0  0  0  0  0  0  0  0
    6.4481   -2.9181    0.0000 C   0  0  0  0  0  0  0  0  0  0  0  0
    6.4481   -2.0931    0.0000 C   0  0  0  0  0  0  0  0  0  0  0  0
  1  2  1  0  0  0  0
  2  3  1  0  0  0  0
  3  4  1  0  0  0  0
  4  5  1  0  0  0  0
  5  6  1  0  0  0  0
  6  1  1  0  0  0  0
  4  7  2  0  0  0  0
  7  8  1  0  0  0  0
  8  9  1  0  0  0  0
  9 10  1  0  0  0  0
 10  5  1  0  0  0  0
  9 11  1  0  0  0  0
 11 12  1  0  0  0  0
 12 13  1  0  0  0  0
 13 14  1  0  0  0  0
 14 10  1  0  0  0  0
 11 15  1  0  0  0  0
 15 16  1  0  0  0  0
 16 17  1  0  0  0  0
 17 12  1  0  0  0  0
 17 18  1  0  0  0  0
 18 19  1  0  0  0  0
  2 20  1  1  0  0  0
  5 21  1  1  0  0  0
 12 22  1  1  0  0  0
 18 23  1  6  0  0  0
 19 24  1  0  0  0  0
 25 24  1  6  0  0  0
 25 26  1  0  0  0  0
 26 27  1  0  0  0  0
 26 28  1  0  0  0  0
 25 29  1  0  0  0  0
 29 30  1  0  0  0  0
 10 31  1  6  0  0  0
  9 32  1  1  0  0  0
 11 33  1  6  0  0  0
 17 34  1  6  0  0  0
 35 20  1  1  0  0  0
 35 36  1  0  0  0  0
 36 37  1  0  0  0  0
 37 38  1  0  0  0  0
 38 39  1  0  0  0  0
 39 40  1  0  0  0  0
 40 35  1  0  0  0  0
 37 41  1  1  0  0  0
 39 42  1  1  0  0  0
 38 43  1  6  0  0  0
 40 44  1  6  0  0  0
 41 45  1  0  0  0  0
 45 46  1  0  0  0  0
 46 47  1  0  0  0  0
 47 48  1  0  0  0  0
 48 49  1  0  0  0  0
 49 50  1  0  0  0  0
 50 51  1  0  0  0  0
 51 52  1  0  0  0  0
 52 53  1  0  0  0  0
 53 54  1  0  0  0  0
 54 55  1  0  0  0  0
 55 56  1  0  0  0  0
M  END
>  <cdx:fragmentId>
5

$$$$
