69.cdx
  Mrv1902 05222410252D          

 70 73  0  0  0  0            999 V2000
    6.2641   -6.7015    0.0000 N   0  0  0  0  0  0  0  0  0  0  0  0
    7.4317   -7.8579    0.0000 N   0  0  0  0  0  0  0  0  0  0  0  0
    9.0751   -7.8500    0.0000 N   0  0  0  0  0  0  0  0  0  0  0  0
   10.2398   -6.6908    0.0000 N   0  0  0  0  0  0  0  0  0  0  0  0
   10.2437   -5.0593    0.0000 N   0  0  0  0  0  0  0  0  0  0  0  0
    9.0844   -3.8946    0.0000 N   0  0  0  0  0  0  0  0  0  0  0  0
    7.4530   -3.8907    0.0000 N   0  0  0  0  0  0  0  0  0  0  0  0
    6.2882   -5.0499    0.0000 N   0  0  0  0  0  0  0  0  0  0  0  0
    9.8200   -8.0970    0.0000 C   0  0  0  0  0  0  0  0  0  0  0  0
   10.4496   -7.4797    0.0000 C   0  0  0  0  0  0  0  0  0  0  0  0
   10.9561   -6.3107    0.0000 C   0  0  0  0  0  0  0  0  0  0  0  0
   10.9569   -5.4503    0.0000 C   0  0  0  0  0  0  0  0  0  0  0  0
   10.4900   -4.2806    0.0000 C   0  0  0  0  0  0  0  0  0  0  0  0
    9.8795   -3.6744    0.0000 C   0  0  0  0  0  0  0  0  0  0  0  0
    8.7081   -3.1721    0.0000 C   0  0  0  0  0  0  0  0  0  0  0  0
    7.8478   -3.1723    0.0000 C   0  0  0  0  0  0  0  0  0  0  0  0
    6.6753   -3.6511    0.0000 C   0  0  0  0  0  0  0  0  0  0  0  0
    6.0661   -4.2586    0.0000 C   0  0  0  0  0  0  0  0  0  0  0  0
    5.5600   -5.4280    0.0000 C   0  0  0  0  0  0  0  0  0  0  0  0
    5.5432   -6.2882    0.0000 C   0  0  0  0  0  0  0  0  0  0  0  0
    6.0236   -7.4751    0.0000 C   0  0  0  0  0  0  0  0  0  0  0  0
    6.6340   -8.0814    0.0000 C   0  0  0  0  0  0  0  0  0  0  0  0
    7.8181   -8.5841    0.0000 C   0  0  0  0  0  0  0  0  0  0  0  0
    8.6784   -8.5782    0.0000 C   0  0  0  0  0  0  0  0  0  0  0  0
    6.4264   -8.8798    0.0000 C   0  0  0  0  0  0  0  0  0  0  0  0
    7.0141   -9.4589    0.0000 C   0  0  0  0  0  0  0  0  0  0  0  0
    6.8064  -10.2573    0.0000 S   0  0  0  0  0  0  0  0  0  0  0  0
    7.3941  -10.8364    0.0000 C   0  0  0  0  0  0  0  0  0  0  0  0
    5.2230   -7.6742    0.0000 O   0  0  0  0  0  0  0  0  0  0  0  0
    4.8253   -6.6947    0.0000 C   0  0  0  0  0  0  0  0  0  0  0  0
    4.1143   -6.2763    0.0000 C   0  0  0  0  0  0  0  0  0  0  0  0
    3.3964   -6.6829    0.0000 C   0  0  0  0  0  0  0  0  0  0  0  0
    4.1211   -5.4513    0.0000 C   0  0  0  0  0  0  0  0  0  0  0  0
    4.8592   -4.9927    0.0000 O   0  0  0  0  0  0  0  0  0  0  0  0
    5.2681   -4.0492    0.0000 C   0  0  0  0  0  0  0  0  0  0  0  0
    4.6878   -4.6356    0.0000 C   0  0  0  0  0  0  0  0  0  0  0  0
    5.0505   -3.2534    0.0000 C   0  0  0  0  0  0  0  0  0  0  0  0
    6.4772   -2.8502    0.0000 O   0  0  0  0  0  0  0  0  0  0  0  0
    7.4277   -2.4622    0.0000 C   0  0  0  0  0  0  0  0  0  0  0  0
    7.8326   -1.7434    0.0000 C   0  0  0  0  0  0  0  0  0  0  0  0
    8.6575   -1.7302    0.0000 C   0  0  0  0  0  0  0  0  0  0  0  0
    9.0585   -1.0092    0.0000 C   0  0  0  0  0  0  0  0  0  0  0  0
    8.6346   -0.3014    0.0000 C   0  0  0  0  0  0  0  0  0  0  0  0
    7.8097   -0.3014    0.0000 C   0  0  0  0  0  0  0  0  0  0  0  0
    7.4087   -1.0092    0.0000 C   0  0  0  0  0  0  0  0  0  0  0  0
    9.1360   -2.4667    0.0000 O   0  0  0  0  0  0  0  0  0  0  0  0
    9.0481   -4.7188    0.0000 C   0  0  0  0  0  0  0  0  0  0  0  0
    9.8208   -5.0080    0.0000 C   0  0  0  0  0  0  0  0  0  0  0  0
   10.3346   -4.3625    0.0000 C   0  0  0  0  0  0  0  0  0  0  0  0
   11.2911   -4.0835    0.0000 O   0  0  0  0  0  0  0  0  0  0  0  0
   11.6670   -5.0303    0.0000 C   0  0  0  0  0  0  0  0  0  0  0  0
   12.3858   -5.4352    0.0000 C   0  0  0  0  0  0  0  0  0  0  0  0
   13.0959   -5.0152    0.0000 C   0  0  0  0  0  0  0  0  0  0  0  0
   12.3945   -6.2602    0.0000 C   0  0  0  0  0  0  0  0  0  0  0  0
   11.6629   -6.7362    0.0000 O   0  0  0  0  0  0  0  0  0  0  0  0
   11.2452   -7.6979    0.0000 C   0  0  0  0  0  0  0  0  0  0  0  0
   11.8320   -7.1179    0.0000 C   0  0  0  0  0  0  0  0  0  0  0  0
   12.0455   -7.9148    0.0000 C   0  0  0  0  0  0  0  0  0  0  0  0
   12.8424   -8.1284    0.0000 C   0  0  0  0  0  0  0  0  0  0  0  0
   13.4258   -7.5450    0.0000 C   0  0  0  0  0  0  0  0  0  0  0  0
   13.2122   -6.7481    0.0000 C   0  0  0  0  0  0  0  0  0  0  0  0
   12.4153   -6.5346    0.0000 C   0  0  0  0  0  0  0  0  0  0  0  0
   10.0335   -8.8939    0.0000 O   0  0  0  0  0  0  0  0  0  0  0  0
    9.1022   -9.2860    0.0000 C   0  0  0  0  0  0  0  0  0  0  0  0
    8.7011  -10.0069    0.0000 C   0  0  0  0  0  0  0  0  0  0  0  0
    9.1249  -10.7148    0.0000 C   0  0  0  0  0  0  0  0  0  0  0  0
    9.9271   -9.2729    0.0000 C   0  0  0  0  0  0  0  0  0  0  0  0
    7.3958   -9.2928    0.0000 O   0  0  0  0  0  0  0  0  0  0  0  0
    6.0095  -10.4709    0.0000 O   0  0  0  0  0  0  0  0  0  0  0  0
    6.5929  -11.0542    0.0000 O   0  0  0  0  0  0  0  0  0  0  0  0
  9 10  1  0  0  0  0
  3  9  1  0  0  0  0
  4 10  1  0  0  0  0
 11 12  1  0  0  0  0
  4 11  1  0  0  0  0
  5 12  1  0  0  0  0
 13 14  1  0  0  0  0
  6 14  1  0  0  0  0
  5 13  1  0  0  0  0
 15 16  1  0  0  0  0
  7 16  1  0  0  0  0
  6 15  1  0  0  0  0
 17 18  1  0  0  0  0
  8 18  1  0  0  0  0
  7 17  1  0  0  0  0
 19 20  1  0  0  0  0
  8 19  1  0  0  0  0
  1 20  1  0  0  0  0
 21 22  1  0  0  0  0
  1 21  1  0  0  0  0
  2 22  1  0  0  0  0
 23 24  1  0  0  0  0
  3 24  1  0  0  0  0
  2 23  1  0  0  0  0
 22 25  1  0  0  0  0
 25 26  1  0  0  0  0
 26 27  1  0  0  0  0
 27 28  1  0  0  0  0
 21 29  2  0  0  0  0
 20 30  1  0  0  0  0
 30 31  1  0  0  0  0
 31 32  1  0  0  0  0
 31 33  1  0  0  0  0
 19 34  2  0  0  0  0
 18 35  1  0  0  0  0
 35 36  1  0  0  0  0
 35 37  1  0  0  0  0
 17 38  2  0  0  0  0
 16 39  1  0  0  0  0
 39 40  1  0  0  0  0
 40 41  2  0  0  0  0
 41 42  1  0  0  0  0
 42 43  2  0  0  0  0
 43 44  1  0  0  0  0
 44 45  2  0  0  0  0
 45 40  1  0  0  0  0
 15 46  2  0  0  0  0
  6 47  1  0  0  0  0
 47 48  1  0  0  0  0
 48 49  1  0  0  0  0
 49 14  1  0  0  0  0
 13 50  2  0  0  0  0
 12 51  1  0  0  0  0
 51 52  1  0  0  0  0
 52 53  1  0  0  0  0
 52 54  1  0  0  0  0
 11 55  2  0  0  0  0
 10 56  1  0  0  0  0
 56 57  1  0  0  0  0
 57 58  2  0  0  0  0
 58 59  1  0  0  0  0
 59 60  2  0  0  0  0
 60 61  1  0  0  0  0
 61 62  2  0  0  0  0
 62 57  1  0  0  0  0
  9 63  2  0  0  0  0
 24 64  1  0  0  0  0
 64 65  1  0  0  0  0
 65 66  1  0  0  0  0
 64 67  1  0  0  0  0
 23 68  2  0  0  0  0
 27 69  2  0  0  0  0
 27 70  2  0  0  0  0
M  END
>  <cdx:fragmentId>
1063

$$$$
