63.cdx
  Mrv1902 05222410222D          

 12 13  0  0  0  0            999 V2000
    5.6380   -4.2075    0.0000 C   0  0  0  0  0  0  0  0  0  0  0  0
    5.6380   -5.0325    0.0000 C   0  0  0  0  0  0  0  0  0  0  0  0
    6.3525   -5.4450    0.0000 C   0  0  0  0  0  0  0  0  0  0  0  0
    7.0670   -5.0325    0.0000 C   0  0  0  0  0  0  0  0  0  0  0  0
    7.0670   -4.2075    0.0000 C   0  0  0  0  0  0  0  0  0  0  0  0
    6.3525   -3.7950    0.0000 C   0  0  0  0  0  0  0  0  0  0  0  0
    4.9236   -5.4450    0.0000 O   0  0  0  0  0  0  0  0  0  0  0  0
    7.7814   -3.7950    0.0000 C   0  0  0  0  0  0  0  0  0  0  0  0
    8.6064   -3.7950    0.0000 C   0  0  0  0  0  0  0  0  0  0  0  0
    8.1939   -3.0805    0.0000 O   0  0  0  0  0  0  0  0  0  0  0  0
    9.3209   -4.2075    0.0000 C   0  0  0  0  0  0  0  0  0  0  0  0
    4.2091   -5.0325    0.0000 C   0  0  0  0  0  0  0  0  0  0  0  0
  1  2  2  0  0  0  0
  2  3  1  0  0  0  0
  3  4  2  0  0  0  0
  4  5  1  0  0  0  0
  5  6  2  0  0  0  0
  6  1  1  0  0  0  0
  2  7  1  0  0  0  0
  5  8  1  0  0  0  0
  8  9  1  0  0  0  0
  9 10  1  0  0  0  0
 10  8  1  0  0  0  0
  9 11  1  0  0  0  0
  7 12  1  0  0  0  0
M  END
>  <cdx:fragmentId>
137

$$$$
