37562.cdx
  Mrv1902 05222410222D          

 37 43  0  0  0  0            999 V2000
    7.8533   -3.8318    0.0000 C   0  0  0  0  0  0  0  0  0  0  0  0
    7.0496   -4.0047    0.0000 C   0  0  0  0  0  0  0  0  0  0  0  0
    6.7975   -4.7872    0.0000 C   0  0  0  0  0  0  0  0  0  0  0  0
    9.6180   -3.5554    0.0000 N   0  0  0  0  0  0  0  0  0  0  0  0
    9.2087   -4.2684    0.0000 C   0  0  0  0  0  0  0  0  0  0  0  0
    9.7604   -4.8780    0.0000 C   0  0  0  0  0  0  0  0  0  0  0  0
   10.5102   -4.5409    0.0000 C   0  0  0  0  0  0  0  0  0  0  0  0
   11.2625   -4.8743    0.0000 C   0  0  0  0  0  0  0  0  0  0  0  0
   11.9264   -4.3894    0.0000 C   0  0  0  0  0  0  0  0  0  0  0  0
   11.8384   -3.5719    0.0000 C   0  0  0  0  0  0  0  0  0  0  0  0
   11.0865   -3.2394    0.0000 C   0  0  0  0  0  0  0  0  0  0  0  0
   10.4226   -3.7243    0.0000 C   0  0  0  0  0  0  0  0  0  0  0  0
    8.4050   -4.4413    0.0000 C   0  0  0  0  0  0  0  0  0  0  0  0
    9.5082   -5.6605    0.0000 C   0  0  0  0  0  0  0  0  0  0  0  0
    8.7045   -5.8335    0.0000 C   0  0  0  0  0  0  0  0  0  0  0  0
    8.1529   -5.2239    0.0000 N   0  3  0  0  0  0  0  0  0  0  0  0
    5.6278   -5.8710    0.0000 N   0  0  0  0  0  0  0  0  0  0  0  0
    6.2943   -6.3534    0.0000 C   0  0  0  0  0  0  0  0  0  0  0  0
    6.0420   -7.1351    0.0000 C   0  0  0  0  0  0  0  0  0  0  0  0
    5.2199   -7.1371    0.0000 C   0  0  0  0  0  0  0  0  0  0  0  0
    4.6713   -7.7495    0.0000 C   0  0  0  0  0  0  0  0  0  0  0  0
    3.8667   -7.5805    0.0000 C   0  0  0  0  0  0  0  0  0  0  0  0
    3.6107   -6.7993    0.0000 C   0  0  0  0  0  0  0  0  0  0  0  0
    4.1593   -6.1869    0.0000 C   0  0  0  0  0  0  0  0  0  0  0  0
    4.9639   -6.3559    0.0000 C   0  0  0  0  0  0  0  0  0  0  0  0
    7.0979   -6.1796    0.0000 C   0  0  0  0  0  0  0  0  0  0  0  0
    6.5937   -7.7447    0.0000 C   0  0  0  0  0  0  0  0  0  0  0  0
    7.3974   -7.5717    0.0000 C   0  0  0  0  0  0  0  0  0  0  0  0
    7.6495   -6.7892    0.0000 N   0  0  0  0  0  0  0  0  0  0  0  0
    6.3424   -8.5275    0.0000 O   0  0  0  0  0  0  0  0  0  0  0  0
    5.5389   -8.7013    0.0000 C   0  0  0  0  0  0  0  0  0  0  0  0
   10.0605   -6.2695    0.0000 O   0  0  0  0  0  0  0  0  0  0  0  0
    9.8093   -7.0523    0.0000 C   0  0  0  0  0  0  0  0  0  0  0  0
    7.3491   -5.3968    0.0000 C   0  0  2  0  0  0  0  0  0  0  0  0
   10.9982   -2.4192    0.0000 O   0  0  0  0  0  0  0  0  0  0  0  0
    3.9024   -5.4030    0.0000 O   0  0  0  0  0  0  0  0  0  0  0  0
    3.0950   -5.2334    0.0000 C   0  0  0  0  0  0  0  0  0  0  0  0
  1  2  1  0  0  0  0
  2  3  1  0  0  0  0
  4  5  1  0  0  0  0
  5  6  2  0  0  0  0
  6  7  1  0  0  0  0
  7  8  1  0  0  0  0
  8  9  2  0  0  0  0
  9 10  1  0  0  0  0
 10 11  2  0  0  0  0
 11 12  1  0  0  0  0
  4 12  1  0  0  0  0
  7 12  2  0  0  0  0
 14 15  2  0  0  0  0
 15 16  1  0  0  0  0
 13 16  2  0  0  0  0
 13  5  1  0  0  0  0
 14  6  1  0  0  0  0
  1 13  1  0  0  0  0
 17 18  1  0  0  0  0
 18 19  2  0  0  0  0
 19 20  1  0  0  0  0
 20 21  1  0  0  0  0
 21 22  2  0  0  0  0
 22 23  1  0  0  0  0
 23 24  2  0  0  0  0
 24 25  1  0  0  0  0
 17 25  1  0  0  0  0
 20 25  2  0  0  0  0
 27 28  2  0  0  0  0
 28 29  1  0  0  0  0
 26 29  2  0  0  0  0
 26 18  1  0  0  0  0
 27 19  1  0  0  0  0
 30 31  1  0  0  0  0
 27 30  1  0  0  0  0
 14 32  1  0  0  0  0
 32 33  1  0  0  0  0
  3 34  1  0  0  0  0
 34 16  1  0  0  0  0
 34 26  1  6  0  0  0
 11 35  1  0  0  0  0
 24 36  1  0  0  0  0
 36 37  1  0  0  0  0
M  CHG  1  16   1
M  END
>  <cdx:fragmentId>
174

$$$$
