37561.cdx
  Mrv1902 05222410232D          

 37 43  0  0  0  0            999 V2000
    7.8904   -3.8182    0.0000 C   0  0  0  0  0  0  0  0  0  0  0  0
    7.0832   -3.9739    0.0000 C   0  0  0  0  0  0  0  0  0  0  0  0
    6.8144   -4.7509    0.0000 C   0  0  0  0  0  0  0  0  0  0  0  0
    9.6606   -3.5796    0.0000 N   0  0  0  0  0  0  0  0  0  0  0  0
    9.2362   -4.2837    0.0000 C   0  0  0  0  0  0  0  0  0  0  0  0
    9.7747   -4.9050    0.0000 C   0  0  0  0  0  0  0  0  0  0  0  0
   10.5316   -4.5840    0.0000 C   0  0  0  0  0  0  0  0  0  0  0  0
   11.2765   -4.9333    0.0000 C   0  0  0  0  0  0  0  0  0  0  0  0
   11.9506   -4.4627    0.0000 C   0  0  0  0  0  0  0  0  0  0  0  0
   11.8802   -3.6436    0.0000 C   0  0  0  0  0  0  0  0  0  0  0  0
   11.1355   -3.2951    0.0000 C   0  0  0  0  0  0  0  0  0  0  0  0
   10.4614   -3.7657    0.0000 C   0  0  0  0  0  0  0  0  0  0  0  0
    8.4289   -4.4394    0.0000 C   0  0  0  0  0  0  0  0  0  0  0  0
    9.5059   -5.6819    0.0000 C   0  0  0  0  0  0  0  0  0  0  0  0
    8.6986   -5.8376    0.0000 C   0  0  0  0  0  0  0  0  0  0  0  0
    8.1602   -5.2164    0.0000 N   0  3  0  0  0  0  0  0  0  0  0  0
    5.6218   -5.8094    0.0000 N   0  0  0  0  0  0  0  0  0  0  0  0
    6.2779   -6.3060    0.0000 C   0  0  0  0  0  0  0  0  0  0  0  0
    6.0090   -7.0821    0.0000 C   0  0  0  0  0  0  0  0  0  0  0  0
    5.1870   -7.0665    0.0000 C   0  0  0  0  0  0  0  0  0  0  0  0
    4.6254   -7.6670    0.0000 C   0  0  0  0  0  0  0  0  0  0  0  0
    3.8246   -7.4809    0.0000 C   0  0  0  0  0  0  0  0  0  0  0  0
    3.5854   -6.6944    0.0000 C   0  0  0  0  0  0  0  0  0  0  0  0
    4.1469   -6.0939    0.0000 C   0  0  0  0  0  0  0  0  0  0  0  0
    4.9477   -6.2800    0.0000 C   0  0  0  0  0  0  0  0  0  0  0  0
    7.0850   -6.1494    0.0000 C   0  0  0  0  0  0  0  0  0  0  0  0
    6.5474   -7.7033    0.0000 C   0  0  0  0  0  0  0  0  0  0  0  0
    7.3547   -7.5476    0.0000 C   0  0  0  0  0  0  0  0  0  0  0  0
    7.6235   -6.7706    0.0000 N   0  0  0  0  0  0  0  0  0  0  0  0
    6.2795   -8.4805    0.0000 O   0  0  0  0  0  0  0  0  0  0  0  0
    5.4724   -8.6371    0.0000 C   0  0  0  0  0  0  0  0  0  0  0  0
   10.0451   -6.3026    0.0000 O   0  0  0  0  0  0  0  0  0  0  0  0
    9.7771   -7.0798    0.0000 C   0  0  0  0  0  0  0  0  0  0  0  0
    7.3529   -5.3721    0.0000 C   0  0  1  0  0  0  0  0  0  0  0  0
   11.0648   -2.4731    0.0000 O   0  0  0  0  0  0  0  0  0  0  0  0
    3.9068   -5.3046    0.0000 O   0  0  0  0  0  0  0  0  0  0  0  0
    3.1032   -5.1179    0.0000 C   0  0  0  0  0  0  0  0  0  0  0  0
  1  2  1  0  0  0  0
  2  3  1  0  0  0  0
  4  5  1  0  0  0  0
  5  6  2  0  0  0  0
  6  7  1  0  0  0  0
  7  8  1  0  0  0  0
  8  9  2  0  0  0  0
  9 10  1  0  0  0  0
 10 11  2  0  0  0  0
 11 12  1  0  0  0  0
  4 12  1  0  0  0  0
  7 12  2  0  0  0  0
 14 15  2  0  0  0  0
 15 16  1  0  0  0  0
 13 16  2  0  0  0  0
 13  5  1  0  0  0  0
 14  6  1  0  0  0  0
  1 13  1  0  0  0  0
 17 18  1  0  0  0  0
 18 19  2  0  0  0  0
 19 20  1  0  0  0  0
 20 21  1  0  0  0  0
 21 22  2  0  0  0  0
 22 23  1  0  0  0  0
 23 24  2  0  0  0  0
 24 25  1  0  0  0  0
 17 25  1  0  0  0  0
 20 25  2  0  0  0  0
 27 28  2  0  0  0  0
 28 29  1  0  0  0  0
 26 29  2  0  0  0  0
 26 18  1  0  0  0  0
 27 19  1  0  0  0  0
 30 31  1  0  0  0  0
 27 30  1  0  0  0  0
 14 32  1  0  0  0  0
 32 33  1  0  0  0  0
  3 34  1  0  0  0  0
 34 16  1  0  0  0  0
 34 26  1  1  0  0  0
 11 35  1  0  0  0  0
 24 36  1  0  0  0  0
 36 37  1  0  0  0  0
M  CHG  1  16   1
M  END
>  <cdx:fragmentId>
174

$$$$
