37579.cdx
  Mrv1902 05222410242D          

 43 47  0  0  0  0            999 V2000
    0.4431   -7.9341    0.0000 O   0  0  0  0  0  0  0  0  0  0  0  0
    2.5643   -5.8487    0.0000 O   0  0  0  0  0  0  0  0  0  0  0  0
    1.1620   -8.3389    0.0000 C   0  0  0  0  0  0  0  0  0  0  0  0
    1.1407   -6.6954    0.0000 O   0  0  0  0  0  0  0  0  0  0  0  0
    4.0020   -6.6584    0.0000 O   0  0  0  0  0  0  0  0  0  0  0  0
    3.2920   -7.0785    0.0000 C   0  0  2  0  0  0  0  0  0  0  0  0
    2.5731   -6.6737    0.0000 C   0  0  2  0  0  0  0  0  0  0  0  0
    1.8631   -7.0938    0.0000 C   0  0  1  0  0  0  0  0  0  0  0  0
    1.8720   -7.9188    0.0000 C   0  0  2  0  0  0  0  0  0  0  0  0
    2.5908   -8.3236    0.0000 O   0  0  0  0  0  0  0  0  0  0  0  0
    3.3008   -7.9035    0.0000 C   0  0  1  0  0  0  0  0  0  0  0  0
   14.0326   -6.6676    0.0000 O   0  0  0  0  0  0  0  0  0  0  0  0
   12.6036   -5.8426    0.0000 O   0  0  0  0  0  0  0  0  0  0  0  0
    9.0313  -10.3801    0.0000 O   0  0  0  0  0  0  0  0  0  0  0  0
    7.6023   -7.9051    0.0000 O   0  0  0  0  0  0  0  0  0  0  0  0
   13.3181   -7.9051    0.0000 C   0  0  0  0  0  0  0  0  0  0  0  0
   13.3181   -7.0801    0.0000 C   0  0  0  0  0  0  0  0  0  0  0  0
   12.6036   -6.6676    0.0000 C   0  0  0  0  0  0  0  0  0  0  0  0
   11.8892   -7.0801    0.0000 C   0  0  0  0  0  0  0  0  0  0  0  0
   11.8892   -9.5551    0.0000 O   0  0  0  0  0  0  0  0  0  0  0  0
   12.6036   -8.3176    0.0000 C   0  0  0  0  0  0  0  0  0  0  0  0
   11.8892   -7.9051    0.0000 C   0  0  0  0  0  0  0  0  0  0  0  0
   10.4602   -9.5551    0.0000 C   0  0  0  0  0  0  0  0  0  0  0  0
   11.1747   -9.1426    0.0000 C   0  0  1  0  0  0  0  0  0  0  0  0
   11.1747   -8.3176    0.0000 C   0  0  1  0  0  0  0  0  0  0  0  0
   10.4602   -7.9051    0.0000 O   0  0  0  0  0  0  0  0  0  0  0  0
    9.0313   -9.5551    0.0000 C   0  0  0  0  0  0  0  0  0  0  0  0
    9.7457   -9.1426    0.0000 C   0  0  0  0  0  0  0  0  0  0  0  0
    9.7457   -8.3176    0.0000 C   0  0  0  0  0  0  0  0  0  0  0  0
    9.0313   -7.9051    0.0000 C   0  0  0  0  0  0  0  0  0  0  0  0
    8.3168   -8.3176    0.0000 C   0  0  0  0  0  0  0  0  0  0  0  0
    8.3168   -9.1426    0.0000 C   0  0  0  0  0  0  0  0  0  0  0  0
    5.4495   -8.3163    0.0000 C   0  0  2  0  0  0  0  0  0  0  0  0
    5.4439   -9.1413    0.0000 C   0  0  2  0  0  0  0  0  0  0  0  0
    6.1556   -9.5586    0.0000 C   0  0  1  0  0  0  0  0  0  0  0  0
    6.8728   -9.1509    0.0000 C   0  0  2  0  0  0  0  0  0  0  0  0
    6.8784   -8.3259    0.0000 C   0  0  1  0  0  0  0  0  0  0  0  0
    6.1667   -7.9086    0.0000 O   0  0  0  0  0  0  0  0  0  0  0  0
    4.7378   -7.8990    0.0000 C   0  0  0  0  0  0  0  0  0  0  0  0
    6.1501  -10.3836    0.0000 O   0  0  0  0  0  0  0  0  0  0  0  0
    7.5845   -9.5682    0.0000 O   0  0  0  0  0  0  0  0  0  0  0  0
    4.7267   -9.5490    0.0000 O   0  0  0  0  0  0  0  0  0  0  0  0
    4.0206   -8.3067    0.0000 O   0  0  0  0  0  0  0  0  0  0  0  0
  3  1  1  0  0  0  0
  7  2  1  6  0  0  0
  9  3  1  6  0  0  0
  8  4  1  1  0  0  0
  6  5  1  1  0  0  0
  6 11  1  0  0  0  0
  7  6  1  0  0  0  0
  8  7  1  0  0  0  0
  9  8  1  0  0  0  0
 10  9  1  0  0  0  0
 11 10  1  0  0  0  0
 11 43  1  6  0  0  0
 17 12  1  0  0  0  0
 18 13  1  0  0  0  0
 27 14  1  0  0  0  0
 31 15  1  0  0  0  0
 16 21  2  0  0  0  0
 17 16  1  0  0  0  0
 18 17  2  0  0  0  0
 19 18  1  0  0  0  0
 22 19  2  0  0  0  0
 24 20  1  1  0  0  0
 22 21  1  0  0  0  0
 25 22  1  1  0  0  0
 23 28  1  0  0  0  0
 24 23  1  0  0  0  0
 25 24  1  0  0  0  0
 26 25  1  0  0  0  0
 29 26  1  0  0  0  0
 27 32  1  0  0  0  0
 28 27  2  0  0  0  0
 29 28  1  0  0  0  0
 30 29  2  0  0  0  0
 31 30  1  0  0  0  0
 32 31  2  0  0  0  0
 33 34  1  0  0  0  0
 34 35  1  0  0  0  0
 35 36  1  0  0  0  0
 36 37  1  0  0  0  0
 37 38  1  0  0  0  0
 38 33  1  0  0  0  0
 33 39  1  1  0  0  0
 35 40  1  1  0  0  0
 36 41  1  6  0  0  0
 34 42  1  6  0  0  0
 39 43  1  0  0  0  0
 37 15  1  1  0  0  0
M  END
>  <cdx:fragmentId>
5

$$$$
