73.cdx
  Mrv1902 05222410222D          

 76 81  0  0  0  0            999 V2000
    6.4144   -2.8669    0.0000 C   0  0  0  0  0  0  0  0  0  0  0  0
    7.2394   -2.8669    0.0000 C   0  0  0  0  0  0  0  0  0  0  0  0
    5.8310   -3.4502    0.0000 N   0  0  0  0  0  0  0  0  0  0  0  0
    7.8227   -3.4502    0.0000 N   0  0  0  0  0  0  0  0  0  0  0  0
    5.0060   -3.4502    0.0000 C   0  0  0  0  0  0  0  0  0  0  0  0
    4.5935   -4.1647    0.0000 C   0  0  0  0  0  0  0  0  0  0  0  0
    8.6337   -3.4576    0.0000 C   0  0  0  0  0  0  0  0  0  0  0  0
    3.7685   -4.1647    0.0000 C   0  0  0  0  0  0  0  0  0  0  0  0
    5.0060   -4.8792    0.0000 N   0  0  0  0  0  0  0  0  0  0  0  0
    4.5935   -5.5937    0.0000 C   0  0  0  0  0  0  0  0  0  0  0  0
    4.5935   -2.7358    0.0000 O   0  0  0  0  0  0  0  0  0  0  0  0
    4.5935   -6.4187    0.0000 C   0  0  0  0  0  0  0  0  0  0  0  0
    3.7966   -5.3801    0.0000 O   0  0  0  0  0  0  0  0  0  0  0  0
    5.3080   -6.8312    0.0000 N   0  0  0  0  0  0  0  0  0  0  0  0
    3.8790   -6.8312    0.0000 C   0  0  0  0  0  0  0  0  0  0  0  0
    5.3080   -7.6562    0.0000 C   0  0  0  0  0  0  0  0  0  0  0  0
    6.0225   -8.0687    0.0000 C   0  0  0  0  0  0  0  0  0  0  0  0
    4.5935   -8.0687    0.0000 C   0  0  0  0  0  0  0  0  0  0  0  0
    6.7887   -7.7466    0.0000 N   0  0  0  0  0  0  0  0  0  0  0  0
    6.0225   -8.8937    0.0000 C   0  0  0  0  0  0  0  0  0  0  0  0
    7.5210   -8.1265    0.0000 C   0  0  0  0  0  0  0  0  0  0  0  0
    8.1975   -7.7244    0.0000 C   0  0  0  0  0  0  0  0  0  0  0  0
    7.5582   -8.9507    0.0000 O   0  0  0  0  0  0  0  0  0  0  0  0
    9.0094   -7.8707    0.0000 C   0  0  0  0  0  0  0  0  0  0  0  0
    9.5420   -7.2406    0.0000 N   0  0  0  0  0  0  0  0  0  0  0  0
    9.2887   -8.6469    0.0000 C   0  0  0  0  0  0  0  0  0  0  0  0
   10.3539   -7.3869    0.0000 C   0  0  0  0  0  0  0  0  0  0  0  0
   10.7053   -6.6404    0.0000 C   0  0  0  0  0  0  0  0  0  0  0  0
   10.4260   -5.8642    0.0000 N   0  0  0  0  0  0  0  0  0  0  0  0
   10.9586   -5.2341    0.0000 C   0  0  0  0  0  0  0  0  0  0  0  0
   10.6333   -8.1631    0.0000 O   0  0  0  0  0  0  0  0  0  0  0  0
   11.5294   -6.6794    0.0000 C   0  0  0  0  0  0  0  0  0  0  0  0
   11.9077   -7.4126    0.0000 C   0  0  0  0  0  0  0  0  0  0  0  0
   11.4619   -8.1068    0.0000 C   0  0  0  0  0  0  0  0  0  0  0  0
   11.8401   -8.8399    0.0000 C   0  0  0  0  0  0  0  0  0  0  0  0
   12.6642   -8.8789    0.0000 C   0  0  0  0  0  0  0  0  0  0  0  0
   13.1100   -8.1848    0.0000 C   0  0  0  0  0  0  0  0  0  0  0  0
   12.7318   -7.4516    0.0000 C   0  0  0  0  0  0  0  0  0  0  0  0
   10.6793   -4.4578    0.0000 C   0  0  0  0  0  0  0  0  0  0  0  0
   11.7705   -5.3803    0.0000 O   0  0  0  0  0  0  0  0  0  0  0  0
    9.8673   -4.3116    0.0000 N   0  0  0  0  0  0  0  0  0  0  0  0
   11.2119   -3.8278    0.0000 C   0  0  0  0  0  0  0  0  0  0  0  0
   12.0238   -3.9740    0.0000 C   0  0  0  0  0  0  0  0  0  0  0  0
    9.5880   -3.5353    0.0000 C   0  0  0  0  0  0  0  0  0  0  0  0
    6.0987   -2.1047    0.0000 C   0  0  0  0  0  0  0  0  0  0  0  0
    7.5551   -2.1047    0.0000 O   0  0  0  0  0  0  0  0  0  0  0  0
    8.8840   -2.6715    0.0000 C   0  0  0  0  0  0  0  0  0  0  0  0
    8.2352   -2.1807    0.0000 C   0  0  0  0  0  0  0  0  0  0  0  0
    7.5678   -2.6656    0.0000 C   0  0  0  0  0  0  0  0  0  0  0  0
   10.1206   -2.9053    0.0000 O   0  0  0  0  0  0  0  0  0  0  0  0
   12.3031   -4.7503    0.0000 C   0  0  0  0  0  0  0  0  0  0  0  0
   13.1151   -4.8965    0.0000 C   0  0  0  0  0  0  0  0  0  0  0  0
   13.6477   -4.2665    0.0000 C   0  0  0  0  0  0  0  0  0  0  0  0
   13.3684   -3.4902    0.0000 C   0  0  0  0  0  0  0  0  0  0  0  0
   12.5564   -3.3440    0.0000 C   0  0  0  0  0  0  0  0  0  0  0  0
    8.8762   -9.3614    0.0000 C   0  0  0  0  0  0  0  0  0  0  0  0
    8.0793   -9.5749    0.0000 C   0  0  0  0  0  0  0  0  0  0  0  0
    8.0362  -10.3988    0.0000 N   0  0  0  0  0  0  0  0  0  0  0  0
    8.8064  -10.6945    0.0000 C   0  0  0  0  0  0  0  0  0  0  0  0
    9.3256  -10.0533    0.0000 C   0  0  0  0  0  0  0  0  0  0  0  0
    9.1020  -11.4647    0.0000 C   0  0  0  0  0  0  0  0  0  0  0  0
    9.9169  -11.5937    0.0000 C   0  0  0  0  0  0  0  0  0  0  0  0
   10.4361  -10.9526    0.0000 C   0  0  0  0  0  0  0  0  0  0  0  0
   10.1404  -10.1824    0.0000 C   0  0  0  0  0  0  0  0  0  0  0  0
    6.7369   -9.3062    0.0000 C   0  0  0  0  0  0  0  0  0  0  0  0
    5.3080   -9.3062    0.0000 C   0  0  0  0  0  0  0  0  0  0  0  0
    5.3080  -10.1312    0.0000 C   0  0  0  0  0  0  0  0  0  0  0  0
    3.1646   -6.4187    0.0000 C   0  0  0  0  0  0  0  0  0  0  0  0
    2.4501   -6.8312    0.0000 S   0  0  0  0  0  0  0  0  0  0  0  0
    1.7356   -6.4187    0.0000 C   0  0  0  0  0  0  0  0  0  0  0  0
    3.1851   -3.5813    0.0000 C   0  0  0  0  0  0  0  0  0  0  0  0
    2.3883   -3.7949    0.0000 C   0  0  0  0  0  0  0  0  0  0  0  0
    3.3987   -2.7845    0.0000 C   0  0  0  0  0  0  0  0  0  0  0  0
    6.6009   -1.4502    0.0000 C   0  0  0  0  0  0  0  0  0  0  0  0
    6.2852   -0.6880    0.0000 S   0  0  0  0  0  0  0  0  0  0  0  0
    6.7874   -0.0334    0.0000 C   0  0  0  0  0  0  0  0  0  0  0  0
  1  2  1  0  0  0  0
  1  3  1  0  0  0  0
  2  4  1  0  0  0  0
  3  5  1  0  0  0  0
  5  6  1  0  0  0  0
  4  7  1  0  0  0  0
  6  8  1  0  0  0  0
  6  9  1  0  0  0  0
  9 10  1  0  0  0  0
  5 11  2  0  0  0  0
 10 12  1  0  0  0  0
 10 13  2  0  0  0  0
 12 14  1  0  0  0  0
 12 15  1  0  0  0  0
 14 16  1  0  0  0  0
 16 17  1  0  0  0  0
 16 18  2  0  0  0  0
 17 19  1  0  0  0  0
 17 20  1  0  0  0  0
 19 21  1  0  0  0  0
 21 22  1  0  0  0  0
 21 23  2  0  0  0  0
 22 24  1  0  0  0  0
 24 25  1  0  0  0  0
 24 26  1  0  0  0  0
 25 27  1  0  0  0  0
 27 28  1  0  0  0  0
 28 29  1  0  0  0  0
 29 30  1  0  0  0  0
 27 31  2  0  0  0  0
 28 32  1  0  0  0  0
 32 33  1  0  0  0  0
 33 34  2  0  0  0  0
 34 35  1  0  0  0  0
 35 36  2  0  0  0  0
 36 37  1  0  0  0  0
 37 38  2  0  0  0  0
 38 33  1  0  0  0  0
 30 39  1  0  0  0  0
 30 40  2  0  0  0  0
 39 41  1  0  0  0  0
 39 42  1  0  0  0  0
 42 43  1  0  0  0  0
 41 44  1  0  0  0  0
  1 45  1  0  0  0  0
  2 46  2  0  0  0  0
  7 47  1  0  0  0  0
 47 48  1  0  0  0  0
 48 49  1  0  0  0  0
 49  4  1  0  0  0  0
 44 50  2  0  0  0  0
  7 44  1  0  0  0  0
 43 51  2  0  0  0  0
 51 52  1  0  0  0  0
 52 53  2  0  0  0  0
 53 54  1  0  0  0  0
 54 55  2  0  0  0  0
 55 43  1  0  0  0  0
 26 56  1  0  0  0  0
 56 57  2  0  0  0  0
 57 58  1  0  0  0  0
 58 59  1  0  0  0  0
 59 60  2  0  0  0  0
 60 56  1  0  0  0  0
 59 61  1  0  0  0  0
 61 62  2  0  0  0  0
 62 63  1  0  0  0  0
 63 64  2  0  0  0  0
 64 60  1  0  0  0  0
 20 65  1  0  0  0  0
 20 66  1  0  0  0  0
 66 67  1  0  0  0  0
 15 68  1  0  0  0  0
 68 69  1  0  0  0  0
 69 70  1  0  0  0  0
  8 71  1  0  0  0  0
 71 72  1  0  0  0  0
 71 73  1  0  0  0  0
 45 74  1  0  0  0  0
 74 75  1  0  0  0  0
 75 76  1  0  0  0  0
M  END
>  <cdx:fragmentId>
910

$$$$
