37575.cdx
  Mrv1902 05222410232D          

 20 23  0  0  0  0            999 V2000
    7.0699   -4.3090    0.0000 O   0  0  0  0  0  0  0  0  0  0  0  0
    6.2649   -4.1286    0.0000 C   0  0  0  0  0  0  0  0  0  0  0  0
    5.8445   -4.8385    0.0000 C   0  0  1  0  0  0  0  0  0  0  0  0
    6.3898   -5.4576    0.0000 C   0  0  1  0  0  0  0  0  0  0  0  0
    7.1471   -5.1304    0.0000 C   0  0  1  0  0  0  0  0  0  0  0  0
    5.0872   -5.1657    0.0000 C   0  0  0  0  0  0  0  0  0  0  0  0
    5.1644   -5.9871    0.0000 O   0  0  0  0  0  0  0  0  0  0  0  0
    5.9694   -6.1675    0.0000 C   0  0  0  0  0  0  0  0  0  0  0  0
    6.9350   -6.0768    0.0000 H   0  0  0  0  0  0  0  0  0  0  0  0
    5.2993   -4.2193    0.0000 H   0  0  0  0  0  0  0  0  0  0  0  0
    4.3773   -4.7453    0.0000 O   0  0  0  0  0  0  0  0  0  0  0  0
   10.0585   -6.6550    0.0000 O   0  0  0  0  0  0  0  0  0  0  0  0
   10.5508   -5.9930    0.0000 C   0  0  0  0  0  0  0  0  0  0  0  0
   10.0732   -5.3202    0.0000 O   0  0  0  0  0  0  0  0  0  0  0  0
    7.8479   -6.3757    0.0000 C   0  0  0  0  0  0  0  0  0  0  0  0
    8.5578   -6.7960    0.0000 C   0  0  0  0  0  0  0  0  0  0  0  0
    9.2767   -6.3914    0.0000 C   0  0  0  0  0  0  0  0  0  0  0  0
    9.2858   -5.5665    0.0000 C   0  0  0  0  0  0  0  0  0  0  0  0
    8.5760   -5.1461    0.0000 C   0  0  0  0  0  0  0  0  0  0  0  0
    7.8570   -5.5507    0.0000 C   0  0  0  0  0  0  0  0  0  0  0  0
  1  2  1  0  0  0  0
  2  3  1  0  0  0  0
  3  4  1  0  0  0  0
  4  5  1  0  0  0  0
  5  1  1  0  0  0  0
  3  6  1  0  0  0  0
  6  7  1  0  0  0  0
  7  8  1  0  0  0  0
  8  4  1  0  0  0  0
  4  9  1  6  0  0  0
  3 10  1  6  0  0  0
  6 11  2  0  0  0  0
 12 17  1  0  0  0  0
  5 20  1  6  0  0  0
 13 12  1  0  0  0  0
 14 13  1  0  0  0  0
 18 14  1  0  0  0  0
 15 20  1  0  0  0  0
 16 15  2  0  0  0  0
 17 16  1  0  0  0  0
 18 17  2  0  0  0  0
 19 18  1  0  0  0  0
 20 19  2  0  0  0  0
M  END
>  <cdx:fragmentId>
37

$$$$
