74.cdx
  Mrv1902 05222410222D          

 36 41  0  0  0  0            999 V2000
   10.1538   -6.5194    0.0000 O   0  0  0  0  0  0  0  0  0  0  0  0
    9.6688   -5.8520    0.0000 C   0  0  0  0  0  0  0  0  0  0  0  0
    8.8842   -6.1069    0.0000 C   0  0  0  0  0  0  0  0  0  0  0  0
    8.8842   -6.9319    0.0000 C   0  0  0  0  0  0  0  0  0  0  0  0
    9.6688   -7.1869    0.0000 C   0  0  0  0  0  0  0  0  0  0  0  0
    8.1698   -7.3444    0.0000 C   0  0  0  0  0  0  0  0  0  0  0  0
    7.4553   -6.9319    0.0000 C   0  0  0  0  0  0  0  0  0  0  0  0
    7.4553   -6.1069    0.0000 C   0  0  0  0  0  0  0  0  0  0  0  0
    8.1698   -5.6944    0.0000 C   0  0  0  0  0  0  0  0  0  0  0  0
    6.7408   -5.6944    0.0000 C   0  0  0  0  0  0  0  0  0  0  0  0
    6.0263   -6.1069    0.0000 C   0  0  0  0  0  0  0  0  0  0  0  0
    6.0263   -6.9319    0.0000 C   0  0  0  0  0  0  0  0  0  0  0  0
    6.7408   -7.3444    0.0000 C   0  0  0  0  0  0  0  0  0  0  0  0
    9.9238   -5.0674    0.0000 O   0  0  0  0  0  0  0  0  0  0  0  0
    5.3119   -7.3444    0.0000 O   0  0  0  0  0  0  0  0  0  0  0  0
    4.5974   -6.9319    0.0000 C   0  0  0  0  0  0  0  0  0  0  0  0
    5.3119   -5.6944    0.0000 O   0  0  0  0  0  0  0  0  0  0  0  0
    8.1698   -8.1694    0.0000 O   0  0  0  0  0  0  0  0  0  0  0  0
    6.7016   -8.2464    0.0000 O   0  0  0  0  0  0  0  0  0  0  0  0
    7.4553   -8.5819    0.0000 C   0  0  2  0  0  0  0  0  0  0  0  0
    7.3690   -9.4024    0.0000 C   0  0  1  0  0  0  0  0  0  0  0  0
    6.5621   -9.5739    0.0000 C   0  0  2  0  0  0  0  0  0  0  0  0
    6.1496   -8.8595    0.0000 C   0  0  0  0  0  0  0  0  0  0  0  0
    5.8946  -10.0589    0.0000 C   0  0  0  0  0  0  0  0  0  0  0  0
    5.1410   -9.7233    0.0000 O   0  0  0  0  0  0  0  0  0  0  0  0
    6.6483  -10.3944    0.0000 O   0  0  0  0  0  0  0  0  0  0  0  0
    7.9821   -9.9544    0.0000 O   0  0  0  0  0  0  0  0  0  0  0  0
    7.9982   -2.4125    0.0000 O   0  0  0  0  0  0  0  0  0  0  0  0
    7.1777   -2.3262    0.0000 C   0  0  0  0  0  0  0  0  0  0  0  0
    6.8422   -3.0799    0.0000 O   0  0  0  0  0  0  0  0  0  0  0  0
    7.4553   -3.6319    0.0000 C   0  0  0  0  0  0  0  0  0  0  0  0
    8.1698   -3.2194    0.0000 C   0  0  0  0  0  0  0  0  0  0  0  0
    7.4553   -4.4569    0.0000 C   0  0  0  0  0  0  0  0  0  0  0  0
    8.1698   -4.8694    0.0000 C   0  0  0  0  0  0  0  0  0  0  0  0
    8.8842   -4.4569    0.0000 C   0  0  0  0  0  0  0  0  0  0  0  0
    8.8842   -3.6319    0.0000 C   0  0  0  0  0  0  0  0  0  0  0  0
  1  2  1  0  0  0  0
  2  3  1  0  0  0  0
  3  4  1  0  0  0  0
  4  5  1  0  0  0  0
  1  5  1  0  0  0  0
  6  7  1  0  0  0  0
  7  8  1  0  0  0  0
  8  9  1  0  0  0  0
  3  9  2  0  0  0  0
  4  6  2  0  0  0  0
 10 11  1  0  0  0  0
 11 12  2  0  0  0  0
 12 13  1  0  0  0  0
  7 13  2  0  0  0  0
  8 10  2  0  0  0  0
  2 14  2  0  0  0  0
 15 16  1  0  0  0  0
 12 15  1  0  0  0  0
 11 17  1  0  0  0  0
 19 20  1  0  0  0  0
 20 21  1  0  0  0  0
 21 22  1  0  0  0  0
 22 23  1  0  0  0  0
 19 23  1  0  0  0  0
 24 25  1  0  0  0  0
 22 24  1  1  0  0  0
 22 26  1  6  0  0  0
 21 27  1  6  0  0  0
 20 18  1  1  0  0  0
  6 18  1  0  0  0  0
 28 29  1  0  0  0  0
 29 30  1  0  0  0  0
 30 31  1  0  0  0  0
 31 32  1  0  0  0  0
 28 32  1  0  0  0  0
 33 34  1  0  0  0  0
 34 35  2  0  0  0  0
 35 36  1  0  0  0  0
 32 36  2  0  0  0  0
 31 33  2  0  0  0  0
  9 34  1  0  0  0  0
M  END
>  <cdx:fragmentId>
6

$$$$
