37578.cdx
  Mrv1902 05222410232D          

 30 31  0  0  0  0            999 V2000
    2.1112   -2.5369    0.0000 C   0  0  0  0  0  0  0  0  0  0  0  0
    2.1112   -3.3619    0.0000 C   0  0  0  0  0  0  0  0  0  0  0  0
    2.8256   -3.7744    0.0000 C   0  0  0  0  0  0  0  0  0  0  0  0
    3.5401   -3.3619    0.0000 C   0  0  0  0  0  0  0  0  0  0  0  0
    3.5401   -2.5369    0.0000 C   0  0  0  0  0  0  0  0  0  0  0  0
    2.8256   -2.1244    0.0000 C   0  0  0  0  0  0  0  0  0  0  0  0
    4.2546   -2.1244    0.0000 C   0  0  0  0  0  0  0  0  0  0  0  0
    4.9690   -2.5369    0.0000 C   0  0  2  0  0  0  0  0  0  0  0  0
    2.8256   -4.5994    0.0000 O   0  0  0  0  0  0  0  0  0  0  0  0
    1.3967   -3.7744    0.0000 O   0  0  0  0  0  0  0  0  0  0  0  0
    1.3967   -2.1244    0.0000 O   0  0  0  0  0  0  0  0  0  0  0  0
    0.6822   -2.5369    0.0000 C   0  0  0  0  0  0  0  0  0  0  0  0
    5.6835   -2.1244    0.0000 C   0  0  0  0  0  0  0  0  0  0  0  0
    4.9690   -3.3619    0.0000 C   0  0  2  0  0  0  0  0  0  0  0  0
    6.3980   -2.5369    0.0000 O   0  0  0  0  0  0  0  0  0  0  0  0
    4.2546   -3.7744    0.0000 C   0  0  0  0  0  0  0  0  0  0  0  0
    5.6835   -3.7744    0.0000 C   0  0  0  0  0  0  0  0  0  0  0  0
    6.3980   -3.3619    0.0000 O   0  0  0  0  0  0  0  0  0  0  0  0
    4.2546   -4.5994    0.0000 C   0  0  0  0  0  0  0  0  0  0  0  0
    2.1112   -5.0119    0.0000 C   0  0  0  0  0  0  0  0  0  0  0  0
    3.5401   -5.0119    0.0000 C   0  0  0  0  0  0  0  0  0  0  0  0
    3.5401   -5.8369    0.0000 C   0  0  0  0  0  0  0  0  0  0  0  0
    4.2546   -6.2494    0.0000 C   0  0  0  0  0  0  0  0  0  0  0  0
    4.9690   -5.8369    0.0000 C   0  0  0  0  0  0  0  0  0  0  0  0
    4.9690   -5.0119    0.0000 C   0  0  0  0  0  0  0  0  0  0  0  0
    4.2546   -7.0744    0.0000 O   0  0  0  0  0  0  0  0  0  0  0  0
    5.6835   -6.2494    0.0000 O   0  0  0  0  0  0  0  0  0  0  0  0
    6.3980   -5.8369    0.0000 C   0  0  0  0  0  0  0  0  0  0  0  0
    2.8256   -6.2494    0.0000 O   0  0  0  0  0  0  0  0  0  0  0  0
    2.1112   -5.8369    0.0000 C   0  0  0  0  0  0  0  0  0  0  0  0
  1  2  2  0  0  0  0
  2  3  1  0  0  0  0
  3  4  2  0  0  0  0
  4  5  1  0  0  0  0
  5  6  2  0  0  0  0
  6  1  1  0  0  0  0
  5  7  1  0  0  0  0
  7  8  1  0  0  0  0
  3  9  1  0  0  0  0
  2 10  1  0  0  0  0
  1 11  1  0  0  0  0
 11 12  1  0  0  0  0
  8 13  1  6  0  0  0
  8 14  1  0  0  0  0
 13 15  1  0  0  0  0
 14 16  1  0  0  0  0
 14 17  1  1  0  0  0
 17 18  1  0  0  0  0
 16 19  1  0  0  0  0
  9 20  1  0  0  0  0
 19 21  2  0  0  0  0
 21 22  1  0  0  0  0
 22 23  2  0  0  0  0
 23 24  1  0  0  0  0
 24 25  2  0  0  0  0
 25 19  1  0  0  0  0
 23 26  1  0  0  0  0
 24 27  1  0  0  0  0
 27 28  1  0  0  0  0
 22 29  1  0  0  0  0
 29 30  1  0  0  0  0
M  END
>  <cdx:fragmentId>
197

$$$$
