37572.cdx
  Mrv1902 05222410212D          

 35 38  0  0  0  0            999 V2000
    6.2160   -6.9242    0.0000 O   0  0  0  0  0  0  0  0  0  0  0  0
   10.5020   -9.4007    0.0000 O   0  0  0  0  0  0  0  0  0  0  0  0
   11.2169   -8.1634    0.0000 C   0  0  0  0  0  0  0  0  0  0  0  0
   10.5026   -7.7507    0.0000 O   0  0  0  0  0  0  0  0  0  0  0  0
    6.9293  -10.6370    0.0000 C   0  0  0  0  0  0  0  0  0  0  0  0
    7.6439  -10.2247    0.0000 C   0  0  0  0  0  0  0  0  0  0  0  0
    6.9290  -11.4620    0.0000 C   0  0  0  0  0  0  0  0  0  0  0  0
    7.6433  -11.8747    0.0000 C   0  0  0  0  0  0  0  0  0  0  0  0
    8.3579  -11.4624    0.0000 C   0  0  0  0  0  0  0  0  0  0  0  0
    8.3582  -10.6374    0.0000 C   0  0  0  0  0  0  0  0  0  0  0  0
    6.2144  -11.8742    0.0000 O   0  0  0  0  0  0  0  0  0  0  0  0
    5.5042  -11.4544    0.0000 C   0  0  0  0  0  0  0  0  0  0  0  0
    7.6430  -12.6997    0.0000 O   0  0  0  0  0  0  0  0  0  0  0  0
    9.0731   -9.4002    0.0000 C   0  0  0  0  0  0  0  0  0  0  0  0
    9.7877   -8.9879    0.0000 C   0  0  0  0  0  0  0  0  0  0  0  0
    9.7880   -8.1629    0.0000 C   0  0  0  0  0  0  0  0  0  0  0  0
    9.0736   -7.7502    0.0000 C   0  0  0  0  0  0  0  0  0  0  0  0
    7.6442   -9.3997    0.0000 C   0  0  1  0  0  0  0  0  0  0  0  0
    8.3588   -8.9874    0.0000 C   0  0  0  0  0  0  0  0  0  0  0  0
    8.3590   -8.1624    0.0000 C   0  0  0  0  0  0  0  0  0  0  0  0
    7.6447   -7.7497    0.0000 C   0  0  0  0  0  0  0  0  0  0  0  0
    6.9298   -8.9870    0.0000 C   0  0  2  0  0  0  0  0  0  0  0  0
    6.9301   -8.1620    0.0000 C   0  0  2  0  0  0  0  0  0  0  0  0
    6.2158   -7.7492    0.0000 C   0  0  0  0  0  0  0  0  0  0  0  0
    6.2152   -9.3992    0.0000 C   0  0  0  0  0  0  0  0  0  0  0  0
    5.5009   -8.9865    0.0000 O   0  0  0  0  0  0  0  0  0  0  0  0
    4.7863   -9.3987    0.0000 C   0  0  2  0  0  0  0  0  0  0  0  0
    4.0721   -8.9858    0.0000 O   0  0  0  0  0  0  0  0  0  0  0  0
    3.3573   -9.3987    0.0000 C   0  0  0  0  0  0  0  0  0  0  0  0
    3.3573  -10.2237    0.0000 C   0  0  2  0  0  0  0  0  0  0  0  0
    4.0721  -10.6367    0.0000 C   0  0  1  0  0  0  0  0  0  0  0  0
    4.7863  -10.2237    0.0000 C   0  0  1  0  0  0  0  0  0  0  0  0
    5.5009  -10.6360    0.0000 O   0  0  0  0  0  0  0  0  0  0  0  0
    4.0722  -11.4622    0.0000 O   0  0  0  0  0  0  0  0  0  0  0  0
    2.6424  -10.6364    0.0000 O   0  0  0  0  0  0  0  0  0  0  0  0
 15  2  1  0  0  0  0
 24  1  1  0  0  0  0
  4  3  1  0  0  0  0
 16  4  1  0  0  0  0
  5  6  2  0  0  0  0
  5  7  1  0  0  0  0
  7  8  2  0  0  0  0
  8  9  1  0  0  0  0
  9 10  2  0  0  0  0
 10  6  1  0  0  0  0
 18  6  1  6  0  0  0
  7 11  1  0  0  0  0
 11 12  1  0  0  0  0
 13  8  1  0  0  0  0
 14 19  1  0  0  0  0
 15 14  2  0  0  0  0
 16 15  1  0  0  0  0
 17 16  2  0  0  0  0
 20 17  1  0  0  0  0
 18 22  1  0  0  0  0
 19 18  1  0  0  0  0
 20 19  2  0  0  0  0
 21 20  1  0  0  0  0
 23 21  1  0  0  0  0
 22 25  1  1  0  0  0
 23 22  1  0  0  0  0
 23 24  1  6  0  0  0
 26 25  1  0  0  0  0
 27 26  1  1  0  0  0
 27 28  1  0  0  0  0
 28 29  1  0  0  0  0
 29 30  1  0  0  0  0
 30 31  1  0  0  0  0
 31 32  1  0  0  0  0
 32 27  1  0  0  0  0
 32 33  1  6  0  0  0
 31 34  1  1  0  0  0
 30 35  1  6  0  0  0
M  END
>  <cdx:fragmentId>
5

$$$$
