37576.cdx
  Mrv1902 05222410222D          

 37 40  0  0  0  0            999 V2000
   11.5935   -6.1798    0.0000 C   0  0  0  0  0  0  0  0  0  0  0  0
   10.8754   -5.7736    0.0000 O   0  0  0  0  0  0  0  0  0  0  0  0
   10.8900   -7.4235    0.0000 O   0  0  0  0  0  0  0  0  0  0  0  0
    5.8853   -7.0552    0.0000 O   0  0  0  0  0  0  0  0  0  0  0  0
    5.1709   -7.4679    0.0000 C   0  0  2  0  0  0  0  0  0  0  0  0
    4.4563   -7.0555    0.0000 O   0  0  0  0  0  0  0  0  0  0  0  0
    3.7419   -7.4682    0.0000 C   0  0  1  0  0  0  0  0  0  0  0  0
    3.7421   -8.2932    0.0000 C   0  0  2  0  0  0  0  0  0  0  0  0
    4.4567   -8.7055    0.0000 C   0  0  1  0  0  0  0  0  0  0  0  0
    5.1710   -8.2929    0.0000 C   0  0  1  0  0  0  0  0  0  0  0  0
    5.8856   -8.7052    0.0000 O   0  0  0  0  0  0  0  0  0  0  0  0
    4.4568   -9.5305    0.0000 O   0  0  0  0  0  0  0  0  0  0  0  0
    3.0277   -8.7058    0.0000 O   0  0  0  0  0  0  0  0  0  0  0  0
    3.0274   -7.0558    0.0000 C   0  0  0  0  0  0  0  0  0  0  0  0
    2.3130   -7.4684    0.0000 O   0  0  0  0  0  0  0  0  0  0  0  0
    5.9072   -9.5301    0.0000 C   0  0  0  0  0  0  0  0  0  0  0  0
    6.6252   -9.9363    0.0000 O   0  0  0  0  0  0  0  0  0  0  0  0
    8.0614  -10.7487    0.0000 O   0  0  0  0  0  0  0  0  0  0  0  0
    7.3287   -8.6926    0.0000 C   0  0  0  0  0  0  0  0  0  0  0  0
    7.3360   -9.5175    0.0000 C   0  0  0  0  0  0  0  0  0  0  0  0
    8.0541   -9.9237    0.0000 C   0  0  0  0  0  0  0  0  0  0  0  0
    8.7649   -9.5049    0.0000 C   0  0  0  0  0  0  0  0  0  0  0  0
    8.7576   -8.6799    0.0000 C   0  0  0  0  0  0  0  0  0  0  0  0
    6.5738   -4.9866    0.0000 O   0  0  0  0  0  0  0  0  0  0  0  0
    6.5888   -5.8115    0.0000 C   0  0  0  0  0  0  0  0  0  0  0  0
    6.6034   -7.4614    0.0000 C   0  0  0  0  0  0  0  0  0  0  0  0
    8.0395   -8.2738    0.0000 C   0  0  0  0  0  0  0  0  0  0  0  0
    8.0177   -5.7989    0.0000 C   0  0  0  0  0  0  0  0  0  0  0  0
    7.3069   -6.2176    0.0000 C   0  0  2  0  0  0  0  0  0  0  0  0
    7.3142   -7.0426    0.0000 C   0  0  1  0  0  0  0  0  0  0  0  0
    8.0323   -7.4488    0.0000 C   0  0  2  0  0  0  0  0  0  0  0  0
    8.7358   -6.2050    0.0000 C   0  0  0  0  0  0  0  0  0  0  0  0
    8.7431   -7.0300    0.0000 C   0  0  0  0  0  0  0  0  0  0  0  0
    9.4611   -7.4362    0.0000 C   0  0  0  0  0  0  0  0  0  0  0  0
   10.1719   -7.0174    0.0000 C   0  0  0  0  0  0  0  0  0  0  0  0
   10.1646   -6.1924    0.0000 C   0  0  0  0  0  0  0  0  0  0  0  0
    9.4466   -5.7862    0.0000 C   0  0  0  0  0  0  0  0  0  0  0  0
  2  1  1  0  0  0  0
 36  2  1  0  0  0  0
 35  3  1  0  0  0  0
  5  4  1  1  0  0  0
  5  6  1  0  0  0  0
  6  7  1  0  0  0  0
  7  8  1  0  0  0  0
  8  9  1  0  0  0  0
  9 10  1  0  0  0  0
 10  5  1  0  0  0  0
 10 11  1  6  0  0  0
  9 12  1  1  0  0  0
  8 13  1  6  0  0  0
  7 14  1  1  0  0  0
 26  4  1  0  0  0  0
 14 15  1  0  0  0  0
 17 16  1  0  0  0  0
 20 17  1  0  0  0  0
 21 18  1  0  0  0  0
 19 27  1  0  0  0  0
 20 19  2  0  0  0  0
 21 20  1  0  0  0  0
 22 21  2  0  0  0  0
 23 22  1  0  0  0  0
 27 23  2  0  0  0  0
 25 24  1  0  0  0  0
 29 25  1  6  0  0  0
 30 26  1  1  0  0  0
 28 29  1  0  0  0  0
 31 30  1  0  0  0  0
 31 27  1  6  0  0  0
 28 32  1  0  0  0  0
 30 29  1  0  0  0  0
 33 31  1  0  0  0  0
 32 37  1  0  0  0  0
 33 32  2  0  0  0  0
 34 33  1  0  0  0  0
 35 34  2  0  0  0  0
 36 35  1  0  0  0  0
 37 36  2  0  0  0  0
M  END
>  <cdx:fragmentId>
83

$$$$
