77.cdx
  Mrv1902 05222410222D          

 37 40  0  0  0  0            999 V2000
    3.6094   -2.2894    0.0000 C   0  0  0  0  0  0  0  0  0  0  0  0
    2.8949   -2.7019    0.0000 C   0  0  0  0  0  0  0  0  0  0  0  0
    2.8949   -3.5269    0.0000 C   0  0  0  0  0  0  0  0  0  0  0  0
    3.6094   -3.9394    0.0000 C   0  0  0  0  0  0  0  0  0  0  0  0
    4.3238   -3.5269    0.0000 C   0  0  0  0  0  0  0  0  0  0  0  0
    4.3238   -2.7019    0.0000 C   0  0  0  0  0  0  0  0  0  0  0  0
    5.0383   -3.9394    0.0000 C   0  0  1  0  0  0  0  0  0  0  0  0
    5.7528   -3.5269    0.0000 C   0  0  1  0  0  0  0  0  0  0  0  0
    5.7528   -2.7019    0.0000 C   0  0  2  0  0  0  0  0  0  0  0  0
    5.0383   -2.2894    0.0000 C   0  0  0  0  0  0  0  0  0  0  0  0
    5.0383   -4.7644    0.0000 C   0  0  0  0  0  0  0  0  0  0  0  0
    6.4673   -3.9394    0.0000 C   0  0  0  0  0  0  0  0  0  0  0  0
    6.4673   -2.2894    0.0000 C   0  0  0  0  0  0  0  0  0  0  0  0
    7.1817   -2.7019    0.0000 O   0  0  0  0  0  0  0  0  0  0  0  0
    4.3238   -5.1769    0.0000 C   0  0  0  0  0  0  0  0  0  0  0  0
    4.3238   -6.0019    0.0000 C   0  0  0  0  0  0  0  0  0  0  0  0
    5.0383   -6.4144    0.0000 C   0  0  0  0  0  0  0  0  0  0  0  0
    5.7528   -6.0019    0.0000 C   0  0  0  0  0  0  0  0  0  0  0  0
    5.7528   -5.1769    0.0000 C   0  0  0  0  0  0  0  0  0  0  0  0
    5.0383   -7.2394    0.0000 O   0  0  0  0  0  0  0  0  0  0  0  0
    6.4673   -6.4144    0.0000 O   0  0  0  0  0  0  0  0  0  0  0  0
    7.1817   -6.0019    0.0000 C   0  0  0  0  0  0  0  0  0  0  0  0
    7.1817   -3.5269    0.0000 O   0  0  0  0  0  0  0  0  0  0  0  0
    7.8962   -3.9394    0.0000 C   0  0  0  0  0  0  0  0  0  0  0  0
    7.8962   -4.7644    0.0000 O   0  0  0  0  0  0  0  0  0  0  0  0
    8.6107   -5.1769    0.0000 C   0  0  1  0  0  0  0  0  0  0  0  0
    9.3251   -4.7644    0.0000 C   0  0  2  0  0  0  0  0  0  0  0  0
    9.3251   -3.9394    0.0000 C   0  0  1  0  0  0  0  0  0  0  0  0
    8.6107   -3.5269    0.0000 C   0  0  1  0  0  0  0  0  0  0  0  0
    8.6107   -2.7019    0.0000 O   0  0  0  0  0  0  0  0  0  0  0  0
   10.0396   -3.5269    0.0000 O   0  0  0  0  0  0  0  0  0  0  0  0
   10.0396   -5.1769    0.0000 O   0  0  0  0  0  0  0  0  0  0  0  0
    8.6107   -6.0019    0.0000 C   0  0  0  0  0  0  0  0  0  0  0  0
    9.3251   -6.4144    0.0000 O   0  0  0  0  0  0  0  0  0  0  0  0
    2.1804   -3.9394    0.0000 O   0  0  0  0  0  0  0  0  0  0  0  0
    2.1804   -2.2894    0.0000 O   0  0  0  0  0  0  0  0  0  0  0  0
    1.4660   -2.7019    0.0000 C   0  0  0  0  0  0  0  0  0  0  0  0
  1  2  2  0  0  0  0
  2  3  1  0  0  0  0
  3  4  2  0  0  0  0
  4  5  1  0  0  0  0
  5  6  2  0  0  0  0
  6  1  1  0  0  0  0
  5  7  1  0  0  0  0
  8  9  1  0  0  0  0
 10  6  1  0  0  0  0
  7 11  1  1  0  0  0
  7  8  1  0  0  0  0
 10  9  1  0  0  0  0
  8 12  1  1  0  0  0
  9 13  1  6  0  0  0
 13 14  1  0  0  0  0
 11 15  2  0  0  0  0
 15 16  1  0  0  0  0
 16 17  2  0  0  0  0
 17 18  1  0  0  0  0
 18 19  2  0  0  0  0
 19 11  1  0  0  0  0
 17 20  1  0  0  0  0
 18 21  1  0  0  0  0
 21 22  1  0  0  0  0
 12 23  1  0  0  0  0
 23 24  1  0  0  0  0
 24 25  1  0  0  0  0
 25 26  1  0  0  0  0
 26 27  1  0  0  0  0
 27 28  1  0  0  0  0
 28 29  1  0  0  0  0
 29 24  1  0  0  0  0
 29 30  1  6  0  0  0
 28 31  1  1  0  0  0
 27 32  1  6  0  0  0
 26 33  1  1  0  0  0
 33 34  1  0  0  0  0
  3 35  1  0  0  0  0
  2 36  1  0  0  0  0
 36 37  1  0  0  0  0
M  END
>  <cdx:fragmentId>
83

$$$$
