37583.cdx
  Mrv1902 05222410262D          

 24 26  0  0  0  0            999 V2000
    8.6390   -6.0666    0.0000 C   0  0  1  0  0  0  0  0  0  0  0  0
    9.4359   -5.8531    0.0000 C   0  0  1  0  0  0  0  0  0  0  0  0
   10.2328   -6.0666    0.0000 C   0  0  0  0  0  0  0  0  0  0  0  0
    9.0515   -5.3521    0.0000 C   0  0  0  0  0  0  0  0  0  0  0  0
   10.6453   -5.3521    0.0000 C   0  0  0  0  0  0  0  0  0  0  0  0
    9.8484   -5.1386    0.0000 C   0  0  2  0  0  0  0  0  0  0  0  0
    9.4359   -5.0281    0.0000 O   0  0  0  0  0  0  0  0  0  0  0  0
    9.8484   -4.3136    0.0000 C   0  0  0  0  0  0  0  0  0  0  0  0
    9.6349   -3.5167    0.0000 C   0  0  0  0  0  0  0  0  0  0  0  0
   10.5629   -3.9011    0.0000 C   0  0  0  0  0  0  0  0  0  0  0  0
    9.2224   -6.6500    0.0000 C   0  0  0  0  0  0  0  0  0  0  0  0
    5.7435   -3.5637    0.0000 O   0  0  0  0  0  0  0  0  0  0  0  0
    6.4297   -7.2815    0.0000 O   0  0  0  0  0  0  0  0  0  0  0  0
    5.0196   -4.7957    0.0000 O   0  0  0  0  0  0  0  0  0  0  0  0
    5.0071   -6.4456    0.0000 O   0  0  0  0  0  0  0  0  0  0  0  0
    6.4548   -3.9816    0.0000 C   0  0  0  0  0  0  0  0  0  0  0  0
    7.1598   -5.2245    0.0000 O   0  0  0  0  0  0  0  0  0  0  0  0
    6.4485   -4.8066    0.0000 C   0  0  1  0  0  0  0  0  0  0  0  0
    5.7309   -5.2136    0.0000 C   0  0  2  0  0  0  0  0  0  0  0  0
    5.7247   -6.0386    0.0000 C   0  0  1  0  0  0  0  0  0  0  0  0
    6.4360   -6.4565    0.0000 C   0  0  2  0  0  0  0  0  0  0  0  0
    7.1536   -6.0495    0.0000 C   0  0  2  0  0  0  0  0  0  0  0  0
    7.8650   -6.4900    0.0000 O   0  0  0  0  0  0  0  0  0  0  0  0
   10.5629   -4.7261    0.0000 H   0  0  0  0  0  0  0  0  0  0  0  0
  1  2  1  0  0  0  0
  2  3  1  0  0  0  0
  1  4  1  0  0  0  0
  3  5  1  0  0  0  0
  4  6  1  0  0  0  0
  6  5  1  0  0  0  0
  2  7  1  0  0  0  0
  6  8  1  0  0  0  0
  8  7  1  0  0  0  0
  8  9  1  0  0  0  0
  8 10  1  0  0  0  0
  2 11  1  1  0  0  0
 16 12  1  0  0  0  0
  1 23  1  6  0  0  0
 21 13  1  6  0  0  0
 19 14  1  6  0  0  0
 20 15  1  1  0  0  0
 18 16  1  1  0  0  0
 17 22  1  0  0  0  0
 18 17  1  0  0  0  0
 19 18  1  0  0  0  0
 20 19  1  0  0  0  0
 21 20  1  0  0  0  0
 22 21  1  0  0  0  0
 22 23  1  1  0  0  0
  6 24  1  6  0  0  0
M  END
>  <cdx:fragmentId>
802

$$$$
