37588.cdx
  Mrv1902 05222410222D          

 50 58  0  0  0  0            999 V2000
    7.3455   -4.6908    0.0000 C   0  0  0  0  0  0  0  0  0  0  0  0
    6.6311   -5.1033    0.0000 C   0  0  0  0  0  0  0  0  0  0  0  0
    7.3455   -3.8658    0.0000 O   0  0  0  0  0  0  0  0  0  0  0  0
    8.0600   -5.1033    0.0000 O   0  0  0  0  0  0  0  0  0  0  0  0
   12.4195   -5.3705    0.0000 C   0  0  0  0  0  0  0  0  0  0  0  0
   12.5058   -6.1909    0.0000 C   0  0  2  0  0  0  0  0  0  0  0  0
   11.7521   -6.5265    0.0000 O   0  0  0  0  0  0  0  0  0  0  0  0
   11.2001   -5.9134    0.0000 C   0  0  1  0  0  0  0  0  0  0  0  0
   11.6126   -5.1989    0.0000 C   0  0  2  0  0  0  0  0  0  0  0  0
   12.1646   -4.5858    0.0000 O   0  0  0  0  0  0  0  0  0  0  0  0
    7.3455   -7.1658    0.0000 C   0  0  2  0  0  0  0  0  0  0  0  0
    7.3455   -6.3408    0.0000 C   0  0  0  0  0  0  0  0  0  0  0  0
    8.0600   -5.9283    0.0000 C   0  0  2  0  0  0  0  0  0  0  0  0
    8.7745   -6.3408    0.0000 C   0  0  2  0  0  0  0  0  0  0  0  0
    9.5591   -6.0859    0.0000 C   0  0  1  0  0  0  0  0  0  0  0  0
    9.8947   -5.3322    0.0000 C   0  0  1  0  0  0  0  0  0  0  0  0
   10.7151   -5.2460    0.0000 C   0  0  0  0  0  0  0  0  0  0  0  0
   10.4225   -6.0225    0.0000 O   0  0  0  0  0  0  0  0  0  0  0  0
   10.0440   -6.7533    0.0000 C   0  0  1  0  0  0  0  0  0  0  0  0
    9.5591   -7.4208    0.0000 C   0  0  0  0  0  0  0  0  0  0  0  0
    8.7745   -7.1658    0.0000 C   0  0  1  0  0  0  0  0  0  0  0  0
    8.0600   -7.5783    0.0000 C   0  0  0  0  0  0  0  0  0  0  0  0
    8.0600   -8.4033    0.0000 C   0  0  0  0  0  0  0  0  0  0  0  0
    7.3455   -8.8158    0.0000 C   0  0  0  0  0  0  0  0  0  0  0  0
    6.6311   -8.4033    0.0000 C   0  0  1  0  0  0  0  0  0  0  0  0
    5.9166   -8.8158    0.0000 C   0  0  1  0  0  0  0  0  0  0  0  0
    5.2021   -8.4033    0.0000 C   0  0  2  0  0  0  0  0  0  0  0  0
    5.2021   -7.5783    0.0000 C   0  0  0  0  0  0  0  0  0  0  0  0
    5.9166   -7.1658    0.0000 C   0  0  0  0  0  0  0  0  0  0  0  0
    6.6311   -7.5783    0.0000 C   0  0  2  0  0  0  0  0  0  0  0  0
    6.6311   -6.7533    0.0000 C   0  0  0  0  0  0  0  0  0  0  0  0
    4.4876   -8.8158    0.0000 O   0  0  0  0  0  0  0  0  0  0  0  0
    3.7732   -7.5783    0.0000 O   0  0  0  0  0  0  0  0  0  0  0  0
    3.7732   -8.4033    0.0000 C   0  0  2  0  0  0  0  0  0  0  0  0
    3.0587   -8.8158    0.0000 C   0  0  1  0  0  0  0  0  0  0  0  0
    2.3442   -8.4033    0.0000 C   0  0  2  0  0  0  0  0  0  0  0  0
    2.3442   -7.5783    0.0000 C   0  0  1  0  0  0  0  0  0  0  0  0
    3.0587   -7.1658    0.0000 C   0  0  0  0  0  0  0  0  0  0  0  0
    1.6298   -7.1658    0.0000 O   0  0  0  0  0  0  0  0  0  0  0  0
    1.6298   -8.8158    0.0000 O   0  0  0  0  0  0  0  0  0  0  0  0
    3.0587   -9.6408    0.0000 O   0  0  0  0  0  0  0  0  0  0  0  0
    6.3291   -9.5303    0.0000 C   0  0  0  0  0  0  0  0  0  0  0  0
    5.5041   -9.5303    0.0000 C   0  0  0  0  0  0  0  0  0  0  0  0
    8.7745   -7.9908    0.0000 C   0  0  0  0  0  0  0  0  0  0  0  0
    9.4097   -4.6648    0.0000 C   0  0  0  0  0  0  0  0  0  0  0  0
    8.7745   -5.5158    0.0000 C   0  0  0  0  0  0  0  0  0  0  0  0
   13.2265   -5.1989    0.0000 C   0  0  0  0  0  0  0  0  0  0  0  0
   13.2202   -6.6034    0.0000 O   0  0  0  0  0  0  0  0  0  0  0  0
    9.1466   -5.3714    0.0000 H   0  0  0  0  0  0  0  0  0  0  0  0
    6.6311   -9.2283    0.0000 H   0  0  0  0  0  0  0  0  0  0  0  0
  1  2  1  0  0  0  0
  1  3  2  0  0  0  0
  1  4  1  0  0  0  0
  5  6  1  0  0  0  0
  6  7  1  0  0  0  0
  8  7  1  6  0  0  0
  8  9  1  0  0  0  0
  9 10  1  6  0  0  0
  5 10  1  0  0  0  0
  5  9  1  0  0  0  0
 11 12  1  0  0  0  0
 12 13  1  0  0  0  0
 13 14  1  0  0  0  0
 14 15  1  0  0  0  0
 15 16  1  0  0  0  0
 16 17  1  0  0  0  0
 19 18  1  1  0  0  0
 19 20  1  0  0  0  0
 20 21  1  0  0  0  0
 21 22  1  0  0  0  0
 22 23  2  0  0  0  0
 23 24  1  0  0  0  0
 24 25  1  0  0  0  0
 25 26  1  0  0  0  0
 26 27  1  0  0  0  0
 27 28  1  0  0  0  0
 28 29  1  0  0  0  0
 29 30  1  0  0  0  0
 30 31  1  1  0  0  0
 11 31  1  1  0  0  0
 11 22  1  0  0  0  0
 11 30  1  0  0  0  0
 14 21  1  0  0  0  0
 15 19  1  0  0  0  0
 25 30  1  0  0  0  0
  8 17  1  0  0  0  0
  8 18  1  0  0  0  0
 33 34  1  0  0  0  0
 34 35  1  0  0  0  0
 35 36  1  0  0  0  0
 36 37  1  0  0  0  0
 37 38  1  0  0  0  0
 33 38  1  0  0  0  0
 37 39  1  6  0  0  0
 36 40  1  1  0  0  0
 35 41  1  6  0  0  0
 34 32  1  1  0  0  0
 27 32  1  1  0  0  0
 26 42  1  0  0  0  0
 26 43  1  1  0  0  0
 21 44  1  6  0  0  0
 16 45  1  6  0  0  0
 14 46  1  1  0  0  0
  5 47  1  0  0  0  0
  6 48  1  1  0  0  0
 13  4  1  1  0  0  0
 15 49  1  6  0  0  0
 25 50  1  6  0  0  0
M  END
>  <cdx:fragmentId>
39

$$$$
