37581.cdx
  Mrv1902 05222410242D          

 26 28  0  0  0  0            999 V2000
    5.2953   -5.7312    0.0000 C   0  0  0  0  0  0  0  0  0  0  0  0
   10.9838   -8.7409    0.0000 O   0  0  0  0  0  0  0  0  0  0  0  0
    9.0448   -7.2027    0.0000 C   0  0  0  0  0  0  0  0  0  0  0  0
    9.6911   -7.7154    0.0000 O   0  0  0  0  0  0  0  0  0  0  0  0
    9.3284  -10.1637    0.0000 C   0  0  0  0  0  0  0  0  0  0  0  0
   10.0956   -9.8603    0.0000 C   0  0  0  0  0  0  0  0  0  0  0  0
   10.2165   -9.0442    0.0000 C   0  0  0  0  0  0  0  0  0  0  0  0
    9.5702   -8.5315    0.0000 C   0  0  0  0  0  0  0  0  0  0  0  0
    8.8030   -8.8348    0.0000 C   0  0  0  0  0  0  0  0  0  0  0  0
    8.6821   -9.6509    0.0000 C   0  0  0  0  0  0  0  0  0  0  0  0
    6.4633  -10.7225    0.0000 O   0  0  0  0  0  0  0  0  0  0  0  0
    7.9149   -9.9543    0.0000 C   0  0  0  0  0  0  0  0  0  0  0  0
    6.1202   -9.9722    0.0000 C   0  0  0  0  0  0  0  0  0  0  0  0
    6.5984   -9.3000    0.0000 C   0  0  2  0  0  0  0  0  0  0  0  0
    7.4233   -9.2917    0.0000 C   0  0  1  0  0  0  0  0  0  0  0  0
    7.6704   -8.5046    0.0000 C   0  0  0  0  0  0  0  0  0  0  0  0
    6.9982   -8.0264    0.0000 O   0  0  0  0  0  0  0  0  0  0  0  0
    6.3356   -8.5180    0.0000 C   0  0  0  0  0  0  0  0  0  0  0  0
    4.6327   -6.2228    0.0000 O   0  0  0  0  0  0  0  0  0  0  0  0
    3.3076   -7.2060    0.0000 O   0  0  0  0  0  0  0  0  0  0  0  0
    4.9161   -8.6815    0.0000 C   0  0  0  0  0  0  0  0  0  0  0  0
    5.5786   -8.1900    0.0000 C   0  0  0  0  0  0  0  0  0  0  0  0
    5.4842   -7.3704    0.0000 C   0  0  0  0  0  0  0  0  0  0  0  0
    4.7272   -7.0424    0.0000 C   0  0  0  0  0  0  0  0  0  0  0  0
    4.0646   -7.5340    0.0000 C   0  0  0  0  0  0  0  0  0  0  0  0
    4.1591   -8.3535    0.0000 C   0  0  0  0  0  0  0  0  0  0  0  0
 19  1  1  0  0  0  0
  7  2  1  0  0  0  0
  4  3  1  0  0  0  0
  8  4  1  0  0  0  0
  5 10  1  0  0  0  0
  6  5  2  0  0  0  0
  7  6  1  0  0  0  0
  8  7  2  0  0  0  0
  9  8  1  0  0  0  0
 10  9  2  0  0  0  0
 12 10  1  0  0  0  0
 13 11  1  0  0  0  0
 15 12  1  1  0  0  0
 14 13  1  1  0  0  0
 14 18  1  0  0  0  0
 15 14  1  0  0  0  0
 16 15  1  0  0  0  0
 17 16  1  0  0  0  0
 18 17  1  0  0  0  0
 22 18  1  6  0  0  0
 24 19  1  0  0  0  0
 25 20  1  0  0  0  0
 21 26  1  0  0  0  0
 22 21  2  0  0  0  0
 23 22  1  0  0  0  0
 24 23  2  0  0  0  0
 25 24  1  0  0  0  0
 26 25  2  0  0  0  0
M  END
>  <cdx:fragmentId>
493

$$$$
