37584.cdx
  Mrv1902 05222410242D          

 23 24  0  0  0  0            999 V2000
    9.1920   -6.0593    0.0000 C   0  0  0  0  0  0  0  0  0  0  0  0
    9.9002   -6.4826    0.0000 C   0  0  1  0  0  0  0  0  0  0  0  0
   10.6208   -6.0809    0.0000 C   0  0  0  0  0  0  0  0  0  0  0  0
   10.6332   -5.2560    0.0000 C   0  0  0  0  0  0  0  0  0  0  0  0
    9.9251   -4.8328    0.0000 C   0  0  2  0  0  0  0  0  0  0  0  0
    9.2045   -5.2344    0.0000 C   0  0  2  0  0  0  0  0  0  0  0  0
    8.4963   -4.8112    0.0000 O   0  0  0  0  0  0  0  0  0  0  0  0
    9.9375   -4.0079    0.0000 C   0  0  0  0  0  0  0  0  0  0  0  0
   10.6581   -3.6062    0.0000 C   0  0  0  0  0  0  0  0  0  0  0  0
    9.2294   -3.5846    0.0000 C   0  0  0  0  0  0  0  0  0  0  0  0
    9.8877   -7.3075    0.0000 C   0  0  0  0  0  0  0  0  0  0  0  0
    7.7757   -5.2129    0.0000 C   0  0  2  0  0  0  0  0  0  0  0  0
    7.0675   -4.7896    0.0000 O   0  0  0  0  0  0  0  0  0  0  0  0
    6.3469   -5.1913    0.0000 C   0  0  1  0  0  0  0  0  0  0  0  0
    6.3345   -6.0162    0.0000 C   0  0  2  0  0  0  0  0  0  0  0  0
    7.0426   -6.4394    0.0000 C   0  0  1  0  0  0  0  0  0  0  0  0
    7.7632   -6.0378    0.0000 C   0  0  1  0  0  0  0  0  0  0  0  0
    5.6387   -4.7681    0.0000 C   0  0  0  0  0  0  0  0  0  0  0  0
    7.0302   -7.2644    0.0000 O   0  0  0  0  0  0  0  0  0  0  0  0
    8.4714   -6.4610    0.0000 O   0  0  0  0  0  0  0  0  0  0  0  0
    5.6138   -6.4179    0.0000 O   0  0  0  0  0  0  0  0  0  0  0  0
    4.9181   -5.1697    0.0000 O   0  0  0  0  0  0  0  0  0  0  0  0
    5.6512   -3.9432    0.0000 O   0  0  0  0  0  0  0  0  0  0  0  0
  1  2  1  0  0  0  0
  2  3  1  0  0  0  0
  3  4  1  0  0  0  0
  4  5  1  0  0  0  0
  5  6  1  0  0  0  0
  6  1  1  0  0  0  0
  6  7  1  1  0  0  0
  5  8  1  6  0  0  0
  8  9  1  0  0  0  0
  8 10  1  0  0  0  0
  2 11  1  1  0  0  0
 12  7  1  1  0  0  0
 12 13  1  0  0  0  0
 13 14  1  0  0  0  0
 14 15  1  0  0  0  0
 15 16  1  0  0  0  0
 16 17  1  0  0  0  0
 17 12  1  0  0  0  0
 14 18  1  1  0  0  0
 16 19  1  1  0  0  0
 17 20  1  6  0  0  0
 15 21  1  6  0  0  0
 18 22  1  0  0  0  0
 18 23  2  0  0  0  0
M  END
>  <cdx:fragmentId>
822

$$$$
