37589.cdx
  Mrv1902 05222410222D          

 31 32  0  0  0  0            999 V2000
    4.0733   -8.4838    0.0000 C   0  0  0  0  0  0  0  0  0  0  0  0
    4.0733   -9.3087    0.0000 C   0  0  0  0  0  0  0  0  0  0  0  0
    4.7877   -9.7212    0.0000 C   0  0  0  0  0  0  0  0  0  0  0  0
    5.5022   -9.3087    0.0000 C   0  0  0  0  0  0  0  0  0  0  0  0
    5.5022   -8.4838    0.0000 C   0  0  0  0  0  0  0  0  0  0  0  0
    4.7877   -8.0713    0.0000 C   0  0  0  0  0  0  0  0  0  0  0  0
    6.9312   -8.4838    0.0000 C   0  0  0  0  0  0  0  0  0  0  0  0
    6.2167   -8.0713    0.0000 C   0  0  0  0  0  0  0  0  0  0  0  0
    8.3601   -8.4838    0.0000 C   0  0  0  0  0  0  0  0  0  0  0  0
    7.6456   -8.0713    0.0000 C   0  0  0  0  0  0  0  0  0  0  0  0
    9.7890   -8.4838    0.0000 C   0  0  0  0  0  0  0  0  0  0  0  0
    9.0746   -8.0713    0.0000 C   0  0  0  0  0  0  0  0  0  0  0  0
   10.5035   -8.0713    0.0000 C   0  0  0  0  0  0  0  0  0  0  0  0
    9.0746   -7.2462    0.0000 O   0  0  0  0  0  0  0  0  0  0  0  0
    8.3601   -6.8338    0.0000 C   0  0  0  0  0  0  0  0  0  0  0  0
    7.6456   -7.2462    0.0000 O   0  0  0  0  0  0  0  0  0  0  0  0
   11.1997   -3.5128    0.0000 C   0  0  0  0  0  0  0  0  0  0  0  0
    9.7890   -5.9982    0.0000 C   0  0  0  0  0  0  0  0  0  0  0  0
   10.4822   -3.1056    0.0000 C   0  0  0  0  0  0  0  0  0  0  0  0
   10.4761   -2.2806    0.0000 C   0  0  0  0  0  0  0  0  0  0  0  0
    9.7769   -4.3483    0.0000 C   0  0  0  0  0  0  0  0  0  0  0  0
    9.7708   -3.5233    0.0000 C   0  0  0  0  0  0  0  0  0  0  0  0
    3.3588   -9.7212    0.0000 O   0  0  0  0  0  0  0  0  0  0  0  0
    8.3601   -6.0088    0.0000 C   0  0  0  0  0  0  0  0  0  0  0  0
    9.0715   -5.5910    0.0000 C   0  0  0  0  0  0  0  0  0  0  0  0
    9.0654   -4.7660    0.0000 C   0  0  0  0  0  0  0  0  0  0  0  0
   11.2180   -8.4837    0.0000 C   0  0  0  0  0  0  0  0  0  0  0  0
   11.9325   -8.0712    0.0000 C   0  0  0  0  0  0  0  0  0  0  0  0
   12.6469   -8.4837    0.0000 C   0  0  0  0  0  0  0  0  0  0  0  0
    3.3588   -8.0713    0.0000 O   0  0  0  0  0  0  0  0  0  0  0  0
    2.6443   -8.4838    0.0000 C   0  0  0  0  0  0  0  0  0  0  0  0
  1  2  2  0  0  0  0
  2  3  1  0  0  0  0
  3  4  2  0  0  0  0
  4  5  1  0  0  0  0
  5  6  2  0  0  0  0
  6  1  1  0  0  0  0
  7  8  1  0  0  0  0
  8  5  1  0  0  0  0
  9 10  1  0  0  0  0
 10  7  1  0  0  0  0
 11 12  1  0  0  0  0
 12  9  1  0  0  0  0
 13 11  1  0  0  0  0
 12 14  1  0  0  0  0
 14 15  1  0  0  0  0
 15 16  1  0  0  0  0
 16 10  1  0  0  0  0
 19 17  1  0  0  0  0
 25 18  1  0  0  0  0
 19 22  2  0  0  0  0
 24 15  1  0  0  0  0
 20 19  1  0  0  0  0
 21 26  1  0  0  0  0
 22 21  1  0  0  0  0
 25 24  2  0  0  0  0
  2 23  1  0  0  0  0
 26 25  1  0  0  0  0
 13 27  1  0  0  0  0
 27 28  1  0  0  0  0
 28 29  1  0  0  0  0
  1 30  1  0  0  0  0
 30 31  1  0  0  0  0
M  END
>  <cdx:fragmentId>
5

$$$$
