37585.cdx
  Mrv1902 05222410242D          

 13 13  0  0  0  0            999 V2000
    6.3255   -4.7850    0.0000 C   0  0  0  0  0  0  0  0  0  0  0  0
    6.3255   -5.6100    0.0000 C   0  0  0  0  0  0  0  0  0  0  0  0
    7.0400   -6.0225    0.0000 C   0  0  0  0  0  0  0  0  0  0  0  0
    7.7545   -5.6100    0.0000 C   0  0  0  0  0  0  0  0  0  0  0  0
    7.7545   -4.7850    0.0000 C   0  0  2  0  0  0  0  0  0  0  0  0
    7.0400   -4.3725    0.0000 C   0  0  1  0  0  0  0  0  0  0  0  0
    7.0400   -6.8475    0.0000 C   0  0  0  0  0  0  0  0  0  0  0  0
    7.7545   -7.2600    0.0000 C   0  0  0  0  0  0  0  0  0  0  0  0
    6.3255   -7.2600    0.0000 C   0  0  0  0  0  0  0  0  0  0  0  0
    8.4689   -6.0225    0.0000 O   0  0  0  0  0  0  0  0  0  0  0  0
    8.4689   -4.3725    0.0000 O   0  0  0  0  0  0  0  0  0  0  0  0
    6.6275   -3.6580    0.0000 C   0  0  0  0  0  0  0  0  0  0  0  0
    7.4525   -3.6580    0.0000 O   0  0  0  0  0  0  0  0  0  0  0  0
  1  2  1  0  0  0  0
  2  3  1  0  0  0  0
  3  4  1  0  0  0  0
  4  5  1  0  0  0  0
  5  6  1  0  0  0  0
  6  1  1  0  0  0  0
  3  7  2  0  0  0  0
  7  8  1  0  0  0  0
  7  9  1  0  0  0  0
  4 10  2  0  0  0  0
  5 11  1  6  0  0  0
  6 12  1  6  0  0  0
  6 13  1  1  0  0  0
M  END
>  <cdx:fragmentId>
883

$$$$
