37586.cdx
  Mrv1902 05222410242D          

 32 35  0  0  0  0            999 V2000
    6.9237   -5.1906    0.0000 C   0  0  0  0  0  0  0  0  0  0  0  0
    6.9237   -6.0156    0.0000 C   0  0  0  0  0  0  0  0  0  0  0  0
    7.6381   -6.4281    0.0000 C   0  0  0  0  0  0  0  0  0  0  0  0
    8.3526   -6.0156    0.0000 C   0  0  0  0  0  0  0  0  0  0  0  0
    8.3526   -5.1906    0.0000 C   0  0  0  0  0  0  0  0  0  0  0  0
    7.6381   -4.7781    0.0000 C   0  0  0  0  0  0  0  0  0  0  0  0
    9.0671   -6.4281    0.0000 C   0  0  0  0  0  0  0  0  0  0  0  0
    9.7815   -6.0156    0.0000 C   0  0  0  0  0  0  0  0  0  0  0  0
    9.7815   -5.1906    0.0000 C   0  0  0  0  0  0  0  0  0  0  0  0
    9.0671   -4.7781    0.0000 O   0  0  0  0  0  0  0  0  0  0  0  0
    9.0671   -7.2531    0.0000 O   0  0  0  0  0  0  0  0  0  0  0  0
    7.6381   -7.2531    0.0000 O   0  0  0  0  0  0  0  0  0  0  0  0
    6.2092   -4.7781    0.0000 O   0  0  0  0  0  0  0  0  0  0  0  0
    5.4947   -5.1906    0.0000 C   0  0  2  0  0  0  0  0  0  0  0  0
    4.7802   -4.7781    0.0000 O   0  0  0  0  0  0  0  0  0  0  0  0
    4.0658   -5.1906    0.0000 C   0  0  1  0  0  0  0  0  0  0  0  0
    4.0658   -6.0156    0.0000 C   0  0  2  0  0  0  0  0  0  0  0  0
    4.7802   -6.4281    0.0000 C   0  0  1  0  0  0  0  0  0  0  0  0
    5.4947   -6.0156    0.0000 C   0  0  1  0  0  0  0  0  0  0  0  0
    3.3513   -4.7781    0.0000 C   0  0  0  0  0  0  0  0  0  0  0  0
    4.7802   -7.2531    0.0000 O   0  0  0  0  0  0  0  0  0  0  0  0
    3.3513   -6.4281    0.0000 O   0  0  0  0  0  0  0  0  0  0  0  0
    6.2092   -6.4281    0.0000 O   0  0  0  0  0  0  0  0  0  0  0  0
   10.4960   -4.7781    0.0000 C   0  0  0  0  0  0  0  0  0  0  0  0
   11.2105   -5.1906    0.0000 C   0  0  0  0  0  0  0  0  0  0  0  0
   11.9250   -4.7781    0.0000 C   0  0  0  0  0  0  0  0  0  0  0  0
   11.9250   -3.9531    0.0000 C   0  0  0  0  0  0  0  0  0  0  0  0
   11.2105   -3.5406    0.0000 C   0  0  0  0  0  0  0  0  0  0  0  0
   10.4960   -3.9531    0.0000 C   0  0  0  0  0  0  0  0  0  0  0  0
    9.7815   -3.5406    0.0000 O   0  0  0  0  0  0  0  0  0  0  0  0
   12.6394   -5.1906    0.0000 O   0  0  0  0  0  0  0  0  0  0  0  0
    2.6368   -5.1906    0.0000 O   0  0  0  0  0  0  0  0  0  0  0  0
  1  2  2  0  0  0  0
  2  3  1  0  0  0  0
  3  4  2  0  0  0  0
  4  5  1  0  0  0  0
  5  6  2  0  0  0  0
  6  1  1  0  0  0  0
  4  7  1  0  0  0  0
  7  8  1  0  0  0  0
  8  9  2  0  0  0  0
  9 10  1  0  0  0  0
 10  5  1  0  0  0  0
  7 11  2  0  0  0  0
  3 12  1  0  0  0  0
  1 13  1  0  0  0  0
 14 13  1  1  0  0  0
 14 15  1  0  0  0  0
 15 16  1  0  0  0  0
 16 17  1  0  0  0  0
 17 18  1  0  0  0  0
 18 19  1  0  0  0  0
 19 14  1  0  0  0  0
 16 20  1  1  0  0  0
 18 21  1  1  0  0  0
 17 22  1  6  0  0  0
 19 23  1  6  0  0  0
  9 24  1  0  0  0  0
 24 25  2  0  0  0  0
 25 26  1  0  0  0  0
 26 27  2  0  0  0  0
 27 28  1  0  0  0  0
 28 29  2  0  0  0  0
 29 24  1  0  0  0  0
 29 30  1  0  0  0  0
 26 31  1  0  0  0  0
 20 32  1  0  0  0  0
M  END
>  <cdx:fragmentId>
923

$$$$
