82.cdx
  Mrv1902 05222410252D          

 33 36  0  0  0  0            999 V2000
    3.4238   -4.9913    0.0000 C   0  0  0  0  0  0  0  0  0  0  0  0
    2.7093   -5.4037    0.0000 C   0  0  0  0  0  0  0  0  0  0  0  0
    2.7093   -6.2287    0.0000 C   0  0  0  0  0  0  0  0  0  0  0  0
    3.4238   -6.6413    0.0000 C   0  0  0  0  0  0  0  0  0  0  0  0
    4.1382   -6.2287    0.0000 C   0  0  0  0  0  0  0  0  0  0  0  0
    4.1382   -5.4037    0.0000 C   0  0  0  0  0  0  0  0  0  0  0  0
    1.9948   -4.9913    0.0000 O   0  0  0  0  0  0  0  0  0  0  0  0
    4.8527   -6.6413    0.0000 C   0  0  2  0  0  0  0  0  0  0  0  0
    5.5672   -6.2287    0.0000 C   0  0  1  0  0  0  0  0  0  0  0  0
    5.5672   -5.4037    0.0000 C   0  0  2  0  0  0  0  0  0  0  0  0
    4.8527   -4.9913    0.0000 O   0  0  0  0  0  0  0  0  0  0  0  0
    6.2816   -4.9912    0.0000 C   0  0  0  0  0  0  0  0  0  0  0  0
    6.2816   -6.6413    0.0000 H   0  0  0  0  0  0  0  0  0  0  0  0
    6.9961   -5.4037    0.0000 C   0  0  0  0  0  0  0  0  0  0  0  0
    7.7106   -4.9912    0.0000 C   0  0  0  0  0  0  0  0  0  0  0  0
    7.7106   -4.1662    0.0000 C   0  0  0  0  0  0  0  0  0  0  0  0
    6.9961   -3.7538    0.0000 C   0  0  0  0  0  0  0  0  0  0  0  0
    6.2816   -4.1662    0.0000 C   0  0  0  0  0  0  0  0  0  0  0  0
    6.9961   -2.9288    0.0000 O   0  0  0  0  0  0  0  0  0  0  0  0
    8.4250   -3.7537    0.0000 O   0  0  0  0  0  0  0  0  0  0  0  0
    8.4250   -5.4037    0.0000 O   0  0  0  0  0  0  0  0  0  0  0  0
    5.7807   -7.0256    0.0000 O   0  0  0  0  0  0  0  0  0  0  0  0
    3.4238   -7.4663    0.0000 O   0  0  0  0  0  0  0  0  0  0  0  0
    5.4361   -7.2246    0.0000 H   0  0  0  0  0  0  0  0  0  0  0  0
    4.8527   -7.4663    0.0000 C   0  0  0  0  0  0  0  0  0  0  0  0
    4.1382   -7.8788    0.0000 C   0  0  0  0  0  0  0  0  0  0  0  0
    4.1382   -8.7037    0.0000 C   0  0  0  0  0  0  0  0  0  0  0  0
    4.8527   -9.1162    0.0000 C   0  0  0  0  0  0  0  0  0  0  0  0
    5.5672   -8.7037    0.0000 C   0  0  0  0  0  0  0  0  0  0  0  0
    5.5672   -7.8788    0.0000 C   0  0  0  0  0  0  0  0  0  0  0  0
    6.2816   -7.4663    0.0000 O   0  0  0  0  0  0  0  0  0  0  0  0
    4.8527   -9.9413    0.0000 O   0  0  0  0  0  0  0  0  0  0  0  0
    3.3132   -7.8788    0.0000 O   0  0  0  0  0  0  0  0  0  0  0  0
  1  2  2  0  0  0  0
  2  3  1  0  0  0  0
  3  4  2  0  0  0  0
  4  5  1  0  0  0  0
  5  6  2  0  0  0  0
  6  1  1  0  0  0  0
  2  7  1  0  0  0  0
  5  8  1  0  0  0  0
  8  9  1  0  0  0  0
  9 10  1  0  0  0  0
 10 11  1  0  0  0  0
 11  6  1  0  0  0  0
 10 12  1  6  0  0  0
  9 13  1  6  0  0  0
 12 14  2  0  0  0  0
 14 15  1  0  0  0  0
 15 16  2  0  0  0  0
 16 17  1  0  0  0  0
 17 18  2  0  0  0  0
 18 12  1  0  0  0  0
 17 19  1  0  0  0  0
 16 20  1  0  0  0  0
 15 21  1  0  0  0  0
  9 22  1  1  0  0  0
  4 23  1  0  0  0  0
  8 24  1  1  0  0  0
  8 25  1  6  0  0  0
 25 26  2  0  0  0  0
 26 27  1  0  0  0  0
 27 28  2  0  0  0  0
 28 29  1  0  0  0  0
 29 30  2  0  0  0  0
 30 25  1  0  0  0  0
 30 31  1  0  0  0  0
 28 32  1  0  0  0  0
 26 33  1  0  0  0  0
M  END
>  <cdx:fragmentId>
655

$$$$
