91.cdx
  Mrv1902 05222410242D          

 19 20  0  0  0  0            999 V2000
    2.6062   -3.4856    0.0000 C   0  0  2  0  0  0  0  0  0  0  0  0
    2.6062   -4.3106    0.0000 C   0  0  0  0  0  0  0  0  0  0  0  0
    3.3206   -4.7231    0.0000 C   0  0  2  0  0  0  0  0  0  0  0  0
    4.0351   -4.3106    0.0000 C   0  0  1  0  0  0  0  0  0  0  0  0
    4.0351   -3.4856    0.0000 C   0  0  0  0  0  0  0  0  0  0  0  0
    3.3206   -3.0731    0.0000 C   0  0  2  0  0  0  0  0  0  0  0  0
    3.3206   -5.5481    0.0000 C   0  0  0  0  0  0  0  0  0  0  0  0
    4.7496   -4.7231    0.0000 O   0  0  0  0  0  0  0  0  0  0  0  0
    2.6062   -2.6606    0.0000 O   0  0  0  0  0  0  0  0  0  0  0  0
    3.7331   -2.3587    0.0000 C   0  0  0  0  0  0  0  0  0  0  0  0
    4.7496   -3.0731    0.0000 O   0  0  0  0  0  0  0  0  0  0  0  0
    5.4640   -4.3106    0.0000 C   0  0  0  0  0  0  0  0  0  0  0  0
    6.1785   -4.7231    0.0000 C   0  0  0  0  0  0  0  0  0  0  0  0
    5.4640   -3.4856    0.0000 O   0  0  0  0  0  0  0  0  0  0  0  0
    6.8930   -4.3106    0.0000 C   0  0  0  0  0  0  0  0  0  0  0  0
    6.8930   -3.4856    0.0000 C   0  0  0  0  0  0  0  0  0  0  0  0
    6.1785   -5.5481    0.0000 C   0  0  0  0  0  0  0  0  0  0  0  0
    4.0351   -5.9606    0.0000 C   0  0  0  0  0  0  0  0  0  0  0  0
    2.6062   -5.9606    0.0000 C   0  0  0  0  0  0  0  0  0  0  0  0
  1  2  1  0  0  0  0
  2  3  1  0  0  0  0
  3  4  1  0  0  0  0
  4  5  1  0  0  0  0
  5  6  1  0  0  0  0
  6  1  1  0  0  0  0
  3  7  1  6  0  0  0
  4  8  1  1  0  0  0
  1  9  1  1  0  0  0
  6  9  1  1  0  0  0
  6 10  1  6  0  0  0
  5 11  2  0  0  0  0
  8 12  1  0  0  0  0
 12 13  1  0  0  0  0
 12 14  2  0  0  0  0
 13 15  2  0  0  0  0
 15 16  1  0  0  0  0
 13 17  1  0  0  0  0
  7 18  1  0  0  0  0
  7 19  1  0  0  0  0
M  END
>  <cdx:fragmentId>
349

$$$$
