37592.cdx
  Mrv1902 05222410242D          

 38 40  0  0  0  0            999 V2000
    5.4597   -8.7768    0.0000 C   0  0  0  0  0  0  0  0  0  0  0  0
    4.7509   -8.3547    0.0000 C   0  0  0  0  0  0  0  0  0  0  0  0
    4.0309   -8.7576    0.0000 C   0  0  0  0  0  0  0  0  0  0  0  0
    4.0198   -9.5825    0.0000 C   0  0  0  0  0  0  0  0  0  0  0  0
    4.7287  -10.0046    0.0000 C   0  0  0  0  0  0  0  0  0  0  0  0
    5.4487   -9.6017    0.0000 C   0  0  0  0  0  0  0  0  0  0  0  0
    7.5735  -10.8708    0.0000 O   0  0  0  0  0  0  0  0  0  0  0  0
   11.2679   -9.6143    0.0000 C   0  0  0  0  0  0  0  0  0  0  0  0
   10.4438  -10.0901    0.0000 O   0  0  0  0  0  0  0  0  0  0  0  0
   10.4694   -8.4403    0.0000 O   0  0  0  0  0  0  0  0  0  0  0  0
    9.0151  -10.0680    0.0000 C   0  0  0  0  0  0  0  0  0  0  0  0
    9.7358   -9.6666    0.0000 C   0  0  0  0  0  0  0  0  0  0  0  0
    9.7486   -8.8417    0.0000 C   0  0  0  0  0  0  0  0  0  0  0  0
    9.0406   -8.4182    0.0000 C   0  0  0  0  0  0  0  0  0  0  0  0
    7.5863  -10.0459    0.0000 C   0  0  0  0  0  0  0  0  0  0  0  0
    3.3220   -8.3355    0.0000 C   0  0  0  0  0  0  0  0  0  0  0  0
    2.6021   -8.7384    0.0000 C   0  0  0  0  0  0  0  0  0  0  0  0
    1.8932   -8.3164    0.0000 C   0  0  0  0  0  0  0  0  0  0  0  0
    1.1733   -8.7192    0.0000 O   0  0  0  0  0  0  0  0  0  0  0  0
    8.3071   -9.6445    0.0000 C   0  0  0  0  0  0  0  0  0  0  0  0
    8.3198   -8.8196    0.0000 C   0  0  0  0  0  0  0  0  0  0  0  0
    7.6118   -8.3961    0.0000 O   0  0  0  0  0  0  0  0  0  0  0  0
    6.1575  -10.0238    0.0000 O   0  0  0  0  0  0  0  0  0  0  0  0
    6.8783   -9.6224    0.0000 C   0  0  0  0  0  0  0  0  0  0  0  0
    6.8911   -8.7975    0.0000 C   0  0  0  0  0  0  0  0  0  0  0  0
    4.7176  -10.8295    0.0000 O   0  0  0  0  0  0  0  0  0  0  0  0
    5.4265  -11.2515    0.0000 C   0  0  0  0  0  0  0  0  0  0  0  0
    7.1906  -11.6015    0.0000 C   0  0  2  0  0  0  0  0  0  0  0  0
    6.3660  -11.6290    0.0000 O   0  0  0  0  0  0  0  0  0  0  0  0
    5.9775  -12.3568    0.0000 C   0  0  1  0  0  0  0  0  0  0  0  0
    6.4136  -13.0571    0.0000 C   0  0  2  0  0  0  0  0  0  0  0  0
    7.2371  -13.0106    0.0000 C   0  0  1  0  0  0  0  0  0  0  0  0
    7.6245  -12.2638    0.0000 C   0  0  1  0  0  0  0  0  0  0  0  0
    5.1530  -12.3842    0.0000 C   0  0  0  0  0  0  0  0  0  0  0  0
    4.7645  -13.1120    0.0000 O   0  0  0  0  0  0  0  0  0  0  0  0
    7.6941  -13.7170    0.0000 O   0  0  0  0  0  0  0  0  0  0  0  0
    6.0335  -13.7894    0.0000 O   0  0  0  0  0  0  0  0  0  0  0  0
    8.4648  -12.2211    0.0000 O   0  0  0  0  0  0  0  0  0  0  0  0
  1  2  2  0  0  0  0
  2  3  1  0  0  0  0
  3  4  2  0  0  0  0
  4  5  1  0  0  0  0
  5  6  2  0  0  0  0
  6  1  1  0  0  0  0
 15  7  1  0  0  0  0
  9  8  1  0  0  0  0
 12  9  1  0  0  0  0
 23  6  1  0  0  0  0
 13 10  1  0  0  0  0
 11 20  1  0  0  0  0
 12 11  2  0  0  0  0
 13 12  1  0  0  0  0
 14 13  2  0  0  0  0
 21 14  1  0  0  0  0
 15 24  1  0  0  0  0
 20 15  1  0  0  0  0
 21 20  2  0  0  0  0
 25 22  1  0  0  0  0
  3 16  1  0  0  0  0
 16 17  1  0  0  0  0
 17 18  1  0  0  0  0
 18 19  1  0  0  0  0
 24 23  1  0  0  0  0
 25 24  1  0  0  0  0
  5 26  1  0  0  0  0
 26 27  1  0  0  0  0
 28  7  1  1  0  0  0
 28 29  1  0  0  0  0
 29 30  1  0  0  0  0
 30 31  1  0  0  0  0
 31 32  1  0  0  0  0
 32 33  1  0  0  0  0
 33 28  1  0  0  0  0
 30 34  1  1  0  0  0
 34 35  1  0  0  0  0
 32 36  1  1  0  0  0
 31 37  1  6  0  0  0
 33 38  1  6  0  0  0
M  END
>  <cdx:fragmentId>
191

$$$$
