37596.cdx
  Mrv1902 05222410252D          

 38 40  0  0  0  0            999 V2000
    9.0460  -10.1399    0.0000 C   0  0  0  0  0  0  0  0  0  0  0  0
    9.7624  -10.5491    0.0000 C   0  0  0  0  0  0  0  0  0  0  0  0
   10.4749  -10.1333    0.0000 C   0  0  0  0  0  0  0  0  0  0  0  0
   10.4711   -9.3083    0.0000 C   0  0  0  0  0  0  0  0  0  0  0  0
    9.7547   -8.8991    0.0000 C   0  0  0  0  0  0  0  0  0  0  0  0
    9.0421   -9.3149    0.0000 C   0  0  0  0  0  0  0  0  0  0  0  0
    4.0504  -10.5854    0.0000 O   0  0  0  0  0  0  0  0  0  0  0  0
    3.3331  -10.1778    0.0000 C   0  0  2  0  0  0  0  0  0  0  0  0
    3.3274   -9.3529    0.0000 O   0  0  0  0  0  0  0  0  0  0  0  0
    2.6101   -8.9453    0.0000 C   0  0  1  0  0  0  0  0  0  0  0  0
    1.8985   -9.3627    0.0000 C   0  0  2  0  0  0  0  0  0  0  0  0
    1.9042  -10.1877    0.0000 C   0  0  1  0  0  0  0  0  0  0  0  0
    2.6215  -10.5953    0.0000 C   0  0  1  0  0  0  0  0  0  0  0  0
    2.6044   -8.1203    0.0000 C   0  0  0  0  0  0  0  0  0  0  0  0
    1.1926  -10.6051    0.0000 O   0  0  0  0  0  0  0  0  0  0  0  0
    2.6272  -11.4202    0.0000 O   0  0  0  0  0  0  0  0  0  0  0  0
    1.1812   -8.9552    0.0000 O   0  0  0  0  0  0  0  0  0  0  0  0
   11.1913  -10.5424    0.0000 C   0  0  0  0  0  0  0  0  0  0  0  0
   11.9038  -10.1266    0.0000 C   0  0  0  0  0  0  0  0  0  0  0  0
   12.6202  -10.5358    0.0000 C   0  0  0  0  0  0  0  0  0  0  0  0
   13.3328  -10.1199    0.0000 O   0  0  0  0  0  0  0  0  0  0  0  0
    1.8871   -7.7128    0.0000 O   0  0  0  0  0  0  0  0  0  0  0  0
    6.8911   -8.0907    0.0000 O   0  0  0  0  0  0  0  0  0  0  0  0
    4.0333   -8.1104    0.0000 C   0  0  0  0  0  0  0  0  0  0  0  0
    4.0390   -8.9354    0.0000 O   0  0  0  0  0  0  0  0  0  0  0  0
    9.7508   -8.0741    0.0000 O   0  0  0  0  0  0  0  0  0  0  0  0
    9.0344   -7.6650    0.0000 C   0  0  0  0  0  0  0  0  0  0  0  0
    5.4679   -8.9255    0.0000 C   0  0  0  0  0  0  0  0  0  0  0  0
    4.7563   -9.3430    0.0000 C   0  0  0  0  0  0  0  0  0  0  0  0
    4.7620  -10.1680    0.0000 C   0  0  0  0  0  0  0  0  0  0  0  0
    5.4793  -10.5755    0.0000 C   0  0  0  0  0  0  0  0  0  0  0  0
    6.8968   -8.9157    0.0000 C   0  0  2  0  0  0  0  0  0  0  0  0
    6.1852   -9.3331    0.0000 C   0  0  0  0  0  0  0  0  0  0  0  0
    6.1909  -10.1581    0.0000 C   0  0  0  0  0  0  0  0  0  0  0  0
    6.9082  -10.5656    0.0000 O   0  0  0  0  0  0  0  0  0  0  0  0
    8.3257   -8.9058    0.0000 O   0  0  0  0  0  0  0  0  0  0  0  0
    7.6141   -9.3232    0.0000 C   0  0  2  0  0  0  0  0  0  0  0  0
    7.6198  -10.1482    0.0000 C   0  0  0  0  0  0  0  0  0  0  0  0
  1  2  2  0  0  0  0
  2  3  1  0  0  0  0
  3  4  2  0  0  0  0
  4  5  1  0  0  0  0
  5  6  2  0  0  0  0
  6  1  1  0  0  0  0
  8  7  1  1  0  0  0
 36  6  1  0  0  0  0
  8  9  1  0  0  0  0
  9 10  1  0  0  0  0
 10 11  1  0  0  0  0
 11 12  1  0  0  0  0
 12 13  1  0  0  0  0
 13  8  1  0  0  0  0
 10 14  1  1  0  0  0
 12 15  1  1  0  0  0
 13 16  1  6  0  0  0
 11 17  1  6  0  0  0
  3 18  1  0  0  0  0
 18 19  1  0  0  0  0
 19 20  1  0  0  0  0
 20 21  1  0  0  0  0
 32 23  1  1  0  0  0
 25 24  1  0  0  0  0
 29 25  1  0  0  0  0
 30  7  1  0  0  0  0
  5 26  1  0  0  0  0
 26 27  1  0  0  0  0
 14 22  1  0  0  0  0
 28 33  1  0  0  0  0
 29 28  2  0  0  0  0
 30 29  1  0  0  0  0
 31 30  2  0  0  0  0
 34 31  1  0  0  0  0
 32 37  1  0  0  0  0
 33 32  1  0  0  0  0
 34 33  2  0  0  0  0
 38 35  1  0  0  0  0
 37 36  1  6  0  0  0
 38 37  1  0  0  0  0
M  END
>  <cdx:fragmentId>
191

$$$$
