37594.cdx
  Mrv1902 05222410252D          

 29 30  0  0  0  0            999 V2000
    2.8685   -3.3206    0.0000 C   0  0  0  0  0  0  0  0  0  0  0  0
    3.5829   -3.7331    0.0000 C   0  0  0  0  0  0  0  0  0  0  0  0
    4.2974   -3.3206    0.0000 C   0  0  0  0  0  0  0  0  0  0  0  0
   11.5468   -7.5075    0.0000 C   0  0  0  0  0  0  0  0  0  0  0  0
   11.5468   -6.6825    0.0000 C   0  0  0  0  0  0  0  0  0  0  0  0
    7.8698   -3.7331    0.0000 C   0  0  0  0  0  0  0  0  0  0  0  0
    7.1553   -3.3206    0.0000 O   0  0  0  0  0  0  0  0  0  0  0  0
    5.0119   -6.2081    0.0000 C   0  0  0  0  0  0  0  0  0  0  0  0
    5.7263   -5.7956    0.0000 O   0  0  0  0  0  0  0  0  0  0  0  0
    7.2600   -5.0325    0.0000 O   0  0  0  0  0  0  0  0  0  0  0  0
    6.4408   -3.7331    0.0000 C   0  0  0  0  0  0  0  0  0  0  0  0
    5.7263   -3.3206    0.0000 C   0  0  0  0  0  0  0  0  0  0  0  0
    5.0119   -3.7331    0.0000 C   0  0  0  0  0  0  0  0  0  0  0  0
    5.0119   -4.5581    0.0000 C   0  0  0  0  0  0  0  0  0  0  0  0
    5.7263   -4.9706    0.0000 C   0  0  0  0  0  0  0  0  0  0  0  0
    6.4408   -4.5581    0.0000 C   0  0  0  0  0  0  0  0  0  0  0  0
    8.6889   -4.2075    0.0000 O   0  0  0  0  0  0  0  0  0  0  0  0
    8.6889   -5.0325    0.0000 C   0  0  0  0  0  0  0  0  0  0  0  0
    7.9745   -5.4450    0.0000 C   0  0  2  0  0  0  0  0  0  0  0  0
    7.2600   -6.6825    0.0000 O   0  0  0  0  0  0  0  0  0  0  0  0
    7.9745   -6.2700    0.0000 C   0  0  2  0  0  0  0  0  0  0  0  0
   10.8324   -7.9200    0.0000 O   0  0  0  0  0  0  0  0  0  0  0  0
   10.8324   -6.2700    0.0000 O   0  0  0  0  0  0  0  0  0  0  0  0
    9.4034   -6.2700    0.0000 C   0  0  0  0  0  0  0  0  0  0  0  0
    8.6889   -6.6825    0.0000 C   0  0  0  0  0  0  0  0  0  0  0  0
    8.6889   -7.5075    0.0000 C   0  0  0  0  0  0  0  0  0  0  0  0
    9.4034   -7.9200    0.0000 C   0  0  0  0  0  0  0  0  0  0  0  0
   10.1179   -7.5075    0.0000 C   0  0  0  0  0  0  0  0  0  0  0  0
   10.1179   -6.6825    0.0000 C   0  0  0  0  0  0  0  0  0  0  0  0
 16 10  1  0  0  0  0
  2  1  2  0  0  0  0
  3  2  1  0  0  0  0
 13  3  1  0  0  0  0
 22  4  1  0  0  0  0
 23  5  1  0  0  0  0
  7  6  1  0  0  0  0
 11  7  1  0  0  0  0
  9  8  1  0  0  0  0
 15  9  1  0  0  0  0
 19 10  1  6  0  0  0
 11 16  1  0  0  0  0
 12 11  2  0  0  0  0
 13 12  1  0  0  0  0
 14 13  2  0  0  0  0
 15 14  1  0  0  0  0
 16 15  2  0  0  0  0
 18 17  1  0  0  0  0
 19 18  1  0  0  0  0
 21 19  1  0  0  0  0
 21 20  1  1  0  0  0
 25 21  1  0  0  0  0
 28 22  1  0  0  0  0
 29 23  1  0  0  0  0
 24 29  1  0  0  0  0
 25 24  2  0  0  0  0
 26 25  1  0  0  0  0
 27 26  2  0  0  0  0
 28 27  1  0  0  0  0
 29 28  2  0  0  0  0
M  END
>  <cdx:fragmentId>
521

$$$$
