37598.cdx
  Mrv1902 05222410222D          

 46 50  0  0  0  0            999 V2000
    4.8017   -5.4562    0.0000 C   0  0  0  0  0  0  0  0  0  0  0  0
    4.3960   -6.1745    0.0000 C   0  0  0  0  0  0  0  0  0  0  0  0
    4.8152   -6.8850    0.0000 C   0  0  0  0  0  0  0  0  0  0  0  0
    5.6402   -6.8772    0.0000 C   0  0  0  0  0  0  0  0  0  0  0  0
    6.0459   -6.1589    0.0000 C   0  0  0  0  0  0  0  0  0  0  0  0
    5.6267   -5.4484    0.0000 C   0  0  0  0  0  0  0  0  0  0  0  0
    6.8892   -6.1440    0.0000 C   0  0  2  0  0  0  0  0  0  0  0  0
    7.3795   -6.8076    0.0000 O   0  0  0  0  0  0  0  0  0  0  0  0
    8.1620   -6.5464    0.0000 C   0  0  0  0  0  0  0  0  0  0  0  0
    8.1555   -5.7214    0.0000 C   0  0  0  0  0  0  0  0  0  0  0  0
    7.3689   -5.4727    0.0000 C   0  0  1  0  0  0  0  0  0  0  0  0
    8.8797   -6.9532    0.0000 C   0  0  0  0  0  0  0  0  0  0  0  0
    9.5909   -6.5351    0.0000 C   0  0  0  0  0  0  0  0  0  0  0  0
    9.5844   -5.7101    0.0000 C   0  0  0  0  0  0  0  0  0  0  0  0
    8.8666   -5.3033    0.0000 C   0  0  0  0  0  0  0  0  0  0  0  0
    3.5710   -6.1823    0.0000 O   0  0  0  0  0  0  0  0  0  0  0  0
    4.4095   -7.6034    0.0000 O   0  0  0  0  0  0  0  0  0  0  0  0
    3.5474   -7.6034    0.0000 C   0  0  0  0  0  0  0  0  0  0  0  0
    7.1077   -4.6902    0.0000 C   0  0  0  0  0  0  0  0  0  0  0  0
    7.6548   -4.0727    0.0000 O   0  0  0  0  0  0  0  0  0  0  0  0
   10.2955   -5.2919    0.0000 C   0  0  0  0  0  0  0  0  0  0  0  0
   11.0133   -5.6987    0.0000 C   0  0  0  0  0  0  0  0  0  0  0  0
   11.7244   -5.2806    0.0000 C   0  0  0  0  0  0  0  0  0  0  0  0
   12.4422   -5.6874    0.0000 O   0  0  0  0  0  0  0  0  0  0  0  0
    8.8863   -7.7782    0.0000 O   0  0  0  0  0  0  0  0  0  0  0  0
    8.1257   -8.2320    0.0000 C   0  0  2  0  0  0  0  0  0  0  0  0
    7.4014   -7.8371    0.0000 O   0  0  0  0  0  0  0  0  0  0  0  0
    6.6970   -8.2443    0.0000 C   0  0  1  0  0  0  0  0  0  0  0  0
    6.7041   -9.0692    0.0000 C   0  0  2  0  0  0  0  0  0  0  0  0
    7.4154   -9.4642    0.0000 C   0  0  1  0  0  0  0  0  0  0  0  0
    8.1328   -9.0569    0.0000 C   0  0  1  0  0  0  0  0  0  0  0  0
    3.1518   -5.4717    0.0000 C   0  0  2  0  0  0  0  0  0  0  0  0
    3.5507   -4.7496    0.0000 O   0  0  0  0  0  0  0  0  0  0  0  0
    3.1518   -4.0430    0.0000 C   0  0  2  0  0  0  0  0  0  0  0  0
    2.3269   -4.0430    0.0000 C   0  0  1  0  0  0  0  0  0  0  0  0
    1.9280   -4.7496    0.0000 C   0  0  2  0  0  0  0  0  0  0  0  0
    2.3269   -5.4717    0.0000 C   0  0  1  0  0  0  0  0  0  0  0  0
    1.9110   -3.3305    0.0000 O   0  0  0  0  0  0  0  0  0  0  0  0
    8.8476   -9.4689    0.0000 O   0  0  0  0  0  0  0  0  0  0  0  0
    5.9949   -9.4907    0.0000 O   0  0  0  0  0  0  0  0  0  0  0  0
    7.4192  -10.2892    0.0000 O   0  0  0  0  0  0  0  0  0  0  0  0
    5.9807   -7.8351    0.0000 C   0  0  0  0  0  0  0  0  0  0  0  0
    1.9077   -6.1823    0.0000 O   0  0  0  0  0  0  0  0  0  0  0  0
    1.1030   -4.7458    0.0000 O   0  0  0  0  0  0  0  0  0  0  0  0
    3.5677   -3.3305    0.0000 C   0  0  0  0  0  0  0  0  0  0  0  0
    5.2681   -8.2508    0.0000 O   0  0  0  0  0  0  0  0  0  0  0  0
  1  2  2  0  0  0  0
  2  3  1  0  0  0  0
  3  4  2  0  0  0  0
  4  5  1  0  0  0  0
  5  6  2  0  0  0  0
  6  1  1  0  0  0  0
  7  5  1  1  0  0  0
  7  8  1  0  0  0  0
  8  9  1  0  0  0  0
  9 10  2  0  0  0  0
 10 11  1  0  0  0  0
 11  7  1  0  0  0  0
  9 12  1  0  0  0  0
 12 13  2  0  0  0  0
 13 14  1  0  0  0  0
 14 15  2  0  0  0  0
 15 10  1  0  0  0  0
  2 16  1  0  0  0  0
  3 17  1  0  0  0  0
 17 18  1  0  0  0  0
 11 19  1  6  0  0  0
 19 20  1  0  0  0  0
 14 21  1  0  0  0  0
 21 22  1  0  0  0  0
 22 23  1  0  0  0  0
 23 24  1  0  0  0  0
 12 25  1  0  0  0  0
 26 25  1  1  0  0  0
 26 27  1  0  0  0  0
 27 28  1  0  0  0  0
 28 29  1  0  0  0  0
 29 30  1  0  0  0  0
 30 31  1  0  0  0  0
 31 26  1  0  0  0  0
 32 16  1  1  0  0  0
 32 33  1  0  0  0  0
 33 34  1  0  0  0  0
 34 35  1  0  0  0  0
 35 36  1  0  0  0  0
 36 37  1  0  0  0  0
 37 32  1  0  0  0  0
 35 38  1  1  0  0  0
 31 39  1  6  0  0  0
 29 40  1  6  0  0  0
 30 41  1  1  0  0  0
 28 42  1  1  0  0  0
 37 43  1  6  0  0  0
 36 44  1  6  0  0  0
 34 45  1  6  0  0  0
 42 46  1  0  0  0  0
M  END
>  <cdx:fragmentId>
751

$$$$
