37599.cdx
  Mrv1902 05222410212D          

 36 39  0  0  0  0            999 V2000
    6.2813   -7.2017    0.0000 C   0  0  2  0  0  0  0  0  0  0  0  0
    6.7568   -7.8760    0.0000 O   0  0  0  0  0  0  0  0  0  0  0  0
    7.5449   -7.6321    0.0000 C   0  0  0  0  0  0  0  0  0  0  0  0
    7.5566   -6.8072    0.0000 C   0  0  0  0  0  0  0  0  0  0  0  0
    6.7756   -6.5412    0.0000 C   0  0  1  0  0  0  0  0  0  0  0  0
    8.2535   -8.0547    0.0000 C   0  0  0  0  0  0  0  0  0  0  0  0
    8.9737   -7.6523    0.0000 C   0  0  0  0  0  0  0  0  0  0  0  0
    8.9854   -6.8274    0.0000 C   0  0  0  0  0  0  0  0  0  0  0  0
    8.2768   -6.4049    0.0000 C   0  0  0  0  0  0  0  0  0  0  0  0
    6.5318   -5.7531    0.0000 C   0  0  0  0  0  0  0  0  0  0  0  0
    7.0925   -5.1478    0.0000 O   0  0  0  0  0  0  0  0  0  0  0  0
    9.7056   -6.4250    0.0000 C   0  0  0  0  0  0  0  0  0  0  0  0
   10.4142   -6.8476    0.0000 C   0  0  0  0  0  0  0  0  0  0  0  0
   11.1344   -6.4452    0.0000 C   0  0  0  0  0  0  0  0  0  0  0  0
   11.8430   -6.8678    0.0000 O   0  0  0  0  0  0  0  0  0  0  0  0
    8.2418   -8.8796    0.0000 O   0  0  0  0  0  0  0  0  0  0  0  0
    5.4564   -7.1901    0.0000 C   0  0  0  0  0  0  0  0  0  0  0  0
    5.0590   -6.4671    0.0000 C   0  0  0  0  0  0  0  0  0  0  0  0
    4.2341   -6.4671    0.0000 C   0  0  0  0  0  0  0  0  0  0  0  0
    3.8068   -7.1901    0.0000 C   0  0  0  0  0  0  0  0  0  0  0  0
    4.2042   -7.9130    0.0000 C   0  0  0  0  0  0  0  0  0  0  0  0
    5.0291   -7.9130    0.0000 C   0  0  0  0  0  0  0  0  0  0  0  0
    2.9671   -7.1770    0.0000 O   0  0  0  0  0  0  0  0  0  0  0  0
    3.7843   -8.6231    0.0000 O   0  0  0  0  0  0  0  0  0  0  0  0
    2.8599   -8.6231    0.0000 C   0  0  0  0  0  0  0  0  0  0  0  0
    7.5216   -9.2820    0.0000 C   0  0  2  0  0  0  0  0  0  0  0  0
    6.8191   -8.8494    0.0000 O   0  0  0  0  0  0  0  0  0  0  0  0
    6.0932   -9.2416    0.0000 C   0  0  1  0  0  0  0  0  0  0  0  0
    6.0932  -10.0663    0.0000 C   0  0  2  0  0  0  0  0  0  0  0  0
    6.8191  -10.4988    0.0000 C   0  0  1  0  0  0  0  0  0  0  0  0
    7.5216  -10.1066    0.0000 C   0  0  1  0  0  0  0  0  0  0  0  0
    5.3847   -8.8190    0.0000 C   0  0  0  0  0  0  0  0  0  0  0  0
    6.8071  -11.3436    0.0000 O   0  0  0  0  0  0  0  0  0  0  0  0
    8.2328  -10.5241    0.0000 O   0  0  0  0  0  0  0  0  0  0  0  0
    5.3586  -10.4837    0.0000 O   0  0  0  0  0  0  0  0  0  0  0  0
    4.6644   -9.2214    0.0000 O   0  0  0  0  0  0  0  0  0  0  0  0
  1  2  1  0  0  0  0
  2  3  1  0  0  0  0
  3  4  2  0  0  0  0
  4  5  1  0  0  0  0
  5  1  1  0  0  0  0
  3  6  1  0  0  0  0
  6  7  2  0  0  0  0
  7  8  1  0  0  0  0
  8  9  2  0  0  0  0
  9  4  1  0  0  0  0
  5 10  1  6  0  0  0
 10 11  1  0  0  0  0
  8 12  1  0  0  0  0
 12 13  1  0  0  0  0
 13 14  1  0  0  0  0
 14 15  1  0  0  0  0
  6 16  1  0  0  0  0
  1 17  1  1  0  0  0
 17 18  2  0  0  0  0
 18 19  1  0  0  0  0
 19 20  2  0  0  0  0
 20 21  1  0  0  0  0
 21 22  2  0  0  0  0
 22 17  1  0  0  0  0
 20 23  1  0  0  0  0
 21 24  1  0  0  0  0
 24 25  1  0  0  0  0
 26 16  1  1  0  0  0
 26 27  1  0  0  0  0
 27 28  1  0  0  0  0
 28 29  1  0  0  0  0
 29 30  1  0  0  0  0
 30 31  1  0  0  0  0
 31 26  1  0  0  0  0
 28 32  1  1  0  0  0
 30 33  1  1  0  0  0
 31 34  1  6  0  0  0
 29 35  1  6  0  0  0
 32 36  1  0  0  0  0
M  END
>  <cdx:fragmentId>
751

$$$$
