37602.cdx
  Mrv1902 05222410222D          

 37 39  0  0  0  0            999 V2000
    9.0418  -10.1510    0.0000 C   0  0  0  0  0  0  0  0  0  0  0  0
    9.7557  -10.5646    0.0000 C   0  0  0  0  0  0  0  0  0  0  0  0
   10.4708  -10.1532    0.0000 C   0  0  0  0  0  0  0  0  0  0  0  0
   10.4720   -9.3282    0.0000 C   0  0  0  0  0  0  0  0  0  0  0  0
    9.7582   -8.9146    0.0000 C   0  0  0  0  0  0  0  0  0  0  0  0
    9.0431   -9.3260    0.0000 C   0  0  0  0  0  0  0  0  0  0  0  0
    4.0436  -10.5657    0.0000 O   0  0  0  0  0  0  0  0  0  0  0  0
    3.3289  -10.1537    0.0000 C   0  0  2  0  0  0  0  0  0  0  0  0
    3.3282   -9.3287    0.0000 O   0  0  0  0  0  0  0  0  0  0  0  0
    2.6135   -8.9167    0.0000 C   0  0  1  0  0  0  0  0  0  0  0  0
    1.8993   -9.3298    0.0000 C   0  0  2  0  0  0  0  0  0  0  0  0
    1.8999  -10.1548    0.0000 C   0  0  1  0  0  0  0  0  0  0  0  0
    2.6147  -10.5667    0.0000 C   0  0  1  0  0  0  0  0  0  0  0  0
    2.6128   -8.0917    0.0000 C   0  0  0  0  0  0  0  0  0  0  0  0
    1.1858  -10.5678    0.0000 O   0  0  0  0  0  0  0  0  0  0  0  0
    2.6153  -11.3917    0.0000 O   0  0  0  0  0  0  0  0  0  0  0  0
    1.1845   -8.9178    0.0000 O   0  0  0  0  0  0  0  0  0  0  0  0
   11.1846  -10.5667    0.0000 C   0  0  0  0  0  0  0  0  0  0  0  0
   11.8997  -10.1553    0.0000 C   0  0  0  0  0  0  0  0  0  0  0  0
   12.6136  -10.5689    0.0000 C   0  0  0  0  0  0  0  0  0  0  0  0
   13.3287  -10.1574    0.0000 O   0  0  0  0  0  0  0  0  0  0  0  0
    1.8981   -7.6798    0.0000 O   0  0  0  0  0  0  0  0  0  0  0  0
    6.8997   -8.0885    0.0000 O   0  0  0  0  0  0  0  0  0  0  0  0
    4.0418   -8.0907    0.0000 C   0  0  0  0  0  0  0  0  0  0  0  0
    4.0424   -8.9157    0.0000 O   0  0  0  0  0  0  0  0  0  0  0  0
    9.7594   -8.0896    0.0000 O   0  0  0  0  0  0  0  0  0  0  0  0
    5.4713   -8.9146    0.0000 C   0  0  0  0  0  0  0  0  0  0  0  0
    4.7572   -9.3276    0.0000 C   0  0  0  0  0  0  0  0  0  0  0  0
    4.7578  -10.1526    0.0000 C   0  0  0  0  0  0  0  0  0  0  0  0
    5.4726  -10.5646    0.0000 C   0  0  0  0  0  0  0  0  0  0  0  0
    6.9003   -8.9135    0.0000 C   0  0  1  0  0  0  0  0  0  0  0  0
    6.1861   -9.3266    0.0000 C   0  0  0  0  0  0  0  0  0  0  0  0
    6.1867  -10.1516    0.0000 C   0  0  0  0  0  0  0  0  0  0  0  0
    6.9015  -10.5635    0.0000 O   0  0  0  0  0  0  0  0  0  0  0  0
    8.3292   -8.9124    0.0000 O   0  0  0  0  0  0  0  0  0  0  0  0
    7.6151   -9.3255    0.0000 C   0  0  2  0  0  0  0  0  0  0  0  0
    7.6157  -10.1505    0.0000 C   0  0  0  0  0  0  0  0  0  0  0  0
  1  2  2  0  0  0  0
  2  3  1  0  0  0  0
  3  4  2  0  0  0  0
  4  5  1  0  0  0  0
  5  6  2  0  0  0  0
  6  1  1  0  0  0  0
  8  7  1  1  0  0  0
 35  6  1  0  0  0  0
  8  9  1  0  0  0  0
  9 10  1  0  0  0  0
 10 11  1  0  0  0  0
 11 12  1  0  0  0  0
 12 13  1  0  0  0  0
 13  8  1  0  0  0  0
 10 14  1  1  0  0  0
 12 15  1  1  0  0  0
 13 16  1  6  0  0  0
 11 17  1  6  0  0  0
  3 18  1  0  0  0  0
 18 19  1  0  0  0  0
 19 20  1  0  0  0  0
 20 21  1  0  0  0  0
 31 23  1  6  0  0  0
 25 24  1  0  0  0  0
 28 25  1  0  0  0  0
 29  7  1  0  0  0  0
  5 26  1  0  0  0  0
 14 22  1  0  0  0  0
 27 32  1  0  0  0  0
 28 27  2  0  0  0  0
 29 28  1  0  0  0  0
 30 29  2  0  0  0  0
 33 30  1  0  0  0  0
 31 36  1  0  0  0  0
 32 31  1  0  0  0  0
 33 32  2  0  0  0  0
 37 34  1  0  0  0  0
 36 35  1  6  0  0  0
 37 36  1  0  0  0  0
M  END
>  <cdx:fragmentId>
191

$$$$
