37604.cdx
  Mrv1902 05222410212D          

 35 38  0  0  0  0            999 V2000
    4.3225   -8.8000    0.0000 O   0  0  0  0  0  0  0  0  0  0  0  0
    4.2333  -10.2289    0.0000 C   0  0  0  0  0  0  0  0  0  0  0  0
    5.1475  -10.2289    0.0000 O   0  0  0  0  0  0  0  0  0  0  0  0
    6.3850   -8.0855    0.0000 C   0  0  0  0  0  0  0  0  0  0  0  0
    5.5600   -8.0855    0.0000 C   0  0  0  0  0  0  0  0  0  0  0  0
    5.1475   -8.8000    0.0000 C   0  0  0  0  0  0  0  0  0  0  0  0
    5.5600   -9.5145    0.0000 C   0  0  0  0  0  0  0  0  0  0  0  0
    6.3850   -9.5145    0.0000 C   0  0  0  0  0  0  0  0  0  0  0  0
    6.7975   -8.8000    0.0000 C   0  0  0  0  0  0  0  0  0  0  0  0
    8.4359   -6.7646    0.0000 O   0  0  0  0  0  0  0  0  0  0  0  0
    7.8525   -7.3479    0.0000 C   0  0  0  0  0  0  0  0  0  0  0  0
    9.6065  -10.4500    0.0000 O   0  0  0  0  0  0  0  0  0  0  0  0
   13.1789   -8.3875    0.0000 O   0  0  0  0  0  0  0  0  0  0  0  0
   12.4644   -7.9750    0.0000 C   0  0  0  0  0  0  0  0  0  0  0  0
   11.7500   -8.3875    0.0000 C   0  0  0  0  0  0  0  0  0  0  0  0
   11.0355   -7.9750    0.0000 C   0  0  0  0  0  0  0  0  0  0  0  0
    8.1075   -8.1326    0.0000 C   0  0  1  0  0  0  0  0  0  0  0  0
    7.6225   -8.8000    0.0000 C   0  0  1  0  0  0  0  0  0  0  0  0
    8.1075   -9.4674    0.0000 O   0  0  0  0  0  0  0  0  0  0  0  0
    9.6065   -7.9750    0.0000 C   0  0  0  0  0  0  0  0  0  0  0  0
    8.8921   -8.3875    0.0000 C   0  0  0  0  0  0  0  0  0  0  0  0
    8.8921   -9.2125    0.0000 C   0  0  0  0  0  0  0  0  0  0  0  0
    9.6065   -9.6250    0.0000 C   0  0  0  0  0  0  0  0  0  0  0  0
   10.3210   -9.2125    0.0000 C   0  0  0  0  0  0  0  0  0  0  0  0
   10.3210   -8.3875    0.0000 C   0  0  0  0  0  0  0  0  0  0  0  0
    8.2223   -5.9677    0.0000 C   0  0  2  0  0  0  0  0  0  0  0  0
    8.8057   -5.3843    0.0000 O   0  0  0  0  0  0  0  0  0  0  0  0
    8.5922   -4.5874    0.0000 C   0  0  2  0  0  0  0  0  0  0  0  0
    7.7953   -4.3739    0.0000 C   0  0  1  0  0  0  0  0  0  0  0  0
    7.2119   -4.9573    0.0000 C   0  0  2  0  0  0  0  0  0  0  0  0
    7.4255   -5.7542    0.0000 C   0  0  1  0  0  0  0  0  0  0  0  0
    7.5818   -3.5770    0.0000 O   0  0  0  0  0  0  0  0  0  0  0  0
    9.1756   -4.0041    0.0000 C   0  0  0  0  0  0  0  0  0  0  0  0
    6.4150   -4.7437    0.0000 O   0  0  0  0  0  0  0  0  0  0  0  0
    6.8421   -6.3375    0.0000 O   0  0  0  0  0  0  0  0  0  0  0  0
  3  2  1  0  0  0  0
  7  3  1  0  0  0  0
  6  1  1  0  0  0  0
  4  9  1  0  0  0  0
  5  4  2  0  0  0  0
  6  5  1  0  0  0  0
  7  6  2  0  0  0  0
  8  7  1  0  0  0  0
  9  8  2  0  0  0  0
 18  9  1  1  0  0  0
 11 10  1  0  0  0  0
 17 11  1  6  0  0  0
 23 12  1  0  0  0  0
 14 13  1  0  0  0  0
 15 14  1  0  0  0  0
 16 15  1  0  0  0  0
 25 16  1  0  0  0  0
 17 21  1  0  0  0  0
 18 17  1  0  0  0  0
 19 18  1  0  0  0  0
 22 19  1  0  0  0  0
 20 25  1  0  0  0  0
 21 20  2  0  0  0  0
 22 21  1  0  0  0  0
 23 22  2  0  0  0  0
 24 23  1  0  0  0  0
 25 24  2  0  0  0  0
 26 10  1  1  0  0  0
 26 27  1  0  0  0  0
 27 28  1  0  0  0  0
 28 29  1  0  0  0  0
 29 30  1  0  0  0  0
 30 31  1  0  0  0  0
 31 26  1  0  0  0  0
 29 32  1  1  0  0  0
 28 33  1  6  0  0  0
 30 34  1  6  0  0  0
 31 35  1  6  0  0  0
M  END
>  <cdx:fragmentId>
5

$$$$
