37608.cdx
  Mrv1902 05222410242D          

 42 44  0  0  0  0            999 V2000
    2.0768   -4.6544    0.0000 C   0  0  1  0  0  0  0  0  0  0  0  0
    2.0768   -5.4794    0.0000 C   0  0  1  0  0  0  0  0  0  0  0  0
    2.7912   -5.8919    0.0000 C   0  0  2  0  0  0  0  0  0  0  0  0
    3.5057   -5.4794    0.0000 C   0  0  0  0  0  0  0  0  0  0  0  0
    3.5057   -4.6544    0.0000 O   0  0  0  0  0  0  0  0  0  0  0  0
    2.7912   -4.2419    0.0000 C   0  0  2  0  0  0  0  0  0  0  0  0
    2.7912   -3.4169    0.0000 C   0  0  0  0  0  0  0  0  0  0  0  0
    1.3623   -4.2419    0.0000 O   0  0  0  0  0  0  0  0  0  0  0  0
    1.3623   -5.8919    0.0000 O   0  0  0  0  0  0  0  0  0  0  0  0
    2.7913   -6.7169    0.0000 O   0  0  0  0  0  0  0  0  0  0  0  0
    4.2202   -5.8919    0.0000 O   0  0  0  0  0  0  0  0  0  0  0  0
    4.9347   -5.4794    0.0000 C   0  0  0  0  0  0  0  0  0  0  0  0
    5.6491   -5.8919    0.0000 C   0  0  0  0  0  0  0  0  0  0  0  0
    6.3636   -5.4794    0.0000 C   0  0  0  0  0  0  0  0  0  0  0  0
    6.3636   -4.6544    0.0000 C   0  0  0  0  0  0  0  0  0  0  0  0
    5.6491   -4.2419    0.0000 C   0  0  0  0  0  0  0  0  0  0  0  0
    4.9347   -4.6544    0.0000 C   0  0  0  0  0  0  0  0  0  0  0  0
    2.0768   -3.0044    0.0000 O   0  0  0  0  0  0  0  0  0  0  0  0
    4.2202   -4.2419    0.0000 O   0  0  0  0  0  0  0  0  0  0  0  0
    4.2202   -3.4169    0.0000 C   0  0  0  0  0  0  0  0  0  0  0  0
    5.6491   -6.7169    0.0000 O   0  0  0  0  0  0  0  0  0  0  0  0
    6.3636   -7.1294    0.0000 C   0  0  0  0  0  0  0  0  0  0  0  0
    7.0781   -4.2419    0.0000 C   0  0  1  0  0  0  0  0  0  0  0  0
    7.7925   -4.6544    0.0000 C   0  0  2  0  0  0  0  0  0  0  0  0
    8.5070   -4.2419    0.0000 O   0  0  0  0  0  0  0  0  0  0  0  0
    9.2410   -4.6468    0.0000 C   0  0  0  0  0  0  0  0  0  0  0  0
    7.0781   -3.4169    0.0000 O   0  0  0  0  0  0  0  0  0  0  0  0
    7.7925   -5.4794    0.0000 C   0  0  0  0  0  0  0  0  0  0  0  0
    7.0781   -5.8919    0.0000 O   0  0  0  0  0  0  0  0  0  0  0  0
    9.2209   -5.4715    0.0000 C   0  0  0  0  0  0  0  0  0  0  0  0
    9.9251   -5.9013    0.0000 C   0  0  0  0  0  0  0  0  0  0  0  0
   10.6494   -5.5064    0.0000 C   0  0  0  0  0  0  0  0  0  0  0  0
   10.6695   -4.6816    0.0000 C   0  0  0  0  0  0  0  0  0  0  0  0
    9.9653   -4.2518    0.0000 C   0  0  0  0  0  0  0  0  0  0  0  0
    9.9825   -3.4925    0.0000 O   0  0  0  0  0  0  0  0  0  0  0  0
   10.5659   -2.9091    0.0000 C   0  0  0  0  0  0  0  0  0  0  0  0
    8.6075   -5.9675    0.0000 O   0  0  0  0  0  0  0  0  0  0  0  0
    8.6075   -6.7925    0.0000 C   0  0  0  0  0  0  0  0  0  0  0  0
   11.3536   -5.9362    0.0000 C   0  0  0  0  0  0  0  0  0  0  0  0
   12.0779   -5.5412    0.0000 C   0  0  0  0  0  0  0  0  0  0  0  0
   12.7821   -5.9710    0.0000 C   0  0  0  0  0  0  0  0  0  0  0  0
   13.5064   -5.5760    0.0000 O   0  0  0  0  0  0  0  0  0  0  0  0
  1  2  1  0  0  0  0
  2  3  1  0  0  0  0
  3  4  1  0  0  0  0
  4  5  1  0  0  0  0
  5  6  1  0  0  0  0
  6  1  1  0  0  0  0
  6  7  1  1  0  0  0
  1  8  1  6  0  0  0
  2  9  1  1  0  0  0
  3 10  1  6  0  0  0
  4 11  1  0  0  0  0
 11 12  1  0  0  0  0
 12 13  2  0  0  0  0
 13 14  1  0  0  0  0
 14 15  2  0  0  0  0
 15 16  1  0  0  0  0
 16 17  2  0  0  0  0
 17 12  1  0  0  0  0
  7 18  1  0  0  0  0
 17 19  1  0  0  0  0
 19 20  1  0  0  0  0
 13 21  1  0  0  0  0
 21 22  1  0  0  0  0
 15 23  1  0  0  0  0
 23 24  1  0  0  0  0
 24 25  1  0  0  0  0
 23 27  1  6  0  0  0
 24 28  1  6  0  0  0
 28 29  1  0  0  0  0
 26 30  2  0  0  0  0
 30 31  1  0  0  0  0
 31 32  2  0  0  0  0
 32 33  1  0  0  0  0
 33 34  2  0  0  0  0
 34 26  1  0  0  0  0
 34 35  1  0  0  0  0
 35 36  1  0  0  0  0
 30 37  1  0  0  0  0
 37 38  1  0  0  0  0
 32 39  1  0  0  0  0
 39 40  2  0  0  0  0
 40 41  1  0  0  0  0
 41 42  1  0  0  0  0
 26 25  1  0  0  0  0
M  END
>  <cdx:fragmentId>
899

$$$$
