37601.cdx
  Mrv1902 05222410222D          

 37 39  0  0  0  0            999 V2000
    7.2369  -11.6144    0.0000 C   0  0  0  0  0  0  0  0  0  0  0  0
    7.9501  -12.0291    0.0000 C   0  0  0  0  0  0  0  0  0  0  0  0
    8.6659  -11.6188    0.0000 C   0  0  0  0  0  0  0  0  0  0  0  0
    8.6684  -10.7938    0.0000 C   0  0  0  0  0  0  0  0  0  0  0  0
    7.9552  -10.3791    0.0000 C   0  0  0  0  0  0  0  0  0  0  0  0
    7.2395  -10.7894    0.0000 C   0  0  0  0  0  0  0  0  0  0  0  0
    2.2381  -12.0210    0.0000 O   0  0  0  0  0  0  0  0  0  0  0  0
    9.3791  -12.0335    0.0000 C   0  0  0  0  0  0  0  0  0  0  0  0
   10.0948  -11.6232    0.0000 C   0  0  0  0  0  0  0  0  0  0  0  0
   10.8080  -12.0380    0.0000 C   0  0  0  0  0  0  0  0  0  0  0  0
   11.5237  -11.6277    0.0000 O   0  0  0  0  0  0  0  0  0  0  0  0
    5.0981   -9.5485    0.0000 O   0  0  0  0  0  0  0  0  0  0  0  0
    1.4752  -10.8123    0.0000 C   0  0  0  0  0  0  0  0  0  0  0  0
    2.2395  -10.3710    0.0000 O   0  0  0  0  0  0  0  0  0  0  0  0
    7.9578   -9.5541    0.0000 O   0  0  0  0  0  0  0  0  0  0  0  0
    3.6684  -10.3723    0.0000 C   0  0  0  0  0  0  0  0  0  0  0  0
    2.9536  -10.7842    0.0000 C   0  0  0  0  0  0  0  0  0  0  0  0
    2.9529  -11.6092    0.0000 C   0  0  0  0  0  0  0  0  0  0  0  0
    3.6670  -12.0223    0.0000 C   0  0  0  0  0  0  0  0  0  0  0  0
    5.0974  -10.3735    0.0000 C   0  0  1  0  0  0  0  0  0  0  0  0
    4.3825  -10.7854    0.0000 C   0  0  0  0  0  0  0  0  0  0  0  0
    4.3818  -11.6104    0.0000 C   0  0  0  0  0  0  0  0  0  0  0  0
    5.0960  -12.0235    0.0000 O   0  0  0  0  0  0  0  0  0  0  0  0
    6.5263  -10.3747    0.0000 O   0  0  0  0  0  0  0  0  0  0  0  0
    5.8115  -10.7866    0.0000 C   0  0  2  0  0  0  0  0  0  0  0  0
    5.8108  -11.6116    0.0000 C   0  0  0  0  0  0  0  0  0  0  0  0
    8.6735   -9.1438    0.0000 C   0  0  2  0  0  0  0  0  0  0  0  0
    9.3811   -9.5681    0.0000 O   0  0  0  0  0  0  0  0  0  0  0  0
   10.1023   -9.1674    0.0000 C   0  0  1  0  0  0  0  0  0  0  0  0
   10.0938   -8.3428    0.0000 C   0  0  2  0  0  0  0  0  0  0  0  0
    9.3641   -7.9188    0.0000 C   0  0  1  0  0  0  0  0  0  0  0  0
    8.6650   -8.3192    0.0000 C   0  0  1  0  0  0  0  0  0  0  0  0
   10.8155   -9.5821    0.0000 C   0  0  0  0  0  0  0  0  0  0  0  0
    9.3667   -7.0748    0.0000 O   0  0  0  0  0  0  0  0  0  0  0  0
    7.9494   -7.9093    0.0000 O   0  0  0  0  0  0  0  0  0  0  0  0
   10.8231   -7.9180    0.0000 O   0  0  0  0  0  0  0  0  0  0  0  0
   11.5312   -9.1719    0.0000 O   0  0  0  0  0  0  0  0  0  0  0  0
  1  2  2  0  0  0  0
  2  3  1  0  0  0  0
  3  4  2  0  0  0  0
  4  5  1  0  0  0  0
  5  6  2  0  0  0  0
  6  1  1  0  0  0  0
 24  6  1  0  0  0  0
  3  8  1  0  0  0  0
  8  9  1  0  0  0  0
  9 10  1  0  0  0  0
 10 11  1  0  0  0  0
 20 12  1  6  0  0  0
 14 13  1  0  0  0  0
 17 14  1  0  0  0  0
 18  7  1  0  0  0  0
  5 15  1  0  0  0  0
 16 21  1  0  0  0  0
 17 16  2  0  0  0  0
 18 17  1  0  0  0  0
 19 18  2  0  0  0  0
 22 19  1  0  0  0  0
 20 25  1  0  0  0  0
 21 20  1  0  0  0  0
 22 21  2  0  0  0  0
 26 23  1  0  0  0  0
 25 24  1  6  0  0  0
 26 25  1  0  0  0  0
 27 15  1  1  0  0  0
 27 28  1  0  0  0  0
 28 29  1  0  0  0  0
 29 30  1  0  0  0  0
 30 31  1  0  0  0  0
 31 32  1  0  0  0  0
 32 27  1  0  0  0  0
 29 33  1  1  0  0  0
 31 34  1  1  0  0  0
 32 35  1  6  0  0  0
 30 36  1  6  0  0  0
 33 37  1  0  0  0  0
M  END
>  <cdx:fragmentId>
191

$$$$
