37607.cdx
  Mrv1902 05222410202D          

 41 44  0  0  0  0            999 V2000
    8.1767   -3.3285    0.0000 O   0  0  0  0  0  0  0  0  0  0  0  0
    8.3997   -4.1228    0.0000 C   0  0  0  0  0  0  0  0  0  0  0  0
    7.8233   -4.7131    0.0000 C   0  0  0  0  0  0  0  0  0  0  0  0
    8.0463   -5.5074    0.0000 C   0  0  0  0  0  0  0  0  0  0  0  0
    8.8456   -5.7114    0.0000 C   0  0  0  0  0  0  0  0  0  0  0  0
    9.4220   -5.1212    0.0000 C   0  0  0  0  0  0  0  0  0  0  0  0
    9.1990   -4.3269    0.0000 C   0  0  0  0  0  0  0  0  0  0  0  0
    9.0686   -6.5057    0.0000 C   0  0  0  0  0  0  0  0  0  0  0  0
    8.6694   -7.0462    0.0000 C   0  0  1  0  0  0  0  0  0  0  0  0
    7.8444   -7.0409    0.0000 C   0  0  0  0  0  0  0  0  0  0  0  0
    7.5844   -7.8239    0.0000 O   0  0  0  0  0  0  0  0  0  0  0  0
    8.2488   -8.3131    0.0000 C   0  0  1  0  0  0  0  0  0  0  0  0
    8.8923   -7.8401    0.0000 C   0  0  1  0  0  0  0  0  0  0  0  0
    9.6723   -8.1087    0.0000 C   0  0  0  0  0  0  0  0  0  0  0  0
    8.2484   -9.1381    0.0000 C   0  0  0  0  0  0  0  0  0  0  0  0
    7.5338   -9.5503    0.0000 C   0  0  0  0  0  0  0  0  0  0  0  0
    7.5334  -10.3753    0.0000 C   0  0  0  0  0  0  0  0  0  0  0  0
    8.2477  -10.7881    0.0000 C   0  0  0  0  0  0  0  0  0  0  0  0
    8.9624  -10.3759    0.0000 C   0  0  0  0  0  0  0  0  0  0  0  0
    8.9627   -9.5509    0.0000 C   0  0  0  0  0  0  0  0  0  0  0  0
    8.2474  -11.6131    0.0000 O   0  0  0  0  0  0  0  0  0  0  0  0
    9.6767  -10.7887    0.0000 O   0  0  0  0  0  0  0  0  0  0  0  0
   10.3913  -10.3765    0.0000 C   0  0  0  0  0  0  0  0  0  0  0  0
    6.8188  -10.7875    0.0000 O   0  0  0  0  0  0  0  0  0  0  0  0
    7.0239   -4.5090    0.0000 O   0  0  0  0  0  0  0  0  0  0  0  0
    9.7754   -3.7366    0.0000 O   0  0  0  0  0  0  0  0  0  0  0  0
   10.5748   -3.9407    0.0000 C   0  0  0  0  0  0  0  0  0  0  0  0
   10.2949   -7.5674    0.0000 O   0  0  0  0  0  0  0  0  0  0  0  0
    6.1045  -10.3747    0.0000 C   0  0  0  0  0  0  0  0  0  0  0  0
    6.4475   -5.0993    0.0000 C   0  0  0  0  0  0  0  0  0  0  0  0
    6.1027  -12.0563    0.0000 C   0  0  2  0  0  0  0  0  0  0  0  0
    6.1151  -12.8812    0.0000 C   0  0  2  0  0  0  0  0  0  0  0  0
    6.8357  -13.2829    0.0000 C   0  0  1  0  0  0  0  0  0  0  0  0
    7.5439  -12.8597    0.0000 C   0  0  2  0  0  0  0  0  0  0  0  0
    7.5314  -12.0348    0.0000 C   0  0  1  0  0  0  0  0  0  0  0  0
    6.8108  -11.6331    0.0000 O   0  0  0  0  0  0  0  0  0  0  0  0
    6.8481  -14.1078    0.0000 O   0  0  0  0  0  0  0  0  0  0  0  0
    5.3821  -11.6546    0.0000 C   0  0  0  0  0  0  0  0  0  0  0  0
    5.4069  -13.3044    0.0000 O   0  0  0  0  0  0  0  0  0  0  0  0
    8.2645  -13.2614    0.0000 O   0  0  0  0  0  0  0  0  0  0  0  0
    4.6739  -12.0778    0.0000 O   0  0  0  0  0  0  0  0  0  0  0  0
  1  2  1  0  0  0  0
  2  3  2  0  0  0  0
  3  4  1  0  0  0  0
  4  5  2  0  0  0  0
  5  6  1  0  0  0  0
  6  7  2  0  0  0  0
  7  2  1  0  0  0  0
  5  8  1  0  0  0  0
  9  8  1  6  0  0  0
  9 10  1  0  0  0  0
 10 11  1  0  0  0  0
 11 12  1  0  0  0  0
 12 13  1  0  0  0  0
 13  9  1  0  0  0  0
 13 14  1  6  0  0  0
 12 15  1  1  0  0  0
 15 16  2  0  0  0  0
 16 17  1  0  0  0  0
 17 18  2  0  0  0  0
 18 19  1  0  0  0  0
 19 20  2  0  0  0  0
 20 15  1  0  0  0  0
 18 21  1  0  0  0  0
 19 22  1  0  0  0  0
 22 23  1  0  0  0  0
 17 24  1  0  0  0  0
  3 25  1  0  0  0  0
  7 26  1  0  0  0  0
 26 27  1  0  0  0  0
 14 28  1  0  0  0  0
 24 29  1  0  0  0  0
 25 30  1  0  0  0  0
 31 32  1  0  0  0  0
 32 33  1  0  0  0  0
 33 34  1  0  0  0  0
 34 35  1  0  0  0  0
 35 36  1  0  0  0  0
 36 31  1  0  0  0  0
 33 37  1  1  0  0  0
 31 38  1  1  0  0  0
 32 39  1  6  0  0  0
 34 40  1  6  0  0  0
 38 41  1  0  0  0  0
 35 21  1  1  0  0  0
M  END
>  <cdx:fragmentId>
472

$$$$
