376006.cdx
  Mrv1902 05222410272D          

 11 12  0  0  0  0            999 V2000
    7.5316   -5.8934    0.0000 C   0  0  0  0  0  0  0  0  0  0  0  0
    8.4150   -6.2150    0.0000 C   0  0  0  0  0  0  0  0  0  0  0  0
    8.2292   -6.9872    0.0000 C   0  0  0  0  0  0  0  0  0  0  0  0
    7.3425   -6.5725    0.0000 C   0  0  0  0  0  0  0  0  0  0  0  0
    6.5175   -7.0125    0.0000 C   0  0  0  0  0  0  0  0  0  0  0  0
    6.4350   -6.3250    0.0000 C   0  0  0  0  0  0  0  0  0  0  0  0
    7.0400   -5.0875    0.0000 C   0  0  0  0  0  0  0  0  0  0  0  0
    9.1295   -5.8025    0.0000 O   0  0  0  0  0  0  0  0  0  0  0  0
    5.7205   -5.9125    0.0000 C   0  0  0  0  0  0  0  0  0  0  0  0
    6.4215   -7.8550    0.0000 C   0  0  0  0  0  0  0  0  0  0  0  0
    5.8030   -7.4250    0.0000 C   0  0  0  0  0  0  0  0  0  0  0  0
  1  2  1  0  0  0  0
  2  3  1  0  0  0  0
  3  4  1  0  0  0  0
  4  5  1  0  0  0  0
  5  6  1  0  0  0  0
  1  6  1  0  0  0  0
  1  7  1  0  0  0  0
  7  4  1  0  0  0  0
  2  8  2  0  0  0  0
  6  9  1  0  0  0  0
  5 10  1  0  0  0  0
  5 11  1  0  0  0  0
M  END
>  <cdx:fragmentId>
2563

$$$$
