37617.cdx
  Mrv1902 05222410232D          

 34 36  0  0  0  0            999 V2000
    8.9587   -3.9669    0.0000 C   0  0  0  0  0  0  0  0  0  0  0  0
    8.9587   -4.7919    0.0000 C   0  0  0  0  0  0  0  0  0  0  0  0
    9.6731   -5.2044    0.0000 C   0  0  0  0  0  0  0  0  0  0  0  0
   10.3876   -4.7919    0.0000 C   0  0  0  0  0  0  0  0  0  0  0  0
   10.3876   -3.9669    0.0000 C   0  0  0  0  0  0  0  0  0  0  0  0
    9.6731   -3.5544    0.0000 C   0  0  0  0  0  0  0  0  0  0  0  0
    9.6731   -2.7294    0.0000 O   0  0  0  0  0  0  0  0  0  0  0  0
    9.6731   -6.0294    0.0000 C   0  0  0  0  0  0  0  0  0  0  0  0
    8.9587   -6.4419    0.0000 C   0  0  0  0  0  0  0  0  0  0  0  0
    8.9587   -7.2669    0.0000 C   0  0  2  0  0  0  0  0  0  0  0  0
    9.6731   -7.6794    0.0000 C   0  0  0  0  0  0  0  0  0  0  0  0
    9.6617   -8.5239    0.0000 O   0  0  0  0  0  0  0  0  0  0  0  0
    9.6391  -10.1737    0.0000 O   0  0  0  0  0  0  0  0  0  0  0  0
    8.1990  -10.9791    0.0000 O   0  0  0  0  0  0  0  0  0  0  0  0
    2.4950  -10.0758    0.0000 O   0  0  0  0  0  0  0  0  0  0  0  0
    2.5176   -8.4260    0.0000 O   0  0  0  0  0  0  0  0  0  0  0  0
    3.9578   -7.6206    0.0000 O   0  0  0  0  0  0  0  0  0  0  0  0
    4.6552   -8.8678    0.0000 C   0  0  0  0  0  0  0  0  0  0  0  0
    3.9465   -8.4456    0.0000 C   0  0  0  0  0  0  0  0  0  0  0  0
    3.2264   -8.8482    0.0000 C   0  0  0  0  0  0  0  0  0  0  0  0
    3.2151   -9.6731    0.0000 C   0  0  0  0  0  0  0  0  0  0  0  0
    3.9238  -10.0954    0.0000 C   0  0  0  0  0  0  0  0  0  0  0  0
    5.3413  -10.9399    0.0000 O   0  0  0  0  0  0  0  0  0  0  0  0
    4.6439   -9.6927    0.0000 C   0  0  0  0  0  0  0  0  0  0  0  0
    5.3526  -10.1150    0.0000 C   0  0  0  0  0  0  0  0  0  0  0  0
    6.0727   -9.7123    0.0000 O   0  0  0  0  0  0  0  0  0  0  0  0
    6.7815  -10.1346    0.0000 C   0  0  0  0  0  0  0  0  0  0  0  0
    7.5128   -8.9070    0.0000 O   0  0  0  0  0  0  0  0  0  0  0  0
    7.5015   -9.7319    0.0000 C   0  0  1  0  0  0  0  0  0  0  0  0
    8.2103  -10.1541    0.0000 C   0  0  2  0  0  0  0  0  0  0  0  0
    8.9303   -9.7515    0.0000 C   0  0  1  0  0  0  0  0  0  0  0  0
    8.9416   -8.9265    0.0000 C   0  0  2  0  0  0  0  0  0  0  0  0
    8.2329   -8.5043    0.0000 C   0  0  2  0  0  0  0  0  0  0  0  0
    8.2442   -7.6794    0.0000 O   0  0  0  0  0  0  0  0  0  0  0  0
  1  2  2  0  0  0  0
  2  3  1  0  0  0  0
  3  4  2  0  0  0  0
  4  5  1  0  0  0  0
  5  6  2  0  0  0  0
  6  1  1  0  0  0  0
  6  7  1  0  0  0  0
  3  8  1  0  0  0  0
  8  9  1  0  0  0  0
  9 10  1  0  0  0  0
 32 12  1  6  0  0  0
 10 34  1  6  0  0  0
 10 11  1  0  0  0  0
 31 13  1  1  0  0  0
 30 14  1  6  0  0  0
 21 15  1  0  0  0  0
 20 16  1  0  0  0  0
 19 17  1  0  0  0  0
 18 24  1  0  0  0  0
 19 18  2  0  0  0  0
 20 19  1  0  0  0  0
 21 20  2  0  0  0  0
 22 21  1  0  0  0  0
 24 22  2  0  0  0  0
 25 23  2  0  0  0  0
 25 24  1  0  0  0  0
 26 25  1  0  0  0  0
 27 26  1  0  0  0  0
 29 27  1  1  0  0  0
 28 33  1  0  0  0  0
 29 28  1  0  0  0  0
 30 29  1  0  0  0  0
 31 30  1  0  0  0  0
 32 31  1  0  0  0  0
 33 32  1  0  0  0  0
 33 34  1  1  0  0  0
M  END
>  <cdx:fragmentId>
1661

$$$$
