15376167.cdx
  Mrv1902 05222410262D          

 19 18  0  0  0  0            999 V2000
   12.9840  -15.1107    0.0000 C   0  0  0  0  0  0  0  0  0  0  0  0
   12.2695  -14.6982    0.0000 C   0  0  0  0  0  0  0  0  0  0  0  0
   11.5551  -15.1107    0.0000 C   0  0  0  0  0  0  0  0  0  0  0  0
   10.8406  -14.6982    0.0000 C   0  0  0  0  0  0  0  0  0  0  0  0
   10.1261  -15.1107    0.0000 C   0  0  0  0  0  0  0  0  0  0  0  0
    9.4117  -14.6982    0.0000 C   0  0  0  0  0  0  0  0  0  0  0  0
    8.6972  -15.1107    0.0000 C   0  0  0  0  0  0  0  0  0  0  0  0
    7.9827  -14.6982    0.0000 C   0  0  0  0  0  0  0  0  0  0  0  0
    7.2682  -15.1107    0.0000 C   0  0  0  0  0  0  0  0  0  0  0  0
    6.5538  -14.6982    0.0000 C   0  0  0  0  0  0  0  0  0  0  0  0
    5.8393  -15.1107    0.0000 C   0  0  0  0  0  0  0  0  0  0  0  0
    5.1248  -14.6982    0.0000 C   0  0  0  0  0  0  0  0  0  0  0  0
    4.4104  -15.1107    0.0000 C   0  0  0  0  0  0  0  0  0  0  0  0
    3.6959  -14.6982    0.0000 C   0  0  0  0  0  0  0  0  0  0  0  0
    2.9814  -15.1107    0.0000 C   0  0  0  0  0  0  0  0  0  0  0  0
    2.2670  -14.6982    0.0000 C   0  0  0  0  0  0  0  0  0  0  0  0
    1.5525  -15.1107    0.0000 C   0  0  0  0  0  0  0  0  0  0  0  0
   12.2695  -13.8732    0.0000 O   0  0  0  0  0  0  0  0  0  0  0  0
   11.5551  -15.9357    0.0000 C   0  0  0  0  0  0  0  0  0  0  0  0
  1  2  1  0  0  0  0
  2  3  1  0  0  0  0
  3  4  1  0  0  0  0
  4  5  1  0  0  0  0
  5  6  1  0  0  0  0
  6  7  1  0  0  0  0
  7  8  1  0  0  0  0
  8  9  1  0  0  0  0
  9 10  1  0  0  0  0
 10 11  1  0  0  0  0
 11 12  1  0  0  0  0
 12 13  1  0  0  0  0
 13 14  1  0  0  0  0
 14 15  1  0  0  0  0
 15 16  1  0  0  0  0
 16 17  1  0  0  0  0
  2 18  2  0  0  0  0
  3 19  1  0  0  0  0
M  END
>  <cdx:groupId>
113171

>  <cdx:fragmentId>
113118

$$$$
