37613.cdx
  Mrv1902 05222410202D          

 35 38  0  0  0  0            999 V2000
    3.3074   -5.8644    0.0000 C   0  0  0  0  0  0  0  0  0  0  0  0
    3.3074   -6.6894    0.0000 C   0  0  0  0  0  0  0  0  0  0  0  0
    4.0219   -7.1019    0.0000 C   0  0  0  0  0  0  0  0  0  0  0  0
    4.7363   -6.6894    0.0000 C   0  0  0  0  0  0  0  0  0  0  0  0
    4.7363   -5.8644    0.0000 C   0  0  0  0  0  0  0  0  0  0  0  0
    4.0219   -5.4519    0.0000 C   0  0  0  0  0  0  0  0  0  0  0  0
    5.4508   -5.4519    0.0000 C   0  0  0  0  0  0  0  0  0  0  0  0
    6.1653   -5.8644    0.0000 O   0  0  0  0  0  0  0  0  0  0  0  0
    6.8798   -5.4519    0.0000 C   0  0  0  0  0  0  0  0  0  0  0  0
    6.8798   -4.6269    0.0000 C   0  0  0  0  0  0  0  0  0  0  0  0
    6.1653   -4.2144    0.0000 O   0  0  0  0  0  0  0  0  0  0  0  0
    5.4508   -4.6269    0.0000 C   0  0  0  0  0  0  0  0  0  0  0  0
    7.5942   -5.8644    0.0000 C   0  0  0  0  0  0  0  0  0  0  0  0
    8.3087   -5.4519    0.0000 C   0  0  0  0  0  0  0  0  0  0  0  0
    8.3087   -4.6269    0.0000 C   0  0  0  0  0  0  0  0  0  0  0  0
    7.5942   -4.2144    0.0000 C   0  0  0  0  0  0  0  0  0  0  0  0
    9.0232   -4.2144    0.0000 C   0  0  0  0  0  0  0  0  0  0  0  0
    4.7363   -4.2144    0.0000 C   0  0  0  0  0  0  0  0  0  0  0  0
    4.0219   -4.6269    0.0000 O   0  0  0  0  0  0  0  0  0  0  0  0
    2.5929   -7.1019    0.0000 O   0  0  0  0  0  0  0  0  0  0  0  0
    4.0219   -7.9269    0.0000 O   0  0  0  0  0  0  0  0  0  0  0  0
    3.3074   -8.3394    0.0000 C   0  0  0  0  0  0  0  0  0  0  0  0
    9.7376   -4.6269    0.0000 C   0  0  0  0  0  0  0  0  0  0  0  0
    9.7376   -5.4519    0.0000 C   0  0  0  0  0  0  0  0  0  0  0  0
    9.0232   -5.8644    0.0000 O   0  0  0  0  0  0  0  0  0  0  0  0
   10.4521   -5.8644    0.0000 N   0  0  0  0  0  0  0  0  0  0  0  0
   10.4521   -6.6894    0.0000 C   0  0  0  0  0  0  0  0  0  0  0  0
   11.1666   -7.1019    0.0000 C   0  0  0  0  0  0  0  0  0  0  0  0
   11.1666   -7.9269    0.0000 C   0  0  0  0  0  0  0  0  0  0  0  0
   10.4521   -8.3394    0.0000 C   0  0  0  0  0  0  0  0  0  0  0  0
   10.4521   -9.1644    0.0000 C   0  0  0  0  0  0  0  0  0  0  0  0
   11.1666   -9.5769    0.0000 C   0  0  0  0  0  0  0  0  0  0  0  0
   11.8811   -9.1644    0.0000 C   0  0  0  0  0  0  0  0  0  0  0  0
   11.8811   -8.3394    0.0000 C   0  0  0  0  0  0  0  0  0  0  0  0
   11.1666  -10.4019    0.0000 O   0  0  0  0  0  0  0  0  0  0  0  0
  1  2  2  0  0  0  0
  2  3  1  0  0  0  0
  3  4  2  0  0  0  0
  4  5  1  0  0  0  0
  5  6  2  0  0  0  0
  6  1  1  0  0  0  0
  5  7  1  0  0  0  0
  7  8  1  0  0  0  0
  8  9  1  0  0  0  0
  9 10  2  0  0  0  0
 10 11  1  0  0  0  0
 11 12  1  0  0  0  0
 12  7  1  0  0  0  0
  9 13  1  0  0  0  0
 13 14  2  0  0  0  0
 14 15  1  0  0  0  0
 15 16  2  0  0  0  0
 16 10  1  0  0  0  0
 15 17  1  0  0  0  0
 12 18  1  0  0  0  0
 18 19  1  0  0  0  0
  2 20  1  0  0  0  0
  3 21  1  0  0  0  0
 21 22  1  0  0  0  0
 17 23  2  0  0  0  0
 23 24  1  0  0  0  0
 24 25  2  0  0  0  0
 24 26  1  0  0  0  0
 26 27  1  0  0  0  0
 27 28  1  0  0  0  0
 28 29  1  0  0  0  0
 29 30  2  0  0  0  0
 30 31  1  0  0  0  0
 31 32  2  0  0  0  0
 32 33  1  0  0  0  0
 33 34  2  0  0  0  0
 34 29  1  0  0  0  0
 32 35  1  0  0  0  0
M  END
>  <cdx:fragmentId>
1351

$$$$
