37615.cdx
  Mrv1902 05222410222D          

 25 25  0  0  0  0            999 V2000
    1.5955   -3.9600    0.0000 C   0  0  0  0  0  0  0  0  0  0  0  0
    1.5955   -4.7850    0.0000 C   0  0  0  0  0  0  0  0  0  0  0  0
    2.3100   -5.1975    0.0000 C   0  0  0  0  0  0  0  0  0  0  0  0
    3.0245   -4.7850    0.0000 C   0  0  0  0  0  0  0  0  0  0  0  0
    3.0245   -3.9600    0.0000 C   0  0  0  0  0  0  0  0  0  0  0  0
    2.3100   -3.5475    0.0000 C   0  0  0  0  0  0  0  0  0  0  0  0
    0.8811   -3.5475    0.0000 O   0  0  0  0  0  0  0  0  0  0  0  0
    0.8811   -5.1975    0.0000 O   0  0  0  0  0  0  0  0  0  0  0  0
    2.3100   -6.0225    0.0000 O   0  0  0  0  0  0  0  0  0  0  0  0
    1.5955   -6.4350    0.0000 C   0  0  0  0  0  0  0  0  0  0  0  0
    0.1666   -3.9600    0.0000 C   0  0  0  0  0  0  0  0  0  0  0  0
    3.7389   -3.5475    0.0000 C   0  0  0  0  0  0  0  0  0  0  0  0
    4.4534   -3.9600    0.0000 C   0  0  0  0  0  0  0  0  0  0  0  0
    5.1679   -3.5475    0.0000 C   0  0  0  0  0  0  0  0  0  0  0  0
    5.8824   -3.9600    0.0000 C   0  0  0  0  0  0  0  0  0  0  0  0
    5.1679   -2.7225    0.0000 O   0  0  0  0  0  0  0  0  0  0  0  0
    6.5968   -3.5475    0.0000 C   0  0  0  0  0  0  0  0  0  0  0  0
    7.3113   -3.9600    0.0000 C   0  0  0  0  0  0  0  0  0  0  0  0
    6.5968   -2.7225    0.0000 O   0  0  0  0  0  0  0  0  0  0  0  0
    8.0258   -3.5475    0.0000 C   0  0  0  0  0  0  0  0  0  0  0  0
    8.7402   -3.9600    0.0000 C   0  0  0  0  0  0  0  0  0  0  0  0
    9.4547   -3.5475    0.0000 C   0  0  0  0  0  0  0  0  0  0  0  0
   10.1692   -3.9600    0.0000 C   0  0  0  0  0  0  0  0  0  0  0  0
   10.8837   -3.5475    0.0000 C   0  0  0  0  0  0  0  0  0  0  0  0
   11.5981   -3.9600    0.0000 C   0  0  0  0  0  0  0  0  0  0  0  0
  1  2  2  0  0  0  0
  2  3  1  0  0  0  0
  3  4  2  0  0  0  0
  4  5  1  0  0  0  0
  5  6  2  0  0  0  0
  6  1  1  0  0  0  0
  1  7  1  0  0  0  0
  2  8  1  0  0  0  0
  3  9  1  0  0  0  0
  9 10  1  0  0  0  0
  7 11  1  0  0  0  0
  5 12  1  0  0  0  0
 12 13  1  0  0  0  0
 13 14  1  0  0  0  0
 14 15  1  0  0  0  0
 14 16  1  0  0  0  0
 15 17  1  0  0  0  0
 17 18  1  0  0  0  0
 17 19  2  0  0  0  0
 18 20  2  0  0  0  0
 20 21  1  0  0  0  0
 21 22  1  0  0  0  0
 22 23  1  0  0  0  0
 23 24  1  0  0  0  0
 24 25  1  0  0  0  0
M  END
>  <cdx:fragmentId>
1502

$$$$
