37614.cdx
  Mrv1902 05222410222D          

 35 38  0  0  0  0            999 V2000
    1.4924   -5.5894    0.0000 C   0  0  0  0  0  0  0  0  0  0  0  0
    1.4924   -6.4144    0.0000 C   0  0  0  0  0  0  0  0  0  0  0  0
    2.2069   -6.8269    0.0000 C   0  0  0  0  0  0  0  0  0  0  0  0
    2.9213   -6.4144    0.0000 C   0  0  0  0  0  0  0  0  0  0  0  0
    2.9213   -5.5894    0.0000 C   0  0  0  0  0  0  0  0  0  0  0  0
    2.2069   -5.1769    0.0000 C   0  0  0  0  0  0  0  0  0  0  0  0
    3.6358   -5.1769    0.0000 C   0  0  0  0  0  0  0  0  0  0  0  0
    4.3503   -5.5894    0.0000 O   0  0  0  0  0  0  0  0  0  0  0  0
    5.0648   -5.1769    0.0000 C   0  0  0  0  0  0  0  0  0  0  0  0
    5.0648   -4.3519    0.0000 C   0  0  0  0  0  0  0  0  0  0  0  0
    4.3503   -3.9394    0.0000 O   0  0  0  0  0  0  0  0  0  0  0  0
    3.6358   -4.3519    0.0000 C   0  0  0  0  0  0  0  0  0  0  0  0
    5.7792   -5.5894    0.0000 C   0  0  0  0  0  0  0  0  0  0  0  0
    6.4937   -5.1769    0.0000 C   0  0  0  0  0  0  0  0  0  0  0  0
    6.4937   -4.3519    0.0000 C   0  0  0  0  0  0  0  0  0  0  0  0
    5.7792   -3.9394    0.0000 C   0  0  0  0  0  0  0  0  0  0  0  0
    2.9213   -3.9394    0.0000 C   0  0  0  0  0  0  0  0  0  0  0  0
    2.2069   -4.3519    0.0000 O   0  0  0  0  0  0  0  0  0  0  0  0
    0.7779   -6.8269    0.0000 O   0  0  0  0  0  0  0  0  0  0  0  0
    2.2069   -7.6519    0.0000 O   0  0  0  0  0  0  0  0  0  0  0  0
    1.4924   -8.0644    0.0000 C   0  0  0  0  0  0  0  0  0  0  0  0
    7.2082   -3.9394    0.0000 C   0  0  0  0  0  0  0  0  0  0  0  0
    7.9226   -4.3519    0.0000 C   0  0  0  0  0  0  0  0  0  0  0  0
    8.6371   -3.9394    0.0000 C   0  0  0  0  0  0  0  0  0  0  0  0
    8.6371   -3.1144    0.0000 O   0  0  0  0  0  0  0  0  0  0  0  0
    9.3516   -4.3519    0.0000 N   0  0  0  0  0  0  0  0  0  0  0  0
   10.0661   -3.9394    0.0000 C   0  0  0  0  0  0  0  0  0  0  0  0
   10.7805   -4.3519    0.0000 C   0  0  0  0  0  0  0  0  0  0  0  0
   11.4950   -3.9394    0.0000 C   0  0  0  0  0  0  0  0  0  0  0  0
   12.2095   -4.3519    0.0000 C   0  0  0  0  0  0  0  0  0  0  0  0
   12.9239   -3.9394    0.0000 C   0  0  0  0  0  0  0  0  0  0  0  0
   12.9239   -3.1144    0.0000 C   0  0  0  0  0  0  0  0  0  0  0  0
   12.2095   -2.7019    0.0000 C   0  0  0  0  0  0  0  0  0  0  0  0
   11.4950   -3.1144    0.0000 C   0  0  0  0  0  0  0  0  0  0  0  0
   13.6384   -2.7019    0.0000 O   0  0  0  0  0  0  0  0  0  0  0  0
  1  2  2  0  0  0  0
  2  3  1  0  0  0  0
  3  4  2  0  0  0  0
  4  5  1  0  0  0  0
  5  6  2  0  0  0  0
  6  1  1  0  0  0  0
  5  7  1  0  0  0  0
  7  8  1  0  0  0  0
  8  9  1  0  0  0  0
  9 10  2  0  0  0  0
 10 11  1  0  0  0  0
 11 12  1  0  0  0  0
 12  7  1  0  0  0  0
  9 13  1  0  0  0  0
 13 14  2  0  0  0  0
 14 15  1  0  0  0  0
 15 16  2  0  0  0  0
 16 10  1  0  0  0  0
 12 17  1  0  0  0  0
 17 18  1  0  0  0  0
  2 19  1  0  0  0  0
  3 20  1  0  0  0  0
 20 21  1  0  0  0  0
 15 22  1  0  0  0  0
 22 23  2  0  0  0  0
 23 24  1  0  0  0  0
 24 25  2  0  0  0  0
 24 26  1  0  0  0  0
 26 27  1  0  0  0  0
 27 28  1  0  0  0  0
 28 29  1  0  0  0  0
 29 30  2  0  0  0  0
 30 31  1  0  0  0  0
 31 32  2  0  0  0  0
 32 33  1  0  0  0  0
 33 34  2  0  0  0  0
 34 29  1  0  0  0  0
 32 35  1  0  0  0  0
M  END
>  <cdx:fragmentId>
1351

$$$$
