37619.cdx
  Mrv1902 05222410242D          

 43 47  0  0  0  0            999 V2000
    2.9884   -6.4059    0.0000 O   0  0  0  0  0  0  0  0  0  0  0  0
    7.3857   -8.4684    0.0000 O   0  0  0  0  0  0  0  0  0  0  0  0
    5.9568   -8.4684    0.0000 O   0  0  0  0  0  0  0  0  0  0  0  0
    9.5291   -6.4059    0.0000 C   0  0  0  0  0  0  0  0  0  0  0  0
    8.8146   -5.9934    0.0000 O   0  0  0  0  0  0  0  0  0  0  0  0
    3.4009   -5.6914    0.0000 C   0  0  0  0  0  0  0  0  0  0  0  0
    4.5278   -8.4684    0.0000 O   0  0  0  0  0  0  0  0  0  0  0  0
    5.2423   -7.2309    0.0000 C   0  0  0  0  0  0  0  0  0  0  0  0
    5.9568   -7.6434    0.0000 C   0  0  0  0  0  0  0  0  0  0  0  0
    6.6712   -7.2309    0.0000 C   0  0  0  0  0  0  0  0  0  0  0  0
    7.3857   -7.6434    0.0000 C   0  0  0  0  0  0  0  0  0  0  0  0
    8.1002   -7.2309    0.0000 C   0  0  0  0  0  0  0  0  0  0  0  0
    8.1002   -6.4059    0.0000 C   0  0  0  0  0  0  0  0  0  0  0  0
    7.3857   -5.9934    0.0000 C   0  0  0  0  0  0  0  0  0  0  0  0
    6.6712   -6.4059    0.0000 C   0  0  0  0  0  0  0  0  0  0  0  0
    5.9568   -5.9934    0.0000 C   0  0  0  0  0  0  0  0  0  0  0  0
    5.2423   -6.4059    0.0000 C   0  0  0  0  0  0  0  0  0  0  0  0
    4.5278   -5.9934    0.0000 C   0  0  0  0  0  0  0  0  0  0  0  0
    3.8134   -6.4059    0.0000 C   0  0  2  0  0  0  0  0  0  0  0  0
    3.8134   -7.2309    0.0000 C   0  0  0  0  0  0  0  0  0  0  0  0
    4.5278   -7.6434    0.0000 C   0  0  0  0  0  0  0  0  0  0  0  0
    8.8159   -7.6293    0.0000 O   0  0  0  0  0  0  0  0  0  0  0  0
   10.2438   -8.4560    0.0000 O   0  0  0  0  0  0  0  0  0  0  0  0
   10.2419  -10.1060    0.0000 O   0  0  0  0  0  0  0  0  0  0  0  0
    9.5250  -12.1676    0.0000 O   0  0  0  0  0  0  0  0  0  0  0  0
    9.5230  -13.8176    0.0000 O   0  0  0  0  0  0  0  0  0  0  0  0
    8.0931  -14.6409    0.0000 O   0  0  0  0  0  0  0  0  0  0  0  0
    6.6641  -14.6392    0.0000 O   0  0  0  0  0  0  0  0  0  0  0  0
    6.6651  -13.8142    0.0000 C   0  0  0  0  0  0  0  0  0  0  0  0
    7.3801  -13.4026    0.0000 C   0  0  2  0  0  0  0  0  0  0  0  0
    8.0941  -13.8159    0.0000 C   0  0  2  0  0  0  0  0  0  0  0  0
    8.8090  -13.4043    0.0000 C   0  0  1  0  0  0  0  0  0  0  0  0
    8.8100  -12.5793    0.0000 C   0  0  2  0  0  0  0  0  0  0  0  0
    8.0960  -12.1659    0.0000 C   0  0  1  0  0  0  0  0  0  0  0  0
    7.3811  -12.5776    0.0000 O   0  0  0  0  0  0  0  0  0  0  0  0
    8.0970  -11.3409    0.0000 O   0  0  0  0  0  0  0  0  0  0  0  0
    8.8120  -10.9293    0.0000 C   0  0  0  0  0  0  0  0  0  0  0  0
    8.8129  -10.1043    0.0000 C   0  0  2  0  0  0  0  0  0  0  0  0
    9.5279   -9.6926    0.0000 C   0  0  2  0  0  0  0  0  0  0  0  0
    9.5289   -8.8676    0.0000 C   0  0  1  0  0  0  0  0  0  0  0  0
    8.8149   -8.4543    0.0000 C   0  0  2  0  0  0  0  0  0  0  0  0
    8.0999   -8.8659    0.0000 C   0  0  1  0  0  0  0  0  0  0  0  0
    8.0990   -9.6909    0.0000 O   0  0  0  0  0  0  0  0  0  0  0  0
 19  1  1  6  0  0  0
 11  2  1  0  0  0  0
  9  3  1  0  0  0  0
 13  5  1  0  0  0  0
  5  4  1  0  0  0  0
 19  6  1  1  0  0  0
 21  7  2  0  0  0  0
 21  8  1  0  0  0  0
 17  8  2  0  0  0  0
  9  8  1  0  0  0  0
 10  9  2  0  0  0  0
 15 10  1  0  0  0  0
 11 10  1  0  0  0  0
 12 11  2  0  0  0  0
 13 12  1  0  0  0  0
 14 13  2  0  0  0  0
 15 14  1  0  0  0  0
 16 15  2  0  0  0  0
 17 16  1  0  0  0  0
 18 17  1  0  0  0  0
 19 18  1  0  0  0  0
 20 19  1  0  0  0  0
 21 20  1  0  0  0  0
 41 22  1  6  0  0  0
 40 23  1  1  0  0  0
 39 24  1  6  0  0  0
 38 37  1  1  0  0  0
 37 36  1  0  0  0  0
 34 36  1  1  0  0  0
 33 25  1  6  0  0  0
 32 26  1  1  0  0  0
 31 27  1  6  0  0  0
 30 29  1  1  0  0  0
 29 28  1  0  0  0  0
 35 30  1  0  0  0  0
 31 30  1  0  0  0  0
 32 31  1  0  0  0  0
 33 32  1  0  0  0  0
 34 33  1  0  0  0  0
 35 34  1  0  0  0  0
 43 38  1  0  0  0  0
 39 38  1  0  0  0  0
 40 39  1  0  0  0  0
 41 40  1  0  0  0  0
 42 41  1  0  0  0  0
 43 42  1  0  0  0  0
 42  2  1  1  0  0  0
M  END
>  <cdx:fragmentId>
249

$$$$
