37616.cdx
  Mrv1902 05222410222D          

 23 23  0  0  0  0            999 V2000
    4.2694   -7.0606    0.0000 C   0  0  0  0  0  0  0  0  0  0  0  0
    3.5549   -6.6481    0.0000 C   0  0  0  0  0  0  0  0  0  0  0  0
    2.8404   -7.0606    0.0000 C   0  0  0  0  0  0  0  0  0  0  0  0
    5.6983   -7.0606    0.0000 C   0  0  0  0  0  0  0  0  0  0  0  0
    4.9838   -6.6481    0.0000 C   0  0  0  0  0  0  0  0  0  0  0  0
    4.9838   -5.8231    0.0000 C   0  0  0  0  0  0  0  0  0  0  0  0
    2.1260   -6.6481    0.0000 C   0  0  0  0  0  0  0  0  0  0  0  0
    1.4115   -7.0606    0.0000 C   0  0  0  0  0  0  0  0  0  0  0  0
    2.1260   -5.8231    0.0000 C   0  0  0  0  0  0  0  0  0  0  0  0
    1.4115   -6.2356    0.0000 O   0  0  0  0  0  0  0  0  0  0  0  0
    6.4128   -6.6481    0.0000 C   0  0  0  0  0  0  0  0  0  0  0  0
    7.1273   -7.0606    0.0000 O   0  0  0  0  0  0  0  0  0  0  0  0
    9.2807   -6.6520    0.0000 C   0  0  2  0  0  0  0  0  0  0  0  0
    9.2813   -5.8270    0.0000 C   0  0  2  0  0  0  0  0  0  0  0  0
    8.5671   -5.4141    0.0000 C   0  0  1  0  0  0  0  0  0  0  0  0
    7.8523   -5.8261    0.0000 C   0  0  2  0  0  0  0  0  0  0  0  0
    7.8518   -6.6511    0.0000 C   0  0  1  0  0  0  0  0  0  0  0  0
    8.5660   -7.0641    0.0000 O   0  0  0  0  0  0  0  0  0  0  0  0
    9.9949   -7.0650    0.0000 C   0  0  0  0  0  0  0  0  0  0  0  0
    8.5676   -4.5891    0.0000 O   0  0  0  0  0  0  0  0  0  0  0  0
    9.9960   -5.4150    0.0000 O   0  0  0  0  0  0  0  0  0  0  0  0
    7.1381   -5.4131    0.0000 O   0  0  0  0  0  0  0  0  0  0  0  0
   10.7096   -6.6530    0.0000 O   0  0  0  0  0  0  0  0  0  0  0  0
  1  2  1  0  0  0  0
  2  3  1  0  0  0  0
  4  5  2  0  0  0  0
  5  1  1  0  0  0  0
  5  6  1  0  0  0  0
  7  8  1  0  0  0  0
  3  7  1  0  0  0  0
  7  9  1  0  0  0  0
  7 10  1  0  0  0  0
  4 11  1  0  0  0  0
 11 12  1  0  0  0  0
 13 14  1  0  0  0  0
 14 15  1  0  0  0  0
 15 16  1  0  0  0  0
 16 17  1  0  0  0  0
 17 18  1  0  0  0  0
 18 13  1  0  0  0  0
 13 19  1  1  0  0  0
 15 20  1  1  0  0  0
 14 21  1  6  0  0  0
 16 22  1  6  0  0  0
 19 23  1  0  0  0  0
 17 12  1  1  0  0  0
M  END
>  <cdx:fragmentId>
1574

$$$$
