112.cdx
  Mrv1902 05222410212D          

 39 44  0  0  0  0            999 V2000
    1.9668   -3.9600    0.0000 C   0  0  0  0  0  0  0  0  0  0  0  0
    1.9668   -4.7850    0.0000 C   0  0  0  0  0  0  0  0  0  0  0  0
    2.6812   -5.1975    0.0000 C   0  0  0  0  0  0  0  0  0  0  0  0
    3.3957   -4.7850    0.0000 C   0  0  0  0  0  0  0  0  0  0  0  0
    3.3957   -3.9600    0.0000 C   0  0  0  0  0  0  0  0  0  0  0  0
    2.6812   -3.5475    0.0000 C   0  0  0  0  0  0  0  0  0  0  0  0
    4.1102   -5.1975    0.0000 C   0  0  1  0  0  0  0  0  0  0  0  0
    4.8247   -4.7850    0.0000 C   0  0  0  0  0  0  0  0  0  0  0  0
    4.8247   -3.9600    0.0000 C   0  0  0  0  0  0  0  0  0  0  0  0
    4.1102   -3.5475    0.0000 C   0  0  0  0  0  0  0  0  0  0  0  0
    5.5391   -5.1975    0.0000 C   0  0  0  0  0  0  0  0  0  0  0  0
    6.2536   -4.7850    0.0000 C   0  0  0  0  0  0  0  0  0  0  0  0
    6.2536   -3.9600    0.0000 C   0  0  0  0  0  0  0  0  0  0  0  0
    5.5391   -3.5475    0.0000 C   0  0  0  0  0  0  0  0  0  0  0  0
    4.1102   -6.0225    0.0000 C   0  0  2  0  0  0  0  0  0  0  0  0
    3.3957   -6.4350    0.0000 C   0  0  0  0  0  0  0  0  0  0  0  0
    3.3957   -7.2600    0.0000 C   0  0  0  0  0  0  0  0  0  0  0  0
    4.1102   -7.6725    0.0000 C   0  0  0  0  0  0  0  0  0  0  0  0
    4.8247   -7.2600    0.0000 C   0  0  0  0  0  0  0  0  0  0  0  0
    4.8247   -6.4350    0.0000 C   0  0  0  0  0  0  0  0  0  0  0  0
    5.5391   -7.6725    0.0000 C   0  0  0  0  0  0  0  0  0  0  0  0
    6.2536   -7.2600    0.0000 C   0  0  0  0  0  0  0  0  0  0  0  0
    6.2536   -6.4350    0.0000 C   0  0  0  0  0  0  0  0  0  0  0  0
    5.5391   -6.0225    0.0000 C   0  0  0  0  0  0  0  0  0  0  0  0
    2.6812   -6.0225    0.0000 C   0  0  0  0  0  0  0  0  0  0  0  0
    1.9668   -6.4350    0.0000 C   0  0  0  0  0  0  0  0  0  0  0  0
    1.9668   -7.2600    0.0000 C   0  0  0  0  0  0  0  0  0  0  0  0
    2.6812   -7.6725    0.0000 C   0  0  0  0  0  0  0  0  0  0  0  0
    2.6812   -2.7225    0.0000 O   0  0  0  0  0  0  0  0  0  0  0  0
    4.1102   -2.7225    0.0000 O   0  0  0  0  0  0  0  0  0  0  0  0
    5.5391   -2.7225    0.0000 O   0  0  0  0  0  0  0  0  0  0  0  0
    6.9681   -5.1975    0.0000 C   0  0  0  0  0  0  0  0  0  0  0  0
    6.9681   -6.0225    0.0000 C   0  0  0  0  0  0  0  0  0  0  0  0
    1.2523   -5.1975    0.0000 O   0  0  0  0  0  0  0  0  0  0  0  0
    1.2523   -6.0225    0.0000 O   0  0  0  0  0  0  0  0  0  0  0  0
    0.5378   -6.4350    0.0000 C   0  0  0  0  0  0  0  0  0  0  0  0
    2.6812   -8.4975    0.0000 O   0  0  0  0  0  0  0  0  0  0  0  0
    4.1102   -8.4975    0.0000 O   0  0  0  0  0  0  0  0  0  0  0  0
    5.5391   -8.4975    0.0000 O   0  0  0  0  0  0  0  0  0  0  0  0
  1  2  2  0  0  0  0
  2  3  1  0  0  0  0
  3  4  2  0  0  0  0
  4  5  1  0  0  0  0
  5  6  2  0  0  0  0
  6  1  1  0  0  0  0
  7  4  1  1  0  0  0
  7  8  1  0  0  0  0
  8  9  2  0  0  0  0
  9 10  1  0  0  0  0
 10  5  1  0  0  0  0
  8 11  1  0  0  0  0
 11 12  2  0  0  0  0
 12 13  1  0  0  0  0
 13 14  2  0  0  0  0
 14  9  1  0  0  0  0
  7 15  1  0  0  0  0
 15 16  1  1  0  0  0
 16 17  2  0  0  0  0
 17 18  1  0  0  0  0
 18 19  1  0  0  0  0
 19 20  2  0  0  0  0
 20 15  1  0  0  0  0
 19 21  1  0  0  0  0
 21 22  2  0  0  0  0
 22 23  1  0  0  0  0
 23 24  2  0  0  0  0
 24 20  1  0  0  0  0
 16 25  1  0  0  0  0
 25 26  2  0  0  0  0
 26 27  1  0  0  0  0
 27 28  2  0  0  0  0
 28 17  1  0  0  0  0
  6 29  1  0  0  0  0
 10 30  2  0  0  0  0
 14 31  1  0  0  0  0
 12 32  1  0  0  0  0
 23 33  1  0  0  0  0
  2 34  1  0  0  0  0
 26 35  1  0  0  0  0
 35 36  1  0  0  0  0
 28 37  1  0  0  0  0
 18 38  2  0  0  0  0
 21 39  1  0  0  0  0
M  END
>  <cdx:fragmentId>
1235

$$$$
