37626.cdx
  Mrv1902 05222410232D          

 49 51  0  0  0  0            999 V2000
    5.0778   -8.5121    0.0000 C   0  0  0  0  0  0  0  0  0  0  0  0
    5.7923   -8.0996    0.0000 C   0  0  2  0  0  0  0  0  0  0  0  0
    6.5068   -8.5121    0.0000 C   0  0  2  0  0  0  0  0  0  0  0  0
    7.2212   -8.0996    0.0000 C   0  0  1  0  0  0  0  0  0  0  0  0
    7.9357   -8.5121    0.0000 C   0  0  2  0  0  0  0  0  0  0  0  0
    8.6502   -8.0996    0.0000 C   0  0  0  0  0  0  0  0  0  0  0  0
    5.0778   -9.3371    0.0000 O   0  0  0  0  0  0  0  0  0  0  0  0
    4.3634   -8.0996    0.0000 O   0  0  0  0  0  0  0  0  0  0  0  0
    8.6502   -7.2746    0.0000 O   0  0  0  0  0  0  0  0  0  0  0  0
    9.3646   -8.5121    0.0000 O   0  0  0  0  0  0  0  0  0  0  0  0
    7.9357   -9.3371    0.0000 O   0  0  0  0  0  0  0  0  0  0  0  0
    6.5068   -9.3371    0.0000 O   0  0  0  0  0  0  0  0  0  0  0  0
    5.7923   -7.2746    0.0000 O   0  0  0  0  0  0  0  0  0  0  0  0
    6.0943  -10.0515    0.0000 C   0  0  0  0  0  0  0  0  0  0  0  0
    6.5068  -10.7660    0.0000 C   0  0  0  0  0  0  0  0  0  0  0  0
    5.2693  -10.0515    0.0000 O   0  0  0  0  0  0  0  0  0  0  0  0
    6.0943  -11.4805    0.0000 C   0  0  0  0  0  0  0  0  0  0  0  0
    6.5068  -12.1949    0.0000 C   0  0  0  0  0  0  0  0  0  0  0  0
    6.0943  -12.9094    0.0000 C   0  0  0  0  0  0  0  0  0  0  0  0
    6.5068  -13.6239    0.0000 C   0  0  0  0  0  0  0  0  0  0  0  0
    7.3318  -13.6239    0.0000 C   0  0  0  0  0  0  0  0  0  0  0  0
    7.7443  -12.9094    0.0000 C   0  0  0  0  0  0  0  0  0  0  0  0
    7.3318  -12.1949    0.0000 C   0  0  0  0  0  0  0  0  0  0  0  0
    7.7443  -14.3383    0.0000 O   0  0  0  0  0  0  0  0  0  0  0  0
    6.0943  -14.3383    0.0000 O   0  0  0  0  0  0  0  0  0  0  0  0
    7.4539   -2.9940    0.0000 C   0  0  0  0  0  0  0  0  0  0  0  0
    9.9804   -4.6629    0.0000 C   0  0  0  0  0  0  0  0  0  0  0  0
    7.0033   -3.6851    0.0000 O   0  0  0  0  0  0  0  0  0  0  0  0
    8.6508   -3.7746    0.0000 O   0  0  0  0  0  0  0  0  0  0  0  0
    9.3970   -5.2463    0.0000 O   0  0  0  0  0  0  0  0  0  0  0  0
    8.1226   -5.8925    0.0000 C   0  0  0  0  0  0  0  0  0  0  0  0
    8.5733   -5.2015    0.0000 C   0  0  0  0  0  0  0  0  0  0  0  0
    8.2001   -4.4657    0.0000 C   0  0  0  0  0  0  0  0  0  0  0  0
    7.3764   -4.4209    0.0000 C   0  0  0  0  0  0  0  0  0  0  0  0
    6.9257   -5.1119    0.0000 C   0  0  0  0  0  0  0  0  0  0  0  0
    6.0243   -6.4940    0.0000 O   0  0  0  0  0  0  0  0  0  0  0  0
    7.2988   -5.8477    0.0000 C   0  0  0  0  0  0  0  0  0  0  0  0
    6.8481   -6.5387    0.0000 C   0  0  0  0  0  0  0  0  0  0  0  0
    7.2212   -7.2746    0.0000 O   0  0  0  0  0  0  0  0  0  0  0  0
    5.2693  -14.3383    0.0000 C   0  0  2  0  0  0  0  0  0  0  0  0
    4.8568  -13.6239    0.0000 O   0  0  0  0  0  0  0  0  0  0  0  0
    4.0318  -13.6239    0.0000 C   0  0  2  0  0  0  0  0  0  0  0  0
    3.6193  -14.3383    0.0000 C   0  0  1  0  0  0  0  0  0  0  0  0
    4.0318  -15.0528    0.0000 C   0  0  2  0  0  0  0  0  0  0  0  0
    4.8568  -15.0528    0.0000 C   0  0  1  0  0  0  0  0  0  0  0  0
    2.7943  -14.3383    0.0000 O   0  0  0  0  0  0  0  0  0  0  0  0
    3.6193  -12.9094    0.0000 C   0  0  0  0  0  0  0  0  0  0  0  0
    3.6193  -15.7673    0.0000 O   0  0  0  0  0  0  0  0  0  0  0  0
    5.2693  -15.7673    0.0000 O   0  0  0  0  0  0  0  0  0  0  0  0
 28 26  1  0  0  0  0
  1  2  1  0  0  0  0
  2  3  1  0  0  0  0
  3  4  1  0  0  0  0
  4  5  1  0  0  0  0
  5  6  1  0  0  0  0
  1  7  2  0  0  0  0
  1  8  1  0  0  0  0
  6  9  2  0  0  0  0
  6 10  1  0  0  0  0
  5 11  1  6  0  0  0
  4 39  1  6  0  0  0
  3 12  1  6  0  0  0
  2 13  1  1  0  0  0
 12 14  1  0  0  0  0
 14 15  1  0  0  0  0
 14 16  2  0  0  0  0
 15 17  2  0  0  0  0
 17 18  1  0  0  0  0
 18 19  2  0  0  0  0
 19 20  1  0  0  0  0
 20 21  2  0  0  0  0
 21 22  1  0  0  0  0
 22 23  2  0  0  0  0
 23 18  1  0  0  0  0
 21 24  1  0  0  0  0
 20 25  1  0  0  0  0
 30 27  1  0  0  0  0
 34 28  1  0  0  0  0
 33 29  1  0  0  0  0
 32 30  1  0  0  0  0
 31 37  1  0  0  0  0
 32 31  2  0  0  0  0
 33 32  1  0  0  0  0
 34 33  2  0  0  0  0
 35 34  1  0  0  0  0
 37 35  2  0  0  0  0
 38 36  2  0  0  0  0
 38 37  1  0  0  0  0
 39 38  1  0  0  0  0
 40 25  1  1  0  0  0
 40 41  1  0  0  0  0
 41 42  1  0  0  0  0
 42 43  1  0  0  0  0
 43 44  1  0  0  0  0
 44 45  1  0  0  0  0
 45 40  1  0  0  0  0
 43 46  1  1  0  0  0
 42 47  1  6  0  0  0
 44 48  1  6  0  0  0
 45 49  1  6  0  0  0
M  END
>  <cdx:groupId>
43

>  <cdx:fragmentId>
5

$$$$
