37627.cdx
  Mrv1902 05222410232D          

 27 27  0  0  0  0            999 V2000
    5.1053   -5.8171    0.0000 C   0  0  0  0  0  0  0  0  0  0  0  0
    5.8198   -5.4046    0.0000 C   0  0  2  0  0  0  0  0  0  0  0  0
    6.5343   -5.8171    0.0000 C   0  0  2  0  0  0  0  0  0  0  0  0
    7.2487   -5.4046    0.0000 C   0  0  1  0  0  0  0  0  0  0  0  0
    7.9632   -5.8171    0.0000 C   0  0  2  0  0  0  0  0  0  0  0  0
    8.6777   -5.4046    0.0000 C   0  0  0  0  0  0  0  0  0  0  0  0
    5.1053   -6.6421    0.0000 O   0  0  0  0  0  0  0  0  0  0  0  0
    4.3909   -5.4046    0.0000 O   0  0  0  0  0  0  0  0  0  0  0  0
    8.6777   -4.5796    0.0000 O   0  0  0  0  0  0  0  0  0  0  0  0
    9.3921   -5.8171    0.0000 O   0  0  0  0  0  0  0  0  0  0  0  0
    7.9632   -6.6421    0.0000 O   0  0  0  0  0  0  0  0  0  0  0  0
    7.2487   -4.5796    0.0000 O   0  0  0  0  0  0  0  0  0  0  0  0
    6.5343   -6.6421    0.0000 O   0  0  0  0  0  0  0  0  0  0  0  0
    5.8198   -4.5796    0.0000 O   0  0  0  0  0  0  0  0  0  0  0  0
    6.0971   -7.3992    0.0000 C   0  0  0  0  0  0  0  0  0  0  0  0
    6.5343   -8.1564    0.0000 C   0  0  0  0  0  0  0  0  0  0  0  0
    5.2228   -7.3992    0.0000 O   0  0  0  0  0  0  0  0  0  0  0  0
    2.7478  -10.3425    0.0000 C   0  0  0  0  0  0  0  0  0  0  0  0
    3.5728  -10.3425    0.0000 O   0  0  0  0  0  0  0  0  0  0  0  0
    2.7478   -8.9136    0.0000 O   0  0  0  0  0  0  0  0  0  0  0  0
    4.8103   -8.1991    0.0000 C   0  0  0  0  0  0  0  0  0  0  0  0
    3.9853   -8.1991    0.0000 C   0  0  0  0  0  0  0  0  0  0  0  0
    3.5728   -8.9136    0.0000 C   0  0  0  0  0  0  0  0  0  0  0  0
    3.9853   -9.6280    0.0000 C   0  0  0  0  0  0  0  0  0  0  0  0
    4.8103   -9.6280    0.0000 C   0  0  0  0  0  0  0  0  0  0  0  0
    5.2228   -8.9136    0.0000 C   0  0  0  0  0  0  0  0  0  0  0  0
    6.0971   -8.9136    0.0000 C   0  0  0  0  0  0  0  0  0  0  0  0
  1  2  1  0  0  0  0
  2  3  1  0  0  0  0
  3  4  1  0  0  0  0
  4  5  1  0  0  0  0
  5  6  1  0  0  0  0
  1  7  2  0  0  0  0
  1  8  1  0  0  0  0
  6  9  2  0  0  0  0
  6 10  1  0  0  0  0
  5 11  1  6  0  0  0
  4 12  1  6  0  0  0
  3 13  1  6  0  0  0
  2 14  1  1  0  0  0
 13 15  1  0  0  0  0
 15 16  1  0  0  0  0
 15 17  2  0  0  0  0
 19 18  1  0  0  0  0
 16 27  2  0  0  0  0
 24 19  1  0  0  0  0
 23 20  1  0  0  0  0
 21 26  1  0  0  0  0
 22 21  2  0  0  0  0
 23 22  1  0  0  0  0
 24 23  2  0  0  0  0
 25 24  1  0  0  0  0
 26 25  2  0  0  0  0
 27 26  1  0  0  0  0
M  END
>  <cdx:groupId>
43

>  <cdx:fragmentId>
5

$$$$
