124.cdx
  Mrv1902 05222410242D          

 14 15  0  0  0  0            999 V2000
    4.3387   -4.8056    0.0000 C   0  0  0  0  0  0  0  0  0  0  0  0
    4.3387   -5.6306    0.0000 C   0  0  1  0  0  0  0  0  0  0  0  0
    5.0531   -6.0431    0.0000 C   0  0  1  0  0  0  0  0  0  0  0  0
    5.7676   -5.6306    0.0000 C   0  0  0  0  0  0  0  0  0  0  0  0
    5.7676   -4.8056    0.0000 C   0  0  0  0  0  0  0  0  0  0  0  0
    5.0531   -4.3931    0.0000 C   0  0  2  0  0  0  0  0  0  0  0  0
    4.8396   -5.1900    0.0000 C   0  0  0  0  0  0  0  0  0  0  0  0
    3.6242   -4.3931    0.0000 C   0  0  0  0  0  0  0  0  0  0  0  0
    4.3387   -3.9806    0.0000 C   0  0  0  0  0  0  0  0  0  0  0  0
    3.6242   -6.0431    0.0000 C   0  0  0  0  0  0  0  0  0  0  0  0
    5.0531   -6.8681    0.0000 C   0  0  0  0  0  0  0  0  0  0  0  0
    2.9097   -5.6306    0.0000 C   0  0  0  0  0  0  0  0  0  0  0  0
    2.1952   -6.0431    0.0000 O   0  0  0  0  0  0  0  0  0  0  0  0
    2.9097   -4.8056    0.0000 C   0  0  0  0  0  0  0  0  0  0  0  0
  1  2  1  0  0  0  0
  2  3  1  0  0  0  0
  3  4  1  0  0  0  0
  4  5  1  0  0  0  0
  5  6  1  0  0  0  0
  6  1  1  0  0  0  0
  6  7  1  1  0  0  0
  3  7  1  1  0  0  0
  1  8  1  0  0  0  0
  1  9  1  0  0  0  0
  2 10  1  1  0  0  0
  3 11  1  0  0  0  0
 10 12  1  0  0  0  0
 12 13  2  0  0  0  0
 12 14  1  0  0  0  0
M  END
>  <cdx:fragmentId>
358

$$$$
