37625.cdx
  Mrv1902 05222410242D          

 16 17  0  0  0  0            999 V2000
    8.9853   -8.3412    0.0000 C   0  0  0  0  0  0  0  0  0  0  0  0
    9.6997   -7.9287    0.0000 C   0  0  0  0  0  0  0  0  0  0  0  0
    8.9853   -9.1662    0.0000 O   0  0  0  0  0  0  0  0  0  0  0  0
    8.2708   -7.9287    0.0000 C   0  0  0  0  0  0  0  0  0  0  0  0
    7.8583   -7.2142    0.0000 C   0  0  0  0  0  0  0  0  0  0  0  0
    8.6833   -7.2142    0.0000 C   0  0  0  0  0  0  0  0  0  0  0  0
    7.5563   -8.3412    0.0000 C   0  0  0  0  0  0  0  0  0  0  0  0
    6.8419   -8.7537    0.0000 C   0  0  0  0  0  0  0  0  0  0  0  0
    6.1274   -9.1662    0.0000 C   0  0  0  0  0  0  0  0  0  0  0  0
    6.1274   -9.9912    0.0000 C   0  0  0  0  0  0  0  0  0  0  0  0
    5.4129  -10.4037    0.0000 C   0  0  0  0  0  0  0  0  0  0  0  0
    4.6984   -9.9912    0.0000 C   0  0  0  0  0  0  0  0  0  0  0  0
    4.6984   -9.1662    0.0000 C   0  0  0  0  0  0  0  0  0  0  0  0
    5.4129   -8.7537    0.0000 C   0  0  0  0  0  0  0  0  0  0  0  0
    7.0333   -7.2142    0.0000 C   0  0  0  0  0  0  0  0  0  0  0  0
    7.4458   -6.4998    0.0000 C   0  0  0  0  0  0  0  0  0  0  0  0
  1  2  1  0  0  0  0
  1  3  1  0  0  0  0
  4  5  1  0  0  0  0
  5  6  1  0  0  0  0
  4  6  1  0  0  0  0
  7  8  3  0  0  0  0
  9 10  1  0  0  0  0
 10 11  2  0  0  0  0
 11 12  1  0  0  0  0
 12 13  2  0  0  0  0
 13 14  1  0  0  0  0
  9 14  2  0  0  0  0
  8  9  1  0  0  0  0
  4  7  1  0  0  0  0
  5 15  1  0  0  0  0
  5 16  1  0  0  0  0
  1  4  1  0  0  0  0
M  END
>  <cdx:fragmentId>
21

$$$$
