37639.cdx
  Mrv1902 05222410212D          

 37 37  0  0  0  0            999 V2000
    4.3180   -8.8825    0.0000 C   0  0  2  0  0  0  0  0  0  0  0  0
    4.3180   -9.7075    0.0000 C   0  0  2  0  0  0  0  0  0  0  0  0
    5.0325  -10.1200    0.0000 C   0  0  1  0  0  0  0  0  0  0  0  0
    5.7470   -9.7075    0.0000 C   0  0  2  0  0  0  0  0  0  0  0  0
    5.7470   -8.8825    0.0000 C   0  0  2  0  0  0  0  0  0  0  0  0
    5.0325   -8.4700    0.0000 O   0  0  0  0  0  0  0  0  0  0  0  0
    3.6036   -8.4700    0.0000 C   0  0  0  0  0  0  0  0  0  0  0  0
    6.4614   -8.4700    0.0000 O   0  0  0  0  0  0  0  0  0  0  0  0
    5.0325  -10.9450    0.0000 O   0  0  0  0  0  0  0  0  0  0  0  0
    3.6036  -10.1200    0.0000 O   0  0  0  0  0  0  0  0  0  0  0  0
    6.4614  -10.1200    0.0000 O   0  0  0  0  0  0  0  0  0  0  0  0
    2.8891   -8.8825    0.0000 S   0  0  0  0  0  0  0  0  0  0  0  0
    2.1405   -9.3147    0.0000 O   0  0  0  0  0  0  0  0  0  0  0  0
    3.3255   -9.6384    0.0000 O   0  0  0  0  0  0  0  0  0  0  0  0
    2.4335   -8.0935    0.0000 O   0  0  0  0  0  0  0  0  0  0  0  0
    7.1759   -8.8825    0.0000 C   0  0  0  0  0  0  0  0  0  0  0  0
    7.8904   -8.4700    0.0000 C   0  0  0  0  0  0  0  0  0  0  0  0
    8.6049   -8.8825    0.0000 C   0  0  0  0  0  0  0  0  0  0  0  0
    9.3193   -8.4700    0.0000 O   0  0  0  0  0  0  0  0  0  0  0  0
    7.8904   -7.6450    0.0000 O   0  0  0  0  0  0  0  0  0  0  0  0
   10.0338   -8.8825    0.0000 C   0  0  0  0  0  0  0  0  0  0  0  0
   10.7483   -8.4700    0.0000 C   0  0  0  0  0  0  0  0  0  0  0  0
   10.0338   -9.7075    0.0000 O   0  0  0  0  0  0  0  0  0  0  0  0
   11.4627   -8.8825    0.0000 C   0  0  0  0  0  0  0  0  0  0  0  0
   12.1772   -8.4700    0.0000 C   0  0  0  0  0  0  0  0  0  0  0  0
   12.8917   -8.8825    0.0000 C   0  0  0  0  0  0  0  0  0  0  0  0
   13.6062   -8.4700    0.0000 C   0  0  0  0  0  0  0  0  0  0  0  0
   14.3206   -8.8825    0.0000 C   0  0  0  0  0  0  0  0  0  0  0  0
   15.0351   -8.4700    0.0000 C   0  0  0  0  0  0  0  0  0  0  0  0
   15.7496   -8.8825    0.0000 C   0  0  0  0  0  0  0  0  0  0  0  0
   16.4640   -8.4700    0.0000 C   0  0  0  0  0  0  0  0  0  0  0  0
   17.1785   -8.8825    0.0000 C   0  0  0  0  0  0  0  0  0  0  0  0
   17.8930   -8.4700    0.0000 C   0  0  0  0  0  0  0  0  0  0  0  0
   18.6074   -8.8825    0.0000 C   0  0  0  0  0  0  0  0  0  0  0  0
   19.3219   -8.4700    0.0000 C   0  0  0  0  0  0  0  0  0  0  0  0
   20.0364   -8.8825    0.0000 C   0  0  0  0  0  0  0  0  0  0  0  0
   20.7509   -8.4700    0.0000 C   0  0  0  0  0  0  0  0  0  0  0  0
  1  2  1  0  0  0  0
  2  3  1  0  0  0  0
  3  4  1  0  0  0  0
  4  5  1  0  0  0  0
  5  6  1  0  0  0  0
  6  1  1  0  0  0  0
  1  7  1  1  0  0  0
  5  8  1  6  0  0  0
  3  9  1  1  0  0  0
  2 10  1  6  0  0  0
  4 11  1  6  0  0  0
  7 12  1  0  0  0  0
 12 13  1  0  0  0  0
 12 14  2  0  0  0  0
 12 15  2  0  0  0  0
  8 16  1  0  0  0  0
 16 17  1  0  0  0  0
 17 18  1  0  0  0  0
 18 19  1  0  0  0  0
 17 20  1  0  0  0  0
 19 21  1  0  0  0  0
 21 22  1  0  0  0  0
 21 23  2  0  0  0  0
 22 24  1  0  0  0  0
 24 25  1  0  0  0  0
 25 26  1  0  0  0  0
 26 27  1  0  0  0  0
 27 28  1  0  0  0  0
 28 29  1  0  0  0  0
 29 30  1  0  0  0  0
 30 31  1  0  0  0  0
 31 32  1  0  0  0  0
 32 33  1  0  0  0  0
 33 34  1  0  0  0  0
 34 35  1  0  0  0  0
 35 36  1  0  0  0  0
 36 37  1  0  0  0  0
M  END
>  <cdx:fragmentId>
128

$$$$
