5376315.cdx
  Mrv1902 05222410252D          

 18 19  0  0  0  0            999 V2000
    6.3533   -7.2438    0.0000 C   0  0  0  0  0  0  0  0  0  0  0  0
    6.3533   -8.0688    0.0000 C   0  0  0  0  0  0  0  0  0  0  0  0
    5.6388   -8.4813    0.0000 C   0  0  0  0  0  0  0  0  0  0  0  0
    4.9244   -8.0688    0.0000 C   0  0  0  0  0  0  0  0  0  0  0  0
    4.9244   -7.2438    0.0000 C   0  0  0  0  0  0  0  0  0  0  0  0
    5.6388   -6.8313    0.0000 C   0  0  0  0  0  0  0  0  0  0  0  0
    7.8928   -6.8313    0.0000 C   0  0  0  0  0  0  0  0  0  0  0  0
    7.0678   -6.8313    0.0000 C   0  0  0  0  0  0  0  0  0  0  0  0
    7.0678   -6.0063    0.0000 C   0  0  0  0  0  0  0  0  0  0  0  0
    7.7822   -5.5938    0.0000 C   0  0  0  0  0  0  0  0  0  0  0  0
    7.7822   -4.7688    0.0000 C   0  0  0  0  0  0  0  0  0  0  0  0
    8.4967   -6.0063    0.0000 C   0  0  0  0  0  0  0  0  0  0  0  0
    9.2112   -5.5938    0.0000 C   0  0  0  0  0  0  0  0  0  0  0  0
    9.9256   -6.0063    0.0000 C   0  0  0  0  0  0  0  0  0  0  0  0
    9.9256   -6.8313    0.0000 C   0  0  0  0  0  0  0  0  0  0  0  0
    9.2112   -7.2438    0.0000 C   0  0  0  0  0  0  0  0  0  0  0  0
    8.4967   -6.8313    0.0000 C   0  0  0  0  0  0  0  0  0  0  0  0
    7.4803   -7.5458    0.0000 C   0  0  0  0  0  0  0  0  0  0  0  0
  1  2  1  0  0  0  0
  2  3  2  0  0  0  0
  3  4  1  0  0  0  0
  4  5  2  0  0  0  0
  5  6  1  0  0  0  0
  1  6  2  0  0  0  0
  7  8  1  0  0  0  0
  8  9  1  0  0  0  0
  9 10  2  0  0  0  0
 10 11  1  0  0  0  0
 12 13  1  0  0  0  0
 13 14  2  0  0  0  0
 14 15  1  0  0  0  0
 15 16  2  0  0  0  0
 16 17  1  0  0  0  0
 12 17  2  0  0  0  0
 10 12  1  0  0  0  0
  8 18  1  0  0  0  0
  1  8  1  0  0  0  0
M  END
>  <cdx:groupId>
57

>  <cdx:fragmentId>
27

$$$$
