135.cdx
  Mrv1902 05222410252D          

 34 37  0  0  0  0            999 V2000
    2.9081   -7.4044    0.0000 C   0  0  0  0  0  0  0  0  0  0  0  0
    2.9081   -8.2294    0.0000 C   0  0  0  0  0  0  0  0  0  0  0  0
    3.6226   -8.6419    0.0000 C   0  0  0  0  0  0  0  0  0  0  0  0
    4.3371   -8.2294    0.0000 C   0  0  0  0  0  0  0  0  0  0  0  0
    4.3371   -7.4044    0.0000 C   0  0  0  0  0  0  0  0  0  0  0  0
    3.6226   -6.9919    0.0000 C   0  0  0  0  0  0  0  0  0  0  0  0
    5.0515   -6.9919    0.0000 C   0  0  1  0  0  0  0  0  0  0  0  0
    5.8484   -7.2054    0.0000 O   0  0  0  0  0  0  0  0  0  0  0  0
    6.2978   -6.5135    0.0000 C   0  0  0  0  0  0  0  0  0  0  0  0
    5.7786   -5.8724    0.0000 C   0  0  1  0  0  0  0  0  0  0  0  0
    5.0084   -6.1680    0.0000 C   0  0  2  0  0  0  0  0  0  0  0  0
    5.7354   -5.0485    0.0000 C   0  0  2  0  0  0  0  0  0  0  0  0
    4.9385   -4.8350    0.0000 O   0  0  0  0  0  0  0  0  0  0  0  0
    4.4892   -5.5269    0.0000 C   0  0  0  0  0  0  0  0  0  0  0  0
    4.2382   -6.4637    0.0000 H   0  0  0  0  0  0  0  0  0  0  0  0
    6.5488   -5.5767    0.0000 H   0  0  0  0  0  0  0  0  0  0  0  0
    6.3765   -4.5293    0.0000 C   0  0  0  0  0  0  0  0  0  0  0  0
    7.1467   -4.8249    0.0000 C   0  0  0  0  0  0  0  0  0  0  0  0
    7.7879   -4.3058    0.0000 C   0  0  0  0  0  0  0  0  0  0  0  0
    7.6588   -3.4909    0.0000 C   0  0  0  0  0  0  0  0  0  0  0  0
    6.8886   -3.1953    0.0000 C   0  0  0  0  0  0  0  0  0  0  0  0
    6.2475   -3.7145    0.0000 C   0  0  0  0  0  0  0  0  0  0  0  0
    6.7596   -2.3804    0.0000 O   0  0  0  0  0  0  0  0  0  0  0  0
    8.3000   -2.9717    0.0000 O   0  0  0  0  0  0  0  0  0  0  0  0
    8.5581   -4.6014    0.0000 O   0  0  0  0  0  0  0  0  0  0  0  0
    7.3912   -1.8497    0.0000 C   0  0  0  0  0  0  0  0  0  0  0  0
    9.0702   -3.2674    0.0000 C   0  0  0  0  0  0  0  0  0  0  0  0
    9.1992   -4.0822    0.0000 C   0  0  0  0  0  0  0  0  0  0  0  0
    2.1937   -6.9919    0.0000 O   0  0  0  0  0  0  0  0  0  0  0  0
    2.1937   -8.6419    0.0000 O   0  0  0  0  0  0  0  0  0  0  0  0
    3.6226   -9.4669    0.0000 O   0  0  0  0  0  0  0  0  0  0  0  0
    4.3371   -9.8794    0.0000 C   0  0  0  0  0  0  0  0  0  0  0  0
    1.4792   -8.2294    0.0000 C   0  0  0  0  0  0  0  0  0  0  0  0
    1.4792   -7.4044    0.0000 C   0  0  0  0  0  0  0  0  0  0  0  0
  1  2  2  0  0  0  0
  2  3  1  0  0  0  0
  3  4  2  0  0  0  0
  4  5  1  0  0  0  0
  5  6  2  0  0  0  0
  6  1  1  0  0  0  0
  7  5  1  6  0  0  0
  7  8  1  0  0  0  0
  8  9  1  0  0  0  0
  9 10  1  0  0  0  0
 10 11  1  0  0  0  0
 11  7  1  0  0  0  0
 10 12  1  0  0  0  0
 12 13  1  0  0  0  0
 13 14  1  0  0  0  0
 14 11  1  0  0  0  0
 11 15  1  6  0  0  0
 10 16  1  6  0  0  0
 12 17  1  6  0  0  0
 17 18  2  0  0  0  0
 18 19  1  0  0  0  0
 19 20  2  0  0  0  0
 20 21  1  0  0  0  0
 21 22  2  0  0  0  0
 22 17  1  0  0  0  0
 21 23  1  0  0  0  0
 20 24  1  0  0  0  0
 19 25  1  0  0  0  0
 23 26  1  0  0  0  0
 24 27  1  0  0  0  0
 25 28  1  0  0  0  0
  1 29  1  0  0  0  0
  2 30  1  0  0  0  0
  3 31  1  0  0  0  0
 31 32  1  0  0  0  0
 30 33  1  0  0  0  0
 29 34  1  0  0  0  0
M  END
>  <cdx:fragmentId>
89

$$$$
