5376397.cdx
  Mrv1902 05222410192D          

 16 16  0  0  0  0            999 V2000
   14.9337   -9.7606    0.0000 C   0  0  0  0  0  0  0  0  0  0  0  0
   15.6482  -10.1731    0.0000 C   0  0  0  0  0  0  0  0  0  0  0  0
   16.3626   -9.7606    0.0000 C   0  0  0  0  0  0  0  0  0  0  0  0
   16.3626   -8.9356    0.0000 C   0  0  0  0  0  0  0  0  0  0  0  0
   15.6482   -8.5231    0.0000 C   0  0  0  0  0  0  0  0  0  0  0  0
   14.9337   -8.9356    0.0000 C   0  0  0  0  0  0  0  0  0  0  0  0
   15.6482   -7.6981    0.0000 C   0  0  0  0  0  0  0  0  0  0  0  0
   14.9337   -7.2856    0.0000 C   0  0  0  0  0  0  0  0  0  0  0  0
   14.9337   -6.4606    0.0000 C   0  0  0  0  0  0  0  0  0  0  0  0
   14.2192   -7.6981    0.0000 N   0  3  0  0  0  0  0  0  0  0  0  0
   14.2192   -8.5231    0.0000 O   0  0  0  0  0  0  0  0  0  0  0  0
   13.5047   -7.2856    0.0000 O   0  5  0  0  0  0  0  0  0  0  0  0
   17.0771  -10.1731    0.0000 O   0  0  0  0  0  0  0  0  0  0  0  0
   17.7916   -9.7606    0.0000 C   0  0  0  0  0  0  0  0  0  0  0  0
   14.2192  -10.1731    0.0000 O   0  0  0  0  0  0  0  0  0  0  0  0
   13.5047   -9.7606    0.0000 C   0  0  0  0  0  0  0  0  0  0  0  0
  1  2  1  0  0  0  0
  2  3  2  0  0  0  0
  3  4  1  0  0  0  0
  4  5  2  0  0  0  0
  5  6  1  0  0  0  0
  1  6  2  0  0  0  0
  7  8  2  0  0  0  0
  8  9  1  0  0  0  0
 10 11  2  0  0  0  0
 10 12  1  0  0  0  0
  8 10  1  0  0  0  0
  5  7  1  0  0  0  0
 13 14  1  0  0  0  0
  3 13  1  0  0  0  0
 15 16  1  0  0  0  0
  1 15  1  0  0  0  0
M  CHG  2  10   1  12  -1
M  END
>  <cdx:groupId>
32473

>  <cdx:fragmentId>
32428

$$$$
