37632.cdx
  Mrv1902 05222410232D          

 26 27  0  0  0  0            999 V2000
    3.9330   -6.8062    0.0000 C   0  0  0  0  0  0  0  0  0  0  0  0
    3.9330   -7.6313    0.0000 C   0  0  0  0  0  0  0  0  0  0  0  0
    4.6475   -8.0437    0.0000 C   0  0  0  0  0  0  0  0  0  0  0  0
    5.3620   -7.6313    0.0000 C   0  0  0  0  0  0  0  0  0  0  0  0
    5.3620   -6.8062    0.0000 C   0  0  0  0  0  0  0  0  0  0  0  0
    4.6475   -6.3937    0.0000 C   0  0  0  0  0  0  0  0  0  0  0  0
    6.0764   -6.3937    0.0000 C   0  0  0  0  0  0  0  0  0  0  0  0
    6.7909   -6.8062    0.0000 C   0  0  0  0  0  0  0  0  0  0  0  0
    6.0764   -5.5687    0.0000 O   0  0  0  0  0  0  0  0  0  0  0  0
    7.5054   -6.3937    0.0000 C   0  0  0  0  0  0  0  0  0  0  0  0
    6.7909   -7.6313    0.0000 O   0  0  0  0  0  0  0  0  0  0  0  0
    8.2199   -6.8062    0.0000 O   0  0  0  0  0  0  0  0  0  0  0  0
    3.2186   -6.3937    0.0000 O   0  0  0  0  0  0  0  0  0  0  0  0
    3.2186   -8.0437    0.0000 O   0  0  0  0  0  0  0  0  0  0  0  0
    2.5041   -6.8062    0.0000 C   0  0  0  0  0  0  0  0  0  0  0  0
    8.9343   -6.3937    0.0000 C   0  0  2  0  0  0  0  0  0  0  0  0
    9.6488   -6.8062    0.0000 O   0  0  0  0  0  0  0  0  0  0  0  0
   10.3633   -6.3937    0.0000 C   0  0  1  0  0  0  0  0  0  0  0  0
   10.3633   -5.5687    0.0000 C   0  0  2  0  0  0  0  0  0  0  0  0
    9.6488   -5.1563    0.0000 C   0  0  1  0  0  0  0  0  0  0  0  0
    8.9343   -5.5687    0.0000 C   0  0  1  0  0  0  0  0  0  0  0  0
   11.0777   -6.8062    0.0000 C   0  0  0  0  0  0  0  0  0  0  0  0
    9.6488   -4.3313    0.0000 O   0  0  0  0  0  0  0  0  0  0  0  0
   11.0777   -5.1562    0.0000 O   0  0  0  0  0  0  0  0  0  0  0  0
    8.2199   -5.1562    0.0000 O   0  0  0  0  0  0  0  0  0  0  0  0
   11.7922   -6.3937    0.0000 O   0  0  0  0  0  0  0  0  0  0  0  0
  1  2  2  0  0  0  0
  2  3  1  0  0  0  0
  3  4  2  0  0  0  0
  4  5  1  0  0  0  0
  5  6  2  0  0  0  0
  6  1  1  0  0  0  0
  5  7  1  0  0  0  0
  7  8  1  0  0  0  0
  7  9  1  0  0  0  0
  8 10  1  0  0  0  0
  8 11  1  0  0  0  0
 10 12  1  0  0  0  0
  1 13  1  0  0  0  0
  2 14  1  0  0  0  0
 13 15  1  0  0  0  0
 16 12  1  1  0  0  0
 16 17  1  0  0  0  0
 17 18  1  0  0  0  0
 18 19  1  0  0  0  0
 19 20  1  0  0  0  0
 20 21  1  0  0  0  0
 21 16  1  0  0  0  0
 18 22  1  1  0  0  0
 20 23  1  1  0  0  0
 19 24  1  6  0  0  0
 21 25  1  6  0  0  0
 22 26  1  0  0  0  0
M  END
>  <cdx:fragmentId>
545

$$$$
