37630.cdx
  Mrv1902 05222410242D          

 27 27  0  0  0  0            999 V2000
    6.9834   -9.0529    0.0000 C   0  0  0  0  0  0  0  0  0  0  0  0
    4.8387  -10.2881    0.0000 C   0  0  0  0  0  0  0  0  0  0  0  0
    5.5536   -9.8763    0.0000 C   0  0  0  0  0  0  0  0  0  0  0  0
    5.5545   -9.0513    0.0000 N   0  0  0  0  0  0  0  0  0  0  0  0
    4.8405   -8.6381    0.0000 C   0  0  0  0  0  0  0  0  0  0  0  0
    4.1255   -9.0498    0.0000 C   0  0  0  0  0  0  0  0  0  0  0  0
    4.1246   -9.8748    0.0000 C   0  0  0  0  0  0  0  0  0  0  0  0
    6.2694   -8.6396    0.0000 C   0  0  0  0  0  0  0  0  0  0  0  0
    6.2703   -7.8146    0.0000 O   0  0  0  0  0  0  0  0  0  0  0  0
   19.8439   -9.0668    0.0000 C   0  0  0  0  0  0  0  0  0  0  0  0
   19.1299   -8.6535    0.0000 C   0  0  0  0  0  0  0  0  0  0  0  0
   18.4150   -9.0652    0.0000 C   0  0  0  0  0  0  0  0  0  0  0  0
   17.7009   -8.6520    0.0000 C   0  0  0  0  0  0  0  0  0  0  0  0
   16.9860   -9.0637    0.0000 C   0  0  0  0  0  0  0  0  0  0  0  0
   16.2720   -8.6504    0.0000 C   0  0  0  0  0  0  0  0  0  0  0  0
   15.5571   -9.0622    0.0000 C   0  0  0  0  0  0  0  0  0  0  0  0
   14.8430   -8.6489    0.0000 C   0  0  0  0  0  0  0  0  0  0  0  0
   14.1281   -9.0606    0.0000 C   0  0  0  0  0  0  0  0  0  0  0  0
   13.4141   -8.6473    0.0000 C   0  0  0  0  0  0  0  0  0  0  0  0
   12.6992   -9.0591    0.0000 C   0  0  0  0  0  0  0  0  0  0  0  0
   11.9852   -8.6458    0.0000 C   0  0  0  0  0  0  0  0  0  0  0  0
   11.2702   -9.0575    0.0000 C   0  0  0  0  0  0  0  0  0  0  0  0
   10.5562   -8.6443    0.0000 C   0  0  0  0  0  0  0  0  0  0  0  0
    9.8413   -9.0560    0.0000 C   0  0  0  0  0  0  0  0  0  0  0  0
    9.1273   -8.6427    0.0000 C   0  0  0  0  0  0  0  0  0  0  0  0
    8.4124   -9.0544    0.0000 C   0  0  0  0  0  0  0  0  0  0  0  0
    7.6983   -8.6412    0.0000 C   0  0  0  0  0  0  0  0  0  0  0  0
  8  1  1  0  0  0  0
  2  3  1  0  0  0  0
  3  4  1  0  0  0  0
  4  5  1  0  0  0  0
  5  6  1  0  0  0  0
  6  7  1  0  0  0  0
  7  2  1  0  0  0  0
  4  8  1  0  0  0  0
 11 10  1  0  0  0  0
 12 11  1  0  0  0  0
 13 12  1  0  0  0  0
 14 13  1  0  0  0  0
 15 14  1  0  0  0  0
 16 15  1  0  0  0  0
 17 16  1  0  0  0  0
 18 17  1  0  0  0  0
 19 18  1  0  0  0  0
 20 19  1  0  0  0  0
 21 20  1  0  0  0  0
 22 21  1  0  0  0  0
 23 22  1  0  0  0  0
 24 23  1  0  0  0  0
 25 24  1  0  0  0  0
 26 25  2  0  0  0  0
 27 26  1  0  0  0  0
  1 27  2  0  0  0  0
  8  9  2  0  0  0  0
M  END
>  <cdx:fragmentId>
430

$$$$
