37634.cdx
  Mrv1902 05222410242D          

 22 24  0  0  0  0            999 V2000
    5.7068   -5.3763    0.0000 C   0  0  0  0  0  0  0  0  0  0  0  0
    5.7068   -6.2012    0.0000 C   0  0  0  0  0  0  0  0  0  0  0  0
    6.4213   -6.6137    0.0000 C   0  0  0  0  0  0  0  0  0  0  0  0
    7.1357   -6.2012    0.0000 C   0  0  0  0  0  0  0  0  0  0  0  0
    7.1357   -5.3763    0.0000 C   0  0  0  0  0  0  0  0  0  0  0  0
    6.4213   -4.9637    0.0000 C   0  0  0  0  0  0  0  0  0  0  0  0
    4.9923   -4.9637    0.0000 C   0  0  0  0  0  0  0  0  0  0  0  0
    4.2778   -5.3763    0.0000 C   0  0  0  0  0  0  0  0  0  0  0  0
    4.2778   -6.2012    0.0000 C   0  0  0  0  0  0  0  0  0  0  0  0
    4.9923   -6.6137    0.0000 C   0  0  0  0  0  0  0  0  0  0  0  0
    7.8502   -6.6137    0.0000 C   0  0  0  0  0  0  0  0  0  0  0  0
    8.5647   -6.2012    0.0000 C   0  0  0  0  0  0  0  0  0  0  0  0
    8.5647   -5.3763    0.0000 C   0  0  0  0  0  0  0  0  0  0  0  0
    7.8502   -4.9637    0.0000 C   0  0  0  0  0  0  0  0  0  0  0  0
    6.4213   -7.4387    0.0000 O   0  0  0  0  0  0  0  0  0  0  0  0
    6.4213   -4.1387    0.0000 O   0  0  0  0  0  0  0  0  0  0  0  0
    7.8502   -4.1387    0.0000 O   0  0  0  0  0  0  0  0  0  0  0  0
    9.2791   -4.9637    0.0000 C   0  0  0  0  0  0  0  0  0  0  0  0
    9.9936   -5.3762    0.0000 O   0  0  0  0  0  0  0  0  0  0  0  0
    9.2791   -4.1387    0.0000 O   0  0  0  0  0  0  0  0  0  0  0  0
    9.2791   -6.6137    0.0000 O   0  0  0  0  0  0  0  0  0  0  0  0
    9.9936   -6.2012    0.0000 C   0  0  0  0  0  0  0  0  0  0  0  0
  1  2  2  0  0  0  0
  2  3  1  0  0  0  0
  3  4  1  0  0  0  0
  4  5  2  0  0  0  0
  5  6  1  0  0  0  0
  6  1  1  0  0  0  0
  1  7  1  0  0  0  0
  7  8  2  0  0  0  0
  8  9  1  0  0  0  0
  9 10  2  0  0  0  0
 10  2  1  0  0  0  0
  4 11  1  0  0  0  0
 11 12  2  0  0  0  0
 12 13  1  0  0  0  0
 13 14  2  0  0  0  0
 14  5  1  0  0  0  0
  3 15  2  0  0  0  0
  6 16  2  0  0  0  0
 14 17  1  0  0  0  0
 13 18  1  0  0  0  0
 18 19  1  0  0  0  0
 18 20  2  0  0  0  0
 12 21  1  0  0  0  0
 21 22  1  0  0  0  0
M  END
>  <cdx:fragmentId>
24

$$$$
