131.cdx
  Mrv1902 05222410242D          

 14 13  0  0  0  0            999 V2000
    3.8526   -7.8897    0.0000 C   0  0  0  0  0  0  0  0  0  0  0  0
    3.1382   -8.3022    0.0000 C   0  0  0  0  0  0  0  0  0  0  0  0
    3.8526   -7.0647    0.0000 O   0  0  0  0  0  0  0  0  0  0  0  0
    4.5671   -8.3022    0.0000 O   0  0  0  0  0  0  0  0  0  0  0  0
    5.2816   -7.8897    0.0000 C   0  0  0  0  0  0  0  0  0  0  0  0
    5.9961   -8.3022    0.0000 C   0  0  0  0  0  0  0  0  0  0  0  0
    6.7105   -7.8897    0.0000 C   0  0  0  0  0  0  0  0  0  0  0  0
    7.4250   -8.3022    0.0000 C   0  0  0  0  0  0  0  0  0  0  0  0
    8.1395   -8.7147    0.0000 C   0  0  0  0  0  0  0  0  0  0  0  0
    8.8539   -9.1272    0.0000 C   0  0  0  0  0  0  0  0  0  0  0  0
    9.5684   -8.7147    0.0000 C   0  0  0  0  0  0  0  0  0  0  0  0
   10.2829   -9.1272    0.0000 C   0  0  0  0  0  0  0  0  0  0  0  0
   10.9974   -8.7147    0.0000 C   0  0  0  0  0  0  0  0  0  0  0  0
   11.7118   -9.1272    0.0000 C   0  0  0  0  0  0  0  0  0  0  0  0
  1  2  1  0  0  0  0
  1  3  2  0  0  0  0
  1  4  1  0  0  0  0
  5  6  1  0  0  0  0
  6  7  2  0  0  0  0
  7  8  1  0  0  0  0
  8  9  3  0  0  0  0
  9 10  1  0  0  0  0
 10 11  2  0  0  0  0
 11 12  1  0  0  0  0
 12 13  1  0  0  0  0
 13 14  1  0  0  0  0
  4  5  1  0  0  0  0
M  END
>  <cdx:fragmentId>
509

$$$$
