37638.cdx
  Mrv1902 05222410212D          

 29 31  0  0  0  0            999 V2000
    6.9030   -5.8575    0.0000 C   0  0  2  0  0  0  0  0  0  0  0  0
    6.9030   -6.6825    0.0000 C   0  0  2  0  0  0  0  0  0  0  0  0
    7.6175   -7.0950    0.0000 C   0  0  1  0  0  0  0  0  0  0  0  0
    8.3320   -6.6825    0.0000 C   0  0  2  0  0  0  0  0  0  0  0  0
    8.3320   -5.8575    0.0000 C   0  0  1  0  0  0  0  0  0  0  0  0
    7.6175   -5.4450    0.0000 O   0  0  0  0  0  0  0  0  0  0  0  0
    6.1886   -5.4450    0.0000 C   0  0  0  0  0  0  0  0  0  0  0  0
    9.0464   -5.4450    0.0000 O   0  0  0  0  0  0  0  0  0  0  0  0
    7.6175   -7.9200    0.0000 O   0  0  0  0  0  0  0  0  0  0  0  0
    9.0464   -7.0950    0.0000 O   0  0  0  0  0  0  0  0  0  0  0  0
    6.1886   -7.0950    0.0000 O   0  0  0  0  0  0  0  0  0  0  0  0
    5.4741   -5.8575    0.0000 O   0  0  0  0  0  0  0  0  0  0  0  0
    9.7609   -5.8575    0.0000 C   0  0  0  0  0  0  0  0  0  0  0  0
    9.7609   -6.6825    0.0000 C   0  0  0  0  0  0  0  0  0  0  0  0
   10.4754   -7.0950    0.0000 C   0  0  0  0  0  0  0  0  0  0  0  0
   11.1899   -6.6825    0.0000 C   0  0  0  0  0  0  0  0  0  0  0  0
   11.1899   -5.8575    0.0000 C   0  0  0  0  0  0  0  0  0  0  0  0
   10.4754   -5.4450    0.0000 C   0  0  0  0  0  0  0  0  0  0  0  0
   10.4754   -7.9200    0.0000 O   0  0  0  0  0  0  0  0  0  0  0  0
   11.9043   -5.4450    0.0000 O   0  0  0  0  0  0  0  0  0  0  0  0
    4.7596   -5.4450    0.0000 C   0  0  0  0  0  0  0  0  0  0  0  0
    4.0451   -5.8575    0.0000 C   0  0  0  0  0  0  0  0  0  0  0  0
    4.7596   -4.6200    0.0000 O   0  0  0  0  0  0  0  0  0  0  0  0
    3.3307   -5.4450    0.0000 C   0  0  0  0  0  0  0  0  0  0  0  0
    2.6162   -5.8575    0.0000 C   0  0  0  0  0  0  0  0  0  0  0  0
    2.6162   -6.6825    0.0000 C   0  0  0  0  0  0  0  0  0  0  0  0
    3.3307   -7.0950    0.0000 C   0  0  0  0  0  0  0  0  0  0  0  0
    4.0451   -6.6825    0.0000 C   0  0  0  0  0  0  0  0  0  0  0  0
    1.9017   -7.0950    0.0000 O   0  0  0  0  0  0  0  0  0  0  0  0
  1  2  1  0  0  0  0
  2  3  1  0  0  0  0
  3  4  1  0  0  0  0
  4  5  1  0  0  0  0
  5  6  1  0  0  0  0
  6  1  1  0  0  0  0
  1  7  1  1  0  0  0
  5  8  1  1  0  0  0
  3  9  1  1  0  0  0
  4 10  1  6  0  0  0
  2 11  1  6  0  0  0
  7 12  1  0  0  0  0
  8 13  1  0  0  0  0
 13 14  2  0  0  0  0
 14 15  1  0  0  0  0
 15 16  2  0  0  0  0
 16 17  1  0  0  0  0
 17 18  2  0  0  0  0
 18 13  1  0  0  0  0
 15 19  1  0  0  0  0
 17 20  1  0  0  0  0
 12 21  1  0  0  0  0
 21 22  1  0  0  0  0
 21 23  2  0  0  0  0
 22 24  2  0  0  0  0
 24 25  1  0  0  0  0
 25 26  2  0  0  0  0
 26 27  1  0  0  0  0
 27 28  2  0  0  0  0
 28 22  1  0  0  0  0
 26 29  1  0  0  0  0
M  END
>  <cdx:fragmentId>
176

$$$$
