136.cdx
  Mrv1902 05222410252D          

 18 20  0  0  0  0            999 V2000
    7.0438   -5.7350    0.0000 N   0  0  0  0  0  0  0  0  0  0  0  0
    7.7113   -6.2199    0.0000 C   0  0  0  0  0  0  0  0  0  0  0  0
    7.4563   -7.0046    0.0000 C   0  0  0  0  0  0  0  0  0  0  0  0
    6.6313   -7.0046    0.0000 C   0  0  0  0  0  0  0  0  0  0  0  0
    6.0793   -7.6177    0.0000 C   0  0  0  0  0  0  0  0  0  0  0  0
    5.2723   -7.4461    0.0000 C   0  0  0  0  0  0  0  0  0  0  0  0
    5.0174   -6.6615    0.0000 C   0  0  0  0  0  0  0  0  0  0  0  0
    5.5694   -6.0484    0.0000 C   0  0  0  0  0  0  0  0  0  0  0  0
    6.3764   -6.2199    0.0000 C   0  0  0  0  0  0  0  0  0  0  0  0
    8.5182   -6.0484    0.0000 C   0  0  0  0  0  0  0  0  0  0  0  0
    8.0084   -7.6177    0.0000 C   0  0  0  0  0  0  0  0  0  0  0  0
    8.8153   -7.4461    0.0000 C   0  0  0  0  0  0  0  0  0  0  0  0
    9.0703   -6.6615    0.0000 N   0  0  0  0  0  0  0  0  0  0  0  0
    8.7732   -5.2638    0.0000 C   0  0  0  0  0  0  0  0  0  0  0  0
    8.2211   -4.6507    0.0000 O   0  0  0  0  0  0  0  0  0  0  0  0
    9.5801   -5.0923    0.0000 O   0  0  0  0  0  0  0  0  0  0  0  0
    7.7534   -8.4023    0.0000 O   0  0  0  0  0  0  0  0  0  0  0  0
    9.8351   -4.3077    0.0000 C   0  0  0  0  0  0  0  0  0  0  0  0
  1  2  1  0  0  0  0
  2  3  2  0  0  0  0
  3  4  1  0  0  0  0
  4  5  1  0  0  0  0
  5  6  2  0  0  0  0
  6  7  1  0  0  0  0
  7  8  2  0  0  0  0
  8  9  1  0  0  0  0
  1  9  1  0  0  0  0
  4  9  2  0  0  0  0
 11 12  2  0  0  0  0
 12 13  1  0  0  0  0
 10 13  2  0  0  0  0
  2 10  1  0  0  0  0
  3 11  1  0  0  0  0
 14 15  2  0  0  0  0
 14 16  1  0  0  0  0
 10 14  1  0  0  0  0
 11 17  1  0  0  0  0
 16 18  1  0  0  0  0
M  END
>  <cdx:fragmentId>
5

$$$$
