10376477.cdx
  Mrv1902 05222410232D          

 17 18  0  0  0  0            999 V2000
    8.5264  -13.7332    0.0000 C   0  0  0  0  0  0  0  0  0  0  0  0
    9.2409  -14.1457    0.0000 C   0  0  0  0  0  0  0  0  0  0  0  0
    9.2409  -14.9707    0.0000 C   0  0  0  0  0  0  0  0  0  0  0  0
    8.5264  -15.3832    0.0000 C   0  0  0  0  0  0  0  0  0  0  0  0
    7.8119  -14.9707    0.0000 C   0  0  0  0  0  0  0  0  0  0  0  0
    7.8119  -14.1457    0.0000 C   0  0  0  0  0  0  0  0  0  0  0  0
    8.5264  -12.9082    0.0000 O   0  0  0  0  0  0  0  0  0  0  0  0
    9.9553  -15.3832    0.0000 O   0  0  0  0  0  0  0  0  0  0  0  0
    7.0975  -15.3832    0.0000 C   0  0  0  0  0  0  0  0  0  0  0  0
    6.3830  -14.9707    0.0000 C   0  0  0  0  0  0  0  0  0  0  0  0
    5.6685  -15.3832    0.0000 C   0  0  0  0  0  0  0  0  0  0  0  0
    5.6685  -16.2082    0.0000 C   0  0  0  0  0  0  0  0  0  0  0  0
    4.9540  -16.6207    0.0000 C   0  0  0  0  0  0  0  0  0  0  0  0
    4.2396  -16.2082    0.0000 C   0  0  0  0  0  0  0  0  0  0  0  0
    4.2396  -15.3832    0.0000 C   0  0  0  0  0  0  0  0  0  0  0  0
    4.9540  -14.9707    0.0000 C   0  0  0  0  0  0  0  0  0  0  0  0
    9.9553  -13.7332    0.0000 C   0  0  0  0  0  0  0  0  0  0  0  0
  1  2  1  0  0  0  0
  2  3  2  0  0  0  0
  3  4  1  0  0  0  0
  4  5  2  0  0  0  0
  5  6  1  0  0  0  0
  1  6  2  0  0  0  0
  1  7  1  0  0  0  0
  3  8  1  0  0  0  0
  9 10  1  0  0  0  0
 11 12  1  0  0  0  0
 12 13  2  0  0  0  0
 13 14  1  0  0  0  0
 14 15  2  0  0  0  0
 15 16  1  0  0  0  0
 11 16  2  0  0  0  0
 10 11  1  0  0  0  0
  5  9  1  0  0  0  0
  2 17  1  0  0  0  0
M  END
>  <cdx:groupId>
47667

>  <cdx:fragmentId>
47638

$$$$
