146.cdx
  Mrv1902 05222410262D          

 16 18  0  0  0  0            999 V2000
    2.1341   -5.2594    0.0000 C   0  0  0  0  0  0  0  0  0  0  0  0
    2.1341   -6.0844    0.0000 C   0  0  0  0  0  0  0  0  0  0  0  0
    2.7791   -6.5988    0.0000 C   0  0  0  0  0  0  0  0  0  0  0  0
    3.5834   -6.4152    0.0000 C   0  0  1  0  0  0  0  0  0  0  0  0
    3.9413   -5.6719    0.0000 C   0  0  0  0  0  0  0  0  0  0  0  0
    3.5834   -4.9286    0.0000 C   0  0  2  0  0  0  0  0  0  0  0  0
    2.7791   -4.7450    0.0000 C   0  0  2  0  0  0  0  0  0  0  0  0
    4.7589   -5.5611    0.0000 C   0  0  1  0  0  0  0  0  0  0  0  0
    4.9062   -4.7494    0.0000 C   0  0  0  0  0  0  0  0  0  0  0  0
    4.1797   -4.3584    0.0000 C   0  0  0  0  0  0  0  0  0  0  0  0
    2.5655   -7.3956    0.0000 C   0  0  0  0  0  0  0  0  0  0  0  0
    3.3699   -4.1317    0.0000 C   0  0  0  0  0  0  0  0  0  0  0  0
    5.1714   -6.2756    0.0000 C   0  0  0  0  0  0  0  0  0  0  0  0
    4.7589   -6.9901    0.0000 C   0  0  0  0  0  0  0  0  0  0  0  0
    5.9964   -6.2756    0.0000 C   0  0  0  0  0  0  0  0  0  0  0  0
    2.7791   -5.5700    0.0000 O   0  0  0  0  0  0  0  0  0  0  0  0
  1  2  1  0  0  0  0
  2  3  1  0  0  0  0
  3  4  1  0  0  0  0
  4  5  1  0  0  0  0
  5  6  1  0  0  0  0
  6  7  1  0  0  0  0
  7  1  1  0  0  0  0
  5  8  1  0  0  0  0
  8  9  1  0  0  0  0
  9 10  1  0  0  0  0
 10  6  1  0  0  0  0
  3 11  2  0  0  0  0
  6 12  1  1  0  0  0
  8 13  1  1  0  0  0
 13 14  1  0  0  0  0
 13 15  1  0  0  0  0
  7 16  1  1  0  0  0
  4 16  1  1  0  0  0
M  END
>  <cdx:fragmentId>
156

$$$$
