37641.cdx
  Mrv1902 05222410282D          

 41 46  0  0  0  0            999 V2000
    5.2530   -7.9681    0.0000 C   0  0  0  0  0  0  0  0  0  0  0  0
    5.2530   -8.7931    0.0000 C   0  0  2  0  0  0  0  0  0  0  0  0
    5.9675   -9.2056    0.0000 C   0  0  1  0  0  0  0  0  0  0  0  0
    6.6820   -8.7931    0.0000 C   0  0  0  0  0  0  0  0  0  0  0  0
    6.6820   -7.9681    0.0000 C   0  0  2  0  0  0  0  0  0  0  0  0
    5.9675   -7.5556    0.0000 C   0  0  1  0  0  0  0  0  0  0  0  0
    7.3964   -9.2056    0.0000 C   0  0  2  0  0  0  0  0  0  0  0  0
    8.1109   -8.7931    0.0000 C   0  0  2  0  0  0  0  0  0  0  0  0
    8.1109   -7.9681    0.0000 C   0  0  1  0  0  0  0  0  0  0  0  0
    7.3964   -7.5556    0.0000 C   0  0  2  0  0  0  0  0  0  0  0  0
    7.0729  -10.0025    0.0000 O   0  0  0  0  0  0  0  0  0  0  0  0
    4.5386   -9.2056    0.0000 O   0  0  0  0  0  0  0  0  0  0  0  0
    5.9675   -6.7306    0.0000 O   0  0  0  0  0  0  0  0  0  0  0  0
    6.6820   -7.1431    0.0000 C   0  0  0  0  0  0  0  0  0  0  0  0
    5.5550   -9.9201    0.0000 C   0  0  0  0  0  0  0  0  0  0  0  0
    8.1109   -7.1431    0.0000 C   0  0  0  0  0  0  0  0  0  0  0  0
    7.3964   -6.7306    0.0000 C   0  0  0  0  0  0  0  0  0  0  0  0
    5.2530   -6.3181    0.0000 C   0  0  0  0  0  0  0  0  0  0  0  0
    4.4561   -6.5317    0.0000 C   0  0  0  0  0  0  0  0  0  0  0  0
    3.8728   -5.9483    0.0000 C   0  0  0  0  0  0  0  0  0  0  0  0
    3.0759   -6.1618    0.0000 C   0  0  0  0  0  0  0  0  0  0  0  0
    5.3607   -5.5002    0.0000 O   0  0  0  0  0  0  0  0  0  0  0  0
    4.2426   -7.3285    0.0000 C   0  0  0  0  0  0  0  0  0  0  0  0
    8.8955   -9.0481    0.0000 O   0  0  0  0  0  0  0  0  0  0  0  0
    9.3805   -8.3806    0.0000 C   0  0  0  0  0  0  0  0  0  0  0  0
    8.8955   -7.7132    0.0000 C   0  0  0  0  0  0  0  0  0  0  0  0
   10.1651   -8.1257    0.0000 C   0  0  0  0  0  0  0  0  0  0  0  0
   10.1651   -7.3007    0.0000 C   0  0  2  0  0  0  0  0  0  0  0  0
    9.3805   -7.0457    0.0000 C   0  0  0  0  0  0  0  0  0  0  0  0
   10.8325   -6.8158    0.0000 C   0  0  0  0  0  0  0  0  0  0  0  0
   11.6171   -7.0707    0.0000 C   0  0  0  0  0  0  0  0  0  0  0  0
   12.1021   -6.4033    0.0000 O   0  0  0  0  0  0  0  0  0  0  0  0
   11.6171   -5.7358    0.0000 C   0  0  0  0  0  0  0  0  0  0  0  0
   10.8325   -5.9908    0.0000 C   0  0  0  0  0  0  0  0  0  0  0  0
    9.1255   -6.2611    0.0000 C   0  0  0  0  0  0  0  0  0  0  0  0
    3.8241   -8.7931    0.0000 C   0  0  0  0  0  0  0  0  0  0  0  0
    3.1096   -9.2056    0.0000 C   0  0  0  0  0  0  0  0  0  0  0  0
    3.8241   -7.9681    0.0000 O   0  0  0  0  0  0  0  0  0  0  0  0
    6.3029  -10.0025    0.0000 C   0  0  0  0  0  0  0  0  0  0  0  0
    8.1109   -6.3181    0.0000 C   0  0  0  0  0  0  0  0  0  0  0  0
    8.1109   -5.4931    0.0000 O   0  0  0  0  0  0  0  0  0  0  0  0
  1  2  1  0  0  0  0
  2  3  1  0  0  0  0
  3  4  1  0  0  0  0
  4  5  1  0  0  0  0
  5  6  1  0  0  0  0
  6  1  1  0  0  0  0
  4  7  1  0  0  0  0
  7  8  1  0  0  0  0
  8  9  1  0  0  0  0
  9 10  1  0  0  0  0
 10  5  1  0  0  0  0
  7 11  1  6  0  0  0
  2 12  1  6  0  0  0
  6 13  1  6  0  0  0
  5 14  1  1  0  0  0
  3 15  1  0  0  0  0
  9 16  1  1  0  0  0
 10 17  1  1  0  0  0
 13 18  1  0  0  0  0
 18 19  1  0  0  0  0
 19 20  2  0  0  0  0
 20 21  1  0  0  0  0
 18 22  2  0  0  0  0
 19 23  1  0  0  0  0
  8 24  1  6  0  0  0
 24 25  1  0  0  0  0
 25 26  1  0  0  0  0
 26  9  1  0  0  0  0
 25 27  1  0  0  0  0
 27 28  1  0  0  0  0
 28 29  1  0  0  0  0
 29 26  2  0  0  0  0
 28 30  1  6  0  0  0
 30 31  2  0  0  0  0
 31 32  1  0  0  0  0
 32 33  1  0  0  0  0
 33 34  2  0  0  0  0
 34 30  1  0  0  0  0
 29 35  1  0  0  0  0
 12 36  1  0  0  0  0
 36 37  1  0  0  0  0
 36 38  2  0  0  0  0
 11 39  1  0  0  0  0
  3 39  1  6  0  0  0
 17 40  1  0  0  0  0
 40 41  2  0  0  0  0
M  END
>  <cdx:fragmentId>
192

$$$$
