3764.cdx
  Mrv1902 05222410252D          

 20 22  0  0  0  0            999 V2000
    7.7590   -5.9889    0.0000 C   0  0  0  0  0  0  0  0  0  0  0  0
    7.7590   -5.1639    0.0000 C   0  0  0  0  0  0  0  0  0  0  0  0
    7.0445   -4.7514    0.0000 C   0  0  0  0  0  0  0  0  0  0  0  0
    6.3300   -5.1639    0.0000 C   0  0  0  0  0  0  0  0  0  0  0  0
    5.6156   -4.7514    0.0000 C   0  0  0  0  0  0  0  0  0  0  0  0
    4.9011   -5.1639    0.0000 C   0  0  0  0  0  0  0  0  0  0  0  0
    4.9011   -5.9889    0.0000 C   0  0  0  0  0  0  0  0  0  0  0  0
    5.6156   -6.4014    0.0000 C   0  0  0  0  0  0  0  0  0  0  0  0
    6.3300   -5.9889    0.0000 C   0  0  0  0  0  0  0  0  0  0  0  0
    7.0445   -6.4014    0.0000 O   0  0  0  0  0  0  0  0  0  0  0  0
    7.0445   -3.9264    0.0000 O   0  0  0  0  0  0  0  0  0  0  0  0
    4.1866   -6.4014    0.0000 O   0  0  0  0  0  0  0  0  0  0  0  0
    3.4722   -5.9889    0.0000 C   0  0  0  0  0  0  0  0  0  0  0  0
    8.4735   -4.7514    0.0000 C   0  0  0  0  0  0  0  0  0  0  0  0
    8.4735   -3.9264    0.0000 C   0  0  0  0  0  0  0  0  0  0  0  0
    9.1879   -3.5139    0.0000 C   0  0  0  0  0  0  0  0  0  0  0  0
    9.9024   -3.9264    0.0000 C   0  0  0  0  0  0  0  0  0  0  0  0
    9.9024   -4.7514    0.0000 C   0  0  0  0  0  0  0  0  0  0  0  0
    9.1879   -5.1639    0.0000 C   0  0  0  0  0  0  0  0  0  0  0  0
   10.6169   -3.5139    0.0000 O   0  0  0  0  0  0  0  0  0  0  0  0
  1  2  2  0  0  0  0
  2  3  1  0  0  0  0
  3  4  1  0  0  0  0
  4  5  1  0  0  0  0
  5  6  2  0  0  0  0
  6  7  1  0  0  0  0
  7  8  2  0  0  0  0
  8  9  1  0  0  0  0
  4  9  2  0  0  0  0
  9 10  1  0  0  0  0
  1 10  1  0  0  0  0
  3 11  2  0  0  0  0
 12 13  1  0  0  0  0
  7 12  1  0  0  0  0
 14 15  1  0  0  0  0
 15 16  2  0  0  0  0
 16 17  1  0  0  0  0
 17 18  2  0  0  0  0
 18 19  1  0  0  0  0
 14 19  2  0  0  0  0
 17 20  1  0  0  0  0
  2 14  1  0  0  0  0
M  END
>  <cdx:groupId>
64

>  <cdx:fragmentId>
5

$$$$
