37647.cdx
  Mrv1902 05222410272D          

 16 15  0  0  0  0            999 V2000
    4.2835   -5.3906    0.0000 C   0  0  0  0  0  0  0  0  0  0  0  0
    4.0700   -6.1875    0.0000 C   0  0  0  0  0  0  0  0  0  0  0  0
    4.3827   -6.7512    0.0000 C   0  0  0  0  0  0  0  0  0  0  0  0
    5.0972   -6.3388    0.0000 C   0  0  0  0  0  0  0  0  0  0  0  0
    5.8117   -6.7512    0.0000 C   0  0  0  0  0  0  0  0  0  0  0  0
    6.5261   -6.3388    0.0000 C   0  0  0  0  0  0  0  0  0  0  0  0
    7.2406   -6.7512    0.0000 C   0  0  0  0  0  0  0  0  0  0  0  0
    7.9551   -6.3388    0.0000 C   0  0  0  0  0  0  0  0  0  0  0  0
    8.6695   -6.7512    0.0000 C   0  0  0  0  0  0  0  0  0  0  0  0
    9.3840   -6.3388    0.0000 C   0  0  0  0  0  0  0  0  0  0  0  0
   10.0985   -6.7512    0.0000 C   0  0  0  0  0  0  0  0  0  0  0  0
   10.8130   -6.3388    0.0000 C   0  0  0  0  0  0  0  0  0  0  0  0
    4.7952   -7.4657    0.0000 C   0  0  0  0  0  0  0  0  0  0  0  0
    3.6682   -7.1638    0.0000 O   0  0  0  0  0  0  0  0  0  0  0  0
    7.2406   -7.5762    0.0000 C   0  0  0  0  0  0  0  0  0  0  0  0
   10.0985   -7.5762    0.0000 C   0  0  0  0  0  0  0  0  0  0  0  0
  1  2  1  0  0  0  0
  2  3  1  0  0  0  0
  3  4  1  0  0  0  0
  4  5  1  0  0  0  0
  5  6  1  0  0  0  0
  6  7  2  0  0  0  0
  7  8  1  0  0  0  0
  8  9  1  0  0  0  0
  9 10  1  0  0  0  0
 10 11  2  0  0  0  0
 11 12  1  0  0  0  0
  3 13  1  0  0  0  0
  3 14  1  0  0  0  0
  7 15  1  0  0  0  0
 11 16  1  0  0  0  0
M  END
>  <cdx:fragmentId>
58

$$$$
