37640.cdx
  Mrv1902 05222410282D          

 40 45  0  0  0  0            999 V2000
    7.0013   -8.7144    0.0000 C   0  0  1  0  0  0  0  0  0  0  0  0
    7.7127   -8.2968    0.0000 C   0  0  2  0  0  0  0  0  0  0  0  0
    8.4992   -8.5460    0.0000 C   0  0  0  0  0  0  0  0  0  0  0  0
    8.9793   -7.8751    0.0000 C   0  0  2  0  0  0  0  0  0  0  0  0
    9.7620   -7.6145    0.0000 O   0  0  0  0  0  0  0  0  0  0  0  0
    9.7561   -6.7895    0.0000 C   0  0  2  0  0  0  0  0  0  0  0  0
    8.9696   -6.5403    0.0000 C   0  0  2  0  0  0  0  0  0  0  0  0
    8.4895   -7.2112    0.0000 C   0  0  2  0  0  0  0  0  0  0  0  0
    7.7068   -7.4718    0.0000 C   0  0  1  0  0  0  0  0  0  0  0  0
    6.9894   -7.0644    0.0000 C   0  0  0  0  0  0  0  0  0  0  0  0
    6.2779   -7.4821    0.0000 C   0  0  0  0  0  0  0  0  0  0  0  0
    6.2838   -8.3071    0.0000 C   0  0  2  0  0  0  0  0  0  0  0  0
    5.5724   -8.7247    0.0000 C   0  0  1  0  0  0  0  0  0  0  0  0
    4.8549   -8.3174    0.0000 C   0  0  1  0  0  0  0  0  0  0  0  0
    4.1435   -8.7350    0.0000 C   0  0  0  0  0  0  0  0  0  0  0  0
    4.1494   -9.5600    0.0000 C   0  0  1  0  0  0  0  0  0  0  0  0
    4.8668   -9.9673    0.0000 C   0  0  0  0  0  0  0  0  0  0  0  0
    5.5783   -9.5497    0.0000 C   0  0  0  0  0  0  0  0  0  0  0  0
    6.2958   -9.9570    0.0000 C   0  0  0  0  0  0  0  0  0  0  0  0
    7.0072   -9.5394    0.0000 C   0  0  0  0  0  0  0  0  0  0  0  0
    9.6639   -5.9697    0.0000 O   0  0  0  0  0  0  0  0  0  0  0  0
   10.5122   -7.1196    0.0000 C   0  0  0  0  0  0  0  0  0  0  0  0
   11.1761   -6.6299    0.0000 C   0  0  0  0  0  0  0  0  0  0  0  0
   11.0839   -5.8101    0.0000 C   0  0  2  0  0  0  0  0  0  0  0  0
   10.3278   -5.4800    0.0000 C   0  0  0  0  0  0  0  0  0  0  0  0
    4.8490   -7.4924    0.0000 O   0  0  0  0  0  0  0  0  0  0  0  0
    3.4379   -9.9777    0.0000 O   0  0  0  0  0  0  0  0  0  0  0  0
    5.5664   -7.8997    0.0000 C   0  0  0  0  0  0  0  0  0  0  0  0
    7.7068   -6.6468    0.0000 C   0  0  0  0  0  0  0  0  0  0  0  0
    8.7090   -5.7575    0.0000 C   0  0  0  0  0  0  0  0  0  0  0  0
   11.7478   -5.3203    0.0000 C   0  0  0  0  0  0  0  0  0  0  0  0
    6.9953   -7.8894    0.0000 H   0  0  0  0  0  0  0  0  0  0  0  0
    7.7187   -9.1217    0.0000 H   0  0  0  0  0  0  0  0  0  0  0  0
    9.4690   -8.5390    0.0000 H   0  0  0  0  0  0  0  0  0  0  0  0
    8.1225   -6.4723    0.0000 H   0  0  0  0  0  0  0  0  0  0  0  0
    6.2898   -9.1320    0.0000 H   0  0  0  0  0  0  0  0  0  0  0  0
    4.2656   -6.9090    0.0000 S   0  0  0  0  0  0  0  0  0  0  0  0
    3.6823   -6.3257    0.0000 O   0  0  0  0  0  0  0  0  0  0  0  0
    3.6823   -7.4924    0.0000 O   0  0  0  0  0  0  0  0  0  0  0  0
    4.8490   -6.3257    0.0000 O   0  0  0  0  0  0  0  0  0  0  0  0
  1  2  1  0  0  0  0
  2  3  1  0  0  0  0
  3  4  1  0  0  0  0
  4  5  1  0  0  0  0
  6  5  1  6  0  0  0
  6  7  1  0  0  0  0
  7  8  1  0  0  0  0
  8  9  1  0  0  0  0
  9 10  1  0  0  0  0
 10 11  1  0  0  0  0
 11 12  1  0  0  0  0
 12 13  1  0  0  0  0
 13 14  1  0  0  0  0
 14 15  1  0  0  0  0
 15 16  1  0  0  0  0
 16 17  1  0  0  0  0
 17 18  1  0  0  0  0
 18 19  2  0  0  0  0
 19 20  1  0  0  0  0
  1 20  1  0  0  0  0
  1 12  1  0  0  0  0
 13 18  1  0  0  0  0
  2  9  1  0  0  0  0
  4  8  1  0  0  0  0
 22 23  1  0  0  0  0
 23 24  1  0  0  0  0
 24 25  1  0  0  0  0
 21 25  1  0  0  0  0
  6 21  1  0  0  0  0
  6 22  1  0  0  0  0
 14 26  1  1  0  0  0
 16 27  1  1  0  0  0
 13 28  1  1  0  0  0
  9 29  1  1  0  0  0
  7 30  1  6  0  0  0
 24 31  1  6  0  0  0
  1 32  1  1  0  0  0
  2 33  1  6  0  0  0
  4 34  1  6  0  0  0
  8 35  1  6  0  0  0
 12 36  1  6  0  0  0
 26 37  1  0  0  0  0
 37 38  2  0  0  0  0
 37 39  2  0  0  0  0
 37 40  1  0  0  0  0
M  END
>  <cdx:groupId>
115

>  <cdx:fragmentId>
5

$$$$
