37652.cdx
  Mrv1902 05222410262D          

 52 56  0  0  0  0            999 V2000
    4.2974   -7.3494    0.0000 C   0  0  2  0  0  0  0  0  0  0  0  0
    4.2974   -8.1744    0.0000 C   0  0  2  0  0  0  0  0  0  0  0  0
    5.0119   -8.5869    0.0000 C   0  0  1  0  0  0  0  0  0  0  0  0
    5.7263   -8.1744    0.0000 C   0  0  2  0  0  0  0  0  0  0  0  0
    5.7263   -7.3494    0.0000 C   0  0  1  0  0  0  0  0  0  0  0  0
    5.0119   -6.9369    0.0000 O   0  0  0  0  0  0  0  0  0  0  0  0
    6.4408   -6.9369    0.0000 O   0  0  0  0  0  0  0  0  0  0  0  0
    3.5829   -6.9369    0.0000 C   0  0  0  0  0  0  0  0  0  0  0  0
    3.5829   -8.5869    0.0000 O   0  0  0  0  0  0  0  0  0  0  0  0
    5.0119   -9.4119    0.0000 O   0  0  0  0  0  0  0  0  0  0  0  0
    6.4408   -8.5869    0.0000 O   0  0  0  0  0  0  0  0  0  0  0  0
    6.4408   -6.1119    0.0000 C   0  0  1  0  0  0  0  0  0  0  0  0
    7.1553   -5.6994    0.0000 C   0  0  2  0  0  0  0  0  0  0  0  0
    7.1553   -4.8744    0.0000 O   0  0  0  0  0  0  0  0  0  0  0  0
    6.4408   -4.4619    0.0000 C   0  0  1  0  0  0  0  0  0  0  0  0
    5.7263   -4.8744    0.0000 C   0  0  2  0  0  0  0  0  0  0  0  0
    5.7263   -5.6994    0.0000 C   0  0  2  0  0  0  0  0  0  0  0  0
    2.8685   -7.3494    0.0000 O   0  0  0  0  0  0  0  0  0  0  0  0
    6.4408   -3.6369    0.0000 C   0  0  0  0  0  0  0  0  0  0  0  0
    5.7263   -3.2244    0.0000 O   0  0  0  0  0  0  0  0  0  0  0  0
    5.0119   -4.4619    0.0000 O   0  0  0  0  0  0  0  0  0  0  0  0
    5.0119   -6.1119    0.0000 O   0  0  0  0  0  0  0  0  0  0  0  0
    7.8698   -6.1119    0.0000 O   0  0  0  0  0  0  0  0  0  0  0  0
    8.5842   -5.6994    0.0000 C   0  0  1  0  0  0  0  0  0  0  0  0
    8.9967   -6.4138    0.0000 C   0  0  2  0  0  0  0  0  0  0  0  0
    9.8037   -6.2423    0.0000 C   0  0  1  0  0  0  0  0  0  0  0  0
    9.8899   -5.4218    0.0000 C   0  0  2  0  0  0  0  0  0  0  0  0
    9.1363   -5.0863    0.0000 O   0  0  0  0  0  0  0  0  0  0  0  0
    8.0009   -5.1160    0.0000 C   0  0  0  0  0  0  0  0  0  0  0  0
    8.2144   -4.3191    0.0000 O   0  0  0  0  0  0  0  0  0  0  0  0
    8.9289   -3.9066    0.0000 C   0  0  0  0  0  0  0  0  0  0  0  0
    9.6433   -4.3191    0.0000 C   0  0  0  0  0  0  0  0  0  0  0  0
    8.9289   -3.0816    0.0000 O   0  0  0  0  0  0  0  0  0  0  0  0
   10.3578   -3.9066    0.0000 C   0  0  0  0  0  0  0  0  0  0  0  0
   11.0723   -4.3191    0.0000 C   0  0  0  0  0  0  0  0  0  0  0  0
   11.0723   -5.1441    0.0000 C   0  0  0  0  0  0  0  0  0  0  0  0
   11.7867   -5.5566    0.0000 C   0  0  0  0  0  0  0  0  0  0  0  0
   12.5012   -5.1441    0.0000 C   0  0  0  0  0  0  0  0  0  0  0  0
   12.5012   -4.3191    0.0000 C   0  0  0  0  0  0  0  0  0  0  0  0
   11.7867   -3.9066    0.0000 C   0  0  0  0  0  0  0  0  0  0  0  0
   10.6868   -5.2083    0.0000 C   0  0  0  0  0  0  0  0  0  0  0  0
   11.0993   -5.9228    0.0000 O   0  0  0  0  0  0  0  0  0  0  0  0
   10.4168   -6.7944    0.0000 O   0  0  0  0  0  0  0  0  0  0  0  0
    8.6612   -7.1675    0.0000 O   0  0  0  0  0  0  0  0  0  0  0  0
    9.0737   -7.8820    0.0000 C   0  0  0  0  0  0  0  0  0  0  0  0
    8.6612   -8.5965    0.0000 O   0  0  0  0  0  0  0  0  0  0  0  0
    9.8987   -7.8820    0.0000 C   0  0  0  0  0  0  0  0  0  0  0  0
   10.3112   -8.5965    0.0000 C   0  0  0  0  0  0  0  0  0  0  0  0
   11.1362   -8.5965    0.0000 C   0  0  0  0  0  0  0  0  0  0  0  0
   11.5487   -7.8820    0.0000 C   0  0  0  0  0  0  0  0  0  0  0  0
   11.1362   -7.1675    0.0000 C   0  0  0  0  0  0  0  0  0  0  0  0
   10.3112   -7.1675    0.0000 C   0  0  0  0  0  0  0  0  0  0  0  0
  1  2  1  0  0  0  0
  2  3  1  0  0  0  0
  3  4  1  0  0  0  0
  4  5  1  0  0  0  0
  5  6  1  0  0  0  0
  6  1  1  0  0  0  0
  5  7  1  1  0  0  0
  1  8  1  1  0  0  0
  2  9  1  6  0  0  0
  3 10  1  1  0  0  0
  4 11  1  6  0  0  0
 12  7  1  6  0  0  0
 12 13  1  0  0  0  0
 13 14  1  0  0  0  0
 14 15  1  0  0  0  0
 15 16  1  0  0  0  0
 16 17  1  0  0  0  0
 17 12  1  0  0  0  0
  8 18  1  0  0  0  0
 15 19  1  1  0  0  0
 19 20  1  0  0  0  0
 16 21  1  6  0  0  0
 17 22  1  1  0  0  0
 13 23  1  6  0  0  0
 24 23  1  6  0  0  0
 24 25  1  0  0  0  0
 25 26  1  0  0  0  0
 26 27  1  0  0  0  0
 27 28  1  0  0  0  0
 28 24  1  0  0  0  0
 24 29  1  1  0  0  0
 29 30  1  0  0  0  0
 30 31  1  0  0  0  0
 31 32  1  0  0  0  0
 31 33  2  0  0  0  0
 32 34  2  0  0  0  0
 34 35  1  0  0  0  0
 35 36  2  0  0  0  0
 36 37  1  0  0  0  0
 37 38  2  0  0  0  0
 38 39  1  0  0  0  0
 39 40  2  0  0  0  0
 40 35  1  0  0  0  0
 27 41  1  6  0  0  0
 41 42  1  0  0  0  0
 26 43  1  1  0  0  0
 25 44  1  6  0  0  0
 44 45  1  0  0  0  0
 45 46  2  0  0  0  0
 45 47  1  0  0  0  0
 47 48  2  0  0  0  0
 48 49  1  0  0  0  0
 49 50  2  0  0  0  0
 50 51  1  0  0  0  0
 51 52  2  0  0  0  0
 52 47  1  0  0  0  0
M  END
>  <cdx:fragmentId>
5

$$$$
