37651.cdx
  Mrv1902 05222410262D          

 28 29  0  0  0  0            999 V2000
    2.4412   -5.2594    0.0000 C   0  0  0  0  0  0  0  0  0  0  0  0
    2.4412   -6.0844    0.0000 C   0  0  0  0  0  0  0  0  0  0  0  0
    3.1556   -6.4969    0.0000 C   0  0  0  0  0  0  0  0  0  0  0  0
    3.8701   -6.0844    0.0000 C   0  0  0  0  0  0  0  0  0  0  0  0
    3.8701   -5.2594    0.0000 C   0  0  0  0  0  0  0  0  0  0  0  0
    3.1556   -4.8469    0.0000 C   0  0  0  0  0  0  0  0  0  0  0  0
    1.7267   -4.8469    0.0000 O   0  0  0  0  0  0  0  0  0  0  0  0
    1.7267   -6.4969    0.0000 O   0  0  0  0  0  0  0  0  0  0  0  0
    4.5846   -4.8469    0.0000 C   0  0  0  0  0  0  0  0  0  0  0  0
    5.2990   -5.2594    0.0000 C   0  0  0  0  0  0  0  0  0  0  0  0
    6.0135   -4.8469    0.0000 C   0  0  0  0  0  0  0  0  0  0  0  0
    6.7280   -5.2594    0.0000 C   0  0  0  0  0  0  0  0  0  0  0  0
    6.0135   -4.0219    0.0000 O   0  0  0  0  0  0  0  0  0  0  0  0
    7.4425   -4.8469    0.0000 C   0  0  0  0  0  0  0  0  0  0  0  0
    8.1569   -5.2594    0.0000 C   0  0  0  0  0  0  0  0  0  0  0  0
    8.8714   -4.8469    0.0000 C   0  0  0  0  0  0  0  0  0  0  0  0
    9.5859   -5.2594    0.0000 C   0  0  0  0  0  0  0  0  0  0  0  0
    9.5859   -6.0844    0.0000 C   0  0  0  0  0  0  0  0  0  0  0  0
   10.3003   -6.4969    0.0000 C   0  0  0  0  0  0  0  0  0  0  0  0
   11.0148   -6.0844    0.0000 C   0  0  0  0  0  0  0  0  0  0  0  0
   11.0148   -5.2594    0.0000 C   0  0  0  0  0  0  0  0  0  0  0  0
   10.3003   -4.8469    0.0000 C   0  0  0  0  0  0  0  0  0  0  0  0
   11.7293   -4.8469    0.0000 O   0  0  0  0  0  0  0  0  0  0  0  0
   11.7293   -6.4969    0.0000 O   0  0  0  0  0  0  0  0  0  0  0  0
   10.3003   -7.3219    0.0000 O   0  0  0  0  0  0  0  0  0  0  0  0
    1.0122   -5.2594    0.0000 C   0  0  0  0  0  0  0  0  0  0  0  0
    9.5859   -7.7344    0.0000 C   0  0  0  0  0  0  0  0  0  0  0  0
   12.4437   -5.2594    0.0000 C   0  0  0  0  0  0  0  0  0  0  0  0
  1  2  2  0  0  0  0
  2  3  1  0  0  0  0
  3  4  2  0  0  0  0
  4  5  1  0  0  0  0
  5  6  2  0  0  0  0
  6  1  1  0  0  0  0
  1  7  1  0  0  0  0
  2  8  1  0  0  0  0
  5  9  1  0  0  0  0
  9 10  1  0  0  0  0
 10 11  1  0  0  0  0
 11 12  1  0  0  0  0
 11 13  2  0  0  0  0
 12 14  2  0  0  0  0
 14 15  1  0  0  0  0
 15 16  1  0  0  0  0
 16 17  1  0  0  0  0
 17 18  2  0  0  0  0
 18 19  1  0  0  0  0
 19 20  2  0  0  0  0
 20 21  1  0  0  0  0
 21 22  2  0  0  0  0
 22 17  1  0  0  0  0
 21 23  1  0  0  0  0
 20 24  1  0  0  0  0
 19 25  1  0  0  0  0
  7 26  1  0  0  0  0
 25 27  1  0  0  0  0
 23 28  1  0  0  0  0
M  END
>  <cdx:fragmentId>
276

$$$$
