37665.cdx
  Mrv1902 05222410182D          

 19 22  0  0  0  0            999 V2000
    8.7044   -9.7208    0.0000 C   0  0  0  0  0  0  0  0  0  0  0  0
    9.5114   -9.5493    0.0000 C   0  0  0  0  0  0  0  0  0  0  0  0
    9.7663   -8.7646    0.0000 N   0  0  0  0  0  0  0  0  0  0  0  0
    9.2143   -8.1515    0.0000 C   0  0  0  0  0  0  0  0  0  0  0  0
    9.3511   -7.3378    0.0000 C   0  0  0  0  0  0  0  0  0  0  0  0
    8.7308   -6.7939    0.0000 C   0  0  0  0  0  0  0  0  0  0  0  0
    7.9430   -7.0385    0.0000 C   0  0  0  0  0  0  0  0  0  0  0  0
    7.7399   -7.8381    0.0000 N   0  0  0  0  0  0  0  0  0  0  0  0
    7.0724   -8.3231    0.0000 C   0  0  0  0  0  0  0  0  0  0  0  0
    6.2655   -8.1515    0.0000 C   0  0  0  0  0  0  0  0  0  0  0  0
    5.7134   -8.7646    0.0000 C   0  0  0  0  0  0  0  0  0  0  0  0
    5.9684   -9.5493    0.0000 C   0  0  0  0  0  0  0  0  0  0  0  0
    6.7753   -9.7208    0.0000 C   0  0  0  0  0  0  0  0  0  0  0  0
    7.3274   -9.1077    0.0000 C   0  0  0  0  0  0  0  0  0  0  0  0
    8.1524   -9.1077    0.0000 C   0  0  0  0  0  0  0  0  0  0  0  0
    8.4073   -8.3231    0.0000 C   0  0  0  0  0  0  0  0  0  0  0  0
    7.3445   -6.4706    0.0000 O   0  0  0  0  0  0  0  0  0  0  0  0
    4.9065   -8.5931    0.0000 O   0  0  0  0  0  0  0  0  0  0  0  0
    6.0105   -7.3669    0.0000 O   0  0  0  0  0  0  0  0  0  0  0  0
  1  2  1  0  0  0  0
  2  3  2  0  0  0  0
  3  4  1  0  0  0  0
  4  5  1  0  0  0  0
  5  6  2  0  0  0  0
  6  7  1  0  0  0  0
  7  8  1  0  0  0  0
  8  9  1  0  0  0  0
  9 10  1  0  0  0  0
 10 11  2  0  0  0  0
 11 12  1  0  0  0  0
 12 13  2  0  0  0  0
 13 14  1  0  0  0  0
  9 14  2  0  0  0  0
 14 15  1  0  0  0  0
  1 15  2  0  0  0  0
 15 16  1  0  0  0  0
  4 16  2  0  0  0  0
  8 16  1  0  0  0  0
  7 17  2  0  0  0  0
 11 18  1  0  0  0  0
 10 19  1  0  0  0  0
M  END
>  <cdx:fragmentId>
5

$$$$
