37664.cdx
  Mrv1902 05222410182D          

 23 23  0  0  0  0            999 V2000
    3.9880   -5.5619    0.0000 C   0  0  0  0  0  0  0  0  0  0  0  0
    3.9880   -6.3869    0.0000 C   0  0  0  0  0  0  0  0  0  0  0  0
    4.7025   -6.7994    0.0000 C   0  0  0  0  0  0  0  0  0  0  0  0
    5.4170   -6.3869    0.0000 C   0  0  0  0  0  0  0  0  0  0  0  0
    5.4170   -5.5619    0.0000 C   0  0  0  0  0  0  0  0  0  0  0  0
    4.7025   -5.1494    0.0000 C   0  0  0  0  0  0  0  0  0  0  0  0
    6.1314   -5.1494    0.0000 C   0  0  0  0  0  0  0  0  0  0  0  0
    6.8459   -5.5619    0.0000 O   0  0  0  0  0  0  0  0  0  0  0  0
    7.5604   -5.1494    0.0000 C   0  0  0  0  0  0  0  0  0  0  0  0
    8.2749   -5.5619    0.0000 C   0  0  0  0  0  0  0  0  0  0  0  0
    8.9893   -5.1494    0.0000 C   0  0  0  0  0  0  0  0  0  0  0  0
    9.7038   -5.5619    0.0000 C   0  0  0  0  0  0  0  0  0  0  0  0
    6.1314   -4.3244    0.0000 O   0  0  0  0  0  0  0  0  0  0  0  0
   10.4183   -5.1494    0.0000 N   0  0  0  0  0  0  0  0  0  0  0  0
   11.1327   -5.5619    0.0000 C   0  0  0  0  0  0  0  0  0  0  0  0
   11.8472   -5.1494    0.0000 N   0  0  0  0  0  0  0  0  0  0  0  0
   11.1327   -6.3869    0.0000 N   0  0  0  0  0  0  0  0  0  0  0  0
    3.2736   -5.1494    0.0000 O   0  0  0  0  0  0  0  0  0  0  0  0
    3.2736   -6.7994    0.0000 O   0  0  0  0  0  0  0  0  0  0  0  0
    4.7025   -7.6244    0.0000 O   0  0  0  0  0  0  0  0  0  0  0  0
    3.9880   -8.0369    0.0000 C   0  0  0  0  0  0  0  0  0  0  0  0
    2.5591   -6.3869    0.0000 C   0  0  0  0  0  0  0  0  0  0  0  0
    2.5591   -5.5619    0.0000 C   0  0  0  0  0  0  0  0  0  0  0  0
  1  2  2  0  0  0  0
  2  3  1  0  0  0  0
  3  4  2  0  0  0  0
  4  5  1  0  0  0  0
  5  6  2  0  0  0  0
  6  1  1  0  0  0  0
  5  7  1  0  0  0  0
  7  8  1  0  0  0  0
  8  9  1  0  0  0  0
  9 10  1  0  0  0  0
 10 11  1  0  0  0  0
 11 12  1  0  0  0  0
  7 13  2  0  0  0  0
 12 14  1  0  0  0  0
 14 15  2  0  0  0  0
 15 16  1  0  0  0  0
 15 17  1  0  0  0  0
  1 18  1  0  0  0  0
  2 19  1  0  0  0  0
  3 20  1  0  0  0  0
 20 21  1  0  0  0  0
 19 22  1  0  0  0  0
 18 23  1  0  0  0  0
M  END
>  <cdx:fragmentId>
113

$$$$
