37660.cdx
  Mrv1902 05222410202D          

 25 27  0  0  0  0            999 V2000
    5.4524   -5.2800    0.0000 C   0  0  0  0  0  0  0  0  0  0  0  0
    5.4524   -6.1050    0.0000 C   0  0  0  0  0  0  0  0  0  0  0  0
    6.1669   -6.5175    0.0000 C   0  0  0  0  0  0  0  0  0  0  0  0
    6.8813   -6.1050    0.0000 C   0  0  0  0  0  0  0  0  0  0  0  0
    6.8813   -5.2800    0.0000 C   0  0  0  0  0  0  0  0  0  0  0  0
    6.1669   -4.8675    0.0000 C   0  0  0  0  0  0  0  0  0  0  0  0
    4.6678   -5.0251    0.0000 C   0  0  0  0  0  0  0  0  0  0  0  0
    4.1829   -5.6925    0.0000 C   0  0  0  0  0  0  0  0  0  0  0  0
    4.6678   -6.3599    0.0000 O   0  0  0  0  0  0  0  0  0  0  0  0
    7.5958   -6.5175    0.0000 O   0  0  0  0  0  0  0  0  0  0  0  0
    8.3103   -6.1050    0.0000 C   0  0  0  0  0  0  0  0  0  0  0  0
    8.3103   -5.2800    0.0000 C   0  0  0  0  0  0  0  0  0  0  0  0
    7.5958   -4.8675    0.0000 C   0  0  0  0  0  0  0  0  0  0  0  0
    9.0248   -6.5175    0.0000 O   0  0  0  0  0  0  0  0  0  0  0  0
    6.1669   -4.0425    0.0000 O   0  0  0  0  0  0  0  0  0  0  0  0
    6.1669   -7.3425    0.0000 C   0  0  1  0  0  0  0  0  0  0  0  0
    6.8813   -7.7550    0.0000 C   0  0  0  0  0  0  0  0  0  0  0  0
    5.4524   -7.7550    0.0000 C   0  0  0  0  0  0  0  0  0  0  0  0
    6.8813   -8.5800    0.0000 C   0  0  0  0  0  0  0  0  0  0  0  0
    7.5958   -8.9925    0.0000 C   0  0  0  0  0  0  0  0  0  0  0  0
    6.1669   -8.9925    0.0000 C   0  0  0  0  0  0  0  0  0  0  0  0
    7.5958   -9.8175    0.0000 C   0  0  0  0  0  0  0  0  0  0  0  0
    4.6274   -7.7550    0.0000 C   0  0  0  0  0  0  0  0  0  0  0  0
    4.2149   -8.4695    0.0000 C   0  0  0  0  0  0  0  0  0  0  0  0
    4.2149   -7.0405    0.0000 C   0  0  0  0  0  0  0  0  0  0  0  0
  1  2  2  0  0  0  0
  2  3  1  0  0  0  0
  3  4  2  0  0  0  0
  4  5  1  0  0  0  0
  5  6  2  0  0  0  0
  6  1  1  0  0  0  0
  1  7  1  0  0  0  0
  7  8  2  0  0  0  0
  8  9  1  0  0  0  0
  9  2  1  0  0  0  0
  4 10  1  0  0  0  0
 10 11  1  0  0  0  0
 11 12  1  0  0  0  0
 12 13  2  0  0  0  0
 13  5  1  0  0  0  0
 11 14  2  0  0  0  0
  6 15  1  0  0  0  0
  3 16  1  0  0  0  0
 16 17  1  1  0  0  0
 16 18  1  0  0  0  0
 17 19  2  0  0  0  0
 19 20  1  0  0  0  0
 19 21  1  0  0  0  0
 20 22  2  0  0  0  0
 18 23  2  0  0  0  0
 23 24  1  0  0  0  0
 23 25  1  0  0  0  0
M  END
>  <cdx:fragmentId>
322

$$$$
