169.cdx
  Mrv1902 05222410282D          

 19 20  0  0  0  0            999 V2000
    3.4444   -5.3831    0.0000 C   0  0  0  0  0  0  0  0  0  0  0  0
    3.4444   -6.2081    0.0000 C   0  0  0  0  0  0  0  0  0  0  0  0
    4.1588   -6.6206    0.0000 C   0  0  0  0  0  0  0  0  0  0  0  0
    4.8733   -6.2081    0.0000 C   0  0  0  0  0  0  0  0  0  0  0  0
    4.8733   -5.3831    0.0000 C   0  0  0  0  0  0  0  0  0  0  0  0
    4.1588   -4.9706    0.0000 C   0  0  0  0  0  0  0  0  0  0  0  0
    5.5878   -6.6206    0.0000 C   0  0  0  0  0  0  0  0  0  0  0  0
    6.3023   -6.2081    0.0000 C   0  0  0  0  0  0  0  0  0  0  0  0
    6.3023   -5.3831    0.0000 C   0  0  0  0  0  0  0  0  0  0  0  0
    5.5878   -4.9706    0.0000 C   0  0  0  0  0  0  0  0  0  0  0  0
    2.7299   -6.6206    0.0000 C   0  0  0  0  0  0  0  0  0  0  0  0
    5.5878   -4.1456    0.0000 O   0  0  0  0  0  0  0  0  0  0  0  0
    4.8733   -3.7331    0.0000 C   0  0  0  0  0  0  0  0  0  0  0  0
    6.3023   -4.5581    0.0000 C   0  0  0  0  0  0  0  0  0  0  0  0
    5.5878   -7.4456    0.0000 C   0  0  0  0  0  0  0  0  0  0  0  0
    6.3023   -7.8581    0.0000 C   0  0  0  0  0  0  0  0  0  0  0  0
    6.3023   -8.6831    0.0000 O   0  0  0  0  0  0  0  0  0  0  0  0
    7.0167   -7.4456    0.0000 O   0  0  0  0  0  0  0  0  0  0  0  0
    4.8733   -7.8581    0.0000 C   0  0  0  0  0  0  0  0  0  0  0  0
  1  2  1  0  0  0  0
  2  3  2  0  0  0  0
  3  4  1  0  0  0  0
  4  5  1  0  0  0  0
  5  6  1  0  0  0  0
  6  1  1  0  0  0  0
  4  7  1  0  0  0  0
  7  8  1  0  0  0  0
  8  9  1  0  0  0  0
  9 10  1  0  0  0  0
 10  5  1  0  0  0  0
  2 11  1  0  0  0  0
 10 12  1  0  0  0  0
 12 13  1  0  0  0  0
 10 14  1  0  0  0  0
  7 15  1  0  0  0  0
 15 16  1  0  0  0  0
 16 17  1  0  0  0  0
 16 18  2  0  0  0  0
 15 19  2  0  0  0  0
M  END
>  <cdx:fragmentId>
301

$$$$
