175.cdx
  Mrv1902 05222410202D          

 41 43  0  0  0  0            999 V2000
    4.9990   -5.8561    0.0000 C   0  0  0  0  0  0  0  0  0  0  0  0
    4.2845   -6.2686    0.0000 C   0  0  0  0  0  0  0  0  0  0  0  0
    4.9990   -5.0311    0.0000 O   0  0  0  0  0  0  0  0  0  0  0  0
    5.7135   -6.2686    0.0000 O   0  0  0  0  0  0  0  0  0  0  0  0
    5.7135   -7.0936    0.0000 C   0  0  0  0  0  0  0  0  0  0  0  0
    7.1424   -7.0936    0.0000 O   0  0  0  0  0  0  0  0  0  0  0  0
    6.4279   -7.5061    0.0000 C   0  0  1  0  0  0  0  0  0  0  0  0
    6.4279   -8.3311    0.0000 C   0  0  2  0  0  0  0  0  0  0  0  0
    7.1424   -8.7436    0.0000 C   0  0  1  0  0  0  0  0  0  0  0  0
    7.8569   -8.3311    0.0000 C   0  0  2  0  0  0  0  0  0  0  0  0
    7.8569   -7.5061    0.0000 C   0  0  2  0  0  0  0  0  0  0  0  0
    8.5713   -8.7436    0.0000 O   0  0  0  0  0  0  0  0  0  0  0  0
    9.2858   -8.3311    0.0000 C   0  0  0  0  0  0  0  0  0  0  0  0
    9.2858   -7.5061    0.0000 O   0  0  0  0  0  0  0  0  0  0  0  0
   10.0003   -8.7436    0.0000 C   0  0  0  0  0  0  0  0  0  0  0  0
    7.1424   -9.5686    0.0000 O   0  0  0  0  0  0  0  0  0  0  0  0
    6.4279   -9.9811    0.0000 C   0  0  0  0  0  0  0  0  0  0  0  0
    6.4279  -10.8061    0.0000 O   0  0  0  0  0  0  0  0  0  0  0  0
    5.7135   -9.5686    0.0000 C   0  0  0  0  0  0  0  0  0  0  0  0
    5.7135   -8.7436    0.0000 O   0  0  0  0  0  0  0  0  0  0  0  0
    4.9990   -8.3311    0.0000 C   0  0  0  0  0  0  0  0  0  0  0  0
    4.9990   -7.5061    0.0000 O   0  0  0  0  0  0  0  0  0  0  0  0
    4.2845   -8.7436    0.0000 C   0  0  0  0  0  0  0  0  0  0  0  0
    8.5713   -7.0936    0.0000 O   0  0  0  0  0  0  0  0  0  0  0  0
    8.5713   -6.2686    0.0000 C   0  0  1  0  0  0  0  0  0  0  0  0
    9.2858   -5.8561    0.0000 C   0  0  1  0  0  0  0  0  0  0  0  0
    9.2858   -5.0311    0.0000 C   0  0  1  0  0  0  0  0  0  0  0  0
    8.5713   -4.6186    0.0000 C   0  0  0  0  0  0  0  0  0  0  0  0
    7.8569   -5.0311    0.0000 C   0  0  0  0  0  0  0  0  0  0  0  0
    7.8569   -5.8561    0.0000 O   0  0  0  0  0  0  0  0  0  0  0  0
   10.0704   -4.7762    0.0000 C   0  0  0  0  0  0  0  0  0  0  0  0
   10.5554   -5.4436    0.0000 C   0  0  0  0  0  0  0  0  0  0  0  0
   10.0704   -6.1111    0.0000 C   0  0  2  0  0  0  0  0  0  0  0  0
   10.3254   -6.8957    0.0000 C   0  0  0  0  0  0  0  0  0  0  0  0
    8.5713   -3.7936    0.0000 C   0  0  0  0  0  0  0  0  0  0  0  0
    7.8569   -3.3811    0.0000 O   0  0  0  0  0  0  0  0  0  0  0  0
    7.8569   -2.5561    0.0000 C   0  0  0  0  0  0  0  0  0  0  0  0
    8.5713   -2.1436    0.0000 O   0  0  0  0  0  0  0  0  0  0  0  0
    7.1424   -2.1436    0.0000 C   0  0  0  0  0  0  0  0  0  0  0  0
    9.3721   -4.2106    0.0000 H   0  0  0  0  0  0  0  0  0  0  0  0
    9.3721   -6.6766    0.0000 H   0  0  0  0  0  0  0  0  0  0  0  0
  1  2  1  0  0  0  0
  1  3  2  0  0  0  0
  1  4  1  0  0  0  0
  6  7  1  0  0  0  0
  7  8  1  0  0  0  0
  8  9  1  0  0  0  0
  9 10  1  0  0  0  0
 10 11  1  0  0  0  0
  6 11  1  0  0  0  0
 13 14  2  0  0  0  0
 13 15  1  0  0  0  0
 12 13  1  0  0  0  0
 10 12  1  6  0  0  0
 17 18  2  0  0  0  0
 17 19  1  0  0  0  0
 16 17  1  0  0  0  0
  9 16  1  1  0  0  0
 21 22  2  0  0  0  0
 21 23  1  0  0  0  0
 20 21  1  0  0  0  0
  8 20  1  6  0  0  0
 25 26  1  0  0  0  0
 26 27  1  0  0  0  0
 27 28  1  0  0  0  0
 28 29  2  0  0  0  0
 29 30  1  0  0  0  0
 25 30  1  0  0  0  0
 31 32  1  0  0  0  0
 32 33  1  0  0  0  0
 26 33  1  0  0  0  0
 27 31  1  0  0  0  0
 33 34  1  6  0  0  0
 37 38  2  0  0  0  0
 37 39  1  0  0  0  0
 36 37  1  0  0  0  0
 35 36  1  0  0  0  0
 28 35  1  0  0  0  0
 25 24  1  6  0  0  0
 11 24  1  1  0  0  0
  7  5  1  1  0  0  0
  4  5  1  0  0  0  0
 27 40  1  6  0  0  0
 26 41  1  6  0  0  0
M  END
>  <cdx:fragmentId>
15

$$$$
