37676.cdx
  Mrv1902 05222410192D          

 22 24  0  0  0  0            999 V2000
    5.8512   -7.0537    0.0000 C   0  0  0  0  0  0  0  0  0  0  0  0
    5.8512   -7.8788    0.0000 C   0  0  0  0  0  0  0  0  0  0  0  0
    6.5656   -8.2912    0.0000 C   0  0  0  0  0  0  0  0  0  0  0  0
    7.2801   -7.8788    0.0000 C   0  0  0  0  0  0  0  0  0  0  0  0
    7.2801   -7.0537    0.0000 C   0  0  0  0  0  0  0  0  0  0  0  0
    6.5656   -6.6413    0.0000 C   0  0  0  0  0  0  0  0  0  0  0  0
    7.9946   -8.2912    0.0000 C   0  0  0  0  0  0  0  0  0  0  0  0
    8.7090   -7.8788    0.0000 C   0  0  0  0  0  0  0  0  0  0  0  0
    8.7090   -7.0537    0.0000 C   0  0  0  0  0  0  0  0  0  0  0  0
    7.9946   -6.6413    0.0000 C   0  0  0  0  0  0  0  0  0  0  0  0
    9.4235   -6.6413    0.0000 C   0  0  0  0  0  0  0  0  0  0  0  0
    9.4235   -5.8163    0.0000 C   0  0  0  0  0  0  0  0  0  0  0  0
    8.7090   -5.4037    0.0000 C   0  0  0  0  0  0  0  0  0  0  0  0
    7.9946   -5.8163    0.0000 C   0  0  0  0  0  0  0  0  0  0  0  0
   10.1380   -5.4037    0.0000 C   0  0  0  0  0  0  0  0  0  0  0  0
   10.8525   -5.8163    0.0000 C   0  0  0  0  0  0  0  0  0  0  0  0
   10.1380   -4.5788    0.0000 C   0  0  0  0  0  0  0  0  0  0  0  0
    8.7090   -4.5788    0.0000 O   0  0  0  0  0  0  0  0  0  0  0  0
    6.5656   -5.8163    0.0000 O   0  0  0  0  0  0  0  0  0  0  0  0
    6.1531   -9.0057    0.0000 C   0  0  0  0  0  0  0  0  0  0  0  0
    6.9781   -9.0057    0.0000 C   0  0  0  0  0  0  0  0  0  0  0  0
    7.2801   -5.4037    0.0000 O   0  0  0  0  0  0  0  0  0  0  0  0
  1  2  1  0  0  0  0
  2  3  1  0  0  0  0
  3  4  1  0  0  0  0
  4  5  2  0  0  0  0
  5  6  1  0  0  0  0
  6  1  1  0  0  0  0
  4  7  1  0  0  0  0
  7  8  2  0  0  0  0
  8  9  1  0  0  0  0
  9 10  2  0  0  0  0
 10  5  1  0  0  0  0
  9 11  1  0  0  0  0
 11 12  2  0  0  0  0
 12 13  1  0  0  0  0
 13 14  1  0  0  0  0
 14 10  1  0  0  0  0
 12 15  1  0  0  0  0
 15 16  1  0  0  0  0
 15 17  1  0  0  0  0
 13 18  2  0  0  0  0
  6 19  2  0  0  0  0
  3 20  1  0  0  0  0
  3 21  1  0  0  0  0
 14 22  1  0  0  0  0
M  END
>  <cdx:fragmentId>
140

$$$$
