177.cdx
  Mrv1902 05222410192D          

 20 22  0  0  0  0            999 V2000
    4.1966   -5.0737    0.0000 C   0  0  2  0  0  0  0  0  0  0  0  0
    4.1966   -5.8988    0.0000 C   0  0  1  0  0  0  0  0  0  0  0  0
    4.8416   -6.4131    0.0000 C   0  0  0  0  0  0  0  0  0  0  0  0
    5.6459   -6.2295    0.0000 C   0  0  0  0  0  0  0  0  0  0  0  0
    6.0038   -5.4862    0.0000 C   0  0  0  0  0  0  0  0  0  0  0  0
    5.6459   -4.7430    0.0000 C   0  0  0  0  0  0  0  0  0  0  0  0
    4.8416   -4.5594    0.0000 C   0  0  0  0  0  0  0  0  0  0  0  0
    3.4119   -4.8188    0.0000 C   0  0  0  0  0  0  0  0  0  0  0  0
    2.9270   -5.4863    0.0000 C   0  0  0  0  0  0  0  0  0  0  0  0
    3.4119   -6.1537    0.0000 C   0  0  0  0  0  0  0  0  0  0  0  0
    3.1570   -6.9383    0.0000 C   0  0  0  0  0  0  0  0  0  0  0  0
    4.6580   -3.7551    0.0000 C   0  0  0  0  0  0  0  0  0  0  0  0
    3.9830   -6.6956    0.0000 H   0  0  0  0  0  0  0  0  0  0  0  0
    4.1966   -4.2488    0.0000 H   0  0  0  0  0  0  0  0  0  0  0  0
    4.7676   -7.2348    0.0000 O   0  0  0  0  0  0  0  0  0  0  0  0
    5.5262   -7.5591    0.0000 C   0  0  0  0  0  0  0  0  0  0  0  0
    6.0690   -6.9378    0.0000 C   0  0  0  0  0  0  0  0  0  0  0  0
    5.7398   -8.3559    0.0000 O   0  0  0  0  0  0  0  0  0  0  0  0
    6.8907   -7.0117    0.0000 C   0  0  0  0  0  0  0  0  0  0  0  0
    7.3656   -6.3371    0.0000 O   0  0  0  0  0  0  0  0  0  0  0  0
  1  2  1  0  0  0  0
  2  3  1  0  0  0  0
  3  4  1  0  0  0  0
  4  5  1  0  0  0  0
  5  6  1  0  0  0  0
  6  7  1  0  0  0  0
  7  1  1  0  0  0  0
  1  8  1  0  0  0  0
  8  9  1  0  0  0  0
  9 10  1  0  0  0  0
 10  2  1  0  0  0  0
 10 11  2  0  0  0  0
  7 12  2  0  0  0  0
  2 13  1  6  0  0  0
  1 14  1  6  0  0  0
  3 15  1  0  0  0  0
 15 16  1  0  0  0  0
 16 17  1  0  0  0  0
 17  4  2  0  0  0  0
 16 18  2  0  0  0  0
 17 19  1  0  0  0  0
 19 20  1  0  0  0  0
M  END
>  <cdx:fragmentId>
207

$$$$
