37685.cdx
  Mrv1902 05222410272D          

 47 54  0  0  0  0            999 V2000
    2.3862   -6.8888    0.0000 C   0  0  2  0  0  0  0  0  0  0  0  0
    2.3862   -7.7138    0.0000 C   0  0  1  0  0  0  0  0  0  0  0  0
    3.1006   -8.1263    0.0000 C   0  0  2  0  0  0  0  0  0  0  0  0
    3.8151   -7.7138    0.0000 C   0  0  1  0  0  0  0  0  0  0  0  0
    3.8151   -6.8888    0.0000 O   0  0  0  0  0  0  0  0  0  0  0  0
    3.1006   -6.4763    0.0000 C   0  0  2  0  0  0  0  0  0  0  0  0
    4.5296   -8.1263    0.0000 O   0  0  0  0  0  0  0  0  0  0  0  0
    5.2440   -7.7138    0.0000 C   0  0  2  0  0  0  0  0  0  0  0  0
    5.9585   -8.1263    0.0000 C   0  0  0  0  0  0  0  0  0  0  0  0
    6.6730   -7.7138    0.0000 C   0  0  0  0  0  0  0  0  0  0  0  0
    6.6730   -6.8888    0.0000 C   0  0  2  0  0  0  0  0  0  0  0  0
    5.9585   -6.4763    0.0000 C   0  0  0  0  0  0  0  0  0  0  0  0
    5.2440   -6.8888    0.0000 C   0  0  0  0  0  0  0  0  0  0  0  0
    7.3875   -8.1262    0.0000 C   0  0  0  0  0  0  0  0  0  0  0  0
    8.1019   -7.7138    0.0000 C   0  0  0  0  0  0  0  0  0  0  0  0
    8.1019   -6.8888    0.0000 C   0  0  0  0  0  0  0  0  0  0  0  0
    7.3875   -6.4763    0.0000 C   0  0  1  0  0  0  0  0  0  0  0  0
    8.8164   -6.4763    0.0000 C   0  0  1  0  0  0  0  0  0  0  0  0
    8.8164   -5.6512    0.0000 C   0  0  2  0  0  0  0  0  0  0  0  0
    8.1019   -5.2387    0.0000 C   0  0  0  0  0  0  0  0  0  0  0  0
    7.3875   -5.6512    0.0000 C   0  0  0  0  0  0  0  0  0  0  0  0
    9.6010   -6.7312    0.0000 C   0  0  0  0  0  0  0  0  0  0  0  0
   10.0859   -6.0638    0.0000 C   0  0  0  0  0  0  0  0  0  0  0  0
    9.6010   -5.3963    0.0000 C   0  0  0  0  0  0  0  0  0  0  0  0
    3.1006   -5.6512    0.0000 C   0  0  0  0  0  0  0  0  0  0  0  0
    2.3862   -5.2387    0.0000 O   0  0  0  0  0  0  0  0  0  0  0  0
    1.6717   -6.4763    0.0000 O   0  0  0  0  0  0  0  0  0  0  0  0
    1.6717   -8.1263    0.0000 O   0  0  0  0  0  0  0  0  0  0  0  0
    3.1006   -8.9513    0.0000 O   0  0  0  0  0  0  0  0  0  0  0  0
    6.6730   -6.0638    0.0000 C   0  0  0  0  0  0  0  0  0  0  0  0
    8.8164   -4.8263    0.0000 C   0  0  0  0  0  0  0  0  0  0  0  0
    8.8164   -7.3012    0.0000 C   0  0  0  0  0  0  0  0  0  0  0  0
    5.5460   -8.8407    0.0000 C   0  0  0  0  0  0  0  0  0  0  0  0
    6.3710   -8.8407    0.0000 C   0  0  0  0  0  0  0  0  0  0  0  0
    8.1019   -4.4138    0.0000 O   0  0  0  0  0  0  0  0  0  0  0  0
    9.8560   -7.5158    0.0000 O   0  0  0  0  0  0  0  0  0  0  0  0
   11.2420   -5.2238    0.0000 C   0  0  0  0  0  0  0  0  0  0  0  0
   10.7571   -4.5564    0.0000 C   0  0  0  0  0  0  0  0  0  0  0  0
    9.9366   -4.6426    0.0000 C   0  0  1  0  0  0  0  0  0  0  0  0
    9.4517   -3.9752    0.0000 C   0  0  0  0  0  0  0  0  0  0  0  0
   10.2300   -5.0875    0.0000 O   0  0  0  0  0  0  0  0  0  0  0  0
   12.0389   -5.0103    0.0000 C   0  0  0  0  0  0  0  0  0  0  0  0
   12.6222   -5.5937    0.0000 C   0  0  0  0  0  0  0  0  0  0  0  0
   11.8250   -6.0500    0.0000 O   0  0  0  0  0  0  0  0  0  0  0  0
   13.4191   -5.3802    0.0000 C   0  0  0  0  0  0  0  0  0  0  0  0
   12.4087   -6.3906    0.0000 C   0  0  0  0  0  0  0  0  0  0  0  0
   13.2056   -6.1770    0.0000 O   0  0  0  0  0  0  0  0  0  0  0  0
  1  2  1  0  0  0  0
  2  3  1  0  0  0  0
  3  4  1  0  0  0  0
  4  5  1  0  0  0  0
  5  6  1  0  0  0  0
  6  1  1  0  0  0  0
  4  7  1  1  0  0  0
  8  7  1  1  0  0  0
  8  9  1  0  0  0  0
  9 10  1  0  0  0  0
 10 11  1  0  0  0  0
 11 12  1  0  0  0  0
 12 13  1  0  0  0  0
 13  8  1  0  0  0  0
 10 14  1  0  0  0  0
 14 15  1  0  0  0  0
 15 16  1  0  0  0  0
 16 17  1  0  0  0  0
 17 11  1  0  0  0  0
 16 18  1  0  0  0  0
 18 19  1  0  0  0  0
 19 20  1  0  0  0  0
 20 21  1  0  0  0  0
 21 17  1  0  0  0  0
 18 22  1  0  0  0  0
 22 23  1  0  0  0  0
 23 24  1  0  0  0  0
 24 19  1  0  0  0  0
  6 25  1  1  0  0  0
 25 26  1  0  0  0  0
  1 27  1  1  0  0  0
  2 28  1  1  0  0  0
  3 29  1  6  0  0  0
 11 30  1  1  0  0  0
 17 30  1  1  0  0  0
 19 31  1  1  0  0  0
 18 32  1  6  0  0  0
  9 33  1  0  0  0  0
  9 34  1  0  0  0  0
 20 35  1  0  0  0  0
 22 36  1  0  0  0  0
 37 38  1  0  0  0  0
 38 39  1  0  0  0  0
 39 24  1  0  0  0  0
 39 40  1  6  0  0  0
 37 41  1  0  0  0  0
 41 23  1  0  0  0  0
 37 42  1  0  0  0  0
 42 43  1  0  0  0  0
 42 44  1  0  0  0  0
 44 23  1  0  0  0  0
 43 45  1  0  0  0  0
 43 46  1  0  0  0  0
 43 47  1  0  0  0  0
M  END
>  <cdx:fragmentId>
436

$$$$
