188.cdx
  Mrv1902 05222410192D          

 26 27  0  0  0  0            999 V2000
    2.4412   -3.6300    0.0000 C   0  0  0  0  0  0  0  0  0  0  0  0
    2.4412   -4.4550    0.0000 C   0  0  0  0  0  0  0  0  0  0  0  0
    3.1556   -4.8675    0.0000 C   0  0  0  0  0  0  0  0  0  0  0  0
    3.8701   -4.4550    0.0000 C   0  0  0  0  0  0  0  0  0  0  0  0
    3.8701   -3.6300    0.0000 C   0  0  0  0  0  0  0  0  0  0  0  0
    3.1556   -3.2175    0.0000 C   0  0  0  0  0  0  0  0  0  0  0  0
    2.5723   -2.6341    0.0000 O   0  0  0  0  0  0  0  0  0  0  0  0
    3.1556   -2.3925    0.0000 C   0  0  0  0  0  0  0  0  0  0  0  0
    3.8701   -1.9800    0.0000 C   0  0  0  0  0  0  0  0  0  0  0  0
    2.5723   -1.8091    0.0000 O   0  0  0  0  0  0  0  0  0  0  0  0
    1.7267   -4.8675    0.0000 O   0  0  0  0  0  0  0  0  0  0  0  0
    3.1556   -5.6925    0.0000 O   0  0  0  0  0  0  0  0  0  0  0  0
    4.5846   -4.8675    0.0000 O   0  0  0  0  0  0  0  0  0  0  0  0
    5.2990   -4.4550    0.0000 C   0  0  0  0  0  0  0  0  0  0  0  0
    6.0135   -4.8675    0.0000 C   0  0  0  0  0  0  0  0  0  0  0  0
    5.2990   -3.6300    0.0000 O   0  0  0  0  0  0  0  0  0  0  0  0
    6.7280   -4.4550    0.0000 C   0  0  0  0  0  0  0  0  0  0  0  0
    7.4425   -4.8675    0.0000 C   0  0  0  0  0  0  0  0  0  0  0  0
    7.4425   -5.6925    0.0000 C   0  0  0  0  0  0  0  0  0  0  0  0
    8.1569   -6.1050    0.0000 C   0  0  0  0  0  0  0  0  0  0  0  0
    8.8714   -5.6925    0.0000 C   0  0  0  0  0  0  0  0  0  0  0  0
    8.8714   -4.8675    0.0000 C   0  0  0  0  0  0  0  0  0  0  0  0
    8.1569   -4.4550    0.0000 C   0  0  0  0  0  0  0  0  0  0  0  0
    8.1569   -6.9300    0.0000 O   0  0  0  0  0  0  0  0  0  0  0  0
    8.8714   -7.3425    0.0000 C   0  0  0  0  0  0  0  0  0  0  0  0
    9.6683   -5.4790    0.0000 O   0  0  0  0  0  0  0  0  0  0  0  0
  1  2  1  0  0  0  0
  2  3  1  0  0  0  0
  3  4  1  0  0  0  0
  4  5  1  0  0  0  0
  5  6  1  0  0  0  0
  6  1  1  0  0  0  0
  6  7  1  0  0  0  0
  6  8  1  0  0  0  0
  8  9  1  0  0  0  0
  8 10  2  0  0  0  0
  2 11  1  0  0  0  0
  3 12  1  0  0  0  0
  4 13  1  0  0  0  0
 13 14  1  0  0  0  0
 14 15  1  0  0  0  0
 14 16  2  0  0  0  0
 15 17  2  0  0  0  0
 17 18  1  0  0  0  0
 18 19  2  0  0  0  0
 19 20  1  0  0  0  0
 20 21  2  0  0  0  0
 21 22  1  0  0  0  0
 22 23  2  0  0  0  0
 23 18  1  0  0  0  0
 20 24  1  0  0  0  0
 24 25  1  0  0  0  0
 21 26  1  0  0  0  0
M  END
>  <cdx:fragmentId>
746

$$$$
