37682.cdx
  Mrv1902 05222410282D          

 35 39  0  0  0  0            999 V2000
    4.4830   -7.2462    0.0000 C   0  0  0  0  0  0  0  0  0  0  0  0
    4.4830   -8.0713    0.0000 C   0  0  1  0  0  0  0  0  0  0  0  0
    5.1975   -8.4838    0.0000 C   0  0  0  0  0  0  0  0  0  0  0  0
    5.9120   -8.0713    0.0000 C   0  0  2  0  0  0  0  0  0  0  0  0
    5.9120   -7.2462    0.0000 C   0  0  2  0  0  0  0  0  0  0  0  0
    5.1975   -6.8338    0.0000 C   0  0  1  0  0  0  0  0  0  0  0  0
    6.6264   -8.4838    0.0000 C   0  0  0  0  0  0  0  0  0  0  0  0
    7.3409   -8.0713    0.0000 C   0  0  0  0  0  0  0  0  0  0  0  0
    7.3409   -7.2462    0.0000 C   0  0  2  0  0  0  0  0  0  0  0  0
    6.6264   -6.8338    0.0000 C   0  0  2  0  0  0  0  0  0  0  0  0
    8.0554   -6.8338    0.0000 C   0  0  2  0  0  0  0  0  0  0  0  0
    8.0554   -6.0088    0.0000 C   0  0  2  0  0  0  0  0  0  0  0  0
    7.3409   -5.5962    0.0000 C   0  0  0  0  0  0  0  0  0  0  0  0
    6.6264   -6.0088    0.0000 C   0  0  2  0  0  0  0  0  0  0  0  0
    8.8400   -7.0887    0.0000 C   0  0  0  0  0  0  0  0  0  0  0  0
    9.3249   -6.4213    0.0000 C   0  0  2  0  0  0  0  0  0  0  0  0
    8.8400   -5.7538    0.0000 C   0  0  2  0  0  0  0  0  0  0  0  0
    9.0949   -4.9692    0.0000 C   0  0  0  0  0  0  0  0  0  0  0  0
    9.9019   -4.7977    0.0000 C   0  0  0  0  0  0  0  0  0  0  0  0
   10.1569   -4.0130    0.0000 C   0  0  0  0  0  0  0  0  0  0  0  0
    9.6048   -3.3999    0.0000 C   0  0  0  0  0  0  0  0  0  0  0  0
    8.7979   -3.5715    0.0000 O   0  0  0  0  0  0  0  0  0  0  0  0
    8.5429   -4.3561    0.0000 C   0  0  0  0  0  0  0  0  0  0  0  0
    9.8598   -2.6153    0.0000 O   0  0  0  0  0  0  0  0  0  0  0  0
    8.1416   -5.1883    0.0000 C   0  0  0  0  0  0  0  0  0  0  0  0
    8.1416   -7.6542    0.0000 O   0  0  0  0  0  0  0  0  0  0  0  0
    7.3409   -4.7713    0.0000 O   0  0  0  0  0  0  0  0  0  0  0  0
    5.9120   -8.8963    0.0000 H   0  0  0  0  0  0  0  0  0  0  0  0
    3.7686   -8.4838    0.0000 O   0  0  0  0  0  0  0  0  0  0  0  0
    5.9120   -6.4213    0.0000 C   0  0  0  0  0  0  0  0  0  0  0  0
   10.1499   -6.4213    0.0000 H   0  0  0  0  0  0  0  0  0  0  0  0
    5.9120   -5.5962    0.0000 H   0  0  0  0  0  0  0  0  0  0  0  0
    5.1975   -6.0088    0.0000 H   0  0  0  0  0  0  0  0  0  0  0  0
    6.6264   -7.6587    0.0000 H   0  0  0  0  0  0  0  0  0  0  0  0
    7.3409   -6.4213    0.0000 H   0  0  0  0  0  0  0  0  0  0  0  0
  1  2  1  0  0  0  0
  2  3  1  0  0  0  0
  3  4  1  0  0  0  0
  4  5  1  0  0  0  0
  5  6  1  0  0  0  0
  6  1  1  0  0  0  0
  4  7  1  0  0  0  0
  7  8  1  0  0  0  0
  8  9  1  0  0  0  0
  9 10  1  0  0  0  0
 10  5  1  0  0  0  0
  9 11  1  0  0  0  0
 11 12  1  0  0  0  0
 12 13  1  0  0  0  0
 13 14  1  0  0  0  0
 14 10  1  0  0  0  0
 11 15  1  0  0  0  0
 15 16  1  0  0  0  0
 16 17  1  0  0  0  0
 17 12  1  0  0  0  0
 17 18  1  1  0  0  0
 18 19  1  0  0  0  0
 19 20  2  0  0  0  0
 20 21  1  0  0  0  0
 21 22  1  0  0  0  0
 22 23  1  0  0  0  0
 23 18  2  0  0  0  0
 21 24  2  0  0  0  0
 12 25  1  1  0  0  0
 11 26  1  1  0  0  0
 13 27  2  0  0  0  0
  4 28  1  1  0  0  0
  2 29  1  1  0  0  0
  5 30  1  1  0  0  0
 16 31  1  1  0  0  0
 14 32  1  6  0  0  0
  6 33  1  1  0  0  0
 10 34  1  6  0  0  0
  9 35  1  1  0  0  0
M  END
>  <cdx:fragmentId>
275

$$$$
