184.cdx
  Mrv1902 05222410272D          

 23 22  0  0  0  0            999 V2000
    2.4956   -3.0938    0.0000 O   0  0  0  0  0  0  0  0  0  0  0  0
    3.3206   -3.0938    0.0000 C   0  0  0  0  0  0  0  0  0  0  0  0
    3.7331   -3.8082    0.0000 C   0  0  0  0  0  0  0  0  0  0  0  0
    4.5581   -3.8082    0.0000 C   0  0  0  0  0  0  0  0  0  0  0  0
    4.9706   -4.5227    0.0000 C   0  0  0  0  0  0  0  0  0  0  0  0
    5.7956   -4.5227    0.0000 C   0  0  0  0  0  0  0  0  0  0  0  0
    6.6206   -4.5227    0.0000 C   0  0  0  0  0  0  0  0  0  0  0  0
    7.4456   -4.5227    0.0000 C   0  0  0  0  0  0  0  0  0  0  0  0
    7.8581   -5.2372    0.0000 C   0  0  0  0  0  0  0  0  0  0  0  0
    8.6831   -5.2372    0.0000 C   0  0  0  0  0  0  0  0  0  0  0  0
    9.0956   -5.9516    0.0000 C   0  0  0  0  0  0  0  0  0  0  0  0
    9.9206   -5.9516    0.0000 C   0  0  0  0  0  0  0  0  0  0  0  0
   10.5040   -6.5350    0.0000 C   0  0  0  0  0  0  0  0  0  0  0  0
   10.5040   -7.3600    0.0000 O   0  0  0  0  0  0  0  0  0  0  0  0
   11.2662   -6.2193    0.0000 C   0  0  0  0  0  0  0  0  0  0  0  0
   11.2185   -7.7725    0.0000 C   0  0  0  0  0  0  0  0  0  0  0  0
   11.2185   -8.5975    0.0000 C   0  0  0  0  0  0  0  0  0  0  0  0
   11.9329   -7.3600    0.0000 O   0  0  0  0  0  0  0  0  0  0  0  0
   11.2662   -5.3943    0.0000 C   0  0  0  0  0  0  0  0  0  0  0  0
   11.9807   -4.9818    0.0000 O   0  0  0  0  0  0  0  0  0  0  0  0
   11.9807   -4.1568    0.0000 C   0  0  0  0  0  0  0  0  0  0  0  0
   12.6951   -3.7443    0.0000 C   0  0  0  0  0  0  0  0  0  0  0  0
   11.2662   -3.7443    0.0000 O   0  0  0  0  0  0  0  0  0  0  0  0
  1  2  1  0  0  0  0
  2  3  1  0  0  0  0
  3  4  2  0  0  0  0
  4  5  1  0  0  0  0
  5  6  3  0  0  0  0
  6  7  1  0  0  0  0
  7  8  3  0  0  0  0
  8  9  1  0  0  0  0
  9 10  2  0  0  0  0
 10 11  1  0  0  0  0
 11 12  2  0  0  0  0
 12 13  1  0  0  0  0
 13 14  1  0  0  0  0
 13 15  1  0  0  0  0
 14 16  1  0  0  0  0
 16 17  1  0  0  0  0
 16 18  2  0  0  0  0
 15 19  1  0  0  0  0
 19 20  1  0  0  0  0
 20 21  1  0  0  0  0
 21 22  1  0  0  0  0
 21 23  2  0  0  0  0
M  END
>  <cdx:fragmentId>
378

$$$$
