37681.cdx
  Mrv1902 05222410272D          

 43 46  0  0  0  0            999 V2000
    7.4164  -13.2383    0.0000 C   0  0  1  0  0  0  0  0  0  0  0  0
    8.0689  -13.7431    0.0000 C   0  0  0  0  0  0  0  0  0  0  0  0
    8.8704  -13.5477    0.0000 C   0  0  0  0  0  0  0  0  0  0  0  0
    9.2174  -12.7992    0.0000 C   0  0  0  0  0  0  0  0  0  0  0  0
    8.8485  -12.0612    0.0000 C   0  0  2  0  0  0  0  0  0  0  0  0
    8.0415  -11.8896    0.0000 C   0  0  1  0  0  0  0  0  0  0  0  0
    7.4042  -12.4134    0.0000 C   0  0  2  0  0  0  0  0  0  0  0  0
    9.4006  -11.4482    0.0000 C   0  0  1  0  0  0  0  0  0  0  0  0
    9.1458  -10.6636    0.0000 C   0  0  1  0  0  0  0  0  0  0  0  0
    8.3388  -10.4919    0.0000 C   0  0  1  0  0  0  0  0  0  0  0  0
    7.7867  -11.1049    0.0000 C   0  0  1  0  0  0  0  0  0  0  0  0
    6.6159  -12.1701    0.0000 C   0  0  0  0  0  0  0  0  0  0  0  0
    6.1409  -12.8447    0.0000 C   0  0  0  0  0  0  0  0  0  0  0  0
    6.6356  -13.5049    0.0000 C   0  0  0  0  0  0  0  0  0  0  0  0
    5.3160  -12.8569    0.0000 C   0  0  0  0  0  0  0  0  0  0  0  0
    6.3923  -14.2932    0.0000 O   0  0  0  0  0  0  0  0  0  0  0  0
    7.4164  -14.0633    0.0000 O   0  0  0  0  0  0  0  0  0  0  0  0
    7.4042  -11.5884    0.0000 H   0  0  0  0  0  0  0  0  0  0  0  0
    9.5230  -14.0524    0.0000 C   0  0  0  0  0  0  0  0  0  0  0  0
    9.6094  -12.3799    0.0000 H   0  0  0  0  0  0  0  0  0  0  0  0
    8.1460  -12.7079    0.0000 O   0  0  0  0  0  0  0  0  0  0  0  0
    6.9692  -10.9940    0.0000 C   0  0  0  0  0  0  0  0  0  0  0  0
    8.2344   -9.6735    0.0000 O   0  0  0  0  0  0  0  0  0  0  0  0
    7.4681   -9.3677    0.0000 C   0  0  0  0  0  0  0  0  0  0  0  0
    7.3498   -8.5513    0.0000 C   0  0  0  0  0  0  0  0  0  0  0  0
    6.5836   -8.2455    0.0000 C   0  0  0  0  0  0  0  0  0  0  0  0
    6.4653   -7.4290    0.0000 C   0  0  0  0  0  0  0  0  0  0  0  0
    5.6991   -7.1232    0.0000 C   0  0  0  0  0  0  0  0  0  0  0  0
    5.5808   -6.3067    0.0000 C   0  0  0  0  0  0  0  0  0  0  0  0
    4.8146   -6.0009    0.0000 C   0  0  0  0  0  0  0  0  0  0  0  0
    4.6963   -5.1844    0.0000 C   0  0  0  0  0  0  0  0  0  0  0  0
    3.9301   -4.8786    0.0000 C   0  0  0  0  0  0  0  0  0  0  0  0
    3.8118   -4.0621    0.0000 C   0  0  0  0  0  0  0  0  0  0  0  0
    6.8202   -9.8784    0.0000 O   0  0  0  0  0  0  0  0  0  0  0  0
    9.9054  -10.7957    0.0000 C   0  0  0  0  0  0  0  0  0  0  0  0
    9.4645   -9.9026    0.0000 O   0  0  0  0  0  0  0  0  0  0  0  0
    9.4496   -9.0777    0.0000 C   0  0  0  0  0  0  0  0  0  0  0  0
    8.7279   -8.6781    0.0000 O   0  0  0  0  0  0  0  0  0  0  0  0
   10.1566   -8.6525    0.0000 C   0  0  0  0  0  0  0  0  0  0  0  0
   10.4887  -10.2123    0.0000 C   0  0  0  0  0  0  0  0  0  0  0  0
   10.7023  -11.0092    0.0000 C   0  0  0  0  0  0  0  0  0  0  0  0
   10.2864  -13.7397    0.0000 O   0  0  0  0  0  0  0  0  0  0  0  0
    9.9840  -12.0316    0.0000 H   0  0  0  0  0  0  0  0  0  0  0  0
  1  2  1  0  0  0  0
  2  3  1  0  0  0  0
  3  4  2  0  0  0  0
  4  5  1  0  0  0  0
  5  6  1  0  0  0  0
  6  7  1  0  0  0  0
  7  1  1  0  0  0  0
  5  8  1  0  0  0  0
  8  9  1  0  0  0  0
  9 10  1  0  0  0  0
 10 11  1  0  0  0  0
 11  6  1  0  0  0  0
  7 12  1  0  0  0  0
 12 13  2  0  0  0  0
 13 14  1  0  0  0  0
 14  1  1  0  0  0  0
 13 15  1  0  0  0  0
 14 16  2  0  0  0  0
  1 17  1  1  0  0  0
  7 18  1  6  0  0  0
  3 19  1  0  0  0  0
  5 20  1  1  0  0  0
  6 21  1  6  0  0  0
 11 22  1  6  0  0  0
 10 23  1  1  0  0  0
 23 24  1  0  0  0  0
 24 25  1  0  0  0  0
 25 26  2  0  0  0  0
 26 27  1  0  0  0  0
 27 28  2  0  0  0  0
 28 29  1  0  0  0  0
 29 30  1  0  0  0  0
 30 31  1  0  0  0  0
 31 32  1  0  0  0  0
 32 33  1  0  0  0  0
 24 34  2  0  0  0  0
  8 35  1  0  0  0  0
  9 35  1  0  0  0  0
  9 36  1  6  0  0  0
 36 37  1  0  0  0  0
 37 38  2  0  0  0  0
 37 39  1  0  0  0  0
 35 40  1  0  0  0  0
 35 41  1  0  0  0  0
 19 42  1  0  0  0  0
  8 43  1  6  0  0  0
M  END
>  <cdx:fragmentId>
166

$$$$
