37680.cdx
  Mrv1902 05222410272D          

 47 46  0  0  0  0            999 V2000
    2.5871   -2.9906    0.0000 C   0  0  0  0  0  0  0  0  0  0  0  0
    3.3016   -2.5781    0.0000 C   0  0  0  0  0  0  0  0  0  0  0  0
    4.0161   -2.9906    0.0000 C   0  0  0  0  0  0  0  0  0  0  0  0
    4.7305   -2.5781    0.0000 C   0  0  0  0  0  0  0  0  0  0  0  0
    5.4450   -2.9906    0.0000 C   0  0  0  0  0  0  0  0  0  0  0  0
    6.1595   -2.5781    0.0000 C   0  0  0  0  0  0  0  0  0  0  0  0
    6.8739   -2.9906    0.0000 C   0  0  0  0  0  0  0  0  0  0  0  0
    7.5884   -2.5781    0.0000 C   0  0  0  0  0  0  0  0  0  0  0  0
    8.3029   -2.9906    0.0000 C   0  0  0  0  0  0  0  0  0  0  0  0
    9.0174   -2.5781    0.0000 C   0  0  0  0  0  0  0  0  0  0  0  0
    9.7318   -2.9906    0.0000 C   0  0  0  0  0  0  0  0  0  0  0  0
   10.4463   -2.5781    0.0000 C   0  0  0  0  0  0  0  0  0  0  0  0
   11.1608   -2.9906    0.0000 C   0  0  0  0  0  0  0  0  0  0  0  0
   11.8752   -2.5781    0.0000 C   0  0  0  0  0  0  0  0  0  0  0  0
   12.5897   -2.9906    0.0000 C   0  0  0  0  0  0  0  0  0  0  0  0
   13.3042   -2.5781    0.0000 C   0  0  0  0  0  0  0  0  0  0  0  0
   14.0187   -2.9906    0.0000 C   0  0  0  0  0  0  0  0  0  0  0  0
   14.7331   -2.5781    0.0000 C   0  0  0  0  0  0  0  0  0  0  0  0
    1.8726   -2.5781    0.0000 O   0  0  0  0  0  0  0  0  0  0  0  0
    2.5871   -3.8156    0.0000 O   0  0  0  0  0  0  0  0  0  0  0  0
    1.1582   -2.9906    0.0000 C   0  0  0  0  0  0  0  0  0  0  0  0
    1.1582   -3.8156    0.0000 C   0  0  0  0  0  0  0  0  0  0  0  0
    0.4437   -4.2281    0.0000 C   0  0  0  0  0  0  0  0  0  0  0  0
    1.8726   -4.2281    0.0000 O   0  0  0  0  0  0  0  0  0  0  0  0
    0.4437   -5.0531    0.0000 O   0  0  0  0  0  0  0  0  0  0  0  0
    1.1582   -5.4656    0.0000 C   0  0  0  0  0  0  0  0  0  0  0  0
    1.8726   -5.0531    0.0000 C   0  0  0  0  0  0  0  0  0  0  0  0
    1.1582   -6.2906    0.0000 O   0  0  0  0  0  0  0  0  0  0  0  0
    2.5871   -5.4656    0.0000 C   0  0  0  0  0  0  0  0  0  0  0  0
    3.3016   -5.0531    0.0000 C   0  0  0  0  0  0  0  0  0  0  0  0
    4.0161   -5.4656    0.0000 C   0  0  0  0  0  0  0  0  0  0  0  0
    4.7305   -5.0531    0.0000 C   0  0  0  0  0  0  0  0  0  0  0  0
    5.4450   -5.4656    0.0000 C   0  0  0  0  0  0  0  0  0  0  0  0
    6.1595   -5.0531    0.0000 C   0  0  0  0  0  0  0  0  0  0  0  0
    6.8739   -5.4656    0.0000 C   0  0  0  0  0  0  0  0  0  0  0  0
    7.5884   -5.0531    0.0000 C   0  0  0  0  0  0  0  0  0  0  0  0
    8.3029   -5.4656    0.0000 C   0  0  0  0  0  0  0  0  0  0  0  0
    9.0174   -5.0531    0.0000 C   0  0  0  0  0  0  0  0  0  0  0  0
    9.7318   -5.4656    0.0000 C   0  0  0  0  0  0  0  0  0  0  0  0
    9.7318   -6.2906    0.0000 C   0  0  0  0  0  0  0  0  0  0  0  0
   10.4463   -6.7031    0.0000 C   0  0  0  0  0  0  0  0  0  0  0  0
   10.4463   -7.5281    0.0000 C   0  0  0  0  0  0  0  0  0  0  0  0
    9.7318   -7.9406    0.0000 C   0  0  0  0  0  0  0  0  0  0  0  0
    9.0174   -7.5281    0.0000 C   0  0  0  0  0  0  0  0  0  0  0  0
    8.3029   -7.9406    0.0000 C   0  0  0  0  0  0  0  0  0  0  0  0
    7.5884   -7.5281    0.0000 C   0  0  0  0  0  0  0  0  0  0  0  0
    6.8739   -7.9406    0.0000 C   0  0  0  0  0  0  0  0  0  0  0  0
  1  2  1  0  0  0  0
  2  3  1  0  0  0  0
  3  4  1  0  0  0  0
  4  5  1  0  0  0  0
  5  6  1  0  0  0  0
  6  7  1  0  0  0  0
  7  8  1  0  0  0  0
  8  9  1  0  0  0  0
  9 10  1  0  0  0  0
 10 11  1  0  0  0  0
 11 12  1  0  0  0  0
 12 13  1  0  0  0  0
 13 14  1  0  0  0  0
 14 15  1  0  0  0  0
 15 16  1  0  0  0  0
 16 17  1  0  0  0  0
 17 18  1  0  0  0  0
  1 19  1  0  0  0  0
  1 20  2  0  0  0  0
 19 21  1  0  0  0  0
 21 22  1  0  0  0  0
 22 23  1  0  0  0  0
 22 24  1  0  0  0  0
 23 25  1  0  0  0  0
 25 26  1  0  0  0  0
 26 27  1  0  0  0  0
 26 28  2  0  0  0  0
 27 29  1  0  0  0  0
 29 30  1  0  0  0  0
 30 31  1  0  0  0  0
 31 32  1  0  0  0  0
 32 33  1  0  0  0  0
 33 34  1  0  0  0  0
 34 35  1  0  0  0  0
 35 36  1  0  0  0  0
 36 37  1  0  0  0  0
 37 38  1  0  0  0  0
 38 39  2  0  0  0  0
 39 40  1  0  0  0  0
 40 41  1  0  0  0  0
 41 42  2  0  0  0  0
 42 43  1  0  0  0  0
 43 44  1  0  0  0  0
 44 45  1  0  0  0  0
 45 46  1  0  0  0  0
 46 47  1  0  0  0  0
M  END
>  <cdx:fragmentId>
3

$$$$
