37696.cdx
  Mrv1902 05222410282D          

 38 43  0  0  0  0            999 V2000
    7.7738   -7.7734    0.0000 C   0  0  2  0  0  0  0  0  0  0  0  0
    8.1339   -8.5157    0.0000 C   0  0  1  0  0  0  0  0  0  0  0  0
    7.7781   -9.2600    0.0000 C   0  0  1  0  0  0  0  0  0  0  0  0
    6.9743   -9.4460    0.0000 C   0  0  1  0  0  0  0  0  0  0  0  0
    6.3278   -8.9335    0.0000 C   0  0  1  0  0  0  0  0  0  0  0  0
    6.3254   -8.1085    0.0000 C   0  0  2  0  0  0  0  0  0  0  0  0
    6.9689   -7.5922    0.0000 C   0  0  2  0  0  0  0  0  0  0  0  0
    5.6146   -9.3480    0.0000 C   0  0  2  0  0  0  0  0  0  0  0  0
    4.8989   -8.9376    0.0000 C   0  0  2  0  0  0  0  0  0  0  0  0
    4.8965   -8.1126    0.0000 C   0  0  0  0  0  0  0  0  0  0  0  0
    5.6097   -7.6980    0.0000 C   0  0  2  0  0  0  0  0  0  0  0  0
    6.8926   -6.7707    0.0000 C   0  0  0  0  0  0  0  0  0  0  0  0
    7.6502   -6.4443    0.0000 C   0  0  1  0  0  0  0  0  0  0  0  0
    8.1948   -7.0640    0.0000 C   0  0  2  0  0  0  0  0  0  0  0  0
    5.6073   -6.8731    0.0000 O   0  0  0  0  0  0  0  0  0  0  0  0
    5.6170  -10.1730    0.0000 C   0  0  0  0  0  0  0  0  0  0  0  0
    4.9037  -10.5876    0.0000 O   0  0  0  0  0  0  0  0  0  0  0  0
    4.9061  -11.4126    0.0000 C   0  0  0  0  0  0  0  0  0  0  0  0
    6.3250   -7.4525    0.0000 C   0  0  0  0  0  0  0  0  0  0  0  0
    5.6100   -8.4700    0.0000 N   0  0  0  0  0  0  0  0  0  0  0  0
    4.8950   -9.6525    0.0000 C   0  0  0  0  0  0  0  0  0  0  0  0
    8.9325   -8.3085    0.0000 C   0  0  2  0  0  0  0  0  0  0  0  0
    8.9100   -6.6000    0.0000 C   0  0  2  0  0  0  0  0  0  0  0  0
    8.3474   -9.3126    0.0000 O   0  0  0  0  0  0  0  0  0  0  0  0
    9.5150   -7.0125    0.0000 O   0  0  0  0  0  0  0  0  0  0  0  0
    6.3212   -9.7584    0.0000 H   0  0  0  0  0  0  0  0  0  0  0  0
    6.3856   -7.0088    0.0000 H   0  0  0  0  0  0  0  0  0  0  0  0
    8.5987   -7.7800    0.0000 H   0  0  0  0  0  0  0  0  0  0  0  0
    7.7781  -10.0850    0.0000 H   0  0  0  0  0  0  0  0  0  0  0  0
    4.4275   -8.4700    0.0000 C   0  0  0  0  0  0  0  0  0  0  0  0
    6.9743  -10.2710    0.0000 O   0  0  0  0  0  0  0  0  0  0  0  0
    6.2599  -10.6835    0.0000 C   0  0  0  0  0  0  0  0  0  0  0  0
    9.7293   -8.5221    0.0000 O   0  0  0  0  0  0  0  0  0  0  0  0
    3.8441   -7.8866    0.0000 C   0  0  0  0  0  0  0  0  0  0  0  0
    9.5245   -6.0495    0.0000 O   0  0  0  0  0  0  0  0  0  0  0  0
    9.5245   -5.2245    0.0000 C   0  0  0  0  0  0  0  0  0  0  0  0
    7.6502   -5.6193    0.0000 H   0  0  0  0  0  0  0  0  0  0  0  0
    4.1856   -9.3522    0.0000 H   0  0  0  0  0  0  0  0  0  0  0  0
  1  2  1  0  0  0  0
  2  3  1  0  0  0  0
  3  4  1  0  0  0  0
  4  5  1  0  0  0  0
  5  6  1  0  0  0  0
  6  7  1  0  0  0  0
  7  1  1  0  0  0  0
  5  8  1  0  0  0  0
  8  9  1  0  0  0  0
  9 10  1  0  0  0  0
 10 11  1  0  0  0  0
  6 11  1  1  0  0  0
  7 12  1  0  0  0  0
 12 13  1  0  0  0  0
 13 14  1  0  0  0  0
 14  1  1  0  0  0  0
 11 15  1  6  0  0  0
  8 16  1  1  0  0  0
 16 17  1  0  0  0  0
 17 18  1  0  0  0  0
  6 19  1  0  0  0  0
  3 19  1  0  0  0  0
 19 20  1  0  0  0  0
 20 21  1  0  0  0  0
  8 21  1  0  0  0  0
  2 22  1  0  0  0  0
 13 23  1  0  0  0  0
 23 22  1  0  0  0  0
  2 24  1  1  0  0  0
 14 25  1  6  0  0  0
  5 26  1  1  0  0  0
  7 27  1  1  0  0  0
  1 28  1  1  0  0  0
  3 29  1  6  0  0  0
 20 30  1  0  0  0  0
  4 31  1  6  0  0  0
 31 32  1  0  0  0  0
 22 33  1  6  0  0  0
 30 34  1  0  0  0  0
 23 35  1  1  0  0  0
 35 36  1  0  0  0  0
 13 37  1  1  0  0  0
  9 38  1  6  0  0  0
M  END
>  <cdx:fragmentId>
491

$$$$
