197.cdx
  Mrv1902 05222410282D          

 40 44  0  0  0  0            999 V2000
    2.6680   -6.6000    0.0000 C   0  0  1  0  0  0  0  0  0  0  0  0
    2.6680   -7.4250    0.0000 C   0  0  2  0  0  0  0  0  0  0  0  0
    3.3825   -7.8375    0.0000 C   0  0  2  0  0  0  0  0  0  0  0  0
    4.0970   -7.4250    0.0000 C   0  0  1  0  0  0  0  0  0  0  0  0
    4.0970   -6.6000    0.0000 C   0  0  2  0  0  0  0  0  0  0  0  0
    3.3825   -6.1875    0.0000 C   0  0  0  0  0  0  0  0  0  0  0  0
    4.8114   -7.8375    0.0000 C   0  0  0  0  0  0  0  0  0  0  0  0
    5.5259   -7.4250    0.0000 C   0  0  0  0  0  0  0  0  0  0  0  0
    5.5259   -6.6000    0.0000 C   0  0  0  0  0  0  0  0  0  0  0  0
    4.8114   -6.1875    0.0000 C   0  0  2  0  0  0  0  0  0  0  0  0
    6.2939   -6.2986    0.0000 C   0  0  0  0  0  0  0  0  0  0  0  0
    6.5371   -5.5102    0.0000 C   0  0  1  0  0  0  0  0  0  0  0  0
    6.0723   -4.8286    0.0000 C   0  0  2  0  0  0  0  0  0  0  0  0
    5.2496   -4.7669    0.0000 C   0  0  0  0  0  0  0  0  0  0  0  0
    4.6885   -5.3717    0.0000 C   0  0  0  0  0  0  0  0  0  0  0  0
    7.3597   -5.4486    0.0000 C   0  0  0  0  0  0  0  0  0  0  0  0
    7.7177   -4.7053    0.0000 C   0  0  0  0  0  0  0  0  0  0  0  0
    7.2530   -4.0236    0.0000 C   0  0  2  0  0  0  0  0  0  0  0  0
    6.4303   -4.0853    0.0000 C   0  0  2  0  0  0  0  0  0  0  0  0
    7.6109   -3.2803    0.0000 C   0  0  2  0  0  0  0  0  0  0  0  0
    7.1462   -2.5987    0.0000 C   0  0  1  0  0  0  0  0  0  0  0  0
    6.3235   -2.6604    0.0000 C   0  0  0  0  0  0  0  0  0  0  0  0
    5.9655   -3.4037    0.0000 C   0  0  0  0  0  0  0  0  0  0  0  0
    1.9536   -6.1875    0.0000 O   0  0  0  0  0  0  0  0  0  0  0  0
    1.9536   -7.8375    0.0000 O   0  0  0  0  0  0  0  0  0  0  0  0
    3.3825   -8.6625    0.0000 C   0  0  0  0  0  0  0  0  0  0  0  0
    4.2281   -5.6041    0.0000 H   0  0  0  0  0  0  0  0  0  0  0  0
    4.0970   -8.2500    0.0000 H   0  0  0  0  0  0  0  0  0  0  0  0
    7.2515   -5.9227    0.0000 C   0  0  0  0  0  0  0  0  0  0  0  0
    5.6053   -4.0853    0.0000 C   0  0  0  0  0  0  0  0  0  0  0  0
    8.3254   -2.8678    0.0000 C   0  0  0  0  0  0  0  0  0  0  0  0
    3.7950   -8.5520    0.0000 C   0  0  0  0  0  0  0  0  0  0  0  0
    4.0970   -5.7750    0.0000 C   0  0  0  0  0  0  0  0  0  0  0  0
    5.3578   -4.4161    0.0000 H   0  0  0  0  0  0  0  0  0  0  0  0
    8.0780   -4.0236    0.0000 H   0  0  0  0  0  0  0  0  0  0  0  0
    8.4078   -3.4939    0.0000 C   0  0  0  0  0  0  0  0  0  0  0  0
    7.5587   -1.8842    0.0000 O   0  0  0  0  0  0  0  0  0  0  0  0
    3.7950   -9.3770    0.0000 O   0  0  0  0  0  0  0  0  0  0  0  0
    4.8114   -8.6625    0.0000 O   0  0  0  0  0  0  0  0  0  0  0  0
    9.1223   -3.0814    0.0000 O   0  0  0  0  0  0  0  0  0  0  0  0
  1  2  1  0  0  0  0
  2  3  1  0  0  0  0
  3  4  1  0  0  0  0
  4  5  1  0  0  0  0
  5  6  1  0  0  0  0
  6  1  1  0  0  0  0
  4  7  1  0  0  0  0
  7  8  1  0  0  0  0
  8  9  2  0  0  0  0
  9 10  1  0  0  0  0
 10  5  1  0  0  0  0
  9 11  1  0  0  0  0
 11 12  1  0  0  0  0
 12 13  1  0  0  0  0
 13 14  1  0  0  0  0
 14 15  1  0  0  0  0
 15 10  1  0  0  0  0
 12 16  1  0  0  0  0
 16 17  1  0  0  0  0
 17 18  1  0  0  0  0
 18 19  1  0  0  0  0
 19 13  1  0  0  0  0
 18 20  1  0  0  0  0
 20 21  1  0  0  0  0
 21 22  1  0  0  0  0
 22 23  1  0  0  0  0
 23 19  1  0  0  0  0
  1 24  1  6  0  0  0
  2 25  1  6  0  0  0
  3 26  1  6  0  0  0
 10 27  1  6  0  0  0
  4 28  1  6  0  0  0
 12 29  1  6  0  0  0
 19 30  1  6  0  0  0
 20 31  1  6  0  0  0
  3 32  1  1  0  0  0
  5 33  1  1  0  0  0
 13 34  1  1  0  0  0
 18 35  1  1  0  0  0
 20 36  1  1  0  0  0
 21 37  1  1  0  0  0
 32 38  1  0  0  0  0
  7 39  2  0  0  0  0
 31 40  1  0  0  0  0
M  END
>  <cdx:fragmentId>
391

$$$$
