5376979.cdx
  Mrv1902 05222410262D          

 18 19  0  0  0  0            999 V2000
   16.1360   -8.4491    0.0000 C   0  0  0  0  0  0  0  0  0  0  0  0
   15.4215   -8.0366    0.0000 C   0  0  0  0  0  0  0  0  0  0  0  0
   15.4215   -7.2116    0.0000 O   0  0  0  0  0  0  0  0  0  0  0  0
   14.7070   -8.4491    0.0000 C   0  0  0  0  0  0  0  0  0  0  0  0
   14.7070   -9.2741    0.0000 C   0  0  0  0  0  0  0  0  0  0  0  0
   13.9926   -9.6866    0.0000 C   0  0  0  0  0  0  0  0  0  0  0  0
   13.2781   -9.2741    0.0000 C   0  0  0  0  0  0  0  0  0  0  0  0
   13.2781   -8.4491    0.0000 C   0  0  0  0  0  0  0  0  0  0  0  0
   13.9926   -8.0366    0.0000 C   0  0  0  0  0  0  0  0  0  0  0  0
   16.8505   -8.0366    0.0000 C   0  0  0  0  0  0  0  0  0  0  0  0
   17.5649   -8.4491    0.0000 C   0  0  0  0  0  0  0  0  0  0  0  0
   18.2794   -8.0366    0.0000 C   0  0  0  0  0  0  0  0  0  0  0  0
   18.9939   -8.4491    0.0000 C   0  0  0  0  0  0  0  0  0  0  0  0
   18.9939   -9.2741    0.0000 C   0  0  0  0  0  0  0  0  0  0  0  0
   18.2794   -9.6866    0.0000 C   0  0  0  0  0  0  0  0  0  0  0  0
   17.5649   -9.2741    0.0000 C   0  0  0  0  0  0  0  0  0  0  0  0
   12.5636   -9.6866    0.0000 O   0  0  0  0  0  0  0  0  0  0  0  0
   15.4215   -9.6866    0.0000 O   0  0  0  0  0  0  0  0  0  0  0  0
  1  2  1  0  0  0  0
  2  3  2  0  0  0  0
  2  4  1  0  0  0  0
  4  5  1  0  0  0  0
  5  6  2  0  0  0  0
  6  7  1  0  0  0  0
  7  8  2  0  0  0  0
  8  9  1  0  0  0  0
  4  9  2  0  0  0  0
  1 10  2  0  0  0  0
 10 11  1  0  0  0  0
 11 12  1  0  0  0  0
 12 13  2  0  0  0  0
 13 14  1  0  0  0  0
 14 15  2  0  0  0  0
 15 16  1  0  0  0  0
 11 16  2  0  0  0  0
  7 17  1  0  0  0  0
  5 18  1  0  0  0  0
M  END
>  <cdx:groupId>
32534

>  <cdx:fragmentId>
32482

$$$$
