37690.cdx
  Mrv1902 05222410272D          

 33 35  0  0  0  0            999 V2000
    7.0037   -5.7062    0.0000 C   0  0  2  0  0  0  0  0  0  0  0  0
    7.0037   -6.5313    0.0000 C   0  0  0  0  0  0  0  0  0  0  0  0
    7.7181   -6.9438    0.0000 C   0  0  1  0  0  0  0  0  0  0  0  0
    8.4326   -6.5313    0.0000 C   0  0  1  0  0  0  0  0  0  0  0  0
    8.4326   -5.7062    0.0000 C   0  0  1  0  0  0  0  0  0  0  0  0
    7.7181   -5.2938    0.0000 C   0  0  0  0  0  0  0  0  0  0  0  0
    7.7181   -7.7687    0.0000 C   0  0  2  0  0  0  0  0  0  0  0  0
    8.4326   -8.1812    0.0000 C   0  0  2  0  0  0  0  0  0  0  0  0
    9.1471   -7.7687    0.0000 C   0  0  0  0  0  0  0  0  0  0  0  0
    9.1471   -6.9438    0.0000 C   0  0  0  0  0  0  0  0  0  0  0  0
    6.2892   -5.2938    0.0000 O   0  0  0  0  0  0  0  0  0  0  0  0
    6.2892   -4.4688    0.0000 C   0  0  0  0  0  0  0  0  0  0  0  0
    7.0037   -4.0563    0.0000 O   0  0  0  0  0  0  0  0  0  0  0  0
    5.5747   -4.0563    0.0000 C   0  0  0  0  0  0  0  0  0  0  0  0
    8.6461   -4.9094    0.0000 O   0  0  0  0  0  0  0  0  0  0  0  0
    9.2576   -5.7062    0.0000 C   0  0  0  0  0  0  0  0  0  0  0  0
    8.0628   -4.3260    0.0000 C   0  0  0  0  0  0  0  0  0  0  0  0
    7.2659   -4.5395    0.0000 O   0  0  0  0  0  0  0  0  0  0  0  0
    8.2763   -3.5291    0.0000 C   0  0  0  0  0  0  0  0  0  0  0  0
    8.0201   -8.8957    0.0000 C   0  0  0  0  0  0  0  0  0  0  0  0
    8.8451   -8.8957    0.0000 O   0  0  0  0  0  0  0  0  0  0  0  0
    9.1471   -6.1188    0.0000 O   0  0  0  0  0  0  0  0  0  0  0  0
    7.1412   -8.3462    0.0000 O   0  0  0  0  0  0  0  0  0  0  0  0
    7.1412   -9.1713    0.0000 C   0  0  0  0  0  0  0  0  0  0  0  0
    7.8556   -9.5838    0.0000 O   0  0  0  0  0  0  0  0  0  0  0  0
    6.4267   -9.5838    0.0000 C   0  0  0  0  0  0  0  0  0  0  0  0
    6.3906   -7.0833    0.0000 C   0  0  0  0  0  0  0  0  0  0  0  0
    6.7261   -7.8370    0.0000 C   0  0  0  0  0  0  0  0  0  0  0  0
    7.5466   -7.7507    0.0000 O   0  0  0  0  0  0  0  0  0  0  0  0
    6.3136   -8.5514    0.0000 O   0  0  0  0  0  0  0  0  0  0  0  0
    5.5836   -6.9118    0.0000 C   0  0  0  0  0  0  0  0  0  0  0  0
    5.0316   -7.5248    0.0000 O   0  0  0  0  0  0  0  0  0  0  0  0
    4.2246   -7.3533    0.0000 C   0  0  0  0  0  0  0  0  0  0  0  0
  1  2  1  0  0  0  0
  2  3  1  0  0  0  0
  3  4  1  0  0  0  0
  4  5  1  0  0  0  0
  5  6  1  0  0  0  0
  6  1  1  0  0  0  0
  3  7  1  0  0  0  0
  7  8  1  0  0  0  0
  8  9  1  0  0  0  0
  9 10  1  0  0  0  0
 10  4  1  0  0  0  0
  1 11  1  1  0  0  0
 11 12  1  0  0  0  0
 12 13  2  0  0  0  0
 12 14  1  0  0  0  0
  5 15  1  1  0  0  0
  5 16  1  0  0  0  0
 15 17  1  0  0  0  0
 17 18  2  0  0  0  0
 17 19  1  0  0  0  0
  8 20  1  0  0  0  0
  8 21  1  1  0  0  0
  4 22  1  6  0  0  0
  7 23  1  6  0  0  0
 23 24  1  0  0  0  0
 24 25  2  0  0  0  0
 24 26  1  0  0  0  0
  2 27  2  0  0  0  0
 27 28  1  0  0  0  0
 28 29  1  0  0  0  0
  3 29  1  6  0  0  0
 28 30  2  0  0  0  0
 27 31  1  0  0  0  0
 31 32  1  0  0  0  0
 32 33  1  0  0  0  0
M  END
>  <cdx:fragmentId>
5

$$$$
