101377073.cdx
  Mrv1902 05222410192D          

 35 38  0  0  0  0            999 V2000
    8.7965  -15.1460    0.0000 C   0  0  0  0  0  0  0  0  0  0  0  0
    9.5110  -15.5585    0.0000 C   0  0  0  0  0  0  0  0  0  0  0  0
    9.5110  -16.3835    0.0000 C   0  0  2  0  0  0  0  0  0  0  0  0
    8.7965  -16.7960    0.0000 C   0  0  2  0  0  0  0  0  0  0  0  0
    8.0820  -16.3835    0.0000 C   0  0  1  0  0  0  0  0  0  0  0  0
    8.0820  -15.5585    0.0000 O   0  0  0  0  0  0  0  0  0  0  0  0
   10.2254  -15.1460    0.0000 C   0  0  0  0  0  0  0  0  0  0  0  0
   10.2254  -16.7960    0.0000 C   0  0  0  0  0  0  0  0  0  0  0  0
   10.9399  -16.3835    0.0000 C   0  0  0  0  0  0  0  0  0  0  0  0
   10.9399  -15.5585    0.0000 O   0  0  0  0  0  0  0  0  0  0  0  0
   10.2254  -14.3210    0.0000 O   0  0  0  0  0  0  0  0  0  0  0  0
    8.7965  -17.6210    0.0000 C   0  0  0  0  0  0  0  0  0  0  0  0
    8.0820  -18.0335    0.0000 C   0  0  0  0  0  0  0  0  0  0  0  0
    7.3675  -16.7960    0.0000 O   0  0  0  0  0  0  0  0  0  0  0  0
    5.9386  -16.7960    0.0000 O   0  0  0  0  0  0  0  0  0  0  0  0
    6.6531  -16.3835    0.0000 C   0  0  2  0  0  0  0  0  0  0  0  0
    6.6531  -15.5585    0.0000 C   0  0  1  0  0  0  0  0  0  0  0  0
    5.9386  -15.1460    0.0000 C   0  0  2  0  0  0  0  0  0  0  0  0
    5.2241  -15.5585    0.0000 C   0  0  1  0  0  0  0  0  0  0  0  0
    5.2241  -16.3835    0.0000 C   0  0  1  0  0  0  0  0  0  0  0  0
    4.5097  -16.7960    0.0000 C   0  0  0  0  0  0  0  0  0  0  0  0
    3.7952  -16.3835    0.0000 O   0  0  0  0  0  0  0  0  0  0  0  0
    4.5097  -15.1460    0.0000 O   0  0  0  0  0  0  0  0  0  0  0  0
    5.9386  -14.3210    0.0000 O   0  0  0  0  0  0  0  0  0  0  0  0
    7.3675  -15.1460    0.0000 O   0  0  0  0  0  0  0  0  0  0  0  0
    7.3675  -14.3210    0.0000 C   0  0  0  0  0  0  0  0  0  0  0  0
    8.0820  -13.9085    0.0000 C   0  0  0  0  0  0  0  0  0  0  0  0
    8.0820  -13.0835    0.0000 C   0  0  0  0  0  0  0  0  0  0  0  0
    8.7965  -12.6710    0.0000 C   0  0  0  0  0  0  0  0  0  0  0  0
    9.5110  -13.0835    0.0000 C   0  0  0  0  0  0  0  0  0  0  0  0
    9.5110  -13.9085    0.0000 C   0  0  0  0  0  0  0  0  0  0  0  0
    8.7965  -14.3210    0.0000 C   0  0  0  0  0  0  0  0  0  0  0  0
    8.7965  -11.8460    0.0000 O   0  0  0  0  0  0  0  0  0  0  0  0
    7.3675  -12.6710    0.0000 O   0  0  0  0  0  0  0  0  0  0  0  0
    9.5110  -17.2085    0.0000 H   0  0  0  0  0  0  0  0  0  0  0  0
  1  2  2  0  0  0  0
  2  3  1  0  0  0  0
  3  4  1  0  0  0  0
  4  5  1  0  0  0  0
  5  6  1  0  0  0  0
  1  6  1  0  0  0  0
  8  9  1  0  0  0  0
  9 10  1  0  0  0  0
  7 10  1  0  0  0  0
  7  2  1  0  0  0  0
  8  3  1  0  0  0  0
  7 11  2  0  0  0  0
 12 13  2  0  0  0  0
  4 12  1  1  0  0  0
 15 16  1  0  0  0  0
 16 17  1  0  0  0  0
 17 18  1  0  0  0  0
 18 19  1  0  0  0  0
 19 20  1  0  0  0  0
 15 20  1  0  0  0  0
 21 22  1  0  0  0  0
 20 21  1  6  0  0  0
 19 23  1  1  0  0  0
 18 24  1  6  0  0  0
 25 26  1  0  0  0  0
 27 28  1  0  0  0  0
 28 29  2  0  0  0  0
 29 30  1  0  0  0  0
 30 31  2  0  0  0  0
 31 32  1  0  0  0  0
 27 32  2  0  0  0  0
 29 33  1  0  0  0  0
 28 34  1  0  0  0  0
 26 27  1  0  0  0  0
 17 25  1  1  0  0  0
 16 14  1  6  0  0  0
  5 14  1  6  0  0  0
  3 35  1  6  0  0  0
M  END
>  <cdx:groupId>
240048

>  <cdx:fragmentId>
239995

$$$$
