37708.cdx
  Mrv1902 05222410282D          

 18 19  0  0  0  0            999 V2000
    5.1609   -4.0102    0.0000 C   0  0  0  0  0  0  0  0  0  0  0  0
    5.1661   -4.8351    0.0000 C   0  0  0  0  0  0  0  0  0  0  0  0
    5.8831   -5.2432    0.0000 C   0  0  1  0  0  0  0  0  0  0  0  0
    6.5950   -4.8262    0.0000 C   0  0  1  0  0  0  0  0  0  0  0  0
    6.5898   -4.0012    0.0000 C   0  0  2  0  0  0  0  0  0  0  0  0
    5.8728   -3.5932    0.0000 C   0  0  2  0  0  0  0  0  0  0  0  0
    7.3120   -5.2343    0.0000 C   0  0  0  0  0  0  0  0  0  0  0  0
    8.0239   -4.8173    0.0000 C   0  0  1  0  0  0  0  0  0  0  0  0
    8.0188   -3.9923    0.0000 C   0  0  0  0  0  0  0  0  0  0  0  0
    7.3017   -3.5843    0.0000 C   0  0  0  0  0  0  0  0  0  0  0  0
    5.4742   -5.9597    0.0000 O   0  0  0  0  0  0  0  0  0  0  0  0
    6.1016   -6.0387    0.0000 C   0  0  0  0  0  0  0  0  0  0  0  0
    6.6001   -5.6512    0.0000 O   0  0  0  0  0  0  0  0  0  0  0  0
    6.5847   -3.1763    0.0000 C   0  0  0  0  0  0  0  0  0  0  0  0
    5.8677   -2.7682    0.0000 O   0  0  0  0  0  0  0  0  0  0  0  0
    8.7409   -5.2253    0.0000 C   0  0  0  0  0  0  0  0  0  0  0  0
    9.4528   -4.8084    0.0000 C   0  0  0  0  0  0  0  0  0  0  0  0
    8.7461   -6.0503    0.0000 C   0  0  0  0  0  0  0  0  0  0  0  0
  1  2  1  0  0  0  0
  2  3  1  0  0  0  0
  3  4  1  0  0  0  0
  4  5  1  0  0  0  0
  5  6  1  0  0  0  0
  6  1  1  0  0  0  0
  4  7  1  0  0  0  0
  7  8  1  0  0  0  0
  8  9  1  0  0  0  0
  9 10  1  0  0  0  0
 10  5  1  0  0  0  0
  3 11  1  1  0  0  0
  3 12  1  6  0  0  0
  4 13  1  6  0  0  0
  5 14  1  1  0  0  0
  6 15  1  1  0  0  0
  8 16  1  1  0  0  0
 16 17  1  0  0  0  0
 16 18  1  0  0  0  0
M  END
>  <cdx:fragmentId>
619

$$$$
