209.cdx
  Mrv1902 05222410282D          

 19 20  0  0  0  0            999 V2000
    4.8263   -5.5069    0.0000 C   0  0  1  0  0  0  0  0  0  0  0  0
    4.8263   -6.3319    0.0000 C   0  0  2  0  0  0  0  0  0  0  0  0
    5.4713   -6.8463    0.0000 C   0  0  2  0  0  0  0  0  0  0  0  0
    6.2756   -6.6627    0.0000 C   0  0  2  0  0  0  0  0  0  0  0  0
    6.6335   -5.9194    0.0000 C   0  0  0  0  0  0  0  0  0  0  0  0
    6.2756   -5.1761    0.0000 C   0  0  0  0  0  0  0  0  0  0  0  0
    5.4713   -4.9925    0.0000 C   0  0  2  0  0  0  0  0  0  0  0  0
    4.0416   -5.2519    0.0000 C   0  0  0  0  0  0  0  0  0  0  0  0
    3.5567   -5.9194    0.0000 C   0  0  0  0  0  0  0  0  0  0  0  0
    4.0416   -6.5868    0.0000 C   0  0  2  0  0  0  0  0  0  0  0  0
    4.6127   -4.7100    0.0000 C   0  0  0  0  0  0  0  0  0  0  0  0
    4.6127   -7.1288    0.0000 H   0  0  0  0  0  0  0  0  0  0  0  0
    5.4713   -4.1675    0.0000 O   0  0  0  0  0  0  0  0  0  0  0  0
    3.6291   -7.3013    0.0000 C   0  0  0  0  0  0  0  0  0  0  0  0
    2.8322   -7.5148    0.0000 C   0  0  0  0  0  0  0  0  0  0  0  0
    3.8427   -8.0982    0.0000 C   0  0  0  0  0  0  0  0  0  0  0  0
    5.4713   -7.6713    0.0000 O   0  0  0  0  0  0  0  0  0  0  0  0
    6.4891   -7.4596    0.0000 C   0  0  0  0  0  0  0  0  0  0  0  0
    7.0725   -6.8762    0.0000 C   0  0  0  0  0  0  0  0  0  0  0  0
  1  2  1  0  0  0  0
  2  3  1  0  0  0  0
  3  4  1  0  0  0  0
  4  5  1  0  0  0  0
  5  6  1  0  0  0  0
  6  7  1  0  0  0  0
  7  1  1  0  0  0  0
  1  8  1  0  0  0  0
  8  9  1  0  0  0  0
  9 10  1  0  0  0  0
 10  2  1  0  0  0  0
  1 11  1  1  0  0  0
  2 12  1  1  0  0  0
  7 13  1  1  0  0  0
 10 14  1  1  0  0  0
 14 15  1  0  0  0  0
 14 16  1  0  0  0  0
  3 17  1  6  0  0  0
  4 18  1  6  0  0  0
  4 19  1  1  0  0  0
M  END
>  <cdx:fragmentId>
676

$$$$
