213.cdx
  Mrv1902 05222410182D          

 14 16  0  0  0  0            999 V2000
    3.9687   -6.3459    0.0000 C   0  0  0  0  0  0  0  0  0  0  0  0
    3.5562   -7.0604    0.0000 C   0  0  0  0  0  0  0  0  0  0  0  0
    4.3495   -6.8337    0.0000 C   0  0  0  0  0  0  0  0  0  0  0  0
    5.1475   -7.0604    0.0000 C   0  0  0  0  0  0  0  0  0  0  0  0
    5.5601   -6.3459    0.0000 C   0  0  0  0  0  0  0  0  0  0  0  0
    4.7668   -6.5725    0.0000 C   0  0  0  0  0  0  0  0  0  0  0  0
    3.9687   -5.5209    0.0000 C   0  0  0  0  0  0  0  0  0  0  0  0
    5.5601   -5.5209    0.0000 C   0  0  0  0  0  0  0  0  0  0  0  0
    4.6832   -5.1084    0.0000 C   0  0  0  0  0  0  0  0  0  0  0  0
    4.4696   -5.9053    0.0000 C   0  0  0  0  0  0  0  0  0  0  0  0
    6.3851   -6.3459    0.0000 C   0  0  0  0  0  0  0  0  0  0  0  0
    6.5986   -7.1428    0.0000 C   0  0  0  0  0  0  0  0  0  0  0  0
    6.1861   -7.8573    0.0000 N   0  0  0  0  0  0  0  0  0  0  0  0
    7.3955   -7.3563    0.0000 C   0  0  0  0  0  0  0  0  0  0  0  0
  1  2  1  0  0  0  0
  2  3  1  0  0  0  0
  3  4  1  0  0  0  0
  4  5  1  0  0  0  0
  5  6  1  0  0  0  0
  6  1  1  0  0  0  0
  1  7  1  0  0  0  0
  5  8  1  0  0  0  0
  7  9  1  0  0  0  0
  9  8  1  0  0  0  0
  9 10  1  0  0  0  0
 10  3  1  0  0  0  0
  5 11  1  0  0  0  0
 11 12  1  0  0  0  0
 12 13  1  0  0  0  0
 12 14  1  0  0  0  0
M  END
>  <cdx:fragmentId>
1037

$$$$
