37718.cdx
  Mrv1902 05222410262D          

 23 22  0  0  0  0            999 V2000
   15.0849   -7.3287    0.0000 C   0  0  0  0  0  0  0  0  0  0  0  0
   14.3704   -7.7413    0.0000 C   0  0  0  0  0  0  0  0  0  0  0  0
   13.6560   -7.3287    0.0000 C   0  0  0  0  0  0  0  0  0  0  0  0
   12.9415   -7.7413    0.0000 C   0  0  0  0  0  0  0  0  0  0  0  0
   12.2270   -7.3287    0.0000 C   0  0  0  0  0  0  0  0  0  0  0  0
   11.5126   -7.7413    0.0000 C   0  0  0  0  0  0  0  0  0  0  0  0
   10.7981   -7.3287    0.0000 C   0  0  0  0  0  0  0  0  0  0  0  0
   10.0836   -7.7413    0.0000 C   0  0  0  0  0  0  0  0  0  0  0  0
    9.3691   -7.3287    0.0000 C   0  0  0  0  0  0  0  0  0  0  0  0
    8.6547   -7.7413    0.0000 C   0  0  0  0  0  0  0  0  0  0  0  0
    7.9402   -7.3287    0.0000 C   0  0  0  0  0  0  0  0  0  0  0  0
    7.2257   -7.7413    0.0000 C   0  0  0  0  0  0  0  0  0  0  0  0
    6.5113   -7.3287    0.0000 C   0  0  0  0  0  0  0  0  0  0  0  0
    5.7968   -7.7413    0.0000 C   0  0  0  0  0  0  0  0  0  0  0  0
    5.0823   -7.3287    0.0000 C   0  0  0  0  0  0  0  0  0  0  0  0
    4.3678   -7.7413    0.0000 C   0  0  0  0  0  0  0  0  0  0  0  0
    3.6534   -7.3287    0.0000 O   0  0  0  0  0  0  0  0  0  0  0  0
    4.3678   -8.5663    0.0000 O   0  0  0  0  0  0  0  0  0  0  0  0
    2.9389   -7.7412    0.0000 C   0  0  0  0  0  0  0  0  0  0  0  0
    2.2244   -7.3287    0.0000 C   0  0  0  0  0  0  0  0  0  0  0  0
    1.5100   -7.7412    0.0000 C   0  0  0  0  0  0  0  0  0  0  0  0
    0.7955   -7.3287    0.0000 O   0  0  0  0  0  0  0  0  0  0  0  0
    1.5100   -8.5662    0.0000 O   0  0  0  0  0  0  0  0  0  0  0  0
  1  2  1  0  0  0  0
  2  3  1  0  0  0  0
  3  4  1  0  0  0  0
  4  5  1  0  0  0  0
  5  6  1  0  0  0  0
  6  7  1  0  0  0  0
  7  8  1  0  0  0  0
  8  9  1  0  0  0  0
  9 10  1  0  0  0  0
 10 11  1  0  0  0  0
 11 12  1  0  0  0  0
 12 13  1  0  0  0  0
 13 14  1  0  0  0  0
 14 15  1  0  0  0  0
 15 16  1  0  0  0  0
 16 17  1  0  0  0  0
 16 18  2  0  0  0  0
 17 19  1  0  0  0  0
 19 20  1  0  0  0  0
 20 21  1  0  0  0  0
 21 22  1  0  0  0  0
 21 23  1  0  0  0  0
M  END
>  <cdx:fragmentId>
3

$$$$
