210.cdx
  Mrv1902 05222410182D          

 66 70  0  0  0  0            999 V2000
    4.9294   -4.9913    0.0000 C   0  0  0  0  0  0  0  0  0  0  0  0
    4.9294   -5.8163    0.0000 C   0  0  3  0  0  0  0  0  0  0  0  0
    5.6438   -4.5788    0.0000 C   0  0  0  0  0  0  0  0  0  0  0  0
    6.4688   -4.5788    0.0000 C   0  0  0  0  0  0  0  0  0  0  0  0
    5.5127   -5.2329    0.0000 C   0  0  0  0  0  0  0  0  0  0  0  0
    6.3377   -5.2329    0.0000 C   0  0  0  0  0  0  0  0  0  0  0  0
    6.9211   -5.8163    0.0000 C   0  0  0  0  0  0  0  0  0  0  0  0
    5.2992   -4.4360    0.0000 N   0  0  0  0  0  0  0  0  0  0  0  0
    5.2992   -3.6110    0.0000 C   0  0  0  0  0  0  0  0  0  0  0  0
    6.6824   -3.7819    0.0000 C   0  0  0  0  0  0  0  0  0  0  0  0
    7.3968   -3.3694    0.0000 C   0  0  0  0  0  0  0  0  0  0  0  0
    8.1113   -3.7819    0.0000 C   0  0  0  0  0  0  0  0  0  0  0  0
    8.8258   -3.3694    0.0000 C   0  0  0  0  0  0  0  0  0  0  0  0
    9.5403   -3.7819    0.0000 C   0  0  0  0  0  0  0  0  0  0  0  0
   10.2547   -3.3694    0.0000 C   0  0  0  0  0  0  0  0  0  0  0  0
   10.2547   -2.5444    0.0000 C   0  0  0  0  0  0  0  0  0  0  0  0
    9.5403   -2.1319    0.0000 C   0  0  0  0  0  0  0  0  0  0  0  0
    8.8258   -2.5444    0.0000 C   0  0  0  0  0  0  0  0  0  0  0  0
    6.0990   -3.1985    0.0000 O   0  0  0  0  0  0  0  0  0  0  0  0
    6.0990   -2.3735    0.0000 C   0  0  0  0  0  0  0  0  0  0  0  0
    5.3845   -1.9610    0.0000 C   0  0  0  0  0  0  0  0  0  0  0  0
    6.8135   -1.9610    0.0000 O   0  0  0  0  0  0  0  0  0  0  0  0
    9.5403   -1.3069    0.0000 O   0  0  0  0  0  0  0  0  0  0  0  0
    9.7538   -0.5100    0.0000 C   0  0  0  0  0  0  0  0  0  0  0  0
   10.8381   -1.9610    0.0000 O   0  0  0  0  0  0  0  0  0  0  0  0
   11.6350   -2.1745    0.0000 C   0  0  0  0  0  0  0  0  0  0  0  0
   11.0516   -3.5829    0.0000 O   0  0  0  0  0  0  0  0  0  0  0  0
   11.0516   -4.4079    0.0000 C   0  0  0  0  0  0  0  0  0  0  0  0
    6.9211   -6.6413    0.0000 O   0  0  0  0  0  0  0  0  0  0  0  0
    7.7180   -6.8548    0.0000 C   0  0  0  0  0  0  0  0  0  0  0  0
    8.4325   -6.4423    0.0000 C   0  0  0  0  0  0  0  0  0  0  0  0
    7.9315   -7.6517    0.0000 O   0  0  0  0  0  0  0  0  0  0  0  0
    8.4325   -5.6173    0.0000 C   0  0  0  0  0  0  0  0  0  0  0  0
    9.1469   -5.2048    0.0000 C   0  0  0  0  0  0  0  0  0  0  0  0
    9.1469   -4.3798    0.0000 C   0  0  0  0  0  0  0  0  0  0  0  0
    8.4325   -3.9673    0.0000 C   0  0  0  0  0  0  0  0  0  0  0  0
    7.7180   -4.3798    0.0000 C   0  0  0  0  0  0  0  0  0  0  0  0
    7.7180   -5.2048    0.0000 C   0  0  0  0  0  0  0  0  0  0  0  0
    9.1469   -6.8548    0.0000 C   0  0  0  0  0  0  0  0  0  0  0  0
    9.8614   -6.4423    0.0000 O   0  0  0  0  0  0  0  0  0  0  0  0
    4.2149   -4.5788    0.0000 O   0  0  0  0  0  0  0  0  0  0  0  0
    3.5004   -4.9913    0.0000 C   0  0  0  0  0  0  0  0  0  0  0  0
    2.7860   -4.5788    0.0000 C   0  0  0  0  0  0  0  0  0  0  0  0
    2.0715   -4.9913    0.0000 C   0  0  0  0  0  0  0  0  0  0  0  0
    1.2746   -4.7777    0.0000 C   0  0  0  0  0  0  0  0  0  0  0  0
    0.6912   -5.3611    0.0000 C   0  0  0  0  0  0  0  0  0  0  0  0
    1.0611   -3.9808    0.0000 C   0  0  0  0  0  0  0  0  0  0  0  0
    2.0715   -5.8163    0.0000 C   0  0  0  0  0  0  0  0  0  0  0  0
    3.5004   -5.8163    0.0000 O   0  0  0  0  0  0  0  0  0  0  0  0
    4.9294   -6.6413    0.0000 O   0  0  0  0  0  0  0  0  0  0  0  0
    4.5169   -7.3557    0.0000 C   0  0  0  0  0  0  0  0  0  0  0  0
    3.7200   -7.5692    0.0000 C   0  0  0  0  0  0  0  0  0  0  0  0
    5.1002   -7.9391    0.0000 O   0  0  0  0  0  0  0  0  0  0  0  0
    3.5065   -8.3661    0.0000 C   0  0  0  0  0  0  0  0  0  0  0  0
    3.5065   -9.1911    0.0000 C   0  0  0  0  0  0  0  0  0  0  0  0
    2.7920   -9.6036    0.0000 C   0  0  0  0  0  0  0  0  0  0  0  0
    2.7920  -10.4286    0.0000 C   0  0  0  0  0  0  0  0  0  0  0  0
    3.5065  -10.8411    0.0000 C   0  0  0  0  0  0  0  0  0  0  0  0
    4.2209  -10.4286    0.0000 C   0  0  0  0  0  0  0  0  0  0  0  0
    4.2209   -9.6036    0.0000 C   0  0  0  0  0  0  0  0  0  0  0  0
    4.9354  -10.8411    0.0000 O   0  0  0  0  0  0  0  0  0  0  0  0
    3.5065  -11.6661    0.0000 O   0  0  0  0  0  0  0  0  0  0  0  0
    2.0775  -10.8411    0.0000 O   0  0  0  0  0  0  0  0  0  0  0  0
    5.6499  -10.4286    0.0000 C   0  0  0  0  0  0  0  0  0  0  0  0
    4.2209  -12.0786    0.0000 C   0  0  0  0  0  0  0  0  0  0  0  0
    1.3630  -10.4286    0.0000 C   0  0  0  0  0  0  0  0  0  0  0  0
  1  2  1  0  0  0  0
  1  3  1  0  0  0  0
  3  4  1  0  0  0  0
  2  5  1  0  0  0  0
  5  6  1  0  0  0  0
  6  7  1  0  0  0  0
  4  7  1  0  0  0  0
  5  8  1  0  0  0  0
  8  3  1  0  0  0  0
  8  9  1  0  0  0  0
  4 10  1  0  0  0  0
 10 11  1  0  0  0  0
 11 12  1  0  0  0  0
 12 13  1  0  0  0  0
 13 14  2  0  0  0  0
 14 15  1  0  0  0  0
 15 16  2  0  0  0  0
 16 17  1  0  0  0  0
 17 18  2  0  0  0  0
 18 13  1  0  0  0  0
 10 19  1  0  0  0  0
 19 20  1  0  0  0  0
 20 21  1  0  0  0  0
 20 22  2  0  0  0  0
 17 23  1  0  0  0  0
 23 24  1  0  0  0  0
 16 25  1  0  0  0  0
 25 26  1  0  0  0  0
 15 27  1  0  0  0  0
 27 28  1  0  0  0  0
  7 29  1  0  0  0  0
 29 30  1  0  0  0  0
 30 31  1  0  0  0  0
 30 32  2  0  0  0  0
 31 33  1  0  0  0  0
 33 34  2  0  0  0  0
 34 35  1  0  0  0  0
 35 36  2  0  0  0  0
 36 37  1  0  0  0  0
 37 38  2  0  0  0  0
 38 33  1  0  0  0  0
 31 39  1  0  0  0  0
 39 40  1  0  0  0  0
  1 41  1  0  0  0  0
 41 42  1  0  0  0  0
 42 43  1  0  0  0  0
 43 44  2  0  0  0  0
 44 45  1  0  0  0  0
 45 46  1  0  0  0  0
 45 47  1  0  0  0  0
 44 48  1  0  0  0  0
 42 49  2  0  0  0  0
  2 50  1  4  0  0  0
 50 51  1  0  0  0  0
 51 52  1  0  0  0  0
 51 53  2  0  0  0  0
 52 54  2  0  0  0  0
 54 55  1  0  0  0  0
 55 56  2  0  0  0  0
 56 57  1  0  0  0  0
 57 58  2  0  0  0  0
 58 59  1  0  0  0  0
 59 60  2  0  0  0  0
 60 55  1  0  0  0  0
 59 61  1  0  0  0  0
 58 62  1  0  0  0  0
 57 63  1  0  0  0  0
 61 64  1  0  0  0  0
 62 65  1  0  0  0  0
 63 66  1  0  0  0  0
M  END
>  <cdx:fragmentId>
676

$$$$
