37714.cdx
  Mrv1902 05222410202D          

 20 20  0  0  0  0            999 V2000
    5.4157   -8.2246    0.0000 C   0  0  0  0  0  0  0  0  0  0  0  0
    6.8708   -8.0149    0.0000 O   0  0  0  0  0  0  0  0  0  0  0  0
    6.1967   -8.4904    0.0000 C   0  0  1  0  0  0  0  0  0  0  0  0
    6.4407   -9.2785    0.0000 C   0  0  2  0  0  0  0  0  0  0  0  0
    7.2656   -9.2901    0.0000 C   0  0  2  0  0  0  0  0  0  0  0  0
    7.5314   -8.5091    0.0000 C   0  0  2  0  0  0  0  0  0  0  0  0
    7.7411   -9.9642    0.0000 O   0  0  0  0  0  0  0  0  0  0  0  0
    5.9465   -9.9391    0.0000 O   0  0  0  0  0  0  0  0  0  0  0  0
    7.8970   -6.9001    0.0000 N   0  0  0  0  0  0  0  0  0  0  0  0
    5.2555   -7.4153    0.0000 O   0  0  0  0  0  0  0  0  0  0  0  0
    9.4732   -6.4121    0.0000 N   0  0  0  0  0  0  0  0  0  0  0  0
   10.4441   -5.3637    0.0000 O   0  0  0  0  0  0  0  0  0  0  0  0
   10.2613   -6.1682    0.0000 C   0  0  0  0  0  0  0  0  0  0  0  0
    9.2904   -7.2166    0.0000 C   0  0  0  0  0  0  0  0  0  0  0  0
    8.5023   -7.4606    0.0000 C   0  0  0  0  0  0  0  0  0  0  0  0
    8.3196   -8.2651    0.0000 N   0  3  0  0  0  0  0  0  0  0  0  0
    4.4745   -7.1494    0.0000 P   0  0  0  0  0  0  0  0  0  0  0  0
    3.6776   -6.9359    0.0000 O   0  0  0  0  0  0  0  0  0  0  0  0
    4.7143   -6.3600    0.0000 O   0  0  0  0  0  0  0  0  0  0  0  0
    4.2347   -7.9388    0.0000 O   0  0  0  0  0  0  0  0  0  0  0  0
 10  1  1  0  0  0  0
 17 10  1  0  0  0  0
 16 15  2  0  0  0  0
 15  9  1  0  0  0  0
 14 11  1  0  0  0  0
 13 11  1  0  0  0  0
 13 12  2  0  0  0  0
 15 14  1  0  0  0  0
  2  3  1  0  0  0  0
  3  4  1  0  0  0  0
  4  5  1  0  0  0  0
  5  6  1  0  0  0  0
  2  6  1  0  0  0  0
  5  7  1  6  0  0  0
  4  8  1  6  0  0  0
  6 16  1  1  0  0  0
  3  1  1  1  0  0  0
 17 18  1  0  0  0  0
 17 19  1  0  0  0  0
 17 20  2  0  0  0  0
M  CHG  1  16   1
M  END
>  <cdx:fragmentId>
17

$$$$
