219.cdx
  Mrv1902 05222410262D          

 31 36  0  0  0  0            999 V2000
    2.3793   -3.5887    0.0000 C   0  0  0  0  0  0  0  0  0  0  0  0
    2.3793   -4.4138    0.0000 C   0  0  0  0  0  0  0  0  0  0  0  0
    3.0938   -4.8263    0.0000 C   0  0  0  0  0  0  0  0  0  0  0  0
    3.8082   -4.4138    0.0000 C   0  0  0  0  0  0  0  0  0  0  0  0
    3.8082   -3.5887    0.0000 C   0  0  0  0  0  0  0  0  0  0  0  0
    3.0938   -3.1763    0.0000 C   0  0  0  0  0  0  0  0  0  0  0  0
    4.5928   -4.6687    0.0000 C   0  0  2  0  0  0  0  0  0  0  0  0
    5.0778   -4.0012    0.0000 C   0  0  1  0  0  0  0  0  0  0  0  0
    4.5928   -3.3338    0.0000 N   0  0  0  0  0  0  0  0  0  0  0  0
    4.8478   -2.5492    0.0000 C   0  0  0  0  0  0  0  0  0  0  0  0
    5.9028   -4.0012    0.0000 C   0  0  2  0  0  0  0  0  0  0  0  0
    6.4861   -3.4179    0.0000 C   0  0  0  0  0  0  0  0  0  0  0  0
    7.0695   -4.0012    0.0000 C   0  0  2  0  0  0  0  0  0  0  0  0
    5.3897   -4.4552    0.0000 C   0  0  0  0  0  0  0  0  0  0  0  0
    6.1866   -4.6687    0.0000 C   0  0  2  0  0  0  0  0  0  0  0  0
    6.1866   -5.4937    0.0000 C   0  0  2  0  0  0  0  0  0  0  0  0
    4.5928   -5.4937    0.0000 C   0  0  0  0  0  0  0  0  0  0  0  0
    6.7700   -4.9103    0.0000 N   0  0  0  0  0  0  0  0  0  0  0  0
    7.5950   -4.9103    0.0000 C   0  0  0  0  0  0  0  0  0  0  0  0
    7.8945   -4.0012    0.0000 C   0  0  0  0  0  0  0  0  0  0  0  0
    8.6914   -3.7877    0.0000 C   0  0  0  0  0  0  0  0  0  0  0  0
    8.9049   -2.9908    0.0000 C   0  0  0  0  0  0  0  0  0  0  0  0
    6.4001   -6.2906    0.0000 H   0  0  0  0  0  0  0  0  0  0  0  0
    5.3897   -5.2802    0.0000 O   0  0  0  0  0  0  0  0  0  0  0  0
    5.1762   -6.0771    0.0000 C   0  0  0  0  0  0  0  0  0  0  0  0
    5.5887   -6.7915    0.0000 C   0  0  0  0  0  0  0  0  0  0  0  0
    4.3793   -6.2906    0.0000 O   0  0  0  0  0  0  0  0  0  0  0  0
    5.4903   -3.2868    0.0000 H   0  0  0  0  0  0  0  0  0  0  0  0
    7.2830   -3.2044    0.0000 H   0  0  0  0  0  0  0  0  0  0  0  0
    6.5991   -5.3832    0.0000 H   0  0  0  0  0  0  0  0  0  0  0  0
    5.9028   -3.1762    0.0000 H   0  0  0  0  0  0  0  0  0  0  0  0
  1  2  2  0  0  0  0
  2  3  1  0  0  0  0
  3  4  2  0  0  0  0
  4  5  1  0  0  0  0
  5  6  2  0  0  0  0
  6  1  1  0  0  0  0
  7  4  1  6  0  0  0
  7  8  1  0  0  0  0
  8  9  1  0  0  0  0
  9  5  1  0  0  0  0
  9 10  1  0  0  0  0
  8 11  1  0  0  0  0
 11 12  1  0  0  0  0
 12 13  1  0  0  0  0
  7 14  1  0  0  0  0
 14 15  1  0  0  0  0
 15 13  1  0  0  0  0
 15 16  1  0  0  0  0
  7 17  1  0  0  0  0
 16 17  1  1  0  0  0
 16 18  1  0  0  0  0
 18 19  1  0  0  0  0
 13 20  1  0  0  0  0
 20 19  1  0  0  0  0
 20 21  2  0  0  0  0
 21 22  1  0  0  0  0
 16 23  1  0  0  0  0
 14 24  1  0  0  0  0
 24 25  1  0  0  0  0
 25 26  1  0  0  0  0
 25 27  2  0  0  0  0
  8 28  1  6  0  0  0
 13 29  1  6  0  0  0
 15 30  1  6  0  0  0
 11 31  1  1  0  0  0
 11 18  1  0  0  0  0
M  END
>  <cdx:fragmentId>
1353

$$$$
