212.cdx
  Mrv1902 05222410192D          

 15 16  0  0  0  0            999 V2000
    9.5348   -5.8280    0.0000 C   0  0  0  0  0  0  0  0  0  0  0  0
    8.8203   -5.4155    0.0000 C   0  0  0  0  0  0  0  0  0  0  0  0
   10.2493   -5.4155    0.0000 O   0  0  0  0  0  0  0  0  0  0  0  0
    8.1059   -5.8280    0.0000 C   0  0  0  0  0  0  0  0  0  0  0  0
    8.1059   -6.6530    0.0000 C   0  0  0  0  0  0  0  0  0  0  0  0
    7.3914   -7.0655    0.0000 C   0  0  0  0  0  0  0  0  0  0  0  0
    6.6769   -6.6530    0.0000 C   0  0  0  0  0  0  0  0  0  0  0  0
    6.6769   -5.8280    0.0000 C   0  0  0  0  0  0  0  0  0  0  0  0
    7.3914   -5.4155    0.0000 C   0  0  0  0  0  0  0  0  0  0  0  0
    5.9625   -7.0655    0.0000 C   0  0  0  0  0  0  0  0  0  0  0  0
    5.9625   -7.8905    0.0000 C   0  0  0  0  0  0  0  0  0  0  0  0
    5.2480   -8.3030    0.0000 C   0  0  0  0  0  0  0  0  0  0  0  0
    4.5335   -7.8905    0.0000 C   0  0  0  0  0  0  0  0  0  0  0  0
    4.5335   -7.0655    0.0000 C   0  0  0  0  0  0  0  0  0  0  0  0
    5.2480   -6.6530    0.0000 C   0  0  0  0  0  0  0  0  0  0  0  0
  1  2  1  0  0  0  0
  1  3  2  0  0  0  0
  4  5  1  0  0  0  0
  5  6  2  0  0  0  0
  6  7  1  0  0  0  0
  7  8  2  0  0  0  0
  8  9  1  0  0  0  0
  4  9  2  0  0  0  0
 10 11  1  0  0  0  0
 11 12  2  0  0  0  0
 12 13  1  0  0  0  0
 13 14  2  0  0  0  0
 14 15  1  0  0  0  0
 10 15  2  0  0  0  0
  7 10  1  0  0  0  0
  2  4  1  0  0  0  0
M  END
>  <cdx:fragmentId>
1007

$$$$
