216.cdx
  Mrv1902 05222410192D          

  7  6  0  0  0  0            999 V2000
    4.8469   -6.4556    0.0000 O   0  0  0  0  0  0  0  0  0  0  0  0
    5.5613   -6.0431    0.0000 C   0  0  0  0  0  0  0  0  0  0  0  0
    6.2758   -6.4556    0.0000 C   0  0  0  0  0  0  0  0  0  0  0  0
    6.9903   -6.0431    0.0000 C   0  0  0  0  0  0  0  0  0  0  0  0
    7.7048   -6.4556    0.0000 C   0  0  0  0  0  0  0  0  0  0  0  0
    6.2758   -7.2806    0.0000 C   0  0  0  0  0  0  0  0  0  0  0  0
    5.6925   -7.8640    0.0000 C   0  0  0  0  0  0  0  0  0  0  0  0
  1  2  2  0  0  0  0
  2  3  1  0  0  0  0
  3  4  1  0  0  0  0
  4  5  2  0  0  0  0
  3  6  2  0  0  0  0
  6  7  1  0  0  0  0
M  END
>  <cdx:fragmentId>
1227

$$$$
