211.cdx
  Mrv1902 05222410182D          

 41 44  0  0  0  0            999 V2000
    4.9294   -4.9913    0.0000 C   0  0  0  0  0  0  0  0  0  0  0  0
    4.9294   -5.8163    0.0000 C   0  0  0  0  0  0  0  0  0  0  0  0
    5.6438   -4.5788    0.0000 C   0  0  0  0  0  0  0  0  0  0  0  0
    6.4688   -4.5788    0.0000 C   0  0  0  0  0  0  0  0  0  0  0  0
    5.5127   -5.2329    0.0000 C   0  0  0  0  0  0  0  0  0  0  0  0
    6.3377   -5.2329    0.0000 C   0  0  0  0  0  0  0  0  0  0  0  0
    6.9211   -5.8163    0.0000 C   0  0  0  0  0  0  0  0  0  0  0  0
    5.2992   -4.4360    0.0000 N   0  0  0  0  0  0  0  0  0  0  0  0
    5.2992   -3.6110    0.0000 C   0  0  0  0  0  0  0  0  0  0  0  0
    6.9211   -6.6413    0.0000 O   0  0  0  0  0  0  0  0  0  0  0  0
    4.9294   -6.6413    0.0000 O   0  0  0  0  0  0  0  0  0  0  0  0
    4.5169   -7.3557    0.0000 C   0  0  0  0  0  0  0  0  0  0  0  0
    3.7200   -7.5692    0.0000 C   0  0  0  0  0  0  0  0  0  0  0  0
    5.1002   -7.9391    0.0000 O   0  0  0  0  0  0  0  0  0  0  0  0
    3.5065   -8.3661    0.0000 C   0  0  0  0  0  0  0  0  0  0  0  0
    3.5065   -9.1911    0.0000 C   0  0  0  0  0  0  0  0  0  0  0  0
    2.7920   -9.6036    0.0000 C   0  0  0  0  0  0  0  0  0  0  0  0
    2.7920  -10.4286    0.0000 C   0  0  0  0  0  0  0  0  0  0  0  0
    3.5065  -10.8411    0.0000 C   0  0  0  0  0  0  0  0  0  0  0  0
    4.2209  -10.4286    0.0000 C   0  0  0  0  0  0  0  0  0  0  0  0
    4.2209   -9.6036    0.0000 C   0  0  0  0  0  0  0  0  0  0  0  0
    4.9354  -10.8411    0.0000 O   0  0  0  0  0  0  0  0  0  0  0  0
    3.5065  -11.6661    0.0000 O   0  0  0  0  0  0  0  0  0  0  0  0
    2.0775  -10.8411    0.0000 O   0  0  0  0  0  0  0  0  0  0  0  0
    5.6499  -10.4286    0.0000 C   0  0  0  0  0  0  0  0  0  0  0  0
    4.2209  -12.0786    0.0000 C   0  0  0  0  0  0  0  0  0  0  0  0
    1.3630  -10.4286    0.0000 C   0  0  0  0  0  0  0  0  0  0  0  0
    7.6356   -7.0537    0.0000 C   0  0  0  0  0  0  0  0  0  0  0  0
    7.8491   -7.8506    0.0000 C   0  0  0  0  0  0  0  0  0  0  0  0
    8.3500   -6.6413    0.0000 O   0  0  0  0  0  0  0  0  0  0  0  0
    7.2657   -8.4340    0.0000 C   0  0  0  0  0  0  0  0  0  0  0  0
    7.4793   -9.2309    0.0000 C   0  0  0  0  0  0  0  0  0  0  0  0
    8.2761   -9.4444    0.0000 C   0  0  0  0  0  0  0  0  0  0  0  0
    8.8595   -8.8611    0.0000 C   0  0  0  0  0  0  0  0  0  0  0  0
    8.6460   -8.0642    0.0000 C   0  0  0  0  0  0  0  0  0  0  0  0
    8.4897  -10.2413    0.0000 O   0  0  0  0  0  0  0  0  0  0  0  0
    8.7032  -11.0382    0.0000 C   0  0  0  0  0  0  0  0  0  0  0  0
    9.6845   -8.8611    0.0000 O   0  0  0  0  0  0  0  0  0  0  0  0
    9.8980   -9.6579    0.0000 C   0  0  0  0  0  0  0  0  0  0  0  0
    7.0668   -9.9454    0.0000 O   0  0  0  0  0  0  0  0  0  0  0  0
    7.2803  -10.7423    0.0000 C   0  0  0  0  0  0  0  0  0  0  0  0
  1  2  1  0  0  0  0
  1  3  1  0  0  0  0
  3  4  1  0  0  0  0
  2  5  1  0  0  0  0
  5  6  1  0  0  0  0
  6  7  1  0  0  0  0
  4  7  1  0  0  0  0
  5  8  1  0  0  0  0
  8  3  1  0  0  0  0
  8  9  1  0  0  0  0
  7 10  1  0  0  0  0
 11 12  1  0  0  0  0
 12 13  1  0  0  0  0
 12 14  2  0  0  0  0
 13 15  2  0  0  0  0
 15 16  1  0  0  0  0
 16 17  2  0  0  0  0
 17 18  1  0  0  0  0
 18 19  2  0  0  0  0
 19 20  1  0  0  0  0
 20 21  2  0  0  0  0
 21 16  1  0  0  0  0
 20 22  1  0  0  0  0
 19 23  1  0  0  0  0
 18 24  1  0  0  0  0
 22 25  1  0  0  0  0
 23 26  1  0  0  0  0
 24 27  1  0  0  0  0
  2 11  1  0  0  0  0
 10 28  1  0  0  0  0
 28 29  1  0  0  0  0
 28 30  2  0  0  0  0
 29 31  2  0  0  0  0
 31 32  1  0  0  0  0
 32 33  2  0  0  0  0
 33 34  1  0  0  0  0
 34 35  2  0  0  0  0
 35 29  1  0  0  0  0
 33 36  1  0  0  0  0
 36 37  1  0  0  0  0
 34 38  1  0  0  0  0
 38 39  1  0  0  0  0
 32 40  1  0  0  0  0
 40 41  1  0  0  0  0
M  END
>  <cdx:fragmentId>
676

$$$$
