37729.cdx
  Mrv1902 05222410202D          

 14 13  0  0  0  0            999 V2000
    5.2816   -6.6395    0.0000 C   0  0  0  0  0  0  0  0  0  0  0  0
    4.5671   -7.0520    0.0000 C   0  0  0  0  0  0  0  0  0  0  0  0
    4.9796   -7.7665    0.0000 C   0  0  0  0  0  0  0  0  0  0  0  0
    5.2816   -5.8145    0.0000 O   0  0  0  0  0  0  0  0  0  0  0  0
    5.9961   -7.0520    0.0000 O   0  0  0  0  0  0  0  0  0  0  0  0
    3.8526   -7.4645    0.0000 C   0  0  0  0  0  0  0  0  0  0  0  0
    4.1546   -6.3376    0.0000 C   0  0  0  0  0  0  0  0  0  0  0  0
    6.7105   -6.6395    0.0000 C   0  0  0  0  0  0  0  0  0  0  0  0
    7.4250   -7.0520    0.0000 C   0  0  0  0  0  0  0  0  0  0  0  0
    8.1395   -6.6395    0.0000 C   0  0  0  0  0  0  0  0  0  0  0  0
    8.8539   -7.0520    0.0000 C   0  0  0  0  0  0  0  0  0  0  0  0
    9.5684   -6.6395    0.0000 C   0  0  0  0  0  0  0  0  0  0  0  0
   10.2829   -7.0520    0.0000 C   0  0  0  0  0  0  0  0  0  0  0  0
   10.9974   -6.6395    0.0000 C   0  0  0  0  0  0  0  0  0  0  0  0
  1  2  1  0  0  0  0
  2  3  1  0  0  0  0
  1  4  2  0  0  0  0
  1  5  1  0  0  0  0
  2  6  1  0  0  0  0
  2  7  1  0  0  0  0
  8  9  1  0  0  0  0
  9 10  1  0  0  0  0
 10 11  1  0  0  0  0
 11 12  1  0  0  0  0
 12 13  1  0  0  0  0
 13 14  1  0  0  0  0
  5  8  1  0  0  0  0
M  END
>  <cdx:fragmentId>
625

$$$$
