37727.cdx
  Mrv1902 05222410272D          

 31 33  0  0  0  0            999 V2000
    3.5146   -9.8868    0.0000 O   0  0  0  0  0  0  0  0  0  0  0  0
    2.0941   -9.0474    0.0000 O   0  0  0  0  0  0  0  0  0  0  0  0
    2.1107   -7.3975    0.0000 O   0  0  0  0  0  0  0  0  0  0  0  0
    2.8376   -6.1673    0.0000 O   0  0  0  0  0  0  0  0  0  0  0  0
    3.5479   -6.5870    0.0000 C   0  0  0  0  0  0  0  0  0  0  0  0
    3.5396   -7.4119    0.0000 C   0  0  2  0  0  0  0  0  0  0  0  0
    2.8210   -7.8172    0.0000 C   0  0  2  0  0  0  0  0  0  0  0  0
    2.8127   -8.6422    0.0000 C   0  0  1  0  0  0  0  0  0  0  0  0
    3.5229   -9.0619    0.0000 C   0  0  2  0  0  0  0  0  0  0  0  0
    4.2415   -8.6566    0.0000 C   0  0  1  0  0  0  0  0  0  0  0  0
    4.2499   -7.8316    0.0000 O   0  0  0  0  0  0  0  0  0  0  0  0
    4.9518   -9.0763    0.0000 O   0  0  0  0  0  0  0  0  0  0  0  0
    8.5217  -10.3492    0.0000 O   0  0  0  0  0  0  0  0  0  0  0  0
    7.0845  -11.1597    0.0000 O   0  0  0  0  0  0  0  0  0  0  0  0
    5.6640  -10.3203    0.0000 O   0  0  0  0  0  0  0  0  0  0  0  0
    5.6807   -8.6703    0.0000 C   0  0  0  0  0  0  0  0  0  0  0  0
    6.3909   -9.0900    0.0000 C   0  0  2  0  0  0  0  0  0  0  0  0
    6.3826   -9.9150    0.0000 C   0  0  2  0  0  0  0  0  0  0  0  0
    7.0929  -10.3347    0.0000 C   0  0  1  0  0  0  0  0  0  0  0  0
    7.8115   -9.9295    0.0000 C   0  0  2  0  0  0  0  0  0  0  0  0
    7.8198   -9.1045    0.0000 C   0  0  1  0  0  0  0  0  0  0  0  0
    7.1095   -8.6848    0.0000 O   0  0  0  0  0  0  0  0  0  0  0  0
    8.5384   -8.6992    0.0000 O   0  0  0  0  0  0  0  0  0  0  0  0
    9.2487   -9.1189    0.0000 C   0  0  0  0  0  0  0  0  0  0  0  0
    9.9673   -8.7137    0.0000 C   0  0  0  0  0  0  0  0  0  0  0  0
   10.6775   -9.1334    0.0000 C   0  0  0  0  0  0  0  0  0  0  0  0
   10.6651   -9.9583    0.0000 C   0  0  0  0  0  0  0  0  0  0  0  0
   11.3732  -10.3815    0.0000 C   0  0  0  0  0  0  0  0  0  0  0  0
   12.0938   -9.9799    0.0000 C   0  0  0  0  0  0  0  0  0  0  0  0
   12.0938   -9.1550    0.0000 C   0  0  0  0  0  0  0  0  0  0  0  0
   11.3732   -8.7317    0.0000 C   0  0  0  0  0  0  0  0  0  0  0  0
 10 12  1  1  0  0  0
  9  1  1  6  0  0  0
  8  2  1  1  0  0  0
  7  3  1  6  0  0  0
  6  5  1  1  0  0  0
  5  4  1  0  0  0  0
 11  6  1  0  0  0  0
  7  6  1  0  0  0  0
  8  7  1  0  0  0  0
  9  8  1  0  0  0  0
 10  9  1  0  0  0  0
 11 10  1  0  0  0  0
 21 23  1  1  0  0  0
 20 13  1  6  0  0  0
 19 14  1  1  0  0  0
 18 15  1  6  0  0  0
 17 16  1  1  0  0  0
 22 17  1  0  0  0  0
 18 17  1  0  0  0  0
 19 18  1  0  0  0  0
 20 19  1  0  0  0  0
 21 20  1  0  0  0  0
 22 21  1  0  0  0  0
 16 12  1  0  0  0  0
 23 24  1  0  0  0  0
 24 25  1  0  0  0  0
 25 26  1  0  0  0  0
 26 27  2  0  0  0  0
 27 28  1  0  0  0  0
 28 29  2  0  0  0  0
 29 30  1  0  0  0  0
 30 31  2  0  0  0  0
 31 26  1  0  0  0  0
M  END
>  <cdx:fragmentId>
5

$$$$
