225.cdx
  Mrv1902 05222410262D          

 21 23  0  0  0  0            999 V2000
    5.0944   -4.3519    0.0000 O   0  0  0  0  0  0  0  0  0  0  0  0
    4.6819   -5.0663    0.0000 C   0  0  0  0  0  0  0  0  0  0  0  0
    4.9833   -5.8343    0.0000 C   0  0  0  0  0  0  0  0  0  0  0  0
    5.7716   -6.0775    0.0000 C   0  0  0  0  0  0  0  0  0  0  0  0
    6.4533   -5.6128    0.0000 C   0  0  0  0  0  0  0  0  0  0  0  0
    6.5149   -4.7901    0.0000 C   0  0  0  0  0  0  0  0  0  0  0  0
    5.9102   -4.2289    0.0000 C   0  0  0  0  0  0  0  0  0  0  0  0
    3.8661   -4.9434    0.0000 C   0  0  0  0  0  0  0  0  0  0  0  0
    3.3517   -5.5884    0.0000 C   0  0  0  0  0  0  0  0  0  0  0  0
    3.6531   -6.3564    0.0000 C   0  0  0  0  0  0  0  0  0  0  0  0
    4.4689   -6.4793    0.0000 C   0  0  0  0  0  0  0  0  0  0  0  0
    7.1349   -6.0775    0.0000 C   0  0  0  0  0  0  0  0  0  0  0  0
    7.8782   -5.7195    0.0000 C   0  0  0  0  0  0  0  0  0  0  0  0
    7.9399   -4.8968    0.0000 C   0  0  0  0  0  0  0  0  0  0  0  0
    7.2582   -4.4321    0.0000 C   0  0  0  0  0  0  0  0  0  0  0  0
    6.1533   -3.4406    0.0000 O   0  0  0  0  0  0  0  0  0  0  0  0
    3.6526   -4.1465    0.0000 O   0  0  0  0  0  0  0  0  0  0  0  0
    4.2359   -3.5631    0.0000 C   0  0  0  0  0  0  0  0  0  0  0  0
    3.2406   -7.0708    0.0000 O   0  0  0  0  0  0  0  0  0  0  0  0
    8.5927   -6.1320    0.0000 C   0  0  0  0  0  0  0  0  0  0  0  0
    7.2582   -3.6071    0.0000 O   0  0  0  0  0  0  0  0  0  0  0  0
  1  2  1  0  0  0  0
  2  3  2  0  0  0  0
  3  4  1  0  0  0  0
  4  5  1  0  0  0  0
  5  6  2  0  0  0  0
  6  7  1  0  0  0  0
  7  1  1  0  0  0  0
  2  8  1  0  0  0  0
  8  9  2  0  0  0  0
  9 10  1  0  0  0  0
 10 11  2  0  0  0  0
 11  3  1  0  0  0  0
  5 12  1  0  0  0  0
 12 13  2  0  0  0  0
 13 14  1  0  0  0  0
 14 15  2  0  0  0  0
 15  6  1  0  0  0  0
  7 16  2  0  0  0  0
  8 17  1  0  0  0  0
 17 18  1  0  0  0  0
 10 19  1  0  0  0  0
 13 20  1  0  0  0  0
 15 21  1  0  0  0  0
M  END
>  <cdx:fragmentId>
330

$$$$
