228.cdx
  Mrv1902 05222410202D          

  8  7  0  0  0  0            999 V2000
    9.2112   -6.5883    0.0000 C   0  0  0  0  0  0  0  0  0  0  0  0
    8.4967   -7.0008    0.0000 C   0  0  0  0  0  0  0  0  0  0  0  0
    7.7822   -6.5883    0.0000 C   0  0  0  0  0  0  0  0  0  0  0  0
    7.0678   -7.0008    0.0000 C   0  0  0  0  0  0  0  0  0  0  0  0
    6.3533   -6.5883    0.0000 C   0  0  0  0  0  0  0  0  0  0  0  0
    5.6388   -7.0008    0.0000 C   0  0  0  0  0  0  0  0  0  0  0  0
    8.4967   -7.8258    0.0000 O   0  0  0  0  0  0  0  0  0  0  0  0
    6.3533   -5.7633    0.0000 O   0  0  0  0  0  0  0  0  0  0  0  0
  1  2  1  0  0  0  0
  2  3  1  0  0  0  0
  3  4  1  0  0  0  0
  4  5  1  0  0  0  0
  5  6  1  0  0  0  0
  2  7  2  0  0  0  0
  5  8  2  0  0  0  0
M  END
>  <cdx:fragmentId>
587

$$$$
