37730.cdx
  Mrv1902 05222410262D          

 28 29  0  0  0  0            999 V2000
    4.3799   -4.6200    0.0000 C   0  0  0  0  0  0  0  0  0  0  0  0
    4.3799   -5.4450    0.0000 C   0  0  0  0  0  0  0  0  0  0  0  0
    5.0944   -5.8575    0.0000 C   0  0  0  0  0  0  0  0  0  0  0  0
    5.8088   -5.4450    0.0000 C   0  0  0  0  0  0  0  0  0  0  0  0
    5.8088   -4.6200    0.0000 C   0  0  0  0  0  0  0  0  0  0  0  0
    5.0944   -4.2075    0.0000 C   0  0  0  0  0  0  0  0  0  0  0  0
    6.5233   -5.8575    0.0000 C   0  0  0  0  0  0  0  0  0  0  0  0
    7.2378   -5.4450    0.0000 C   0  0  0  0  0  0  0  0  0  0  0  0
    7.9523   -5.8575    0.0000 C   0  0  0  0  0  0  0  0  0  0  0  0
    8.6667   -5.4450    0.0000 C   0  0  0  0  0  0  0  0  0  0  0  0
    8.6667   -4.6200    0.0000 C   0  0  0  0  0  0  0  0  0  0  0  0
    7.9523   -4.2075    0.0000 C   0  0  0  0  0  0  0  0  0  0  0  0
    7.2378   -4.6200    0.0000 C   0  0  0  0  0  0  0  0  0  0  0  0
    6.2213   -3.9055    0.0000 O   0  0  0  0  0  0  0  0  0  0  0  0
    6.8253   -3.9055    0.0000 O   0  0  0  0  0  0  0  0  0  0  0  0
    7.9523   -3.3825    0.0000 C   0  0  0  0  0  0  0  0  0  0  0  0
    9.3812   -4.2075    0.0000 O   0  0  0  0  0  0  0  0  0  0  0  0
    3.6654   -4.2075    0.0000 O   0  0  0  0  0  0  0  0  0  0  0  0
    2.9510   -4.6200    0.0000 C   0  0  0  0  0  0  0  0  0  0  0  0
    9.3812   -5.8575    0.0000 C   0  0  0  0  0  0  0  0  0  0  0  0
    7.9523   -6.6825    0.0000 O   0  0  0  0  0  0  0  0  0  0  0  0
    5.0944   -6.6825    0.0000 O   0  0  0  0  0  0  0  0  0  0  0  0
    7.2378   -7.0950    0.0000 C   0  0  0  0  0  0  0  0  0  0  0  0
   10.0957   -5.4450    0.0000 C   0  0  0  0  0  0  0  0  0  0  0  0
    9.3812   -6.6825    0.0000 O   0  0  0  0  0  0  0  0  0  0  0  0
    4.3799   -2.9700    0.0000 O   0  0  0  0  0  0  0  0  0  0  0  0
    5.8088   -2.9700    0.0000 C   0  0  0  0  0  0  0  0  0  0  0  0
    5.0944   -3.3825    0.0000 C   0  0  0  0  0  0  0  0  0  0  0  0
  1  2  2  0  0  0  0
  2  3  1  0  0  0  0
  3  4  2  0  0  0  0
  4  5  1  0  0  0  0
  5  6  2  0  0  0  0
  6  1  1  0  0  0  0
  4  7  1  0  0  0  0
  7  8  1  0  0  0  0
  8  9  2  0  0  0  0
  9 10  1  0  0  0  0
 10 11  2  0  0  0  0
 11 12  1  0  0  0  0
 12 13  2  0  0  0  0
 13  8  1  0  0  0  0
  5 14  1  0  0  0  0
 13 15  1  0  0  0  0
 12 16  1  0  0  0  0
 28 26  2  0  0  0  0
  6 28  1  0  0  0  0
 11 17  1  0  0  0  0
  1 18  1  0  0  0  0
 18 19  1  0  0  0  0
 10 20  1  0  0  0  0
  9 21  1  0  0  0  0
  3 22  1  0  0  0  0
 21 23  1  0  0  0  0
 20 24  1  0  0  0  0
 20 25  2  0  0  0  0
 28 27  1  0  0  0  0
M  END
>  <cdx:fragmentId>
655

$$$$
