37737.cdx
  Mrv1902 05222410272D          

 20 20  0  0  0  0            999 V2000
    5.1563   -5.7681    0.0000 C   0  0  0  0  0  0  0  0  0  0  0  0
    5.1563   -6.5931    0.0000 C   0  0  0  0  0  0  0  0  0  0  0  0
    5.8707   -7.0056    0.0000 C   0  0  0  0  0  0  0  0  0  0  0  0
    6.5852   -6.5931    0.0000 C   0  0  0  0  0  0  0  0  0  0  0  0
    6.5852   -5.7681    0.0000 C   0  0  0  0  0  0  0  0  0  0  0  0
    5.8707   -5.3556    0.0000 C   0  0  0  0  0  0  0  0  0  0  0  0
    4.4418   -7.0056    0.0000 O   0  0  0  0  0  0  0  0  0  0  0  0
    7.2997   -5.3556    0.0000 C   0  0  0  0  0  0  0  0  0  0  0  0
    8.0141   -5.7681    0.0000 C   0  0  2  0  0  0  0  0  0  0  0  0
    8.4266   -5.0537    0.0000 C   0  0  0  0  0  0  0  0  0  0  0  0
    8.0141   -6.5931    0.0000 C   0  0  2  0  0  0  0  0  0  0  0  0
    8.7286   -7.0056    0.0000 O   0  0  0  0  0  0  0  0  0  0  0  0
    8.8110   -6.3796    0.0000 C   0  0  0  0  0  0  0  0  0  0  0  0
    7.2997   -6.1806    0.0000 O   0  0  0  0  0  0  0  0  0  0  0  0
    9.3944   -6.9630    0.0000 O   0  0  0  0  0  0  0  0  0  0  0  0
    9.0245   -5.5827    0.0000 O   0  0  0  0  0  0  0  0  0  0  0  0
   10.1913   -6.7494    0.0000 C   0  0  0  0  0  0  0  0  0  0  0  0
   10.7746   -7.3328    0.0000 C   0  0  0  0  0  0  0  0  0  0  0  0
    8.0141   -4.3392    0.0000 O   0  0  0  0  0  0  0  0  0  0  0  0
    9.2516   -5.0537    0.0000 O   0  0  0  0  0  0  0  0  0  0  0  0
  1  2  2  0  0  0  0
  2  3  1  0  0  0  0
  3  4  2  0  0  0  0
  4  5  1  0  0  0  0
  5  6  2  0  0  0  0
  6  1  1  0  0  0  0
  2  7  1  0  0  0  0
  5  8  1  0  0  0  0
  8  9  1  0  0  0  0
  9 10  1  0  0  0  0
  9 11  1  0  0  0  0
 11 12  1  0  0  0  0
 11 13  1  6  0  0  0
  9 14  1  1  0  0  0
 13 15  1  0  0  0  0
 13 16  2  0  0  0  0
 15 17  1  0  0  0  0
 17 18  1  0  0  0  0
 10 19  2  0  0  0  0
 10 20  1  0  0  0  0
M  END
>  <cdx:fragmentId>
434

$$$$
