232.cdx
  Mrv1902 05222410262D          

 36 39  0  0  0  0            999 V2000
    6.9965   -2.2688    0.0000 C   0  0  0  0  0  0  0  0  0  0  0  0
    6.5840   -2.9832    0.0000 C   0  0  0  0  0  0  0  0  0  0  0  0
    6.9965   -3.6977    0.0000 C   0  0  0  0  0  0  0  0  0  0  0  0
    7.8215   -3.6977    0.0000 C   0  0  0  0  0  0  0  0  0  0  0  0
    8.2340   -2.9832    0.0000 C   0  0  0  0  0  0  0  0  0  0  0  0
    7.8215   -2.2688    0.0000 C   0  0  0  0  0  0  0  0  0  0  0  0
    9.0590   -2.9832    0.0000 C   0  0  2  0  0  0  0  0  0  0  0  0
    9.4715   -3.6977    0.0000 O   0  0  0  0  0  0  0  0  0  0  0  0
   10.2784   -3.5262    0.0000 C   0  0  0  0  0  0  0  0  0  0  0  0
   10.3647   -2.7057    0.0000 C   0  0  0  0  0  0  0  0  0  0  0  0
    9.6110   -2.3701    0.0000 C   0  0  2  0  0  0  0  0  0  0  0  0
   10.9459   -4.0111    0.0000 C   0  0  0  0  0  0  0  0  0  0  0  0
   11.6996   -3.6755    0.0000 C   0  0  0  0  0  0  0  0  0  0  0  0
   11.7858   -2.8550    0.0000 C   0  0  0  0  0  0  0  0  0  0  0  0
   11.1184   -2.3701    0.0000 C   0  0  0  0  0  0  0  0  0  0  0  0
   10.7324   -4.8080    0.0000 C   0  0  0  0  0  0  0  0  0  0  0  0
   12.5827   -2.6415    0.0000 C   0  0  0  0  0  0  0  0  0  0  0  0
   13.1660   -3.2249    0.0000 C   0  0  0  0  0  0  0  0  0  0  0  0
   13.9629   -3.0114    0.0000 C   0  0  0  0  0  0  0  0  0  0  0  0
   14.5463   -3.5947    0.0000 O   0  0  0  0  0  0  0  0  0  0  0  0
    9.1985   -1.6557    0.0000 C   0  0  0  0  0  0  0  0  0  0  0  0
    9.6110   -0.9412    0.0000 O   0  0  0  0  0  0  0  0  0  0  0  0
    5.7590   -2.9832    0.0000 O   0  0  0  0  0  0  0  0  0  0  0  0
    6.5840   -4.4122    0.0000 O   0  0  0  0  0  0  0  0  0  0  0  0
    6.5840   -5.2372    0.0000 C   0  0  0  0  0  0  0  0  0  0  0  0
    5.0445   -3.3957    0.0000 C   0  0  2  0  0  0  0  0  0  0  0  0
    4.6320   -2.6812    0.0000 O   0  0  0  0  0  0  0  0  0  0  0  0
    3.8070   -2.6812    0.0000 C   0  0  0  0  0  0  0  0  0  0  0  0
    3.3945   -3.3957    0.0000 C   0  0  0  0  0  0  0  0  0  0  0  0
    3.8070   -4.1102    0.0000 C   0  0  2  0  0  0  0  0  0  0  0  0
    4.6320   -4.1102    0.0000 C   0  0  0  0  0  0  0  0  0  0  0  0
    3.5935   -1.8844    0.0000 C   0  0  0  0  0  0  0  0  0  0  0  0
    4.3079   -1.4719    0.0000 O   0  0  0  0  0  0  0  0  0  0  0  0
    3.3945   -4.2207    0.0000 O   0  0  0  0  0  0  0  0  0  0  0  0
    4.0205   -3.3133    0.0000 O   0  0  0  0  0  0  0  0  0  0  0  0
    4.6320   -4.9352    0.0000 O   0  0  0  0  0  0  0  0  0  0  0  0
  1  2  2  0  0  0  0
  2  3  1  0  0  0  0
  3  4  2  0  0  0  0
  4  5  1  0  0  0  0
  5  6  2  0  0  0  0
  6  1  1  0  0  0  0
  7  5  1  1  0  0  0
  7  8  1  0  0  0  0
  8  9  1  0  0  0  0
  9 10  2  0  0  0  0
 10 11  1  0  0  0  0
 11  7  1  0  0  0  0
  9 12  1  0  0  0  0
 12 13  2  0  0  0  0
 13 14  1  0  0  0  0
 14 15  2  0  0  0  0
 15 10  1  0  0  0  0
 12 16  1  0  0  0  0
 14 17  1  0  0  0  0
 17 18  1  0  0  0  0
 18 19  1  0  0  0  0
 19 20  1  0  0  0  0
 11 21  1  1  0  0  0
 21 22  1  0  0  0  0
  2 23  1  0  0  0  0
  3 24  1  0  0  0  0
 24 25  1  0  0  0  0
 23 26  1  0  0  0  0
 26 27  1  0  0  0  0
 27 28  1  0  0  0  0
 28 29  1  0  0  0  0
 30 29  1  1  0  0  0
 30 31  1  1  0  0  0
 26 31  1  1  0  0  0
 28 32  1  0  0  0  0
 32 33  1  0  0  0  0
 29 34  1  0  0  0  0
 30 35  1  0  0  0  0
 31 36  1  0  0  0  0
M  END
>  <cdx:fragmentId>
5

$$$$
