236.cdx
  Mrv1902 05222410272D          

 35 39  0  0  0  0            999 V2000
    1.1624   -5.2800    0.0000 C   0  0  0  0  0  0  0  0  0  0  0  0
    1.1624   -6.1050    0.0000 C   0  0  0  0  0  0  0  0  0  0  0  0
    1.8769   -6.5175    0.0000 C   0  0  0  0  0  0  0  0  0  0  0  0
    2.5913   -6.1050    0.0000 C   0  0  0  0  0  0  0  0  0  0  0  0
    2.5913   -5.2800    0.0000 C   0  0  0  0  0  0  0  0  0  0  0  0
    1.8769   -4.8675    0.0000 C   0  0  0  0  0  0  0  0  0  0  0  0
    3.3058   -6.5175    0.0000 C   0  0  0  0  0  0  0  0  0  0  0  0
    4.0203   -6.1050    0.0000 C   0  0  0  0  0  0  0  0  0  0  0  0
    4.0203   -5.2800    0.0000 C   0  0  0  0  0  0  0  0  0  0  0  0
    3.3058   -4.8675    0.0000 O   0  0  0  0  0  0  0  0  0  0  0  0
    4.7348   -4.8675    0.0000 C   0  0  0  0  0  0  0  0  0  0  0  0
    5.4492   -5.2800    0.0000 C   0  0  0  0  0  0  0  0  0  0  0  0
    6.1637   -4.8675    0.0000 C   0  0  0  0  0  0  0  0  0  0  0  0
    6.1637   -4.0425    0.0000 C   0  0  0  0  0  0  0  0  0  0  0  0
    5.4492   -3.6300    0.0000 C   0  0  0  0  0  0  0  0  0  0  0  0
    4.7348   -4.0425    0.0000 C   0  0  0  0  0  0  0  0  0  0  0  0
    6.9483   -5.1224    0.0000 C   0  0  2  0  0  0  0  0  0  0  0  0
    7.4332   -4.4550    0.0000 C   0  0  1  0  0  0  0  0  0  0  0  0
    6.9483   -3.7876    0.0000 O   0  0  0  0  0  0  0  0  0  0  0  0
    8.2582   -4.4550    0.0000 C   0  0  0  0  0  0  0  0  0  0  0  0
    8.6707   -5.1695    0.0000 C   0  0  0  0  0  0  0  0  0  0  0  0
    9.4957   -5.1695    0.0000 C   0  0  0  0  0  0  0  0  0  0  0  0
    9.9082   -4.4550    0.0000 C   0  0  0  0  0  0  0  0  0  0  0  0
    9.4957   -3.7405    0.0000 C   0  0  0  0  0  0  0  0  0  0  0  0
    8.6707   -3.7405    0.0000 C   0  0  0  0  0  0  0  0  0  0  0  0
    0.4479   -4.8675    0.0000 O   0  0  0  0  0  0  0  0  0  0  0  0
    1.8769   -7.3425    0.0000 O   0  0  0  0  0  0  0  0  0  0  0  0
    3.3058   -7.3425    0.0000 O   0  0  0  0  0  0  0  0  0  0  0  0
    4.7348   -6.5175    0.0000 O   0  0  0  0  0  0  0  0  0  0  0  0
    5.4492   -2.8050    0.0000 O   0  0  0  0  0  0  0  0  0  0  0  0
    7.1618   -5.9193    0.0000 C   0  0  0  0  0  0  0  0  0  0  0  0
    7.8763   -6.3318    0.0000 O   0  0  0  0  0  0  0  0  0  0  0  0
    9.9082   -3.0261    0.0000 O   0  0  0  0  0  0  0  0  0  0  0  0
   10.7332   -3.0261    0.0000 C   0  0  0  0  0  0  0  0  0  0  0  0
   10.7332   -4.4550    0.0000 O   0  0  0  0  0  0  0  0  0  0  0  0
  1  2  2  0  0  0  0
  2  3  1  0  0  0  0
  3  4  2  0  0  0  0
  4  5  1  0  0  0  0
  5  6  2  0  0  0  0
  6  1  1  0  0  0  0
  4  7  1  0  0  0  0
  7  8  1  0  0  0  0
  8  9  2  0  0  0  0
  9 10  1  0  0  0  0
 10  5  1  0  0  0  0
  9 11  1  0  0  0  0
 11 12  2  0  0  0  0
 12 13  1  0  0  0  0
 13 14  2  0  0  0  0
 14 15  1  0  0  0  0
 15 16  2  0  0  0  0
 16 11  1  0  0  0  0
 13 17  1  0  0  0  0
 17 18  1  0  0  0  0
 18 19  1  0  0  0  0
 19 14  1  0  0  0  0
 18 20  1  1  0  0  0
 20 21  2  0  0  0  0
 21 22  1  0  0  0  0
 22 23  2  0  0  0  0
 23 24  1  0  0  0  0
 24 25  2  0  0  0  0
 25 20  1  0  0  0  0
  1 26  1  0  0  0  0
  3 27  1  0  0  0  0
  7 28  2  0  0  0  0
  8 29  1  0  0  0  0
 15 30  1  0  0  0  0
 17 31  1  6  0  0  0
 31 32  1  0  0  0  0
 24 33  1  0  0  0  0
 33 34  1  0  0  0  0
 23 35  1  0  0  0  0
M  END
>  <cdx:fragmentId>
333

$$$$
