5377379.cdx
  Mrv1902 05222410232D          

 19 21  0  0  0  0            999 V2000
   15.1914   -9.5576    0.0000 C   0  0  0  0  0  0  0  0  0  0  0  0
   15.6763   -8.8901    0.0000 O   0  0  0  0  0  0  0  0  0  0  0  0
   15.1914   -8.2227    0.0000 C   0  0  0  0  0  0  0  0  0  0  0  0
   14.4067   -8.4776    0.0000 C   0  0  0  0  0  0  0  0  0  0  0  0
   13.6923   -8.0651    0.0000 C   0  0  0  0  0  0  0  0  0  0  0  0
   12.9778   -8.4776    0.0000 C   0  0  0  0  0  0  0  0  0  0  0  0
   12.9778   -9.3026    0.0000 C   0  0  0  0  0  0  0  0  0  0  0  0
   13.6923   -9.7151    0.0000 C   0  0  0  0  0  0  0  0  0  0  0  0
   14.4067   -9.3026    0.0000 C   0  0  0  0  0  0  0  0  0  0  0  0
   15.4463  -10.3422    0.0000 O   0  0  0  0  0  0  0  0  0  0  0  0
   15.4463   -7.4381    0.0000 C   0  0  0  0  0  0  0  0  0  0  0  0
   16.2533   -7.2665    0.0000 C   0  0  0  0  0  0  0  0  0  0  0  0
   16.5082   -6.4819    0.0000 C   0  0  0  0  0  0  0  0  0  0  0  0
   17.3152   -6.3104    0.0000 C   0  0  0  0  0  0  0  0  0  0  0  0
   17.8672   -6.9235    0.0000 C   0  0  0  0  0  0  0  0  0  0  0  0
   17.6123   -7.7081    0.0000 C   0  0  0  0  0  0  0  0  0  0  0  0
   16.8053   -7.8796    0.0000 C   0  0  0  0  0  0  0  0  0  0  0  0
   18.6742   -6.7519    0.0000 O   0  0  0  0  0  0  0  0  0  0  0  0
   12.2633   -8.0651    0.0000 O   0  0  0  0  0  0  0  0  0  0  0  0
  1  2  1  0  0  0  0
  2  3  1  0  0  0  0
  3  4  1  0  0  0  0
  4  5  1  0  0  0  0
  5  6  2  0  0  0  0
  6  7  1  0  0  0  0
  7  8  2  0  0  0  0
  8  9  1  0  0  0  0
  4  9  2  0  0  0  0
  1  9  1  0  0  0  0
  1 10  2  0  0  0  0
 12 13  1  0  0  0  0
 13 14  2  0  0  0  0
 14 15  1  0  0  0  0
 15 16  2  0  0  0  0
 16 17  1  0  0  0  0
 12 17  2  0  0  0  0
 15 18  1  0  0  0  0
 11 12  1  0  0  0  0
  3 11  2  0  0  0  0
  6 19  1  0  0  0  0
M  END
>  <cdx:groupId>
32660

>  <cdx:fragmentId>
32604

$$$$
