37734.cdx
  Mrv1902 05222410282D          

 43 48  0  0  0  0            999 V2000
    4.7713   -4.1594    0.0000 C   0  0  0  0  0  0  0  0  0  0  0  0
    4.7713   -4.9844    0.0000 C   0  0  0  0  0  0  0  0  0  0  0  0
    5.4857   -5.3969    0.0000 C   0  0  0  0  0  0  0  0  0  0  0  0
    6.2002   -4.9844    0.0000 C   0  0  0  0  0  0  0  0  0  0  0  0
    6.2002   -4.1594    0.0000 C   0  0  0  0  0  0  0  0  0  0  0  0
    5.4857   -3.7469    0.0000 C   0  0  0  0  0  0  0  0  0  0  0  0
    6.9147   -5.3969    0.0000 O   0  0  0  0  0  0  0  0  0  0  0  0
    7.6291   -4.9844    0.0000 C   0  0  0  0  0  0  0  0  0  0  0  0
    7.6291   -4.1594    0.0000 C   0  0  0  0  0  0  0  0  0  0  0  0
    6.9147   -3.7469    0.0000 C   0  0  0  0  0  0  0  0  0  0  0  0
    5.4857   -2.9219    0.0000 O   0  0  0  0  0  0  0  0  0  0  0  0
    4.0568   -5.3969    0.0000 O   0  0  0  0  0  0  0  0  0  0  0  0
    5.4857   -6.2219    0.0000 C   0  0  0  0  0  0  0  0  0  0  0  0
    6.9147   -2.9219    0.0000 O   0  0  0  0  0  0  0  0  0  0  0  0
    8.3436   -5.3969    0.0000 C   0  0  0  0  0  0  0  0  0  0  0  0
    8.3436   -6.2219    0.0000 C   0  0  0  0  0  0  0  0  0  0  0  0
    9.0581   -6.6344    0.0000 C   0  0  0  0  0  0  0  0  0  0  0  0
    9.7725   -6.2219    0.0000 C   0  0  0  0  0  0  0  0  0  0  0  0
    9.7725   -5.3969    0.0000 C   0  0  0  0  0  0  0  0  0  0  0  0
    9.0581   -4.9844    0.0000 C   0  0  0  0  0  0  0  0  0  0  0  0
   10.4870   -6.6344    0.0000 O   0  0  0  0  0  0  0  0  0  0  0  0
   11.2015   -6.2219    0.0000 C   0  0  0  0  0  0  0  0  0  0  0  0
    6.2002   -6.6344    0.0000 C   0  0  0  0  0  0  0  0  0  0  0  0
    6.2002   -7.4594    0.0000 C   0  0  0  0  0  0  0  0  0  0  0  0
    5.4857   -7.8719    0.0000 C   0  0  0  0  0  0  0  0  0  0  0  0
    4.7713   -7.4594    0.0000 C   0  0  0  0  0  0  0  0  0  0  0  0
    4.7713   -6.6344    0.0000 C   0  0  0  0  0  0  0  0  0  0  0  0
    4.0568   -6.2219    0.0000 O   0  0  0  0  0  0  0  0  0  0  0  0
    3.3423   -6.6344    0.0000 C   0  0  0  0  0  0  0  0  0  0  0  0
    6.9147   -7.8719    0.0000 C   0  0  1  0  0  0  0  0  0  0  0  0
    6.9147   -8.6969    0.0000 O   0  0  0  0  0  0  0  0  0  0  0  0
    7.6291   -9.1094    0.0000 C   0  0  0  0  0  0  0  0  0  0  0  0
    8.3436   -8.6969    0.0000 C   0  0  0  0  0  0  0  0  0  0  0  0
    8.3436   -7.8719    0.0000 C   0  0  0  0  0  0  0  0  0  0  0  0
    7.6291   -7.4594    0.0000 C   0  0  0  0  0  0  0  0  0  0  0  0
    7.6291   -9.9344    0.0000 C   0  0  0  0  0  0  0  0  0  0  0  0
    8.3436  -10.3469    0.0000 C   0  0  0  0  0  0  0  0  0  0  0  0
    9.0581   -9.9344    0.0000 C   0  0  0  0  0  0  0  0  0  0  0  0
    9.0581   -9.1094    0.0000 C   0  0  0  0  0  0  0  0  0  0  0  0
    9.0581   -7.4594    0.0000 O   0  0  0  0  0  0  0  0  0  0  0  0
    9.7725   -8.6969    0.0000 O   0  0  0  0  0  0  0  0  0  0  0  0
    8.3436  -11.1719    0.0000 O   0  0  0  0  0  0  0  0  0  0  0  0
    9.0581  -11.5844    0.0000 C   0  0  0  0  0  0  0  0  0  0  0  0
  1  2  2  0  0  0  0
  2  3  1  0  0  0  0
  3  4  2  0  0  0  0
  4  5  1  0  0  0  0
  5  6  2  0  0  0  0
  6  1  1  0  0  0  0
  4  7  1  0  0  0  0
  7  8  1  0  0  0  0
  8  9  2  0  0  0  0
  9 10  1  0  0  0  0
 10  5  1  0  0  0  0
  6 11  1  0  0  0  0
  2 12  1  0  0  0  0
  3 13  1  0  0  0  0
 10 14  2  0  0  0  0
  8 15  1  0  0  0  0
 15 16  2  0  0  0  0
 16 17  1  0  0  0  0
 17 18  2  0  0  0  0
 18 19  1  0  0  0  0
 19 20  2  0  0  0  0
 20 15  1  0  0  0  0
 18 21  1  0  0  0  0
 21 22  1  0  0  0  0
 13 23  2  0  0  0  0
 23 24  1  0  0  0  0
 24 25  2  0  0  0  0
 25 26  1  0  0  0  0
 26 27  2  0  0  0  0
 27 13  1  0  0  0  0
 27 28  1  0  0  0  0
 28 29  1  0  0  0  0
 30 24  1  6  0  0  0
 30 31  1  0  0  0  0
 31 32  1  0  0  0  0
 32 33  2  0  0  0  0
 33 34  1  0  0  0  0
 34 35  1  0  0  0  0
 35 30  1  0  0  0  0
 32 36  1  0  0  0  0
 36 37  2  0  0  0  0
 37 38  1  0  0  0  0
 38 39  2  0  0  0  0
 39 33  1  0  0  0  0
 34 40  2  0  0  0  0
 39 41  1  0  0  0  0
 37 42  1  0  0  0  0
 42 43  1  0  0  0  0
M  END
>  <cdx:fragmentId>
295

$$$$
