238.cdx
  Mrv1902 05222410182D          

  9 10  0  0  0  0            999 V2000
    8.2877   -5.2210    0.0000 C   0  0  0  0  0  0  0  0  0  0  0  0
    8.7726   -5.8884    0.0000 C   0  0  0  0  0  0  0  0  0  0  0  0
    8.2877   -6.5559    0.0000 C   0  0  0  0  0  0  0  0  0  0  0  0
    7.5031   -6.3009    0.0000 C   0  0  0  0  0  0  0  0  0  0  0  0
    6.7886   -6.7134    0.0000 C   0  0  0  0  0  0  0  0  0  0  0  0
    6.0741   -6.3009    0.0000 C   0  0  0  0  0  0  0  0  0  0  0  0
    6.0741   -5.4759    0.0000 C   0  0  0  0  0  0  0  0  0  0  0  0
    6.7886   -5.0634    0.0000 C   0  0  0  0  0  0  0  0  0  0  0  0
    7.5031   -5.4759    0.0000 C   0  0  0  0  0  0  0  0  0  0  0  0
  1  2  1  0  0  0  0
  2  3  1  0  0  0  0
  3  4  1  0  0  0  0
  4  5  1  0  0  0  0
  5  6  1  0  0  0  0
  6  7  1  0  0  0  0
  7  8  1  0  0  0  0
  8  9  1  0  0  0  0
  1  9  1  0  0  0  0
  4  9  2  0  0  0  0
M  END
>  <cdx:fragmentId>
477

$$$$
