37739.cdx
  Mrv1902 05222410182D          

 28 30  0  0  0  0            999 V2000
    7.4651   -4.9075    0.0000 C   0  0  0  0  0  0  0  0  0  0  0  0
    7.0300   -4.2065    0.0000 C   0  0  0  0  0  0  0  0  0  0  0  0
    3.7316   -4.3119    0.0000 O   0  0  0  0  0  0  0  0  0  0  0  0
    4.9913   -4.9865    0.0000 C   0  0  0  0  0  0  0  0  0  0  0  0
    5.8159   -4.9602    0.0000 C   0  0  0  0  0  0  0  0  0  0  0  0
    6.2054   -4.2329    0.0000 C   0  0  0  0  0  0  0  0  0  0  0  0
    5.7703   -3.5319    0.0000 C   0  0  0  0  0  0  0  0  0  0  0  0
    4.9457   -3.5583    0.0000 C   0  0  0  0  0  0  0  0  0  0  0  0
    4.5562   -4.2856    0.0000 C   0  0  0  0  0  0  0  0  0  0  0  0
    8.2896   -4.8811    0.0000 C   0  0  0  0  0  0  0  0  0  0  0  0
    8.7248   -5.5821    0.0000 C   0  0  0  0  0  0  0  0  0  0  0  0
    9.5493   -5.5557    0.0000 C   0  0  0  0  0  0  0  0  0  0  0  0
    9.9388   -4.8284    0.0000 C   0  0  0  0  0  0  0  0  0  0  0  0
    9.5037   -4.1275    0.0000 C   0  0  0  0  0  0  0  0  0  0  0  0
    8.6791   -4.1538    0.0000 C   0  0  0  0  0  0  0  0  0  0  0  0
    9.8932   -3.4002    0.0000 O   0  0  0  0  0  0  0  0  0  0  0  0
    9.9844   -6.2566    0.0000 O   0  0  0  0  0  0  0  0  0  0  0  0
    8.3353   -6.3093    0.0000 O   0  0  0  0  0  0  0  0  0  0  0  0
    7.6132   -6.7083    0.0000 C   0  0  2  0  0  0  0  0  0  0  0  0
    6.8934   -6.3052    0.0000 O   0  0  0  0  0  0  0  0  0  0  0  0
    6.1843   -6.7270    0.0000 C   0  0  2  0  0  0  0  0  0  0  0  0
    6.1951   -7.5519    0.0000 C   0  0  1  0  0  0  0  0  0  0  0  0
    6.9149   -7.9550    0.0000 C   0  0  2  0  0  0  0  0  0  0  0  0
    7.6240   -7.5332    0.0000 C   0  0  1  0  0  0  0  0  0  0  0  0
    5.4861   -7.9737    0.0000 O   0  0  0  0  0  0  0  0  0  0  0  0
    6.9257   -8.7800    0.0000 O   0  0  0  0  0  0  0  0  0  0  0  0
    5.4645   -6.3239    0.0000 C   0  0  0  0  0  0  0  0  0  0  0  0
    8.3438   -7.9363    0.0000 O   0  0  0  0  0  0  0  0  0  0  0  0
  2  1  2  0  0  0  0
  6  2  1  0  0  0  0
  9  3  1  0  0  0  0
  4  9  1  0  0  0  0
  5  4  2  0  0  0  0
  6  5  1  0  0  0  0
  7  6  2  0  0  0  0
  8  7  1  0  0  0  0
  9  8  2  0  0  0  0
  1 10  1  0  0  0  0
 10 11  2  0  0  0  0
 11 12  1  0  0  0  0
 12 13  2  0  0  0  0
 13 14  1  0  0  0  0
 14 15  2  0  0  0  0
 15 10  1  0  0  0  0
 14 16  1  0  0  0  0
 12 17  1  0  0  0  0
 11 18  1  0  0  0  0
 19 18  1  1  0  0  0
 19 20  1  0  0  0  0
 20 21  1  0  0  0  0
 21 22  1  0  0  0  0
 22 23  1  0  0  0  0
 23 24  1  0  0  0  0
 24 19  1  0  0  0  0
 22 25  1  1  0  0  0
 23 26  1  6  0  0  0
 21 27  1  6  0  0  0
 24 28  1  6  0  0  0
M  END
>  <cdx:fragmentId>
507

$$$$
