37744.cdx
  Mrv1902 05222410242D          

 18 20  0  0  0  0            999 V2000
    8.9818   -8.2585    0.0000 C   0  0  0  0  0  0  0  0  0  0  0  0
    8.9818   -7.4335    0.0000 C   0  0  0  0  0  0  0  0  0  0  0  0
    8.2674   -7.0210    0.0000 C   0  0  0  0  0  0  0  0  0  0  0  0
    7.5529   -7.4335    0.0000 C   0  0  0  0  0  0  0  0  0  0  0  0
    7.5529   -8.2585    0.0000 C   0  0  0  0  0  0  0  0  0  0  0  0
    6.8384   -8.6710    0.0000 C   0  0  0  0  0  0  0  0  0  0  0  0
    6.1239   -8.2585    0.0000 C   0  0  0  0  0  0  0  0  0  0  0  0
    5.4095   -8.6710    0.0000 C   0  0  0  0  0  0  0  0  0  0  0  0
    5.4095   -9.4960    0.0000 C   0  0  0  0  0  0  0  0  0  0  0  0
    6.1239   -9.9085    0.0000 C   0  0  0  0  0  0  0  0  0  0  0  0
    6.8384   -9.4960    0.0000 C   0  0  0  0  0  0  0  0  0  0  0  0
    7.5529   -9.9085    0.0000 C   0  0  0  0  0  0  0  0  0  0  0  0
    8.2674   -9.4960    0.0000 C   0  0  0  0  0  0  0  0  0  0  0  0
    8.2674   -8.6710    0.0000 C   0  0  0  0  0  0  0  0  0  0  0  0
    9.6963   -7.0210    0.0000 O   0  0  0  0  0  0  0  0  0  0  0  0
    4.6950   -9.9085    0.0000 O   0  0  0  0  0  0  0  0  0  0  0  0
    6.8384   -7.0210    0.0000 O   0  0  0  0  0  0  0  0  0  0  0  0
    6.1239   -7.4335    0.0000 C   0  0  0  0  0  0  0  0  0  0  0  0
  1  2  1  0  0  0  0
  2  3  2  0  0  0  0
  3  4  1  0  0  0  0
  4  5  2  0  0  0  0
  5  6  1  0  0  0  0
  6  7  1  0  0  0  0
  7  8  2  0  0  0  0
  8  9  1  0  0  0  0
  9 10  2  0  0  0  0
 10 11  1  0  0  0  0
  6 11  2  0  0  0  0
 11 12  1  0  0  0  0
 12 13  1  0  0  0  0
 13 14  1  0  0  0  0
  1 14  2  0  0  0  0
  5 14  1  0  0  0  0
  2 15  1  0  0  0  0
  9 16  1  0  0  0  0
 17 18  1  0  0  0  0
  4 17  1  0  0  0  0
M  END
>  <cdx:fragmentId>
5

$$$$
