37748.cdx
  Mrv1902 05222410222D          

 36 40  0  0  0  0            999 V2000
    6.1308   -8.8954    0.0000 C   0  0  2  0  0  0  0  0  0  0  0  0
    5.4164   -8.4829    0.0000 C   0  0  0  0  0  0  0  0  0  0  0  0
    5.4164   -9.3079    0.0000 C   0  0  1  0  0  0  0  0  0  0  0  0
    4.7019   -8.8954    0.0000 C   0  0  0  0  0  0  0  0  0  0  0  0
    3.9875   -9.3079    0.0000 C   0  0  0  0  0  0  0  0  0  0  0  0
    3.9875  -10.1329    0.0000 C   0  0  0  0  0  0  0  0  0  0  0  0
    4.7019  -10.5454    0.0000 C   0  0  0  0  0  0  0  0  0  0  0  0
    5.4164  -10.1329    0.0000 C   0  0  2  0  0  0  0  0  0  0  0  0
    6.1308  -10.5454    0.0000 C   0  0  0  0  0  0  0  0  0  0  0  0
    6.8453  -10.1329    0.0000 C   0  0  0  0  0  0  0  0  0  0  0  0
    6.8453   -9.3079    0.0000 C   0  0  1  0  0  0  0  0  0  0  0  0
    7.5597   -8.8954    0.0000 C   0  0  2  0  0  0  0  0  0  0  0  0
    8.3446   -9.1503    0.0000 C   0  0  0  0  0  0  0  0  0  0  0  0
    8.8294   -8.4829    0.0000 C   0  0  0  0  0  0  0  0  0  0  0  0
    8.3446   -7.8155    0.0000 C   0  0  1  0  0  0  0  0  0  0  0  0
    7.5597   -8.0704    0.0000 C   0  0  1  0  0  0  0  0  0  0  0  0
    6.8453   -7.6579    0.0000 C   0  0  0  0  0  0  0  0  0  0  0  0
    6.1308   -8.0704    0.0000 C   0  0  0  0  0  0  0  0  0  0  0  0
    3.2730  -10.5454    0.0000 O   0  0  0  0  0  0  0  0  0  0  0  0
    8.0473   -6.4177    0.0000 C   0  0  0  0  0  0  0  0  0  0  0  0
    8.5995   -7.0309    0.0000 C   0  0  2  0  0  0  0  0  0  0  0  0
    9.4064   -6.8593    0.0000 C   0  0  0  0  0  0  0  0  0  0  0  0
    9.6613   -6.0747    0.0000 C   0  0  0  0  0  0  0  0  0  0  0  0
   10.4684   -5.9031    0.0000 C   0  0  0  0  0  0  0  0  0  0  0  0
   10.7233   -5.1186    0.0000 C   0  0  0  0  0  0  0  0  0  0  0  0
   10.1711   -4.5056    0.0000 C   0  0  0  0  0  0  0  0  0  0  0  0
   11.5302   -4.9470    0.0000 C   0  0  0  0  0  0  0  0  0  0  0  0
   11.2530   -6.1581    0.0000 C   0  0  0  0  0  0  0  0  0  0  0  0
   10.6397   -6.7103    0.0000 C   0  0  0  0  0  0  0  0  0  0  0  0
    7.5597   -7.2454    0.0000 C   0  0  0  0  0  0  0  0  0  0  0  0
    7.5597   -9.7204    0.0000 C   0  0  0  0  0  0  0  0  0  0  0  0
    5.1144  -11.2599    0.0000 C   0  0  0  0  0  0  0  0  0  0  0  0
    4.2894  -11.2599    0.0000 C   0  0  0  0  0  0  0  0  0  0  0  0
    5.4164  -10.9579    0.0000 H   0  0  0  0  0  0  0  0  0  0  0  0
    6.8453   -8.4829    0.0000 H   0  0  0  0  0  0  0  0  0  0  0  0
    9.1292   -7.5606    0.0000 H   0  0  0  0  0  0  0  0  0  0  0  0
  1  2  1  1  0  0  0
  3  2  1  1  0  0  0
  3  4  1  0  0  0  0
  4  5  1  0  0  0  0
  5  6  1  0  0  0  0
  6  7  1  0  0  0  0
  7  8  1  0  0  0  0
  8  9  1  0  0  0  0
  9 10  1  0  0  0  0
 10 11  1  0  0  0  0
 11 12  1  0  0  0  0
 12 13  1  0  0  0  0
 13 14  1  0  0  0  0
 15 14  1  0  0  0  0
 15 16  1  0  0  0  0
 16 17  1  0  0  0  0
 17 18  1  0  0  0  0
  1 18  1  0  0  0  0
  1 11  1  0  0  0  0
 12 16  1  0  0  0  0
  3  8  1  0  0  0  0
  1  3  1  0  0  0  0
  6 19  2  0  0  0  0
 21 20  1  6  0  0  0
 21 22  1  0  0  0  0
 22 23  1  0  0  0  0
 23 24  1  0  0  0  0
 24 25  1  0  0  0  0
 25 26  2  0  0  0  0
 25 27  1  0  0  0  0
 24 28  1  0  0  0  0
 24 29  1  0  0  0  0
 15 21  1  0  0  0  0
 16 30  1  1  0  0  0
 12 31  1  6  0  0  0
  7 32  1  0  0  0  0
  7 33  1  0  0  0  0
  8 34  1  6  0  0  0
 11 35  1  1  0  0  0
 15 36  1  6  0  0  0
M  END
>  <cdx:fragmentId>
326

$$$$
