37749.cdx
  Mrv1902 05222410222D          

 30 30  0  0  0  0            999 V2000
    7.3040   -8.2483    0.0000 C   0  0  0  0  0  0  0  0  0  0  0  0
    6.5895   -8.6608    0.0000 C   0  0  0  0  0  0  0  0  0  0  0  0
    5.8748   -8.2483    0.0000 C   0  0  0  0  0  0  0  0  0  0  0  0
    7.3040   -7.4233    0.0000 O   0  0  0  0  0  0  0  0  0  0  0  0
    8.0184   -8.6608    0.0000 O   0  0  0  0  0  0  0  0  0  0  0  0
    5.1604   -8.6608    0.0000 C   0  0  0  0  0  0  0  0  0  0  0  0
    4.4459   -8.2483    0.0000 C   0  0  0  0  0  0  0  0  0  0  0  0
    3.7315   -8.6608    0.0000 C   0  0  0  0  0  0  0  0  0  0  0  0
    3.7315   -9.4858    0.0000 C   0  0  0  0  0  0  0  0  0  0  0  0
    4.4459   -9.8983    0.0000 C   0  0  0  0  0  0  0  0  0  0  0  0
    5.1604   -9.4858    0.0000 C   0  0  0  0  0  0  0  0  0  0  0  0
    3.0170   -8.2483    0.0000 O   0  0  0  0  0  0  0  0  0  0  0  0
    2.3026   -8.6608    0.0000 C   0  0  0  0  0  0  0  0  0  0  0  0
    3.0170   -9.8983    0.0000 O   0  0  0  0  0  0  0  0  0  0  0  0
    8.7329   -8.2483    0.0000 C   0  0  0  0  0  0  0  0  0  0  0  0
    9.4473   -8.6608    0.0000 C   0  0  0  0  0  0  0  0  0  0  0  0
   10.1618   -8.2483    0.0000 C   0  0  0  0  0  0  0  0  0  0  0  0
   10.8762   -8.6608    0.0000 C   0  0  0  0  0  0  0  0  0  0  0  0
   11.5907   -8.2483    0.0000 C   0  0  0  0  0  0  0  0  0  0  0  0
   12.3051   -8.6608    0.0000 C   0  0  0  0  0  0  0  0  0  0  0  0
   13.0196   -8.2483    0.0000 C   0  0  0  0  0  0  0  0  0  0  0  0
   13.7340   -8.6608    0.0000 C   0  0  0  0  0  0  0  0  0  0  0  0
   14.4485   -8.2483    0.0000 C   0  0  0  0  0  0  0  0  0  0  0  0
   15.1629   -8.6608    0.0000 C   0  0  0  0  0  0  0  0  0  0  0  0
   15.8777   -8.2483    0.0000 C   0  0  0  0  0  0  0  0  0  0  0  0
   16.5921   -8.6608    0.0000 C   0  0  0  0  0  0  0  0  0  0  0  0
   17.3066   -8.2483    0.0000 C   0  0  0  0  0  0  0  0  0  0  0  0
   18.0210   -8.6608    0.0000 C   0  0  0  0  0  0  0  0  0  0  0  0
   18.7355   -8.2483    0.0000 C   0  0  0  0  0  0  0  0  0  0  0  0
   19.4499   -8.6608    0.0000 C   0  0  0  0  0  0  0  0  0  0  0  0
  1  2  1  0  0  0  0
  2  3  2  0  0  0  0
  1  4  2  0  0  0  0
  1  5  1  0  0  0  0
  6  7  1  0  0  0  0
  7  8  2  0  0  0  0
  8  9  1  0  0  0  0
  9 10  2  0  0  0  0
 10 11  1  0  0  0  0
  6 11  2  0  0  0  0
 12 13  1  0  0  0  0
  8 12  1  0  0  0  0
  9 14  1  0  0  0  0
  3  6  1  0  0  0  0
 15 16  1  0  0  0  0
 16 17  1  0  0  0  0
 17 18  1  0  0  0  0
 18 19  1  0  0  0  0
 19 20  1  0  0  0  0
 20 21  1  0  0  0  0
 21 22  1  0  0  0  0
 22 23  1  0  0  0  0
 23 24  1  0  0  0  0
 24 25  1  0  0  0  0
 25 26  1  0  0  0  0
 26 27  1  0  0  0  0
 27 28  1  0  0  0  0
 28 29  1  0  0  0  0
 29 30  1  0  0  0  0
  5 15  1  0  0  0  0
M  END
>  <cdx:fragmentId>
492

$$$$
