37747.cdx
  Mrv1902 05222410232D          

 33 36  0  0  0  0            999 V2000
    7.0680   -5.5000    0.0000 C   0  0  0  0  0  0  0  0  0  0  0  0
    7.0680   -6.3250    0.0000 C   0  0  0  0  0  0  0  0  0  0  0  0
    7.7825   -6.7375    0.0000 C   0  0  0  0  0  0  0  0  0  0  0  0
    8.4969   -6.3250    0.0000 C   0  0  0  0  0  0  0  0  0  0  0  0
    8.4969   -5.5000    0.0000 C   0  0  0  0  0  0  0  0  0  0  0  0
    7.7825   -5.0875    0.0000 C   0  0  0  0  0  0  0  0  0  0  0  0
    7.7825   -4.2625    0.0000 C   0  0  0  0  0  0  0  0  0  0  0  0
    8.4969   -3.8500    0.0000 C   0  0  0  0  0  0  0  0  0  0  0  0
    9.2114   -4.2625    0.0000 C   0  0  0  0  0  0  0  0  0  0  0  0
    9.9258   -3.8500    0.0000 C   0  0  0  0  0  0  0  0  0  0  0  0
    9.9258   -3.0250    0.0000 C   0  0  0  0  0  0  0  0  0  0  0  0
    9.2114   -2.6125    0.0000 C   0  0  0  0  0  0  0  0  0  0  0  0
    8.4969   -3.0250    0.0000 C   0  0  0  0  0  0  0  0  0  0  0  0
   10.6403   -2.6125    0.0000 O   0  0  0  0  0  0  0  0  0  0  0  0
    9.2114   -5.0875    0.0000 O   0  0  0  0  0  0  0  0  0  0  0  0
    7.7825   -7.5625    0.0000 O   0  0  0  0  0  0  0  0  0  0  0  0
    8.4969   -7.9750    0.0000 C   0  0  0  0  0  0  0  0  0  0  0  0
    6.3536   -6.7375    0.0000 C   0  0  0  0  0  0  0  0  0  0  0  0
    6.3536   -7.5625    0.0000 C   0  0  0  0  0  0  0  0  0  0  0  0
    5.6391   -7.9750    0.0000 C   0  0  0  0  0  0  0  0  0  0  0  0
    5.6391   -8.8000    0.0000 C   0  0  0  0  0  0  0  0  0  0  0  0
    6.3536   -9.2125    0.0000 C   0  0  0  0  0  0  0  0  0  0  0  0
    7.0680   -8.8000    0.0000 C   0  0  0  0  0  0  0  0  0  0  0  0
    7.0680   -7.9750    0.0000 C   0  0  0  0  0  0  0  0  0  0  0  0
    6.3536  -10.0375    0.0000 O   0  0  0  0  0  0  0  0  0  0  0  0
    6.3536   -5.0875    0.0000 C   0  0  0  0  0  0  0  0  0  0  0  0
    5.6391   -5.5000    0.0000 C   0  0  0  0  0  0  0  0  0  0  0  0
    4.9247   -5.0875    0.0000 C   0  0  0  0  0  0  0  0  0  0  0  0
    4.9247   -4.2625    0.0000 C   0  0  0  0  0  0  0  0  0  0  0  0
    4.2102   -3.8500    0.0000 C   0  0  0  0  0  0  0  0  0  0  0  0
    3.4958   -4.2625    0.0000 C   0  0  0  0  0  0  0  0  0  0  0  0
    3.4958   -5.0875    0.0000 C   0  0  0  0  0  0  0  0  0  0  0  0
    4.2102   -5.5000    0.0000 C   0  0  0  0  0  0  0  0  0  0  0  0
  1  2  2  0  0  0  0
  2  3  1  0  0  0  0
  3  4  2  0  0  0  0
  4  5  1  0  0  0  0
  5  6  2  0  0  0  0
  6  1  1  0  0  0  0
  6  7  1  0  0  0  0
  7  8  1  0  0  0  0
  8  9  2  0  0  0  0
  9 10  1  0  0  0  0
 10 11  2  0  0  0  0
 11 12  1  0  0  0  0
 12 13  2  0  0  0  0
 13  8  1  0  0  0  0
 11 14  1  0  0  0  0
  5 15  1  0  0  0  0
  3 16  1  0  0  0  0
 16 17  1  0  0  0  0
  2 18  1  0  0  0  0
 18 19  1  0  0  0  0
 19 20  2  0  0  0  0
 20 21  1  0  0  0  0
 21 22  2  0  0  0  0
 22 23  1  0  0  0  0
 23 24  2  0  0  0  0
 24 19  1  0  0  0  0
 22 25  1  0  0  0  0
  1 26  1  0  0  0  0
 26 27  1  0  0  0  0
 27 28  1  0  0  0  0
 28 29  2  0  0  0  0
 29 30  1  0  0  0  0
 30 31  2  0  0  0  0
 31 32  1  0  0  0  0
 32 33  2  0  0  0  0
 33 28  1  0  0  0  0
M  END
>  <cdx:fragmentId>
182

$$$$
