37746.cdx
  Mrv1902 05222410252D          

 33 36  0  0  0  0            999 V2000
    7.6175   -6.1875    0.0000 C   0  0  0  0  0  0  0  0  0  0  0  0
    6.9030   -6.6000    0.0000 C   0  0  0  0  0  0  0  0  0  0  0  0
    6.9030   -7.4250    0.0000 C   0  0  0  0  0  0  0  0  0  0  0  0
    7.6175   -7.8375    0.0000 C   0  0  0  0  0  0  0  0  0  0  0  0
    8.3320   -7.4250    0.0000 C   0  0  0  0  0  0  0  0  0  0  0  0
    8.3320   -6.6000    0.0000 C   0  0  0  0  0  0  0  0  0  0  0  0
    9.0464   -7.8375    0.0000 C   0  0  0  0  0  0  0  0  0  0  0  0
    9.7609   -7.4250    0.0000 C   0  0  0  0  0  0  0  0  0  0  0  0
    9.7609   -6.6000    0.0000 C   0  0  0  0  0  0  0  0  0  0  0  0
    9.0464   -6.1875    0.0000 O   0  0  0  0  0  0  0  0  0  0  0  0
   10.4754   -7.8375    0.0000 C   0  0  0  0  0  0  0  0  0  0  0  0
   10.4754   -8.6625    0.0000 C   0  0  0  0  0  0  0  0  0  0  0  0
   11.1899   -9.0750    0.0000 C   0  0  0  0  0  0  0  0  0  0  0  0
   11.9043   -8.6625    0.0000 C   0  0  0  0  0  0  0  0  0  0  0  0
   11.9043   -7.8375    0.0000 C   0  0  0  0  0  0  0  0  0  0  0  0
   11.1899   -7.4250    0.0000 C   0  0  0  0  0  0  0  0  0  0  0  0
   11.1899   -6.6000    0.0000 O   0  0  0  0  0  0  0  0  0  0  0  0
   12.6188   -7.4250    0.0000 O   0  0  0  0  0  0  0  0  0  0  0  0
   12.6188   -9.0750    0.0000 O   0  0  0  0  0  0  0  0  0  0  0  0
   12.6188   -9.9000    0.0000 C   0  0  0  0  0  0  0  0  0  0  0  0
    6.1886   -6.1875    0.0000 O   0  0  0  0  0  0  0  0  0  0  0  0
    5.4742   -6.5935    0.0000 C   0  0  2  0  0  0  0  0  0  0  0  0
    4.7597   -6.1810    0.0000 O   0  0  0  0  0  0  0  0  0  0  0  0
    4.0452   -6.5935    0.0000 C   0  0  1  0  0  0  0  0  0  0  0  0
    4.0452   -7.4185    0.0000 C   0  0  2  0  0  0  0  0  0  0  0  0
    4.7597   -7.8310    0.0000 C   0  0  1  0  0  0  0  0  0  0  0  0
    5.4742   -7.4185    0.0000 C   0  0  1  0  0  0  0  0  0  0  0  0
    4.7597   -8.6560    0.0000 O   0  0  0  0  0  0  0  0  0  0  0  0
   13.3333   -7.8375    0.0000 C   0  0  0  0  0  0  0  0  0  0  0  0
    3.3308   -6.1810    0.0000 C   0  0  0  0  0  0  0  0  0  0  0  0
    3.3308   -7.8310    0.0000 O   0  0  0  0  0  0  0  0  0  0  0  0
    6.1886   -7.8310    0.0000 O   0  0  0  0  0  0  0  0  0  0  0  0
    2.6163   -6.5935    0.0000 O   0  0  0  0  0  0  0  0  0  0  0  0
  1  2  2  0  0  0  0
  2  3  1  0  0  0  0
  3  4  2  0  0  0  0
  4  5  1  0  0  0  0
  5  6  2  0  0  0  0
  6  1  1  0  0  0  0
  5  7  1  0  0  0  0
  7  8  1  0  0  0  0
  8  9  1  0  0  0  0
  9 10  1  0  0  0  0
 10  6  1  0  0  0  0
  8 11  1  0  0  0  0
 11 12  2  0  0  0  0
 12 13  1  0  0  0  0
 13 14  2  0  0  0  0
 14 15  1  0  0  0  0
 15 16  2  0  0  0  0
 16 11  1  0  0  0  0
 16 17  1  0  0  0  0
 15 18  1  0  0  0  0
 14 19  1  0  0  0  0
 19 20  1  0  0  0  0
  2 21  1  0  0  0  0
 22 23  1  0  0  0  0
 23 24  1  0  0  0  0
 24 25  1  0  0  0  0
 25 26  1  0  0  0  0
 26 27  1  0  0  0  0
 27 22  1  0  0  0  0
 26 28  1  1  0  0  0
 18 29  1  0  0  0  0
 24 30  1  1  0  0  0
 25 31  1  6  0  0  0
 27 32  1  6  0  0  0
 30 33  1  0  0  0  0
 22 21  1  1  0  0  0
M  END
>  <cdx:fragmentId>
866

$$$$
