37745.cdx
  Mrv1902 05222410242D          

 19 21  0  0  0  0            999 V2000
    6.7823   -9.8967    0.0000 C   0  0  0  0  0  0  0  0  0  0  0  0
    7.6073   -9.8967    0.0000 O   0  0  0  0  0  0  0  0  0  0  0  0
    4.3070   -8.4681    0.0000 O   0  0  0  0  0  0  0  0  0  0  0  0
   10.0820   -8.4675    0.0000 O   0  0  0  0  0  0  0  0  0  0  0  0
    8.0195   -7.7533    0.0000 C   0  0  0  0  0  0  0  0  0  0  0  0
    7.6070   -7.0389    0.0000 C   0  0  0  0  0  0  0  0  0  0  0  0
    6.7820   -7.0389    0.0000 C   0  0  0  0  0  0  0  0  0  0  0  0
    6.3695   -7.7533    0.0000 C   0  0  0  0  0  0  0  0  0  0  0  0
    5.5445   -7.7533    0.0000 C   0  0  0  0  0  0  0  0  0  0  0  0
    5.1320   -8.4681    0.0000 C   0  0  0  0  0  0  0  0  0  0  0  0
    5.5448   -9.1825    0.0000 C   0  0  0  0  0  0  0  0  0  0  0  0
    6.3698   -9.1822    0.0000 C   0  0  0  0  0  0  0  0  0  0  0  0
    6.7820   -8.4678    0.0000 C   0  0  0  0  0  0  0  0  0  0  0  0
    7.6070   -8.4678    0.0000 C   0  0  0  0  0  0  0  0  0  0  0  0
    8.0198   -9.1822    0.0000 C   0  0  0  0  0  0  0  0  0  0  0  0
    8.8448   -9.1822    0.0000 C   0  0  0  0  0  0  0  0  0  0  0  0
    9.2570   -8.4678    0.0000 C   0  0  0  0  0  0  0  0  0  0  0  0
    8.8445   -7.7533    0.0000 C   0  0  0  0  0  0  0  0  0  0  0  0
    3.8945   -9.1825    0.0000 C   0  0  0  0  0  0  0  0  0  0  0  0
 15  2  1  0  0  0  0
  2  1  1  0  0  0  0
 10  3  1  0  0  0  0
 17  4  1  0  0  0  0
 14  5  2  0  0  0  0
 18  5  1  0  0  0  0
  6  5  1  0  0  0  0
  7  6  2  0  0  0  0
  8  7  1  0  0  0  0
 13  8  2  0  0  0  0
  9  8  1  0  0  0  0
 10  9  2  0  0  0  0
 11 10  1  0  0  0  0
 12 11  2  0  0  0  0
 13 12  1  0  0  0  0
 14 13  1  0  0  0  0
 15 14  1  0  0  0  0
 16 15  2  0  0  0  0
 17 16  1  0  0  0  0
 18 17  2  0  0  0  0
  3 19  1  0  0  0  0
M  END
>  <cdx:fragmentId>
5

$$$$
