240.cdx
  Mrv1902 05222410242D          

 12 12  0  0  0  0            999 V2000
    5.0605   -3.6713    0.0000 C   0  0  0  0  0  0  0  0  0  0  0  0
    5.0605   -4.4962    0.0000 C   0  0  0  0  0  0  0  0  0  0  0  0
    5.7750   -4.9088    0.0000 C   0  0  0  0  0  0  0  0  0  0  0  0
    6.4895   -4.4962    0.0000 C   0  0  0  0  0  0  0  0  0  0  0  0
    6.4895   -3.6713    0.0000 C   0  0  0  0  0  0  0  0  0  0  0  0
    5.7750   -3.2588    0.0000 C   0  0  0  0  0  0  0  0  0  0  0  0
    5.7750   -2.4337    0.0000 C   0  0  0  0  0  0  0  0  0  0  0  0
    5.0605   -2.0213    0.0000 O   0  0  0  0  0  0  0  0  0  0  0  0
    6.4895   -2.0213    0.0000 O   0  0  0  0  0  0  0  0  0  0  0  0
    7.2039   -3.2587    0.0000 O   0  0  0  0  0  0  0  0  0  0  0  0
    5.7750   -5.7338    0.0000 O   0  0  0  0  0  0  0  0  0  0  0  0
    4.3461   -3.2588    0.0000 O   0  0  0  0  0  0  0  0  0  0  0  0
  1  2  2  0  0  0  0
  2  3  1  0  0  0  0
  3  4  2  0  0  0  0
  4  5  1  0  0  0  0
  5  6  2  0  0  0  0
  6  1  1  0  0  0  0
  6  7  1  0  0  0  0
  7  8  1  0  0  0  0
  7  9  2  0  0  0  0
  5 10  1  0  0  0  0
  3 11  1  0  0  0  0
  1 12  1  0  0  0  0
M  END
>  <cdx:fragmentId>
585

$$$$
