37742.cdx
  Mrv1902 05222410262D          

 12 12  0  0  0  0            999 V2000
    8.6851   -6.3127    0.0000 O   0  0  0  0  0  0  0  0  0  0  0  0
    7.9768   -3.4236    0.0000 C   0  0  0  0  0  0  0  0  0  0  0  0
    6.5479   -3.4206    0.0000 O   0  0  0  0  0  0  0  0  0  0  0  0
    7.2614   -3.8346    0.0000 C   0  0  0  0  0  0  0  0  0  0  0  0
    5.8307   -4.6565    0.0000 O   0  0  0  0  0  0  0  0  0  0  0  0
    7.2544   -7.1346    0.0000 O   0  0  0  0  0  0  0  0  0  0  0  0
    7.9715   -5.8986    0.0000 C   0  0  0  0  0  0  0  0  0  0  0  0
    7.9732   -5.0736    0.0000 C   0  0  0  0  0  0  0  0  0  0  0  0
    7.2597   -4.6596    0.0000 C   0  0  0  0  0  0  0  0  0  0  0  0
    6.5443   -5.0706    0.0000 C   0  0  0  0  0  0  0  0  0  0  0  0
    6.5425   -5.8956    0.0000 C   0  0  0  0  0  0  0  0  0  0  0  0
    7.2561   -6.3096    0.0000 C   0  0  0  0  0  0  0  0  0  0  0  0
  7  1  1  0  0  0  0
  4  2  1  0  0  0  0
  4  3  2  0  0  0  0
  9  4  1  0  0  0  0
 10  5  1  0  0  0  0
 12  6  1  0  0  0  0
  7 12  1  0  0  0  0
  8  7  2  0  0  0  0
  9  8  1  0  0  0  0
 10  9  2  0  0  0  0
 11 10  1  0  0  0  0
 12 11  2  0  0  0  0
M  END
>  <cdx:fragmentId>
5

$$$$
