37746.cdx
  Mrv1902 05222410232D          

 25 27  0  0  0  0            999 V2000
    8.0270   -4.4297    0.0000 C   0  0  0  0  0  0  0  0  0  0  0  0
    7.6175   -5.1458    0.0000 C   0  0  0  0  0  0  0  0  0  0  0  0
    8.0330   -5.8586    0.0000 C   0  0  0  0  0  0  0  0  0  0  0  0
    8.8580   -5.8553    0.0000 C   0  0  0  0  0  0  0  0  0  0  0  0
    9.2675   -5.1392    0.0000 C   0  0  0  0  0  0  0  0  0  0  0  0
    8.8520   -4.4264    0.0000 C   0  0  0  0  0  0  0  0  0  0  0  0
    6.7925   -5.1491    0.0000 C   0  0  0  0  0  0  0  0  0  0  0  0
    6.3770   -4.4366    0.0000 C   0  0  0  0  0  0  0  0  0  0  0  0
    5.5520   -4.4399    0.0000 C   0  0  0  0  0  0  0  0  0  0  0  0
    5.1353   -3.7279    0.0000 C   0  0  0  0  0  0  0  0  0  0  0  0
    4.3103   -3.7279    0.0000 C   0  0  0  0  0  0  0  0  0  0  0  0
    3.9022   -4.4399    0.0000 C   0  0  0  0  0  0  0  0  0  0  0  0
    4.3103   -5.1518    0.0000 C   0  0  0  0  0  0  0  0  0  0  0  0
    5.1353   -5.1518    0.0000 C   0  0  0  0  0  0  0  0  0  0  0  0
    9.2733   -6.5681    0.0000 O   0  0  0  0  0  0  0  0  0  0  0  0
    7.6233   -6.5747    0.0000 C   0  0  0  0  0  0  0  0  0  0  0  0
    8.0388   -7.2875    0.0000 C   0  0  0  0  0  0  0  0  0  0  0  0
    7.6321   -8.0055    0.0000 C   0  0  0  0  0  0  0  0  0  0  0  0
    8.0388   -8.7164    0.0000 C   0  0  0  0  0  0  0  0  0  0  0  0
    8.8638   -8.7164    0.0000 C   0  0  0  0  0  0  0  0  0  0  0  0
    9.2702   -8.0055    0.0000 C   0  0  0  0  0  0  0  0  0  0  0  0
    8.8638   -7.2875    0.0000 C   0  0  0  0  0  0  0  0  0  0  0  0
    9.2777   -9.4300    0.0000 O   0  0  0  0  0  0  0  0  0  0  0  0
    9.2617   -3.7103    0.0000 O   0  0  0  0  0  0  0  0  0  0  0  0
   10.0867   -3.7103    0.0000 C   0  0  0  0  0  0  0  0  0  0  0  0
  1  2  2  0  0  0  0
  2  3  1  0  0  0  0
  3  4  2  0  0  0  0
  4  5  1  0  0  0  0
  5  6  2  0  0  0  0
  6  1  1  0  0  0  0
  2  7  1  0  0  0  0
  7  8  1  0  0  0  0
  8  9  1  0  0  0  0
  9 10  2  0  0  0  0
 10 11  1  0  0  0  0
 11 12  2  0  0  0  0
 12 13  1  0  0  0  0
 13 14  2  0  0  0  0
 14  9  1  0  0  0  0
  4 15  1  0  0  0  0
  3 16  1  0  0  0  0
 16 17  1  0  0  0  0
 17 18  2  0  0  0  0
 18 19  1  0  0  0  0
 19 20  2  0  0  0  0
 20 21  1  0  0  0  0
 21 22  2  0  0  0  0
 22 17  1  0  0  0  0
 20 23  1  0  0  0  0
  6 24  1  0  0  0  0
 24 25  1  0  0  0  0
M  END
>  <cdx:fragmentId>
88

$$$$
