37759.cdx
  Mrv1902 05222410212D          

 59 65  0  0  0  0            999 V2000
    6.2224   -9.3294    0.0000 C   0  0  0  0  0  0  0  0  0  0  0  0
    6.2224  -10.1544    0.0000 C   0  0  0  0  0  0  0  0  0  0  0  0
    6.9369  -10.5669    0.0000 C   0  0  1  0  0  0  0  0  0  0  0  0
    7.6513  -10.1544    0.0000 C   0  0  0  0  0  0  0  0  0  0  0  0
    7.6513   -9.3294    0.0000 C   0  0  1  0  0  0  0  0  0  0  0  0
    6.9369   -8.9169    0.0000 C   0  0  0  0  0  0  0  0  0  0  0  0
    8.3658  -10.5669    0.0000 C   0  0  0  0  0  0  0  0  0  0  0  0
    9.0803  -10.1544    0.0000 C   0  0  0  0  0  0  0  0  0  0  0  0
    9.0803   -9.3294    0.0000 C   0  0  2  0  0  0  0  0  0  0  0  0
    8.3658   -8.9169    0.0000 C   0  0  1  0  0  0  0  0  0  0  0  0
    9.7948   -8.9169    0.0000 C   0  0  1  0  0  0  0  0  0  0  0  0
    9.7948   -8.0919    0.0000 C   0  0  2  0  0  0  0  0  0  0  0  0
    9.0803   -7.6794    0.0000 C   0  0  0  0  0  0  0  0  0  0  0  0
    8.3658   -8.0919    0.0000 C   0  0  0  0  0  0  0  0  0  0  0  0
   10.5794   -9.1718    0.0000 C   0  0  0  0  0  0  0  0  0  0  0  0
   11.0643   -8.5044    0.0000 C   0  0  2  0  0  0  0  0  0  0  0  0
   10.5794   -7.8369    0.0000 C   0  0  2  0  0  0  0  0  0  0  0  0
    9.7948   -7.2669    0.0000 C   0  0  0  0  0  0  0  0  0  0  0  0
   10.9919   -7.1225    0.0000 C   0  0  1  0  0  0  0  0  0  0  0  0
   10.2774   -6.7100    0.0000 O   0  0  0  0  0  0  0  0  0  0  0  0
    8.3658   -9.7419    0.0000 C   0  0  0  0  0  0  0  0  0  0  0  0
    5.5079  -10.5669    0.0000 O   0  0  0  0  0  0  0  0  0  0  0  0
    5.5079   -8.9169    0.0000 O   0  0  0  0  0  0  0  0  0  0  0  0
    7.6513   -7.6794    0.0000 O   0  0  0  0  0  0  0  0  0  0  0  0
    7.6449   -8.4912    0.0000 H   0  0  0  0  0  0  0  0  0  0  0  0
    9.7948   -9.7419    0.0000 C   0  0  0  0  0  0  0  0  0  0  0  0
   11.8169   -7.1225    0.0000 C   0  0  0  0  0  0  0  0  0  0  0  0
   12.2294   -7.8369    0.0000 C   0  0  1  0  0  0  0  0  0  0  0  0
   11.8893   -8.5044    0.0000 O   0  0  0  0  0  0  0  0  0  0  0  0
   13.0544   -7.8369    0.0000 C   0  0  0  0  0  0  0  0  0  0  0  0
   13.6377   -8.4203    0.0000 C   0  0  0  0  0  0  0  0  0  0  0  0
   14.4346   -8.2068    0.0000 C   0  0  0  0  0  0  0  0  0  0  0  0
   13.4242   -9.2172    0.0000 C   0  0  0  0  0  0  0  0  0  0  0  0
   10.9919   -6.2975    0.0000 C   0  0  0  0  0  0  0  0  0  0  0  0
    9.0803   -8.5044    0.0000 H   0  0  0  0  0  0  0  0  0  0  0  0
    7.3494  -11.2813    0.0000 C   0  0  0  0  0  0  0  0  0  0  0  0
    6.5244  -11.2813    0.0000 C   0  0  0  0  0  0  0  0  0  0  0  0
    6.2194   -6.8563    0.0000 C   0  0  2  0  0  0  0  0  0  0  0  0
    5.5051   -6.4435    0.0000 C   0  0  2  0  0  0  0  0  0  0  0  0
    4.7904   -6.8558    0.0000 C   0  0  1  0  0  0  0  0  0  0  0  0
    4.7901   -7.6808    0.0000 C   0  0  2  0  0  0  0  0  0  0  0  0
    5.5044   -8.0935    0.0000 C   0  0  1  0  0  0  0  0  0  0  0  0
    6.2191   -7.6813    0.0000 O   0  0  0  0  0  0  0  0  0  0  0  0
    6.9340   -6.4441    0.0000 C   0  0  0  0  0  0  0  0  0  0  0  0
    4.0761   -6.4430    0.0000 O   0  0  0  0  0  0  0  0  0  0  0  0
    5.5054   -5.6185    0.0000 O   0  0  0  0  0  0  0  0  0  0  0  0
    4.0755   -8.0930    0.0000 O   0  0  0  0  0  0  0  0  0  0  0  0
    6.9343   -5.6191    0.0000 O   0  0  0  0  0  0  0  0  0  0  0  0
    3.3612   -7.6802    0.0000 C   0  0  2  0  0  0  0  0  0  0  0  0
    3.3615   -6.8552    0.0000 O   0  0  0  0  0  0  0  0  0  0  0  0
    2.6472   -6.4424    0.0000 C   0  0  2  0  0  0  0  0  0  0  0  0
    1.9326   -6.8546    0.0000 C   0  0  1  0  0  0  0  0  0  0  0  0
    1.9322   -7.6796    0.0000 C   0  0  2  0  0  0  0  0  0  0  0  0
    2.6465   -8.0924    0.0000 C   0  0  1  0  0  0  0  0  0  0  0  0
    2.6462   -8.9174    0.0000 O   0  0  0  0  0  0  0  0  0  0  0  0
    1.2176   -8.0918    0.0000 O   0  0  0  0  0  0  0  0  0  0  0  0
    2.6475   -5.6174    0.0000 C   0  0  0  0  0  0  0  0  0  0  0  0
    1.2183   -6.4418    0.0000 O   0  0  0  0  0  0  0  0  0  0  0  0
   11.3763   -7.6234    0.0000 H   0  0  0  0  0  0  0  0  0  0  0  0
  1  2  1  0  0  0  0
  2  3  1  0  0  0  0
  3  4  1  0  0  0  0
  4  5  1  0  0  0  0
  5  6  1  0  0  0  0
  6  1  2  0  0  0  0
  4  7  2  0  0  0  0
  7  8  1  0  0  0  0
  8  9  1  0  0  0  0
  9 10  1  0  0  0  0
 10  5  1  0  0  0  0
  9 11  1  0  0  0  0
 11 12  1  0  0  0  0
 12 13  1  0  0  0  0
 13 14  1  0  0  0  0
 14 10  1  0  0  0  0
 11 15  1  0  0  0  0
 15 16  1  0  0  0  0
 16 17  1  0  0  0  0
 17 12  1  0  0  0  0
 12 18  1  1  0  0  0
 17 19  1  0  0  0  0
 19 20  1  1  0  0  0
 10 21  1  1  0  0  0
  2 22  2  0  0  0  0
  1 23  1  0  0  0  0
 14 24  2  0  0  0  0
  5 25  1  6  0  0  0
 11 26  1  6  0  0  0
 19 27  1  0  0  0  0
 27 28  1  0  0  0  0
 16 29  1  6  0  0  0
 28 29  1  6  0  0  0
 28 30  1  0  0  0  0
 30 31  2  0  0  0  0
 31 32  1  0  0  0  0
 31 33  1  0  0  0  0
 19 34  1  6  0  0  0
  9 35  1  1  0  0  0
  3 36  1  1  0  0  0
  3 37  1  6  0  0  0
 38 39  1  0  0  0  0
 39 40  1  0  0  0  0
 40 41  1  0  0  0  0
 41 42  1  0  0  0  0
 42 43  1  0  0  0  0
 43 38  1  0  0  0  0
 38 44  1  1  0  0  0
 40 45  1  1  0  0  0
 39 46  1  6  0  0  0
 41 47  1  6  0  0  0
 44 48  1  0  0  0  0
 49 47  1  1  0  0  0
 49 50  1  0  0  0  0
 50 51  1  0  0  0  0
 51 52  1  0  0  0  0
 52 53  1  0  0  0  0
 53 54  1  0  0  0  0
 54 49  1  0  0  0  0
 54 55  1  6  0  0  0
 53 56  1  6  0  0  0
 51 57  1  6  0  0  0
 52 58  1  1  0  0  0
 42 23  1  1  0  0  0
 17 59  1  6  0  0  0
M  END
>  <cdx:fragmentId>
5

$$$$
