37755.cdx
  Mrv1902 05222410252D          

 39 42  0  0  0  0            999 V2000
    3.5868  -10.0776    0.0000 C   0  0  0  0  0  0  0  0  0  0  0  0
    3.5868  -10.9026    0.0000 C   0  0  1  0  0  0  0  0  0  0  0  0
    4.3013  -11.3151    0.0000 C   0  0  0  0  0  0  0  0  0  0  0  0
    5.0157  -10.9026    0.0000 C   0  0  0  0  0  0  0  0  0  0  0  0
    5.0157  -10.0776    0.0000 C   0  0  2  0  0  0  0  0  0  0  0  0
    4.3013   -9.6651    0.0000 C   0  0  0  0  0  0  0  0  0  0  0  0
    5.7302  -11.3151    0.0000 C   0  0  0  0  0  0  0  0  0  0  0  0
    6.4447  -10.9026    0.0000 C   0  0  0  0  0  0  0  0  0  0  0  0
    6.4447  -10.0776    0.0000 C   0  0  2  0  0  0  0  0  0  0  0  0
    5.7302   -9.6651    0.0000 C   0  0  2  0  0  0  0  0  0  0  0  0
    7.1592   -9.6651    0.0000 C   0  0  1  0  0  0  0  0  0  0  0  0
    7.1592   -8.8401    0.0000 C   0  0  2  0  0  0  0  0  0  0  0  0
    6.4447   -8.4276    0.0000 C   0  0  0  0  0  0  0  0  0  0  0  0
    5.7302   -8.8401    0.0000 C   0  0  0  0  0  0  0  0  0  0  0  0
    7.9438   -9.9201    0.0000 C   0  0  0  0  0  0  0  0  0  0  0  0
    8.4287   -9.2526    0.0000 C   0  0  0  0  0  0  0  0  0  0  0  0
    7.9438   -8.5852    0.0000 C   0  0  2  0  0  0  0  0  0  0  0  0
    8.1987   -7.8006    0.0000 C   0  0  2  0  0  0  0  0  0  0  0  0
    7.6467   -7.1875    0.0000 C   0  0  0  0  0  0  0  0  0  0  0  0
    9.0057   -7.6291    0.0000 C   0  0  0  0  0  0  0  0  0  0  0  0
    9.2606   -6.8444    0.0000 C   0  0  0  0  0  0  0  0  0  0  0  0
   10.0676   -6.6729    0.0000 C   0  0  1  0  0  0  0  0  0  0  0  0
   10.6196   -7.2860    0.0000 C   0  0  0  0  0  0  0  0  0  0  0  0
   10.3225   -5.8883    0.0000 C   0  0  0  0  0  0  0  0  0  0  0  0
    9.7705   -5.2752    0.0000 C   0  0  0  0  0  0  0  0  0  0  0  0
   11.1295   -5.7168    0.0000 C   0  0  0  0  0  0  0  0  0  0  0  0
    2.8723  -11.3151    0.0000 O   0  0  0  0  0  0  0  0  0  0  0  0
    5.0157   -9.2526    0.0000 C   0  0  0  0  0  0  0  0  0  0  0  0
    6.4447   -9.2526    0.0000 H   0  0  0  0  0  0  0  0  0  0  0  0
    7.1592   -8.0151    0.0000 C   0  0  0  0  0  0  0  0  0  0  0  0
    5.7302  -10.4901    0.0000 H   0  0  0  0  0  0  0  0  0  0  0  0
    7.1592  -10.4901    0.0000 H   0  0  0  0  0  0  0  0  0  0  0  0
    8.7586   -8.4562    0.0000 H   0  0  0  0  0  0  0  0  0  0  0  0
   11.4165   -7.0725    0.0000 C   0  0  0  0  0  0  0  0  0  0  0  0
    9.5577   -8.2422    0.0000 Br  0  0  0  0  0  0  0  0  0  0  0  0
    8.7086   -6.2313    0.0000 Br  0  0  0  0  0  0  0  0  0  0  0  0
    2.1579  -10.9026    0.0000 C   0  0  0  0  0  0  0  0  0  0  0  0
    1.4434  -11.3151    0.0000 C   0  0  0  0  0  0  0  0  0  0  0  0
    2.1579  -10.0776    0.0000 O   0  0  0  0  0  0  0  0  0  0  0  0
  1  2  1  0  0  0  0
  2  3  1  0  0  0  0
  3  4  1  0  0  0  0
  4  5  1  0  0  0  0
  5  6  1  0  0  0  0
  6  1  1  0  0  0  0
  4  7  2  0  0  0  0
  7  8  1  0  0  0  0
  8  9  1  0  0  0  0
  9 10  1  0  0  0  0
 10  5  1  0  0  0  0
  9 11  1  0  0  0  0
 11 12  1  0  0  0  0
 12 13  1  0  0  0  0
 13 14  1  0  0  0  0
 14 10  1  0  0  0  0
 11 15  1  0  0  0  0
 15 16  1  0  0  0  0
 16 17  1  0  0  0  0
 17 12  1  0  0  0  0
 17 18  1  0  0  0  0
 18 19  1  6  0  0  0
 18 20  1  0  0  0  0
 20 21  1  0  0  0  0
 21 22  1  0  0  0  0
 22 23  1  6  0  0  0
 22 24  1  0  0  0  0
 24 25  1  0  0  0  0
 24 26  1  0  0  0  0
  2 27  1  1  0  0  0
  5 28  1  1  0  0  0
  9 29  1  1  0  0  0
 12 30  1  1  0  0  0
 10 31  1  6  0  0  0
 11 32  1  6  0  0  0
 17 33  1  6  0  0  0
 23 34  1  0  0  0  0
 20 35  1  0  0  0  0
 21 36  1  0  0  0  0
 27 37  1  0  0  0  0
 37 38  1  0  0  0  0
 37 39  2  0  0  0  0
M  END
>  <cdx:fragmentId>
5

$$$$
