37761.cdx
  Mrv1902 05222410222D          

 42 47  0  0  0  0            999 V2000
    6.2730   -7.2483    0.0000 C   0  0  2  0  0  0  0  0  0  0  0  0
    6.2730   -6.4233    0.0000 C   0  0  0  0  0  0  0  0  0  0  0  0
    6.9875   -6.0108    0.0000 C   0  0  0  0  0  0  0  0  0  0  0  0
    7.7020   -6.4233    0.0000 C   0  0  2  0  0  0  0  0  0  0  0  0
    8.4866   -6.1684    0.0000 C   0  0  2  0  0  0  0  0  0  0  0  0
    8.9715   -6.8358    0.0000 C   0  0  2  0  0  0  0  0  0  0  0  0
    8.4866   -7.5033    0.0000 C   0  0  1  0  0  0  0  0  0  0  0  0
    7.7020   -7.2483    0.0000 C   0  0  1  0  0  0  0  0  0  0  0  0
    6.9875   -7.6608    0.0000 C   0  0  0  0  0  0  0  0  0  0  0  0
    6.9875   -8.4858    0.0000 C   0  0  0  0  0  0  0  0  0  0  0  0
    6.2730   -8.8983    0.0000 C   0  0  0  0  0  0  0  0  0  0  0  0
    5.5586   -8.4858    0.0000 C   0  0  1  0  0  0  0  0  0  0  0  0
    4.8441   -8.8983    0.0000 C   0  0  1  0  0  0  0  0  0  0  0  0
    4.1296   -8.4858    0.0000 C   0  0  2  0  0  0  0  0  0  0  0  0
    4.1296   -7.6608    0.0000 C   0  0  0  0  0  0  0  0  0  0  0  0
    4.8441   -7.2483    0.0000 C   0  0  0  0  0  0  0  0  0  0  0  0
    5.5586   -7.6608    0.0000 C   0  0  2  0  0  0  0  0  0  0  0  0
    5.5586   -6.8358    0.0000 C   0  0  0  0  0  0  0  0  0  0  0  0
    3.4151   -8.8983    0.0000 O   0  0  0  0  0  0  0  0  0  0  0  0
    5.2566   -9.6128    0.0000 C   0  0  0  0  0  0  0  0  0  0  0  0
    4.4316   -9.6128    0.0000 C   0  0  0  0  0  0  0  0  0  0  0  0
    7.7020   -8.0733    0.0000 C   0  0  0  0  0  0  0  0  0  0  0  0
    7.7020   -5.5983    0.0000 C   0  0  0  0  0  0  0  0  0  0  0  0
    8.0741   -5.4539    0.0000 H   0  0  0  0  0  0  0  0  0  0  0  0
    5.5586   -9.3108    0.0000 H   0  0  0  0  0  0  0  0  0  0  0  0
    9.3500   -6.1050    0.0000 O   0  0  0  0  0  0  0  0  0  0  0  0
   10.1276   -5.9959    0.0000 C   0  0  2  0  0  0  0  0  0  0  0  0
    9.6426   -5.3285    0.0000 C   0  0  0  0  0  0  0  0  0  0  0  0
    8.8222   -5.4147    0.0000 C   0  0  1  0  0  0  0  0  0  0  0  0
   10.9480   -5.9097    0.0000 C   0  0  2  0  0  0  0  0  0  0  0  0
   11.4330   -6.5771    0.0000 C   0  0  0  0  0  0  0  0  0  0  0  0
   12.1474   -6.1646    0.0000 C   0  0  0  0  0  0  0  0  0  0  0  0
   10.7185   -6.9896    0.0000 C   0  0  0  0  0  0  0  0  0  0  0  0
   11.8455   -7.2916    0.0000 O   0  0  0  0  0  0  0  0  0  0  0  0
   11.2836   -5.1560    0.0000 O   0  0  0  0  0  0  0  0  0  0  0  0
   10.3411   -5.1990    0.0000 H   0  0  0  0  0  0  0  0  0  0  0  0
    8.3372   -4.7473    0.0000 C   0  0  0  0  0  0  0  0  0  0  0  0
    8.7415   -8.2879    0.0000 O   0  0  0  0  0  0  0  0  0  0  0  0
    9.5549   -7.4192    0.0000 O   0  0  0  0  0  0  0  0  0  0  0  0
   10.7987   -4.4886    0.0000 C   0  0  0  0  0  0  0  0  0  0  0  0
   11.1342   -3.7349    0.0000 O   0  0  0  0  0  0  0  0  0  0  0  0
    9.9782   -4.5748    0.0000 C   0  0  0  0  0  0  0  0  0  0  0  0
  1  2  1  0  0  0  0
  2  3  1  0  0  0  0
  3  4  1  0  0  0  0
  4  5  1  0  0  0  0
  6  7  1  0  0  0  0
  7  8  1  0  0  0  0
  8  9  1  0  0  0  0
  9 10  2  0  0  0  0
 10 11  1  0  0  0  0
 11 12  1  0  0  0  0
 12 13  1  0  0  0  0
 13 14  1  0  0  0  0
 14 15  1  0  0  0  0
 15 16  1  0  0  0  0
 16 17  1  0  0  0  0
 17 18  1  1  0  0  0
  1 18  1  1  0  0  0
  1  9  1  0  0  0  0
  1 17  1  0  0  0  0
  4  8  1  0  0  0  0
  5  6  1  0  0  0  0
 12 17  1  0  0  0  0
 14 19  1  1  0  0  0
 13 20  1  0  0  0  0
 13 21  1  1  0  0  0
  8 22  1  6  0  0  0
  4 23  1  1  0  0  0
  5 24  1  6  0  0  0
 12 25  1  6  0  0  0
  6 26  1  0  0  0  0
 26 27  1  0  0  0  0
 27 28  1  0  0  0  0
 28 29  1  0  0  0  0
 29  5  1  0  0  0  0
 27 30  1  0  0  0  0
 30 31  1  0  0  0  0
 31 32  1  0  0  0  0
 31 33  1  0  0  0  0
 31 34  1  0  0  0  0
 30 35  1  1  0  0  0
 27 36  1  1  0  0  0
 29 37  1  6  0  0  0
  7 38  1  6  0  0  0
  6 39  1  6  0  0  0
 35 40  1  0  0  0  0
 40 41  2  0  0  0  0
 40 42  1  0  0  0  0
M  END
>  <cdx:fragmentId>
39

$$$$
