37764.cdx
  Mrv1902 05222410212D          

 39 45  0  0  0  0            999 V2000
    8.5209   -7.5894    0.0000 C   0  0  2  0  0  0  0  0  0  0  0  0
    8.0360   -8.2568    0.0000 C   0  0  1  0  0  0  0  0  0  0  0  0
    7.2514   -8.0019    0.0000 C   0  0  1  0  0  0  0  0  0  0  0  0
    6.5369   -8.4144    0.0000 C   0  0  2  0  0  0  0  0  0  0  0  0
    6.5369   -9.2394    0.0000 C   0  0  0  0  0  0  0  0  0  0  0  0
    5.8224   -9.6519    0.0000 C   0  0  0  0  0  0  0  0  0  0  0  0
    5.1080   -9.2394    0.0000 C   0  0  1  0  0  0  0  0  0  0  0  0
    4.3935   -9.6519    0.0000 C   0  0  1  0  0  0  0  0  0  0  0  0
    3.6790   -9.2394    0.0000 C   0  0  2  0  0  0  0  0  0  0  0  0
    3.6790   -8.4144    0.0000 C   0  0  0  0  0  0  0  0  0  0  0  0
    4.3935   -8.0019    0.0000 C   0  0  0  0  0  0  0  0  0  0  0  0
    5.1080   -8.4144    0.0000 C   0  0  1  0  0  0  0  0  0  0  0  0
    5.1080   -7.5894    0.0000 C   0  0  0  0  0  0  0  0  0  0  0  0
    5.8224   -8.0019    0.0000 C   0  0  1  0  0  0  0  0  0  0  0  0
    5.8224   -7.1769    0.0000 C   0  0  0  0  0  0  0  0  0  0  0  0
    6.5369   -6.7644    0.0000 C   0  0  0  0  0  0  0  0  0  0  0  0
    7.2514   -7.1769    0.0000 C   0  0  2  0  0  0  0  0  0  0  0  0
    8.0360   -6.9220    0.0000 C   0  0  1  0  0  0  0  0  0  0  0  0
    8.2555   -6.1267    0.0000 C   0  0  1  0  0  0  0  0  0  0  0  0
    9.0141   -5.8024    0.0000 C   0  0  0  0  0  0  0  0  0  0  0  0
    9.7406   -6.1934    0.0000 C   0  0  2  0  0  0  0  0  0  0  0  0
    9.8879   -7.0051    0.0000 C   0  0  2  0  0  0  0  0  0  0  0  0
    9.3451   -7.6264    0.0000 O   0  0  0  0  0  0  0  0  0  0  0  0
    8.7288   -6.5389    0.0000 O   0  0  0  0  0  0  0  0  0  0  0  0
    8.2909   -9.0415    0.0000 O   0  0  0  0  0  0  0  0  0  0  0  0
    2.9646   -9.6519    0.0000 O   0  0  0  0  0  0  0  0  0  0  0  0
    7.6342   -5.5839    0.0000 C   0  0  0  0  0  0  0  0  0  0  0  0
    7.2514   -6.3519    0.0000 C   0  0  0  0  0  0  0  0  0  0  0  0
    4.8060  -10.3664    0.0000 C   0  0  0  0  0  0  0  0  0  0  0  0
    3.9810  -10.3664    0.0000 C   0  0  0  0  0  0  0  0  0  0  0  0
    7.2514   -8.8269    0.0000 C   0  0  0  0  0  0  0  0  0  0  0  0
   10.6832   -7.2246    0.0000 C   0  0  0  0  0  0  0  0  0  0  0  0
    5.1080  -10.0644    0.0000 H   0  0  0  0  0  0  0  0  0  0  0  0
    7.5478   -6.2569    0.0000 H   0  0  0  0  0  0  0  0  0  0  0  0
   10.4080   -5.7085    0.0000 H   0  0  0  0  0  0  0  0  0  0  0  0
   10.6024   -6.5926    0.0000 H   0  0  0  0  0  0  0  0  0  0  0  0
   11.2709   -6.6456    0.0000 C   0  0  0  0  0  0  0  0  0  0  0  0
   10.8907   -8.0231    0.0000 C   0  0  0  0  0  0  0  0  0  0  0  0
    6.5369   -7.5894    0.0000 H   0  0  0  0  0  0  0  0  0  0  0  0
  1  2  1  0  0  0  0
  2  3  1  0  0  0  0
  3  4  1  0  0  0  0
  4  5  1  0  0  0  0
  5  6  1  0  0  0  0
  6  7  1  0  0  0  0
  7  8  1  0  0  0  0
  8  9  1  0  0  0  0
  9 10  1  0  0  0  0
 10 11  1  0  0  0  0
 11 12  1  0  0  0  0
 12 13  1  1  0  0  0
 14 13  1  1  0  0  0
 14 15  1  0  0  0  0
 15 16  1  0  0  0  0
 16 17  1  0  0  0  0
 17 18  1  0  0  0  0
 18 19  1  0  0  0  0
 19 20  1  0  0  0  0
 20 21  1  0  0  0  0
 21 22  1  0  0  0  0
 22 23  1  0  0  0  0
  1 23  1  0  0  0  0
  1 24  1  1  0  0  0
 21 24  1  0  0  0  0
  1 18  1  0  0  0  0
  3 17  1  0  0  0  0
 12 14  1  0  0  0  0
  4 14  1  0  0  0  0
  7 12  1  0  0  0  0
  2 25  1  6  0  0  0
  9 26  1  1  0  0  0
 19 27  1  6  0  0  0
 17 28  1  1  0  0  0
  8 29  1  0  0  0  0
  8 30  1  1  0  0  0
  3 31  1  6  0  0  0
 22 32  1  0  0  0  0
  7 33  1  6  0  0  0
 18 34  1  6  0  0  0
 21 35  1  1  0  0  0
 22 36  1  6  0  0  0
 32 37  1  0  0  0  0
 32 38  2  0  0  0  0
  4 39  1  1  0  0  0
M  END
>  <cdx:fragmentId>
74183

$$$$
