37769.cdx
  Mrv1902 05222410252D          

 48 55  0  0  0  0            999 V2000
    9.4009   -7.6994    0.0000 C   0  0  2  0  0  0  0  0  0  0  0  0
    8.9160   -8.3668    0.0000 C   0  0  1  0  0  0  0  0  0  0  0  0
    8.1314   -8.1119    0.0000 C   0  0  1  0  0  0  0  0  0  0  0  0
    7.4169   -8.5244    0.0000 C   0  0  0  0  0  0  0  0  0  0  0  0
    7.4169   -9.3494    0.0000 C   0  0  0  0  0  0  0  0  0  0  0  0
    6.7024   -9.7619    0.0000 C   0  0  0  0  0  0  0  0  0  0  0  0
    5.9880   -9.3494    0.0000 C   0  0  1  0  0  0  0  0  0  0  0  0
    5.2735   -9.7619    0.0000 C   0  0  1  0  0  0  0  0  0  0  0  0
    4.5590   -9.3494    0.0000 C   0  0  2  0  0  0  0  0  0  0  0  0
    4.5590   -8.5244    0.0000 C   0  0  0  0  0  0  0  0  0  0  0  0
    5.2735   -8.1119    0.0000 C   0  0  0  0  0  0  0  0  0  0  0  0
    5.9880   -8.5244    0.0000 C   0  0  1  0  0  0  0  0  0  0  0  0
    5.9880   -7.6994    0.0000 C   0  0  0  0  0  0  0  0  0  0  0  0
    6.7024   -8.1119    0.0000 C   0  0  1  0  0  0  0  0  0  0  0  0
    6.7024   -7.2869    0.0000 C   0  0  0  0  0  0  0  0  0  0  0  0
    7.4169   -6.8744    0.0000 C   0  0  0  0  0  0  0  0  0  0  0  0
    8.1314   -7.2869    0.0000 C   0  0  2  0  0  0  0  0  0  0  0  0
    8.9160   -7.0320    0.0000 C   0  0  1  0  0  0  0  0  0  0  0  0
    9.1355   -6.2367    0.0000 C   0  0  1  0  0  0  0  0  0  0  0  0
    9.8941   -5.9124    0.0000 C   0  0  0  0  0  0  0  0  0  0  0  0
   10.6206   -6.3034    0.0000 C   0  0  2  0  0  0  0  0  0  0  0  0
   10.7679   -7.1151    0.0000 C   0  0  1  0  0  0  0  0  0  0  0  0
   10.2251   -7.7364    0.0000 O   0  0  0  0  0  0  0  0  0  0  0  0
    9.6088   -6.6489    0.0000 O   0  0  0  0  0  0  0  0  0  0  0  0
    9.1709   -9.1515    0.0000 O   0  0  0  0  0  0  0  0  0  0  0  0
    3.8446   -9.7619    0.0000 O   0  0  0  0  0  0  0  0  0  0  0  0
    8.5142   -5.6939    0.0000 C   0  0  0  0  0  0  0  0  0  0  0  0
    8.1314   -6.4619    0.0000 C   0  0  0  0  0  0  0  0  0  0  0  0
    5.6860  -10.4764    0.0000 C   0  0  0  0  0  0  0  0  0  0  0  0
    4.8610  -10.4764    0.0000 C   0  0  0  0  0  0  0  0  0  0  0  0
    8.1314   -8.9369    0.0000 C   0  0  0  0  0  0  0  0  0  0  0  0
   11.3496   -8.1315    0.0000 C   0  0  0  0  0  0  0  0  0  0  0  0
   11.5632   -7.3346    0.0000 C   0  0  0  0  0  0  0  0  0  0  0  0
   11.7767   -6.5377    0.0000 C   0  0  0  0  0  0  0  0  0  0  0  0
   12.3584   -7.5541    0.0000 O   0  0  0  0  0  0  0  0  0  0  0  0
    5.9880  -10.1744    0.0000 H   0  0  0  0  0  0  0  0  0  0  0  0
    8.4278   -6.3669    0.0000 H   0  0  0  0  0  0  0  0  0  0  0  0
   11.2880   -5.8185    0.0000 H   0  0  0  0  0  0  0  0  0  0  0  0
   11.4824   -6.7026    0.0000 H   0  0  0  0  0  0  0  0  0  0  0  0
    3.1301   -9.3494    0.0000 C   0  0  2  0  0  0  0  0  0  0  0  0
    3.1301   -8.5244    0.0000 O   0  0  0  0  0  0  0  0  0  0  0  0
    2.4156   -8.1119    0.0000 C   0  0  0  0  0  0  0  0  0  0  0  0
    1.7011   -8.5244    0.0000 C   0  0  2  0  0  0  0  0  0  0  0  0
    1.7011   -9.3494    0.0000 C   0  0  1  0  0  0  0  0  0  0  0  0
    2.4156   -9.7619    0.0000 C   0  0  1  0  0  0  0  0  0  0  0  0
    2.4156  -10.5869    0.0000 O   0  0  0  0  0  0  0  0  0  0  0  0
    0.9867   -9.7619    0.0000 O   0  0  0  0  0  0  0  0  0  0  0  0
    0.9867   -8.1119    0.0000 O   0  0  0  0  0  0  0  0  0  0  0  0
  1  2  1  0  0  0  0
  2  3  1  0  0  0  0
  3  4  1  0  0  0  0
  4  5  2  0  0  0  0
  5  6  1  0  0  0  0
  6  7  1  0  0  0  0
  7  8  1  0  0  0  0
  8  9  1  0  0  0  0
  9 10  1  0  0  0  0
 10 11  1  0  0  0  0
 11 12  1  0  0  0  0
 12 13  1  1  0  0  0
 14 13  1  1  0  0  0
 14 15  1  0  0  0  0
 15 16  1  0  0  0  0
 16 17  1  0  0  0  0
 17 18  1  0  0  0  0
 18 19  1  0  0  0  0
 19 20  1  0  0  0  0
 20 21  1  0  0  0  0
 21 22  1  0  0  0  0
 22 23  1  0  0  0  0
  1 23  1  0  0  0  0
  1 24  1  1  0  0  0
 21 24  1  0  0  0  0
  1 18  1  0  0  0  0
  3 17  1  0  0  0  0
 12 14  1  0  0  0  0
  4 14  1  0  0  0  0
  7 12  1  0  0  0  0
  2 25  1  6  0  0  0
  9 26  1  1  0  0  0
 19 27  1  6  0  0  0
 17 28  1  1  0  0  0
  8 29  1  0  0  0  0
  8 30  1  1  0  0  0
  3 31  1  6  0  0  0
 32 33  1  0  0  0  0
 33 34  1  0  0  0  0
 33 35  1  0  0  0  0
 22 33  1  0  0  0  0
  7 36  1  6  0  0  0
 18 37  1  6  0  0  0
 21 38  1  1  0  0  0
 22 39  1  1  0  0  0
 40 26  1  1  0  0  0
 40 41  1  0  0  0  0
 41 42  1  0  0  0  0
 42 43  1  0  0  0  0
 43 44  1  0  0  0  0
 44 45  1  0  0  0  0
 45 40  1  0  0  0  0
 45 46  1  6  0  0  0
 44 47  1  1  0  0  0
 43 48  1  6  0  0  0
M  END
>  <cdx:fragmentId>
74183

$$$$
