37766.cdx
  Mrv1902 05222410212D          

 41 48  0  0  0  0            999 V2000
    4.2768   -7.4044    0.0000 C   0  0  0  0  0  0  0  0  0  0  0  0
    4.2768   -8.2294    0.0000 C   0  0  1  0  0  0  0  0  0  0  0  0
    4.9913   -8.6419    0.0000 C   0  0  1  0  0  0  0  0  0  0  0  0
    5.7057   -8.2294    0.0000 C   0  0  1  0  0  0  0  0  0  0  0  0
    5.7057   -7.4044    0.0000 C   0  0  2  0  0  0  0  0  0  0  0  0
    4.9913   -6.9919    0.0000 C   0  0  0  0  0  0  0  0  0  0  0  0
    6.4202   -8.6419    0.0000 C   0  0  0  0  0  0  0  0  0  0  0  0
    7.1347   -8.2294    0.0000 C   0  0  0  0  0  0  0  0  0  0  0  0
    7.1156   -7.3838    0.0000 C   0  0  0  0  0  0  0  0  0  0  0  0
    6.4202   -6.9919    0.0000 C   0  0  1  0  0  0  0  0  0  0  0  0
    7.8491   -6.9919    0.0000 C   0  0  1  0  0  0  0  0  0  0  0  0
    7.8491   -6.1669    0.0000 C   0  0  2  0  0  0  0  0  0  0  0  0
    7.1347   -5.7544    0.0000 C   0  0  1  0  0  0  0  0  0  0  0  0
    6.4202   -6.1669    0.0000 C   0  0  0  0  0  0  0  0  0  0  0  0
    8.6338   -7.2468    0.0000 C   0  0  0  0  0  0  0  0  0  0  0  0
    9.1187   -6.5794    0.0000 C   0  0  1  0  0  0  0  0  0  0  0  0
    8.6338   -5.9119    0.0000 C   0  0  2  0  0  0  0  0  0  0  0  0
    3.5623   -8.6419    0.0000 O   0  0  0  0  0  0  0  0  0  0  0  0
    4.5788   -9.3563    0.0000 C   0  0  0  0  0  0  0  0  0  0  0  0
    5.7057   -6.5794    0.0000 C   0  0  0  0  0  0  0  0  0  0  0  0
    7.8491   -5.3419    0.0000 C   0  0  0  0  0  0  0  0  0  0  0  0
    7.8491   -7.8169    0.0000 C   0  0  0  0  0  0  0  0  0  0  0  0
    8.2213   -5.1975    0.0000 H   0  0  0  0  0  0  0  0  0  0  0  0
    8.8887   -5.1273    0.0000 C   0  0  2  0  0  0  0  0  0  0  0  0
    8.3367   -4.5142    0.0000 C   0  0  0  0  0  0  0  0  0  0  0  0
    9.7075   -5.0325    0.0000 C   0  0  0  0  0  0  0  0  0  0  0  0
    9.3322   -5.7825    0.0000 O   0  0  0  0  0  0  0  0  0  0  0  0
   10.1572   -5.7825    0.0000 C   0  0  1  0  0  0  0  0  0  0  0  0
    5.7057   -9.0544    0.0000 H   0  0  0  0  0  0  0  0  0  0  0  0
    5.4037   -9.3563    0.0000 C   0  0  0  0  0  0  0  0  0  0  0  0
    7.1347   -4.9294    0.0000 O   0  0  0  0  0  0  0  0  0  0  0  0
    9.9437   -6.5794    0.0000 O   0  0  0  0  0  0  0  0  0  0  0  0
   10.6356   -7.0287    0.0000 C   0  0  1  0  0  0  0  0  0  0  0  0
   11.2767   -6.5095    0.0000 C   0  0  0  0  0  0  0  0  0  0  0  0
   10.9811   -5.7393    0.0000 C   0  0  1  0  0  0  0  0  0  0  0  0
   11.7780   -5.9528    0.0000 O   0  0  0  0  0  0  0  0  0  0  0  0
   10.6356   -7.8537    0.0000 O   0  0  0  0  0  0  0  0  0  0  0  0
   11.6892   -7.2240    0.0000 C   0  0  0  0  0  0  0  0  0  0  0  0
    6.4202   -4.5169    0.0000 C   0  0  0  0  0  0  0  0  0  0  0  0
    6.4202   -3.6919    0.0000 O   0  0  0  0  0  0  0  0  0  0  0  0
    5.7057   -4.9294    0.0000 C   0  0  0  0  0  0  0  0  0  0  0  0
  1  2  1  0  0  0  0
  2  3  1  0  0  0  0
  3  4  1  0  0  0  0
  4  5  1  0  0  0  0
  5  6  1  0  0  0  0
  6  1  1  0  0  0  0
  4  7  1  0  0  0  0
  7  8  1  0  0  0  0
  9 10  1  0  0  0  0
 10  5  1  0  0  0  0
  9 11  1  0  0  0  0
 11 12  1  0  0  0  0
 12 13  1  0  0  0  0
 13 14  1  0  0  0  0
 14 10  1  0  0  0  0
 11 15  1  0  0  0  0
 15 16  1  0  0  0  0
 16 17  1  0  0  0  0
 17 12  1  0  0  0  0
  2 18  1  1  0  0  0
  3 19  1  1  0  0  0
  5 20  1  1  0  0  0
 10 20  1  1  0  0  0
 12 21  1  1  0  0  0
 11 22  1  6  0  0  0
 17 23  1  6  0  0  0
 17 24  1  0  0  0  0
 24 25  1  6  0  0  0
 24 26  1  0  0  0  0
 16 27  1  1  0  0  0
 27 28  1  0  0  0  0
 28 26  1  0  0  0  0
  4 29  1  6  0  0  0
  3 30  1  0  0  0  0
  9  8  2  0  0  0  0
 13 31  1  1  0  0  0
 28 32  1  6  0  0  0
 32 33  1  0  0  0  0
 33 34  1  0  0  0  0
 34 35  1  0  0  0  0
 35 28  1  0  0  0  0
 35 36  1  6  0  0  0
 33 37  1  1  0  0  0
 34 36  1  0  0  0  0
 34 38  1  0  0  0  0
 31 39  1  0  0  0  0
 39 40  2  0  0  0  0
 39 41  1  0  0  0  0
M  END
>  <cdx:fragmentId>
573

$$$$
