3776.cdx
  Mrv1902 05222410242D          

  4  3  0  0  0  0            999 V2000
    7.4478   -3.8036    0.0000 C   0  0  0  0  0  0  0  0  0  0  0  0
    6.7334   -3.3911    0.0000 C   0  0  0  0  0  0  0  0  0  0  0  0
    6.0189   -3.8036    0.0000 C   0  0  0  0  0  0  0  0  0  0  0  0
    6.7334   -2.5661    0.0000 O   0  0  0  0  0  0  0  0  0  0  0  0
  1  2  1  0  0  0  0
  2  3  1  0  0  0  0
  2  4  1  0  0  0  0
M  END
>  <cdx:groupId>
14

>  <cdx:fragmentId>
6

$$$$
