37771.cdx
  Mrv1902 05222410212D          

 30 31  0  0  0  0            999 V2000
   12.3687   -7.5075    0.0000 O   0  0  0  0  0  0  0  0  0  0  0  0
    4.5095   -6.2700    0.0000 C   0  0  0  0  0  0  0  0  0  0  0  0
    3.7950   -5.8575    0.0000 C   0  0  0  0  0  0  0  0  0  0  0  0
    3.0805   -6.2700    0.0000 C   0  0  0  0  0  0  0  0  0  0  0  0
    3.0805   -7.0950    0.0000 C   0  0  0  0  0  0  0  0  0  0  0  0
    3.7950   -7.5075    0.0000 C   0  0  0  0  0  0  0  0  0  0  0  0
    4.5095   -7.0950    0.0000 C   0  0  0  0  0  0  0  0  0  0  0  0
    2.3661   -7.5075    0.0000 O   0  0  0  0  0  0  0  0  0  0  0  0
    5.2239   -5.8575    0.0000 C   0  0  0  0  0  0  0  0  0  0  0  0
    6.6529   -5.0325    0.0000 O   0  0  0  0  0  0  0  0  0  0  0  0
    5.9384   -6.2700    0.0000 C   0  0  0  0  0  0  0  0  0  0  0  0
    6.6529   -5.8575    0.0000 C   0  0  0  0  0  0  0  0  0  0  0  0
    8.7963   -4.6200    0.0000 O   0  0  0  0  0  0  0  0  0  0  0  0
    7.3674   -4.6200    0.0000 O   0  0  0  0  0  0  0  0  0  0  0  0
    8.0818   -5.0325    0.0000 C   0  0  0  0  0  0  0  0  0  0  0  0
    7.3674   -6.2700    0.0000 O   0  0  0  0  0  0  0  0  0  0  0  0
    9.5108   -6.6825    0.0000 O   0  0  0  0  0  0  0  0  0  0  0  0
    8.0818   -7.5075    0.0000 O   0  0  0  0  0  0  0  0  0  0  0  0
    9.5108   -7.5075    0.0000 O   0  0  0  0  0  0  0  0  0  0  0  0
    8.7963   -7.0950    0.0000 C   0  0  0  0  0  0  0  0  0  0  0  0
    8.0818   -5.8575    0.0000 C   0  0  1  0  0  0  0  0  0  0  0  0
    8.7963   -6.2700    0.0000 C   0  0  1  0  0  0  0  0  0  0  0  0
    9.5108   -5.8575    0.0000 C   0  0  0  0  0  0  0  0  0  0  0  0
   10.9397   -5.8575    0.0000 C   0  0  0  0  0  0  0  0  0  0  0  0
   10.2252   -6.2700    0.0000 C   0  0  0  0  0  0  0  0  0  0  0  0
   10.2252   -7.0950    0.0000 C   0  0  0  0  0  0  0  0  0  0  0  0
   10.9397   -7.5075    0.0000 C   0  0  0  0  0  0  0  0  0  0  0  0
   11.6542   -7.0950    0.0000 C   0  0  0  0  0  0  0  0  0  0  0  0
   11.6542   -6.2700    0.0000 C   0  0  0  0  0  0  0  0  0  0  0  0
   12.3687   -5.8575    0.0000 O   0  0  0  0  0  0  0  0  0  0  0  0
 28  1  1  0  0  0  0
  2  3  2  0  0  0  0
  3  4  1  0  0  0  0
  4  5  2  0  0  0  0
  5  6  1  0  0  0  0
  6  7  2  0  0  0  0
  7  2  1  0  0  0  0
  9  2  1  0  0  0  0
  5  8  1  0  0  0  0
 11  9  2  0  0  0  0
 12 10  2  0  0  0  0
 12 11  1  0  0  0  0
 16 12  1  0  0  0  0
 15 13  2  0  0  0  0
 15 14  1  0  0  0  0
 21 15  1  0  0  0  0
 21 16  1  6  0  0  0
 22 17  1  1  0  0  0
 20 18  2  0  0  0  0
 20 19  1  0  0  0  0
 22 20  1  0  0  0  0
 22 21  1  0  0  0  0
 23 22  1  0  0  0  0
 25 23  1  0  0  0  0
 24 29  2  0  0  0  0
 25 24  1  0  0  0  0
 26 25  2  0  0  0  0
 27 26  1  0  0  0  0
 28 27  2  0  0  0  0
 29 28  1  0  0  0  0
 29 30  1  0  0  0  0
M  END
>  <cdx:fragmentId>
607

$$$$
