377709.cdx
  Mrv1902 05222410272D          

 20 21  0  0  0  0            999 V2000
    9.2799   -7.9925    0.0000 C   0  0  0  0  0  0  0  0  0  0  0  0
    9.2799   -7.1675    0.0000 C   0  0  0  0  0  0  0  0  0  0  0  0
    8.5655   -6.7550    0.0000 C   0  0  0  0  0  0  0  0  0  0  0  0
    8.5655   -5.9300    0.0000 O   0  0  0  0  0  0  0  0  0  0  0  0
    7.8510   -7.1675    0.0000 C   0  0  0  0  0  0  0  0  0  0  0  0
    7.1365   -6.7550    0.0000 C   0  0  0  0  0  0  0  0  0  0  0  0
    6.4220   -7.1675    0.0000 C   0  0  0  0  0  0  0  0  0  0  0  0
    6.4220   -7.9925    0.0000 C   0  0  0  0  0  0  0  0  0  0  0  0
    7.1365   -8.4050    0.0000 C   0  0  0  0  0  0  0  0  0  0  0  0
    7.8510   -7.9925    0.0000 C   0  0  0  0  0  0  0  0  0  0  0  0
    8.5655   -8.4050    0.0000 O   0  0  0  0  0  0  0  0  0  0  0  0
    9.9944   -6.7550    0.0000 C   0  0  0  0  0  0  0  0  0  0  0  0
    9.9944   -8.4050    0.0000 C   0  0  0  0  0  0  0  0  0  0  0  0
    7.1365   -9.2300    0.0000 O   0  0  0  0  0  0  0  0  0  0  0  0
    6.4220   -9.6425    0.0000 C   0  0  0  0  0  0  0  0  0  0  0  0
    5.7076   -8.4050    0.0000 O   0  0  0  0  0  0  0  0  0  0  0  0
    4.9931   -7.9925    0.0000 C   0  0  0  0  0  0  0  0  0  0  0  0
    5.7076   -6.7550    0.0000 O   0  0  0  0  0  0  0  0  0  0  0  0
    4.9931   -7.1675    0.0000 C   0  0  0  0  0  0  0  0  0  0  0  0
    7.1365   -5.9300    0.0000 O   0  0  0  0  0  0  0  0  0  0  0  0
  1  2  2  0  0  0  0
  2  3  1  0  0  0  0
  3  4  2  0  0  0  0
  3  5  1  0  0  0  0
  5  6  1  0  0  0  0
  6  7  2  0  0  0  0
  7  8  1  0  0  0  0
  8  9  2  0  0  0  0
  9 10  1  0  0  0  0
  5 10  2  0  0  0  0
 10 11  1  0  0  0  0
  1 11  1  0  0  0  0
  2 12  1  0  0  0  0
  1 13  1  0  0  0  0
 14 15  1  0  0  0  0
  9 14  1  0  0  0  0
 16 17  1  0  0  0  0
  8 16  1  0  0  0  0
 18 19  1  0  0  0  0
  7 18  1  0  0  0  0
  6 20  1  0  0  0  0
M  END
>  <cdx:fragmentId>
32668

$$$$
