37778.cdx
  Mrv1902 05222410242D          

 49 53  0  0  0  0            999 V2000
   15.5511   -8.2232    0.0000 O   0  0  0  0  0  0  0  0  0  0  0  0
   16.1179   -8.8072    0.0000 C   0  0  1  0  0  0  0  0  0  0  0  0
   12.2204  -10.6718    0.0000 C   0  0  0  0  0  0  0  0  0  0  0  0
   11.5060  -11.0843    0.0000 C   0  0  0  0  0  0  0  0  0  0  0  0
   11.5060  -11.9093    0.0000 C   0  0  1  0  0  0  0  0  0  0  0  0
   12.2204  -12.3218    0.0000 C   0  0  0  0  0  0  0  0  0  0  0  0
   12.9349  -11.9093    0.0000 C   0  0  2  0  0  0  0  0  0  0  0  0
   13.6494  -12.3218    0.0000 C   0  0  0  0  0  0  0  0  0  0  0  0
   14.3638  -11.9093    0.0000 C   0  0  0  0  0  0  0  0  0  0  0  0
   14.3638  -11.0843    0.0000 C   0  0  1  0  0  0  0  0  0  0  0  0
   15.0783  -10.6718    0.0000 C   0  0  2  0  0  0  0  0  0  0  0  0
   15.8629  -10.9267    0.0000 C   0  0  0  0  0  0  0  0  0  0  0  0
   16.3479  -10.2593    0.0000 C   0  0  0  0  0  0  0  0  0  0  0  0
   15.8629   -9.5919    0.0000 C   0  0  1  0  0  0  0  0  0  0  0  0
   15.0783   -9.8468    0.0000 C   0  0  1  0  0  0  0  0  0  0  0  0
   14.3638   -9.4343    0.0000 C   0  0  1  0  0  0  0  0  0  0  0  0
   13.6494   -9.8468    0.0000 C   0  0  0  0  0  0  0  0  0  0  0  0
   13.6494  -10.6718    0.0000 C   0  0  2  0  0  0  0  0  0  0  0  0
   12.9349  -11.0843    0.0000 C   0  0  1  0  0  0  0  0  0  0  0  0
   15.0783  -11.4968    0.0000 C   0  0  0  0  0  0  0  0  0  0  0  0
   12.9349  -10.2593    0.0000 C   0  0  0  0  0  0  0  0  0  0  0  0
   14.3638  -10.2593    0.0000 C   0  0  0  0  0  0  0  0  0  0  0  0
   12.6329  -13.0363    0.0000 C   0  0  0  0  0  0  0  0  0  0  0  0
   11.8079  -13.0363    0.0000 C   0  0  0  0  0  0  0  0  0  0  0  0
   14.3638   -8.6093    0.0000 O   0  0  0  0  0  0  0  0  0  0  0  0
   10.7915  -12.3218    0.0000 O   0  0  0  0  0  0  0  0  0  0  0  0
   12.9349  -12.7343    0.0000 H   0  0  0  0  0  0  0  0  0  0  0  0
   13.6494  -11.4968    0.0000 H   0  0  0  0  0  0  0  0  0  0  0  0
   15.1646   -9.0263    0.0000 H   0  0  0  0  0  0  0  0  0  0  0  0
   16.6778   -9.4628    0.0000 H   0  0  0  0  0  0  0  0  0  0  0  0
   16.9249   -8.6357    0.0000 C   0  0  0  0  0  0  0  0  0  0  0  0
   17.4769   -9.2488    0.0000 C   0  0  0  0  0  0  0  0  0  0  0  0
   18.2839   -9.0773    0.0000 C   0  0  0  0  0  0  0  0  0  0  0  0
   18.8359   -9.6904    0.0000 C   0  0  0  0  0  0  0  0  0  0  0  0
   19.6429   -9.5189    0.0000 C   0  0  0  0  0  0  0  0  0  0  0  0
   18.5810  -10.4750    0.0000 C   0  0  0  0  0  0  0  0  0  0  0  0
   16.3728   -8.0226    0.0000 C   0  0  0  0  0  0  0  0  0  0  0  0
   10.0770  -11.9093    0.0000 C   0  0  2  0  0  0  0  0  0  0  0  0
   10.0770  -11.0843    0.0000 O   0  0  0  0  0  0  0  0  0  0  0  0
    9.3626  -10.6718    0.0000 C   0  0  1  0  0  0  0  0  0  0  0  0
    8.6481  -11.0843    0.0000 C   0  0  2  0  0  0  0  0  0  0  0  0
    8.6481  -11.9093    0.0000 C   0  0  1  0  0  0  0  0  0  0  0  0
    9.3626  -12.3218    0.0000 C   0  0  1  0  0  0  0  0  0  0  0  0
    9.3626   -9.8468    0.0000 C   0  0  0  0  0  0  0  0  0  0  0  0
    7.9336  -12.3218    0.0000 O   0  0  0  0  0  0  0  0  0  0  0  0
    7.9336  -10.6718    0.0000 O   0  0  0  0  0  0  0  0  0  0  0  0
    9.3626  -13.1468    0.0000 O   0  0  0  0  0  0  0  0  0  0  0  0
    8.6481   -9.4343    0.0000 O   0  0  0  0  0  0  0  0  0  0  0  0
   19.3879  -10.3035    0.0000 O   0  0  0  0  0  0  0  0  0  0  0  0
  3  4  1  0  0  0  0
  4  5  1  0  0  0  0
  5  6  1  0  0  0  0
  6  7  1  0  0  0  0
  7  8  1  0  0  0  0
  8  9  1  0  0  0  0
  9 10  1  0  0  0  0
 10 11  1  0  0  0  0
 11 12  1  0  0  0  0
 12 13  1  0  0  0  0
 14 13  1  0  0  0  0
 14 15  1  0  0  0  0
 11 15  1  0  0  0  0
 15 16  1  0  0  0  0
 16 17  1  0  0  0  0
 17 18  1  0  0  0  0
 10 18  1  0  0  0  0
 18 19  1  0  0  0  0
  7 19  1  0  0  0  0
  3 19  1  0  0  0  0
 11 20  1  6  0  0  0
 19 21  1  1  0  0  0
 10 22  1  1  0  0  0
  6 23  1  0  0  0  0
  6 24  1  0  0  0  0
 16 25  1  1  0  0  0
  5 26  1  1  0  0  0
  2 14  1  0  0  0  0
  7 27  1  6  0  0  0
 18 28  1  6  0  0  0
 15 29  1  1  0  0  0
 14 30  1  6  0  0  0
  2 31  1  0  0  0  0
 31 32  1  0  0  0  0
 32 33  1  0  0  0  0
 33 34  1  0  0  0  0
 34 35  1  0  0  0  0
 34 36  1  0  0  0  0
  2 37  1  1  0  0  0
  2  1  1  6  0  0  0
 38 26  1  1  0  0  0
 38 39  1  0  0  0  0
 39 40  1  0  0  0  0
 40 41  1  0  0  0  0
 41 42  1  0  0  0  0
 42 43  1  0  0  0  0
 43 38  1  0  0  0  0
 40 44  1  1  0  0  0
 42 45  1  1  0  0  0
 41 46  1  6  0  0  0
 43 47  1  6  0  0  0
 44 48  1  0  0  0  0
 34 49  1  0  0  0  0
M  END
>  <cdx:fragmentId>
32433

$$$$
