37770.cdx
  Mrv1902 05222410212D          

 51 58  0  0  0  0            999 V2000
    5.1337   -8.2363    0.0000 C   0  0  0  0  0  0  0  0  0  0  0  0
    5.1337   -9.0613    0.0000 C   0  0  1  0  0  0  0  0  0  0  0  0
    5.8481   -9.4738    0.0000 C   0  0  2  0  0  0  0  0  0  0  0  0
    6.5626   -9.0613    0.0000 C   0  0  1  0  0  0  0  0  0  0  0  0
    6.5626   -8.2363    0.0000 C   0  0  2  0  0  0  0  0  0  0  0  0
    5.8481   -7.8237    0.0000 C   0  0  0  0  0  0  0  0  0  0  0  0
    7.2771   -9.4738    0.0000 C   0  0  0  0  0  0  0  0  0  0  0  0
    7.9916   -9.0613    0.0000 C   0  0  0  0  0  0  0  0  0  0  0  0
    7.9916   -8.2363    0.0000 C   0  0  0  0  0  0  0  0  0  0  0  0
    7.2771   -7.8237    0.0000 C   0  0  1  0  0  0  0  0  0  0  0  0
    8.7060   -7.8237    0.0000 C   0  0  1  0  0  0  0  0  0  0  0  0
    8.7060   -6.9988    0.0000 C   0  0  2  0  0  0  0  0  0  0  0  0
    7.9916   -6.5863    0.0000 C   0  0  0  0  0  0  0  0  0  0  0  0
    7.2771   -6.9988    0.0000 C   0  0  0  0  0  0  0  0  0  0  0  0
    9.4907   -8.0787    0.0000 C   0  0  2  0  0  0  0  0  0  0  0  0
    9.9756   -7.4112    0.0000 C   0  0  2  0  0  0  0  0  0  0  0  0
    9.4907   -6.7438    0.0000 C   0  0  2  0  0  0  0  0  0  0  0  0
    6.2606  -10.1882    0.0000 C   0  0  0  0  0  0  0  0  0  0  0  0
    4.4192   -9.4738    0.0000 O   0  0  0  0  0  0  0  0  0  0  0  0
    5.4356  -10.1882    0.0000 C   0  0  0  0  0  0  0  0  0  0  0  0
    6.5626   -7.4112    0.0000 C   0  0  0  0  0  0  0  0  0  0  0  0
    8.7060   -6.1737    0.0000 C   0  0  0  0  0  0  0  0  0  0  0  0
    8.7060   -8.6487    0.0000 C   0  0  0  0  0  0  0  0  0  0  0  0
    3.0111   -7.8153    0.0000 C   0  0  0  0  0  0  0  0  0  0  0  0
    2.2954   -8.2256    0.0000 C   0  0  2  0  0  0  0  0  0  0  0  0
    2.2929   -9.0506    0.0000 C   0  0  1  0  0  0  0  0  0  0  0  0
    3.0062   -9.4653    0.0000 C   0  0  2  0  0  0  0  0  0  0  0  0
    3.7219   -9.0549    0.0000 C   0  0  1  0  0  0  0  0  0  0  0  0
    3.7244   -8.2299    0.0000 O   0  0  0  0  0  0  0  0  0  0  0  0
    1.5772   -9.4610    0.0000 O   0  0  0  0  0  0  0  0  0  0  0  0
    1.5822   -7.8110    0.0000 O   0  0  0  0  0  0  0  0  0  0  0  0
    3.0037  -10.2903    0.0000 O   0  0  0  0  0  0  0  0  0  0  0  0
    9.7456   -8.8633    0.0000 O   0  0  0  0  0  0  0  0  0  0  0  0
    9.0782   -6.0293    0.0000 H   0  0  0  0  0  0  0  0  0  0  0  0
    6.5626   -9.8863    0.0000 H   0  0  0  0  0  0  0  0  0  0  0  0
   10.7997   -7.4483    0.0000 O   0  0  0  0  0  0  0  0  0  0  0  0
   11.3425   -6.8270    0.0000 C   0  0  2  0  0  0  0  0  0  0  0  0
   11.1952   -6.0152    0.0000 C   0  0  1  0  0  0  0  0  0  0  0  0
   10.4687   -5.6243    0.0000 C   0  0  0  0  0  0  0  0  0  0  0  0
    9.7101   -5.9485    0.0000 C   0  0  1  0  0  0  0  0  0  0  0  0
    9.0889   -5.4057    0.0000 C   0  0  0  0  0  0  0  0  0  0  0  0
   10.2850   -6.4350    0.0000 O   0  0  0  0  0  0  0  0  0  0  0  0
   12.1378   -7.0465    0.0000 C   0  0  0  0  0  0  0  0  0  0  0  0
   12.7255   -6.4675    0.0000 C   0  0  0  0  0  0  0  0  0  0  0  0
   12.3454   -7.8449    0.0000 C   0  0  0  0  0  0  0  0  0  0  0  0
   12.9331   -7.2659    0.0000 O   0  0  0  0  0  0  0  0  0  0  0  0
   11.7786   -5.4319    0.0000 H   0  0  0  0  0  0  0  0  0  0  0  0
   12.0570   -6.4145    0.0000 H   0  0  0  0  0  0  0  0  0  0  0  0
   13.1406   -8.0644    0.0000 C   0  0  0  0  0  0  0  0  0  0  0  0
   12.5529   -8.6434    0.0000 O   0  0  0  0  0  0  0  0  0  0  0  0
   13.9359   -8.2839    0.0000 C   0  0  0  0  0  0  0  0  0  0  0  0
  1  2  1  0  0  0  0
  2  3  1  0  0  0  0
  3  4  1  0  0  0  0
  4  5  1  0  0  0  0
  5  6  1  0  0  0  0
  6  1  1  0  0  0  0
  4  7  1  0  0  0  0
  7  8  1  0  0  0  0
  8  9  2  0  0  0  0
  9 10  1  0  0  0  0
 10  5  1  0  0  0  0
  9 11  1  0  0  0  0
 11 12  1  0  0  0  0
 12 13  1  0  0  0  0
 13 14  1  0  0  0  0
 14 10  1  0  0  0  0
 11 15  1  0  0  0  0
 15 16  1  0  0  0  0
 16 17  1  0  0  0  0
 17 12  1  0  0  0  0
  3 18  1  0  0  0  0
  2 19  1  1  0  0  0
  3 20  1  1  0  0  0
  5 21  1  1  0  0  0
 10 21  1  1  0  0  0
 12 22  1  1  0  0  0
 11 23  1  6  0  0  0
 24 25  1  0  0  0  0
 25 26  1  0  0  0  0
 26 27  1  0  0  0  0
 27 28  1  0  0  0  0
 28 29  1  0  0  0  0
 29 24  1  0  0  0  0
 26 30  1  1  0  0  0
 25 31  1  6  0  0  0
 27 32  1  6  0  0  0
 28 19  1  1  0  0  0
 15 33  1  6  0  0  0
 17 34  1  6  0  0  0
  4 35  1  6  0  0  0
 16 36  1  0  0  0  0
 36 37  1  0  0  0  0
 37 38  1  0  0  0  0
 38 39  1  0  0  0  0
 39 40  1  0  0  0  0
 40 17  1  0  0  0  0
 40 41  1  6  0  0  0
 38 42  1  0  0  0  0
 16 42  1  1  0  0  0
 37 43  1  0  0  0  0
 43 44  1  0  0  0  0
 43 45  1  0  0  0  0
 43 46  1  0  0  0  0
 38 47  1  1  0  0  0
 37 48  1  1  0  0  0
 46 49  1  0  0  0  0
 49 50  2  0  0  0  0
 49 51  1  0  0  0  0
M  END
>  <cdx:fragmentId>
5

$$$$
