37774.cdx
  Mrv1902 05222410222D          

 42 44  0  0  0  0            999 V2000
    5.7804  -13.8427    0.0000 C   0  0  0  0  0  0  0  0  0  0  0  0
    5.7594  -13.0180    0.0000 C   0  0  0  0  0  0  0  0  0  0  0  0
    8.9984   -8.8063    0.0000 C   0  0  0  0  0  0  0  0  0  0  0  0
    9.2743   -8.0288    0.0000 O   0  0  0  0  0  0  0  0  0  0  0  0
    3.5851  -11.8355    0.0000 O   0  0  0  0  0  0  0  0  0  0  0  0
    4.2678  -10.5802    0.0000 O   0  0  0  0  0  0  0  0  0  0  0  0
    4.2888  -11.4050    0.0000 C   0  0  0  0  0  0  0  0  0  0  0  0
    5.0136  -11.7991    0.0000 C   0  0  0  0  0  0  0  0  0  0  0  0
    5.7173  -11.3685    0.0000 C   0  0  0  0  0  0  0  0  0  0  0  0
    8.5460   -9.6459    0.0000 C   0  0  0  0  0  0  0  0  0  0  0  0
    6.4210  -10.9379    0.0000 C   0  0  0  0  0  0  0  0  0  0  0  0
    8.5814  -12.1205    0.0000 C   0  0  0  0  0  0  0  0  0  0  0  0
    5.0346  -12.6238    0.0000 C   0  0  0  0  0  0  0  0  0  0  0  0
    9.3651  -11.5304    0.0000 C   0  0  0  0  0  0  0  0  0  0  0  0
    9.8328  -10.8508    0.0000 C   0  0  2  0  0  0  0  0  0  0  0  0
    9.3310  -10.1960    0.0000 C   0  0  1  0  0  0  0  0  0  0  0  0
    7.8705  -11.7262    0.0000 C   0  0  0  0  0  0  0  0  0  0  0  0
    7.8916  -12.5509    0.0000 C   0  0  0  0  0  0  0  0  0  0  0  0
    7.1879  -12.9815    0.0000 C   0  0  0  0  0  0  0  0  0  0  0  0
    6.4631  -12.5874    0.0000 C   0  0  2  0  0  0  0  0  0  0  0  0
    6.4420  -11.7626    0.0000 C   0  0  1  0  0  0  0  0  0  0  0  0
    7.1458  -11.3320    0.0000 C   0  0  0  0  0  0  0  0  0  0  0  0
    7.1247  -10.5073    0.0000 C   0  0  0  0  0  0  0  0  0  0  0  0
    7.8284  -10.0767    0.0000 C   0  0  0  0  0  0  0  0  0  0  0  0
    8.5532  -10.4708    0.0000 C   0  0  2  0  0  0  0  0  0  0  0  0
    8.5742  -11.2956    0.0000 C   0  0  2  0  0  0  0  0  0  0  0  0
    8.1871   -8.9561    0.0000 O   0  0  0  0  0  0  0  0  0  0  0  0
   10.3571   -9.1713    0.0000 C   0  0  0  0  0  0  0  0  0  0  0  0
    9.5659   -9.4051    0.0000 C   0  0  1  0  0  0  0  0  0  0  0  0
   10.1203   -9.9559    0.0000 H   0  0  0  0  0  0  0  0  0  0  0  0
   10.5502   -8.3692    0.0000 C   0  0  0  0  0  0  0  0  0  0  0  0
   11.3414   -8.1354    0.0000 C   0  0  0  0  0  0  0  0  0  0  0  0
   11.5345   -7.3334    0.0000 C   0  0  0  0  0  0  0  0  0  0  0  0
   10.7376   -7.1198    0.0000 C   0  0  0  0  0  0  0  0  0  0  0  0
   12.3314   -7.5469    0.0000 C   0  0  0  0  0  0  0  0  0  0  0  0
   11.9394   -8.7037    0.0000 C   0  0  0  0  0  0  0  0  0  0  0  0
    6.4841  -13.4121    0.0000 H   0  0  0  0  0  0  0  0  0  0  0  0
   10.6576  -10.8298    0.0000 O   0  0  0  0  0  0  0  0  0  0  0  0
    2.8603  -11.4414    0.0000 C   0  0  0  0  0  0  0  0  0  0  0  0
    4.3309  -13.0544    0.0000 O   0  0  0  0  0  0  0  0  0  0  0  0
   11.7276   -6.5313    0.0000 O   0  0  0  0  0  0  0  0  0  0  0  0
   11.1296   -5.9630    0.0000 C   0  0  0  0  0  0  0  0  0  0  0  0
 29 16  1  0  0  0  0
 21  9  1  0  0  0  0
  8  7  1  0  0  0  0
  7  5  1  0  0  0  0
  7  6  2  0  0  0  0
  9  8  1  0  0  0  0
 25 10  1  1  0  0  0
 21 11  1  1  0  0  0
 26 12  1  6  0  0  0
 20  2  1  1  0  0  0
 16 25  1  0  0  0  0
 14 26  1  0  0  0  0
 15 14  1  0  0  0  0
 16 15  1  0  0  0  0
 22 17  2  0  0  0  0
 26 17  1  0  0  0  0
 18 17  1  0  0  0  0
 19 18  1  0  0  0  0
 20 19  1  0  0  0  0
 21 20  1  0  0  0  0
 22 21  1  0  0  0  0
 23 22  1  0  0  0  0
 24 23  1  0  0  0  0
 25 24  1  0  0  0  0
 26 25  1  0  0  0  0
 29 28  1  6  0  0  0
  3 29  1  0  0  0  0
  1  2  2  0  0  0  0
  2 13  1  0  0  0  0
  3  4  2  0  0  0  0
  3 27  1  0  0  0  0
 16 30  1  6  0  0  0
 28 31  1  0  0  0  0
 31 32  1  0  0  0  0
 32 33  1  0  0  0  0
 33 34  1  0  0  0  0
 33 35  1  0  0  0  0
 32 36  2  0  0  0  0
 20 37  1  6  0  0  0
 15 38  1  6  0  0  0
  5 39  1  0  0  0  0
 13 40  1  0  0  0  0
 33 41  1  0  0  0  0
 41 42  1  0  0  0  0
M  END
>  <cdx:fragmentId>
123564

$$$$
