37787.cdx
  Mrv1902 05222410242D          

 36 40  0  0  0  0            999 V2000
    5.5416   -8.9206    0.0000 C   0  0  0  0  0  0  0  0  0  0  0  0
    4.8272   -9.3331    0.0000 C   0  0  0  0  0  0  0  0  0  0  0  0
    4.8272  -10.1581    0.0000 C   0  0  1  0  0  0  0  0  0  0  0  0
    5.5416  -10.5706    0.0000 C   0  0  0  0  0  0  0  0  0  0  0  0
    6.2561  -10.1581    0.0000 C   0  0  2  0  0  0  0  0  0  0  0  0
    6.9706  -10.5706    0.0000 C   0  0  0  0  0  0  0  0  0  0  0  0
    7.6850  -10.1581    0.0000 C   0  0  0  0  0  0  0  0  0  0  0  0
    7.6850   -9.3331    0.0000 C   0  0  1  0  0  0  0  0  0  0  0  0
    8.3995   -8.9206    0.0000 C   0  0  2  0  0  0  0  0  0  0  0  0
    9.1140   -9.3331    0.0000 C   0  0  0  0  0  0  0  0  0  0  0  0
    9.8284   -8.9206    0.0000 C   0  0  0  0  0  0  0  0  0  0  0  0
    9.8284   -8.0956    0.0000 C   0  0  1  0  0  0  0  0  0  0  0  0
   10.5429   -7.6831    0.0000 C   0  0  0  0  0  0  0  0  0  0  0  0
   10.5429   -6.8581    0.0000 C   0  0  0  0  0  0  0  0  0  0  0  0
    9.8284   -6.4456    0.0000 C   0  0  0  0  0  0  0  0  0  0  0  0
    9.1140   -6.8581    0.0000 C   0  0  2  0  0  0  0  0  0  0  0  0
    9.1140   -7.6831    0.0000 C   0  0  2  0  0  0  0  0  0  0  0  0
    8.3995   -8.0956    0.0000 C   0  0  1  0  0  0  0  0  0  0  0  0
    7.6850   -7.6831    0.0000 C   0  0  0  0  0  0  0  0  0  0  0  0
    6.9706   -8.0956    0.0000 C   0  0  0  0  0  0  0  0  0  0  0  0
    6.9706   -8.9206    0.0000 C   0  0  2  0  0  0  0  0  0  0  0  0
    6.2561   -9.3331    0.0000 C   0  0  1  0  0  0  0  0  0  0  0  0
    4.1127  -10.5706    0.0000 O   0  0  0  0  0  0  0  0  0  0  0  0
    9.8284   -5.6206    0.0000 C   0  0  0  0  0  0  0  0  0  0  0  0
    6.2561   -8.5081    0.0000 C   0  0  0  0  0  0  0  0  0  0  0  0
    8.3995   -6.4456    0.0000 C   0  0  0  0  0  0  0  0  0  0  0  0
   10.5429   -8.5081    0.0000 C   0  0  0  0  0  0  0  0  0  0  0  0
    7.6850   -8.5081    0.0000 C   0  0  0  0  0  0  0  0  0  0  0  0
    5.9541  -11.2850    0.0000 C   0  0  0  0  0  0  0  0  0  0  0  0
    5.1291  -11.2850    0.0000 C   0  0  0  0  0  0  0  0  0  0  0  0
    6.2561  -10.9831    0.0000 H   0  0  0  0  0  0  0  0  0  0  0  0
    9.1140   -8.5081    0.0000 H   0  0  0  0  0  0  0  0  0  0  0  0
    6.9706   -9.7456    0.0000 H   0  0  0  0  0  0  0  0  0  0  0  0
    8.3995   -9.7456    0.0000 C   0  0  0  0  0  0  0  0  0  0  0  0
    8.3995   -7.2706    0.0000 H   0  0  0  0  0  0  0  0  0  0  0  0
   10.5429   -9.3331    0.0000 O   0  0  0  0  0  0  0  0  0  0  0  0
  1  2  1  0  0  0  0
  2  3  1  0  0  0  0
  3  4  1  0  0  0  0
  4  5  1  0  0  0  0
  5  6  1  0  0  0  0
  6  7  1  0  0  0  0
  7  8  1  0  0  0  0
  8  9  1  0  0  0  0
  9 10  1  0  0  0  0
 10 11  1  0  0  0  0
 11 12  1  0  0  0  0
 12 13  1  0  0  0  0
 13 14  1  0  0  0  0
 14 15  1  0  0  0  0
 15 16  1  0  0  0  0
 16 17  1  0  0  0  0
 12 17  1  0  0  0  0
 17 18  1  0  0  0  0
  9 18  1  0  0  0  0
 18 19  1  0  0  0  0
 19 20  1  0  0  0  0
 20 21  1  0  0  0  0
  8 21  1  0  0  0  0
 21 22  1  0  0  0  0
  5 22  1  0  0  0  0
  1 22  1  0  0  0  0
  3 23  1  1  0  0  0
 15 24  2  0  0  0  0
 22 25  1  1  0  0  0
 16 26  1  6  0  0  0
 12 27  1  1  0  0  0
  8 28  1  1  0  0  0
  4 29  1  0  0  0  0
  4 30  1  0  0  0  0
  5 31  1  6  0  0  0
 17 32  1  6  0  0  0
 21 33  1  6  0  0  0
  9 34  1  6  0  0  0
 18 35  1  1  0  0  0
 27 36  1  0  0  0  0
M  END
>  <cdx:fragmentId>
5

$$$$
