101377894.cdx
  Mrv1902 05222410192D          

 71 79  0  0  0  0            999 V2000
    8.9257  -12.9932    0.0000 C   0  0  0  0  0  0  0  0  0  0  0  0
    8.2112  -12.5807    0.0000 C   0  0  0  0  0  0  0  0  0  0  0  0
    7.4967  -12.9932    0.0000 C   0  0  0  0  0  0  0  0  0  0  0  0
    6.7823  -12.5807    0.0000 C   0  0  0  0  0  0  0  0  0  0  0  0
    6.7823  -11.7557    0.0000 C   0  0  0  0  0  0  0  0  0  0  0  0
    7.4967  -11.3432    0.0000 C   0  0  0  0  0  0  0  0  0  0  0  0
    8.2112  -11.7557    0.0000 C   0  0  0  0  0  0  0  0  0  0  0  0
    8.9257  -13.8182    0.0000 O   0  0  0  0  0  0  0  0  0  0  0  0
    9.6401  -12.5807    0.0000 O   0  0  0  0  0  0  0  0  0  0  0  0
   11.4978  -14.4782    0.0000 C   0  0  2  0  0  0  0  0  0  0  0  0
   12.2122  -14.8907    0.0000 O   0  0  0  0  0  0  0  0  0  0  0  0
   12.2122  -14.0657    0.0000 C   0  0  1  0  0  0  0  0  0  0  0  0
   12.9969  -14.3206    0.0000 C   0  0  0  0  0  0  0  0  0  0  0  0
   13.4818  -13.6532    0.0000 C   0  0  0  0  0  0  0  0  0  0  0  0
   12.9969  -12.9857    0.0000 C   0  0  2  0  0  0  0  0  0  0  0  0
   12.2122  -13.2407    0.0000 C   0  0  1  0  0  0  0  0  0  0  0  0
   11.4978  -12.8282    0.0000 C   0  0  1  0  0  0  0  0  0  0  0  0
   10.7833  -13.2407    0.0000 C   0  0  2  0  0  0  0  0  0  0  0  0
   10.7833  -14.0657    0.0000 C   0  0  2  0  0  0  0  0  0  0  0  0
   10.0688  -14.4782    0.0000 C   0  0  1  0  0  0  0  0  0  0  0  0
    9.3544  -14.0657    0.0000 C   0  0  0  0  0  0  0  0  0  0  0  0
    8.6399  -14.4782    0.0000 C   0  0  0  0  0  0  0  0  0  0  0  0
    8.6399  -15.3032    0.0000 C   0  0  1  0  0  0  0  0  0  0  0  0
    9.3544  -15.7157    0.0000 C   0  0  0  0  0  0  0  0  0  0  0  0
   10.0688  -15.3032    0.0000 C   0  0  2  0  0  0  0  0  0  0  0  0
   10.7833  -15.7157    0.0000 C   0  0  0  0  0  0  0  0  0  0  0  0
   11.4978  -15.3032    0.0000 C   0  0  0  0  0  0  0  0  0  0  0  0
   10.0688  -13.6532    0.0000 C   0  0  0  0  0  0  0  0  0  0  0  0
   12.2985  -12.4202    0.0000 C   0  0  0  0  0  0  0  0  0  0  0  0
    7.9254  -15.7157    0.0000 O   0  0  0  0  0  0  0  0  0  0  0  0
    7.2109  -14.4782    0.0000 O   0  0  0  0  0  0  0  0  0  0  0  0
    7.2109  -15.3032    0.0000 C   0  0  2  0  0  0  0  0  0  0  0  0
    6.4965  -15.7157    0.0000 C   0  0  0  0  0  0  0  0  0  0  0  0
    5.7820  -15.3032    0.0000 C   0  0  2  0  0  0  0  0  0  0  0  0
    5.7820  -14.4782    0.0000 C   0  0  1  0  0  0  0  0  0  0  0  0
    6.4965  -14.0657    0.0000 C   0  0  1  0  0  0  0  0  0  0  0  0
    6.4965  -13.2407    0.0000 C   0  0  0  0  0  0  0  0  0  0  0  0
    5.0675  -15.7157    0.0000 O   0  0  0  0  0  0  0  0  0  0  0  0
    5.0675  -16.5407    0.0000 C   0  0  0  0  0  0  0  0  0  0  0  0
    5.0675  -14.0657    0.0000 O   0  0  0  0  0  0  0  0  0  0  0  0
    4.3531  -15.3032    0.0000 O   0  0  0  0  0  0  0  0  0  0  0  0
    4.3531  -14.4782    0.0000 C   0  0  2  0  0  0  0  0  0  0  0  0
    3.6386  -14.0657    0.0000 C   0  0  1  0  0  0  0  0  0  0  0  0
    2.9241  -14.4782    0.0000 C   0  0  1  0  0  0  0  0  0  0  0  0
    2.9241  -15.3032    0.0000 C   0  0  1  0  0  0  0  0  0  0  0  0
    3.6386  -15.7157    0.0000 C   0  0  1  0  0  0  0  0  0  0  0  0
    2.2097  -15.7157    0.0000 O   0  0  0  0  0  0  0  0  0  0  0  0
    2.9241  -16.9532    0.0000 O   0  0  0  0  0  0  0  0  0  0  0  0
    2.2097  -16.5407    0.0000 C   0  0  2  0  0  0  0  0  0  0  0  0
    1.4952  -16.9532    0.0000 C   0  0  1  0  0  0  0  0  0  0  0  0
    1.4952  -17.7782    0.0000 C   0  0  2  0  0  0  0  0  0  0  0  0
    2.2097  -18.1907    0.0000 C   0  0  1  0  0  0  0  0  0  0  0  0
    2.9241  -17.7782    0.0000 C   0  0  1  0  0  0  0  0  0  0  0  0
    3.6386  -18.1907    0.0000 C   0  0  0  0  0  0  0  0  0  0  0  0
    4.3531  -17.7782    0.0000 O   0  0  0  0  0  0  0  0  0  0  0  0
    2.2097  -19.0157    0.0000 O   0  0  0  0  0  0  0  0  0  0  0  0
    0.7807  -18.1907    0.0000 O   0  0  0  0  0  0  0  0  0  0  0  0
    0.7807  -16.5407    0.0000 O   0  0  0  0  0  0  0  0  0  0  0  0
    3.6386  -16.5407    0.0000 C   0  0  0  0  0  0  0  0  0  0  0  0
    2.2097  -14.0657    0.0000 O   0  0  0  0  0  0  0  0  0  0  0  0
    1.4952  -14.4782    0.0000 C   0  0  0  0  0  0  0  0  0  0  0  0
    3.6386  -13.2407    0.0000 O   0  0  0  0  0  0  0  0  0  0  0  0
   11.4978  -12.0032    0.0000 O   0  0  0  0  0  0  0  0  0  0  0  0
   10.7833  -11.5907    0.0000 C   0  0  0  0  0  0  0  0  0  0  0  0
   10.7833  -10.7657    0.0000 O   0  0  0  0  0  0  0  0  0  0  0  0
   10.0688  -12.0032    0.0000 C   0  0  0  0  0  0  0  0  0  0  0  0
   13.2518  -12.2011    0.0000 C   0  0  0  0  0  0  0  0  0  0  0  0
   12.6998  -11.5880    0.0000 O   0  0  0  0  0  0  0  0  0  0  0  0
   14.0588  -12.0296    0.0000 C   0  0  0  0  0  0  0  0  0  0  0  0
   10.7833  -14.8907    0.0000 H   0  0  0  0  0  0  0  0  0  0  0  0
   10.0688  -16.1282    0.0000 H   0  0  0  0  0  0  0  0  0  0  0  0
  1  2  1  0  0  0  0
  2  3  1  0  0  0  0
  3  4  2  0  0  0  0
  4  5  1  0  0  0  0
  5  6  2  0  0  0  0
  6  7  1  0  0  0  0
  2  7  2  0  0  0  0
  1  8  2  0  0  0  0
  1  9  1  0  0  0  0
 10 11  1  1  0  0  0
 12 11  1  1  0  0  0
 12 13  1  0  0  0  0
 13 14  1  0  0  0  0
 14 15  1  0  0  0  0
 15 16  1  0  0  0  0
 16 17  1  0  0  0  0
 17 18  1  0  0  0  0
 18 19  1  0  0  0  0
 19 20  1  0  0  0  0
 20 21  1  0  0  0  0
 21 22  1  0  0  0  0
 22 23  1  0  0  0  0
 23 24  1  0  0  0  0
 24 25  1  0  0  0  0
 25 26  1  0  0  0  0
 26 27  1  0  0  0  0
 10 27  1  0  0  0  0
 10 19  1  0  0  0  0
 20 25  1  0  0  0  0
 12 16  1  0  0  0  0
 10 12  1  0  0  0  0
 20 28  1  1  0  0  0
 16 29  1  1  0  0  0
 31 32  1  0  0  0  0
 32 33  1  0  0  0  0
 33 34  1  0  0  0  0
 34 35  1  0  0  0  0
 35 36  1  0  0  0  0
 31 36  1  0  0  0  0
 36 37  1  1  0  0  0
 38 39  1  0  0  0  0
 34 38  1  1  0  0  0
 41 42  1  0  0  0  0
 42 43  1  0  0  0  0
 43 44  1  0  0  0  0
 44 45  1  0  0  0  0
 45 46  1  0  0  0  0
 41 46  1  0  0  0  0
 48 49  1  0  0  0  0
 49 50  1  0  0  0  0
 50 51  1  0  0  0  0
 51 52  1  0  0  0  0
 52 53  1  0  0  0  0
 48 53  1  0  0  0  0
 54 55  1  0  0  0  0
 53 54  1  6  0  0  0
 52 56  1  1  0  0  0
 51 57  1  6  0  0  0
 50 58  1  1  0  0  0
 49 47  1  6  0  0  0
 45 47  1  1  0  0  0
 46 59  1  6  0  0  0
 60 61  1  0  0  0  0
 44 60  1  1  0  0  0
 43 62  1  1  0  0  0
 42 40  1  6  0  0  0
 35 40  1  6  0  0  0
 32 30  1  1  0  0  0
 23 30  1  1  0  0  0
 64 65  2  0  0  0  0
 64 66  1  0  0  0  0
 63 64  1  0  0  0  0
 17 63  1  1  0  0  0
 67 68  2  0  0  0  0
 67 69  1  0  0  0  0
 15 67  1  6  0  0  0
 18  9  1  6  0  0  0
 19 70  1  6  0  0  0
 25 71  1  6  0  0  0
M  END
>  <cdx:groupId>
240699

>  <cdx:fragmentId>
240575

$$$$
