281.cdx
  Mrv1902 05222410262D          

 22 25  0  0  0  0            999 V2000
    5.6885   -6.1407    0.0000 C   0  0  0  0  0  0  0  0  0  0  0  0
    4.9741   -6.5532    0.0000 C   0  0  0  0  0  0  0  0  0  0  0  0
    4.9741   -7.3782    0.0000 C   0  0  0  0  0  0  0  0  0  0  0  0
    5.6885   -7.7907    0.0000 C   0  0  0  0  0  0  0  0  0  0  0  0
    6.4030   -7.3782    0.0000 C   0  0  0  0  0  0  0  0  0  0  0  0
    7.1175   -7.7907    0.0000 C   0  0  0  0  0  0  0  0  0  0  0  0
    7.8319   -7.3782    0.0000 C   0  0  0  0  0  0  0  0  0  0  0  0
    7.8319   -6.5532    0.0000 C   0  0  1  0  0  0  0  0  0  0  0  0
    8.5464   -6.1407    0.0000 C   0  0  2  0  0  0  0  0  0  0  0  0
    9.3310   -6.3957    0.0000 C   0  0  0  0  0  0  0  0  0  0  0  0
    9.8160   -5.7282    0.0000 C   0  0  0  0  0  0  0  0  0  0  0  0
    9.3310   -5.0608    0.0000 C   0  0  1  0  0  0  0  0  0  0  0  0
    8.5464   -5.3157    0.0000 C   0  0  1  0  0  0  0  0  0  0  0  0
    7.8319   -4.9032    0.0000 C   0  0  0  0  0  0  0  0  0  0  0  0
    7.1175   -5.3157    0.0000 C   0  0  0  0  0  0  0  0  0  0  0  0
    7.1175   -6.1407    0.0000 C   0  0  2  0  0  0  0  0  0  0  0  0
    6.4030   -6.5532    0.0000 C   0  0  0  0  0  0  0  0  0  0  0  0
    9.5860   -4.2762    0.0000 O   0  0  0  0  0  0  0  0  0  0  0  0
    8.6327   -4.4953    0.0000 C   0  0  0  0  0  0  0  0  0  0  0  0
    7.8319   -5.7282    0.0000 H   0  0  0  0  0  0  0  0  0  0  0  0
    7.1175   -6.9657    0.0000 H   0  0  0  0  0  0  0  0  0  0  0  0
    8.5464   -6.9657    0.0000 H   0  0  0  0  0  0  0  0  0  0  0  0
  1  2  1  0  0  0  0
  2  3  2  0  0  0  0
  3  4  1  0  0  0  0
  4  5  2  0  0  0  0
  5  6  1  0  0  0  0
  6  7  1  0  0  0  0
  7  8  1  0  0  0  0
  8  9  1  0  0  0  0
  9 10  1  0  0  0  0
 10 11  1  0  0  0  0
 11 12  1  0  0  0  0
 12 13  1  0  0  0  0
  9 13  1  0  0  0  0
 13 14  1  0  0  0  0
 14 15  1  0  0  0  0
 15 16  1  0  0  0  0
  8 16  1  0  0  0  0
 16 17  1  0  0  0  0
  5 17  1  0  0  0  0
  1 17  2  0  0  0  0
 12 18  1  1  0  0  0
 13 19  1  1  0  0  0
  8 20  1  1  0  0  0
 16 21  1  6  0  0  0
  9 22  1  6  0  0  0
M  END
>  <cdx:fragmentId>
44

$$$$
