37786.cdx
  Mrv1902 05222410242D          

 14 13  0  0  0  0            999 V2000
    2.5369   -4.5581    0.0000 C   0  0  0  0  0  0  0  0  0  0  0  0
    3.2513   -4.1456    0.0000 C   0  0  0  0  0  0  0  0  0  0  0  0
    3.9658   -4.5581    0.0000 O   0  0  0  0  0  0  0  0  0  0  0  0
    3.2513   -3.3206    0.0000 O   0  0  0  0  0  0  0  0  0  0  0  0
    4.6803   -4.1456    0.0000 C   0  0  0  0  0  0  0  0  0  0  0  0
    5.3948   -4.5581    0.0000 C   0  0  0  0  0  0  0  0  0  0  0  0
    6.1092   -4.1456    0.0000 C   0  0  0  0  0  0  0  0  0  0  0  0
    6.8237   -4.5581    0.0000 C   0  0  0  0  0  0  0  0  0  0  0  0
    7.5382   -4.1456    0.0000 C   0  0  0  0  0  0  0  0  0  0  0  0
    8.2526   -4.5581    0.0000 C   0  0  0  0  0  0  0  0  0  0  0  0
    8.9671   -4.1456    0.0000 C   0  0  0  0  0  0  0  0  0  0  0  0
    9.6816   -4.5581    0.0000 C   0  0  0  0  0  0  0  0  0  0  0  0
    9.6816   -5.3831    0.0000 C   0  0  0  0  0  0  0  0  0  0  0  0
   10.3961   -5.7956    0.0000 C   0  0  0  0  0  0  0  0  0  0  0  0
  1  2  1  0  0  0  0
  2  3  1  0  0  0  0
  2  4  2  0  0  0  0
  3  5  1  0  0  0  0
  5  6  1  0  0  0  0
  6  7  1  0  0  0  0
  7  8  1  0  0  0  0
  8  9  1  0  0  0  0
  9 10  1  0  0  0  0
 10 11  1  0  0  0  0
 11 12  2  0  0  0  0
 12 13  1  0  0  0  0
 13 14  1  0  0  0  0
M  END
>  <cdx:fragmentId>
112

$$$$
