37789.cdx
  Mrv1902 05222410222D          

 39 43  0  0  0  0            999 V2000
    8.6396   -6.8240    0.0000 C   0  0  0  0  0  0  0  0  0  0  0  0
    9.3541   -6.4115    0.0000 C   0  0  2  0  0  0  0  0  0  0  0  0
   10.0685   -6.8240    0.0000 C   0  0  0  0  0  0  0  0  0  0  0  0
   10.0685   -7.6490    0.0000 C   0  0  0  0  0  0  0  0  0  0  0  0
    9.3541   -8.0615    0.0000 C   0  0  2  0  0  0  0  0  0  0  0  0
    9.3541   -8.8865    0.0000 C   0  0  1  0  0  0  0  0  0  0  0  0
    8.6396   -9.2990    0.0000 C   0  0  0  0  0  0  0  0  0  0  0  0
    7.9251   -8.8865    0.0000 C   0  0  1  0  0  0  0  0  0  0  0  0
    7.2107   -9.2990    0.0000 C   0  0  2  0  0  0  0  0  0  0  0  0
    7.2107  -10.1240    0.0000 C   0  0  0  0  0  0  0  0  0  0  0  0
    6.4962  -10.5365    0.0000 C   0  0  0  0  0  0  0  0  0  0  0  0
    5.7817  -10.1240    0.0000 C   0  0  1  0  0  0  0  0  0  0  0  0
    5.0672  -10.5365    0.0000 C   0  0  0  0  0  0  0  0  0  0  0  0
    4.3528  -10.1240    0.0000 C   0  0  2  0  0  0  0  0  0  0  0  0
    4.3528   -9.2990    0.0000 C   0  0  2  0  0  0  0  0  0  0  0  0
    5.0672   -8.8865    0.0000 C   0  0  0  0  0  0  0  0  0  0  0  0
    5.7817   -9.2990    0.0000 C   0  0  2  0  0  0  0  0  0  0  0  0
    6.4962   -8.8865    0.0000 C   0  0  1  0  0  0  0  0  0  0  0  0
    6.4962   -8.0615    0.0000 C   0  0  0  0  0  0  0  0  0  0  0  0
    7.2107   -7.6490    0.0000 C   0  0  0  0  0  0  0  0  0  0  0  0
    7.9251   -8.0615    0.0000 C   0  0  0  0  0  0  0  0  0  0  0  0
    8.6396   -7.6490    0.0000 C   0  0  1  0  0  0  0  0  0  0  0  0
   10.0022   -8.5015    0.0000 C   0  0  0  0  0  0  0  0  0  0  0  0
   10.0022   -9.3265    0.0000 O   0  0  0  0  0  0  0  0  0  0  0  0
   10.7167   -8.0890    0.0000 O   0  0  0  0  0  0  0  0  0  0  0  0
    5.7817   -8.4740    0.0000 C   0  0  0  0  0  0  0  0  0  0  0  0
    4.6547  -11.2510    0.0000 C   0  0  0  0  0  0  0  0  0  0  0  0
    7.2107   -8.4740    0.0000 C   0  0  0  0  0  0  0  0  0  0  0  0
    7.9251   -9.7115    0.0000 C   0  0  0  0  0  0  0  0  0  0  0  0
    8.9416   -5.6971    0.0000 C   0  0  0  0  0  0  0  0  0  0  0  0
    9.7666   -5.6971    0.0000 C   0  0  0  0  0  0  0  0  0  0  0  0
    5.4797  -11.2510    0.0000 C   0  0  0  0  0  0  0  0  0  0  0  0
    5.0672  -11.9655    0.0000 O   0  0  0  0  0  0  0  0  0  0  0  0
    3.6383   -8.8865    0.0000 O   0  0  0  0  0  0  0  0  0  0  0  0
    3.6383  -10.5365    0.0000 O   0  0  0  0  0  0  0  0  0  0  0  0
    9.3673   -9.8078    0.0000 O   0  0  0  0  0  0  0  0  0  0  0  0
    5.7817  -10.9490    0.0000 H   0  0  0  0  0  0  0  0  0  0  0  0
    8.6396   -8.4740    0.0000 H   0  0  0  0  0  0  0  0  0  0  0  0
    6.4962   -9.7115    0.0000 H   0  0  0  0  0  0  0  0  0  0  0  0
  1  2  1  0  0  0  0
  2  3  1  0  0  0  0
  3  4  1  0  0  0  0
  4  5  1  0  0  0  0
  5  6  1  0  0  0  0
  6  7  1  0  0  0  0
  7  8  1  0  0  0  0
  8  9  1  0  0  0  0
  9 10  1  0  0  0  0
 10 11  1  0  0  0  0
 11 12  1  0  0  0  0
 12 13  1  0  0  0  0
 13 14  1  0  0  0  0
 14 15  1  0  0  0  0
 15 16  1  0  0  0  0
 16 17  1  0  0  0  0
 12 17  1  0  0  0  0
 17 18  1  0  0  0  0
  9 18  1  0  0  0  0
 18 19  1  0  0  0  0
 19 20  1  0  0  0  0
 20 21  2  0  0  0  0
  8 21  1  0  0  0  0
 21 22  1  0  0  0  0
  5 22  1  0  0  0  0
  1 22  1  0  0  0  0
 23 24  2  0  0  0  0
 23 25  1  0  0  0  0
  5 23  1  1  0  0  0
 17 26  1  1  0  0  0
 13 27  1  0  0  0  0
  9 28  1  1  0  0  0
  8 29  1  6  0  0  0
  2 30  1  1  0  0  0
  2 31  1  6  0  0  0
 32 33  1  0  0  0  0
 13 32  1  0  0  0  0
 15 34  1  1  0  0  0
 14 35  1  1  0  0  0
  6 36  1  6  0  0  0
 12 37  1  6  0  0  0
 22 38  1  6  0  0  0
 18 39  1  6  0  0  0
M  END
>  <cdx:fragmentId>
832

$$$$
