37785.cdx
  Mrv1902 05222410232D          

 51 59  0  0  0  0            999 V2000
    5.1690   -8.8550    0.0000 C   0  0  0  0  0  0  0  0  0  0  0  0
    5.1690   -9.6800    0.0000 C   0  0  1  0  0  0  0  0  0  0  0  0
    5.8834  -10.0925    0.0000 C   0  0  0  0  0  0  0  0  0  0  0  0
    6.5979   -9.6800    0.0000 C   0  0  1  0  0  0  0  0  0  0  0  0
    6.5979   -8.8550    0.0000 C   0  0  2  0  0  0  0  0  0  0  0  0
    5.8834   -8.4425    0.0000 C   0  0  0  0  0  0  0  0  0  0  0  0
    7.3124  -10.0925    0.0000 C   0  0  0  0  0  0  0  0  0  0  0  0
    8.0268   -9.6800    0.0000 C   0  0  0  0  0  0  0  0  0  0  0  0
    8.0268   -8.8550    0.0000 C   0  0  2  0  0  0  0  0  0  0  0  0
    7.3124   -8.4425    0.0000 C   0  0  1  0  0  0  0  0  0  0  0  0
    8.7413   -8.4425    0.0000 C   0  0  1  0  0  0  0  0  0  0  0  0
    8.7413   -7.6175    0.0000 C   0  0  2  0  0  0  0  0  0  0  0  0
    8.0268   -7.2050    0.0000 C   0  0  1  0  0  0  0  0  0  0  0  0
    7.3124   -7.6175    0.0000 C   0  0  0  0  0  0  0  0  0  0  0  0
    9.5259   -8.6974    0.0000 C   0  0  0  0  0  0  0  0  0  0  0  0
   10.0109   -8.0300    0.0000 C   0  0  1  0  0  0  0  0  0  0  0  0
    9.5259   -7.3626    0.0000 C   0  0  2  0  0  0  0  0  0  0  0  0
    4.4545  -10.0925    0.0000 O   0  0  0  0  0  0  0  0  0  0  0  0
    6.5979  -10.5050    0.0000 H   0  0  0  0  0  0  0  0  0  0  0  0
    6.5979   -8.0300    0.0000 C   0  0  0  0  0  0  0  0  0  0  0  0
    8.7413   -6.7925    0.0000 C   0  0  0  0  0  0  0  0  0  0  0  0
    5.4709  -10.8070    0.0000 C   0  0  0  0  0  0  0  0  0  0  0  0
    6.2959  -10.8070    0.0000 C   0  0  0  0  0  0  0  0  0  0  0  0
    8.7413   -9.2675    0.0000 C   0  0  0  0  0  0  0  0  0  0  0  0
    8.0268   -8.0300    0.0000 H   0  0  0  0  0  0  0  0  0  0  0  0
    8.0268   -6.3800    0.0000 O   0  0  0  0  0  0  0  0  0  0  0  0
   10.8313   -7.9438    0.0000 O   0  0  0  0  0  0  0  0  0  0  0  0
   11.1669   -7.1901    0.0000 C   0  0  2  0  0  0  0  0  0  0  0  0
   10.6820   -6.5226    0.0000 C   0  0  0  0  0  0  0  0  0  0  0  0
    9.8615   -6.6089    0.0000 C   0  0  1  0  0  0  0  0  0  0  0  0
    9.1134   -6.6481    0.0000 H   0  0  0  0  0  0  0  0  0  0  0  0
   10.4234   -8.7445    0.0000 H   0  0  0  0  0  0  0  0  0  0  0  0
    9.4490   -5.8944    0.0000 C   0  0  0  0  0  0  0  0  0  0  0  0
   11.7503   -7.7735    0.0000 O   0  0  0  0  0  0  0  0  0  0  0  0
   12.4853   -7.3989    0.0000 C   0  0  0  0  0  0  0  0  0  0  0  0
   12.3563   -6.5841    0.0000 C   0  0  2  0  0  0  0  0  0  0  0  0
   11.5414   -6.4550    0.0000 C   0  0  0  0  0  0  0  0  0  0  0  0
   12.1248   -5.8716    0.0000 O   0  0  0  0  0  0  0  0  0  0  0  0
   13.1813   -6.5841    0.0000 C   0  0  0  0  0  0  0  0  0  0  0  0
    3.7400   -9.6800    0.0000 C   0  0  2  0  0  0  0  0  0  0  0  0
    3.7400   -8.8550    0.0000 O   0  0  0  0  0  0  0  0  0  0  0  0
    3.0256   -8.4425    0.0000 C   0  0  0  0  0  0  0  0  0  0  0  0
    2.3111   -8.8550    0.0000 C   0  0  2  0  0  0  0  0  0  0  0  0
    2.3111   -9.6800    0.0000 C   0  0  1  0  0  0  0  0  0  0  0  0
    3.0256  -10.0925    0.0000 C   0  0  1  0  0  0  0  0  0  0  0  0
    1.5966  -10.0925    0.0000 O   0  0  0  0  0  0  0  0  0  0  0  0
    1.5966   -8.4425    0.0000 O   0  0  0  0  0  0  0  0  0  0  0  0
    3.0256  -10.9175    0.0000 O   0  0  0  0  0  0  0  0  0  0  0  0
    7.3124   -5.9675    0.0000 C   0  0  0  0  0  0  0  0  0  0  0  0
    7.3124   -5.1425    0.0000 O   0  0  0  0  0  0  0  0  0  0  0  0
    6.5979   -6.3800    0.0000 C   0  0  0  0  0  0  0  0  0  0  0  0
  1  2  1  0  0  0  0
  2  3  1  0  0  0  0
  3  4  1  0  0  0  0
  4  5  1  0  0  0  0
  5  6  1  0  0  0  0
  6  1  1  0  0  0  0
  4  7  1  0  0  0  0
  7  8  1  0  0  0  0
  8  9  1  0  0  0  0
  9 10  1  0  0  0  0
 10  5  1  0  0  0  0
  9 11  1  0  0  0  0
 11 12  1  0  0  0  0
 12 13  1  0  0  0  0
 13 14  1  0  0  0  0
 10 14  1  6  0  0  0
 11 15  1  0  0  0  0
 15 16  1  0  0  0  0
 17 12  1  0  0  0  0
  2 18  1  1  0  0  0
  4 19  1  6  0  0  0
  5 20  1  1  0  0  0
 12 21  1  1  0  0  0
 10 20  1  0  0  0  0
  3 22  1  0  0  0  0
  3 23  1  0  0  0  0
 11 24  1  6  0  0  0
  9 25  1  1  0  0  0
 13 26  1  1  0  0  0
 17 16  1  0  0  0  0
 16 27  1  0  0  0  0
 27 28  1  0  0  0  0
 28 29  1  6  0  0  0
 29 30  1  0  0  0  0
 30 17  1  0  0  0  0
 17 31  1  6  0  0  0
 16 32  1  6  0  0  0
 30 33  1  6  0  0  0
 28 34  1  0  0  0  0
 34 35  1  0  0  0  0
 35 36  1  0  0  0  0
 36 37  1  0  0  0  0
 37 28  1  0  0  0  0
 37 38  1  0  0  0  0
 38 36  1  0  0  0  0
 36 39  1  1  0  0  0
 40 18  1  1  0  0  0
 40 41  1  0  0  0  0
 41 42  1  0  0  0  0
 42 43  1  0  0  0  0
 43 44  1  0  0  0  0
 44 45  1  0  0  0  0
 45 40  1  0  0  0  0
 44 46  1  1  0  0  0
 43 47  1  6  0  0  0
 45 48  1  6  0  0  0
 26 49  1  0  0  0  0
 49 50  2  0  0  0  0
 49 51  1  0  0  0  0
M  END
>  <cdx:fragmentId>
451

$$$$
