37782.cdx
  Mrv1902 05222410252D          

 14 13  0  0  0  0            999 V2000
    4.0769   -7.4932    0.0000 C   0  0  0  0  0  0  0  0  0  0  0  0
    4.7913   -7.9057    0.0000 C   0  0  0  0  0  0  0  0  0  0  0  0
    5.5058   -7.4932    0.0000 O   0  0  0  0  0  0  0  0  0  0  0  0
    4.7913   -8.7307    0.0000 O   0  0  0  0  0  0  0  0  0  0  0  0
    6.2203   -7.9057    0.0000 C   0  0  0  0  0  0  0  0  0  0  0  0
    6.9348   -7.4932    0.0000 C   0  0  0  0  0  0  0  0  0  0  0  0
    7.6492   -7.9057    0.0000 C   0  0  0  0  0  0  0  0  0  0  0  0
    8.3637   -7.4932    0.0000 C   0  0  0  0  0  0  0  0  0  0  0  0
    8.3637   -6.6682    0.0000 C   0  0  0  0  0  0  0  0  0  0  0  0
    9.0782   -6.2557    0.0000 C   0  0  0  0  0  0  0  0  0  0  0  0
    9.0782   -5.4307    0.0000 C   0  0  0  0  0  0  0  0  0  0  0  0
    9.7926   -5.0182    0.0000 C   0  0  0  0  0  0  0  0  0  0  0  0
    9.7926   -4.1932    0.0000 C   0  0  0  0  0  0  0  0  0  0  0  0
   10.5071   -3.7807    0.0000 C   0  0  0  0  0  0  0  0  0  0  0  0
  1  2  1  0  0  0  0
  2  3  1  0  0  0  0
  2  4  2  0  0  0  0
  3  5  1  0  0  0  0
  5  6  1  0  0  0  0
  6  7  1  0  0  0  0
  7  8  2  0  0  0  0
  8  9  1  0  0  0  0
  9 10  1  0  0  0  0
 10 11  1  0  0  0  0
 11 12  1  0  0  0  0
 12 13  1  0  0  0  0
 13 14  1  0  0  0  0
M  END
>  <cdx:fragmentId>
112

$$$$
