37799.cdx
  Mrv1902 05222410212D          

 47 52  0  0  0  0            999 V2000
   11.3546   -3.9810    0.0000 C   0  0  1  0  0  0  0  0  0  0  0  0
   12.0691   -3.5685    0.0000 C   0  0  1  0  0  0  0  0  0  0  0  0
   12.7835   -3.9810    0.0000 C   0  0  0  0  0  0  0  0  0  0  0  0
   12.7835   -4.8060    0.0000 C   0  0  0  0  0  0  0  0  0  0  0  0
   12.0691   -5.2185    0.0000 C   0  0  2  0  0  0  0  0  0  0  0  0
   12.0691   -6.0435    0.0000 C   0  0  0  0  0  0  0  0  0  0  0  0
   11.3546   -6.4560    0.0000 C   0  0  0  0  0  0  0  0  0  0  0  0
   10.6401   -6.0435    0.0000 C   0  0  1  0  0  0  0  0  0  0  0  0
    9.9256   -6.4560    0.0000 C   0  0  2  0  0  0  0  0  0  0  0  0
    9.9256   -7.2810    0.0000 C   0  0  0  0  0  0  0  0  0  0  0  0
    9.2112   -7.6935    0.0000 C   0  0  0  0  0  0  0  0  0  0  0  0
    8.4967   -7.2810    0.0000 C   0  0  1  0  0  0  0  0  0  0  0  0
    7.7822   -7.6935    0.0000 C   0  0  0  0  0  0  0  0  0  0  0  0
    7.0678   -7.2810    0.0000 C   0  0  2  0  0  0  0  0  0  0  0  0
    7.0678   -6.4560    0.0000 C   0  0  0  0  0  0  0  0  0  0  0  0
    7.7822   -6.0435    0.0000 C   0  0  0  0  0  0  0  0  0  0  0  0
    8.4967   -6.4560    0.0000 C   0  0  2  0  0  0  0  0  0  0  0  0
    9.2112   -6.0435    0.0000 C   0  0  1  0  0  0  0  0  0  0  0  0
    9.2112   -5.2185    0.0000 C   0  0  0  0  0  0  0  0  0  0  0  0
    9.9256   -4.8060    0.0000 C   0  0  0  0  0  0  0  0  0  0  0  0
   10.6401   -5.2185    0.0000 C   0  0  0  0  0  0  0  0  0  0  0  0
   11.3546   -4.8060    0.0000 C   0  0  2  0  0  0  0  0  0  0  0  0
   12.7835   -5.6310    0.0000 C   0  0  0  0  0  0  0  0  0  0  0  0
   12.7835   -6.4560    0.0000 O   0  0  0  0  0  0  0  0  0  0  0  0
   13.4980   -5.2185    0.0000 O   0  0  0  0  0  0  0  0  0  0  0  0
    8.4967   -5.6310    0.0000 C   0  0  0  0  0  0  0  0  0  0  0  0
    8.1947   -8.4079    0.0000 C   0  0  0  0  0  0  0  0  0  0  0  0
    7.3697   -8.4079    0.0000 C   0  0  0  0  0  0  0  0  0  0  0  0
    9.9256   -5.6310    0.0000 C   0  0  0  0  0  0  0  0  0  0  0  0
   10.6401   -6.8685    0.0000 C   0  0  0  0  0  0  0  0  0  0  0  0
   12.0691   -2.7435    0.0000 C   0  0  0  0  0  0  0  0  0  0  0  0
   10.6401   -3.5685    0.0000 C   0  0  0  0  0  0  0  0  0  0  0  0
    6.3533   -7.6935    0.0000 O   0  0  0  0  0  0  0  0  0  0  0  0
    5.6388   -7.2810    0.0000 C   0  0  0  0  0  0  0  0  0  0  0  0
    4.9244   -7.6935    0.0000 C   0  0  0  0  0  0  0  0  0  0  0  0
    4.2099   -7.2810    0.0000 C   0  0  0  0  0  0  0  0  0  0  0  0
    5.6388   -6.4560    0.0000 O   0  0  0  0  0  0  0  0  0  0  0  0
    3.4954   -7.6935    0.0000 C   0  0  0  0  0  0  0  0  0  0  0  0
    3.4954   -8.5185    0.0000 C   0  0  0  0  0  0  0  0  0  0  0  0
    2.7809   -8.9310    0.0000 C   0  0  0  0  0  0  0  0  0  0  0  0
    2.0665   -8.5185    0.0000 C   0  0  0  0  0  0  0  0  0  0  0  0
    2.0665   -7.6935    0.0000 C   0  0  0  0  0  0  0  0  0  0  0  0
    2.7809   -7.2810    0.0000 C   0  0  0  0  0  0  0  0  0  0  0  0
    1.3520   -8.9310    0.0000 O   0  0  0  0  0  0  0  0  0  0  0  0
    8.4967   -8.1060    0.0000 H   0  0  0  0  0  0  0  0  0  0  0  0
   11.3546   -5.6310    0.0000 H   0  0  0  0  0  0  0  0  0  0  0  0
    9.2112   -6.8685    0.0000 H   0  0  0  0  0  0  0  0  0  0  0  0
  1  2  1  0  0  0  0
  2  3  1  0  0  0  0
  3  4  1  0  0  0  0
  4  5  1  0  0  0  0
  5  6  1  0  0  0  0
  6  7  1  0  0  0  0
  7  8  1  0  0  0  0
  8  9  1  0  0  0  0
  9 10  1  0  0  0  0
 10 11  1  0  0  0  0
 11 12  1  0  0  0  0
 12 13  1  0  0  0  0
 13 14  1  0  0  0  0
 14 15  1  0  0  0  0
 15 16  1  0  0  0  0
 16 17  1  0  0  0  0
 12 17  1  0  0  0  0
 17 18  1  0  0  0  0
  9 18  1  0  0  0  0
 18 19  1  0  0  0  0
 19 20  1  0  0  0  0
 20 21  2  0  0  0  0
  8 21  1  0  0  0  0
 21 22  1  0  0  0  0
  5 22  1  0  0  0  0
  1 22  1  0  0  0  0
 23 24  2  0  0  0  0
 23 25  1  0  0  0  0
  5 23  1  1  0  0  0
 17 26  1  1  0  0  0
 13 27  1  0  0  0  0
 13 28  1  0  0  0  0
  9 29  1  1  0  0  0
  8 30  1  6  0  0  0
  2 31  1  6  0  0  0
  1 32  1  1  0  0  0
 34 35  1  0  0  0  0
 35 36  2  0  0  0  0
 34 37  2  0  0  0  0
 38 39  1  0  0  0  0
 39 40  2  0  0  0  0
 40 41  1  0  0  0  0
 41 42  2  0  0  0  0
 42 43  1  0  0  0  0
 38 43  2  0  0  0  0
 41 44  1  0  0  0  0
 36 38  1  0  0  0  0
 33 34  1  0  0  0  0
 14 33  1  1  0  0  0
 12 45  1  6  0  0  0
 22 46  1  1  0  0  0
 18 47  1  6  0  0  0
M  END
>  <cdx:fragmentId>
284

$$$$
