37790.cdx
  Mrv1902 05222410232D          

 37 41  0  0  0  0            999 V2000
    8.7634   -6.5628    0.0000 C   0  0  2  0  0  0  0  0  0  0  0  0
    9.4778   -6.1503    0.0000 C   0  0  1  0  0  0  0  0  0  0  0  0
   10.1923   -6.5628    0.0000 C   0  0  0  0  0  0  0  0  0  0  0  0
   10.1923   -7.3878    0.0000 C   0  0  0  0  0  0  0  0  0  0  0  0
    9.4778   -7.8003    0.0000 C   0  0  2  0  0  0  0  0  0  0  0  0
    9.4778   -8.6253    0.0000 C   0  0  0  0  0  0  0  0  0  0  0  0
    8.7634   -9.0378    0.0000 C   0  0  0  0  0  0  0  0  0  0  0  0
    8.0489   -8.6253    0.0000 C   0  0  1  0  0  0  0  0  0  0  0  0
    7.3344   -9.0378    0.0000 C   0  0  2  0  0  0  0  0  0  0  0  0
    7.3344   -9.8628    0.0000 C   0  0  0  0  0  0  0  0  0  0  0  0
    6.6199  -10.2753    0.0000 C   0  0  0  0  0  0  0  0  0  0  0  0
    5.9055   -9.8628    0.0000 C   0  0  1  0  0  0  0  0  0  0  0  0
    5.1910  -10.2753    0.0000 C   0  0  0  0  0  0  0  0  0  0  0  0
    4.4765   -9.8628    0.0000 C   0  0  1  0  0  0  0  0  0  0  0  0
    4.4765   -9.0378    0.0000 C   0  0  0  0  0  0  0  0  0  0  0  0
    5.1910   -8.6253    0.0000 C   0  0  0  0  0  0  0  0  0  0  0  0
    5.9055   -9.0378    0.0000 C   0  0  2  0  0  0  0  0  0  0  0  0
    6.6199   -8.6253    0.0000 C   0  0  1  0  0  0  0  0  0  0  0  0
    6.6199   -7.8003    0.0000 C   0  0  0  0  0  0  0  0  0  0  0  0
    7.3344   -7.3878    0.0000 C   0  0  0  0  0  0  0  0  0  0  0  0
    8.0489   -7.8003    0.0000 C   0  0  0  0  0  0  0  0  0  0  0  0
    8.7634   -7.3878    0.0000 C   0  0  2  0  0  0  0  0  0  0  0  0
    5.9055   -8.2128    0.0000 C   0  0  0  0  0  0  0  0  0  0  0  0
    7.3344   -8.2128    0.0000 C   0  0  0  0  0  0  0  0  0  0  0  0
    8.0489   -9.4503    0.0000 C   0  0  0  0  0  0  0  0  0  0  0  0
    8.7634   -8.2128    0.0000 H   0  0  0  0  0  0  0  0  0  0  0  0
    9.4778   -5.3253    0.0000 C   0  0  0  0  0  0  0  0  0  0  0  0
    4.7785  -10.9898    0.0000 C   0  0  0  0  0  0  0  0  0  0  0  0
    5.6035  -10.9898    0.0000 C   0  0  0  0  0  0  0  0  0  0  0  0
    3.7621  -10.2753    0.0000 O   0  0  0  0  0  0  0  0  0  0  0  0
    5.9055  -10.6878    0.0000 H   0  0  0  0  0  0  0  0  0  0  0  0
    6.6199   -9.4503    0.0000 H   0  0  0  0  0  0  0  0  0  0  0  0
    8.3509   -5.8483    0.0000 O   0  0  0  0  0  0  0  0  0  0  0  0
    7.9384   -6.5628    0.0000 C   0  0  0  0  0  0  0  0  0  0  0  0
   10.1923   -8.2128    0.0000 C   0  0  0  0  0  0  0  0  0  0  0  0
   10.9068   -7.8003    0.0000 O   0  0  0  0  0  0  0  0  0  0  0  0
   10.1923   -9.0378    0.0000 O   0  0  0  0  0  0  0  0  0  0  0  0
  1  2  1  0  0  0  0
  2  3  1  0  0  0  0
  3  4  1  0  0  0  0
  4  5  1  0  0  0  0
  5  6  1  0  0  0  0
  6  7  1  0  0  0  0
  7  8  1  0  0  0  0
  8  9  1  0  0  0  0
  9 10  1  0  0  0  0
 10 11  1  0  0  0  0
 11 12  1  0  0  0  0
 12 13  1  0  0  0  0
 13 14  1  0  0  0  0
 14 15  1  0  0  0  0
 15 16  1  0  0  0  0
 16 17  1  0  0  0  0
 12 17  1  0  0  0  0
 17 18  1  0  0  0  0
  9 18  1  0  0  0  0
 18 19  1  0  0  0  0
 19 20  1  0  0  0  0
 20 21  2  0  0  0  0
  8 21  1  0  0  0  0
 21 22  1  0  0  0  0
  5 22  1  0  0  0  0
  1 22  1  0  0  0  0
 17 23  1  1  0  0  0
  9 24  1  1  0  0  0
  8 25  1  6  0  0  0
 22 26  1  1  0  0  0
  2 27  1  6  0  0  0
 13 28  1  0  0  0  0
 13 29  1  0  0  0  0
 14 30  1  6  0  0  0
 12 31  1  6  0  0  0
 18 32  1  6  0  0  0
  1 33  1  6  0  0  0
  1 34  1  1  0  0  0
  5 35  1  1  0  0  0
 35 36  2  0  0  0  0
 35 37  1  0  0  0  0
M  END
>  <cdx:fragmentId>
832

$$$$
