37791.cdx
  Mrv1902 05222410232D          

 26 32  0  0  0  0            999 V2000
    7.5350   -8.3235    0.0000 C   0  0  1  0  0  0  0  0  0  0  0  0
    6.8160   -8.7280    0.0000 C   0  0  0  0  0  0  0  0  0  0  0  0
    6.8068   -9.5530    0.0000 C   0  0  0  0  0  0  0  0  0  0  0  0
    7.5166   -9.9734    0.0000 C   0  0  0  0  0  0  0  0  0  0  0  0
    8.2356   -9.5689    0.0000 C   0  0  0  0  0  0  0  0  0  0  0  0
    8.2448   -8.7440    0.0000 C   0  0  0  0  0  0  0  0  0  0  0  0
    8.9638   -8.3395    0.0000 C   0  0  1  0  0  0  0  0  0  0  0  0
    8.9730   -7.5145    0.0000 C   0  0  0  0  0  0  0  0  0  0  0  0
    8.2632   -7.0941    0.0000 C   0  0  0  0  0  0  0  0  0  0  0  0
    7.5442   -7.4986    0.0000 C   0  0  0  0  0  0  0  0  0  0  0  0
    6.1061   -8.3076    0.0000 C   0  0  0  0  0  0  0  0  0  0  0  0
    5.3871   -8.7121    0.0000 C   0  0  2  0  0  0  0  0  0  0  0  0
    5.3779   -9.5370    0.0000 C   0  0  2  0  0  0  0  0  0  0  0  0
    6.0877   -9.9575    0.0000 C   0  0  1  0  0  0  0  0  0  0  0  0
    6.8200   -8.0575    0.0000 C   0  0  0  0  0  0  0  0  0  0  0  0
    7.8403   -8.0249    0.0000 C   0  0  0  0  0  0  0  0  0  0  0  0
    7.8587   -6.3750    0.0000 C   0  0  0  0  0  0  0  0  0  0  0  0
    6.3250   -8.8275    0.0000 N   0  0  0  0  0  0  0  0  0  0  0  0
    5.2525  -10.5600    0.0000 C   0  0  0  0  0  0  0  0  0  0  0  0
    6.0877  -10.7825    0.0000 C   0  0  0  0  0  0  0  0  0  0  0  0
    9.6783   -8.7520    0.0000 O   0  0  0  0  0  0  0  0  0  0  0  0
    9.6875   -7.1020    0.0000 C   0  0  0  0  0  0  0  0  0  0  0  0
    4.6773   -8.2917    0.0000 O   0  0  0  0  0  0  0  0  0  0  0  0
    4.7945  -10.1204    0.0000 O   0  0  0  0  0  0  0  0  0  0  0  0
    7.5258   -9.1485    0.0000 O   0  0  0  0  0  0  0  0  0  0  0  0
    4.5810   -9.3235    0.0000 H   0  0  0  0  0  0  0  0  0  0  0  0
  1  2  1  0  0  0  0
  2  3  1  0  0  0  0
  3  4  1  0  0  0  0
  4  5  1  0  0  0  0
  5  6  1  0  0  0  0
  6  1  1  0  0  0  0
  6  7  1  0  0  0  0
  7  8  1  0  0  0  0
  8  9  1  0  0  0  0
  9 10  1  0  0  0  0
 10  1  1  0  0  0  0
  2 11  1  0  0  0  0
 11 12  1  0  0  0  0
 12 13  1  0  0  0  0
 13 14  1  0  0  0  0
 14  3  1  0  0  0  0
  2 15  1  0  0  0  0
  6 16  1  0  0  0  0
  9 17  1  0  0  0  0
 16 17  1  0  0  0  0
 15 18  1  0  0  0  0
 14 19  1  0  0  0  0
 19 18  1  0  0  0  0
 15 16  1  0  0  0  0
 14 20  1  1  0  0  0
 18  4  1  0  0  0  0
  7 21  1  1  0  0  0
  8 22  2  0  0  0  0
 12 23  1  6  0  0  0
 13 24  1  6  0  0  0
  1 25  1  1  0  0  0
 13 26  1  1  0  0  0
M  END
>  <cdx:fragmentId>
966

$$$$
