37795.cdx
  Mrv1902 05222410262D          

 23 24  0  0  0  0            999 V2000
    8.3047   -7.1589    0.0000 O   0  0  0  0  0  0  0  0  0  0  0  0
    6.8758   -7.1589    0.0000 O   0  0  0  0  0  0  0  0  0  0  0  0
    7.5903   -7.5714    0.0000 C   0  0  0  0  0  0  0  0  0  0  0  0
    7.5903   -8.3964    0.0000 C   0  0  0  0  0  0  0  0  0  0  0  0
    6.8758   -8.8089    0.0000 C   0  0  0  0  0  0  0  0  0  0  0  0
    6.1613   -8.3964    0.0000 C   0  0  0  0  0  0  0  0  0  0  0  0
    6.1613   -7.5714    0.0000 C   0  0  0  0  0  0  0  0  0  0  0  0
    5.4469   -7.1589    0.0000 C   0  0  0  0  0  0  0  0  0  0  0  0
    4.7324   -7.5714    0.0000 O   0  0  0  0  0  0  0  0  0  0  0  0
    5.4469   -8.8089    0.0000 O   0  0  0  0  0  0  0  0  0  0  0  0
    6.8758   -9.6339    0.0000 O   0  0  0  0  0  0  0  0  0  0  0  0
    8.3047   -8.8089    0.0000 O   0  0  0  0  0  0  0  0  0  0  0  0
    8.3047   -6.3339    0.0000 C   0  0  0  0  0  0  0  0  0  0  0  0
    9.0192   -5.9214    0.0000 C   0  0  0  0  0  0  0  0  0  0  0  0
    9.0192   -5.0964    0.0000 C   0  0  0  0  0  0  0  0  0  0  0  0
    8.3047   -4.6839    0.0000 C   0  0  0  0  0  0  0  0  0  0  0  0
    7.5903   -5.0964    0.0000 O   0  0  0  0  0  0  0  0  0  0  0  0
    7.5903   -5.9214    0.0000 C   0  0  0  0  0  0  0  0  0  0  0  0
    9.7337   -6.3339    0.0000 C   0  0  0  0  0  0  0  0  0  0  0  0
    9.7337   -4.6839    0.0000 O   0  0  0  0  0  0  0  0  0  0  0  0
    8.3047   -3.8589    0.0000 C   0  0  0  0  0  0  0  0  0  0  0  0
    7.5903   -3.4464    0.0000 O   0  0  0  0  0  0  0  0  0  0  0  0
    9.0192   -3.4464    0.0000 O   0  0  0  0  0  0  0  0  0  0  0  0
  2  3  1  0  0  0  0
  3  4  1  0  0  0  0
  4  5  1  0  0  0  0
  5  6  1  0  0  0  0
  6  7  1  0  0  0  0
  2  7  1  0  0  0  0
  8  9  1  0  0  0  0
  7  8  1  0  0  0  0
  6 10  1  0  0  0  0
  5 11  1  0  0  0  0
  4 12  1  0  0  0  0
  1  3  1  0  0  0  0
  1 13  1  0  0  0  0
 13 14  1  0  0  0  0
 14 15  1  0  0  0  0
 15 16  1  0  0  0  0
 16 17  1  0  0  0  0
 17 18  1  0  0  0  0
 18 13  1  0  0  0  0
 14 19  1  0  0  0  0
 15 20  1  0  0  0  0
 16 21  1  0  0  0  0
 21 22  1  0  0  0  0
 21 23  2  0  0  0  0
M  END
>  <cdx:fragmentId>
25

$$$$
