296.cdx
  Mrv1902 05222410252D          

 20 21  0  0  0  0            999 V2000
    7.0678   -6.3009    0.0000 C   0  0  0  0  0  0  0  0  0  0  0  0
    6.3533   -6.7134    0.0000 C   0  0  0  0  0  0  0  0  0  0  0  0
    5.6388   -6.3009    0.0000 C   0  0  0  0  0  0  0  0  0  0  0  0
    4.9244   -6.7134    0.0000 C   0  0  0  0  0  0  0  0  0  0  0  0
    7.0678   -7.1259    0.0000 O   0  0  0  0  0  0  0  0  0  0  0  0
    6.3533   -7.5384    0.0000 O   0  0  0  0  0  0  0  0  0  0  0  0
    7.0678   -5.4759    0.0000 C   0  0  0  0  0  0  0  0  0  0  0  0
    6.3533   -5.0634    0.0000 C   0  0  0  0  0  0  0  0  0  0  0  0
    6.3533   -4.2384    0.0000 C   0  0  0  0  0  0  0  0  0  0  0  0
    7.0678   -3.8259    0.0000 C   0  0  0  0  0  0  0  0  0  0  0  0
    7.7822   -4.2384    0.0000 C   0  0  0  0  0  0  0  0  0  0  0  0
    7.7822   -5.0634    0.0000 C   0  0  0  0  0  0  0  0  0  0  0  0
    7.7822   -6.7134    0.0000 C   0  0  0  0  0  0  0  0  0  0  0  0
    8.4967   -6.3009    0.0000 C   0  0  0  0  0  0  0  0  0  0  0  0
    9.2112   -6.7134    0.0000 C   0  0  0  0  0  0  0  0  0  0  0  0
    9.2112   -7.5384    0.0000 C   0  0  0  0  0  0  0  0  0  0  0  0
    8.4967   -7.9509    0.0000 C   0  0  0  0  0  0  0  0  0  0  0  0
    7.7822   -7.5384    0.0000 C   0  0  0  0  0  0  0  0  0  0  0  0
    9.9256   -7.9509    0.0000 C   0  0  0  0  0  0  0  0  0  0  0  0
    5.6388   -5.4759    0.0000 C   0  0  0  0  0  0  0  0  0  0  0  0
  1  2  1  0  0  0  0
  2  3  1  0  0  0  0
  3  4  1  0  0  0  0
  1  5  1  0  0  0  0
  2  6  1  0  0  0  0
  7  8  1  0  0  0  0
  8  9  2  0  0  0  0
  9 10  1  0  0  0  0
 10 11  2  0  0  0  0
 11 12  1  0  0  0  0
  7 12  2  0  0  0  0
  1  7  1  0  0  0  0
 13 14  1  0  0  0  0
 14 15  2  0  0  0  0
 15 16  1  0  0  0  0
 16 17  2  0  0  0  0
 17 18  1  0  0  0  0
 13 18  2  0  0  0  0
 16 19  1  0  0  0  0
  1 13  1  0  0  0  0
  3 20  1  0  0  0  0
M  END
>  <cdx:fragmentId>
153

$$$$
