37794.cdx
  Mrv1902 05222410252D          

 13 13  0  0  0  0            999 V2000
    5.3454   -6.3576    0.0000 O   0  0  0  0  0  0  0  0  0  0  0  0
    4.6504   -7.6061    0.0000 C   0  0  0  0  0  0  0  0  0  0  0  0
    5.3712   -8.0074    0.0000 O   0  0  0  0  0  0  0  0  0  0  0  0
    7.5079   -7.5614    0.0000 C   0  0  0  0  0  0  0  0  0  0  0  0
    6.8000   -7.9850    0.0000 C   0  0  0  0  0  0  0  0  0  0  0  0
    6.0791   -7.5837    0.0000 C   0  0  0  0  0  0  0  0  0  0  0  0
    6.0662   -6.7588    0.0000 C   0  0  0  0  0  0  0  0  0  0  0  0
    6.7742   -6.3352    0.0000 C   0  0  0  0  0  0  0  0  0  0  0  0
    7.4950   -6.7365    0.0000 C   0  0  0  0  0  0  0  0  0  0  0  0
   10.3525   -6.6918    0.0000 O   0  0  0  0  0  0  0  0  0  0  0  0
    8.2029   -6.3129    0.0000 C   0  0  0  0  0  0  0  0  0  0  0  0
    8.9238   -6.7142    0.0000 C   0  0  0  0  0  0  0  0  0  0  0  0
    9.6317   -6.2905    0.0000 C   0  0  0  0  0  0  0  0  0  0  0  0
 11  9  1  0  0  0  0
  7  1  1  0  0  0  0
  6  3  1  0  0  0  0
  3  2  1  0  0  0  0
  9  4  2  0  0  0  0
  5  4  1  0  0  0  0
  6  5  2  0  0  0  0
  7  6  1  0  0  0  0
  8  7  2  0  0  0  0
  9  8  1  0  0  0  0
 13 10  2  0  0  0  0
 12 11  2  0  0  0  0
 13 12  1  0  0  0  0
M  END
>  <cdx:fragmentId>
1234

$$$$
