D-mannitol.cdx
  Mrv1902 05222410242D          

 12 11  0  0  0  0            999 V2000
    4.6934   -8.6599    0.0000 O   0  0  0  0  0  0  0  0  0  0  0  0
    5.4078   -9.0724    0.0000 C   0  0  0  0  0  0  0  0  0  0  0  0
    6.1223   -8.6599    0.0000 C   0  0  2  0  0  0  0  0  0  0  0  0
    6.8368   -9.0724    0.0000 C   0  0  2  0  0  0  0  0  0  0  0  0
    7.5512   -8.6599    0.0000 C   0  0  1  0  0  0  0  0  0  0  0  0
    8.2657   -9.0724    0.0000 C   0  0  1  0  0  0  0  0  0  0  0  0
    8.9802   -8.6599    0.0000 C   0  0  0  0  0  0  0  0  0  0  0  0
    9.6946   -9.0724    0.0000 O   0  0  0  0  0  0  0  0  0  0  0  0
    6.1223   -7.8349    0.0000 O   0  0  0  0  0  0  0  0  0  0  0  0
    8.2657   -9.8974    0.0000 O   0  0  0  0  0  0  0  0  0  0  0  0
    6.8368   -9.8974    0.0000 O   0  0  0  0  0  0  0  0  0  0  0  0
    7.5512   -7.8349    0.0000 O   0  0  0  0  0  0  0  0  0  0  0  0
  2  1  1  0  0  0  0
  3  2  1  0  0  0  0
  4  3  1  0  0  0  0
  5  4  1  0  0  0  0
  6  5  1  0  0  0  0
  7  6  1  0  0  0  0
  8  7  1  0  0  0  0
  3  9  1  1  0  0  0
  6 10  1  1  0  0  0
  4 11  1  6  0  0  0
  5 12  1  6  0  0  0
M  END
>  <cdx:fragmentId>
3

$$$$
