37805.cdx
  Mrv1902 05222410252D          

 37 40  0  0  0  0            999 V2000
    8.3177  -10.4368    0.0000 C   0  0  1  0  0  0  0  0  0  0  0  0
    8.0424   -9.6591    0.0000 C   0  0  2  0  0  0  0  0  0  0  0  0
    7.2176   -9.6807    0.0000 C   0  0  0  0  0  0  0  0  0  0  0  0
    6.9833  -10.4717    0.0000 O   0  0  0  0  0  0  0  0  0  0  0  0
    7.6632  -10.9390    0.0000 C   0  0  2  0  0  0  0  0  0  0  0  0
    8.0776   -8.2764    0.0000 C   0  0  0  0  0  0  0  0  0  0  0  0
    7.6848  -11.7637    0.0000 C   0  0  0  0  0  0  0  0  0  0  0  0
    6.9814  -12.1948    0.0000 C   0  0  0  0  0  0  0  0  0  0  0  0
    7.0030  -13.0195    0.0000 C   0  0  0  0  0  0  0  0  0  0  0  0
    7.7280  -13.4132    0.0000 C   0  0  0  0  0  0  0  0  0  0  0  0
    8.4314  -12.9821    0.0000 C   0  0  0  0  0  0  0  0  0  0  0  0
    8.4098  -12.1574    0.0000 C   0  0  0  0  0  0  0  0  0  0  0  0
    8.4703   -7.5508    0.0000 C   0  0  0  0  0  0  0  0  0  0  0  0
    8.0383   -6.8480    0.0000 C   0  0  0  0  0  0  0  0  0  0  0  0
    7.2136   -6.8707    0.0000 C   0  0  0  0  0  0  0  0  0  0  0  0
    6.8209   -7.5962    0.0000 C   0  0  0  0  0  0  0  0  0  0  0  0
    7.2530   -8.2991    0.0000 C   0  0  0  0  0  0  0  0  0  0  0  0
    5.9962   -7.6190    0.0000 O   0  0  0  0  0  0  0  0  0  0  0  0
    9.1088  -10.6711    0.0000 C   0  0  0  0  0  0  0  0  0  0  0  0
    9.6921  -10.0877    0.0000 O   0  0  0  0  0  0  0  0  0  0  0  0
    7.7496  -14.2379    0.0000 O   0  0  0  0  0  0  0  0  0  0  0  0
    5.5642   -6.9161    0.0000 C   0  0  0  0  0  0  0  0  0  0  0  0
    6.7816   -6.1678    0.0000 O   0  0  0  0  0  0  0  0  0  0  0  0
    6.2995  -13.4505    0.0000 O   0  0  0  0  0  0  0  0  0  0  0  0
    5.5745  -13.0569    0.0000 C   0  0  0  0  0  0  0  0  0  0  0  0
    7.1842   -5.4478    0.0000 C   0  0  2  0  0  0  0  0  0  0  0  0
    8.0091   -5.4348    0.0000 O   0  0  0  0  0  0  0  0  0  0  0  0
    8.4108   -4.7142    0.0000 C   0  0  1  0  0  0  0  0  0  0  0  0
    7.9876   -4.0066    0.0000 C   0  0  2  0  0  0  0  0  0  0  0  0
    7.1632   -4.0187    0.0000 C   0  0  1  0  0  0  0  0  0  0  0  0
    6.7615   -4.7393    0.0000 C   0  0  1  0  0  0  0  0  0  0  0  0
    9.2357   -4.7016    0.0000 C   0  0  0  0  0  0  0  0  0  0  0  0
    6.7401   -3.3105    0.0000 O   0  0  0  0  0  0  0  0  0  0  0  0
    5.9366   -4.7515    0.0000 O   0  0  0  0  0  0  0  0  0  0  0  0
    8.3893   -3.2859    0.0000 O   0  0  0  0  0  0  0  0  0  0  0  0
    9.6373   -3.9809    0.0000 O   0  0  0  0  0  0  0  0  0  0  0  0
    8.5097   -8.9792    0.0000 C   0  0  0  0  0  0  0  0  0  0  0  0
  1  2  1  0  0  0  0
  2  3  1  0  0  0  0
  3  4  1  0  0  0  0
  4  5  1  0  0  0  0
  5  1  1  0  0  0  0
  2 37  1  6  0  0  0
  5  7  1  1  0  0  0
  7  8  2  0  0  0  0
  8  9  1  0  0  0  0
  9 10  2  0  0  0  0
 10 11  1  0  0  0  0
 11 12  2  0  0  0  0
 12  7  1  0  0  0  0
  6 13  2  0  0  0  0
 13 14  1  0  0  0  0
 14 15  2  0  0  0  0
 15 16  1  0  0  0  0
 16 17  2  0  0  0  0
 17  6  1  0  0  0  0
 16 18  1  0  0  0  0
  1 19  1  6  0  0  0
 19 20  1  0  0  0  0
 10 21  1  0  0  0  0
 18 22  1  0  0  0  0
 15 23  1  0  0  0  0
  9 24  1  0  0  0  0
 24 25  1  0  0  0  0
 26 23  1  1  0  0  0
 26 27  1  0  0  0  0
 27 28  1  0  0  0  0
 28 29  1  0  0  0  0
 29 30  1  0  0  0  0
 30 31  1  0  0  0  0
 31 26  1  0  0  0  0
 28 32  1  1  0  0  0
 30 33  1  1  0  0  0
 31 34  1  6  0  0  0
 29 35  1  6  0  0  0
 37  6  1  0  0  0  0
 32 36  1  0  0  0  0
M  END
>  <cdx:fragmentId>
325

$$$$
