37800.cdx
  Mrv1902 05222410232D          

 52 57  0  0  0  0            999 V2000
    6.8168  -10.5073    0.0000 O   0  0  0  0  0  0  0  0  0  0  0  0
    7.3688  -11.1204    0.0000 C   0  0  2  0  0  0  0  0  0  0  0  0
    7.1139  -11.9050    0.0000 C   0  0  1  0  0  0  0  0  0  0  0  0
    6.3069  -12.0766    0.0000 C   0  0  2  0  0  0  0  0  0  0  0  0
    5.7549  -11.4635    0.0000 C   0  0  1  0  0  0  0  0  0  0  0  0
    6.0098  -10.6789    0.0000 C   0  0  1  0  0  0  0  0  0  0  0  0
    4.6643  -10.2405    0.0000 O   0  0  0  0  0  0  0  0  0  0  0  0
    4.9479  -11.6350    0.0000 O   0  0  0  0  0  0  0  0  0  0  0  0
    5.4578  -10.0658    0.0000 C   0  0  0  0  0  0  0  0  0  0  0  0
    3.1793  -10.0775    0.0000 O   0  0  0  0  0  0  0  0  0  0  0  0
    3.8654  -10.5356    0.0000 C   0  0  2  0  0  0  0  0  0  0  0  0
    3.6418  -11.3297    0.0000 C   0  0  1  0  0  0  0  0  0  0  0  0
    2.8174  -11.3624    0.0000 C   0  0  2  0  0  0  0  0  0  0  0  0
    2.5316  -10.5885    0.0000 C   0  0  0  0  0  0  0  0  0  0  0  0
    2.0776  -11.7275    0.0000 C   0  0  0  0  0  0  0  0  0  0  0  0
    2.0240  -12.5508    0.0000 O   0  0  0  0  0  0  0  0  0  0  0  0
    2.7637  -12.1856    0.0000 O   0  0  0  0  0  0  0  0  0  0  0  0
    4.1527  -11.9774    0.0000 O   0  0  0  0  0  0  0  0  0  0  0  0
    8.1758  -10.9489    0.0000 O   0  0  0  0  0  0  0  0  0  0  0  0
    8.4307  -10.1643    0.0000 C   0  0  0  0  0  0  0  0  0  0  0  0
    7.8787   -9.5512    0.0000 C   0  0  0  0  0  0  0  0  0  0  0  0
    8.1337   -8.7666    0.0000 C   0  0  0  0  0  0  0  0  0  0  0  0
    8.9406   -8.5950    0.0000 C   0  0  0  0  0  0  0  0  0  0  0  0
    9.4927   -9.2081    0.0000 C   0  0  0  0  0  0  0  0  0  0  0  0
    9.2377   -9.9928    0.0000 C   0  0  0  0  0  0  0  0  0  0  0  0
    9.7897  -10.6058    0.0000 O   0  0  0  0  0  0  0  0  0  0  0  0
   10.5967  -10.4343    0.0000 C   0  0  0  0  0  0  0  0  0  0  0  0
    7.0717   -9.7227    0.0000 O   0  0  0  0  0  0  0  0  0  0  0  0
    6.5197   -9.1096    0.0000 C   0  0  0  0  0  0  0  0  0  0  0  0
   11.2497   -7.1430    0.0000 O   0  0  0  0  0  0  0  0  0  0  0  0
   10.7648   -7.8104    0.0000 C   0  0  0  0  0  0  0  0  0  0  0  0
    9.9802   -7.5555    0.0000 C   0  0  2  0  0  0  0  0  0  0  0  0
    9.9802   -6.7305    0.0000 C   0  0  2  0  0  0  0  0  0  0  0  0
   10.7648   -6.4755    0.0000 C   0  0  2  0  0  0  0  0  0  0  0  0
    8.7106   -7.1430    0.0000 O   0  0  0  0  0  0  0  0  0  0  0  0
    9.1956   -7.8104    0.0000 C   0  0  1  0  0  0  0  0  0  0  0  0
    9.1956   -6.4755    0.0000 C   0  0  0  0  0  0  0  0  0  0  0  0
   11.0197   -5.6909    0.0000 C   0  0  0  0  0  0  0  0  0  0  0  0
   10.4677   -5.0778    0.0000 C   0  0  0  0  0  0  0  0  0  0  0  0
   10.7227   -4.2932    0.0000 C   0  0  0  0  0  0  0  0  0  0  0  0
   11.5296   -4.1217    0.0000 C   0  0  0  0  0  0  0  0  0  0  0  0
   12.0817   -4.7348    0.0000 C   0  0  0  0  0  0  0  0  0  0  0  0
   11.8267   -5.5194    0.0000 C   0  0  0  0  0  0  0  0  0  0  0  0
   12.8886   -4.5632    0.0000 O   0  0  0  0  0  0  0  0  0  0  0  0
   13.4407   -5.1763    0.0000 C   0  0  0  0  0  0  0  0  0  0  0  0
   10.1706   -3.6801    0.0000 O   0  0  0  0  0  0  0  0  0  0  0  0
    9.3636   -3.8516    0.0000 C   0  0  0  0  0  0  0  0  0  0  0  0
   11.7846   -3.3370    0.0000 O   0  0  0  0  0  0  0  0  0  0  0  0
    9.9802   -5.9055    0.0000 H   0  0  0  0  0  0  0  0  0  0  0  0
    9.9802   -8.3805    0.0000 H   0  0  0  0  0  0  0  0  0  0  0  0
    6.0520  -12.8612    0.0000 O   0  0  0  0  0  0  0  0  0  0  0  0
    7.6659  -12.5181    0.0000 O   0  0  0  0  0  0  0  0  0  0  0  0
  1  2  1  0  0  0  0
  2  3  1  0  0  0  0
  3  4  1  0  0  0  0
  4  5  1  0  0  0  0
  5  6  1  0  0  0  0
  1  6  1  0  0  0  0
  5  8  1  6  0  0  0
  6  9  1  1  0  0  0
 10 11  1  0  0  0  0
 11 12  1  0  0  0  0
 12 13  1  0  0  0  0
 13 14  1  0  0  0  0
 10 14  1  0  0  0  0
 15 16  1  0  0  0  0
 13 15  1  1  0  0  0
 13 17  1  6  0  0  0
 12 18  1  6  0  0  0
 20 21  1  0  0  0  0
 21 22  2  0  0  0  0
 22 23  1  0  0  0  0
 23 24  2  0  0  0  0
 24 25  1  0  0  0  0
 20 25  2  0  0  0  0
 19 20  1  0  0  0  0
 26 27  1  0  0  0  0
 25 26  1  0  0  0  0
 28 29  1  0  0  0  0
 21 28  1  0  0  0  0
 30 31  1  0  0  0  0
 31 32  1  0  0  0  0
 32 33  1  0  0  0  0
 33 34  1  0  0  0  0
 30 34  1  0  0  0  0
 35 36  1  0  0  0  0
 35 37  1  0  0  0  0
 32 36  1  0  0  0  0
 33 37  1  0  0  0  0
 38 39  1  0  0  0  0
 39 40  2  0  0  0  0
 40 41  1  0  0  0  0
 41 42  2  0  0  0  0
 42 43  1  0  0  0  0
 38 43  2  0  0  0  0
 44 45  1  0  0  0  0
 42 44  1  0  0  0  0
 46 47  1  0  0  0  0
 40 46  1  0  0  0  0
 41 48  1  0  0  0  0
 34 38  1  6  0  0  0
 36 23  1  6  0  0  0
  2 19  1  1  0  0  0
 33 49  1  6  0  0  0
 32 50  1  6  0  0  0
  4 51  1  1  0  0  0
 11  7  1  1  0  0  0
  3 52  1  6  0  0  0
  7  9  1  0  0  0  0
M  END
>  <cdx:fragmentId>
757

$$$$
