37808.cdx
  Mrv1902 05222410202D          

 27 28  0  0  0  0            999 V2000
    3.4655   -5.6100    0.0000 O   0  0  0  0  0  0  0  0  0  0  0  0
    4.1800   -5.1975    0.0000 C   0  0  0  0  0  0  0  0  0  0  0  0
    4.8945   -5.6100    0.0000 C   0  0  0  0  0  0  0  0  0  0  0  0
    5.6089   -5.1975    0.0000 C   0  0  0  0  0  0  0  0  0  0  0  0
    9.1813   -5.6100    0.0000 C   0  0  0  0  0  0  0  0  0  0  0  0
    8.4668   -5.1975    0.0000 O   0  0  0  0  0  0  0  0  0  0  0  0
    7.7524   -5.6100    0.0000 C   0  0  0  0  0  0  0  0  0  0  0  0
    7.0379   -5.1975    0.0000 C   0  0  0  0  0  0  0  0  0  0  0  0
    6.3234   -5.6100    0.0000 C   0  0  0  0  0  0  0  0  0  0  0  0
    6.3234   -6.4350    0.0000 C   0  0  0  0  0  0  0  0  0  0  0  0
    7.0379   -6.8475    0.0000 C   0  0  0  0  0  0  0  0  0  0  0  0
    7.7524   -6.4350    0.0000 C   0  0  0  0  0  0  0  0  0  0  0  0
    7.0379   -7.6725    0.0000 O   0  0  0  0  0  0  0  0  0  0  0  0
    7.7524   -8.0850    0.0000 C   0  0  0  0  0  0  0  0  0  0  0  0
    8.4668   -6.8475    0.0000 O   0  0  0  0  0  0  0  0  0  0  0  0
    9.8958   -7.6725    0.0000 O   0  0  0  0  0  0  0  0  0  0  0  0
    8.4668   -7.6725    0.0000 C   0  0  2  0  0  0  0  0  0  0  0  0
    9.1813   -8.0850    0.0000 C   0  0  2  0  0  0  0  0  0  0  0  0
    7.0379  -10.1475    0.0000 C   0  0  0  0  0  0  0  0  0  0  0  0
    7.7524  -10.5600    0.0000 O   0  0  0  0  0  0  0  0  0  0  0  0
    9.1813  -11.3850    0.0000 O   0  0  0  0  0  0  0  0  0  0  0  0
    9.1813   -8.9100    0.0000 C   0  0  0  0  0  0  0  0  0  0  0  0
    8.4668   -9.3225    0.0000 C   0  0  0  0  0  0  0  0  0  0  0  0
    8.4668  -10.1475    0.0000 C   0  0  0  0  0  0  0  0  0  0  0  0
    9.1813  -10.5600    0.0000 C   0  0  0  0  0  0  0  0  0  0  0  0
    9.8958  -10.1475    0.0000 C   0  0  0  0  0  0  0  0  0  0  0  0
    9.8958   -9.3225    0.0000 C   0  0  0  0  0  0  0  0  0  0  0  0
  2  1  1  0  0  0  0
  3  2  1  0  0  0  0
  4  3  1  0  0  0  0
  9  4  1  0  0  0  0
  6  5  1  0  0  0  0
  7  6  1  0  0  0  0
  7 12  1  0  0  0  0
  8  7  2  0  0  0  0
  9  8  1  0  0  0  0
 10  9  2  0  0  0  0
 11 10  1  0  0  0  0
 12 11  2  0  0  0  0
 15 12  1  0  0  0  0
 14 13  1  0  0  0  0
 17 14  1  6  0  0  0
 17 15  1  0  0  0  0
 18 16  1  1  0  0  0
 18 17  1  0  0  0  0
 22 18  1  0  0  0  0
 20 19  1  0  0  0  0
 24 20  1  0  0  0  0
 25 21  1  0  0  0  0
 22 27  2  0  0  0  0
 23 22  1  0  0  0  0
 24 23  2  0  0  0  0
 25 24  1  0  0  0  0
 26 25  2  0  0  0  0
 27 26  1  0  0  0  0
M  END
>  <cdx:fragmentId>
5

$$$$
