37802.cdx
  Mrv1902 05222410242D          

 52 57  0  0  0  0            999 V2000
    5.8818   -9.2973    0.0000 O   0  0  0  0  0  0  0  0  0  0  0  0
    6.4338   -9.9104    0.0000 C   0  0  2  0  0  0  0  0  0  0  0  0
    6.1789  -10.6950    0.0000 C   0  0  1  0  0  0  0  0  0  0  0  0
    5.3719  -10.8666    0.0000 C   0  0  2  0  0  0  0  0  0  0  0  0
    4.8199  -10.2535    0.0000 C   0  0  1  0  0  0  0  0  0  0  0  0
    5.0748   -9.4689    0.0000 C   0  0  1  0  0  0  0  0  0  0  0  0
    6.7309  -11.3081    0.0000 O   0  0  0  0  0  0  0  0  0  0  0  0
    4.0129  -10.4250    0.0000 O   0  0  0  0  0  0  0  0  0  0  0  0
    4.5228   -8.8558    0.0000 C   0  0  0  0  0  0  0  0  0  0  0  0
    3.7158   -9.0273    0.0000 O   0  0  0  0  0  0  0  0  0  0  0  0
    6.0674  -12.6467    0.0000 O   0  0  0  0  0  0  0  0  0  0  0  0
    6.7334  -12.1598    0.0000 C   0  0  2  0  0  0  0  0  0  0  0  0
    7.4022  -12.6428    0.0000 C   0  0  1  0  0  0  0  0  0  0  0  0
    7.1496  -13.4282    0.0000 C   0  0  2  0  0  0  0  0  0  0  0  0
    6.3246  -13.4305    0.0000 C   0  0  0  0  0  0  0  0  0  0  0  0
    7.2381  -14.2484    0.0000 C   0  0  0  0  0  0  0  0  0  0  0  0
    7.9928  -14.5818    0.0000 O   0  0  0  0  0  0  0  0  0  0  0  0
    7.9042  -13.7616    0.0000 O   0  0  0  0  0  0  0  0  0  0  0  0
    8.1861  -12.3856    0.0000 O   0  0  0  0  0  0  0  0  0  0  0  0
    7.2408   -9.7389    0.0000 O   0  0  0  0  0  0  0  0  0  0  0  0
    7.4957   -8.9543    0.0000 C   0  0  0  0  0  0  0  0  0  0  0  0
    6.9437   -8.3412    0.0000 C   0  0  0  0  0  0  0  0  0  0  0  0
    7.1987   -7.5566    0.0000 C   0  0  0  0  0  0  0  0  0  0  0  0
    8.0056   -7.3850    0.0000 C   0  0  0  0  0  0  0  0  0  0  0  0
    8.5577   -7.9981    0.0000 C   0  0  0  0  0  0  0  0  0  0  0  0
    8.3027   -8.7828    0.0000 C   0  0  0  0  0  0  0  0  0  0  0  0
    8.8547   -9.3958    0.0000 O   0  0  0  0  0  0  0  0  0  0  0  0
    9.6617   -9.2243    0.0000 C   0  0  0  0  0  0  0  0  0  0  0  0
    6.1367   -8.5127    0.0000 O   0  0  0  0  0  0  0  0  0  0  0  0
    5.5847   -7.8996    0.0000 C   0  0  0  0  0  0  0  0  0  0  0  0
   10.3147   -5.9330    0.0000 O   0  0  0  0  0  0  0  0  0  0  0  0
    9.8298   -6.6004    0.0000 C   0  0  0  0  0  0  0  0  0  0  0  0
    9.0452   -6.3455    0.0000 C   0  0  2  0  0  0  0  0  0  0  0  0
    9.0452   -5.5205    0.0000 C   0  0  2  0  0  0  0  0  0  0  0  0
    9.8298   -5.2655    0.0000 C   0  0  2  0  0  0  0  0  0  0  0  0
    7.7756   -5.9330    0.0000 O   0  0  0  0  0  0  0  0  0  0  0  0
    8.2606   -6.6004    0.0000 C   0  0  1  0  0  0  0  0  0  0  0  0
    8.2606   -5.2655    0.0000 C   0  0  0  0  0  0  0  0  0  0  0  0
   10.0847   -4.4809    0.0000 C   0  0  0  0  0  0  0  0  0  0  0  0
    9.5327   -3.8678    0.0000 C   0  0  0  0  0  0  0  0  0  0  0  0
    9.7877   -3.0832    0.0000 C   0  0  0  0  0  0  0  0  0  0  0  0
   10.5946   -2.9117    0.0000 C   0  0  0  0  0  0  0  0  0  0  0  0
   11.1467   -3.5248    0.0000 C   0  0  0  0  0  0  0  0  0  0  0  0
   10.8917   -4.3094    0.0000 C   0  0  0  0  0  0  0  0  0  0  0  0
   11.9536   -3.3532    0.0000 O   0  0  0  0  0  0  0  0  0  0  0  0
   12.5057   -3.9663    0.0000 C   0  0  0  0  0  0  0  0  0  0  0  0
    9.2356   -2.4701    0.0000 O   0  0  0  0  0  0  0  0  0  0  0  0
    8.4286   -2.6416    0.0000 C   0  0  0  0  0  0  0  0  0  0  0  0
   10.8496   -2.1270    0.0000 O   0  0  0  0  0  0  0  0  0  0  0  0
    9.0452   -4.6955    0.0000 H   0  0  0  0  0  0  0  0  0  0  0  0
    9.0452   -7.1705    0.0000 H   0  0  0  0  0  0  0  0  0  0  0  0
    5.1170  -11.6512    0.0000 O   0  0  0  0  0  0  0  0  0  0  0  0
  1  2  1  0  0  0  0
  2  3  1  0  0  0  0
  3  4  1  0  0  0  0
  4  5  1  0  0  0  0
  5  6  1  0  0  0  0
  1  6  1  0  0  0  0
  3  7  1  6  0  0  0
  5  8  1  6  0  0  0
  9 10  1  0  0  0  0
  6  9  1  1  0  0  0
 11 12  1  0  0  0  0
 12 13  1  0  0  0  0
 13 14  1  0  0  0  0
 14 15  1  0  0  0  0
 11 15  1  0  0  0  0
 16 17  1  0  0  0  0
 14 16  1  1  0  0  0
 14 18  1  6  0  0  0
 13 19  1  6  0  0  0
 21 22  1  0  0  0  0
 22 23  2  0  0  0  0
 23 24  1  0  0  0  0
 24 25  2  0  0  0  0
 25 26  1  0  0  0  0
 21 26  2  0  0  0  0
 20 21  1  0  0  0  0
 27 28  1  0  0  0  0
 26 27  1  0  0  0  0
 29 30  1  0  0  0  0
 22 29  1  0  0  0  0
 31 32  1  0  0  0  0
 32 33  1  0  0  0  0
 33 34  1  0  0  0  0
 34 35  1  0  0  0  0
 31 35  1  0  0  0  0
 36 37  1  0  0  0  0
 36 38  1  0  0  0  0
 33 37  1  0  0  0  0
 34 38  1  0  0  0  0
 39 40  1  0  0  0  0
 40 41  2  0  0  0  0
 41 42  1  0  0  0  0
 42 43  2  0  0  0  0
 43 44  1  0  0  0  0
 39 44  2  0  0  0  0
 45 46  1  0  0  0  0
 43 45  1  0  0  0  0
 47 48  1  0  0  0  0
 41 47  1  0  0  0  0
 42 49  1  0  0  0  0
 35 39  1  6  0  0  0
 37 24  1  6  0  0  0
  2 20  1  1  0  0  0
 34 50  1  6  0  0  0
 33 51  1  6  0  0  0
  4 52  1  1  0  0  0
 12  7  1  1  0  0  0
M  END
>  <cdx:fragmentId>
757

$$$$
