37804.cdx
  Mrv1902 05222410252D          

 13 13  0  0  0  0            999 V2000
    5.6388   -8.6748    0.0000 O   0  0  0  0  0  0  0  0  0  0  0  0
    9.9256   -8.6748    0.0000 C   0  0  0  0  0  0  0  0  0  0  0  0
    9.2112   -8.2623    0.0000 O   0  0  0  0  0  0  0  0  0  0  0  0
    7.7822   -9.9123    0.0000 C   0  0  0  0  0  0  0  0  0  0  0  0
    8.4967   -9.4998    0.0000 C   0  0  0  0  0  0  0  0  0  0  0  0
    8.4967   -8.6748    0.0000 C   0  0  0  0  0  0  0  0  0  0  0  0
    7.7822   -8.2623    0.0000 C   0  0  0  0  0  0  0  0  0  0  0  0
    7.0678   -8.6748    0.0000 C   0  0  0  0  0  0  0  0  0  0  0  0
    7.0678   -9.4998    0.0000 C   0  0  0  0  0  0  0  0  0  0  0  0
    6.3533  -10.7373    0.0000 O   0  0  0  0  0  0  0  0  0  0  0  0
    4.9244   -9.9123    0.0000 C   0  0  0  0  0  0  0  0  0  0  0  0
    5.6388   -9.4998    0.0000 C   0  0  2  0  0  0  0  0  0  0  0  0
    6.3533   -9.9123    0.0000 C   0  0  0  0  0  0  0  0  0  0  0  0
 12  1  1  1  0  0  0
 13  9  1  0  0  0  0
  6  3  1  0  0  0  0
  3  2  1  0  0  0  0
  9  4  2  0  0  0  0
  5  4  1  0  0  0  0
  6  5  2  0  0  0  0
  7  6  1  0  0  0  0
  8  7  2  0  0  0  0
  9  8  1  0  0  0  0
 13 10  2  0  0  0  0
 12 11  1  0  0  0  0
 13 12  1  0  0  0  0
M  END
>  <cdx:fragmentId>
942

$$$$
