37812.cdx
  Mrv1902 05222410252D          

 15 16  0  0  0  0            999 V2000
    3.4662   -4.5994    0.0000 O   0  0  0  0  0  0  0  0  0  0  0  0
    3.4662   -6.0283    0.0000 C   0  0  0  0  0  0  0  0  0  0  0  0
    3.8787   -5.3138    0.0000 C   0  0  0  0  0  0  0  0  0  0  0  0
    4.7037   -5.3138    0.0000 O   0  0  0  0  0  0  0  0  0  0  0  0
    6.0992   -5.8638    0.0000 C   0  0  0  0  0  0  0  0  0  0  0  0
    6.4625   -2.6405    0.0000 C   0  0  0  0  0  0  0  0  0  0  0  0
    5.6375   -2.6405    0.0000 C   0  0  0  0  0  0  0  0  0  0  0  0
    6.0500   -3.3550    0.0000 C   0  0  0  0  0  0  0  0  0  0  0  0
    5.4450   -3.7125    0.0000 O   0  0  0  0  0  0  0  0  0  0  0  0
    6.3250   -5.0050    0.0000 C   0  0  0  0  0  0  0  0  0  0  0  0
    5.3297   -5.3963    0.0000 C   0  0  0  0  0  0  0  0  0  0  0  0
    5.1162   -4.5994    0.0000 C   0  0  0  0  0  0  0  0  0  0  0  0
    6.4350   -4.0425    0.0000 C   0  0  0  0  0  0  0  0  0  0  0  0
    7.2050   -5.2525    0.0000 C   0  0  0  0  0  0  0  0  0  0  0  0
    7.3425   -4.4825    0.0000 C   0  0  0  0  0  0  0  0  0  0  0  0
  3  1  2  0  0  0  0
  3  2  1  0  0  0  0
  4  3  1  0  0  0  0
 12  4  1  0  0  0  0
 10  5  1  0  0  0  0
  8  6  1  0  0  0  0
  8  7  1  0  0  0  0
  8 13  1  0  0  0  0
  9  8  1  0  0  0  0
 10  9  1  0  0  0  0
 10 11  1  0  0  0  0
 14 10  1  0  0  0  0
 12 11  1  0  0  0  0
 13 12  1  0  0  0  0
 15 13  1  0  0  0  0
 15 14  1  0  0  0  0
M  END
>  <cdx:fragmentId>
1626

$$$$
