37819.cdx
  Mrv1902 05222410222D          

 50 56  0  0  0  0            999 V2000
    8.2113   -8.7969    0.0000 C   0  0  1  0  0  0  0  0  0  0  0  0
    8.9227   -8.3793    0.0000 C   0  0  2  0  0  0  0  0  0  0  0  0
    9.7092   -8.6285    0.0000 C   0  0  0  0  0  0  0  0  0  0  0  0
   10.1893   -7.9576    0.0000 C   0  0  2  0  0  0  0  0  0  0  0  0
   10.9720   -7.6970    0.0000 O   0  0  0  0  0  0  0  0  0  0  0  0
   10.9661   -6.8720    0.0000 C   0  0  2  0  0  0  0  0  0  0  0  0
   10.1796   -6.6228    0.0000 C   0  0  2  0  0  0  0  0  0  0  0  0
    9.6995   -7.2937    0.0000 C   0  0  2  0  0  0  0  0  0  0  0  0
    8.9168   -7.5543    0.0000 C   0  0  1  0  0  0  0  0  0  0  0  0
    8.1994   -7.1469    0.0000 C   0  0  0  0  0  0  0  0  0  0  0  0
    7.4879   -7.5646    0.0000 C   0  0  0  0  0  0  0  0  0  0  0  0
    7.4938   -8.3896    0.0000 C   0  0  2  0  0  0  0  0  0  0  0  0
    6.7824   -8.8072    0.0000 C   0  0  1  0  0  0  0  0  0  0  0  0
    6.0649   -8.3999    0.0000 C   0  0  1  0  0  0  0  0  0  0  0  0
    5.3535   -8.8175    0.0000 C   0  0  0  0  0  0  0  0  0  0  0  0
    5.3594   -9.6425    0.0000 C   0  0  1  0  0  0  0  0  0  0  0  0
    6.0768  -10.0498    0.0000 C   0  0  0  0  0  0  0  0  0  0  0  0
    6.7883   -9.6322    0.0000 C   0  0  0  0  0  0  0  0  0  0  0  0
    7.5058  -10.0395    0.0000 C   0  0  0  0  0  0  0  0  0  0  0  0
    8.2172   -9.6219    0.0000 C   0  0  0  0  0  0  0  0  0  0  0  0
   10.8739   -6.0522    0.0000 O   0  0  0  0  0  0  0  0  0  0  0  0
   11.7222   -7.2021    0.0000 C   0  0  0  0  0  0  0  0  0  0  0  0
   12.3861   -6.7124    0.0000 C   0  0  0  0  0  0  0  0  0  0  0  0
   12.2939   -5.8926    0.0000 C   0  0  1  0  0  0  0  0  0  0  0  0
   11.5378   -5.5625    0.0000 C   0  0  0  0  0  0  0  0  0  0  0  0
    6.0590   -7.5749    0.0000 O   0  0  0  0  0  0  0  0  0  0  0  0
    4.6479  -10.0602    0.0000 O   0  0  0  0  0  0  0  0  0  0  0  0
    6.7764   -7.9822    0.0000 C   0  0  0  0  0  0  0  0  0  0  0  0
    8.9168   -6.7293    0.0000 C   0  0  0  0  0  0  0  0  0  0  0  0
    9.9190   -5.8400    0.0000 C   0  0  0  0  0  0  0  0  0  0  0  0
   12.9578   -5.4028    0.0000 C   0  0  0  0  0  0  0  0  0  0  0  0
    8.2053   -7.9719    0.0000 H   0  0  0  0  0  0  0  0  0  0  0  0
    8.9287   -9.2042    0.0000 H   0  0  0  0  0  0  0  0  0  0  0  0
   10.6790   -8.6215    0.0000 H   0  0  0  0  0  0  0  0  0  0  0  0
    9.3325   -6.5548    0.0000 H   0  0  0  0  0  0  0  0  0  0  0  0
    7.4998   -9.2145    0.0000 H   0  0  0  0  0  0  0  0  0  0  0  0
    5.4756   -6.9915    0.0000 S   0  0  0  0  0  0  0  0  0  0  0  0
    4.8923   -6.4082    0.0000 O   0  0  0  0  0  0  0  0  0  0  0  0
    4.8923   -7.5749    0.0000 O   0  0  0  0  0  0  0  0  0  0  0  0
    6.0590   -6.4082    0.0000 O   0  0  0  0  0  0  0  0  0  0  0  0
    3.9305   -9.6528    0.0000 C   0  0  0  0  0  0  0  0  0  0  0  0
    3.9216   -8.8279    0.0000 O   0  0  0  0  0  0  0  0  0  0  0  0
    3.2027   -8.4232    0.0000 C   0  0  2  0  0  0  0  0  0  0  0  0
    2.4927   -8.8279    0.0000 C   0  0  1  0  0  0  0  0  0  0  0  0
    2.4927   -9.6528    0.0000 C   0  0  2  0  0  0  0  0  0  0  0  0
    3.2027  -10.0575    0.0000 C   0  0  1  0  0  0  0  0  0  0  0  0
    1.7794   -8.4134    0.0000 O   0  0  0  0  0  0  0  0  0  0  0  0
    3.2004   -7.5982    0.0000 C   0  0  0  0  0  0  0  0  0  0  0  0
    1.7794  -10.0673    0.0000 O   0  0  0  0  0  0  0  0  0  0  0  0
    3.1983  -10.8825    0.0000 O   0  0  0  0  0  0  0  0  0  0  0  0
  1  2  1  0  0  0  0
  2  3  1  0  0  0  0
  3  4  1  0  0  0  0
  4  5  1  0  0  0  0
  6  5  1  6  0  0  0
  6  7  1  0  0  0  0
  7  8  1  0  0  0  0
  8  9  1  0  0  0  0
  9 10  1  0  0  0  0
 10 11  1  0  0  0  0
 11 12  1  0  0  0  0
 12 13  1  0  0  0  0
 13 14  1  0  0  0  0
 14 15  1  0  0  0  0
 15 16  1  0  0  0  0
 16 17  1  0  0  0  0
 17 18  1  0  0  0  0
 18 19  2  0  0  0  0
 19 20  1  0  0  0  0
  1 20  1  0  0  0  0
  1 12  1  0  0  0  0
 13 18  1  0  0  0  0
  2  9  1  0  0  0  0
  4  8  1  0  0  0  0
 22 23  1  0  0  0  0
 23 24  1  0  0  0  0
 24 25  1  0  0  0  0
 21 25  1  0  0  0  0
  6 21  1  0  0  0  0
  6 22  1  0  0  0  0
 14 26  1  1  0  0  0
 16 27  1  1  0  0  0
 13 28  1  1  0  0  0
  9 29  1  1  0  0  0
  7 30  1  6  0  0  0
 24 31  1  1  0  0  0
  1 32  1  1  0  0  0
  2 33  1  6  0  0  0
  4 34  1  6  0  0  0
  8 35  1  6  0  0  0
 12 36  1  6  0  0  0
 26 37  1  0  0  0  0
 37 38  2  0  0  0  0
 37 39  2  0  0  0  0
 37 40  1  0  0  0  0
 27 41  1  0  0  0  0
 41 42  1  0  0  0  0
 42 43  1  0  0  0  0
 43 44  1  0  0  0  0
 44 45  1  0  0  0  0
 45 46  1  0  0  0  0
 46 41  1  0  0  0  0
 44 47  1  1  0  0  0
 43 48  1  6  0  0  0
 45 49  1  6  0  0  0
 46 50  1  6  0  0  0
M  END
>  <cdx:groupId>
115

>  <cdx:fragmentId>
5

$$$$
