37813.cdx
  Mrv1902 05222410252D          

 12 13  0  0  0  0            999 V2000
    5.6043   -8.9189    0.0000 C   0  0  0  0  0  0  0  0  0  0  0  0
    6.4010   -8.7048    0.0000 C   0  0  0  0  0  0  0  0  0  0  0  0
    7.1978   -8.9189    0.0000 C   0  0  0  0  0  0  0  0  0  0  0  0
    7.6114   -8.2052    0.0000 C   0  0  0  0  0  0  0  0  0  0  0  0
    6.0180   -8.2052    0.0000 C   0  0  0  0  0  0  0  0  0  0  0  0
    6.8147   -7.9911    0.0000 C   0  0  0  0  0  0  0  0  0  0  0  0
    6.4025   -7.2774    0.0000 C   0  0  0  0  0  0  0  0  0  0  0  0
    5.5160   -7.5505    0.0000 O   0  0  0  0  0  0  0  0  0  0  0  0
    5.6880   -6.8649    0.0000 C   0  0  0  0  0  0  0  0  0  0  0  0
    6.9858   -6.6940    0.0000 C   0  0  0  0  0  0  0  0  0  0  0  0
    7.5292   -7.5786    0.0000 C   0  0  0  0  0  0  0  0  0  0  0  0
    8.1948   -8.7886    0.0000 O   0  0  0  0  0  0  0  0  0  0  0  0
  1  2  1  0  0  0  0
  2  3  1  0  0  0  0
  3  4  1  0  0  0  0
  1  5  1  0  0  0  0
  5  6  1  0  0  0  0
  4  6  1  0  0  0  0
  6  7  1  0  0  0  0
  2  7  1  0  0  0  0
  5  8  2  0  0  0  0
  7  9  1  0  0  0  0
  7 10  1  0  0  0  0
  6 11  1  0  0  0  0
  4 12  1  0  0  0  0
M  END
>  <cdx:fragmentId>
800

$$$$
