316.cdx
  Mrv1902 05222410242D          

 15 16  0  0  0  0            999 V2000
    6.2652   -6.0329    0.0000 C   0  0  0  0  0  0  0  0  0  0  0  0
    5.7803   -5.3655    0.0000 C   0  0  0  0  0  0  0  0  0  0  0  0
    4.9957   -5.6204    0.0000 C   0  0  0  0  0  0  0  0  0  0  0  0
    4.9957   -6.4454    0.0000 C   0  0  0  0  0  0  0  0  0  0  0  0
    5.7803   -6.7003    0.0000 C   0  0  0  0  0  0  0  0  0  0  0  0
    6.6008   -6.7866    0.0000 C   0  0  0  0  0  0  0  0  0  0  0  0
    4.3282   -6.9303    0.0000 C   0  0  0  0  0  0  0  0  0  0  0  0
    6.9797   -4.7954    0.0000 C   0  0  0  0  0  0  0  0  0  0  0  0
    6.9797   -5.6204    0.0000 C   0  0  0  0  0  0  0  0  0  0  0  0
    7.6942   -6.0329    0.0000 C   0  0  0  0  0  0  0  0  0  0  0  0
    8.4086   -5.6204    0.0000 C   0  0  0  0  0  0  0  0  0  0  0  0
    9.1231   -6.0329    0.0000 C   0  0  0  0  0  0  0  0  0  0  0  0
    9.8376   -5.6204    0.0000 C   0  0  0  0  0  0  0  0  0  0  0  0
    9.8376   -4.7954    0.0000 C   0  0  0  0  0  0  0  0  0  0  0  0
   10.5521   -6.0329    0.0000 C   0  0  0  0  0  0  0  0  0  0  0  0
  1  2  1  0  0  0  0
  2  3  1  0  0  0  0
  3  4  1  0  0  0  0
  4  5  1  0  0  0  0
  5  6  1  0  0  0  0
  1  6  1  0  0  0  0
  1  5  1  0  0  0  0
  4  7  2  0  0  0  0
  8  9  1  0  0  0  0
  9 10  1  0  0  0  0
 10 11  1  0  0  0  0
 11 12  1  0  0  0  0
 12 13  2  0  0  0  0
 13 14  1  0  0  0  0
 13 15  1  0  0  0  0
  1  9  1  0  0  0  0
M  END
>  <cdx:fragmentId>
1903

$$$$
