428443.cdx
  Mrv1902 05222410252D          

 17 18  0  0  0  0            999 V2000
    5.8921   -6.8521    0.0000 C   0  0  2  0  0  0  0  0  0  0  0  0
    5.1074   -6.5972    0.0000 C   0  0  1  0  0  0  0  0  0  0  0  0
    5.1074   -5.7722    0.0000 C   0  0  0  0  0  0  0  0  0  0  0  0
    5.8921   -5.5172    0.0000 C   0  0  0  0  0  0  0  0  0  0  0  0
    6.3770   -6.1847    0.0000 C   0  0  2  0  0  0  0  0  0  0  0  0
    6.7125   -6.9383    0.0000 C   0  0  0  0  0  0  0  0  0  0  0  0
    4.3105   -6.8107    0.0000 O   0  0  0  0  0  0  0  0  0  0  0  0
    7.0914   -4.9472    0.0000 C   0  0  0  0  0  0  0  0  0  0  0  0
    7.0914   -5.7722    0.0000 C   0  0  0  0  0  0  0  0  0  0  0  0
    7.8059   -6.1847    0.0000 C   0  0  0  0  0  0  0  0  0  0  0  0
    8.5204   -5.7722    0.0000 C   0  0  0  0  0  0  0  0  0  0  0  0
    9.2349   -6.1847    0.0000 C   0  0  0  0  0  0  0  0  0  0  0  0
    9.9493   -5.7722    0.0000 C   0  0  0  0  0  0  0  0  0  0  0  0
    9.9493   -4.9472    0.0000 C   0  0  0  0  0  0  0  0  0  0  0  0
   10.6638   -6.1847    0.0000 C   0  0  0  0  0  0  0  0  0  0  0  0
    4.8939   -7.3941    0.0000 C   0  0  0  0  0  0  0  0  0  0  0  0
    5.6785   -7.6490    0.0000 H   0  0  0  0  0  0  0  0  0  0  0  0
  1  2  1  0  0  0  0
  2  3  1  0  0  0  0
  3  4  1  0  0  0  0
  5  4  1  0  0  0  0
  5  6  1  0  0  0  0
  1  6  1  0  0  0  0
  1  5  1  0  0  0  0
  2  7  1  6  0  0  0
  8  9  1  0  0  0  0
  9 10  1  0  0  0  0
 10 11  1  0  0  0  0
 11 12  1  0  0  0  0
 12 13  2  0  0  0  0
 13 14  1  0  0  0  0
 13 15  1  0  0  0  0
  2 16  1  0  0  0  0
  5  9  1  1  0  0  0
  1 17  1  1  0  0  0
M  END
>  <cdx:fragmentId>
19

$$$$
