37814.cdx
  Mrv1902 05222410232D          

 24 26  0  0  0  0            999 V2000
    8.0381   -7.9289    0.0000 C   0  0  0  0  0  0  0  0  0  0  0  0
    8.8348   -7.7148    0.0000 C   0  0  1  0  0  0  0  0  0  0  0  0
    9.6315   -7.9289    0.0000 C   0  0  0  0  0  0  0  0  0  0  0  0
   10.0452   -7.2152    0.0000 C   0  0  0  0  0  0  0  0  0  0  0  0
    8.4517   -7.2152    0.0000 C   0  0  0  0  0  0  0  0  0  0  0  0
    9.2484   -7.0011    0.0000 C   0  0  1  0  0  0  0  0  0  0  0  0
    8.8362   -6.2874    0.0000 C   0  0  0  0  0  0  0  0  0  0  0  0
    8.1218   -5.8749    0.0000 C   0  0  0  0  0  0  0  0  0  0  0  0
    9.4196   -5.7040    0.0000 C   0  0  0  0  0  0  0  0  0  0  0  0
    9.9629   -6.5886    0.0000 C   0  0  0  0  0  0  0  0  0  0  0  0
   10.8078   -6.9004    0.0000 O   0  0  0  0  0  0  0  0  0  0  0  0
    7.2412   -7.7154    0.0000 O   0  0  0  0  0  0  0  0  0  0  0  0
    6.6578   -8.2988    0.0000 C   0  0  2  0  0  0  0  0  0  0  0  0
    5.8609   -8.0853    0.0000 O   0  0  0  0  0  0  0  0  0  0  0  0
    5.2776   -8.6686    0.0000 C   0  0  1  0  0  0  0  0  0  0  0  0
    5.4911   -9.4655    0.0000 C   0  0  2  0  0  0  0  0  0  0  0  0
    6.2880   -9.6790    0.0000 C   0  0  1  0  0  0  0  0  0  0  0  0
    6.8713   -9.0957    0.0000 C   0  0  1  0  0  0  0  0  0  0  0  0
    4.4807   -8.4551    0.0000 C   0  0  0  0  0  0  0  0  0  0  0  0
    6.5015  -10.4759    0.0000 O   0  0  0  0  0  0  0  0  0  0  0  0
    4.9077  -10.0489    0.0000 O   0  0  0  0  0  0  0  0  0  0  0  0
    7.6682   -9.3092    0.0000 O   0  0  0  0  0  0  0  0  0  0  0  0
    3.8973   -9.0385    0.0000 O   0  0  0  0  0  0  0  0  0  0  0  0
    8.4223   -8.4293    0.0000 H   0  0  0  0  0  0  0  0  0  0  0  0
  1  2  1  0  0  0  0
  2  3  1  0  0  0  0
  3  4  1  0  0  0  0
  1  5  1  0  0  0  0
  5  6  1  0  0  0  0
  4  6  1  0  0  0  0
  6  7  1  0  0  0  0
  2  7  1  0  0  0  0
  7  8  1  0  0  0  0
  7  9  1  0  0  0  0
  6 10  1  6  0  0  0
  4 11  2  0  0  0  0
  1 12  1  0  0  0  0
 13 12  1  1  0  0  0
 13 14  1  0  0  0  0
 14 15  1  0  0  0  0
 15 16  1  0  0  0  0
 16 17  1  0  0  0  0
 17 18  1  0  0  0  0
 18 13  1  0  0  0  0
 15 19  1  1  0  0  0
 17 20  1  1  0  0  0
 16 21  1  6  0  0  0
 18 22  1  6  0  0  0
 19 23  1  0  0  0  0
  2 24  1  1  0  0  0
M  END
>  <cdx:fragmentId>
874

$$$$
