318.cdx
  Mrv1902 05222410232D          

 34 38  0  0  0  0            999 V2000
    7.7337   -6.9189    0.0000 C   0  0  2  0  0  0  0  0  0  0  0  0
    7.7337   -6.0939    0.0000 C   0  0  2  0  0  0  0  0  0  0  0  0
    7.0192   -5.6814    0.0000 C   0  0  0  0  0  0  0  0  0  0  0  0
    6.3047   -6.0939    0.0000 C   0  0  0  0  0  0  0  0  0  0  0  0
    6.3047   -6.9189    0.0000 C   0  0  1  0  0  0  0  0  0  0  0  0
    5.5902   -7.3314    0.0000 C   0  0  1  0  0  0  0  0  0  0  0  0
    4.8758   -6.9189    0.0000 C   0  0  0  0  0  0  0  0  0  0  0  0
    4.1613   -7.3314    0.0000 C   0  0  0  0  0  0  0  0  0  0  0  0
    4.1613   -8.1564    0.0000 C   0  0  1  0  0  0  0  0  0  0  0  0
    4.8758   -8.5689    0.0000 C   0  0  0  0  0  0  0  0  0  0  0  0
    5.5902   -8.1564    0.0000 C   0  0  2  0  0  0  0  0  0  0  0  0
    6.3047   -8.5689    0.0000 C   0  0  0  0  0  0  0  0  0  0  0  0
    7.0192   -8.1564    0.0000 C   0  0  0  0  0  0  0  0  0  0  0  0
    7.0192   -7.3314    0.0000 C   0  0  1  0  0  0  0  0  0  0  0  0
    5.5902   -6.5064    0.0000 C   0  0  0  0  0  0  0  0  0  0  0  0
    8.5183   -5.8390    0.0000 C   0  0  2  0  0  0  0  0  0  0  0  0
    9.0032   -6.5064    0.0000 C   0  0  0  0  0  0  0  0  0  0  0  0
    8.5183   -7.1738    0.0000 C   0  0  0  0  0  0  0  0  0  0  0  0
    3.4468   -8.5689    0.0000 O   0  0  0  0  0  0  0  0  0  0  0  0
    5.2883   -9.2834    0.0000 C   0  0  0  0  0  0  0  0  0  0  0  0
    4.4633   -9.2834    0.0000 C   0  0  0  0  0  0  0  0  0  0  0  0
    7.7337   -7.7439    0.0000 C   0  0  0  0  0  0  0  0  0  0  0  0
    7.8199   -5.2734    0.0000 C   0  0  0  0  0  0  0  0  0  0  0  0
    8.2212   -4.4412    0.0000 C   0  0  0  0  0  0  0  0  0  0  0  0
    8.7732   -5.0543    0.0000 C   0  0  2  0  0  0  0  0  0  0  0  0
    9.5802   -4.8828    0.0000 C   0  0  0  0  0  0  0  0  0  0  0  0
    9.8351   -4.0982    0.0000 C   0  0  0  0  0  0  0  0  0  0  0  0
   10.6421   -3.9267    0.0000 C   0  0  0  0  0  0  0  0  0  0  0  0
   10.8970   -3.1420    0.0000 C   0  0  0  0  0  0  0  0  0  0  0  0
   10.3450   -2.5289    0.0000 C   0  0  0  0  0  0  0  0  0  0  0  0
   11.7040   -2.9705    0.0000 C   0  0  0  0  0  0  0  0  0  0  0  0
   11.1941   -4.5398    0.0000 O   0  0  0  0  0  0  0  0  0  0  0  0
    7.0192   -6.5064    0.0000 H   0  0  0  0  0  0  0  0  0  0  0  0
    5.5902   -8.9814    0.0000 H   0  0  0  0  0  0  0  0  0  0  0  0
  1  2  1  0  0  0  0
  2  3  1  0  0  0  0
  3  4  1  0  0  0  0
  4  5  1  0  0  0  0
  5  6  1  0  0  0  0
  6  7  1  0  0  0  0
  7  8  1  0  0  0  0
  8  9  1  0  0  0  0
  9 10  1  0  0  0  0
 10 11  1  0  0  0  0
  6 11  1  0  0  0  0
 11 12  1  0  0  0  0
 12 13  1  0  0  0  0
 13 14  1  0  0  0  0
  1 14  1  0  0  0  0
  5 14  1  0  0  0  0
  5 15  1  1  0  0  0
  6 15  1  1  0  0  0
 16 17  1  1  0  0  0
 17 18  1  0  0  0  0
  1 18  1  0  0  0  0
  2 16  1  0  0  0  0
  9 19  1  1  0  0  0
 10 20  1  0  0  0  0
 10 21  1  0  0  0  0
  1 22  1  6  0  0  0
  2 23  1  1  0  0  0
 25 24  1  6  0  0  0
 25 26  1  0  0  0  0
 26 27  1  0  0  0  0
 27 28  1  0  0  0  0
 28 29  1  0  0  0  0
 29 30  2  0  0  0  0
 29 31  1  0  0  0  0
 28 32  1  0  0  0  0
 16 25  1  0  0  0  0
 14 33  1  1  0  0  0
 11 34  1  6  0  0  0
M  END
>  <cdx:fragmentId>
2113

$$$$
