315.cdx
  Mrv1902 05222410232D          

 32 34  0  0  0  0            999 V2000
    3.9491   -6.9712    0.0000 C   0  0  1  0  0  0  0  0  0  0  0  0
    3.9491   -7.7963    0.0000 C   0  0  2  0  0  0  0  0  0  0  0  0
    4.5941   -8.3106    0.0000 C   0  0  1  0  0  0  0  0  0  0  0  0
    5.3984   -8.1270    0.0000 C   0  0  0  0  0  0  0  0  0  0  0  0
    5.7563   -7.3838    0.0000 C   0  0  0  0  0  0  0  0  0  0  0  0
    5.3984   -6.6405    0.0000 C   0  0  0  0  0  0  0  0  0  0  0  0
    4.5941   -6.4569    0.0000 C   0  0  0  0  0  0  0  0  0  0  0  0
    3.1644   -6.7163    0.0000 O   0  0  0  0  0  0  0  0  0  0  0  0
    2.6795   -7.3838    0.0000 C   0  0  0  0  0  0  0  0  0  0  0  0
    3.1644   -8.0512    0.0000 C   0  0  0  0  0  0  0  0  0  0  0  0
    6.5813   -7.3838    0.0000 C   0  0  0  0  0  0  0  0  0  0  0  0
    6.5813   -6.5587    0.0000 C   0  0  0  0  0  0  0  0  0  0  0  0
    6.5813   -8.2088    0.0000 C   0  0  0  0  0  0  0  0  0  0  0  0
    7.4063   -7.3838    0.0000 O   0  0  0  0  0  0  0  0  0  0  0  0
    7.9897   -6.8004    0.0000 C   0  0  2  0  0  0  0  0  0  0  0  0
    8.8147   -6.8004    0.0000 C   0  0  2  0  0  0  0  0  0  0  0  0
    9.2272   -6.0859    0.0000 C   0  0  1  0  0  0  0  0  0  0  0  0
    8.8147   -5.3714    0.0000 C   0  0  2  0  0  0  0  0  0  0  0  0
    7.9897   -5.3714    0.0000 C   0  0  1  0  0  0  0  0  0  0  0  0
    7.5772   -6.0859    0.0000 O   0  0  0  0  0  0  0  0  0  0  0  0
    1.8545   -7.3838    0.0000 O   0  0  0  0  0  0  0  0  0  0  0  0
    4.3805   -9.1075    0.0000 C   0  0  0  0  0  0  0  0  0  0  0  0
    3.6661   -9.5200    0.0000 O   0  0  0  0  0  0  0  0  0  0  0  0
    4.5941   -9.9044    0.0000 C   0  0  0  0  0  0  0  0  0  0  0  0
    3.7355   -6.1744    0.0000 C   0  0  0  0  0  0  0  0  0  0  0  0
    3.0211   -5.7619    0.0000 O   0  0  0  0  0  0  0  0  0  0  0  0
    3.3657   -8.3796    0.0000 C   0  0  0  0  0  0  0  0  0  0  0  0
    9.2272   -7.5149    0.0000 O   0  0  0  0  0  0  0  0  0  0  0  0
   10.0522   -6.0859    0.0000 O   0  0  0  0  0  0  0  0  0  0  0  0
    9.2272   -4.6570    0.0000 O   0  0  0  0  0  0  0  0  0  0  0  0
    7.5772   -4.6570    0.0000 C   0  0  0  0  0  0  0  0  0  0  0  0
    7.7907   -3.8601    0.0000 O   0  0  0  0  0  0  0  0  0  0  0  0
  1  2  1  0  0  0  0
  2  3  1  0  0  0  0
  3  4  1  0  0  0  0
  4  5  1  0  0  0  0
  5  6  1  0  0  0  0
  6  7  1  0  0  0  0
  7  1  1  0  0  0  0
  1  8  1  6  0  0  0
  8  9  1  0  0  0  0
  9 10  1  0  0  0  0
 10  2  1  0  0  0  0
 11  5  1  1  0  0  0
 11 12  1  0  0  0  0
 11 13  1  0  0  0  0
 11 14  1  0  0  0  0
 15 14  1  1  0  0  0
 15 16  1  0  0  0  0
 16 17  1  0  0  0  0
 17 18  1  0  0  0  0
 18 19  1  0  0  0  0
 19 20  1  0  0  0  0
 20 15  1  0  0  0  0
  9 21  2  0  0  0  0
  3 22  1  1  0  0  0
 22 23  2  0  0  0  0
 22 24  1  0  0  0  0
  1 25  1  1  0  0  0
 25 26  1  0  0  0  0
  2 27  1  1  0  0  0
 16 28  1  6  0  0  0
 17 29  1  1  0  0  0
 18 30  1  6  0  0  0
 19 31  1  1  0  0  0
 31 32  1  0  0  0  0
M  END
>  <cdx:fragmentId>
1799

$$$$
