320.cdx
  Mrv1902 05222410202D          

 17 18  0  0  0  0            999 V2000
    4.4830   -4.3519    0.0000 C   0  0  0  0  0  0  0  0  0  0  0  0
    4.4830   -5.1769    0.0000 C   0  0  0  0  0  0  0  0  0  0  0  0
    5.1975   -5.5894    0.0000 C   0  0  0  0  0  0  0  0  0  0  0  0
    5.9120   -5.1769    0.0000 C   0  0  2  0  0  0  0  0  0  0  0  0
    5.9120   -4.3519    0.0000 C   0  0  2  0  0  0  0  0  0  0  0  0
    5.1975   -3.9394    0.0000 C   0  0  0  0  0  0  0  0  0  0  0  0
    3.7686   -5.5894    0.0000 C   0  0  0  0  0  0  0  0  0  0  0  0
    3.0541   -5.1769    0.0000 C   0  0  0  0  0  0  0  0  0  0  0  0
    3.7686   -6.4144    0.0000 C   0  0  0  0  0  0  0  0  0  0  0  0
    3.0541   -6.8269    0.0000 C   0  0  0  0  0  0  0  0  0  0  0  0
    3.0541   -7.6519    0.0000 C   0  0  0  0  0  0  0  0  0  0  0  0
    2.3396   -8.0644    0.0000 C   0  0  0  0  0  0  0  0  0  0  0  0
    1.6251   -7.6519    0.0000 C   0  0  0  0  0  0  0  0  0  0  0  0
    2.3396   -8.8894    0.0000 C   0  0  0  0  0  0  0  0  0  0  0  0
    6.6264   -4.7644    0.0000 O   0  0  0  0  0  0  0  0  0  0  0  0
    5.1975   -3.1144    0.0000 O   0  0  0  0  0  0  0  0  0  0  0  0
    6.3245   -3.6374    0.0000 C   0  0  0  0  0  0  0  0  0  0  0  0
  1  2  1  0  0  0  0
  2  3  1  0  0  0  0
  4  3  1  6  0  0  0
  4  5  1  0  0  0  0
  5  6  1  0  0  0  0
  6  1  1  0  0  0  0
  7  2  1  6  0  0  0
  7  8  2  0  0  0  0
  7  9  1  0  0  0  0
  9 10  1  0  0  0  0
 10 11  1  0  0  0  0
 11 12  2  0  0  0  0
 12 13  1  0  0  0  0
 12 14  1  0  0  0  0
  5 15  1  0  0  0  0
  4 15  1  0  0  0  0
  6 16  2  0  0  0  0
  5 17  1  1  0  0  0
M  END
>  <cdx:fragmentId>
2354

$$$$
