37828.cdx
  Mrv1902 05222410232D          

 27 31  0  0  0  0            999 V2000
    4.5568   -6.8452    0.0000 C   0  0  0  0  0  0  0  0  0  0  0  0
    3.9928   -7.4474    0.0000 C   0  0  0  0  0  0  0  0  0  0  0  0
    4.2323   -8.2369    0.0000 C   0  0  0  0  0  0  0  0  0  0  0  0
    5.0358   -8.4242    0.0000 C   0  0  0  0  0  0  0  0  0  0  0  0
    5.5997   -7.8220    0.0000 C   0  0  0  0  0  0  0  0  0  0  0  0
    5.3602   -7.0326    0.0000 C   0  0  0  0  0  0  0  0  0  0  0  0
    6.4032   -8.0094    0.0000 C   0  0  1  0  0  0  0  0  0  0  0  0
    4.1584   -6.1228    0.0000 C   0  0  0  0  0  0  0  0  0  0  0  0
    3.3482   -6.2785    0.0000 O   0  0  0  0  0  0  0  0  0  0  0  0
    3.2459   -7.0971    0.0000 C   0  0  0  0  0  0  0  0  0  0  0  0
    6.6427   -8.7988    0.0000 O   0  0  0  0  0  0  0  0  0  0  0  0
    7.4675   -8.8150    0.0000 C   0  0  0  0  0  0  0  0  0  0  0  0
    7.7378   -8.0355    0.0000 C   0  0  1  0  0  0  0  0  0  0  0  0
    7.0800   -7.5376    0.0000 C   0  0  2  0  0  0  0  0  0  0  0  0
    8.4146   -7.5638    0.0000 C   0  0  1  0  0  0  0  0  0  0  0  0
    8.1751   -6.7743    0.0000 O   0  0  0  0  0  0  0  0  0  0  0  0
    7.3503   -6.7581    0.0000 C   0  0  0  0  0  0  0  0  0  0  0  0
    6.4779   -6.9737    0.0000 H   0  0  0  0  0  0  0  0  0  0  0  0
    9.2181   -7.7511    0.0000 C   0  0  0  0  0  0  0  0  0  0  0  0
    9.4576   -8.5406    0.0000 C   0  0  0  0  0  0  0  0  0  0  0  0
   10.2610   -8.7279    0.0000 C   0  0  0  0  0  0  0  0  0  0  0  0
   10.8250   -8.1257    0.0000 C   0  0  0  0  0  0  0  0  0  0  0  0
   10.5855   -7.3363    0.0000 C   0  0  0  0  0  0  0  0  0  0  0  0
    9.7820   -7.1489    0.0000 C   0  0  0  0  0  0  0  0  0  0  0  0
   11.6284   -8.3130    0.0000 O   0  0  0  0  0  0  0  0  0  0  0  0
   10.5006   -9.5173    0.0000 O   0  0  0  0  0  0  0  0  0  0  0  0
    8.3956   -8.5334    0.0000 H   0  0  0  0  0  0  0  0  0  0  0  0
  1  2  2  0  0  0  0
  2  3  1  0  0  0  0
  3  4  2  0  0  0  0
  4  5  1  0  0  0  0
  5  6  2  0  0  0  0
  6  1  1  0  0  0  0
  7  5  1  6  0  0  0
  1  8  1  0  0  0  0
  8  9  1  0  0  0  0
  9 10  1  0  0  0  0
 10  2  1  0  0  0  0
  7 11  1  0  0  0  0
 11 12  1  0  0  0  0
 12 13  1  0  0  0  0
 13 14  1  0  0  0  0
 14  7  1  0  0  0  0
 13 15  1  0  0  0  0
 15 16  1  0  0  0  0
 16 17  1  0  0  0  0
 17 14  1  0  0  0  0
 14 18  1  6  0  0  0
 15 19  1  1  0  0  0
 19 20  2  0  0  0  0
 20 21  1  0  0  0  0
 21 22  2  0  0  0  0
 22 23  1  0  0  0  0
 23 24  2  0  0  0  0
 24 19  1  0  0  0  0
 22 25  1  0  0  0  0
 21 26  1  0  0  0  0
 13 27  1  6  0  0  0
M  END
>  <cdx:fragmentId>
3131

$$$$
