37825.cdx
  Mrv1902 05222410222D          

 29 30  0  0  0  0            999 V2000
    5.6610   -8.0143    0.0000 C   0  0  0  0  0  0  0  0  0  0  0  0
    4.9429   -7.6082    0.0000 C   0  0  0  0  0  0  0  0  0  0  0  0
    4.2321   -8.0271    0.0000 C   0  0  0  0  0  0  0  0  0  0  0  0
    4.2395   -8.8521    0.0000 C   0  0  0  0  0  0  0  0  0  0  0  0
    4.9576   -9.2582    0.0000 C   0  0  0  0  0  0  0  0  0  0  0  0
    5.6684   -8.8393    0.0000 C   0  0  0  0  0  0  0  0  0  0  0  0
    7.8203  -10.0619    0.0000 O   0  0  0  0  0  0  0  0  0  0  0  0
   11.4402   -8.7577    0.0000 C   0  0  0  0  0  0  0  0  0  0  0  0
   10.6733   -9.2200    0.0000 O   0  0  0  0  0  0  0  0  0  0  0  0
   10.6635   -7.5700    0.0000 O   0  0  0  0  0  0  0  0  0  0  0  0
    9.2444   -9.2285    0.0000 C   0  0  0  0  0  0  0  0  0  0  0  0
    9.9564   -8.8117    0.0000 C   0  0  0  0  0  0  0  0  0  0  0  0
    9.9515   -7.9868    0.0000 C   0  0  0  0  0  0  0  0  0  0  0  0
    9.2346   -7.5785    0.0000 C   0  0  0  0  0  0  0  0  0  0  0  0
    7.8154   -9.2369    0.0000 C   0  0  1  0  0  0  0  0  0  0  0  0
    3.5140   -7.6210    0.0000 C   0  0  0  0  0  0  0  0  0  0  0  0
    2.8032   -8.0399    0.0000 C   0  0  0  0  0  0  0  0  0  0  0  0
    2.0851   -7.6338    0.0000 C   0  0  0  0  0  0  0  0  0  0  0  0
    8.5275   -8.8202    0.0000 C   0  0  0  0  0  0  0  0  0  0  0  0
    8.5226   -7.9952    0.0000 C   0  0  0  0  0  0  0  0  0  0  0  0
    7.8057   -7.5870    0.0000 O   0  0  0  0  0  0  0  0  0  0  0  0
    6.3865   -9.2454    0.0000 O   0  0  0  0  0  0  0  0  0  0  0  0
    7.0985   -8.8287    0.0000 C   0  0  2  0  0  0  0  0  0  0  0  0
    7.0937   -8.0037    0.0000 C   0  0  0  0  0  0  0  0  0  0  0  0
    4.9650  -10.0831    0.0000 O   0  0  0  0  0  0  0  0  0  0  0  0
    6.3718   -7.5954    0.0000 O   0  0  0  0  0  0  0  0  0  0  0  0
    6.3533   -6.7707    0.0000 C   0  0  0  0  0  0  0  0  0  0  0  0
    1.3744   -8.0527    0.0000 O   0  0  0  0  0  0  0  0  0  0  0  0
    4.2085  -10.5428    0.0000 C   0  0  0  0  0  0  0  0  0  0  0  0
  1  2  2  0  0  0  0
  2  3  1  0  0  0  0
  3  4  2  0  0  0  0
  4  5  1  0  0  0  0
  5  6  2  0  0  0  0
  6  1  1  0  0  0  0
 15  7  1  6  0  0  0
  9  8  1  0  0  0  0
 12  9  1  0  0  0  0
 22  6  1  0  0  0  0
 13 10  1  0  0  0  0
 11 19  1  0  0  0  0
 12 11  2  0  0  0  0
 13 12  1  0  0  0  0
 14 13  2  0  0  0  0
 20 14  1  0  0  0  0
 15 23  1  0  0  0  0
 19 15  1  0  0  0  0
 20 19  2  0  0  0  0
 24 21  1  0  0  0  0
  3 16  1  0  0  0  0
 16 17  1  0  0  0  0
 17 18  1  0  0  0  0
 23 22  1  6  0  0  0
 24 23  1  0  0  0  0
  5 25  1  0  0  0  0
  1 26  1  0  0  0  0
 26 27  1  0  0  0  0
 18 28  1  0  0  0  0
 25 29  1  0  0  0  0
M  END
>  <cdx:fragmentId>
110

$$$$
