37824.cdx
  Mrv1902 05222410232D          

 27 30  0  0  0  0            999 V2000
    7.7131   -8.5049    0.0000 C   0  0  2  0  0  0  0  0  0  0  0  0
    7.9609   -7.7180    0.0000 C   0  0  2  0  0  0  0  0  0  0  0  0
    7.2891   -7.2391    0.0000 O   0  0  0  0  0  0  0  0  0  0  0  0
    6.6261   -7.7301    0.0000 C   0  0  0  0  0  0  0  0  0  0  0  0
    6.8881   -8.5124    0.0000 C   0  0  0  0  0  0  0  0  0  0  0  0
    8.2041   -9.1679    0.0000 C   0  0  0  0  0  0  0  0  0  0  0  0
    6.4093   -9.1842    0.0000 C   0  0  2  0  0  0  0  0  0  0  0  0
    9.0237   -9.0742    0.0000 O   0  0  0  0  0  0  0  0  0  0  0  0
    6.7517   -9.9348    0.0000 O   0  0  0  0  0  0  0  0  0  0  0  0
    5.5881   -9.1054    0.0000 C   0  0  0  0  0  0  0  0  0  0  0  0
    5.2457   -8.3548    0.0000 C   0  0  0  0  0  0  0  0  0  0  0  0
    4.4245   -8.2760    0.0000 C   0  0  0  0  0  0  0  0  0  0  0  0
    3.9456   -8.9478    0.0000 C   0  0  0  0  0  0  0  0  0  0  0  0
    4.2880   -9.6984    0.0000 C   0  0  0  0  0  0  0  0  0  0  0  0
    5.1092   -9.7772    0.0000 C   0  0  0  0  0  0  0  0  0  0  0  0
    3.9335   -7.6130    0.0000 O   0  0  0  0  0  0  0  0  0  0  0  0
    3.1512   -7.8751    0.0000 C   0  0  0  0  0  0  0  0  0  0  0  0
    3.1587   -8.7000    0.0000 O   0  0  0  0  0  0  0  0  0  0  0  0
    8.7432   -7.4559    0.0000 C   0  0  0  0  0  0  0  0  0  0  0  0
    9.3613   -8.0024    0.0000 C   0  0  0  0  0  0  0  0  0  0  0  0
   10.1435   -7.7403    0.0000 C   0  0  0  0  0  0  0  0  0  0  0  0
   10.3077   -6.9318    0.0000 C   0  0  0  0  0  0  0  0  0  0  0  0
    9.6897   -6.3854    0.0000 C   0  0  0  0  0  0  0  0  0  0  0  0
    8.9074   -6.6474    0.0000 C   0  0  0  0  0  0  0  0  0  0  0  0
   10.7616   -8.2868    0.0000 O   0  0  0  0  0  0  0  0  0  0  0  0
   11.5439   -8.0247    0.0000 C   0  0  0  0  0  0  0  0  0  0  0  0
   11.0900   -6.6698    0.0000 O   0  0  0  0  0  0  0  0  0  0  0  0
  1  2  1  0  0  0  0
  2  3  1  0  0  0  0
  3  4  1  0  0  0  0
  4  5  1  0  0  0  0
  5  1  1  0  0  0  0
  1  6  1  1  0  0  0
  5  7  1  0  0  0  0
  6  8  1  0  0  0  0
  7  9  1  6  0  0  0
  7 10  1  0  0  0  0
 10 11  2  0  0  0  0
 11 12  1  0  0  0  0
 12 13  2  0  0  0  0
 13 14  1  0  0  0  0
 14 15  2  0  0  0  0
 15 10  1  0  0  0  0
 12 16  1  0  0  0  0
 16 17  1  0  0  0  0
 17 18  1  0  0  0  0
 18 13  1  0  0  0  0
  2 19  1  6  0  0  0
 19 20  2  0  0  0  0
 20 21  1  0  0  0  0
 21 22  2  0  0  0  0
 22 23  1  0  0  0  0
 23 24  2  0  0  0  0
 24 19  1  0  0  0  0
 21 25  1  0  0  0  0
 25 26  1  0  0  0  0
 22 27  1  0  0  0  0
M  END
>  <cdx:fragmentId>
2932

$$$$
