339.cdx
  Mrv1902 05222410252D          

 75 79  0  0  0  0            999 V2000
   11.0926   -6.4482    0.0000 N   0  0  0  0  0  0  0  0  0  0  0  0
   11.1499   -5.6244    0.0000 C   0  0  0  0  0  0  0  0  0  0  0  0
   11.1468   -4.7585    0.0000 C   0  0  0  0  0  0  0  0  0  0  0  0
   10.9094   -3.9687    0.0000 N   0  0  0  0  0  0  0  0  0  0  0  0
   10.0251   -3.1562    0.0000 C   0  0  0  0  0  0  0  0  0  0  0  0
    9.3693   -2.7095    0.0000 C   0  0  0  0  0  0  0  0  0  0  0  0
    8.6886   -2.2430    0.0000 N   0  0  0  0  0  0  0  0  0  0  0  0
    7.8972   -2.0110    0.0000 C   0  0  0  0  0  0  0  0  0  0  0  0
    7.0802   -2.0802    0.0000 C   0  0  0  0  0  0  0  0  0  0  0  0
   10.7829   -7.2129    0.0000 C   0  0  0  0  0  0  0  0  0  0  0  0
    8.1125   -9.0904    0.0000 C   0  0  0  0  0  0  0  0  0  0  0  0
    7.2989   -9.2253    0.0000 N   0  0  0  0  0  0  0  0  0  0  0  0
    6.4761   -9.1685    0.0000 C   0  0  0  0  0  0  0  0  0  0  0  0
    5.5592   -8.9376    0.0000 C   0  0  0  0  0  0  0  0  0  0  0  0
    3.9742   -4.8478    0.0000 C   0  0  0  0  0  0  0  0  0  0  0  0
    3.9880   -4.4460    0.0000 C   0  0  0  0  0  0  0  0  0  0  0  0
    4.2139   -3.6528    0.0000 N   0  0  0  0  0  0  0  0  0  0  0  0
    4.8407   -3.0041    0.0000 C   0  0  0  0  0  0  0  0  0  0  0  0
    5.4913   -2.4927    0.0000 C   0  0  0  0  0  0  0  0  0  0  0  0
    6.2686   -2.2057    0.0000 N   0  0  0  0  0  0  0  0  0  0  0  0
    3.1751   -5.0529    0.0000 C   0  0  0  0  0  0  0  0  0  0  0  0
    2.7968   -5.7222    0.0000 C   0  0  0  0  0  0  0  0  0  0  0  0
    1.9301   -5.7543    0.0000 S   0  0  0  0  0  0  0  0  0  0  0  0
    1.5252   -5.0355    0.0000 C   0  0  0  0  0  0  0  0  0  0  0  0
    3.2395   -4.0991    0.0000 O   0  0  0  0  0  0  0  0  0  0  0  0
    4.2075   -2.4753    0.0000 C   0  0  0  0  0  0  0  0  0  0  0  0
    4.3488   -1.6625    0.0000 C   0  0  0  0  0  0  0  0  0  0  0  0
    3.7156   -1.1337    0.0000 C   0  0  0  0  0  0  0  0  0  0  0  0
    5.1234   -1.3785    0.0000 C   0  0  0  0  0  0  0  0  0  0  0  0
    5.0886   -1.7727    0.0000 O   0  0  0  0  0  0  0  0  0  0  0  0
    7.1217   -1.2562    0.0000 C   0  0  0  0  0  0  0  0  0  0  0  0
    6.5685   -0.6442    0.0000 C   0  0  0  0  0  0  0  0  0  0  0  0
    7.9074   -0.9054    0.0000 C   0  0  0  0  0  0  0  0  0  0  0  0
    8.1523   -0.1942    0.0000 C   0  0  0  0  0  0  0  0  0  0  0  0
    8.0031   -1.1928    0.0000 O   0  0  0  0  0  0  0  0  0  0  0  0
   10.0229   -2.2057    0.0000 C   0  0  0  0  0  0  0  0  0  0  0  0
    9.7462   -1.4278    0.0000 C   0  0  0  0  0  0  0  0  0  0  0  0
    8.9213   -1.4504    0.0000 C   0  0  0  0  0  0  0  0  0  0  0  0
   10.6214   -2.5861    0.0000 O   0  0  0  0  0  0  0  0  0  0  0  0
   11.9603   -4.6181    0.0000 C   0  0  0  0  0  0  0  0  0  0  0  0
   12.1068   -3.8063    0.0000 C   0  0  0  0  0  0  0  0  0  0  0  0
   11.3839   -3.4449    0.0000 C   0  0  0  0  0  0  0  0  0  0  0  0
   11.9687   -5.7257    0.0000 O   0  0  0  0  0  0  0  0  0  0  0  0
   11.4413   -7.7100    0.0000 C   0  0  0  0  0  0  0  0  0  0  0  0
   12.2010   -7.3883    0.0000 C   0  0  0  0  0  0  0  0  0  0  0  0
   12.8594   -7.8854    0.0000 C   0  0  0  0  0  0  0  0  0  0  0  0
   13.6191   -7.5638    0.0000 C   0  0  0  0  0  0  0  0  0  0  0  0
   13.7204   -6.7450    0.0000 C   0  0  0  0  0  0  0  0  0  0  0  0
   13.0620   -6.2479    0.0000 C   0  0  0  0  0  0  0  0  0  0  0  0
   12.3023   -6.5696    0.0000 C   0  0  0  0  0  0  0  0  0  0  0  0
    8.3323   -9.8856    0.0000 O   0  0  0  0  0  0  0  0  0  0  0  0
    6.5483   -9.9904    0.0000 C   0  0  0  0  0  0  0  0  0  0  0  0
    5.8726  -10.4638    0.0000 C   0  0  0  0  0  0  0  0  0  0  0  0
    7.2961  -10.3388    0.0000 C   0  0  0  0  0  0  0  0  0  0  0  0
    5.3629   -9.6094    0.0000 O   0  0  0  0  0  0  0  0  0  0  0  0
    5.0431   -8.5142    0.0000 N   0  0  0  0  0  0  0  0  0  0  0  0
   10.2657   -7.8557    0.0000 C   0  0  0  0  0  0  0  0  0  0  0  0
   10.9077   -8.3738    0.0000 O   0  0  0  0  0  0  0  0  0  0  0  0
    9.7476   -8.4977    0.0000 N   0  0  0  0  0  0  0  0  0  0  0  0
    9.0794   -8.9816    0.0000 C   0  0  0  0  0  0  0  0  0  0  0  0
    9.5634   -9.6498    0.0000 C   0  0  0  0  0  0  0  0  0  0  0  0
   10.3840   -9.5648    0.0000 C   0  0  0  0  0  0  0  0  0  0  0  0
   10.8679  -10.2329    0.0000 C   0  0  0  0  0  0  0  0  0  0  0  0
   11.6885  -10.1479    0.0000 C   0  0  0  0  0  0  0  0  0  0  0  0
   12.0252   -9.3948    0.0000 C   0  0  0  0  0  0  0  0  0  0  0  0
   11.5413   -8.7266    0.0000 C   0  0  0  0  0  0  0  0  0  0  0  0
   10.7207   -8.8116    0.0000 C   0  0  0  0  0  0  0  0  0  0  0  0
    4.6355   -7.7970    0.0000 C   0  0  0  0  0  0  0  0  0  0  0  0
    3.9182   -8.2046    0.0000 C   0  0  0  0  0  0  0  0  0  0  0  0
    4.1263   -9.0029    0.0000 C   0  0  0  0  0  0  0  0  0  0  0  0
    3.1582   -7.8837    0.0000 C   0  0  0  0  0  0  0  0  0  0  0  0
    2.3808   -8.1600    0.0000 C   0  0  0  0  0  0  0  0  0  0  0  0
    4.0911   -6.9784    0.0000 C   0  0  0  0  0  0  0  0  0  0  0  0
    3.2687   -7.0440    0.0000 O   0  0  0  0  0  0  0  0  0  0  0  0
    4.0255   -6.1560    0.0000 N   0  0  0  0  0  0  0  0  0  0  0  0
  1  2  1  0  0  0  0
  2  3  1  0  0  0  0
  4  5  1  0  0  0  0
  3  4  1  0  0  0  0
  6  7  1  0  0  0  0
  6  5  1  0  0  0  0
  7  8  1  0  0  0  0
  8  9  1  0  0  0  0
 11 12  1  0  0  0  0
 13 14  1  0  0  0  0
 12 13  1  0  0  0  0
 15 16  1  0  0  0  0
 16 17  1  0  0  0  0
 17 18  1  0  0  0  0
 19 20  1  0  0  0  0
 19 18  1  0  0  0  0
  1 10  1  0  0  0  0
  9 20  1  0  0  0  0
 15 21  1  0  0  0  0
 21 22  1  0  0  0  0
 22 23  1  0  0  0  0
 23 24  1  0  0  0  0
 16 25  2  0  0  0  0
 18 26  1  0  0  0  0
 26 27  1  0  0  0  0
 27 28  1  0  0  0  0
 27 29  1  0  0  0  0
 19 30  2  0  0  0  0
  9 31  1  0  0  0  0
 31 32  1  0  0  0  0
 31 33  1  0  0  0  0
 33 34  1  0  0  0  0
  8 35  2  0  0  0  0
  6 36  1  0  0  0  0
 36 37  1  0  0  0  0
 37 38  1  0  0  0  0
 38  7  1  0  0  0  0
  5 39  2  0  0  0  0
  3 40  1  0  0  0  0
 40 41  1  0  0  0  0
 41 42  1  0  0  0  0
 42  4  1  0  0  0  0
  2 43  2  0  0  0  0
 10 44  1  0  0  0  0
 44 45  1  0  0  0  0
 45 46  2  0  0  0  0
 46 47  1  0  0  0  0
 47 48  2  0  0  0  0
 48 49  1  0  0  0  0
 49 50  2  0  0  0  0
 50 45  1  0  0  0  0
 11 51  2  0  0  0  0
 13 52  1  0  0  0  0
 52 53  1  0  0  0  0
 52 54  1  0  0  0  0
 14 55  2  0  0  0  0
 56 14  1  0  0  0  0
 10 57  1  0  0  0  0
 57 58  2  0  0  0  0
 57 59  1  0  0  0  0
 59 60  1  0  0  0  0
 60 61  1  0  0  0  0
 61 62  1  0  0  0  0
 62 63  2  0  0  0  0
 63 64  1  0  0  0  0
 64 65  2  0  0  0  0
 65 66  1  0  0  0  0
 66 67  2  0  0  0  0
 67 62  1  0  0  0  0
 11 60  1  0  0  0  0
 56 68  1  0  0  0  0
 68 69  1  0  0  0  0
 69 70  1  0  0  0  0
 69 71  1  0  0  0  0
 71 72  1  0  0  0  0
 68 73  1  0  0  0  0
 73 74  2  0  0  0  0
 73 75  1  0  0  0  0
 15 75  1  0  0  0  0
M  END
>  <cdx:groupId>
789

>  <cdx:fragmentId>
790

$$$$
