333.cdx
  Mrv1902 05222410222D          

 76 81  0  0  0  0            999 V2000
    5.5069   -3.8156    0.0000 N   0  0  0  0  0  0  0  0  0  0  0  0
    5.9194   -3.1012    0.0000 C   0  0  0  0  0  0  0  0  0  0  0  0
    6.7444   -3.1012    0.0000 C   0  0  0  0  0  0  0  0  0  0  0  0
    7.1569   -3.8156    0.0000 N   0  0  0  0  0  0  0  0  0  0  0  0
    7.9819   -3.8156    0.0000 C   0  0  0  0  0  0  0  0  0  0  0  0
    4.6819   -3.8156    0.0000 C   0  0  0  0  0  0  0  0  0  0  0  0
    4.0985   -4.3990    0.0000 C   0  0  0  0  0  0  0  0  0  0  0  0
    8.6963   -4.2281    0.0000 C   0  0  0  0  0  0  0  0  0  0  0  0
    4.0985   -5.2240    0.0000 N   0  0  0  0  0  0  0  0  0  0  0  0
    8.6963   -5.0531    0.0000 N   0  0  0  0  0  0  0  0  0  0  0  0
    5.5069   -2.3867    0.0000 C   0  0  0  0  0  0  0  0  0  0  0  0
    5.9194   -1.6722    0.0000 C   0  0  0  0  0  0  0  0  0  0  0  0
    5.5069   -0.9577    0.0000 C   0  0  0  0  0  0  0  0  0  0  0  0
    6.7444   -1.6722    0.0000 C   0  0  0  0  0  0  0  0  0  0  0  0
    4.3662   -3.0534    0.0000 O   0  0  0  0  0  0  0  0  0  0  0  0
    3.5151   -3.8156    0.0000 C   0  0  0  0  0  0  0  0  0  0  0  0
    3.5151   -2.9906    0.0000 C   0  0  0  0  0  0  0  0  0  0  0  0
    2.8007   -2.5781    0.0000 C   0  0  0  0  0  0  0  0  0  0  0  0
    4.2296   -2.5781    0.0000 C   0  0  0  0  0  0  0  0  0  0  0  0
    8.2368   -3.0310    0.0000 C   0  0  0  0  0  0  0  0  0  0  0  0
    7.5694   -2.5461    0.0000 C   0  0  0  0  0  0  0  0  0  0  0  0
    6.9019   -3.0310    0.0000 C   0  0  0  0  0  0  0  0  0  0  0  0
    6.7444   -2.2762    0.0000 O   0  0  0  0  0  0  0  0  0  0  0  0
    9.4108   -3.8156    0.0000 O   0  0  0  0  0  0  0  0  0  0  0  0
    3.5151   -5.8074    0.0000 C   0  0  0  0  0  0  0  0  0  0  0  0
    9.4108   -5.4656    0.0000 C   0  0  0  0  0  0  0  0  0  0  0  0
    3.5151   -6.6324    0.0000 C   0  0  0  0  0  0  0  0  0  0  0  0
    9.4108   -6.2906    0.0000 C   0  0  0  0  0  0  0  0  0  0  0  0
    2.8007   -7.0449    0.0000 C   0  0  0  0  0  0  0  0  0  0  0  0
    4.2296   -7.0449    0.0000 N   0  0  0  0  0  0  0  0  0  0  0  0
   10.1253   -6.7031    0.0000 O   0  0  0  0  0  0  0  0  0  0  0  0
    8.6963   -6.7031    0.0000 N   0  0  0  0  0  0  0  0  0  0  0  0
    2.8007   -5.3949    0.0000 O   0  0  0  0  0  0  0  0  0  0  0  0
    2.0862   -6.6324    0.0000 C   0  0  0  0  0  0  0  0  0  0  0  0
    1.3717   -7.0449    0.0000 S   0  0  0  0  0  0  0  0  0  0  0  0
    0.6573   -6.6324    0.0000 C   0  0  0  0  0  0  0  0  0  0  0  0
    4.2296   -7.8699    0.0000 C   0  0  0  0  0  0  0  0  0  0  0  0
    3.5151   -8.2824    0.0000 O   0  0  0  0  0  0  0  0  0  0  0  0
   10.1253   -5.0531    0.0000 C   0  0  0  0  0  0  0  0  0  0  0  0
   10.8398   -5.4656    0.0000 C   0  0  0  0  0  0  0  0  0  0  0  0
   10.8398   -6.2906    0.0000 C   0  0  0  0  0  0  0  0  0  0  0  0
   11.5542   -6.7031    0.0000 C   0  0  0  0  0  0  0  0  0  0  0  0
   12.2687   -6.2906    0.0000 C   0  0  0  0  0  0  0  0  0  0  0  0
   12.2687   -5.4656    0.0000 C   0  0  0  0  0  0  0  0  0  0  0  0
   11.5542   -5.0531    0.0000 C   0  0  0  0  0  0  0  0  0  0  0  0
    8.6963   -7.5281    0.0000 C   0  0  0  0  0  0  0  0  0  0  0  0
    7.9819   -7.9406    0.0000 C   0  0  0  0  0  0  0  0  0  0  0  0
    9.4108   -7.9406    0.0000 C   0  0  0  0  0  0  0  0  0  0  0  0
    9.6243   -8.7375    0.0000 C   0  0  0  0  0  0  0  0  0  0  0  0
    9.0410   -9.3209    0.0000 C   0  0  0  0  0  0  0  0  0  0  0  0
    9.2545  -10.1178    0.0000 C   0  0  0  0  0  0  0  0  0  0  0  0
   10.0514  -10.3313    0.0000 C   0  0  0  0  0  0  0  0  0  0  0  0
   10.6348   -9.7479    0.0000 C   0  0  0  0  0  0  0  0  0  0  0  0
   10.4212   -8.9510    0.0000 C   0  0  0  0  0  0  0  0  0  0  0  0
    4.9441   -8.2824    0.0000 C   0  0  0  0  0  0  0  0  0  0  0  0
    5.6586   -7.8699    0.0000 N   0  0  0  0  0  0  0  0  0  0  0  0
    4.9441   -9.1074    0.0000 C   0  0  0  0  0  0  0  0  0  0  0  0
    4.1472   -9.3209    0.0000 C   0  0  0  0  0  0  0  0  0  0  0  0
    3.5638   -8.7375    0.0000 C   0  0  0  0  0  0  0  0  0  0  0  0
    5.5986   -9.6096    0.0000 C   0  0  0  0  0  0  0  0  0  0  0  0
    6.3730   -8.2824    0.0000 C   0  0  0  0  0  0  0  0  0  0  0  0
    7.2674   -7.5281    0.0000 N   0  0  0  0  0  0  0  0  0  0  0  0
    7.9819   -8.7656    0.0000 O   0  0  0  0  0  0  0  0  0  0  0  0
    6.3730   -9.1074    0.0000 O   0  0  0  0  0  0  0  0  0  0  0  0
    7.0875   -7.8699    0.0000 C   0  0  0  0  0  0  0  0  0  0  0  0
    7.3010   -8.6667    0.0000 C   0  0  0  0  0  0  0  0  0  0  0  0
    7.0875   -9.4636    0.0000 C   0  0  0  0  0  0  0  0  0  0  0  0
    6.2625   -9.4636    0.0000 C   0  0  0  0  0  0  0  0  0  0  0  0
    6.0076  -10.2483    0.0000 N   0  0  0  0  0  0  0  0  0  0  0  0
    6.6750  -10.7332    0.0000 C   0  0  0  0  0  0  0  0  0  0  0  0
    7.3424  -10.2483    0.0000 C   0  0  0  0  0  0  0  0  0  0  0  0
    6.7612  -11.5537    0.0000 C   0  0  0  0  0  0  0  0  0  0  0  0
    7.5149  -11.8892    0.0000 C   0  0  0  0  0  0  0  0  0  0  0  0
    8.1824  -11.4043    0.0000 C   0  0  0  0  0  0  0  0  0  0  0  0
    8.0961  -10.5838    0.0000 C   0  0  0  0  0  0  0  0  0  0  0  0
    1.3717   -7.8699    0.0000 O   0  0  0  0  0  0  0  0  0  0  0  0
  1  2  1  0  0  0  0
  2  3  1  0  0  0  0
  3  4  1  0  0  0  0
  4  5  1  0  0  0  0
  1  6  1  0  0  0  0
  6  7  1  0  0  0  0
  5  8  1  0  0  0  0
  7  9  1  0  0  0  0
  8 10  1  0  0  0  0
  2 11  1  0  0  0  0
 11 12  1  0  0  0  0
 12 13  1  0  0  0  0
 12 14  1  0  0  0  0
  6 15  2  0  0  0  0
  7 16  1  0  0  0  0
 16 17  1  0  0  0  0
 17 18  1  0  0  0  0
 17 19  1  0  0  0  0
  5 20  1  0  0  0  0
 20 21  1  0  0  0  0
 21 22  1  0  0  0  0
 22  4  1  0  0  0  0
  3 23  2  0  0  0  0
  8 24  2  0  0  0  0
  9 25  1  0  0  0  0
 10 26  1  0  0  0  0
 25 27  1  0  0  0  0
 26 28  1  0  0  0  0
 27 29  1  0  0  0  0
 27 30  1  0  0  0  0
 28 31  2  0  0  0  0
 28 32  1  0  0  0  0
 25 33  2  0  0  0  0
 29 34  1  0  0  0  0
 34 35  1  0  0  0  0
 35 36  1  0  0  0  0
 30 37  1  0  0  0  0
 37 38  2  0  0  0  0
 26 39  1  0  0  0  0
 39 40  1  0  0  0  0
 40 41  2  0  0  0  0
 41 42  1  0  0  0  0
 42 43  2  0  0  0  0
 43 44  1  0  0  0  0
 44 45  2  0  0  0  0
 45 40  1  0  0  0  0
 32 46  1  0  0  0  0
 46 47  1  0  0  0  0
 46 48  1  0  0  0  0
 48 49  1  0  0  0  0
 49 50  2  0  0  0  0
 50 51  1  0  0  0  0
 51 52  2  0  0  0  0
 52 53  1  0  0  0  0
 53 54  2  0  0  0  0
 54 49  1  0  0  0  0
 37 55  1  0  0  0  0
 55 56  1  0  0  0  0
 55 57  1  0  0  0  0
 57 58  1  0  0  0  0
 58 59  1  0  0  0  0
 57 60  1  0  0  0  0
 56 61  1  0  0  0  0
 47 62  1  0  0  0  0
 47 63  2  0  0  0  0
 61 64  2  0  0  0  0
 61 65  1  0  0  0  0
 65 62  1  0  0  0  0
 65 66  1  0  0  0  0
 66 67  1  0  0  0  0
 67 68  2  0  0  0  0
 68 69  1  0  0  0  0
 69 70  1  0  0  0  0
 70 71  2  0  0  0  0
 71 67  1  0  0  0  0
 70 72  1  0  0  0  0
 72 73  2  0  0  0  0
 73 74  1  0  0  0  0
 74 75  2  0  0  0  0
 75 71  1  0  0  0  0
 35 76  2  0  0  0  0
M  END
>  <cdx:fragmentId>
3271

$$$$
