347.cdx
  Mrv1902 05222410202D          

 73 76  0  0  0  0            999 V2000
   11.0424  -10.0526    0.0000 N   0  0  0  0  0  0  0  0  0  0  0  0
   11.2705   -9.2590    0.0000 C   0  0  0  0  0  0  0  0  0  0  0  0
   11.4482   -8.4115    0.0000 C   0  0  0  0  0  0  0  0  0  0  0  0
   11.3810   -7.5895    0.0000 N   0  0  0  0  0  0  0  0  0  0  0  0
   10.6859   -6.6102    0.0000 C   0  0  0  0  0  0  0  0  0  0  0  0
   10.1379   -6.0364    0.0000 C   0  0  0  0  0  0  0  0  0  0  0  0
    9.5696   -5.4381    0.0000 N   0  0  0  0  0  0  0  0  0  0  0  0
    8.8441   -5.0459    0.0000 C   0  0  0  0  0  0  0  0  0  0  0  0
    8.0306   -4.9429    0.0000 C   0  0  0  0  0  0  0  0  0  0  0  0
   10.5798  -10.7357    0.0000 C   0  0  0  0  0  0  0  0  0  0  0  0
    7.5762  -12.0142    0.0000 C   0  0  0  0  0  0  0  0  0  0  0  0
    6.7524  -11.9762    0.0000 N   0  0  0  0  0  0  0  0  0  0  0  0
    5.9596  -11.7489    0.0000 C   0  0  0  0  0  0  0  0  0  0  0  0
    5.1112  -11.3315    0.0000 C   0  0  0  0  0  0  0  0  0  0  0  0
    4.3313   -6.9712    0.0000 C   0  0  0  0  0  0  0  0  0  0  0  0
    4.5126   -6.6108    0.0000 C   0  0  0  0  0  0  0  0  0  0  0  0
    4.8992   -5.8823    0.0000 N   0  0  0  0  0  0  0  0  0  0  0  0
    5.5687   -5.4037    0.0000 C   0  0  0  0  0  0  0  0  0  0  0  0
    6.3906   -5.0146    0.0000 C   0  0  0  0  0  0  0  0  0  0  0  0
    7.2108   -4.8963    0.0000 N   0  0  0  0  0  0  0  0  0  0  0  0
    3.5909   -7.0346    0.0000 C   0  0  0  0  0  0  0  0  0  0  0  0
    3.8530   -6.1153    0.0000 O   0  0  0  0  0  0  0  0  0  0  0  0
    6.1472   -4.2263    0.0000 O   0  0  0  0  0  0  0  0  0  0  0  0
    9.1185   -4.2679    0.0000 O   0  0  0  0  0  0  0  0  0  0  0  0
   11.3882   -6.1773    0.0000 O   0  0  0  0  0  0  0  0  0  0  0  0
   12.0500   -9.5290    0.0000 O   0  0  0  0  0  0  0  0  0  0  0  0
   11.1199  -11.3594    0.0000 C   0  0  0  0  0  0  0  0  0  0  0  0
   11.9300  -11.2035    0.0000 C   0  0  0  0  0  0  0  0  0  0  0  0
   12.4701  -11.8271    0.0000 C   0  0  0  0  0  0  0  0  0  0  0  0
   13.2803  -11.6712    0.0000 C   0  0  0  0  0  0  0  0  0  0  0  0
   13.5503  -10.8916    0.0000 C   0  0  0  0  0  0  0  0  0  0  0  0
   13.0102  -10.2680    0.0000 C   0  0  0  0  0  0  0  0  0  0  0  0
   12.2001  -10.4239    0.0000 C   0  0  0  0  0  0  0  0  0  0  0  0
    7.6251  -12.8378    0.0000 O   0  0  0  0  0  0  0  0  0  0  0  0
    4.7789  -11.9475    0.0000 O   0  0  0  0  0  0  0  0  0  0  0  0
    4.6948  -10.8097    0.0000 N   0  0  0  0  0  0  0  0  0  0  0  0
    9.9398  -11.2563    0.0000 C   0  0  0  0  0  0  0  0  0  0  0  0
   10.4595  -11.8971    0.0000 O   0  0  0  0  0  0  0  0  0  0  0  0
    9.2991  -11.7760    0.0000 N   0  0  0  0  0  0  0  0  0  0  0  0
    8.5446  -12.1097    0.0000 C   0  0  0  0  0  0  0  0  0  0  0  0
    8.8783  -12.8642    0.0000 C   0  0  0  0  0  0  0  0  0  0  0  0
    4.1250  -10.0650    0.0000 C   0  0  0  0  0  0  0  0  0  0  0  0
    3.6594  -10.2720    0.0000 C   0  0  0  0  0  0  0  0  0  0  0  0
    4.0846   -9.1089    0.0000 C   0  0  0  0  0  0  0  0  0  0  0  0
    3.2666   -9.0014    0.0000 O   0  0  0  0  0  0  0  0  0  0  0  0
    4.0012   -8.1056    0.0000 N   0  0  0  0  0  0  0  0  0  0  0  0
    3.0075   -6.4512    0.0000 C   0  0  0  0  0  0  0  0  0  0  0  0
    2.2106   -6.6648    0.0000 C   0  0  0  0  0  0  0  0  0  0  0  0
    3.2210   -5.6544    0.0000 C   0  0  0  0  0  0  0  0  0  0  0  0
    8.3283   -4.1776    0.0000 C   0  0  0  0  0  0  0  0  0  0  0  0
    7.6925   -3.6580    0.0000 C   0  0  0  0  0  0  0  0  0  0  0  0
    8.6647  -13.6611    0.0000 C   0  0  0  0  0  0  0  0  0  0  0  0
    3.2469  -10.9865    0.0000 C   0  0  0  0  0  0  0  0  0  0  0  0
   10.8825   -5.6808    0.0000 C   0  0  0  0  0  0  0  0  0  0  0  0
   10.7745   -4.8627    0.0000 C   0  0  0  0  0  0  0  0  0  0  0  0
    9.9630   -4.7127    0.0000 C   0  0  0  0  0  0  0  0  0  0  0  0
   12.2508   -8.6016    0.0000 C   0  0  0  0  0  0  0  0  0  0  0  0
   12.6795   -7.8971    0.0000 C   0  0  0  0  0  0  0  0  0  0  0  0
    2.4500  -11.2000    0.0000 S   0  0  0  0  0  0  0  0  0  0  0  0
    1.6531  -10.9865    0.0000 C   0  0  0  0  0  0  0  0  0  0  0  0
    5.1507   -4.6925    0.0000 C   0  0  0  0  0  0  0  0  0  0  0  0
    5.5576   -3.9749    0.0000 C   0  0  0  0  0  0  0  0  0  0  0  0
    4.3257   -4.6990    0.0000 C   0  0  0  0  0  0  0  0  0  0  0  0
    7.8252   -2.8437    0.0000 C   0  0  0  0  0  0  0  0  0  0  0  0
    7.1864   -2.3217    0.0000 C   0  0  0  0  0  0  0  0  0  0  0  0
    6.4149   -2.6139    0.0000 C   0  0  0  0  0  0  0  0  0  0  0  0
    6.2822   -3.4281    0.0000 C   0  0  0  0  0  0  0  0  0  0  0  0
    6.9210   -3.9502    0.0000 C   0  0  0  0  0  0  0  0  0  0  0  0
   13.5043   -7.9161    0.0000 C   0  0  0  0  0  0  0  0  0  0  0  0
   12.2836   -7.1732    0.0000 C   0  0  0  0  0  0  0  0  0  0  0  0
    9.7008  -12.8005    0.0000 C   0  0  0  0  0  0  0  0  0  0  0  0
    9.2481  -14.2445    0.0000 C   0  0  0  0  0  0  0  0  0  0  0  0
    2.2365  -11.9969    0.0000 O   0  0  0  0  0  0  0  0  0  0  0  0
  1  2  1  0  0  0  0
  2  3  1  0  0  0  0
  4  5  1  0  0  0  0
  3  4  1  0  0  0  0
  6  7  1  0  0  0  0
  6  5  1  0  0  0  0
  7  8  1  0  0  0  0
  8  9  1  0  0  0  0
 11 12  1  0  0  0  0
 13 14  1  0  0  0  0
 12 13  1  0  0  0  0
 15 16  1  0  0  0  0
 16 17  1  0  0  0  0
 17 18  1  0  0  0  0
 19 20  1  0  0  0  0
 19 18  1  0  0  0  0
  1 10  1  0  0  0  0
  9 20  1  0  0  0  0
 15 21  1  0  0  0  0
 16 22  2  0  0  0  0
 19 23  2  0  0  0  0
  8 24  2  0  0  0  0
  5 25  2  0  0  0  0
  2 26  2  0  0  0  0
 10 27  1  0  0  0  0
 27 28  1  0  0  0  0
 28 29  2  0  0  0  0
 29 30  1  0  0  0  0
 30 31  2  0  0  0  0
 31 32  1  0  0  0  0
 32 33  2  0  0  0  0
 33 28  1  0  0  0  0
 11 34  2  0  0  0  0
 14 35  2  0  0  0  0
 36 14  1  0  0  0  0
 10 37  1  0  0  0  0
 37 38  2  0  0  0  0
 37 39  1  0  0  0  0
 39 40  1  0  0  0  0
 40 41  1  0  0  0  0
 11 40  1  0  0  0  0
 36 42  1  0  0  0  0
 42 43  1  0  0  0  0
 42 44  1  0  0  0  0
 44 45  2  0  0  0  0
 44 46  1  0  0  0  0
 15 46  1  0  0  0  0
 21 47  1  0  0  0  0
 47 48  1  0  0  0  0
 47 49  1  0  0  0  0
  9 50  1  0  0  0  0
 50 51  1  0  0  0  0
 41 52  1  0  0  0  0
 43 53  1  0  0  0  0
  6 54  1  0  0  0  0
 54 55  1  0  0  0  0
 55 56  1  0  0  0  0
 56  7  1  0  0  0  0
  3 57  1  0  0  0  0
 57 58  1  0  0  0  0
 53 59  1  0  0  0  0
 59 60  1  0  0  0  0
 18 61  1  0  0  0  0
 61 62  1  0  0  0  0
 61 63  1  0  0  0  0
 51 64  2  0  0  0  0
 64 65  1  0  0  0  0
 65 66  2  0  0  0  0
 66 67  1  0  0  0  0
 67 68  2  0  0  0  0
 68 51  1  0  0  0  0
 58 69  1  0  0  0  0
 58 70  1  0  0  0  0
 41 71  1  0  0  0  0
 52 72  1  0  0  0  0
 59 73  2  0  0  0  0
M  END
>  <cdx:groupId>
789

>  <cdx:fragmentId>
3940

$$$$
