340.cdx
  Mrv1902 05222410192D          

 75 79  0  0  0  0            999 V2000
   10.4531   -8.1586    0.0000 N   0  0  0  0  0  0  0  0  0  0  0  0
   10.6812   -7.3649    0.0000 C   0  0  0  0  0  0  0  0  0  0  0  0
   10.8589   -6.5174    0.0000 C   0  0  0  0  0  0  0  0  0  0  0  0
   10.7917   -5.6955    0.0000 N   0  0  0  0  0  0  0  0  0  0  0  0
   10.0966   -4.7162    0.0000 C   0  0  0  0  0  0  0  0  0  0  0  0
    9.5486   -4.1424    0.0000 C   0  0  0  0  0  0  0  0  0  0  0  0
    8.9803   -3.5440    0.0000 N   0  0  0  0  0  0  0  0  0  0  0  0
    8.2548   -3.1518    0.0000 C   0  0  0  0  0  0  0  0  0  0  0  0
    7.4413   -3.0489    0.0000 C   0  0  0  0  0  0  0  0  0  0  0  0
    9.9905   -8.8417    0.0000 C   0  0  0  0  0  0  0  0  0  0  0  0
    6.9869  -10.1202    0.0000 C   0  0  0  0  0  0  0  0  0  0  0  0
    6.1631  -10.0822    0.0000 N   0  0  0  0  0  0  0  0  0  0  0  0
    5.3703   -9.8548    0.0000 C   0  0  0  0  0  0  0  0  0  0  0  0
    4.5219   -9.4375    0.0000 C   0  0  0  0  0  0  0  0  0  0  0  0
    3.8259   -5.1069    0.0000 C   0  0  0  0  0  0  0  0  0  0  0  0
    3.9233   -4.7168    0.0000 C   0  0  0  0  0  0  0  0  0  0  0  0
    4.3099   -3.9883    0.0000 N   0  0  0  0  0  0  0  0  0  0  0  0
    5.0583   -3.4848    0.0000 C   0  0  0  0  0  0  0  0  0  0  0  0
    5.8013   -3.1205    0.0000 C   0  0  0  0  0  0  0  0  0  0  0  0
    6.6215   -3.0022    0.0000 N   0  0  0  0  0  0  0  0  0  0  0  0
    3.0016   -5.1406    0.0000 C   0  0  0  0  0  0  0  0  0  0  0  0
    3.2637   -4.2212    0.0000 O   0  0  0  0  0  0  0  0  0  0  0  0
    4.5495   -2.8355    0.0000 C   0  0  0  0  0  0  0  0  0  0  0  0
    4.8574   -2.0701    0.0000 C   0  0  0  0  0  0  0  0  0  0  0  0
    5.5579   -2.3323    0.0000 O   0  0  0  0  0  0  0  0  0  0  0  0
    8.5292   -2.3738    0.0000 O   0  0  0  0  0  0  0  0  0  0  0  0
   10.2929   -3.7862    0.0000 C   0  0  0  0  0  0  0  0  0  0  0  0
   10.1848   -2.9677    0.0000 C   0  0  0  0  0  0  0  0  0  0  0  0
    9.3734   -2.8175    0.0000 C   0  0  0  0  0  0  0  0  0  0  0  0
   10.7989   -4.2832    0.0000 O   0  0  0  0  0  0  0  0  0  0  0  0
   11.6838   -6.5501    0.0000 C   0  0  0  0  0  0  0  0  0  0  0  0
   11.9967   -5.7867    0.0000 C   0  0  0  0  0  0  0  0  0  0  0  0
   11.4607   -7.6350    0.0000 O   0  0  0  0  0  0  0  0  0  0  0  0
   10.5306   -9.4653    0.0000 C   0  0  0  0  0  0  0  0  0  0  0  0
   11.3407   -9.3094    0.0000 C   0  0  0  0  0  0  0  0  0  0  0  0
   11.8808   -9.9331    0.0000 C   0  0  0  0  0  0  0  0  0  0  0  0
   12.6910   -9.7772    0.0000 C   0  0  0  0  0  0  0  0  0  0  0  0
   12.9610   -8.9976    0.0000 C   0  0  0  0  0  0  0  0  0  0  0  0
   12.4209   -8.3740    0.0000 C   0  0  0  0  0  0  0  0  0  0  0  0
   11.6108   -8.5299    0.0000 C   0  0  0  0  0  0  0  0  0  0  0  0
    7.0358  -10.9437    0.0000 O   0  0  0  0  0  0  0  0  0  0  0  0
    5.2692  -10.6736    0.0000 C   0  0  0  0  0  0  0  0  0  0  0  0
    4.5096  -10.9955    0.0000 C   0  0  0  0  0  0  0  0  0  0  0  0
    5.9278  -11.1706    0.0000 C   0  0  0  0  0  0  0  0  0  0  0  0
    4.1896  -10.0535    0.0000 O   0  0  0  0  0  0  0  0  0  0  0  0
    4.1055   -8.9157    0.0000 N   0  0  0  0  0  0  0  0  0  0  0  0
    9.3505   -9.3623    0.0000 C   0  0  0  0  0  0  0  0  0  0  0  0
    9.8702  -10.0031    0.0000 O   0  0  0  0  0  0  0  0  0  0  0  0
    8.7098   -9.8820    0.0000 N   0  0  0  0  0  0  0  0  0  0  0  0
    7.9553  -10.2157    0.0000 C   0  0  0  0  0  0  0  0  0  0  0  0
    8.2890  -10.9702    0.0000 C   0  0  0  0  0  0  0  0  0  0  0  0
    3.8567   -8.1291    0.0000 C   0  0  0  0  0  0  0  0  0  0  0  0
    3.0701   -8.3780    0.0000 C   0  0  0  0  0  0  0  0  0  0  0  0
    3.1069   -9.2022    0.0000 C   0  0  0  0  0  0  0  0  0  0  0  0
    2.3939   -7.9054    0.0000 C   0  0  0  0  0  0  0  0  0  0  0  0
    1.5759   -8.0133    0.0000 C   0  0  0  0  0  0  0  0  0  0  0  0
    3.4953   -7.2149    0.0000 C   0  0  0  0  0  0  0  0  0  0  0  0
    2.6773   -7.1073    0.0000 O   0  0  0  0  0  0  0  0  0  0  0  0
    3.6028   -6.3969    0.0000 N   0  0  0  0  0  0  0  0  0  0  0  0
    2.4182   -4.5572    0.0000 C   0  0  0  0  0  0  0  0  0  0  0  0
    1.6213   -4.7707    0.0000 C   0  0  0  0  0  0  0  0  0  0  0  0
    2.6317   -3.7603    0.0000 C   0  0  0  0  0  0  0  0  0  0  0  0
    3.7327   -2.9514    0.0000 C   0  0  0  0  0  0  0  0  0  0  0  0
    7.7391   -2.2836    0.0000 C   0  0  0  0  0  0  0  0  0  0  0  0
    7.1032   -1.7640    0.0000 C   0  0  0  0  0  0  0  0  0  0  0  0
    6.4125   -2.2081    0.0000 C   0  0  0  0  0  0  0  0  0  0  0  0
   12.8217   -5.7867    0.0000 C   0  0  0  0  0  0  0  0  0  0  0  0
   13.2342   -5.0722    0.0000 C   0  0  0  0  0  0  0  0  0  0  0  0
   12.8217   -4.3577    0.0000 C   0  0  0  0  0  0  0  0  0  0  0  0
   11.9967   -4.3577    0.0000 C   0  0  0  0  0  0  0  0  0  0  0  0
   11.5842   -5.0722    0.0000 C   0  0  0  0  0  0  0  0  0  0  0  0
    8.0755  -11.7671    0.0000 C   0  0  0  0  0  0  0  0  0  0  0  0
    7.3610  -12.1796    0.0000 C   0  0  0  0  0  0  0  0  0  0  0  0
    8.7899  -12.1796    0.0000 C   0  0  0  0  0  0  0  0  0  0  0  0
    4.5096  -11.8205    0.0000 C   0  0  0  0  0  0  0  0  0  0  0  0
  1  2  1  0  0  0  0
  2  3  1  0  0  0  0
  4  5  1  0  0  0  0
  3  4  1  0  0  0  0
  6  7  1  0  0  0  0
  6  5  1  0  0  0  0
  7  8  1  0  0  0  0
  8  9  1  0  0  0  0
 11 12  1  0  0  0  0
 13 14  1  0  0  0  0
 12 13  1  0  0  0  0
 15 16  1  0  0  0  0
 16 17  1  0  0  0  0
 17 18  1  0  0  0  0
 19 20  1  0  0  0  0
 19 18  1  0  0  0  0
  1 10  1  0  0  0  0
  9 20  1  0  0  0  0
 15 21  1  0  0  0  0
 16 22  2  0  0  0  0
 18 23  1  0  0  0  0
 23 24  1  0  0  0  0
 19 25  2  0  0  0  0
  8 26  2  0  0  0  0
  6 27  1  0  0  0  0
 27 28  1  0  0  0  0
 28 29  1  0  0  0  0
 29  7  1  0  0  0  0
  5 30  2  0  0  0  0
  3 31  1  0  0  0  0
 31 32  1  0  0  0  0
  2 33  2  0  0  0  0
 10 34  1  0  0  0  0
 34 35  1  0  0  0  0
 35 36  2  0  0  0  0
 36 37  1  0  0  0  0
 37 38  2  0  0  0  0
 38 39  1  0  0  0  0
 39 40  2  0  0  0  0
 40 35  1  0  0  0  0
 11 41  2  0  0  0  0
 13 42  1  0  0  0  0
 42 43  1  0  0  0  0
 42 44  1  0  0  0  0
 14 45  2  0  0  0  0
 46 14  1  0  0  0  0
 10 47  1  0  0  0  0
 47 48  2  0  0  0  0
 47 49  1  0  0  0  0
 49 50  1  0  0  0  0
 50 51  1  0  0  0  0
 11 50  1  0  0  0  0
 46 52  1  0  0  0  0
 52 53  1  0  0  0  0
 53 54  1  0  0  0  0
 53 55  1  0  0  0  0
 55 56  1  0  0  0  0
 52 57  1  0  0  0  0
 57 58  2  0  0  0  0
 57 59  1  0  0  0  0
 15 59  1  0  0  0  0
 21 60  1  0  0  0  0
 60 61  1  0  0  0  0
 60 62  1  0  0  0  0
 23 63  1  0  0  0  0
  9 64  1  0  0  0  0
 64 65  1  0  0  0  0
 65 66  1  0  0  0  0
 66 20  1  0  0  0  0
 32 67  2  0  0  0  0
 67 68  1  0  0  0  0
 68 69  2  0  0  0  0
 69 70  1  0  0  0  0
 70 71  2  0  0  0  0
 71 32  1  0  0  0  0
 51 72  1  0  0  0  0
 72 73  1  0  0  0  0
 72 74  1  0  0  0  0
 43 75  1  0  0  0  0
M  END
>  <cdx:groupId>
789

>  <cdx:fragmentId>
3723

$$$$
