37849.cdx
  Mrv1902 05222410262D          

 20 22  0  0  0  0            999 V2000
    5.6073   -7.4039    0.0000 C   0  0  0  0  0  0  0  0  0  0  0  0
    5.8518   -8.1918    0.0000 C   0  0  0  0  0  0  0  0  0  0  0  0
    6.6564   -8.3740    0.0000 C   0  0  0  0  0  0  0  0  0  0  0  0
    7.2166   -7.7683    0.0000 C   0  0  0  0  0  0  0  0  0  0  0  0
    6.9721   -6.9804    0.0000 C   0  0  0  0  0  0  0  0  0  0  0  0
    6.1674   -6.7981    0.0000 C   0  0  0  0  0  0  0  0  0  0  0  0
    8.0415   -7.7792    0.0000 C   0  0  0  0  0  0  0  0  0  0  0  0
    8.3068   -6.9981    0.0000 C   0  0  0  0  0  0  0  0  0  0  0  0
    7.6459   -6.5043    0.0000 N   0  0  0  0  0  0  0  0  0  0  0  0
    8.5853   -8.3996    0.0000 C   0  0  0  0  0  0  0  0  0  0  0  0
    9.3945   -8.2388    0.0000 C   0  0  0  0  0  0  0  0  0  0  0  0
    9.6599   -7.4576    0.0000 N   0  0  0  0  0  0  0  0  0  0  0  0
    9.1160   -6.8373    0.0000 C   0  0  0  0  0  0  0  0  0  0  0  0
    9.3813   -6.0561    0.0000 C   0  0  0  0  0  0  0  0  0  0  0  0
    8.8375   -5.4357    0.0000 O   0  0  0  0  0  0  0  0  0  0  0  0
    5.9229   -6.0102    0.0000 O   0  0  0  0  0  0  0  0  0  0  0  0
    8.4031   -9.2042    0.0000 O   0  0  0  0  0  0  0  0  0  0  0  0
    7.6062   -9.4178    0.0000 C   0  0  0  0  0  0  0  0  0  0  0  0
   10.1905   -5.8953    0.0000 O   0  0  0  0  0  0  0  0  0  0  0  0
   10.4558   -5.1141    0.0000 C   0  0  0  0  0  0  0  0  0  0  0  0
  1  2  2  0  0  0  0
  2  3  1  0  0  0  0
  3  4  2  0  0  0  0
  4  5  1  0  0  0  0
  5  6  2  0  0  0  0
  6  1  1  0  0  0  0
  4  7  1  0  0  0  0
  7  8  2  0  0  0  0
  8  9  1  0  0  0  0
  9  5  1  0  0  0  0
  7 10  1  0  0  0  0
 10 11  2  0  0  0  0
 11 12  1  0  0  0  0
 12 13  2  0  0  0  0
 13  8  1  0  0  0  0
 13 14  1  0  0  0  0
 14 15  2  0  0  0  0
  6 16  1  0  0  0  0
 10 17  1  0  0  0  0
 17 18  1  0  0  0  0
 14 19  1  0  0  0  0
 19 20  1  0  0  0  0
M  END
>  <cdx:fragmentId>
3964

$$$$
