345.cdx
  Mrv1902 05222410192D          

 77 81  0  0  0  0            999 V2000
   11.4343   -8.9609    0.0000 N   0  0  0  0  0  0  0  0  0  0  0  0
   11.6623   -8.1672    0.0000 C   0  0  0  0  0  0  0  0  0  0  0  0
   11.8401   -7.3197    0.0000 C   0  0  0  0  0  0  0  0  0  0  0  0
   11.7729   -6.4978    0.0000 N   0  0  0  0  0  0  0  0  0  0  0  0
   11.1788   -5.4244    0.0000 C   0  0  0  0  0  0  0  0  0  0  0  0
   10.7044   -4.7850    0.0000 C   0  0  0  0  0  0  0  0  0  0  0  0
    9.9614   -4.3463    0.0000 N   0  0  0  0  0  0  0  0  0  0  0  0
    9.2359   -3.9541    0.0000 C   0  0  0  0  0  0  0  0  0  0  0  0
    8.4225   -3.8512    0.0000 C   0  0  0  0  0  0  0  0  0  0  0  0
   10.9717   -9.6440    0.0000 C   0  0  0  0  0  0  0  0  0  0  0  0
    7.9681  -10.9225    0.0000 C   0  0  0  0  0  0  0  0  0  0  0  0
    7.1443  -10.8845    0.0000 N   0  0  0  0  0  0  0  0  0  0  0  0
    6.3515  -10.6571    0.0000 C   0  0  0  0  0  0  0  0  0  0  0  0
    5.5030  -10.2398    0.0000 C   0  0  0  0  0  0  0  0  0  0  0  0
    4.8070   -5.9092    0.0000 C   0  0  0  0  0  0  0  0  0  0  0  0
    4.9044   -5.5191    0.0000 C   0  0  0  0  0  0  0  0  0  0  0  0
    5.2911   -4.7906    0.0000 N   0  0  0  0  0  0  0  0  0  0  0  0
    6.0395   -4.2871    0.0000 C   0  0  0  0  0  0  0  0  0  0  0  0
    6.7825   -3.9228    0.0000 C   0  0  0  0  0  0  0  0  0  0  0  0
    7.6027   -3.8045    0.0000 N   0  0  0  0  0  0  0  0  0  0  0  0
    3.9827   -5.9429    0.0000 C   0  0  0  0  0  0  0  0  0  0  0  0
    4.2449   -5.0235    0.0000 O   0  0  0  0  0  0  0  0  0  0  0  0
    5.5307   -3.6377    0.0000 C   0  0  0  0  0  0  0  0  0  0  0  0
    6.5391   -3.1346    0.0000 O   0  0  0  0  0  0  0  0  0  0  0  0
    9.5104   -3.1761    0.0000 O   0  0  0  0  0  0  0  0  0  0  0  0
   11.7800   -5.0855    0.0000 O   0  0  0  0  0  0  0  0  0  0  0  0
   12.6650   -7.3523    0.0000 C   0  0  0  0  0  0  0  0  0  0  0  0
   12.9779   -6.5890    0.0000 C   0  0  0  0  0  0  0  0  0  0  0  0
   12.4419   -8.4373    0.0000 O   0  0  0  0  0  0  0  0  0  0  0  0
   11.5118  -10.2676    0.0000 C   0  0  0  0  0  0  0  0  0  0  0  0
   12.3219  -10.1117    0.0000 C   0  0  0  0  0  0  0  0  0  0  0  0
   12.8620  -10.7354    0.0000 C   0  0  0  0  0  0  0  0  0  0  0  0
   13.6721  -10.5794    0.0000 C   0  0  0  0  0  0  0  0  0  0  0  0
   13.9422   -9.7999    0.0000 C   0  0  0  0  0  0  0  0  0  0  0  0
   13.4021   -9.1762    0.0000 C   0  0  0  0  0  0  0  0  0  0  0  0
   12.5920   -9.3322    0.0000 C   0  0  0  0  0  0  0  0  0  0  0  0
    8.0170  -11.7460    0.0000 O   0  0  0  0  0  0  0  0  0  0  0  0
    6.2504  -11.4759    0.0000 C   0  0  0  0  0  0  0  0  0  0  0  0
    5.4908  -11.7977    0.0000 C   0  0  0  0  0  0  0  0  0  0  0  0
    6.9089  -11.9729    0.0000 C   0  0  0  0  0  0  0  0  0  0  0  0
    5.1708  -10.8558    0.0000 O   0  0  0  0  0  0  0  0  0  0  0  0
    5.0867   -9.7180    0.0000 N   0  0  0  0  0  0  0  0  0  0  0  0
   10.3317  -10.1646    0.0000 C   0  0  0  0  0  0  0  0  0  0  0  0
   10.8514  -10.8054    0.0000 O   0  0  0  0  0  0  0  0  0  0  0  0
    9.6909  -10.6842    0.0000 N   0  0  0  0  0  0  0  0  0  0  0  0
    8.9364  -11.0180    0.0000 C   0  0  0  0  0  0  0  0  0  0  0  0
    9.2701  -11.7725    0.0000 C   0  0  0  0  0  0  0  0  0  0  0  0
    4.8379   -8.9314    0.0000 C   0  0  0  0  0  0  0  0  0  0  0  0
    4.0513   -9.1803    0.0000 C   0  0  0  0  0  0  0  0  0  0  0  0
    4.4764   -8.0172    0.0000 C   0  0  0  0  0  0  0  0  0  0  0  0
    3.6585   -7.9096    0.0000 O   0  0  0  0  0  0  0  0  0  0  0  0
    4.5840   -7.1992    0.0000 N   0  0  0  0  0  0  0  0  0  0  0  0
    3.3994   -5.3595    0.0000 C   0  0  0  0  0  0  0  0  0  0  0  0
    2.6025   -5.5730    0.0000 C   0  0  0  0  0  0  0  0  0  0  0  0
    3.6129   -4.5626    0.0000 C   0  0  0  0  0  0  0  0  0  0  0  0
    8.7202   -3.0859    0.0000 C   0  0  0  0  0  0  0  0  0  0  0  0
    8.0844   -2.5663    0.0000 C   0  0  0  0  0  0  0  0  0  0  0  0
    7.3937   -3.0104    0.0000 C   0  0  0  0  0  0  0  0  0  0  0  0
   13.8029   -6.5890    0.0000 C   0  0  0  0  0  0  0  0  0  0  0  0
   14.2154   -5.8745    0.0000 C   0  0  0  0  0  0  0  0  0  0  0  0
   13.8029   -5.1600    0.0000 C   0  0  0  0  0  0  0  0  0  0  0  0
   12.9779   -5.1600    0.0000 C   0  0  0  0  0  0  0  0  0  0  0  0
   12.5654   -5.8745    0.0000 C   0  0  0  0  0  0  0  0  0  0  0  0
    9.0566  -12.5693    0.0000 C   0  0  0  0  0  0  0  0  0  0  0  0
    5.4908  -12.6227    0.0000 C   0  0  0  0  0  0  0  0  0  0  0  0
    3.6388   -9.8947    0.0000 C   0  0  0  0  0  0  0  0  0  0  0  0
    2.8138   -9.8947    0.0000 S   0  0  0  0  0  0  0  0  0  0  0  0
    2.2304   -9.3114    0.0000 C   0  0  0  0  0  0  0  0  0  0  0  0
    5.8386   -2.8724    0.0000 C   0  0  0  0  0  0  0  0  0  0  0  0
    5.4261   -2.1579    0.0000 C   0  0  0  0  0  0  0  0  0  0  0  0
    4.7138   -3.7537    0.0000 C   0  0  0  0  0  0  0  0  0  0  0  0
   11.3512   -4.2140    0.0000 C   0  0  0  0  0  0  0  0  0  0  0  0
   11.0080   -3.4224    0.0000 C   0  0  0  0  0  0  0  0  0  0  0  0
   10.1491   -3.5042    0.0000 C   0  0  0  0  0  0  0  0  0  0  0  0
   10.0927  -11.7087    0.0000 C   0  0  0  0  0  0  0  0  0  0  0  0
    2.0993  -10.3072    0.0000 O   0  0  0  0  0  0  0  0  0  0  0  0
    3.0273  -10.6916    0.0000 O   0  0  0  0  0  0  0  0  0  0  0  0
  1  2  1  0  0  0  0
  2  3  1  0  0  0  0
  4  5  1  0  0  0  0
  3  4  1  0  0  0  0
  6  7  1  0  0  0  0
  6  5  1  0  0  0  0
  7  8  1  0  0  0  0
  8  9  1  0  0  0  0
 11 12  1  0  0  0  0
 13 14  1  0  0  0  0
 12 13  1  0  0  0  0
 15 16  1  0  0  0  0
 16 17  1  0  0  0  0
 17 18  1  0  0  0  0
 19 20  1  0  0  0  0
 19 18  1  0  0  0  0
  1 10  1  0  0  0  0
  9 20  1  0  0  0  0
 15 21  1  0  0  0  0
 16 22  2  0  0  0  0
 18 23  1  0  0  0  0
 19 24  2  0  0  0  0
  8 25  2  0  0  0  0
  5 26  2  0  0  0  0
  3 27  1  0  0  0  0
 27 28  1  0  0  0  0
  2 29  2  0  0  0  0
 10 30  1  0  0  0  0
 30 31  1  0  0  0  0
 31 32  2  0  0  0  0
 32 33  1  0  0  0  0
 33 34  2  0  0  0  0
 34 35  1  0  0  0  0
 35 36  2  0  0  0  0
 36 31  1  0  0  0  0
 11 37  2  0  0  0  0
 13 38  1  0  0  0  0
 38 39  1  0  0  0  0
 38 40  1  0  0  0  0
 14 41  2  0  0  0  0
 42 14  1  0  0  0  0
 10 43  1  0  0  0  0
 43 44  2  0  0  0  0
 43 45  1  0  0  0  0
 45 46  1  0  0  0  0
 46 47  1  0  0  0  0
 11 46  1  0  0  0  0
 42 48  1  0  0  0  0
 48 49  1  0  0  0  0
 48 50  1  0  0  0  0
 50 51  2  0  0  0  0
 50 52  1  0  0  0  0
 15 52  1  0  0  0  0
 21 53  1  0  0  0  0
 53 54  1  0  0  0  0
 53 55  1  0  0  0  0
  9 56  1  0  0  0  0
 56 57  1  0  0  0  0
 57 58  1  0  0  0  0
 58 20  1  0  0  0  0
 28 59  2  0  0  0  0
 59 60  1  0  0  0  0
 60 61  2  0  0  0  0
 61 62  1  0  0  0  0
 62 63  2  0  0  0  0
 63 28  1  0  0  0  0
 47 64  1  0  0  0  0
 39 65  1  0  0  0  0
 49 66  1  0  0  0  0
 66 67  1  0  0  0  0
 67 68  1  0  0  0  0
 23 69  1  0  0  0  0
 69 70  1  0  0  0  0
 23 71  1  0  0  0  0
  6 72  1  0  0  0  0
 72 73  1  0  0  0  0
 73 74  1  0  0  0  0
 74  7  1  0  0  0  0
 47 75  1  0  0  0  0
 67 76  2  0  0  0  0
 67 77  2  0  0  0  0
M  END
>  <cdx:groupId>
789

>  <cdx:fragmentId>
3921

$$$$
