344.cdx
  Mrv1902 05222410192D          

 88 94  0  0  0  0            999 V2000
   12.0530   -8.9403    0.0000 N   0  0  0  0  0  0  0  0  0  0  0  0
   12.2811   -8.1466    0.0000 C   0  0  0  0  0  0  0  0  0  0  0  0
   12.4589   -7.2991    0.0000 C   0  0  0  0  0  0  0  0  0  0  0  0
   12.3916   -6.4771    0.0000 N   0  0  0  0  0  0  0  0  0  0  0  0
   11.6965   -5.4978    0.0000 C   0  0  0  0  0  0  0  0  0  0  0  0
   11.1485   -4.9240    0.0000 C   0  0  0  0  0  0  0  0  0  0  0  0
   10.5802   -4.3257    0.0000 N   0  0  0  0  0  0  0  0  0  0  0  0
    9.8547   -3.9335    0.0000 C   0  0  0  0  0  0  0  0  0  0  0  0
    9.0412   -3.8306    0.0000 C   0  0  0  0  0  0  0  0  0  0  0  0
   11.5904   -9.6234    0.0000 C   0  0  0  0  0  0  0  0  0  0  0  0
    8.5869  -10.9018    0.0000 C   0  0  0  0  0  0  0  0  0  0  0  0
    7.7630  -10.8639    0.0000 N   0  0  0  0  0  0  0  0  0  0  0  0
    6.9702  -10.6365    0.0000 C   0  0  0  0  0  0  0  0  0  0  0  0
    6.1218  -10.2191    0.0000 C   0  0  0  0  0  0  0  0  0  0  0  0
    5.4258   -5.8885    0.0000 C   0  0  0  0  0  0  0  0  0  0  0  0
    5.5232   -5.4984    0.0000 C   0  0  0  0  0  0  0  0  0  0  0  0
    5.9098   -4.7699    0.0000 N   0  0  0  0  0  0  0  0  0  0  0  0
    6.6583   -4.2665    0.0000 C   0  0  0  0  0  0  0  0  0  0  0  0
    7.4013   -3.9022    0.0000 C   0  0  0  0  0  0  0  0  0  0  0  0
    8.2214   -3.7839    0.0000 N   0  0  0  0  0  0  0  0  0  0  0  0
    4.6015   -5.9222    0.0000 C   0  0  0  0  0  0  0  0  0  0  0  0
    4.8636   -5.0029    0.0000 O   0  0  0  0  0  0  0  0  0  0  0  0
    6.1494   -3.6171    0.0000 C   0  0  0  0  0  0  0  0  0  0  0  0
    7.1578   -3.1139    0.0000 O   0  0  0  0  0  0  0  0  0  0  0  0
   10.1291   -3.1555    0.0000 O   0  0  0  0  0  0  0  0  0  0  0  0
   11.8928   -4.5679    0.0000 C   0  0  0  0  0  0  0  0  0  0  0  0
   11.7847   -3.7494    0.0000 C   0  0  0  0  0  0  0  0  0  0  0  0
   12.3988   -5.0649    0.0000 O   0  0  0  0  0  0  0  0  0  0  0  0
   13.2837   -7.3317    0.0000 C   0  0  0  0  0  0  0  0  0  0  0  0
   13.5966   -6.5683    0.0000 C   0  0  0  0  0  0  0  0  0  0  0  0
   13.0606   -8.4166    0.0000 O   0  0  0  0  0  0  0  0  0  0  0  0
   12.1305  -10.2470    0.0000 C   0  0  0  0  0  0  0  0  0  0  0  0
   12.9407  -10.0911    0.0000 C   0  0  0  0  0  0  0  0  0  0  0  0
   13.4807  -10.7147    0.0000 C   0  0  0  0  0  0  0  0  0  0  0  0
   14.2909  -10.5588    0.0000 C   0  0  0  0  0  0  0  0  0  0  0  0
   14.5609   -9.7793    0.0000 C   0  0  0  0  0  0  0  0  0  0  0  0
   14.0208   -9.1556    0.0000 C   0  0  0  0  0  0  0  0  0  0  0  0
   13.2107   -9.3115    0.0000 C   0  0  0  0  0  0  0  0  0  0  0  0
    8.6357  -11.7254    0.0000 O   0  0  0  0  0  0  0  0  0  0  0  0
    6.8691  -11.4553    0.0000 C   0  0  0  0  0  0  0  0  0  0  0  0
    6.1095  -11.7771    0.0000 C   0  0  0  0  0  0  0  0  0  0  0  0
    7.5277  -11.9522    0.0000 C   0  0  0  0  0  0  0  0  0  0  0  0
    5.7895  -10.8351    0.0000 O   0  0  0  0  0  0  0  0  0  0  0  0
    5.7055   -9.6974    0.0000 N   0  0  0  0  0  0  0  0  0  0  0  0
   10.9505  -10.1440    0.0000 C   0  0  0  0  0  0  0  0  0  0  0  0
   11.4701  -10.7847    0.0000 O   0  0  0  0  0  0  0  0  0  0  0  0
   10.3097  -10.6636    0.0000 N   0  0  0  0  0  0  0  0  0  0  0  0
    9.5552  -10.9973    0.0000 C   0  0  0  0  0  0  0  0  0  0  0  0
    9.8889  -11.7518    0.0000 C   0  0  0  0  0  0  0  0  0  0  0  0
    5.4566   -8.9108    0.0000 C   0  0  0  0  0  0  0  0  0  0  0  0
    4.6700   -9.1596    0.0000 C   0  0  0  0  0  0  0  0  0  0  0  0
    5.0952   -7.9965    0.0000 C   0  0  0  0  0  0  0  0  0  0  0  0
    4.2772   -7.8890    0.0000 O   0  0  0  0  0  0  0  0  0  0  0  0
    5.2027   -7.1786    0.0000 N   0  0  0  0  0  0  0  0  0  0  0  0
    4.0181   -5.3389    0.0000 C   0  0  0  0  0  0  0  0  0  0  0  0
    3.2212   -5.5524    0.0000 C   0  0  0  0  0  0  0  0  0  0  0  0
    4.2316   -4.5420    0.0000 C   0  0  0  0  0  0  0  0  0  0  0  0
    5.3326   -3.7331    0.0000 C   0  0  0  0  0  0  0  0  0  0  0  0
    9.3390   -3.0653    0.0000 C   0  0  0  0  0  0  0  0  0  0  0  0
    8.7031   -2.5456    0.0000 C   0  0  0  0  0  0  0  0  0  0  0  0
    8.0124   -2.9898    0.0000 C   0  0  0  0  0  0  0  0  0  0  0  0
   14.4216   -6.5683    0.0000 C   0  0  0  0  0  0  0  0  0  0  0  0
   14.8341   -5.8539    0.0000 C   0  0  0  0  0  0  0  0  0  0  0  0
   14.4216   -5.1394    0.0000 C   0  0  0  0  0  0  0  0  0  0  0  0
   13.5966   -5.1394    0.0000 C   0  0  0  0  0  0  0  0  0  0  0  0
   13.1841   -5.8539    0.0000 C   0  0  0  0  0  0  0  0  0  0  0  0
    9.6754  -12.5487    0.0000 C   0  0  0  0  0  0  0  0  0  0  0  0
    6.1095  -12.6021    0.0000 C   0  0  0  0  0  0  0  0  0  0  0  0
    4.2575   -9.8741    0.0000 C   0  0  0  0  0  0  0  0  0  0  0  0
    3.4325   -9.8741    0.0000 S   0  0  0  0  0  0  0  0  0  0  0  0
    2.8492   -9.2907    0.0000 C   0  0  0  0  0  0  0  0  0  0  0  0
    4.8237   -3.0837    0.0000 C   0  0  0  0  0  0  0  0  0  0  0  0
    4.0069   -3.1997    0.0000 C   0  0  0  0  0  0  0  0  0  0  0  0
    3.4981   -2.5503    0.0000 N   0  0  0  0  0  0  0  0  0  0  0  0
   12.3681   -3.1660    0.0000 C   0  0  0  0  0  0  0  0  0  0  0  0
   12.1546   -2.3691    0.0000 C   0  0  0  0  0  0  0  0  0  0  0  0
   11.3577   -2.1556    0.0000 C   0  0  0  0  0  0  0  0  0  0  0  0
   10.7743   -2.7390    0.0000 C   0  0  0  0  0  0  0  0  0  0  0  0
   10.9878   -3.5358    0.0000 C   0  0  0  0  0  0  0  0  0  0  0  0
    8.9609  -12.9612    0.0000 C   0  0  0  0  0  0  0  0  0  0  0  0
    9.1324  -13.7682    0.0000 C   0  0  0  0  0  0  0  0  0  0  0  0
    9.9529  -13.8544    0.0000 N   0  0  0  0  0  0  0  0  0  0  0  0
   10.2885  -13.1007    0.0000 C   0  0  0  0  0  0  0  0  0  0  0  0
    8.1763  -12.7063    0.0000 C   0  0  0  0  0  0  0  0  0  0  0  0
    7.5632  -13.2583    0.0000 C   0  0  0  0  0  0  0  0  0  0  0  0
    7.7347  -14.0653    0.0000 C   0  0  0  0  0  0  0  0  0  0  0  0
    8.5193  -14.3202    0.0000 C   0  0  0  0  0  0  0  0  0  0  0  0
    3.0200  -10.5886    0.0000 O   0  0  0  0  0  0  0  0  0  0  0  0
  1  2  1  0  0  0  0
  2  3  1  0  0  0  0
  4  5  1  0  0  0  0
  3  4  1  0  0  0  0
  6  7  1  0  0  0  0
  6  5  1  0  0  0  0
  7  8  1  0  0  0  0
  8  9  1  0  0  0  0
 11 12  1  0  0  0  0
 13 14  1  0  0  0  0
 12 13  1  0  0  0  0
 15 16  1  0  0  0  0
 16 17  1  0  0  0  0
 17 18  1  0  0  0  0
 19 20  1  0  0  0  0
 19 18  1  0  0  0  0
  1 10  1  0  0  0  0
  9 20  1  0  0  0  0
 15 21  1  0  0  0  0
 16 22  2  0  0  0  0
 18 23  1  0  0  0  0
 19 24  2  0  0  0  0
  8 25  2  0  0  0  0
  6 26  1  0  0  0  0
 26 27  1  0  0  0  0
  5 28  2  0  0  0  0
  3 29  1  0  0  0  0
 29 30  1  0  0  0  0
  2 31  2  0  0  0  0
 10 32  1  0  0  0  0
 32 33  1  0  0  0  0
 33 34  2  0  0  0  0
 34 35  1  0  0  0  0
 35 36  2  0  0  0  0
 36 37  1  0  0  0  0
 37 38  2  0  0  0  0
 38 33  1  0  0  0  0
 11 39  2  0  0  0  0
 13 40  1  0  0  0  0
 40 41  1  0  0  0  0
 40 42  1  0  0  0  0
 14 43  2  0  0  0  0
 44 14  1  0  0  0  0
 10 45  1  0  0  0  0
 45 46  2  0  0  0  0
 45 47  1  0  0  0  0
 47 48  1  0  0  0  0
 48 49  1  0  0  0  0
 11 48  1  0  0  0  0
 44 50  1  0  0  0  0
 50 51  1  0  0  0  0
 50 52  1  0  0  0  0
 52 53  2  0  0  0  0
 52 54  1  0  0  0  0
 15 54  1  0  0  0  0
 21 55  1  0  0  0  0
 55 56  1  0  0  0  0
 55 57  1  0  0  0  0
 23 58  1  0  0  0  0
  9 59  1  0  0  0  0
 59 60  1  0  0  0  0
 60 61  1  0  0  0  0
 61 20  1  0  0  0  0
 30 62  2  0  0  0  0
 62 63  1  0  0  0  0
 63 64  2  0  0  0  0
 64 65  1  0  0  0  0
 65 66  2  0  0  0  0
 66 30  1  0  0  0  0
 49 67  1  0  0  0  0
 41 68  1  0  0  0  0
 51 69  1  0  0  0  0
 69 70  1  0  0  0  0
 70 71  1  0  0  0  0
 58 72  1  0  0  0  0
 72 73  1  0  0  0  0
 73 74  1  0  0  0  0
 27 75  2  0  0  0  0
 75 76  1  0  0  0  0
 76 77  2  0  0  0  0
 77 78  1  0  0  0  0
 78 79  2  0  0  0  0
 79 27  1  0  0  0  0
 67 80  1  0  0  0  0
 80 81  2  0  0  0  0
 81 82  1  0  0  0  0
 82 83  1  0  0  0  0
 83 67  2  0  0  0  0
 80 84  1  0  0  0  0
 84 85  2  0  0  0  0
 85 86  1  0  0  0  0
 86 87  2  0  0  0  0
 87 81  1  0  0  0  0
 70 88  2  0  0  0  0
M  END
>  <cdx:groupId>
789

>  <cdx:fragmentId>
3723

$$$$
