37850.cdx
  Mrv1902 05222410192D          

 10 10  0  0  0  0            999 V2000
    5.1389   -7.6921    0.0000 C   0  0  0  0  0  0  0  0  0  0  0  0
    5.5321   -6.9668    0.0000 C   0  0  0  0  0  0  0  0  0  0  0  0
    5.1006   -6.2637    0.0000 C   0  0  0  0  0  0  0  0  0  0  0  0
    6.3568   -6.9447    0.0000 C   0  0  0  0  0  0  0  0  0  0  0  0
    5.9253   -6.2415    0.0000 C   0  0  0  0  0  0  0  0  0  0  0  0
    7.0821   -7.3379    0.0000 C   0  0  0  0  0  0  0  0  0  0  0  0
    7.7852   -6.9064    0.0000 C   0  0  0  0  0  0  0  0  0  0  0  0
    8.5105   -7.2996    0.0000 C   0  0  0  0  0  0  0  0  0  0  0  0
    9.2137   -6.8681    0.0000 C   0  0  0  0  0  0  0  0  0  0  0  0
    8.5326   -8.1243    0.0000 C   0  0  0  0  0  0  0  0  0  0  0  0
  1  2  1  0  0  0  0
  2  3  1  0  0  0  0
  2  4  1  0  0  0  0
  4  5  1  0  0  0  0
  5  2  1  0  0  0  0
  4  6  1  0  0  0  0
  6  7  2  0  0  0  0
  7  8  1  0  0  0  0
  8  9  2  0  0  0  0
  8 10  1  0  0  0  0
M  END
>  <cdx:fragmentId>
4029

$$$$
