37858.cdx
  Mrv1902 05222410272D          

 31 35  0  0  0  0            999 V2000
    9.6737   -8.5735    0.0000 C   0  0  0  0  0  0  0  0  0  0  0  0
    8.3516   -4.4130    0.0000 H   0  0  0  0  0  0  0  0  0  0  0  0
    6.8708   -6.8505    0.0000 H   0  0  0  0  0  0  0  0  0  0  0  0
    8.2878   -6.8871    0.0000 H   0  0  0  0  0  0  0  0  0  0  0  0
    9.0765   -4.0190    0.0000 C   0  0  0  0  0  0  0  0  0  0  0  0
    9.6950   -7.7487    0.0000 O   0  0  0  0  0  0  0  0  0  0  0  0
    8.2665   -7.7119    0.0000 O   0  0  0  0  0  0  0  0  0  0  0  0
    8.9914   -7.3179    0.0000 C   0  0  0  0  0  0  0  0  0  0  0  0
    9.7588   -5.2746    0.0000 O   0  0  0  0  0  0  0  0  0  0  0  0
    9.7375   -6.0993    0.0000 C   0  0  0  0  0  0  0  0  0  0  0  0
    9.0127   -6.4932    0.0000 C   0  0  0  0  0  0  0  0  0  0  0  0
    9.0552   -4.8438    0.0000 C   0  0  2  0  0  0  0  0  0  0  0  0
    6.8806   -6.0256    0.0000 C   0  0  2  0  0  0  0  0  0  0  0  0
    7.5842   -6.4564    0.0000 C   0  0  0  0  0  0  0  0  0  0  0  0
    8.3091   -6.0624    0.0000 C   0  0  1  0  0  0  0  0  0  0  0  0
    8.3303   -5.2377    0.0000 C   0  0  2  0  0  0  0  0  0  0  0  0
    7.6267   -4.8069    0.0000 C   0  0  0  0  0  0  0  0  0  0  0  0
    6.9019   -5.2008    0.0000 N   0  0  0  0  0  0  0  0  0  0  0  0
    6.1241   -4.9257    0.0000 C   0  0  0  0  0  0  0  0  0  0  0  0
    5.6221   -5.5805    0.0000 C   0  0  0  0  0  0  0  0  0  0  0  0
    6.0897   -6.2602    0.0000 C   0  0  1  0  0  0  0  0  0  0  0  0
    5.2987   -6.4948    0.0000 C   0  0  0  0  0  0  0  0  0  0  0  0
    5.2774   -7.3195    0.0000 N   0  0  0  0  0  0  0  0  0  0  0  0
    6.0552   -7.5946    0.0000 C   0  0  0  0  0  0  0  0  0  0  0  0
    6.5572   -6.9399    0.0000 C   0  0  0  0  0  0  0  0  0  0  0  0
    6.3712   -8.3567    0.0000 C   0  0  0  0  0  0  0  0  0  0  0  0
    7.1892   -8.4641    0.0000 C   0  0  0  0  0  0  0  0  0  0  0  0
    7.6912   -7.8094    0.0000 C   0  0  0  0  0  0  0  0  0  0  0  0
    7.3752   -7.0473    0.0000 C   0  0  0  0  0  0  0  0  0  0  0  0
    4.6440   -5.9928    0.0000 O   0  0  0  0  0  0  0  0  0  0  0  0
   10.4411   -6.5301    0.0000 O   0  0  0  0  0  0  0  0  0  0  0  0
  6  1  1  0  0  0  0
 16  2  1  1  0  0  0
 13  3  1  6  0  0  0
 15  4  1  6  0  0  0
 12  5  1  6  0  0  0
 11  8  1  0  0  0  0
  8  6  1  0  0  0  0
  8  7  2  0  0  0  0
 11 15  1  0  0  0  0
 12 16  1  0  0  0  0
 12  9  1  0  0  0  0
 10  9  1  0  0  0  0
 11 10  1  0  0  0  0
 18 13  1  0  0  0  0
 21 13  1  0  0  0  0
 14 13  1  0  0  0  0
 15 14  1  0  0  0  0
 16 15  1  0  0  0  0
 17 16  1  0  0  0  0
 18 17  1  0  0  0  0
 19 18  1  0  0  0  0
 20 19  1  0  0  0  0
 21 20  1  1  0  0  0
 21 22  1  0  0  0  0
 22 23  1  0  0  0  0
 23 24  1  0  0  0  0
 24 25  2  0  0  0  0
 25 21  1  0  0  0  0
 24 26  1  0  0  0  0
 26 27  2  0  0  0  0
 27 28  1  0  0  0  0
 28 29  2  0  0  0  0
 29 25  1  0  0  0  0
 22 30  2  0  0  0  0
 10 31  1  0  0  0  0
M  END
>  <cdx:fragmentId>
1978

$$$$
