37856.cdx
  Mrv1902 05222410182D          

 27 33  0  0  0  0            999 V2000
    4.1530   -8.1125    0.0000 C   0  0  0  0  0  0  0  0  0  0  0  0
    4.1530   -8.9375    0.0000 C   0  0  0  0  0  0  0  0  0  0  0  0
    4.8675   -9.3500    0.0000 C   0  0  2  0  0  0  0  0  0  0  0  0
    5.5820   -8.9375    0.0000 C   0  0  0  0  0  0  0  0  0  0  0  0
    5.5820   -8.1125    0.0000 C   0  0  0  0  0  0  0  0  0  0  0  0
    4.8675   -7.7000    0.0000 C   0  0  0  0  0  0  0  0  0  0  0  0
    6.2964   -9.3500    0.0000 C   0  0  0  0  0  0  0  0  0  0  0  0
    7.0109   -8.9375    0.0000 C   0  0  0  0  0  0  0  0  0  0  0  0
    7.0109   -8.1125    0.0000 C   0  0  0  0  0  0  0  0  0  0  0  0
    6.2964   -7.7000    0.0000 C   0  0  0  0  0  0  0  0  0  0  0  0
    7.7254   -7.7000    0.0000 C   0  0  1  0  0  0  0  0  0  0  0  0
    7.7254   -6.8750    0.0000 C   0  0  0  0  0  0  0  0  0  0  0  0
    7.0109   -6.4625    0.0000 C   0  0  0  0  0  0  0  0  0  0  0  0
    6.2964   -6.8750    0.0000 C   0  0  0  0  0  0  0  0  0  0  0  0
    8.4399   -6.4625    0.0000 C   0  0  0  0  0  0  0  0  0  0  0  0
    6.5984   -5.7480    0.0000 C   0  0  1  0  0  0  0  0  0  0  0  0
    6.6000   -7.3150    0.0000 C   0  0  0  0  0  0  0  0  0  0  0  0
    5.5820   -7.2875    0.0000 C   0  0  0  0  0  0  0  0  0  0  0  0
    4.0150  -10.0100    0.0000 C   0  0  1  0  0  0  0  0  0  0  0  0
    5.4509   -9.9334    0.0000 C   0  0  0  0  0  0  0  0  0  0  0  0
    5.0050   -8.1950    0.0000 N   0  0  0  0  0  0  0  0  0  0  0  0
    6.0150   -5.1647    0.0000 O   0  0  0  0  0  0  0  0  0  0  0  0
    8.4399   -8.1125    0.0000 O   0  0  0  0  0  0  0  0  0  0  0  0
    3.3005  -10.4225    0.0000 O   0  0  0  0  0  0  0  0  0  0  0  0
    6.2286   -4.3678    0.0000 C   0  0  0  0  0  0  0  0  0  0  0  0
    5.6452   -3.7844    0.0000 O   0  0  0  0  0  0  0  0  0  0  0  0
    7.0255   -4.1543    0.0000 C   0  0  0  0  0  0  0  0  0  0  0  0
  1  2  1  0  0  0  0
  2  3  1  0  0  0  0
  3  4  1  0  0  0  0
  4  5  1  0  0  0  0
  5  6  1  0  0  0  0
  6  1  1  0  0  0  0
  4  7  1  0  0  0  0
  7  8  1  0  0  0  0
  8  9  1  0  0  0  0
  9 10  1  0  0  0  0
 10  5  1  0  0  0  0
  9 11  1  0  0  0  0
 11 12  1  0  0  0  0
 12 13  1  0  0  0  0
 13 14  1  0  0  0  0
 14 10  1  0  0  0  0
 12 15  2  0  0  0  0
 13 16  1  0  0  0  0
  9 17  1  0  0  0  0
  5 18  1  0  0  0  0
  3 19  1  0  0  0  0
  3 20  1  1  0  0  0
 18 21  1  0  0  0  0
 21 19  1  0  0  0  0
 18 17  1  0  0  0  0
 17 16  1  0  0  0  0
 16 22  1  1  0  0  0
  7 21  1  0  0  0  0
 11 23  1  1  0  0  0
 19 24  1  6  0  0  0
 22 25  1  0  0  0  0
 25 26  2  0  0  0  0
 25 27  1  0  0  0  0
M  END
>  <cdx:fragmentId>
1123

$$$$
