37859.cdx
  Mrv1902 05222410272D          

 31 35  0  0  0  0            999 V2000
    9.7404   -8.4937    0.0000 C   0  0  0  0  0  0  0  0  0  0  0  0
    8.2541   -4.3890    0.0000 H   0  0  0  0  0  0  0  0  0  0  0  0
    6.8712   -6.8835    0.0000 H   0  0  0  0  0  0  0  0  0  0  0  0
    8.2886   -6.8638    0.0000 H   0  0  0  0  0  0  0  0  0  0  0  0
    8.9627   -3.9666    0.0000 C   0  0  0  0  0  0  0  0  0  0  0  0
    9.7289   -7.6688    0.0000 O   0  0  0  0  0  0  0  0  0  0  0  0
    8.3001   -7.6887    0.0000 O   0  0  0  0  0  0  0  0  0  0  0  0
    9.0087   -7.2663    0.0000 C   0  0  0  0  0  0  0  0  0  0  0  0
    9.6944   -5.1940    0.0000 O   0  0  0  0  0  0  0  0  0  0  0  0
    9.7059   -6.0189    0.0000 C   0  0  0  0  0  0  0  0  0  0  0  0
    8.9972   -6.4414    0.0000 C   0  0  0  0  0  0  0  0  0  0  0  0
    8.9742   -4.7915    0.0000 C   0  0  2  0  0  0  0  0  0  0  0  0
    6.8483   -6.0588    0.0000 C   0  0  2  0  0  0  0  0  0  0  0  0
    7.5684   -6.4613    0.0000 C   0  0  0  0  0  0  0  0  0  0  0  0
    8.2771   -6.0389    0.0000 C   0  0  1  0  0  0  0  0  0  0  0  0
    8.2656   -5.2140    0.0000 C   0  0  2  0  0  0  0  0  0  0  0  0
    7.5454   -4.8115    0.0000 C   0  0  0  0  0  0  0  0  0  0  0  0
    6.8368   -5.2339    0.0000 N   0  0  0  0  0  0  0  0  0  0  0  0
    6.0487   -4.9899    0.0000 C   0  0  0  0  0  0  0  0  0  0  0  0
    5.5731   -5.6641    0.0000 C   0  0  0  0  0  0  0  0  0  0  0  0
    6.0673   -6.3247    0.0000 C   0  0  2  0  0  0  0  0  0  0  0  0
    5.2863   -6.5905    0.0000 C   0  0  0  0  0  0  0  0  0  0  0  0
    5.2978   -7.4155    0.0000 N   0  0  0  0  0  0  0  0  0  0  0  0
    6.0859   -7.6594    0.0000 C   0  0  0  0  0  0  0  0  0  0  0  0
    6.5615   -6.9853    0.0000 C   0  0  0  0  0  0  0  0  0  0  0  0
    6.4319   -8.4083    0.0000 C   0  0  0  0  0  0  0  0  0  0  0  0
    7.2535   -8.4831    0.0000 C   0  0  0  0  0  0  0  0  0  0  0  0
    7.7291   -7.8090    0.0000 C   0  0  0  0  0  0  0  0  0  0  0  0
    7.3831   -7.0601    0.0000 C   0  0  0  0  0  0  0  0  0  0  0  0
    4.6122   -6.1150    0.0000 O   0  0  0  0  0  0  0  0  0  0  0  0
   10.4260   -6.4214    0.0000 O   0  0  0  0  0  0  0  0  0  0  0  0
  6  1  1  0  0  0  0
 16  2  1  1  0  0  0
 13  3  1  6  0  0  0
 15  4  1  6  0  0  0
 12  5  1  6  0  0  0
 11  8  1  0  0  0  0
  8  6  1  0  0  0  0
  8  7  2  0  0  0  0
 11 15  1  0  0  0  0
 12 16  1  0  0  0  0
 12  9  1  0  0  0  0
 10  9  1  0  0  0  0
 11 10  1  0  0  0  0
 18 13  1  0  0  0  0
 21 13  1  0  0  0  0
 14 13  1  0  0  0  0
 15 14  1  0  0  0  0
 16 15  1  0  0  0  0
 17 16  1  0  0  0  0
 18 17  1  0  0  0  0
 19 18  1  0  0  0  0
 20 19  1  0  0  0  0
 21 20  1  6  0  0  0
 21 22  1  0  0  0  0
 22 23  1  0  0  0  0
 23 24  1  0  0  0  0
 24 25  2  0  0  0  0
 25 21  1  0  0  0  0
 24 26  1  0  0  0  0
 26 27  2  0  0  0  0
 27 28  1  0  0  0  0
 28 29  2  0  0  0  0
 29 25  1  0  0  0  0
 22 30  2  0  0  0  0
 10 31  1  0  0  0  0
M  END
>  <cdx:fragmentId>
1978

$$$$
