37853.cdx
  Mrv1902 05222410202D          

 24 26  0  0  0  0            999 V2000
   10.8635   -8.7390    0.0000 O   0  0  0  0  0  0  0  0  0  0  0  0
    9.6702   -9.8784    0.0000 O   0  0  0  0  0  0  0  0  0  0  0  0
   10.8502   -9.8921    0.0000 O   0  0  0  0  0  0  0  0  0  0  0  0
   10.2668   -9.3087    0.0000 S   0  0  0  0  0  0  0  0  0  0  0  0
    8.3965   -8.2260    0.0000 C   0  0  0  0  0  0  0  0  0  0  0  0
    7.5715   -8.2187    0.0000 C   0  0  1  0  0  0  0  0  0  0  0  0
    7.0515   -8.8592    0.0000 C   0  0  0  0  0  0  0  0  0  0  0  0
    7.2279   -9.6651    0.0000 C   0  0  0  0  0  0  0  0  0  0  0  0
    7.9681  -10.0295    0.0000 C   0  0  0  0  0  0  0  0  0  0  0  0
    8.7145   -9.6782    0.0000 C   0  0  0  0  0  0  0  0  0  0  0  0
    8.9051   -8.8755    0.0000 C   0  0  2  0  0  0  0  0  0  0  0  0
    7.9608  -10.8545    0.0000 C   0  0  0  0  0  0  0  0  0  0  0  0
    6.2305   -8.7780    0.0000 C   0  0  0  0  0  0  0  0  0  0  0  0
    5.8995   -9.5337    0.0000 C   0  0  0  0  0  0  0  0  0  0  0  0
    6.5160  -10.0819    0.0000 C   0  0  0  0  0  0  0  0  0  0  0  0
    6.4348  -10.9029    0.0000 O   0  0  0  0  0  0  0  0  0  0  0  0
    5.8136   -8.0661    0.0000 C   0  0  0  0  0  0  0  0  0  0  0  0
    4.9886   -8.0588    0.0000 O   0  0  0  0  0  0  0  0  0  0  0  0
    8.6583   -7.4436    0.0000 C   0  0  0  0  0  0  0  0  0  0  0  0
    7.9952   -6.9528    0.0000 C   0  0  0  0  0  0  0  0  0  0  0  0
    7.3235   -7.4319    0.0000 O   0  0  0  0  0  0  0  0  0  0  0  0
    8.0024   -6.1279    0.0000 O   0  0  0  0  0  0  0  0  0  0  0  0
    9.7110   -8.6990    0.0000 O   0  0  0  0  0  0  0  0  0  0  0  0
    9.4451   -7.1956    0.0000 C   0  0  0  0  0  0  0  0  0  0  0  0
  4  1  2  0  0  0  0
  4  2  2  0  0  0  0
  4  3  1  0  0  0  0
 23  4  1  0  0  0  0
  5  6  1  0  0  0  0
  6  7  1  0  0  0  0
  8  9  2  0  0  0  0
  9 10  1  0  0  0  0
 10 11  1  0  0  0  0
 11  5  1  0  0  0  0
  9 12  1  0  0  0  0
  7 13  1  0  0  0  0
 13 14  2  0  0  0  0
 14 15  1  0  0  0  0
 15  8  1  0  0  0  0
 15 16  2  0  0  0  0
 13 17  1  0  0  0  0
 17 18  1  0  0  0  0
 19 20  1  0  0  0  0
 20 21  1  0  0  0  0
 20 22  2  0  0  0  0
 11 23  1  1  0  0  0
 19 24  1  0  0  0  0
 19  5  1  0  0  0  0
  6 21  1  1  0  0  0
  7  8  1  0  0  0  0
M  END
>  <cdx:fragmentId>
5

$$$$
