37851.cdx
  Mrv1902 05222410192D          

 54 54  0  0  0  0            999 V2000
   14.2840   -6.3158    0.0000 C   0  0  0  0  0  0  0  0  0  0  0  0
   14.9985   -6.7283    0.0000 S   0  0  0  0  0  0  0  0  0  0  0  0
   14.5860   -7.4428    0.0000 O   0  0  0  0  0  0  0  0  0  0  0  0
   15.4110   -6.0138    0.0000 O   0  0  0  0  0  0  0  0  0  0  0  0
   15.7129   -7.1408    0.0000 O   0  0  0  0  0  0  0  0  0  0  0  0
   13.5695   -7.5533    0.0000 O   0  0  0  0  0  0  0  0  0  0  0  0
   13.5695   -6.7283    0.0000 C   0  0  1  0  0  0  0  0  0  0  0  0
   12.8551   -6.3158    0.0000 C   0  0  2  0  0  0  0  0  0  0  0  0
   12.1406   -6.7283    0.0000 C   0  0  1  0  0  0  0  0  0  0  0  0
   12.1406   -7.5533    0.0000 C   0  0  2  0  0  0  0  0  0  0  0  0
   12.8551   -7.9658    0.0000 C   0  0  1  0  0  0  0  0  0  0  0  0
   11.4261   -7.9658    0.0000 O   0  0  0  0  0  0  0  0  0  0  0  0
   11.4261   -6.3158    0.0000 O   0  0  0  0  0  0  0  0  0  0  0  0
   12.8551   -5.4908    0.0000 O   0  0  0  0  0  0  0  0  0  0  0  0
   12.8551   -8.7908    0.0000 O   0  0  0  0  0  0  0  0  0  0  0  0
   13.5695   -9.2033    0.0000 C   0  0  0  0  0  0  0  0  0  0  0  0
   13.5695  -10.0283    0.0000 C   0  0  1  0  0  0  0  0  0  0  0  0
   14.2840  -10.4408    0.0000 C   0  0  0  0  0  0  0  0  0  0  0  0
   14.9985  -10.0283    0.0000 O   0  0  0  0  0  0  0  0  0  0  0  0
   15.7129  -10.4408    0.0000 C   0  0  0  0  0  0  0  0  0  0  0  0
   16.4274  -10.0283    0.0000 C   0  0  0  0  0  0  0  0  0  0  0  0
   17.1419  -10.4408    0.0000 C   0  0  0  0  0  0  0  0  0  0  0  0
   17.8564  -10.0283    0.0000 C   0  0  0  0  0  0  0  0  0  0  0  0
   18.5708  -10.4408    0.0000 C   0  0  0  0  0  0  0  0  0  0  0  0
   19.2853  -10.0283    0.0000 C   0  0  0  0  0  0  0  0  0  0  0  0
   19.9998  -10.4408    0.0000 C   0  0  0  0  0  0  0  0  0  0  0  0
   20.7142  -10.0283    0.0000 C   0  0  0  0  0  0  0  0  0  0  0  0
   21.4287  -10.4408    0.0000 C   0  0  0  0  0  0  0  0  0  0  0  0
   22.1432  -10.0283    0.0000 C   0  0  0  0  0  0  0  0  0  0  0  0
   22.8577  -10.4408    0.0000 C   0  0  0  0  0  0  0  0  0  0  0  0
   23.5721  -10.0283    0.0000 C   0  0  0  0  0  0  0  0  0  0  0  0
   24.2866  -10.4408    0.0000 C   0  0  0  0  0  0  0  0  0  0  0  0
   25.0011  -10.0283    0.0000 C   0  0  0  0  0  0  0  0  0  0  0  0
   25.7155  -10.4408    0.0000 C   0  0  0  0  0  0  0  0  0  0  0  0
   26.4300  -10.0283    0.0000 C   0  0  0  0  0  0  0  0  0  0  0  0
   15.7129  -11.2658    0.0000 O   0  0  0  0  0  0  0  0  0  0  0  0
   12.8551  -10.4408    0.0000 O   0  0  0  0  0  0  0  0  0  0  0  0
   12.1406  -10.0283    0.0000 C   0  0  0  0  0  0  0  0  0  0  0  0
   11.4261  -10.4408    0.0000 C   0  0  0  0  0  0  0  0  0  0  0  0
   10.7116  -10.0283    0.0000 C   0  0  0  0  0  0  0  0  0  0  0  0
    9.9972  -10.4408    0.0000 C   0  0  0  0  0  0  0  0  0  0  0  0
    9.2827  -10.0283    0.0000 C   0  0  0  0  0  0  0  0  0  0  0  0
    8.5682  -10.4408    0.0000 C   0  0  0  0  0  0  0  0  0  0  0  0
    7.8538  -10.0283    0.0000 C   0  0  0  0  0  0  0  0  0  0  0  0
    7.1393  -10.4408    0.0000 C   0  0  0  0  0  0  0  0  0  0  0  0
    6.4248  -10.0283    0.0000 C   0  0  0  0  0  0  0  0  0  0  0  0
    5.7103  -10.4408    0.0000 C   0  0  0  0  0  0  0  0  0  0  0  0
    4.9959  -10.0283    0.0000 C   0  0  0  0  0  0  0  0  0  0  0  0
    4.2814  -10.4408    0.0000 C   0  0  0  0  0  0  0  0  0  0  0  0
    3.5669  -10.0283    0.0000 C   0  0  0  0  0  0  0  0  0  0  0  0
    2.8525  -10.4408    0.0000 C   0  0  0  0  0  0  0  0  0  0  0  0
    2.1380  -10.0283    0.0000 C   0  0  0  0  0  0  0  0  0  0  0  0
    1.4235  -10.4408    0.0000 C   0  0  0  0  0  0  0  0  0  0  0  0
   12.1406   -9.2033    0.0000 O   0  0  0  0  0  0  0  0  0  0  0  0
  2  3  2  0  0  0  0
  2  4  2  0  0  0  0
  2  5  1  0  0  0  0
  1  2  1  0  0  0  0
  6  7  1  0  0  0  0
  7  8  1  0  0  0  0
  8  9  1  0  0  0  0
  9 10  1  0  0  0  0
 10 11  1  0  0  0  0
  6 11  1  0  0  0  0
 10 12  1  6  0  0  0
  9 13  1  1  0  0  0
  8 14  1  6  0  0  0
 17 16  1  1  0  0  0
 17 18  1  0  0  0  0
 15 16  1  0  0  0  0
 20 21  1  0  0  0  0
 21 22  1  0  0  0  0
 22 23  1  0  0  0  0
 23 24  1  0  0  0  0
 24 25  1  0  0  0  0
 25 26  1  0  0  0  0
 26 27  1  0  0  0  0
 27 28  1  0  0  0  0
 28 29  1  0  0  0  0
 29 30  1  0  0  0  0
 30 31  1  0  0  0  0
 31 32  1  0  0  0  0
 32 33  1  0  0  0  0
 33 34  1  0  0  0  0
 34 35  1  0  0  0  0
 20 36  2  0  0  0  0
 19 20  1  0  0  0  0
 18 19  1  0  0  0  0
 38 39  1  0  0  0  0
 39 40  1  0  0  0  0
 40 41  1  0  0  0  0
 41 42  1  0  0  0  0
 42 43  1  0  0  0  0
 43 44  1  0  0  0  0
 44 45  1  0  0  0  0
 45 46  1  0  0  0  0
 46 47  1  0  0  0  0
 47 48  1  0  0  0  0
 48 49  1  0  0  0  0
 49 50  1  0  0  0  0
 50 51  1  0  0  0  0
 51 52  1  0  0  0  0
 52 53  1  0  0  0  0
 38 54  2  0  0  0  0
 37 38  1  0  0  0  0
 17 37  1  0  0  0  0
 11 15  1  6  0  0  0
  7  1  1  1  0  0  0
M  END
>  <cdx:fragmentId>
4096

$$$$
