352.cdx
  Mrv1902 05222410202D          

 16 18  0  0  0  0            999 V2000
    7.3276   -9.2709    0.0000 C   0  0  0  0  0  0  0  0  0  0  0  0
    6.7443   -9.8543    0.0000 C   0  0  0  0  0  0  0  0  0  0  0  0
    5.9193   -9.8543    0.0000 C   0  0  0  0  0  0  0  0  0  0  0  0
    5.3359   -9.2709    0.0000 C   0  0  0  0  0  0  0  0  0  0  0  0
    5.3359   -8.4459    0.0000 C   0  0  0  0  0  0  0  0  0  0  0  0
    5.9193   -7.8626    0.0000 C   0  0  0  0  0  0  0  0  0  0  0  0
    6.7443   -7.8626    0.0000 C   0  0  0  0  0  0  0  0  0  0  0  0
    7.3276   -8.4459    0.0000 C   0  0  0  0  0  0  0  0  0  0  0  0
    7.7373   -8.4934    0.0000 C   0  0  0  0  0  0  0  0  0  0  0  0
    7.9297   -8.8583    0.0000 C   0  0  0  0  0  0  0  0  0  0  0  0
    7.7373   -9.2233    0.0000 C   0  0  0  0  0  0  0  0  0  0  0  0
    8.1122   -9.5259    0.0000 C   0  0  0  0  0  0  0  0  0  0  0  0
    8.5972   -8.8584    0.0000 C   0  0  0  0  0  0  0  0  0  0  0  0
    8.1122   -8.1910    0.0000 C   0  0  0  0  0  0  0  0  0  0  0  0
    8.7421   -9.0016    0.0000 O   0  0  0  0  0  0  0  0  0  0  0  0
    9.4222   -8.8584    0.0000 O   0  0  0  0  0  0  0  0  0  0  0  0
  1  2  1  0  0  0  0
  2  3  1  0  0  0  0
  3  4  1  0  0  0  0
  4  5  2  0  0  0  0
  5  6  1  0  0  0  0
  6  7  1  0  0  0  0
  7  8  1  0  0  0  0
  8  9  1  0  0  0  0
  9 10  1  0  0  0  0
 10 11  1  0  0  0  0
 12 13  1  0  0  0  0
 13 14  1  0  0  0  0
  1 11  1  0  0  0  0
  1 12  1  0  0  0  0
  8 14  1  0  0  0  0
  1  8  1  0  0  0  0
 10 15  2  0  0  0  0
 13 16  2  0  0  0  0
M  END
>  <cdx:fragmentId>
4229

$$$$
