37855.cdx
  Mrv1902 05222410192D          

 33 35  0  0  0  0            999 V2000
    6.5919   -8.6949    0.0000 C   0  0  0  0  0  0  0  0  0  0  0  0
    7.3004   -9.1176    0.0000 C   0  0  1  0  0  0  0  0  0  0  0  0
    8.0726   -8.8273    0.0000 C   0  0  1  0  0  0  0  0  0  0  0  0
    8.3271   -8.0426    0.0000 C   0  0  2  0  0  0  0  0  0  0  0  0
    5.8716   -9.0970    0.0000 C   0  0  0  0  0  0  0  0  0  0  0  0
    5.8597   -9.9219    0.0000 C   0  0  1  0  0  0  0  0  0  0  0  0
    6.5681  -10.3447    0.0000 C   0  0  2  0  0  0  0  0  0  0  0  0
    7.2884   -9.9425    0.0000 C   0  0  0  0  0  0  0  0  0  0  0  0
    5.1393  -10.3241    0.0000 C   0  0  2  0  0  0  0  0  0  0  0  0
    5.1393  -11.1490    0.0000 C   0  0  0  0  0  0  0  0  0  0  0  0
    5.8597  -11.5717    0.0000 C   0  0  0  0  0  0  0  0  0  0  0  0
    6.5681  -11.1696    0.0000 C   0  0  0  0  0  0  0  0  0  0  0  0
    4.4249   -9.9116    0.0000 C   0  0  0  0  0  0  0  0  0  0  0  0
    3.7105  -10.3241    0.0000 C   0  0  0  0  0  0  0  0  0  0  0  0
    3.7105  -11.1490    0.0000 C   0  0  2  0  0  0  0  0  0  0  0  0
    4.4249  -11.5614    0.0000 C   0  0  0  0  0  0  0  0  0  0  0  0
    8.0693  -10.2088    0.0000 C   0  0  0  0  0  0  0  0  0  0  0  0
    8.5638   -9.5484    0.0000 C   0  0  0  0  0  0  0  0  0  0  0  0
    2.9960  -11.5615    0.0000 O   0  0  0  0  0  0  0  0  0  0  0  0
    5.1393   -9.4991    0.0000 C   0  0  0  0  0  0  0  0  0  0  0  0
    7.7748   -7.4298    0.0000 C   0  0  0  0  0  0  0  0  0  0  0  0
   11.2568   -5.9572    0.0000 C   0  0  0  0  0  0  0  0  0  0  0  0
    9.8976   -5.5164    0.0000 C   0  0  0  0  0  0  0  0  0  0  0  0
   11.5625   -7.3968    0.0000 C   0  0  0  0  0  0  0  0  0  0  0  0
   10.7478   -7.5267    0.0000 C   0  0  0  0  0  0  0  0  0  0  0  0
   10.4499   -6.1292    0.0000 C   0  0  0  0  0  0  0  0  0  0  0  0
   10.1954   -6.9139    0.0000 C   0  0  1  0  0  0  0  0  0  0  0  0
    9.3885   -7.0859    0.0000 C   0  0  0  0  0  0  0  0  0  0  0  0
    9.1340   -7.8706    0.0000 C   0  0  0  0  0  0  0  0  0  0  0  0
    7.3004   -8.2926    0.0000 C   0  0  0  0  0  0  0  0  0  0  0  0
    8.8695   -8.6138    0.0000 H   0  0  0  0  0  0  0  0  0  0  0  0
    7.2826  -10.7572    0.0000 H   0  0  0  0  0  0  0  0  0  0  0  0
    5.8477  -10.7468    0.0000 H   0  0  0  0  0  0  0  0  0  0  0  0
  1  2  1  0  0  0  0
  2  3  1  0  0  0  0
  3  4  1  0  0  0  0
  1  5  1  0  0  0  0
  5  6  1  0  0  0  0
  6  7  1  0  0  0  0
  7  8  1  0  0  0  0
  6  9  1  0  0  0  0
  9 10  1  0  0  0  0
 10 11  2  0  0  0  0
 11 12  1  0  0  0  0
 12  7  1  0  0  0  0
  9 13  1  0  0  0  0
 13 14  1  0  0  0  0
 14 15  1  0  0  0  0
 15 16  1  0  0  0  0
 16 10  1  0  0  0  0
  8 17  2  0  0  0  0
 17 18  1  0  0  0  0
 18  3  1  0  0  0  0
 15 19  1  6  0  0  0
  9 20  1  1  0  0  0
  4 21  1  6  0  0  0
  4 29  1  0  0  0  0
 27 26  1  0  0  0  0
 26 22  1  0  0  0  0
 26 23  1  0  0  0  0
 25 24  1  0  0  0  0
 27 25  1  0  0  0  0
 27 28  1  6  0  0  0
 29 28  1  0  0  0  0
  2 30  1  1  0  0  0
  3 31  1  6  0  0  0
  7 32  1  1  0  0  0
  6 33  1  6  0  0  0
M  END
>  <cdx:fragmentId>
4344

$$$$
