361.cdx
  Mrv1902 05222410262D          

 11 13  0  0  0  0            999 V2000
    8.4776   -9.7801    0.0000 C   0  0  0  0  0  0  0  0  0  0  0  0
    8.9625  -10.4476    0.0000 C   0  0  0  0  0  0  0  0  0  0  0  0
    8.4776  -11.1150    0.0000 C   0  0  0  0  0  0  0  0  0  0  0  0
    7.6930  -10.8601    0.0000 C   0  0  0  0  0  0  0  0  0  0  0  0
    7.0480  -11.3745    0.0000 C   0  0  0  0  0  0  0  0  0  0  0  0
    6.2437  -11.1909    0.0000 C   0  0  0  0  0  0  0  0  0  0  0  0
    5.8857  -10.4476    0.0000 C   0  0  0  0  0  0  0  0  0  0  0  0
    6.2437   -9.7043    0.0000 C   0  0  0  0  0  0  0  0  0  0  0  0
    7.0480   -9.5207    0.0000 C   0  0  0  0  0  0  0  0  0  0  0  0
    7.6930  -10.0351    0.0000 C   0  0  0  0  0  0  0  0  0  0  0  0
    6.4868  -11.9792    0.0000 C   0  0  0  0  0  0  0  0  0  0  0  0
  1  2  1  0  0  0  0
  2  3  1  0  0  0  0
  3  4  1  0  0  0  0
  4  5  1  0  0  0  0
  5  6  1  0  0  0  0
  6  7  1  0  0  0  0
  7  8  1  0  0  0  0
  8  9  1  0  0  0  0
  9 10  1  0  0  0  0
  1 10  1  0  0  0  0
  4 10  1  0  0  0  0
  5 11  1  0  0  0  0
  6 11  1  0  0  0  0
M  END
>  <cdx:fragmentId>
5000

$$$$
