37868.cdx
  Mrv1902 05222410192D          

 24 27  0  0  0  0            999 V2000
   11.2785   -5.4091    0.0000 O   0  0  0  0  0  0  0  0  0  0  0  0
    9.0972   -5.4900    0.0000 C   0  0  0  0  0  0  0  0  0  0  0  0
    9.8662   -5.1912    0.0000 C   0  0  0  0  0  0  0  0  0  0  0  0
   10.5095   -5.7078    0.0000 C   0  0  0  0  0  0  0  0  0  0  0  0
   10.3837   -6.5232    0.0000 C   0  0  0  0  0  0  0  0  0  0  0  0
    9.6147   -6.8220    0.0000 C   0  0  0  0  0  0  0  0  0  0  0  0
    8.9715   -6.3054    0.0000 C   0  0  0  0  0  0  0  0  0  0  0  0
    5.7840  -11.0239    0.0000 C   0  0  0  0  0  0  0  0  0  0  0  0
    5.1686  -10.4744    0.0000 O   0  0  0  0  0  0  0  0  0  0  0  0
    3.8822   -9.4412    0.0000 O   0  0  0  0  0  0  0  0  0  0  0  0
    5.5459   -8.0283    0.0000 C   0  0  0  0  0  0  0  0  0  0  0  0
    4.7769   -8.3271    0.0000 C   0  0  0  0  0  0  0  0  0  0  0  0
    4.6512   -9.1424    0.0000 C   0  0  0  0  0  0  0  0  0  0  0  0
    5.2944   -9.6590    0.0000 C   0  0  0  0  0  0  0  0  0  0  0  0
    6.0634   -9.3603    0.0000 C   0  0  0  0  0  0  0  0  0  0  0  0
    6.1892   -8.5449    0.0000 C   0  0  0  0  0  0  0  0  0  0  0  0
    8.2909   -8.1709    0.0000 C   0  0  0  0  0  0  0  0  0  0  0  0
    7.6519   -8.6927    0.0000 O   0  0  0  0  0  0  0  0  0  0  0  0
    6.9582   -8.2461    0.0000 C   0  0  1  0  0  0  0  0  0  0  0  0
    7.1685   -7.4484    0.0000 C   0  0  0  0  0  0  0  0  0  0  0  0
    6.8697   -6.6794    0.0000 C   0  0  0  0  0  0  0  0  0  0  0  0
    7.5087   -6.1576    0.0000 O   0  0  0  0  0  0  0  0  0  0  0  0
    8.2024   -6.6041    0.0000 C   0  0  1  0  0  0  0  0  0  0  0  0
    7.9922   -7.4019    0.0000 C   0  0  0  0  0  0  0  0  0  0  0  0
 23  7  1  6  0  0  0
  4  1  1  0  0  0  0
  7  2  2  0  0  0  0
  3  2  1  0  0  0  0
  4  3  2  0  0  0  0
  5  4  1  0  0  0  0
  6  5  2  0  0  0  0
  7  6  1  0  0  0  0
 19 16  1  6  0  0  0
 14  9  1  0  0  0  0
  9  8  1  0  0  0  0
 13 10  1  0  0  0  0
 16 11  2  0  0  0  0
 12 11  1  0  0  0  0
 13 12  2  0  0  0  0
 14 13  1  0  0  0  0
 15 14  2  0  0  0  0
 16 15  1  0  0  0  0
 24 20  1  0  0  0  0
 24 17  1  0  0  0  0
 18 17  1  0  0  0  0
 19 18  1  0  0  0  0
 20 19  1  0  0  0  0
 21 20  1  0  0  0  0
 22 21  1  0  0  0  0
 23 22  1  0  0  0  0
 24 23  1  0  0  0  0
M  END
>  <cdx:fragmentId>
5617

$$$$
