362.cdx
  Mrv1902 05222410262D          

 20 22  0  0  0  0            999 V2000
    9.4257  -11.3979    0.0000 C   0  0  0  0  0  0  0  0  0  0  0  0
    8.9407  -12.0654    0.0000 N   0  0  0  0  0  0  0  0  0  0  0  0
    8.1561  -11.8104    0.0000 C   0  0  0  0  0  0  0  0  0  0  0  0
    8.1561  -10.9854    0.0000 C   0  0  0  0  0  0  0  0  0  0  0  0
    8.9407  -10.7305    0.0000 N   0  0  0  0  0  0  0  0  0  0  0  0
    7.4416  -12.2229    0.0000 C   0  0  0  0  0  0  0  0  0  0  0  0
    6.7272  -11.8104    0.0000 C   0  0  0  0  0  0  0  0  0  0  0  0
    6.7272  -10.9854    0.0000 C   0  0  0  0  0  0  0  0  0  0  0  0
    7.4416  -10.5729    0.0000 C   0  0  0  0  0  0  0  0  0  0  0  0
    7.4416  -13.0479    0.0000 O   0  0  0  0  0  0  0  0  0  0  0  0
    9.1957   -9.9459    0.0000 C   0  0  0  0  0  0  0  0  0  0  0  0
    8.6436   -9.3328    0.0000 C   0  0  0  0  0  0  0  0  0  0  0  0
    8.8986   -8.5481    0.0000 C   0  0  0  0  0  0  0  0  0  0  0  0
    9.7056   -8.3766    0.0000 C   0  0  0  0  0  0  0  0  0  0  0  0
   10.2576   -8.9897    0.0000 C   0  0  0  0  0  0  0  0  0  0  0  0
   10.0026   -9.7743    0.0000 C   0  0  0  0  0  0  0  0  0  0  0  0
    7.8367   -9.5043    0.0000 C   0  0  0  0  0  0  0  0  0  0  0  0
    6.0127  -12.2229    0.0000 O   0  0  0  0  0  0  0  0  0  0  0  0
    5.2982  -11.8104    0.0000 C   0  0  0  0  0  0  0  0  0  0  0  0
    4.5838  -12.2229    0.0000 C   0  0  0  0  0  0  0  0  0  0  0  0
  1  2  2  0  0  0  0
  2  3  1  0  0  0  0
  3  4  1  0  0  0  0
  4  5  1  0  0  0  0
  1  5  1  0  0  0  0
  6  7  1  0  0  0  0
  7  8  2  0  0  0  0
  8  9  1  0  0  0  0
  4  9  2  0  0  0  0
  3  6  2  0  0  0  0
  6 10  1  0  0  0  0
 11 12  1  0  0  0  0
 12 13  2  0  0  0  0
 13 14  1  0  0  0  0
 14 15  2  0  0  0  0
 15 16  1  0  0  0  0
 11 16  2  0  0  0  0
 12 17  1  0  0  0  0
  5 11  1  0  0  0  0
 19 20  1  0  0  0  0
 18 19  1  0  0  0  0
  7 18  1  0  0  0  0
M  END
>  <cdx:fragmentId>
5036

$$$$
