366.cdx
  Mrv1902 05222410282D          

 28 30  0  0  0  0            999 V2000
    7.7822  -10.3873    0.0000 C   0  0  0  0  0  0  0  0  0  0  0  0
    7.7822  -11.2123    0.0000 C   0  0  0  0  0  0  0  0  0  0  0  0
    7.0678  -11.6248    0.0000 C   0  0  0  0  0  0  0  0  0  0  0  0
    6.3533  -11.2123    0.0000 C   0  0  0  0  0  0  0  0  0  0  0  0
    5.6388  -11.6248    0.0000 C   0  0  0  0  0  0  0  0  0  0  0  0
    4.9244  -11.2123    0.0000 C   0  0  0  0  0  0  0  0  0  0  0  0
    4.9244  -10.3873    0.0000 C   0  0  0  0  0  0  0  0  0  0  0  0
    5.6388   -9.9748    0.0000 C   0  0  0  0  0  0  0  0  0  0  0  0
    6.3533  -10.3873    0.0000 C   0  0  0  0  0  0  0  0  0  0  0  0
    7.0678   -9.9748    0.0000 O   0  0  0  0  0  0  0  0  0  0  0  0
    7.0678  -12.4498    0.0000 O   0  0  0  0  0  0  0  0  0  0  0  0
    4.2099   -9.9748    0.0000 O   0  0  0  0  0  0  0  0  0  0  0  0
    3.4954  -10.3873    0.0000 C   0  0  0  0  0  0  0  0  0  0  0  0
    4.2099  -11.6248    0.0000 O   0  0  0  0  0  0  0  0  0  0  0  0
    3.4954  -11.2123    0.0000 C   0  0  0  0  0  0  0  0  0  0  0  0
    5.6388  -12.4498    0.0000 O   0  0  0  0  0  0  0  0  0  0  0  0
    4.9244  -12.8623    0.0000 C   0  0  0  0  0  0  0  0  0  0  0  0
    8.4967  -11.6248    0.0000 O   0  0  0  0  0  0  0  0  0  0  0  0
    8.4967   -9.9748    0.0000 C   0  0  0  0  0  0  0  0  0  0  0  0
    9.2112  -10.3873    0.0000 C   0  0  0  0  0  0  0  0  0  0  0  0
    9.9256   -9.9748    0.0000 C   0  0  0  0  0  0  0  0  0  0  0  0
    9.9256   -9.1498    0.0000 C   0  0  0  0  0  0  0  0  0  0  0  0
    9.2112   -8.7373    0.0000 C   0  0  0  0  0  0  0  0  0  0  0  0
    8.4967   -9.1498    0.0000 C   0  0  0  0  0  0  0  0  0  0  0  0
   10.6401   -8.7373    0.0000 O   0  0  0  0  0  0  0  0  0  0  0  0
   11.3546   -9.1498    0.0000 C   0  0  0  0  0  0  0  0  0  0  0  0
   10.6401  -10.3873    0.0000 O   0  0  0  0  0  0  0  0  0  0  0  0
   11.3546   -9.9748    0.0000 C   0  0  0  0  0  0  0  0  0  0  0  0
  1  2  2  0  0  0  0
  2  3  1  0  0  0  0
  3  4  1  0  0  0  0
  4  5  1  0  0  0  0
  5  6  2  0  0  0  0
  6  7  1  0  0  0  0
  7  8  2  0  0  0  0
  8  9  1  0  0  0  0
  4  9  2  0  0  0  0
  9 10  1  0  0  0  0
  1 10  1  0  0  0  0
  3 11  2  0  0  0  0
 12 13  1  0  0  0  0
  7 12  1  0  0  0  0
 14 15  1  0  0  0  0
  6 14  1  0  0  0  0
 16 17  1  0  0  0  0
  5 16  1  0  0  0  0
  2 18  1  0  0  0  0
 19 20  1  0  0  0  0
 20 21  2  0  0  0  0
 21 22  1  0  0  0  0
 22 23  2  0  0  0  0
 23 24  1  0  0  0  0
 19 24  2  0  0  0  0
 25 26  1  0  0  0  0
 22 25  1  0  0  0  0
 27 28  1  0  0  0  0
 21 27  1  0  0  0  0
  1 19  1  0  0  0  0
M  END
>  <cdx:fragmentId>
5433

$$$$
