37869.cdx
  Mrv1902 05222410192D          

 22 23  0  0  0  0            999 V2000
    8.4367   -6.5182    0.0000 O   0  0  0  0  0  0  0  0  0  0  0  0
    7.7222   -6.9307    0.0000 C   0  0  1  0  0  0  0  0  0  0  0  0
    7.7222   -7.7557    0.0000 C   0  0  2  0  0  0  0  0  0  0  0  0
    7.7222   -8.5807    0.0000 O   0  0  0  0  0  0  0  0  0  0  0  0
    7.0078   -8.1682    0.0000 C   0  0  1  0  0  0  0  0  0  0  0  0
    7.0078   -8.9932    0.0000 O   0  0  0  0  0  0  0  0  0  0  0  0
    6.2933   -7.7557    0.0000 C   0  0  2  0  0  0  0  0  0  0  0  0
    5.5788   -8.1682    0.0000 O   0  0  0  0  0  0  0  0  0  0  0  0
    6.2933   -6.9307    0.0000 C   0  0  2  0  0  0  0  0  0  0  0  0
    7.0078   -6.5182    0.0000 O   0  0  0  0  0  0  0  0  0  0  0  0
    5.5788   -6.5182    0.0000 C   0  0  0  0  0  0  0  0  0  0  0  0
    4.8644   -6.9307    0.0000 O   0  0  0  0  0  0  0  0  0  0  0  0
    8.4367   -8.1682    0.0000 C   0  0  0  0  0  0  0  0  0  0  0  0
    9.1904   -7.8326    0.0000 C   0  0  0  0  0  0  0  0  0  0  0  0
    9.7424   -8.4457    0.0000 C   0  0  0  0  0  0  0  0  0  0  0  0
    9.3299   -9.1602    0.0000 C   0  0  0  0  0  0  0  0  0  0  0  0
    8.5230   -8.9886    0.0000 C   0  0  0  0  0  0  0  0  0  0  0  0
   10.5629   -8.3595    0.0000 C   0  0  0  0  0  0  0  0  0  0  0  0
    9.3619   -7.0256    0.0000 C   0  0  0  0  0  0  0  0  0  0  0  0
    7.9099   -9.5407    0.0000 O   0  0  0  0  0  0  0  0  0  0  0  0
    8.4367   -5.6932    0.0000 C   0  0  0  0  0  0  0  0  0  0  0  0
    9.1512   -5.2807    0.0000 C   0  0  0  0  0  0  0  0  0  0  0  0
  2  1  1  1  0  0  0
  2  3  1  0  0  0  0
  3  4  1  6  0  0  0
  3  5  1  0  0  0  0
  5  6  1  1  0  0  0
  5  7  1  0  0  0  0
  7  8  1  6  0  0  0
  7  9  1  0  0  0  0
  9 10  1  0  0  0  0
  9 11  1  1  0  0  0
 11 12  1  0  0  0  0
  2 10  1  0  0  0  0
 13 14  1  0  0  0  0
 14 15  2  0  0  0  0
 15 16  1  0  0  0  0
 16 17  1  0  0  0  0
 13 17  1  0  0  0  0
 15 18  1  0  0  0  0
 14 19  1  0  0  0  0
 17 20  1  0  0  0  0
  3 13  1  0  0  0  0
 21 22  1  0  0  0  0
  1 21  1  0  0  0  0
M  END
>  <cdx:fragmentId>
5682

$$$$
