37863.cdx
  Mrv1902 05222410262D          

 34 34  0  0  0  0            999 V2000
   11.8632   -6.1783    0.0000 C   0  0  0  0  0  0  0  0  0  0  0  0
   11.1488   -7.4158    0.0000 O   0  0  0  0  0  0  0  0  0  0  0  0
   11.1488   -6.5908    0.0000 C   0  0  1  0  0  0  0  0  0  0  0  0
   10.4343   -6.1783    0.0000 C   0  0  1  0  0  0  0  0  0  0  0  0
    9.7198   -6.5908    0.0000 C   0  0  1  0  0  0  0  0  0  0  0  0
    9.7198   -7.4158    0.0000 C   0  0  2  0  0  0  0  0  0  0  0  0
   10.4343   -7.8283    0.0000 C   0  0  2  0  0  0  0  0  0  0  0  0
    9.0054   -7.8283    0.0000 O   0  0  0  0  0  0  0  0  0  0  0  0
    9.0054   -6.1783    0.0000 O   0  0  0  0  0  0  0  0  0  0  0  0
   10.4343   -5.3533    0.0000 O   0  0  0  0  0  0  0  0  0  0  0  0
   10.4343   -8.6533    0.0000 O   0  0  0  0  0  0  0  0  0  0  0  0
   11.1488   -9.0658    0.0000 C   0  0  0  0  0  0  0  0  0  0  0  0
   11.1488   -9.8908    0.0000 C   0  0  1  0  0  0  0  0  0  0  0  0
   11.8632  -10.3033    0.0000 C   0  0  0  0  0  0  0  0  0  0  0  0
   12.5777   -9.8908    0.0000 O   0  0  0  0  0  0  0  0  0  0  0  0
   13.2922  -10.3033    0.0000 C   0  0  0  0  0  0  0  0  0  0  0  0
   14.0067   -9.8908    0.0000 C   0  0  0  0  0  0  0  0  0  0  0  0
   14.7211  -10.3033    0.0000 C   0  0  0  0  0  0  0  0  0  0  0  0
   15.4356   -9.8908    0.0000 C   0  0  0  0  0  0  0  0  0  0  0  0
   16.1501  -10.3033    0.0000 C   0  0  0  0  0  0  0  0  0  0  0  0
   16.8645   -9.8908    0.0000 C   0  0  0  0  0  0  0  0  0  0  0  0
   17.5790  -10.3033    0.0000 C   0  0  0  0  0  0  0  0  0  0  0  0
   18.2935   -9.8908    0.0000 C   0  0  0  0  0  0  0  0  0  0  0  0
   19.0080  -10.3033    0.0000 C   0  0  0  0  0  0  0  0  0  0  0  0
   19.7224   -9.8908    0.0000 C   0  0  0  0  0  0  0  0  0  0  0  0
   20.4369  -10.3033    0.0000 C   0  0  0  0  0  0  0  0  0  0  0  0
   21.1514   -9.8908    0.0000 C   0  0  0  0  0  0  0  0  0  0  0  0
   21.8658  -10.3033    0.0000 C   0  0  0  0  0  0  0  0  0  0  0  0
   22.5803   -9.8908    0.0000 C   0  0  0  0  0  0  0  0  0  0  0  0
   23.2948  -10.3033    0.0000 C   0  0  0  0  0  0  0  0  0  0  0  0
   24.0093   -9.8908    0.0000 C   0  0  0  0  0  0  0  0  0  0  0  0
   13.2922  -11.1283    0.0000 O   0  0  0  0  0  0  0  0  0  0  0  0
   10.4343  -10.3033    0.0000 O   0  0  0  0  0  0  0  0  0  0  0  0
   11.8632   -5.3533    0.0000 O   0  0  0  0  0  0  0  0  0  0  0  0
  2  3  1  0  0  0  0
  3  4  1  0  0  0  0
  4  5  1  0  0  0  0
  5  6  1  0  0  0  0
  6  7  1  0  0  0  0
  2  7  1  0  0  0  0
  6  8  1  6  0  0  0
  5  9  1  1  0  0  0
  4 10  1  1  0  0  0
 13 12  1  1  0  0  0
 13 14  1  0  0  0  0
 11 12  1  0  0  0  0
 16 17  1  0  0  0  0
 17 18  1  0  0  0  0
 18 19  1  0  0  0  0
 19 20  1  0  0  0  0
 20 21  1  0  0  0  0
 21 22  1  0  0  0  0
 22 23  1  0  0  0  0
 23 24  1  0  0  0  0
 24 25  1  0  0  0  0
 25 26  1  0  0  0  0
 26 27  1  0  0  0  0
 27 28  1  0  0  0  0
 28 29  1  0  0  0  0
 29 30  1  0  0  0  0
 30 31  1  0  0  0  0
 16 32  2  0  0  0  0
 15 16  1  0  0  0  0
 14 15  1  0  0  0  0
 13 33  1  0  0  0  0
  7 11  1  1  0  0  0
  3  1  1  1  0  0  0
  1 34  1  0  0  0  0
M  END
>  <cdx:fragmentId>
4096

$$$$
