360.cdx
  Mrv1902 05222410272D          

 27 29  0  0  0  0            999 V2000
    3.1837   -8.8894    0.0000 C   0  0  0  0  0  0  0  0  0  0  0  0
    3.1837   -9.7144    0.0000 C   0  0  0  0  0  0  0  0  0  0  0  0
    3.8981  -10.1269    0.0000 C   0  0  0  0  0  0  0  0  0  0  0  0
    4.6126   -9.7144    0.0000 C   0  0  0  0  0  0  0  0  0  0  0  0
    4.6126   -8.8894    0.0000 C   0  0  0  0  0  0  0  0  0  0  0  0
    3.8981   -8.4769    0.0000 C   0  0  0  0  0  0  0  0  0  0  0  0
    5.3972   -9.9693    0.0000 C   0  0  0  0  0  0  0  0  0  0  0  0
    5.8821   -9.3019    0.0000 C   0  0  0  0  0  0  0  0  0  0  0  0
    5.3972   -8.6344    0.0000 O   0  0  0  0  0  0  0  0  0  0  0  0
    2.4692   -8.4769    0.0000 O   0  0  0  0  0  0  0  0  0  0  0  0
    1.7547   -8.8894    0.0000 C   0  0  0  0  0  0  0  0  0  0  0  0
    1.7547   -9.7144    0.0000 C   0  0  0  0  0  0  0  0  0  0  0  0
    2.4692  -10.1269    0.0000 C   0  0  0  0  0  0  0  0  0  0  0  0
    1.0402   -8.4769    0.0000 O   0  0  0  0  0  0  0  0  0  0  0  0
    3.8981  -10.9519    0.0000 O   0  0  0  0  0  0  0  0  0  0  0  0
    4.6950  -11.1654    0.0000 C   0  0  0  0  0  0  0  0  0  0  0  0
    4.6950  -11.9904    0.0000 C   0  0  0  0  0  0  0  0  0  0  0  0
    5.2784  -12.5738    0.0000 C   0  0  0  0  0  0  0  0  0  0  0  0
    5.9928  -12.1613    0.0000 C   0  0  0  0  0  0  0  0  0  0  0  0
    5.2784  -13.3988    0.0000 C   0  0  0  0  0  0  0  0  0  0  0  0
    5.9928  -13.8113    0.0000 C   0  0  0  0  0  0  0  0  0  0  0  0
    5.9928  -14.6363    0.0000 C   0  0  2  0  0  0  0  0  0  0  0  0
    6.7073  -15.0488    0.0000 C   0  0  0  0  0  0  0  0  0  0  0  0
    6.7073  -15.8738    0.0000 C   0  0  0  0  0  0  0  0  0  0  0  0
    7.4218  -14.6363    0.0000 O   0  0  0  0  0  0  0  0  0  0  0  0
    6.7073  -14.2238    0.0000 C   0  0  0  0  0  0  0  0  0  0  0  0
    5.2784  -15.0488    0.0000 O   0  0  0  0  0  0  0  0  0  0  0  0
  1  2  2  0  0  0  0
  2  3  1  0  0  0  0
  3  4  2  0  0  0  0
  4  5  1  0  0  0  0
  5  6  2  0  0  0  0
  6  1  1  0  0  0  0
  4  7  1  0  0  0  0
  7  8  2  0  0  0  0
  8  9  1  0  0  0  0
  9  5  1  0  0  0  0
  1 10  1  0  0  0  0
 10 11  1  0  0  0  0
 11 12  1  0  0  0  0
 12 13  2  0  0  0  0
 13  2  1  0  0  0  0
 11 14  2  0  0  0  0
  3 15  1  0  0  0  0
 15 16  1  0  0  0  0
 16 17  1  0  0  0  0
 17 18  2  0  0  0  0
 18 19  1  0  0  0  0
 18 20  1  0  0  0  0
 20 21  1  0  0  0  0
 21 22  1  0  0  0  0
 22 23  1  0  0  0  0
 23 24  1  0  0  0  0
 23 25  1  0  0  0  0
 23 26  1  0  0  0  0
 22 27  1  6  0  0  0
M  END
>  <cdx:fragmentId>
4909

$$$$
