37864.cdx
  Mrv1902 05222410272D          

 18 19  0  0  0  0            999 V2000
    4.2524   -5.1470    0.0000 O   0  0  0  0  0  0  0  0  0  0  0  0
    3.7256   -6.5195    0.0000 O   0  0  0  0  0  0  0  0  0  0  0  0
    4.0611   -7.2732    0.0000 C   0  0  0  0  0  0  0  0  0  0  0  0
    4.8816   -7.1870    0.0000 C   0  0  0  0  0  0  0  0  0  0  0  0
    5.0531   -6.3800    0.0000 N   0  0  0  0  0  0  0  0  0  0  0  0
    4.3387   -5.9675    0.0000 C   0  0  0  0  0  0  0  0  0  0  0  0
    5.7676   -5.9675    0.0000 C   0  0  0  0  0  0  0  0  0  0  0  0
    6.4821   -6.3800    0.0000 C   0  0  0  0  0  0  0  0  0  0  0  0
    7.1965   -5.9675    0.0000 O   0  0  0  0  0  0  0  0  0  0  0  0
    9.6359   -6.9779    0.0000 C   0  0  0  0  0  0  0  0  0  0  0  0
   10.4328   -7.1914    0.0000 C   0  0  0  0  0  0  0  0  0  0  0  0
   11.0161   -6.6081    0.0000 N   0  0  0  0  0  0  0  0  0  0  0  0
   10.8026   -5.8112    0.0000 C   0  0  0  0  0  0  0  0  0  0  0  0
   10.0057   -5.5977    0.0000 C   0  0  0  0  0  0  0  0  0  0  0  0
    9.4224   -6.1810    0.0000 C   0  0  0  0  0  0  0  0  0  0  0  0
    7.9110   -7.2050    0.0000 O   0  0  0  0  0  0  0  0  0  0  0  0
    8.6255   -5.9675    0.0000 N   0  0  0  0  0  0  0  0  0  0  0  0
    7.9110   -6.3800    0.0000 C   0  0  0  0  0  0  0  0  0  0  0  0
  6  1  2  0  0  0  0
  2  6  1  0  0  0  0
  3  2  1  0  0  0  0
  4  3  1  0  0  0  0
  5  4  1  0  0  0  0
  6  5  1  0  0  0  0
  5  7  1  0  0  0  0
  7  8  1  0  0  0  0
  8  9  1  0  0  0  0
 10 15  1  0  0  0  0
  9 18  1  0  0  0  0
 11 10  2  0  0  0  0
 12 11  1  0  0  0  0
 13 12  2  0  0  0  0
 14 13  1  0  0  0  0
 15 14  2  0  0  0  0
 17 15  1  0  0  0  0
 18 16  2  0  0  0  0
 18 17  1  0  0  0  0
M  END
>  <cdx:fragmentId>
5326

$$$$
