102378642.cdx
  Mrv1902 05222410222D          

 46 50  0  0  0  0            999 V2000
   10.5651  -13.7152    0.0000 O   0  0  0  0  0  0  0  0  0  0  0  0
   10.0131  -13.1021    0.0000 C   0  0  2  0  0  0  0  0  0  0  0  0
   10.2680  -12.3175    0.0000 C   0  0  1  0  0  0  0  0  0  0  0  0
   11.0750  -12.1460    0.0000 C   0  0  2  0  0  0  0  0  0  0  0  0
   11.6270  -12.7591    0.0000 C   0  0  1  0  0  0  0  0  0  0  0  0
   11.3721  -13.5437    0.0000 C   0  0  1  0  0  0  0  0  0  0  0  0
    9.7160  -11.7044    0.0000 O   0  0  0  0  0  0  0  0  0  0  0  0
   11.3299  -11.3613    0.0000 O   0  0  0  0  0  0  0  0  0  0  0  0
   12.4340  -12.5875    0.0000 O   0  0  0  0  0  0  0  0  0  0  0  0
   11.9241  -14.1568    0.0000 C   0  0  0  0  0  0  0  0  0  0  0  0
   12.7311  -13.9853    0.0000 O   0  0  0  0  0  0  0  0  0  0  0  0
    9.2061  -13.2736    0.0000 O   0  0  0  0  0  0  0  0  0  0  0  0
   10.3102  -14.4998    0.0000 C   0  0  0  0  0  0  0  0  0  0  0  0
    9.5032  -14.6714    0.0000 C   0  0  0  0  0  0  0  0  0  0  0  0
    8.9512  -14.0583    0.0000 C   0  0  1  0  0  0  0  0  0  0  0  0
    8.1442  -14.2298    0.0000 C   0  0  0  0  0  0  0  0  0  0  0  0
    7.8893  -15.0144    0.0000 C   0  0  0  0  0  0  0  0  0  0  0  0
    7.0823  -15.1859    0.0000 C   0  0  1  0  0  0  0  0  0  0  0  0
    6.5303  -14.5728    0.0000 C   0  0  0  0  0  0  0  0  0  0  0  0
    8.3991  -13.4452    0.0000 C   0  0  0  0  0  0  0  0  0  0  0  0
    9.2483  -15.4560    0.0000 C   0  0  0  0  0  0  0  0  0  0  0  0
   10.0552  -15.2845    0.0000 O   0  0  0  0  0  0  0  0  0  0  0  0
    3.1848  -17.0505    0.0000 C   0  0  0  0  0  0  0  0  0  0  0  0
    2.4704  -17.4630    0.0000 C   0  0  0  0  0  0  0  0  0  0  0  0
    2.4704  -18.2880    0.0000 C   0  0  1  0  0  0  0  0  0  0  0  0
    3.1848  -18.7005    0.0000 C   0  0  0  0  0  0  0  0  0  0  0  0
    3.8993  -18.2880    0.0000 C   0  0  0  0  0  0  0  0  0  0  0  0
    4.6138  -18.7005    0.0000 C   0  0  0  0  0  0  0  0  0  0  0  0
    5.3283  -18.2880    0.0000 C   0  0  0  0  0  0  0  0  0  0  0  0
    5.3283  -17.4630    0.0000 C   0  0  1  0  0  0  0  0  0  0  0  0
    6.0427  -17.0505    0.0000 C   0  0  2  0  0  0  0  0  0  0  0  0
    6.8274  -17.3054    0.0000 C   0  0  0  0  0  0  0  0  0  0  0  0
    7.3123  -16.6380    0.0000 C   0  0  0  0  0  0  0  0  0  0  0  0
    6.8274  -15.9706    0.0000 C   0  0  1  0  0  0  0  0  0  0  0  0
    6.0427  -16.2255    0.0000 C   0  0  1  0  0  0  0  0  0  0  0  0
    5.3283  -15.8130    0.0000 C   0  0  0  0  0  0  0  0  0  0  0  0
    4.6138  -16.2255    0.0000 C   0  0  2  0  0  0  0  0  0  0  0  0
    4.6138  -17.0505    0.0000 C   0  0  2  0  0  0  0  0  0  0  0  0
    3.8993  -17.4630    0.0000 C   0  0  1  0  0  0  0  0  0  0  0  0
    6.1290  -15.4050    0.0000 C   0  0  0  0  0  0  0  0  0  0  0  0
    3.8993  -16.6380    0.0000 C   0  0  0  0  0  0  0  0  0  0  0  0
    3.8993  -15.8130    0.0000 O   0  0  0  0  0  0  0  0  0  0  0  0
    1.7559  -18.7005    0.0000 O   0  0  0  0  0  0  0  0  0  0  0  0
    5.3283  -16.6380    0.0000 H   0  0  0  0  0  0  0  0  0  0  0  0
    4.6138  -17.8755    0.0000 H   0  0  0  0  0  0  0  0  0  0  0  0
    6.0427  -17.8755    0.0000 H   0  0  0  0  0  0  0  0  0  0  0  0
  1  2  1  0  0  0  0
  2  3  1  0  0  0  0
  3  4  1  0  0  0  0
  4  5  1  0  0  0  0
  5  6  1  0  0  0  0
  1  6  1  0  0  0  0
  3  7  1  6  0  0  0
  4  8  1  1  0  0  0
  5  9  1  6  0  0  0
 10 11  1  0  0  0  0
  6 10  1  1  0  0  0
 13 14  1  0  0  0  0
 14 15  1  0  0  0  0
 15 16  1  0  0  0  0
 16 17  1  0  0  0  0
 17 18  1  0  0  0  0
 18 19  1  6  0  0  0
 15 20  1  6  0  0  0
 14 21  1  0  0  0  0
 14 22  1  0  0  0  0
 23 24  1  0  0  0  0
 24 25  1  0  0  0  0
 25 26  1  0  0  0  0
 26 27  1  0  0  0  0
 27 28  2  0  0  0  0
 28 29  1  0  0  0  0
 29 30  1  0  0  0  0
 30 31  1  0  0  0  0
 31 32  1  0  0  0  0
 32 33  1  0  0  0  0
 34 33  1  1  0  0  0
 34 35  1  0  0  0  0
 31 35  1  0  0  0  0
 35 36  1  0  0  0  0
 36 37  1  0  0  0  0
 37 38  1  0  0  0  0
 30 38  1  0  0  0  0
 38 39  1  0  0  0  0
 27 39  1  0  0  0  0
 23 39  1  0  0  0  0
 35 40  1  1  0  0  0
 39 41  1  1  0  0  0
 37 42  1  6  0  0  0
 25 43  1  1  0  0  0
 18 34  1  0  0  0  0
 12 15  1  0  0  0  0
  2 12  1  1  0  0  0
 30 44  1  1  0  0  0
 38 45  1  6  0  0  0
 31 46  1  6  0  0  0
M  END
>  <cdx:groupId>
37522

>  <cdx:fragmentId>
37427

$$$$
