378.cdx
  Mrv1902 05222410192D          

 12 12  0  0  0  0            999 V2000
    8.5545  -12.0487    0.0000 C   0  0  0  0  0  0  0  0  0  0  0  0
    8.1420  -12.7632    0.0000 C   0  0  0  0  0  0  0  0  0  0  0  0
    7.7295  -12.0487    0.0000 C   0  0  0  0  0  0  0  0  0  0  0  0
    9.2690  -11.6362    0.0000 C   0  0  0  0  0  0  0  0  0  0  0  0
    9.9835  -12.0487    0.0000 O   0  0  0  0  0  0  0  0  0  0  0  0
    7.4276  -13.1757    0.0000 C   0  0  0  0  0  0  0  0  0  0  0  0
    6.7131  -12.7632    0.0000 C   0  0  0  0  0  0  0  0  0  0  0  0
    5.9986  -13.1757    0.0000 C   0  0  0  0  0  0  0  0  0  0  0  0
    5.2842  -12.7632    0.0000 C   0  0  0  0  0  0  0  0  0  0  0  0
    4.5697  -13.1757    0.0000 C   0  0  0  0  0  0  0  0  0  0  0  0
    5.2842  -11.9382    0.0000 C   0  0  0  0  0  0  0  0  0  0  0  0
    8.8565  -13.1757    0.0000 C   0  0  0  0  0  0  0  0  0  0  0  0
  1  2  1  0  0  0  0
  2  3  1  0  0  0  0
  1  3  1  0  0  0  0
  4  5  1  0  0  0  0
  1  4  1  0  0  0  0
  6  7  1  0  0  0  0
  7  8  1  0  0  0  0
  8  9  2  0  0  0  0
  9 10  1  0  0  0  0
  9 11  1  0  0  0  0
  2  6  1  0  0  0  0
  2 12  1  0  0  0  0
M  END
>  <cdx:fragmentId>
6568

$$$$
