37876.cdx
  Mrv1902 05222410262D          

 11 11  0  0  0  0            999 V2000
    6.5455   -8.0575    0.0000 C   0  0  0  0  0  0  0  0  0  0  0  0
    6.5455   -8.8825    0.0000 C   0  0  0  0  0  0  0  0  0  0  0  0
    7.2600   -9.2950    0.0000 C   0  0  0  0  0  0  0  0  0  0  0  0
    7.9745   -8.8825    0.0000 C   0  0  0  0  0  0  0  0  0  0  0  0
    7.9745   -8.0575    0.0000 C   0  0  0  0  0  0  0  0  0  0  0  0
    7.2600   -7.6450    0.0000 C   0  0  0  0  0  0  0  0  0  0  0  0
    6.8475   -6.9305    0.0000 C   0  0  0  0  0  0  0  0  0  0  0  0
    7.8434   -7.0616    0.0000 C   0  0  0  0  0  0  0  0  0  0  0  0
    5.8311   -7.6450    0.0000 C   0  0  0  0  0  0  0  0  0  0  0  0
    5.1166   -8.0575    0.0000 C   0  0  0  0  0  0  0  0  0  0  0  0
    5.8311   -9.2950    0.0000 C   0  0  0  0  0  0  0  0  0  0  0  0
  1  2  1  0  0  0  0
  2  3  1  0  0  0  0
  3  4  1  0  0  0  0
  4  5  1  0  0  0  0
  5  6  1  0  0  0  0
  6  1  1  0  0  0  0
  6  7  1  0  0  0  0
  6  8  1  0  0  0  0
  1  9  1  0  0  0  0
  9 10  2  0  0  0  0
  2 11  2  0  0  0  0
M  END
>  <cdx:fragmentId>
6509

$$$$
