37870.cdx
  Mrv1902 05222410272D          

 54 58  0  0  0  0            999 V2000
    4.3764   -5.8604    0.0000 C   0  0  0  0  0  0  0  0  0  0  0  0
    5.2014   -5.8604    0.0000 C   0  0  0  0  0  0  0  0  0  0  0  0
    5.6139   -6.5748    0.0000 C   0  0  0  0  0  0  0  0  0  0  0  0
    3.9639   -5.1459    0.0000 O   0  0  0  0  0  0  0  0  0  0  0  0
    5.2014   -7.2893    0.0000 O   0  0  0  0  0  0  0  0  0  0  0  0
    3.9639   -6.5748    0.0000 C   0  0  0  0  0  0  0  0  0  0  0  0
    3.1389   -6.5748    0.0000 C   0  0  0  0  0  0  0  0  0  0  0  0
    2.7264   -7.2893    0.0000 C   0  0  0  0  0  0  0  0  0  0  0  0
    3.1389   -8.0038    0.0000 C   0  0  0  0  0  0  0  0  0  0  0  0
    3.9639   -8.0038    0.0000 C   0  0  0  0  0  0  0  0  0  0  0  0
    4.3764   -7.2893    0.0000 C   0  0  0  0  0  0  0  0  0  0  0  0
    1.9014   -7.2893    0.0000 O   0  0  0  0  0  0  0  0  0  0  0  0
    1.4889   -8.0038    0.0000 C   0  0  0  0  0  0  0  0  0  0  0  0
    2.7264   -8.7182    0.0000 O   0  0  0  0  0  0  0  0  0  0  0  0
    5.6139   -5.1459    0.0000 O   0  0  0  0  0  0  0  0  0  0  0  0
    6.4389   -5.1459    0.0000 C   0  0  0  0  0  0  0  0  0  0  0  0
    6.8514   -4.4314    0.0000 C   0  0  0  0  0  0  0  0  0  0  0  0
    7.6764   -4.4314    0.0000 C   0  0  0  0  0  0  0  0  0  0  0  0
    8.0889   -5.1459    0.0000 C   0  0  0  0  0  0  0  0  0  0  0  0
    7.6764   -5.8604    0.0000 C   0  0  0  0  0  0  0  0  0  0  0  0
    6.8514   -5.8604    0.0000 C   0  0  0  0  0  0  0  0  0  0  0  0
    6.4389   -6.5748    0.0000 O   0  0  0  0  0  0  0  0  0  0  0  0
    6.8514   -7.2893    0.0000 C   0  0  0  0  0  0  0  0  0  0  0  0
    6.4389   -3.7169    0.0000 O   0  0  0  0  0  0  0  0  0  0  0  0
    5.6139   -3.7169    0.0000 C   0  0  0  0  0  0  0  0  0  0  0  0
    9.3989   -5.8133    0.0000 O   0  0  0  0  0  0  0  0  0  0  0  0
    8.9139   -5.1459    0.0000 C   0  0  0  0  0  0  0  0  0  0  0  0
    9.3989   -4.4784    0.0000 C   0  0  0  0  0  0  0  0  0  0  0  0
   10.1835   -4.7334    0.0000 C   0  0  0  0  0  0  0  0  0  0  0  0
   10.1835   -5.5584    0.0000 C   0  0  0  0  0  0  0  0  0  0  0  0
   10.8980   -4.3209    0.0000 C   0  0  0  0  0  0  0  0  0  0  0  0
   11.6124   -4.7334    0.0000 C   0  0  0  0  0  0  0  0  0  0  0  0
   11.6124   -5.5584    0.0000 C   0  0  0  0  0  0  0  0  0  0  0  0
   10.8980   -5.9709    0.0000 C   0  0  0  0  0  0  0  0  0  0  0  0
   12.3269   -4.3209    0.0000 C   0  0  0  0  0  0  0  0  0  0  0  0
   13.0414   -4.7334    0.0000 C   0  0  0  0  0  0  0  0  0  0  0  0
   13.7558   -4.3209    0.0000 C   0  0  0  0  0  0  0  0  0  0  0  0
   14.4703   -4.7334    0.0000 O   0  0  0  0  0  0  0  0  0  0  0  0
   15.1848   -4.3209    0.0000 C   0  0  0  0  0  0  0  0  0  0  0  0
   15.8993   -4.7334    0.0000 C   0  0  0  0  0  0  0  0  0  0  0  0
   16.6137   -4.3209    0.0000 C   0  0  0  0  0  0  0  0  0  0  0  0
   17.3282   -4.7334    0.0000 C   0  0  0  0  0  0  0  0  0  0  0  0
   18.0427   -4.3209    0.0000 C   0  0  0  0  0  0  0  0  0  0  0  0
   18.7571   -4.7334    0.0000 C   0  0  0  0  0  0  0  0  0  0  0  0
   18.7571   -5.5584    0.0000 C   0  0  0  0  0  0  0  0  0  0  0  0
   18.0427   -5.9709    0.0000 C   0  0  0  0  0  0  0  0  0  0  0  0
   17.3282   -5.5584    0.0000 C   0  0  0  0  0  0  0  0  0  0  0  0
   15.1848   -3.4959    0.0000 O   0  0  0  0  0  0  0  0  0  0  0  0
   19.4716   -4.3209    0.0000 O   0  0  0  0  0  0  0  0  0  0  0  0
   20.1861   -4.7334    0.0000 C   0  0  0  0  0  0  0  0  0  0  0  0
   19.4716   -5.9709    0.0000 O   0  0  0  0  0  0  0  0  0  0  0  0
   10.8980   -6.7959    0.0000 O   0  0  0  0  0  0  0  0  0  0  0  0
    9.1439   -3.6938    0.0000 C   0  0  0  0  0  0  0  0  0  0  0  0
    8.3370   -3.5223    0.0000 O   0  0  0  0  0  0  0  0  0  0  0  0
  1  2  1  0  0  0  0
  2  3  1  0  0  0  0
  1  4  1  0  0  0  0
  3  5  1  0  0  0  0
  6  7  1  0  0  0  0
  7  8  2  0  0  0  0
  8  9  1  0  0  0  0
  9 10  2  0  0  0  0
 10 11  1  0  0  0  0
  6 11  2  0  0  0  0
 12 13  1  0  0  0  0
  8 12  1  0  0  0  0
  9 14  1  0  0  0  0
  1  6  1  0  0  0  0
 16 17  1  0  0  0  0
 17 18  2  0  0  0  0
 18 19  1  0  0  0  0
 19 20  2  0  0  0  0
 20 21  1  0  0  0  0
 16 21  2  0  0  0  0
 15 16  1  0  0  0  0
 22 23  1  0  0  0  0
 21 22  1  0  0  0  0
 24 25  1  0  0  0  0
 17 24  1  0  0  0  0
 26 27  1  0  0  0  0
 27 28  1  0  0  0  0
 28 29  1  0  0  0  0
 29 30  1  0  0  0  0
 26 30  1  0  0  0  0
 31 32  1  0  0  0  0
 32 33  2  0  0  0  0
 33 34  1  0  0  0  0
 30 34  2  0  0  0  0
 29 31  2  0  0  0  0
 35 36  1  0  0  0  0
 36 37  1  0  0  0  0
 39 40  1  0  0  0  0
 40 41  2  0  0  0  0
 41 42  1  0  0  0  0
 42 43  1  0  0  0  0
 43 44  2  0  0  0  0
 44 45  1  0  0  0  0
 45 46  2  0  0  0  0
 46 47  1  0  0  0  0
 42 47  2  0  0  0  0
 39 48  2  0  0  0  0
 38 39  1  0  0  0  0
 49 50  1  0  0  0  0
 44 49  1  0  0  0  0
 45 51  1  0  0  0  0
 37 38  1  0  0  0  0
 32 35  1  0  0  0  0
 34 52  1  0  0  0  0
 53 54  1  0  0  0  0
 28 53  1  0  0  0  0
 19 27  1  0  0  0  0
  2 15  1  0  0  0  0
M  END
>  <cdx:fragmentId>
5828

$$$$
