37871.cdx
  Mrv1902 05222410272D          

 35 38  0  0  0  0            999 V2000
    6.8788   -9.6029    0.0000 O   0  0  0  0  0  0  0  0  0  0  0  0
    6.1644  -10.0154    0.0000 C   0  0  1  0  0  0  0  0  0  0  0  0
    6.1644  -10.8404    0.0000 C   0  0  2  0  0  0  0  0  0  0  0  0
    6.8788  -11.2529    0.0000 O   0  0  0  0  0  0  0  0  0  0  0  0
    5.4499  -11.2529    0.0000 C   0  0  1  0  0  0  0  0  0  0  0  0
    5.4499  -12.0779    0.0000 O   0  0  0  0  0  0  0  0  0  0  0  0
    4.7354  -10.8404    0.0000 C   0  0  2  0  0  0  0  0  0  0  0  0
    4.0210  -11.2529    0.0000 O   0  0  0  0  0  0  0  0  0  0  0  0
    4.7354  -10.0154    0.0000 C   0  0  2  0  0  0  0  0  0  0  0  0
    5.4499   -9.6029    0.0000 O   0  0  0  0  0  0  0  0  0  0  0  0
    4.0210   -9.6029    0.0000 C   0  0  0  0  0  0  0  0  0  0  0  0
    3.3065  -10.0154    0.0000 O   0  0  0  0  0  0  0  0  0  0  0  0
    7.5933  -10.0154    0.0000 C   0  0  0  0  0  0  0  0  0  0  0  0
    8.3078   -9.6029    0.0000 C   0  0  0  0  0  0  0  0  0  0  0  0
    9.0223  -10.0154    0.0000 C   0  0  0  0  0  0  0  0  0  0  0  0
    9.0223  -10.8404    0.0000 C   0  0  0  0  0  0  0  0  0  0  0  0
    8.3078  -11.2529    0.0000 C   0  0  0  0  0  0  0  0  0  0  0  0
    7.5933  -10.8404    0.0000 C   0  0  0  0  0  0  0  0  0  0  0  0
    8.3078  -12.0779    0.0000 C   0  0  0  0  0  0  0  0  0  0  0  0
    7.5933  -12.4904    0.0000 C   0  0  0  0  0  0  0  0  0  0  0  0
    9.0223  -12.4904    0.0000 C   0  0  0  0  0  0  0  0  0  0  0  0
    9.7367   -9.6029    0.0000 O   0  0  0  0  0  0  0  0  0  0  0  0
    8.3078   -8.7779    0.0000 C   0  0  0  0  0  0  0  0  0  0  0  0
    9.0223   -8.3654    0.0000 C   0  0  0  0  0  0  0  0  0  0  0  0
    9.0223   -7.5404    0.0000 C   0  0  0  0  0  0  0  0  0  0  0  0
    7.5933   -8.3654    0.0000 O   0  0  0  0  0  0  0  0  0  0  0  0
    9.7367   -6.3029    0.0000 C   0  0  0  0  0  0  0  0  0  0  0  0
    9.7367   -7.1279    0.0000 C   0  0  0  0  0  0  0  0  0  0  0  0
   10.4512   -7.5404    0.0000 C   0  0  0  0  0  0  0  0  0  0  0  0
   11.1657   -7.1279    0.0000 C   0  0  0  0  0  0  0  0  0  0  0  0
   11.1657   -6.3029    0.0000 C   0  0  0  0  0  0  0  0  0  0  0  0
   10.4512   -5.8904    0.0000 C   0  0  0  0  0  0  0  0  0  0  0  0
   10.6227   -5.0835    0.0000 C   0  0  0  0  0  0  0  0  0  0  0  0
   11.4432   -4.9972    0.0000 C   0  0  0  0  0  0  0  0  0  0  0  0
   11.7788   -5.7509    0.0000 O   0  0  0  0  0  0  0  0  0  0  0  0
 31 30  2  0  0  0  0
 32 27  2  0  0  0  0
 28 27  1  0  0  0  0
 29 28  2  0  0  0  0
 30 29  1  0  0  0  0
 35 31  1  0  0  0  0
 32 31  1  0  0  0  0
 33 32  1  0  0  0  0
 34 33  2  0  0  0  0
  2  1  1  1  0  0  0
  2  3  1  0  0  0  0
  3  4  1  6  0  0  0
  3  5  1  0  0  0  0
  5  6  1  1  0  0  0
  5  7  1  0  0  0  0
  7  8  1  6  0  0  0
  7  9  1  0  0  0  0
  9 10  1  0  0  0  0
  9 11  1  1  0  0  0
 11 12  1  0  0  0  0
  2 10  1  0  0  0  0
 13 14  1  0  0  0  0
 14 15  2  0  0  0  0
 15 16  1  0  0  0  0
 16 17  2  0  0  0  0
 17 18  1  0  0  0  0
 13 18  2  0  0  0  0
 19 20  1  0  0  0  0
 19 21  1  0  0  0  0
 17 19  1  0  0  0  0
 15 22  1  0  0  0  0
 23 24  1  0  0  0  0
 24 25  1  0  0  0  0
 23 26  2  0  0  0  0
 35 34  1  0  0  0  0
 25 28  1  0  0  0  0
 14 23  1  0  0  0  0
  1 13  1  0  0  0  0
M  END
>  <cdx:fragmentId>
5983

$$$$
