37875.cdx
  Mrv1902 05222410262D          

 41 41  0  0  0  0            999 V2000
   25.0296   -7.8786    0.0000 C   0  0  0  0  0  0  0  0  0  0  0  0
   25.0296   -7.0536    0.0000 C   0  0  0  0  0  0  0  0  0  0  0  0
   24.3151   -6.6411    0.0000 C   0  0  0  0  0  0  0  0  0  0  0  0
   23.6006   -7.0536    0.0000 C   0  0  0  0  0  0  0  0  0  0  0  0
   22.8861   -6.6411    0.0000 C   0  0  0  0  0  0  0  0  0  0  0  0
   22.1717   -7.0536    0.0000 C   0  0  0  0  0  0  0  0  0  0  0  0
   21.4572   -6.6411    0.0000 C   0  0  0  0  0  0  0  0  0  0  0  0
   20.7427   -7.0536    0.0000 C   0  0  0  0  0  0  0  0  0  0  0  0
   20.0283   -6.6411    0.0000 C   0  0  0  0  0  0  0  0  0  0  0  0
   19.3138   -7.0536    0.0000 C   0  0  0  0  0  0  0  0  0  0  0  0
   18.5993   -6.6411    0.0000 C   0  0  0  0  0  0  0  0  0  0  0  0
   17.8848   -7.0536    0.0000 C   0  0  0  0  0  0  0  0  0  0  0  0
   17.1704   -6.6411    0.0000 C   0  0  0  0  0  0  0  0  0  0  0  0
   16.4559   -7.0536    0.0000 C   0  0  0  0  0  0  0  0  0  0  0  0
   15.7414   -6.6411    0.0000 C   0  0  0  0  0  0  0  0  0  0  0  0
   15.0270   -7.0536    0.0000 C   0  0  0  0  0  0  0  0  0  0  0  0
   14.3125   -6.6411    0.0000 C   0  0  0  0  0  0  0  0  0  0  0  0
   13.5980   -7.0536    0.0000 C   0  0  0  0  0  0  0  0  0  0  0  0
   12.8835   -6.6411    0.0000 C   0  0  0  0  0  0  0  0  0  0  0  0
   12.1691   -7.0536    0.0000 C   0  0  0  0  0  0  0  0  0  0  0  0
   11.4546   -6.6411    0.0000 C   0  0  0  0  0  0  0  0  0  0  0  0
   10.7401   -7.0536    0.0000 C   0  0  0  0  0  0  0  0  0  0  0  0
   10.0257   -6.6411    0.0000 C   0  0  0  0  0  0  0  0  0  0  0  0
    9.3112   -7.0536    0.0000 C   0  0  0  0  0  0  0  0  0  0  0  0
    8.5967   -6.6411    0.0000 C   0  0  0  0  0  0  0  0  0  0  0  0
    7.8822   -7.0536    0.0000 C   0  0  0  0  0  0  0  0  0  0  0  0
    7.1678   -6.6411    0.0000 C   0  0  0  0  0  0  0  0  0  0  0  0
    6.4533   -7.0536    0.0000 C   0  0  0  0  0  0  0  0  0  0  0  0
    5.7388   -6.6411    0.0000 C   0  0  0  0  0  0  0  0  0  0  0  0
    5.0244   -7.0536    0.0000 C   0  0  0  0  0  0  0  0  0  0  0  0
    4.3099   -6.6411    0.0000 C   0  0  0  0  0  0  0  0  0  0  0  0
    3.5954   -7.0536    0.0000 C   0  0  0  0  0  0  0  0  0  0  0  0
    2.8809   -6.6411    0.0000 C   0  0  0  0  0  0  0  0  0  0  0  0
    2.1665   -7.0536    0.0000 C   0  0  0  0  0  0  0  0  0  0  0  0
    1.4520   -6.6411    0.0000 C   0  0  0  0  0  0  0  0  0  0  0  0
   25.7440   -6.6411    0.0000 C   0  0  0  0  0  0  0  0  0  0  0  0
   25.7440   -5.8161    0.0000 C   0  0  0  0  0  0  0  0  0  0  0  0
   26.4585   -5.4036    0.0000 C   0  0  0  0  0  0  0  0  0  0  0  0
   27.1730   -5.8161    0.0000 C   0  0  0  0  0  0  0  0  0  0  0  0
   27.1730   -6.6411    0.0000 C   0  0  0  0  0  0  0  0  0  0  0  0
   26.4585   -7.0536    0.0000 C   0  0  0  0  0  0  0  0  0  0  0  0
  1  2  1  0  0  0  0
  2  3  1  0  0  0  0
  3  4  1  0  0  0  0
  4  5  1  0  0  0  0
  5  6  1  0  0  0  0
  6  7  1  0  0  0  0
  7  8  1  0  0  0  0
  8  9  1  0  0  0  0
  9 10  1  0  0  0  0
 10 11  1  0  0  0  0
 11 12  1  0  0  0  0
 12 13  1  0  0  0  0
 13 14  1  0  0  0  0
 14 15  1  0  0  0  0
 15 16  1  0  0  0  0
 16 17  1  0  0  0  0
 17 18  2  0  0  0  0
 18 19  1  0  0  0  0
 19 20  1  0  0  0  0
 20 21  1  0  0  0  0
 21 22  1  0  0  0  0
 22 23  1  0  0  0  0
 23 24  1  0  0  0  0
 24 25  1  0  0  0  0
 25 26  1  0  0  0  0
 26 27  1  0  0  0  0
 27 28  1  0  0  0  0
 28 29  1  0  0  0  0
 29 30  1  0  0  0  0
 30 31  1  0  0  0  0
 31 32  1  0  0  0  0
 32 33  1  0  0  0  0
 33 34  1  0  0  0  0
 34 35  1  0  0  0  0
 36 37  1  0  0  0  0
 37 38  1  0  0  0  0
 38 39  1  0  0  0  0
 39 40  1  0  0  0  0
 40 41  1  0  0  0  0
 36 41  1  0  0  0  0
  2 36  1  0  0  0  0
M  END
>  <cdx:fragmentId>
6255

$$$$
