379.cdx
  Mrv1902 05222410192D          

 11 12  0  0  0  0            999 V2000
    8.4473  -12.8904    0.0000 C   0  0  0  0  0  0  0  0  0  0  0  0
    8.4473  -12.0654    0.0000 C   0  0  0  0  0  0  0  0  0  0  0  0
    7.7328  -11.6529    0.0000 C   0  0  0  0  0  0  0  0  0  0  0  0
    7.0184  -12.0654    0.0000 C   0  0  0  0  0  0  0  0  0  0  0  0
    7.0184  -12.8904    0.0000 C   0  0  0  0  0  0  0  0  0  0  0  0
    7.7328  -13.3029    0.0000 C   0  0  0  0  0  0  0  0  0  0  0  0
    6.3039  -13.3029    0.0000 C   0  0  0  0  0  0  0  0  0  0  0  0
    6.3039  -14.1279    0.0000 C   0  0  0  0  0  0  0  0  0  0  0  0
    5.5894  -12.8904    0.0000 C   0  0  0  0  0  0  0  0  0  0  0  0
    8.8598  -11.3509    0.0000 C   0  0  0  0  0  0  0  0  0  0  0  0
    9.1618  -12.4779    0.0000 O   0  0  0  0  0  0  0  0  0  0  0  0
  1  2  1  0  0  0  0
  2  3  1  0  0  0  0
  3  4  2  0  0  0  0
  4  5  1  0  0  0  0
  5  6  1  0  0  0  0
  1  6  1  0  0  0  0
  7  8  1  0  0  0  0
  7  9  1  0  0  0  0
  5  7  1  0  0  0  0
  2 10  1  0  0  0  0
  1 11  1  0  0  0  0
  2 11  1  0  0  0  0
M  END
>  <cdx:fragmentId>
6597

$$$$
