37873.cdx
  Mrv1902 05222410282D          

 18 19  0  0  0  0            999 V2000
    6.3098   -7.2108    0.0000 C   0  0  0  0  0  0  0  0  0  0  0  0
    6.3115   -8.8608    0.0000 O   0  0  0  0  0  0  0  0  0  0  0  0
    7.7380   -6.3844    0.0000 O   0  0  0  0  0  0  0  0  0  0  0  0
    8.4545   -8.4462    0.0000 C   0  0  0  0  0  0  0  0  0  0  0  0
    8.4537   -7.6212    0.0000 C   0  0  0  0  0  0  0  0  0  0  0  0
    7.7388   -7.2094    0.0000 C   0  0  0  0  0  0  0  0  0  0  0  0
    7.0247   -7.6226    0.0000 N   0  0  0  0  0  0  0  0  0  0  0  0
    7.7408   -9.6844    0.0000 C   0  0  1  0  0  0  0  0  0  0  0  0
    8.4078  -10.1699    0.0000 C   0  0  0  0  0  0  0  0  0  0  0  0
    8.1522  -10.9543    0.0000 C   0  0  1  0  0  0  0  0  0  0  0  0
    7.3272  -10.9543    0.0000 C   0  0  2  0  0  0  0  0  0  0  0  0
    7.0729  -10.1699    0.0000 O   0  0  0  0  0  0  0  0  0  0  0  0
    8.6368  -11.6220    0.0000 O   0  0  0  0  0  0  0  0  0  0  0  0
    6.8420  -11.6216    0.0000 C   0  0  0  0  0  0  0  0  0  0  0  0
    7.1773  -12.3754    0.0000 O   0  0  0  0  0  0  0  0  0  0  0  0
    7.0255   -8.4476    0.0000 C   0  0  0  0  0  0  0  0  0  0  0  0
    7.7404   -8.8594    0.0000 N   0  0  0  0  0  0  0  0  0  0  0  0
    9.1677   -7.2080    0.0000 C   0  0  0  0  0  0  0  0  0  0  0  0
  7  1  1  0  0  0  0
 16  2  2  0  0  0  0
  6  3  2  0  0  0  0
  4 17  1  0  0  0  0
  5  4  1  0  0  0  0
  6  5  1  0  0  0  0
  7  6  1  0  0  0  0
 16  7  1  0  0  0  0
 17 16  1  0  0  0  0
  8 17  1  1  0  0  0
  8  9  1  0  0  0  0
  9 10  1  0  0  0  0
 10 11  1  0  0  0  0
 11 12  1  0  0  0  0
 12  8  1  0  0  0  0
 10 13  1  6  0  0  0
 11 14  1  1  0  0  0
 14 15  1  0  0  0  0
  5 18  1  0  0  0  0
M  END
>  <cdx:fragmentId>
443

$$$$
