381.cdx
  Mrv1902 05222410182D          

 20 21  0  0  0  0            999 V2000
    6.2698  -12.6740    0.0000 C   0  0  0  0  0  0  0  0  0  0  0  0
    6.2698  -11.8490    0.0000 C   0  0  0  0  0  0  0  0  0  0  0  0
    5.5554  -13.0865    0.0000 O   0  0  0  0  0  0  0  0  0  0  0  0
    6.9843  -13.0865    0.0000 N   0  0  0  0  0  0  0  0  0  0  0  0
    8.4133  -13.9115    0.0000 C   0  0  0  0  0  0  0  0  0  0  0  0
    9.1277  -14.3240    0.0000 N   0  3  0  0  0  0  0  0  0  0  0  0
    9.1277  -15.1490    0.0000 C   0  0  0  0  0  0  0  0  0  0  0  0
    8.4133  -15.5615    0.0000 C   0  0  0  0  0  0  0  0  0  0  0  0
    7.6988  -15.1490    0.0000 C   0  0  0  0  0  0  0  0  0  0  0  0
    6.9843  -15.5615    0.0000 C   0  0  0  0  0  0  0  0  0  0  0  0
    6.2698  -15.1490    0.0000 C   0  0  0  0  0  0  0  0  0  0  0  0
    6.2698  -14.3240    0.0000 C   0  0  0  0  0  0  0  0  0  0  0  0
    6.9843  -13.9115    0.0000 C   0  0  0  0  0  0  0  0  0  0  0  0
    7.6988  -14.3240    0.0000 C   0  0  0  0  0  0  0  0  0  0  0  0
    9.8422  -13.9115    0.0000 O   0  5  0  0  0  0  0  0  0  0  0  0
    5.5554  -13.9115    0.0000 O   0  0  0  0  0  0  0  0  0  0  0  0
    4.8409  -14.3240    0.0000 C   0  0  0  0  0  0  0  0  0  0  0  0
    6.2698  -11.0240    0.0000 F   0  0  0  0  0  0  0  0  0  0  0  0
    6.9843  -11.4365    0.0000 F   0  0  0  0  0  0  0  0  0  0  0  0
    5.5554  -11.4365    0.0000 F   0  0  0  0  0  0  0  0  0  0  0  0
  1  2  1  0  0  0  0
  1  3  2  0  0  0  0
  1  4  1  0  0  0  0
  5  6  1  0  0  0  0
  6  7  2  0  0  0  0
  7  8  1  0  0  0  0
  8  9  2  0  0  0  0
  9 10  1  0  0  0  0
 10 11  2  0  0  0  0
 11 12  1  0  0  0  0
 12 13  2  0  0  0  0
 13 14  1  0  0  0  0
  5 14  2  0  0  0  0
  9 14  1  0  0  0  0
  6 15  1  0  0  0  0
 16 17  1  0  0  0  0
 12 16  1  0  0  0  0
  4 13  1  0  0  0  0
  2 18  1  0  0  0  0
  2 19  1  0  0  0  0
  2 20  1  0  0  0  0
M  CHG  2   6   1  15  -1
M  END
>  <cdx:fragmentId>
6698

$$$$
