37889.cdx
  Mrv1902 05222410262D          

 27 30  0  0  0  0            999 V2000
    3.8763   -7.9296    0.0000 C   0  0  0  0  0  0  0  0  0  0  0  0
    4.5908   -7.5171    0.0000 C   0  0  0  0  0  0  0  0  0  0  0  0
    5.3052   -7.9296    0.0000 C   0  0  0  0  0  0  0  0  0  0  0  0
    3.1618   -7.5171    0.0000 O   0  0  0  0  0  0  0  0  0  0  0  0
    8.2333   -6.4372    0.0000 O   0  0  0  0  0  0  0  0  0  0  0  0
    8.7182   -7.1046    0.0000 C   0  0  0  0  0  0  0  0  0  0  0  0
    8.2333   -7.7721    0.0000 C   0  0  0  0  0  0  0  0  0  0  0  0
    7.4486   -7.5171    0.0000 C   0  0  0  0  0  0  0  0  0  0  0  0
    7.4486   -6.6921    0.0000 C   0  0  0  0  0  0  0  0  0  0  0  0
    6.7342   -6.2796    0.0000 C   0  0  0  0  0  0  0  0  0  0  0  0
    6.0197   -6.6921    0.0000 C   0  0  0  0  0  0  0  0  0  0  0  0
    6.0197   -7.5171    0.0000 C   0  0  0  0  0  0  0  0  0  0  0  0
    6.7342   -7.9296    0.0000 C   0  0  0  0  0  0  0  0  0  0  0  0
    9.5432   -7.1046    0.0000 C   0  0  0  0  0  0  0  0  0  0  0  0
    9.9557   -6.3902    0.0000 C   0  0  0  0  0  0  0  0  0  0  0  0
   10.7807   -6.3902    0.0000 C   0  0  0  0  0  0  0  0  0  0  0  0
   11.1932   -7.1046    0.0000 C   0  0  0  0  0  0  0  0  0  0  0  0
   10.7807   -7.8191    0.0000 C   0  0  0  0  0  0  0  0  0  0  0  0
    9.9557   -7.8191    0.0000 C   0  0  0  0  0  0  0  0  0  0  0  0
   12.0182   -7.1046    0.0000 O   0  0  0  0  0  0  0  0  0  0  0  0
    8.4882   -8.5567    0.0000 C   0  0  0  0  0  0  0  0  0  0  0  0
    7.9362   -9.1698    0.0000 C   0  0  0  0  0  0  0  0  0  0  0  0
    8.1911   -9.9544    0.0000 C   0  0  0  0  0  0  0  0  0  0  0  0
    8.9981  -10.1259    0.0000 C   0  0  0  0  0  0  0  0  0  0  0  0
    9.5501   -9.5129    0.0000 C   0  0  0  0  0  0  0  0  0  0  0  0
    9.2952   -8.7282    0.0000 C   0  0  0  0  0  0  0  0  0  0  0  0
    9.2530  -10.9106    0.0000 O   0  0  0  0  0  0  0  0  0  0  0  0
  1  2  1  0  0  0  0
  2  3  1  0  0  0  0
  1  4  1  0  0  0  0
  5  6  1  0  0  0  0
  6  7  1  0  0  0  0
  7  8  1  0  0  0  0
  8  9  1  0  0  0  0
  5  9  1  0  0  0  0
 10 11  1  0  0  0  0
 11 12  2  0  0  0  0
 12 13  1  0  0  0  0
  8 13  2  0  0  0  0
  9 10  2  0  0  0  0
 14 15  1  0  0  0  0
 15 16  2  0  0  0  0
 16 17  1  0  0  0  0
 17 18  2  0  0  0  0
 18 19  1  0  0  0  0
 14 19  2  0  0  0  0
  6 14  1  0  0  0  0
  3 12  1  0  0  0  0
 17 20  1  0  0  0  0
  7 21  1  0  0  0  0
 21 22  2  0  0  0  0
 22 23  1  0  0  0  0
 23 24  2  0  0  0  0
 24 25  1  0  0  0  0
 25 26  2  0  0  0  0
 26 21  1  0  0  0  0
 24 27  1  0  0  0  0
M  END
>  <cdx:fragmentId>
7612

$$$$
