37880.cdx
  Mrv1902 05222410182D          

 17 18  0  0  0  0            999 V2000
    6.3250   -6.9300    0.0000 C   0  0  0  0  0  0  0  0  0  0  0  0
    6.5725   -7.6450    0.0000 C   0  0  0  0  0  0  0  0  0  0  0  0
    7.5075   -7.1775    0.0000 C   0  0  0  0  0  0  0  0  0  0  0  0
    8.6625   -7.5625    0.0000 C   0  0  0  0  0  0  0  0  0  0  0  0
    8.9650   -6.6825    0.0000 C   0  0  0  0  0  0  0  0  0  0  0  0
    7.8375   -6.2975    0.0000 C   0  0  0  0  0  0  0  0  0  0  0  0
    7.6450   -5.3625    0.0000 C   0  0  0  0  0  0  0  0  0  0  0  0
    7.0675   -5.8575    0.0000 C   0  0  0  0  0  0  0  0  0  0  0  0
    6.2724   -5.6373    0.0000 C   0  0  0  0  0  0  0  0  0  0  0  0
    6.0656   -4.8386    0.0000 C   0  0  0  0  0  0  0  0  0  0  0  0
    5.2706   -4.6184    0.0000 C   0  0  0  0  0  0  0  0  0  0  0  0
    5.0637   -3.8197    0.0000 C   0  0  0  0  0  0  0  0  0  0  0  0
    4.2687   -3.5995    0.0000 C   0  0  0  0  0  0  0  0  0  0  0  0
    7.0675   -5.0325    0.0000 C   0  0  0  0  0  0  0  0  0  0  0  0
    7.8585   -4.5656    0.0000 C   0  0  0  0  0  0  0  0  0  0  0  0
    4.0619   -2.8009    0.0000 O   0  0  0  0  0  0  0  0  0  0  0  0
    5.6520   -3.2413    0.0000 C   0  0  0  0  0  0  0  0  0  0  0  0
  1  2  1  0  0  0  0
  2  3  1  0  0  0  0
  3  4  1  0  0  0  0
  4  5  2  0  0  0  0
  5  6  1  0  0  0  0
  6  1  1  0  0  0  0
  6  7  1  0  0  0  0
  3  8  1  0  0  0  0
  8  7  1  0  0  0  0
  8  9  1  0  0  0  0
  9 10  1  0  0  0  0
 10 11  1  0  0  0  0
 11 12  2  0  0  0  0
 12 13  1  0  0  0  0
  8 14  1  0  0  0  0
  7 15  2  0  0  0  0
 13 16  1  0  0  0  0
 12 17  1  0  0  0  0
M  END
>  <cdx:fragmentId>
6704

$$$$
