37886.cdx
  Mrv1902 05222410192D          

 20 22  0  0  0  0            999 V2000
    7.0768   -5.4630    0.0000 N   0  0  0  0  0  0  0  0  0  0  0  0
    7.7913   -5.8755    0.0000 C   0  0  0  0  0  0  0  0  0  0  0  0
    7.7913   -6.7005    0.0000 N   0  0  0  0  0  0  0  0  0  0  0  0
    7.0768   -7.1130    0.0000 C   0  0  0  0  0  0  0  0  0  0  0  0
    6.3623   -6.7005    0.0000 C   0  0  0  0  0  0  0  0  0  0  0  0
    5.6478   -7.1130    0.0000 C   0  0  0  0  0  0  0  0  0  0  0  0
    4.9334   -6.7005    0.0000 C   0  0  0  0  0  0  0  0  0  0  0  0
    4.9334   -5.8755    0.0000 C   0  0  0  0  0  0  0  0  0  0  0  0
    5.6478   -5.4630    0.0000 C   0  0  0  0  0  0  0  0  0  0  0  0
    6.3623   -5.8755    0.0000 C   0  0  0  0  0  0  0  0  0  0  0  0
    7.0768   -7.9380    0.0000 O   0  0  0  0  0  0  0  0  0  0  0  0
    8.5057   -7.1130    0.0000 C   0  0  0  0  0  0  0  0  0  0  0  0
    9.2202   -6.7005    0.0000 C   0  0  0  0  0  0  0  0  0  0  0  0
    9.9347   -7.1130    0.0000 C   0  0  0  0  0  0  0  0  0  0  0  0
    9.9347   -7.9380    0.0000 C   0  0  0  0  0  0  0  0  0  0  0  0
    9.2202   -8.3505    0.0000 C   0  0  0  0  0  0  0  0  0  0  0  0
    8.5057   -7.9380    0.0000 C   0  0  0  0  0  0  0  0  0  0  0  0
    9.2202   -5.8755    0.0000 C   0  0  0  0  0  0  0  0  0  0  0  0
    9.9347   -5.4630    0.0000 O   0  0  0  0  0  0  0  0  0  0  0  0
    8.5057   -5.4630    0.0000 O   0  0  0  0  0  0  0  0  0  0  0  0
  1  2  2  0  0  0  0
  2  3  1  0  0  0  0
  3  4  1  0  0  0  0
  4  5  1  0  0  0  0
  5  6  1  0  0  0  0
  6  7  2  0  0  0  0
  7  8  1  0  0  0  0
  8  9  2  0  0  0  0
  9 10  1  0  0  0  0
  1 10  1  0  0  0  0
  5 10  2  0  0  0  0
  4 11  2  0  0  0  0
 12 13  1  0  0  0  0
 13 14  2  0  0  0  0
 14 15  1  0  0  0  0
 15 16  2  0  0  0  0
 16 17  1  0  0  0  0
 12 17  2  0  0  0  0
 18 19  2  0  0  0  0
 18 20  1  0  0  0  0
 13 18  1  0  0  0  0
  3 12  1  0  0  0  0
M  END
>  <cdx:fragmentId>
7283

$$$$
