37885.cdx
  Mrv1902 05222410202D          

 37 41  0  0  0  0            999 V2000
    4.2274  -10.9141    0.0000 C   0  0  0  0  0  0  0  0  0  0  0  0
    4.2274  -10.0891    0.0000 C   0  0  0  0  0  0  0  0  0  0  0  0
    4.9419   -9.6766    0.0000 C   0  0  0  0  0  0  0  0  0  0  0  0
    4.9419  -11.3266    0.0000 C   0  0  0  0  0  0  0  0  0  0  0  0
    5.3544  -12.0410    0.0000 C   0  0  0  0  0  0  0  0  0  0  0  0
    4.5294  -12.0410    0.0000 C   0  0  0  0  0  0  0  0  0  0  0  0
    5.6563  -10.9141    0.0000 C   0  0  2  0  0  0  0  0  0  0  0  0
    6.3708  -11.3266    0.0000 C   0  0  0  0  0  0  0  0  0  0  0  0
    7.0853  -10.9141    0.0000 C   0  0  0  0  0  0  0  0  0  0  0  0
    7.0853  -10.0891    0.0000 C   0  0  1  0  0  0  0  0  0  0  0  0
    7.0853   -9.2641    0.0000 C   0  0  0  0  0  0  0  0  0  0  0  0
    7.7998   -9.6766    0.0000 C   0  0  2  0  0  0  0  0  0  0  0  0
    7.7998  -10.5016    0.0000 C   0  0  0  0  0  0  0  0  0  0  0  0
    8.5142  -10.0891    0.0000 C   0  0  0  0  0  0  0  0  0  0  0  0
    9.2287   -9.6766    0.0000 C   0  0  0  0  0  0  0  0  0  0  0  0
    9.2287   -8.8516    0.0000 C   0  0  1  0  0  0  0  0  0  0  0  0
    9.9432   -8.4391    0.0000 C   0  0  2  0  0  0  0  0  0  0  0  0
    9.9432   -7.6141    0.0000 C   0  0  0  0  0  0  0  0  0  0  0  0
    9.2287   -7.2016    0.0000 C   0  0  0  0  0  0  0  0  0  0  0  0
    8.8162   -6.4871    0.0000 C   0  0  0  0  0  0  0  0  0  0  0  0
    9.6412   -6.4871    0.0000 C   0  0  0  0  0  0  0  0  0  0  0  0
    8.5142   -7.6141    0.0000 C   0  0  0  0  0  0  0  0  0  0  0  0
    8.5142   -8.4391    0.0000 C   0  0  1  0  0  0  0  0  0  0  0  0
    7.7998   -8.0266    0.0000 H   0  0  0  0  0  0  0  0  0  0  0  0
    7.7998   -8.8516    0.0000 C   0  0  0  0  0  0  0  0  0  0  0  0
    7.0853   -8.4391    0.0000 C   0  0  0  0  0  0  0  0  0  0  0  0
    6.3708   -8.8516    0.0000 C   0  0  0  0  0  0  0  0  0  0  0  0
    6.3708   -9.6766    0.0000 C   0  0  2  0  0  0  0  0  0  0  0  0
    5.6563  -10.0891    0.0000 C   0  0  1  0  0  0  0  0  0  0  0  0
    5.6563   -9.2641    0.0000 C   0  0  0  0  0  0  0  0  0  0  0  0
    6.3708  -10.5016    0.0000 H   0  0  0  0  0  0  0  0  0  0  0  0
    5.6563  -11.7391    0.0000 H   0  0  0  0  0  0  0  0  0  0  0  0
    3.5129  -11.3266    0.0000 O   0  0  0  0  0  0  0  0  0  0  0  0
   10.7682   -8.4391    0.0000 O   0  0  0  0  0  0  0  0  0  0  0  0
    9.9432   -9.2641    0.0000 C   0  0  0  0  0  0  0  0  0  0  0  0
   10.6576   -8.8516    0.0000 O   0  0  0  0  0  0  0  0  0  0  0  0
    9.9432  -10.0891    0.0000 O   0  0  0  0  0  0  0  0  0  0  0  0
  1  2  1  0  0  0  0
  2  3  1  0  0  0  0
  1  4  1  0  0  0  0
  4  5  1  0  0  0  0
  4  6  1  0  0  0  0
  4  7  1  0  0  0  0
  7  8  1  0  0  0  0
  8  9  1  0  0  0  0
  9 10  1  0  0  0  0
 10 11  1  1  0  0  0
 10 12  1  0  0  0  0
 12 13  1  6  0  0  0
 12 14  1  0  0  0  0
 14 15  1  0  0  0  0
 15 16  1  0  0  0  0
 16 17  1  0  0  0  0
 17 18  1  0  0  0  0
 18 19  1  0  0  0  0
 19 20  1  0  0  0  0
 19 21  1  0  0  0  0
 19 22  1  0  0  0  0
 22 23  1  0  0  0  0
 23 24  1  1  0  0  0
 16 23  1  0  0  0  0
 23 25  1  0  0  0  0
 12 25  1  0  0  0  0
 25 26  2  0  0  0  0
 26 27  1  0  0  0  0
 27 28  1  0  0  0  0
 10 28  1  0  0  0  0
 28 29  1  0  0  0  0
  3 29  1  0  0  0  0
  7 29  1  0  0  0  0
 29 30  1  1  0  0  0
 28 31  1  6  0  0  0
  7 32  1  6  0  0  0
  1 33  2  0  0  0  0
 17 34  1  6  0  0  0
 16 35  1  1  0  0  0
 35 36  1  0  0  0  0
 35 37  2  0  0  0  0
M  END
>  <cdx:fragmentId>
7062

$$$$
