37888.cdx
  Mrv1902 05222410262D          

 34 36  0  0  0  0            999 V2000
    9.5684   -8.1902    0.0000 C   0  0  0  0  0  0  0  0  0  0  0  0
    9.5684   -7.3652    0.0000 C   0  0  0  0  0  0  0  0  0  0  0  0
    8.8539   -6.9527    0.0000 C   0  0  0  0  0  0  0  0  0  0  0  0
    8.8539   -6.1277    0.0000 C   0  0  0  0  0  0  0  0  0  0  0  0
    9.5684   -5.7152    0.0000 C   0  0  0  0  0  0  0  0  0  0  0  0
   10.2829   -6.1277    0.0000 C   0  0  0  0  0  0  0  0  0  0  0  0
   10.2829   -6.9527    0.0000 C   0  0  0  0  0  0  0  0  0  0  0  0
    8.8539   -8.6027    0.0000 O   0  0  0  0  0  0  0  0  0  0  0  0
   10.2829   -8.6027    0.0000 O   0  0  0  0  0  0  0  0  0  0  0  0
   10.9974   -5.7152    0.0000 O   0  0  0  0  0  0  0  0  0  0  0  0
    9.5684   -4.8902    0.0000 O   0  0  0  0  0  0  0  0  0  0  0  0
    8.1395   -5.7152    0.0000 O   0  0  0  0  0  0  0  0  0  0  0  0
    7.4250   -6.1277    0.0000 C   0  0  1  0  0  0  0  0  0  0  0  0
    7.4250   -6.9527    0.0000 C   0  0  2  0  0  0  0  0  0  0  0  0
    8.1395   -7.3652    0.0000 O   0  0  0  0  0  0  0  0  0  0  0  0
    6.7105   -7.3652    0.0000 C   0  0  1  0  0  0  0  0  0  0  0  0
    6.7105   -8.1902    0.0000 O   0  0  0  0  0  0  0  0  0  0  0  0
    5.9961   -6.9527    0.0000 C   0  0  1  0  0  0  0  0  0  0  0  0
    5.9961   -6.1277    0.0000 C   0  0  2  0  0  0  0  0  0  0  0  0
    6.7105   -5.7152    0.0000 O   0  0  0  0  0  0  0  0  0  0  0  0
    5.2816   -5.7152    0.0000 C   0  0  0  0  0  0  0  0  0  0  0  0
    4.5671   -6.1277    0.0000 O   0  0  0  0  0  0  0  0  0  0  0  0
    2.4032   -9.5244    0.0000 O   0  0  0  0  0  0  0  0  0  0  0  0
    2.8157   -8.8099    0.0000 C   0  0  0  0  0  0  0  0  0  0  0  0
    4.0487   -8.0875    0.0000 O   0  0  0  0  0  0  0  0  0  0  0  0
    3.6407   -8.8046    0.0000 C   0  0  1  0  0  0  0  0  0  0  0  0
    3.6498  -10.2335    0.0000 O   0  0  0  0  0  0  0  0  0  0  0  0
    4.0578   -9.5164    0.0000 C   0  0  1  0  0  0  0  0  0  0  0  0
    5.2998  -10.2230    0.0000 O   0  0  0  0  0  0  0  0  0  0  0  0
    4.8828   -9.5112    0.0000 C   0  0  2  0  0  0  0  0  0  0  0  0
    6.1157   -8.7888    0.0000 O   0  0  0  0  0  0  0  0  0  0  0  0
    5.2907   -8.7941    0.0000 C   0  0  1  0  0  0  0  0  0  0  0  0
    4.8737   -8.0823    0.0000 C   0  0  2  0  0  0  0  0  0  0  0  0
    5.2816   -7.3652    0.0000 O   0  0  0  0  0  0  0  0  0  0  0  0
 33 34  1  1  0  0  0
 33 25  1  0  0  0  0
 24 23  1  0  0  0  0
 26 24  1  1  0  0  0
 26 25  1  0  0  0  0
 28 26  1  0  0  0  0
 28 27  1  6  0  0  0
 30 28  1  0  0  0  0
 30 29  1  1  0  0  0
 32 30  1  0  0  0  0
 32 31  1  6  0  0  0
 33 32  1  0  0  0  0
  1  2  1  0  0  0  0
  2  3  1  0  0  0  0
  3  4  2  0  0  0  0
  4  5  1  0  0  0  0
  5  6  2  0  0  0  0
  6  7  1  0  0  0  0
  2  7  2  0  0  0  0
  1  8  2  0  0  0  0
  1  9  1  0  0  0  0
  6 10  1  0  0  0  0
  5 11  1  0  0  0  0
 13 14  1  0  0  0  0
 14 15  1  6  0  0  0
 14 16  1  0  0  0  0
 16 17  1  1  0  0  0
 16 18  1  0  0  0  0
 18 34  1  6  0  0  0
 18 19  1  0  0  0  0
 19 20  1  0  0  0  0
 19 21  1  1  0  0  0
 21 22  1  0  0  0  0
 13 20  1  0  0  0  0
 13 12  1  1  0  0  0
  4 12  1  0  0  0  0
M  END
>  <cdx:fragmentId>
7507

$$$$
