378819.cdx
  Mrv1902 05222410282D          

 13 14  0  0  0  0            999 V2000
    8.1986   -9.9594    0.0000 N   0  0  0  0  0  0  0  0  0  0  0  0
    8.6835   -9.2920    0.0000 C   0  0  0  0  0  0  0  0  0  0  0  0
    8.1986   -8.6245    0.0000 C   0  0  0  0  0  0  0  0  0  0  0  0
    7.4139   -8.8795    0.0000 C   0  0  0  0  0  0  0  0  0  0  0  0
    6.6995   -8.4670    0.0000 C   0  0  0  0  0  0  0  0  0  0  0  0
    5.9850   -8.8795    0.0000 C   0  0  0  0  0  0  0  0  0  0  0  0
    5.9850   -9.7045    0.0000 C   0  0  0  0  0  0  0  0  0  0  0  0
    6.6995  -10.1170    0.0000 C   0  0  0  0  0  0  0  0  0  0  0  0
    7.4139   -9.7045    0.0000 C   0  0  0  0  0  0  0  0  0  0  0  0
    9.5085   -9.2920    0.0000 O   0  0  0  0  0  0  0  0  0  0  0  0
    8.4535   -7.8399    0.0000 O   0  0  0  0  0  0  0  0  0  0  0  0
    6.6995   -7.6420    0.0000 O   0  0  0  0  0  0  0  0  0  0  0  0
    5.9850   -7.2295    0.0000 C   0  0  0  0  0  0  0  0  0  0  0  0
  1  2  1  0  0  0  0
  2  3  1  0  0  0  0
  3  4  1  0  0  0  0
  4  5  1  0  0  0  0
  5  6  2  0  0  0  0
  6  7  1  0  0  0  0
  7  8  2  0  0  0  0
  8  9  1  0  0  0  0
  1  9  1  0  0  0  0
  4  9  2  0  0  0  0
  2 10  2  0  0  0  0
  3 11  2  0  0  0  0
 12 13  1  0  0  0  0
  5 12  1  0  0  0  0
M  END
>  <cdx:groupId>
71176

>  <cdx:fragmentId>
71139

$$$$
