37882.cdx
  Mrv1902 05222410192D          

 17 17  0  0  0  0            999 V2000
    8.9336   -7.8739    0.0000 C   0  0  0  0  0  0  0  0  0  0  0  0
    8.9336   -7.0489    0.0000 C   0  0  0  0  0  0  0  0  0  0  0  0
    9.6481   -6.6364    0.0000 C   0  0  0  0  0  0  0  0  0  0  0  0
   10.3625   -7.0489    0.0000 C   0  0  0  0  0  0  0  0  0  0  0  0
    9.6481   -5.8114    0.0000 O   0  0  0  0  0  0  0  0  0  0  0  0
    8.2191   -6.6364    0.0000 O   0  0  0  0  0  0  0  0  0  0  0  0
    7.5047   -7.0489    0.0000 C   0  0  1  0  0  0  0  0  0  0  0  0
    7.5047   -7.8739    0.0000 C   0  0  2  0  0  0  0  0  0  0  0  0
    8.2191   -8.2864    0.0000 O   0  0  0  0  0  0  0  0  0  0  0  0
    6.7902   -8.2864    0.0000 C   0  0  1  0  0  0  0  0  0  0  0  0
    6.7902   -9.1114    0.0000 O   0  0  0  0  0  0  0  0  0  0  0  0
    6.0757   -7.8739    0.0000 C   0  0  2  0  0  0  0  0  0  0  0  0
    5.3613   -8.2864    0.0000 O   0  0  0  0  0  0  0  0  0  0  0  0
    6.0757   -7.0489    0.0000 C   0  0  2  0  0  0  0  0  0  0  0  0
    6.7902   -6.6364    0.0000 O   0  0  0  0  0  0  0  0  0  0  0  0
    5.3613   -6.6364    0.0000 C   0  0  0  0  0  0  0  0  0  0  0  0
    4.6468   -7.0489    0.0000 O   0  0  0  0  0  0  0  0  0  0  0  0
  1  2  1  0  0  0  0
  2  3  1  0  0  0  0
  3  4  1  0  0  0  0
  3  5  1  0  0  0  0
  7  6  1  1  0  0  0
  7  8  1  0  0  0  0
  8  9  1  6  0  0  0
  8 10  1  0  0  0  0
 10 11  1  1  0  0  0
 10 12  1  0  0  0  0
 12 13  1  6  0  0  0
 12 14  1  0  0  0  0
 14 15  1  0  0  0  0
 14 16  1  1  0  0  0
 16 17  1  0  0  0  0
  7 15  1  0  0  0  0
  2  6  1  0  0  0  0
M  END
>  <cdx:fragmentId>
6765

$$$$
