37884.cdx
  Mrv1902 05222410202D          

 12 12  0  0  0  0            999 V2000
    7.3975   -7.2277    0.0000 O   0  0  0  0  0  0  0  0  0  0  0  0
    6.6830   -6.8152    0.0000 C   0  0  0  0  0  0  0  0  0  0  0  0
    6.6830   -5.9902    0.0000 C   0  0  0  0  0  0  0  0  0  0  0  0
    7.3975   -5.5777    0.0000 O   0  0  0  0  0  0  0  0  0  0  0  0
    8.1120   -5.9902    0.0000 C   0  0  0  0  0  0  0  0  0  0  0  0
    8.1120   -6.8152    0.0000 C   0  0  0  0  0  0  0  0  0  0  0  0
    8.8264   -7.2277    0.0000 C   0  0  0  0  0  0  0  0  0  0  0  0
    9.5409   -6.8152    0.0000 O   0  0  0  0  0  0  0  0  0  0  0  0
    5.9686   -5.5777    0.0000 C   0  0  0  0  0  0  0  0  0  0  0  0
    5.2541   -5.9902    0.0000 O   0  0  0  0  0  0  0  0  0  0  0  0
    8.8264   -5.5777    0.0000 O   0  0  0  0  0  0  0  0  0  0  0  0
    5.9686   -7.2277    0.0000 O   0  0  0  0  0  0  0  0  0  0  0  0
  1  2  1  0  0  0  0
  2  3  1  0  0  0  0
  3  4  1  0  0  0  0
  4  5  1  0  0  0  0
  5  6  1  0  0  0  0
  1  6  1  0  0  0  0
  7  8  1  0  0  0  0
  6  7  1  0  0  0  0
  9 10  1  0  0  0  0
  3  9  1  0  0  0  0
  5 11  1  0  0  0  0
  2 12  1  0  0  0  0
M  END
>  <cdx:fragmentId>
6927

$$$$
