398.cdx
  Mrv1902 05222410282D          

 23 25  0  0  0  0            999 V2000
    9.4234   -6.2473    0.0000 C   0  0  0  0  0  0  0  0  0  0  0  0
    8.7090   -5.8348    0.0000 C   0  0  0  0  0  0  0  0  0  0  0  0
    7.9945   -6.2473    0.0000 C   0  0  0  0  0  0  0  0  0  0  0  0
    7.2800   -5.8348    0.0000 C   0  0  0  0  0  0  0  0  0  0  0  0
    7.2800   -5.0098    0.0000 C   0  0  0  0  0  0  0  0  0  0  0  0
    7.9945   -4.5973    0.0000 C   0  0  0  0  0  0  0  0  0  0  0  0
    8.7090   -5.0098    0.0000 C   0  0  0  0  0  0  0  0  0  0  0  0
    9.4234   -7.0723    0.0000 O   0  0  0  0  0  0  0  0  0  0  0  0
   10.1379   -5.8348    0.0000 O   0  0  0  0  0  0  0  0  0  0  0  0
    7.9945   -7.0723    0.0000 N   0  0  0  0  0  0  0  0  0  0  0  0
    7.2800   -7.4848    0.0000 C   0  0  0  0  0  0  0  0  0  0  0  0
    7.2800   -8.3098    0.0000 C   0  0  0  0  0  0  0  0  0  0  0  0
    6.5656   -8.7223    0.0000 C   0  0  0  0  0  0  0  0  0  0  0  0
    5.8511   -8.3098    0.0000 C   0  0  0  0  0  0  0  0  0  0  0  0
    5.1366   -8.7223    0.0000 C   0  0  0  0  0  0  0  0  0  0  0  0
    4.4221   -8.3098    0.0000 C   0  0  0  0  0  0  0  0  0  0  0  0
    4.4221   -7.4848    0.0000 C   0  0  0  0  0  0  0  0  0  0  0  0
    5.1366   -7.0723    0.0000 C   0  0  0  0  0  0  0  0  0  0  0  0
    5.8511   -7.4848    0.0000 C   0  0  0  0  0  0  0  0  0  0  0  0
    6.5656   -7.0723    0.0000 O   0  0  0  0  0  0  0  0  0  0  0  0
    7.9945   -8.7223    0.0000 C   0  0  0  0  0  0  0  0  0  0  0  0
    8.7090   -8.3098    0.0000 N   0  0  0  0  0  0  0  0  0  0  0  0
    7.9945   -9.5473    0.0000 O   0  0  0  0  0  0  0  0  0  0  0  0
  1  2  1  0  0  0  0
  2  3  1  0  0  0  0
  3  4  2  0  0  0  0
  4  5  1  0  0  0  0
  5  6  2  0  0  0  0
  6  7  1  0  0  0  0
  2  7  2  0  0  0  0
  1  8  2  0  0  0  0
  1  9  1  0  0  0  0
 11 12  1  0  0  0  0
 12 13  2  0  0  0  0
 13 14  1  0  0  0  0
 14 15  1  0  0  0  0
 15 16  2  0  0  0  0
 16 17  1  0  0  0  0
 17 18  2  0  0  0  0
 18 19  1  0  0  0  0
 14 19  2  0  0  0  0
 19 20  1  0  0  0  0
 11 20  1  0  0  0  0
 10 11  2  0  0  0  0
 21 22  1  0  0  0  0
 21 23  2  0  0  0  0
 12 21  1  0  0  0  0
  3 10  1  0  0  0  0
M  END
>  <cdx:fragmentId>
381

$$$$
