396.cdx
  Mrv1902 05222410192D          

 19 22  0  0  0  0            999 V2000
    6.7886   -6.1449    0.0000 C   0  0  0  0  0  0  0  0  0  0  0  0
    7.5031   -6.5574    0.0000 C   0  0  0  0  0  0  0  0  0  0  0  0
    8.2175   -6.1449    0.0000 C   0  0  0  0  0  0  0  0  0  0  0  0
    8.9320   -6.5574    0.0000 C   0  0  0  0  0  0  0  0  0  0  0  0
    8.9320   -7.3824    0.0000 C   0  0  0  0  0  0  0  0  0  0  0  0
    8.2175   -7.7949    0.0000 C   0  0  0  0  0  0  0  0  0  0  0  0
    7.5031   -7.3824    0.0000 C   0  0  0  0  0  0  0  0  0  0  0  0
    6.7886   -7.7949    0.0000 O   0  0  0  0  0  0  0  0  0  0  0  0
    6.0741   -7.3824    0.0000 C   0  0  0  0  0  0  0  0  0  0  0  0
    5.3597   -7.7949    0.0000 C   0  0  0  0  0  0  0  0  0  0  0  0
    4.6452   -7.3824    0.0000 C   0  0  0  0  0  0  0  0  0  0  0  0
    4.6452   -6.5574    0.0000 C   0  0  0  0  0  0  0  0  0  0  0  0
    5.3597   -6.1449    0.0000 C   0  0  0  0  0  0  0  0  0  0  0  0
    6.0741   -6.5574    0.0000 C   0  0  0  0  0  0  0  0  0  0  0  0
    6.7886   -5.3199    0.0000 O   0  0  0  0  0  0  0  0  0  0  0  0
   10.2016   -6.9699    0.0000 C   0  0  0  0  0  0  0  0  0  0  0  0
    9.7166   -6.3024    0.0000 O   0  0  0  0  0  0  0  0  0  0  0  0
    9.7166   -7.6373    0.0000 O   0  0  0  0  0  0  0  0  0  0  0  0
    8.2175   -5.3199    0.0000 O   0  0  0  0  0  0  0  0  0  0  0  0
  1  2  1  0  0  0  0
  2  3  1  0  0  0  0
  3  4  2  0  0  0  0
  4  5  1  0  0  0  0
  5  6  2  0  0  0  0
  6  7  1  0  0  0  0
  2  7  2  0  0  0  0
  7  8  1  0  0  0  0
  8  9  1  0  0  0  0
  9 10  1  0  0  0  0
 10 11  2  0  0  0  0
 11 12  1  0  0  0  0
 12 13  2  0  0  0  0
 13 14  1  0  0  0  0
  9 14  2  0  0  0  0
  1 14  1  0  0  0  0
  1 15  2  0  0  0  0
 16 17  1  0  0  0  0
 16 18  1  0  0  0  0
  4 17  1  0  0  0  0
  5 18  1  0  0  0  0
  3 19  1  0  0  0  0
M  END
>  <cdx:fragmentId>
175

$$$$
