37894.cdx
  Mrv1902 05222410182D          

 25 25  0  0  0  0            999 V2000
    2.4274   -5.4663    0.0000 O   0  0  0  0  0  0  0  0  0  0  0  0
   14.5734   -6.7038    0.0000 C   0  0  0  0  0  0  0  0  0  0  0  0
   13.8589   -6.2913    0.0000 C   0  0  0  0  0  0  0  0  0  0  0  0
   13.1445   -6.7038    0.0000 C   0  0  0  0  0  0  0  0  0  0  0  0
   12.4300   -6.2913    0.0000 C   0  0  0  0  0  0  0  0  0  0  0  0
   11.7155   -6.7038    0.0000 C   0  0  0  0  0  0  0  0  0  0  0  0
   11.0011   -6.2913    0.0000 C   0  0  0  0  0  0  0  0  0  0  0  0
   10.2866   -6.7038    0.0000 C   0  0  0  0  0  0  0  0  0  0  0  0
    9.5721   -6.2913    0.0000 C   0  0  0  0  0  0  0  0  0  0  0  0
    8.8576   -6.7038    0.0000 C   0  0  0  0  0  0  0  0  0  0  0  0
    8.1432   -6.2913    0.0000 C   0  0  0  0  0  0  0  0  0  0  0  0
    7.4287   -6.7038    0.0000 C   0  0  0  0  0  0  0  0  0  0  0  0
    6.7142   -6.2913    0.0000 C   0  0  0  0  0  0  0  0  0  0  0  0
    5.9998   -6.7038    0.0000 C   0  0  0  0  0  0  0  0  0  0  0  0
    5.2853   -6.2913    0.0000 C   0  0  0  0  0  0  0  0  0  0  0  0
    4.5708   -6.7038    0.0000 C   0  0  0  0  0  0  0  0  0  0  0  0
    3.8564   -6.2913    0.0000 C   0  0  0  0  0  0  0  0  0  0  0  0
    3.1419   -6.7038    0.0000 C   0  0  0  0  0  0  0  0  0  0  0  0
    2.4274   -6.2913    0.0000 C   0  0  0  0  0  0  0  0  0  0  0  0
    1.7129   -7.5288    0.0000 C   0  0  0  0  0  0  0  0  0  0  0  0
    0.9985   -7.9413    0.0000 C   0  0  0  0  0  0  0  0  0  0  0  0
    0.2840   -7.5288    0.0000 C   0  0  0  0  0  0  0  0  0  0  0  0
    0.2840   -6.7038    0.0000 C   0  0  0  0  0  0  0  0  0  0  0  0
    0.9985   -6.2913    0.0000 C   0  0  0  0  0  0  0  0  0  0  0  0
    1.7129   -6.7038    0.0000 N   0  0  0  0  0  0  0  0  0  0  0  0
 25 19  1  0  0  0  0
 19  1  2  0  0  0  0
  3  2  1  0  0  0  0
  4  3  1  0  0  0  0
  5  4  1  0  0  0  0
  6  5  1  0  0  0  0
  7  6  1  0  0  0  0
  8  7  1  0  0  0  0
  9  8  1  0  0  0  0
 10  9  1  0  0  0  0
 11 10  1  0  0  0  0
 12 11  1  0  0  0  0
 13 12  1  0  0  0  0
 14 13  1  0  0  0  0
 15 14  1  0  0  0  0
 16 15  2  0  0  0  0
 17 16  1  0  0  0  0
 18 17  2  0  0  0  0
 19 18  1  0  0  0  0
 25 20  1  0  0  0  0
 21 20  1  0  0  0  0
 22 21  1  0  0  0  0
 23 22  1  0  0  0  0
 24 23  1  0  0  0  0
 25 24  1  0  0  0  0
M  END
>  <cdx:fragmentId>
18

$$$$
