37892.cdx
  Mrv1902 05222410192D          

 17 18  0  0  0  0            999 V2000
    7.7404   -8.8594    0.0000 N   0  0  0  0  0  0  0  0  0  0  0  0
    8.4549   -8.4469    0.0000 C   0  0  0  0  0  0  0  0  0  0  0  0
    8.4549   -7.6219    0.0000 N   0  0  0  0  0  0  0  0  0  0  0  0
    7.7404   -7.2094    0.0000 C   0  0  0  0  0  0  0  0  0  0  0  0
    7.0259   -7.6219    0.0000 C   0  0  0  0  0  0  0  0  0  0  0  0
    7.0259   -8.4469    0.0000 C   0  0  0  0  0  0  0  0  0  0  0  0
    7.7404   -6.3844    0.0000 O   0  0  0  0  0  0  0  0  0  0  0  0
    9.1693   -8.8594    0.0000 O   0  0  0  0  0  0  0  0  0  0  0  0
    7.7408   -9.6844    0.0000 C   0  0  1  0  0  0  0  0  0  0  0  0
    8.4078  -10.1699    0.0000 C   0  0  0  0  0  0  0  0  0  0  0  0
    8.1522  -10.9543    0.0000 C   0  0  1  0  0  0  0  0  0  0  0  0
    7.3272  -10.9543    0.0000 C   0  0  2  0  0  0  0  0  0  0  0  0
    7.0729  -10.1699    0.0000 O   0  0  0  0  0  0  0  0  0  0  0  0
    8.6368  -11.6220    0.0000 O   0  0  0  0  0  0  0  0  0  0  0  0
    6.8420  -11.6216    0.0000 C   0  0  0  0  0  0  0  0  0  0  0  0
    7.1773  -12.3754    0.0000 O   0  0  0  0  0  0  0  0  0  0  0  0
    9.1693   -7.2094    0.0000 C   0  0  0  0  0  0  0  0  0  0  0  0
  1  2  1  0  0  0  0
  2  3  1  0  0  0  0
  3  4  1  0  0  0  0
  4  5  1  0  0  0  0
  5  6  2  0  0  0  0
  6  1  1  0  0  0  0
  4  7  2  0  0  0  0
  2  8  2  0  0  0  0
  9  1  1  1  0  0  0
  9 10  1  0  0  0  0
 10 11  1  0  0  0  0
 11 12  1  0  0  0  0
 12 13  1  0  0  0  0
 13  9  1  0  0  0  0
 11 14  1  6  0  0  0
 12 15  1  1  0  0  0
 15 16  1  0  0  0  0
  3 17  1  0  0  0  0
M  END
>  <cdx:fragmentId>
443

$$$$
