391.cdx
  Mrv1902 05222410202D          

 19 18  0  0  0  0            999 V2000
    3.6438  -13.4564    0.0000 C   0  0  0  0  0  0  0  0  0  0  0  0
    2.9294  -13.8689    0.0000 C   0  0  0  0  0  0  0  0  0  0  0  0
    2.2149  -13.4564    0.0000 C   0  0  0  0  0  0  0  0  0  0  0  0
    3.6438  -12.6314    0.0000 O   0  0  0  0  0  0  0  0  0  0  0  0
    4.3583  -13.8689    0.0000 O   0  0  0  0  0  0  0  0  0  0  0  0
    1.5004  -13.8689    0.0000 O   0  0  0  0  0  0  0  0  0  0  0  0
    5.0728  -13.4564    0.0000 C   0  0  0  0  0  0  0  0  0  0  0  0
    5.7872  -13.8689    0.0000 C   0  0  0  0  0  0  0  0  0  0  0  0
    6.5017  -13.4564    0.0000 C   0  0  0  0  0  0  0  0  0  0  0  0
    7.2162  -13.8689    0.0000 C   0  0  0  0  0  0  0  0  0  0  0  0
    7.9306  -13.4564    0.0000 C   0  0  0  0  0  0  0  0  0  0  0  0
    8.6451  -13.8689    0.0000 C   0  0  0  0  0  0  0  0  0  0  0  0
    9.3596  -13.4564    0.0000 C   0  0  0  0  0  0  0  0  0  0  0  0
   10.0741  -13.8689    0.0000 C   0  0  0  0  0  0  0  0  0  0  0  0
   10.7885  -13.4564    0.0000 C   0  0  0  0  0  0  0  0  0  0  0  0
   11.5030  -13.8689    0.0000 C   0  0  0  0  0  0  0  0  0  0  0  0
   12.2175  -13.4564    0.0000 C   0  0  0  0  0  0  0  0  0  0  0  0
   12.9319  -13.8689    0.0000 C   0  0  0  0  0  0  0  0  0  0  0  0
   13.6464  -13.4564    0.0000 C   0  0  0  0  0  0  0  0  0  0  0  0
  1  2  1  0  0  0  0
  2  3  1  0  0  0  0
  1  4  2  0  0  0  0
  1  5  1  0  0  0  0
  3  6  1  0  0  0  0
  7  8  1  0  0  0  0
  8  9  1  0  0  0  0
  9 10  1  0  0  0  0
 10 11  1  0  0  0  0
 11 12  1  0  0  0  0
 12 13  1  0  0  0  0
 13 14  1  0  0  0  0
 14 15  1  0  0  0  0
 15 16  1  0  0  0  0
 16 17  1  0  0  0  0
 17 18  1  0  0  0  0
 18 19  1  0  0  0  0
  5  7  1  0  0  0  0
M  END
>  <cdx:fragmentId>
7894

$$$$
