393.cdx
  Mrv1902 05222410192D          

 34 37  0  0  0  0            999 V2000
    7.7822  -11.4121    0.0000 C   0  0  0  0  0  0  0  0  0  0  0  0
    7.7822  -12.2371    0.0000 C   0  0  0  0  0  0  0  0  0  0  0  0
    7.0678  -12.6496    0.0000 C   0  0  0  0  0  0  0  0  0  0  0  0
    7.0678  -13.4746    0.0000 O   0  0  0  0  0  0  0  0  0  0  0  0
    6.3533  -12.2371    0.0000 C   0  0  0  0  0  0  0  0  0  0  0  0
    5.6388  -12.6496    0.0000 C   0  0  0  0  0  0  0  0  0  0  0  0
    5.6388  -13.4746    0.0000 O   0  0  0  0  0  0  0  0  0  0  0  0
    4.9244  -12.2371    0.0000 C   0  0  0  0  0  0  0  0  0  0  0  0
    4.9244  -11.4121    0.0000 C   0  0  0  0  0  0  0  0  0  0  0  0
    4.2099  -10.9996    0.0000 O   0  0  0  0  0  0  0  0  0  0  0  0
    5.6388  -10.9996    0.0000 C   0  0  0  0  0  0  0  0  0  0  0  0
    6.3533  -11.4121    0.0000 C   0  0  0  0  0  0  0  0  0  0  0  0
    7.0678  -10.9996    0.0000 O   0  0  0  0  0  0  0  0  0  0  0  0
    8.4967  -10.9996    0.0000 C   0  0  0  0  0  0  0  0  0  0  0  0
    9.2112  -11.4121    0.0000 C   0  0  0  0  0  0  0  0  0  0  0  0
    9.9256  -10.9996    0.0000 C   0  0  0  0  0  0  0  0  0  0  0  0
   10.6401  -11.4121    0.0000 O   0  0  0  0  0  0  0  0  0  0  0  0
    9.9256  -10.1746    0.0000 C   0  0  0  0  0  0  0  0  0  0  0  0
   10.6401   -9.7621    0.0000 O   0  0  0  0  0  0  0  0  0  0  0  0
    9.2112   -9.7621    0.0000 C   0  0  0  0  0  0  0  0  0  0  0  0
    8.4967  -10.1746    0.0000 C   0  0  0  0  0  0  0  0  0  0  0  0
    8.4967  -12.6496    0.0000 O   0  0  0  0  0  0  0  0  0  0  0  0
    8.4967  -13.4746    0.0000 C   0  0  0  0  0  0  0  0  0  0  0  0
    9.1641  -13.9595    0.0000 C   0  0  2  0  0  0  0  0  0  0  0  0
    9.9488  -13.7046    0.0000 O   0  0  0  0  0  0  0  0  0  0  0  0
    8.9092  -14.7441    0.0000 C   0  0  1  0  0  0  0  0  0  0  0  0
    9.3941  -15.4115    0.0000 O   0  0  0  0  0  0  0  0  0  0  0  0
    8.0842  -14.7441    0.0000 C   0  0  2  0  0  0  0  0  0  0  0  0
    7.8293  -13.9595    0.0000 O   0  0  0  0  0  0  0  0  0  0  0  0
    7.5993  -15.4115    0.0000 C   0  0  0  0  0  0  0  0  0  0  0  0
    6.7788  -15.3253    0.0000 O   0  0  0  0  0  0  0  0  0  0  0  0
    9.0586  -16.1652    0.0000 C   0  0  0  0  0  0  0  0  0  0  0  0
    8.2381  -16.2515    0.0000 O   0  0  0  0  0  0  0  0  0  0  0  0
    9.5435  -16.8327    0.0000 C   0  0  0  0  0  0  0  0  0  0  0  0
  1  2  2  0  0  0  0
  2  3  1  0  0  0  0
  3  4  2  0  0  0  0
  3  5  1  0  0  0  0
  5  6  1  0  0  0  0
  6  7  1  0  0  0  0
  6  8  2  0  0  0  0
  8  9  1  0  0  0  0
  9 10  1  0  0  0  0
  9 11  2  0  0  0  0
 11 12  1  0  0  0  0
  5 12  2  0  0  0  0
 12 13  1  0  0  0  0
  1 13  1  0  0  0  0
  1 14  1  0  0  0  0
 14 15  1  0  0  0  0
 15 16  2  0  0  0  0
 16 17  1  0  0  0  0
 16 18  1  0  0  0  0
 18 19  1  0  0  0  0
 18 20  2  0  0  0  0
 20 21  1  0  0  0  0
 14 21  2  0  0  0  0
 22 23  1  0  0  0  0
 23 24  1  0  0  0  0
 24 25  1  6  0  0  0
 24 26  1  0  0  0  0
 26 27  1  1  0  0  0
 26 28  1  0  0  0  0
 28 29  1  0  0  0  0
 28 30  1  1  0  0  0
 30 31  1  0  0  0  0
 23 29  1  0  0  0  0
 32 33  2  0  0  0  0
 32 34  1  0  0  0  0
 27 32  1  0  0  0  0
  2 22  1  0  0  0  0
M  END
>  <cdx:fragmentId>
7997

$$$$
