37897.cdx
  Mrv1902 05222410182D          

 22 23  0  0  0  0            999 V2000
    7.9133   -6.7727    0.0000 O   0  0  0  0  0  0  0  0  0  0  0  0
    7.1988   -7.1852    0.0000 C   0  0  1  0  0  0  0  0  0  0  0  0
    7.1988   -8.0102    0.0000 C   0  0  2  0  0  0  0  0  0  0  0  0
    7.9133   -8.4227    0.0000 O   0  0  0  0  0  0  0  0  0  0  0  0
    6.4843   -8.4227    0.0000 C   0  0  1  0  0  0  0  0  0  0  0  0
    6.4843   -9.2477    0.0000 O   0  0  0  0  0  0  0  0  0  0  0  0
    5.7699   -8.0102    0.0000 C   0  0  2  0  0  0  0  0  0  0  0  0
    5.0554   -8.4227    0.0000 O   0  0  0  0  0  0  0  0  0  0  0  0
    5.7699   -7.1852    0.0000 C   0  0  2  0  0  0  0  0  0  0  0  0
    6.4843   -6.7727    0.0000 O   0  0  0  0  0  0  0  0  0  0  0  0
    5.0554   -6.7727    0.0000 C   0  0  0  0  0  0  0  0  0  0  0  0
    4.3409   -7.1852    0.0000 O   0  0  0  0  0  0  0  0  0  0  0  0
    8.6277   -7.1852    0.0000 C   0  0  0  0  0  0  0  0  0  0  0  0
    9.3814   -6.8497    0.0000 C   0  0  0  0  0  0  0  0  0  0  0  0
    9.9334   -7.4628    0.0000 C   0  0  0  0  0  0  0  0  0  0  0  0
    9.5209   -8.1772    0.0000 C   0  0  0  0  0  0  0  0  0  0  0  0
    8.7140   -8.0057    0.0000 C   0  0  0  0  0  0  0  0  0  0  0  0
    9.8565   -8.9309    0.0000 C   0  0  0  0  0  0  0  0  0  0  0  0
   10.7539   -7.3765    0.0000 C   0  0  0  0  0  0  0  0  0  0  0  0
    9.5529   -6.0427    0.0000 C   0  0  0  0  0  0  0  0  0  0  0  0
   10.3376   -5.7878    0.0000 C   0  0  0  0  0  0  0  0  0  0  0  0
   10.5091   -4.9808    0.0000 O   0  0  0  0  0  0  0  0  0  0  0  0
  2  1  1  1  0  0  0
  2  3  1  0  0  0  0
  3  4  1  6  0  0  0
  3  5  1  0  0  0  0
  5  6  1  1  0  0  0
  5  7  1  0  0  0  0
  7  8  1  6  0  0  0
  7  9  1  0  0  0  0
  9 10  1  0  0  0  0
  9 11  1  1  0  0  0
 11 12  1  0  0  0  0
  2 10  1  0  0  0  0
 13 14  1  0  0  0  0
 14 15  1  0  0  0  0
 15 16  2  0  0  0  0
 16 17  1  0  0  0  0
 13 17  1  0  0  0  0
 16 18  1  0  0  0  0
 15 19  1  0  0  0  0
 20 21  1  0  0  0  0
 21 22  1  0  0  0  0
 14 20  1  0  0  0  0
  1 13  1  0  0  0  0
M  END
>  <cdx:fragmentId>
291

$$$$
