37895.cdx
  Mrv1902 05222410182D          

 27 28  0  0  0  0            999 V2000
    1.6762   -7.9173    0.0000 O   0  0  0  0  0  0  0  0  0  0  0  0
    0.9617   -6.6798    0.0000 C   0  0  0  0  0  0  0  0  0  0  0  0
    1.6762   -6.2673    0.0000 O   0  0  0  0  0  0  0  0  0  0  0  0
    3.8196   -7.5048    0.0000 C   0  0  0  0  0  0  0  0  0  0  0  0
    3.1051   -7.9173    0.0000 C   0  0  0  0  0  0  0  0  0  0  0  0
    2.3906   -7.5048    0.0000 C   0  0  0  0  0  0  0  0  0  0  0  0
    2.3906   -6.6798    0.0000 C   0  0  0  0  0  0  0  0  0  0  0  0
    3.1051   -6.2673    0.0000 C   0  0  0  0  0  0  0  0  0  0  0  0
    3.8196   -6.6798    0.0000 C   0  0  0  0  0  0  0  0  0  0  0  0
    6.6755   -6.7546    0.0000 C   0  0  0  0  0  0  0  0  0  0  0  0
    5.9836   -5.4803    0.0000 O   0  0  0  0  0  0  0  0  0  0  0  0
    5.9836   -6.3053    0.0000 C   0  0  0  0  0  0  0  0  0  0  0  0
    5.2485   -6.6798    0.0000 C   0  0  0  0  0  0  0  0  0  0  0  0
    4.5340   -6.2673    0.0000 C   0  0  0  0  0  0  0  0  0  0  0  0
    6.9508   -7.5323    0.0000 C   0  0  0  0  0  0  0  0  0  0  0  0
    7.7756   -7.5108    0.0000 C   0  0  0  0  0  0  0  0  0  0  0  0
    8.0099   -6.7197    0.0000 C   0  0  0  0  0  0  0  0  0  0  0  0
    7.3300   -6.2524    0.0000 O   0  0  0  0  0  0  0  0  0  0  0  0
    8.7244   -6.3072    0.0000 C   0  0  0  0  0  0  0  0  0  0  0  0
    9.4389   -6.7197    0.0000 C   0  0  0  0  0  0  0  0  0  0  0  0
   10.1533   -6.3072    0.0000 C   0  0  0  0  0  0  0  0  0  0  0  0
   10.8678   -6.7197    0.0000 C   0  0  0  0  0  0  0  0  0  0  0  0
   11.5823   -6.3072    0.0000 C   0  0  0  0  0  0  0  0  0  0  0  0
   12.2967   -6.7197    0.0000 C   0  0  0  0  0  0  0  0  0  0  0  0
   13.0112   -6.3072    0.0000 C   0  0  0  0  0  0  0  0  0  0  0  0
   13.7257   -6.7197    0.0000 C   0  0  0  0  0  0  0  0  0  0  0  0
   14.4402   -6.3072    0.0000 C   0  0  0  0  0  0  0  0  0  0  0  0
 14  9  1  0  0  0  0
  6  1  1  0  0  0  0
  7  3  1  0  0  0  0
  3  2  1  0  0  0  0
  9  4  2  0  0  0  0
  5  4  1  0  0  0  0
  6  5  2  0  0  0  0
  7  6  1  0  0  0  0
  8  7  2  0  0  0  0
  9  8  1  0  0  0  0
 12 10  1  0  0  0  0
 12 11  2  0  0  0  0
 13 12  1  0  0  0  0
 14 13  1  0  0  0  0
 10 15  2  0  0  0  0
 15 16  1  0  0  0  0
 16 17  2  0  0  0  0
 17 18  1  0  0  0  0
 18 10  1  0  0  0  0
 17 19  1  0  0  0  0
 19 20  1  0  0  0  0
 20 21  1  0  0  0  0
 21 22  1  0  0  0  0
 22 23  1  0  0  0  0
 23 24  1  0  0  0  0
 24 25  1  0  0  0  0
 25 26  1  0  0  0  0
 26 27  1  0  0  0  0
M  END
>  <cdx:fragmentId>
104

$$$$
