399.cdx
  Mrv1902 05222410282D          

 19 20  0  0  0  0            999 V2000
    5.8511   -6.9080    0.0000 C   0  0  0  0  0  0  0  0  0  0  0  0
    5.1366   -7.3205    0.0000 C   0  0  0  0  0  0  0  0  0  0  0  0
    5.1366   -8.1455    0.0000 C   0  0  0  0  0  0  0  0  0  0  0  0
    4.4221   -8.5580    0.0000 C   0  0  0  0  0  0  0  0  0  0  0  0
    3.7077   -8.1455    0.0000 C   0  0  0  0  0  0  0  0  0  0  0  0
    3.7077   -7.3205    0.0000 C   0  0  0  0  0  0  0  0  0  0  0  0
    4.4221   -6.9080    0.0000 C   0  0  0  0  0  0  0  0  0  0  0  0
    5.8511   -6.0830    0.0000 O   0  0  0  0  0  0  0  0  0  0  0  0
    6.5656   -7.3205    0.0000 N   0  0  0  0  0  0  0  0  0  0  0  0
    7.2800   -6.9080    0.0000 C   0  0  0  0  0  0  0  0  0  0  0  0
    7.9945   -7.3205    0.0000 C   0  0  0  0  0  0  0  0  0  0  0  0
    8.7090   -6.9080    0.0000 C   0  0  0  0  0  0  0  0  0  0  0  0
    8.7090   -6.0830    0.0000 C   0  0  0  0  0  0  0  0  0  0  0  0
    9.4234   -5.6705    0.0000 C   0  0  0  0  0  0  0  0  0  0  0  0
   10.1379   -6.0830    0.0000 C   0  0  0  0  0  0  0  0  0  0  0  0
   10.1379   -6.9080    0.0000 C   0  0  0  0  0  0  0  0  0  0  0  0
    9.4234   -7.3205    0.0000 C   0  0  0  0  0  0  0  0  0  0  0  0
   10.8524   -5.6705    0.0000 O   0  0  0  0  0  0  0  0  0  0  0  0
    5.8511   -8.5580    0.0000 O   0  0  0  0  0  0  0  0  0  0  0  0
  1  2  1  0  0  0  0
  2  3  1  0  0  0  0
  3  4  2  0  0  0  0
  4  5  1  0  0  0  0
  5  6  2  0  0  0  0
  6  7  1  0  0  0  0
  2  7  2  0  0  0  0
  1  8  2  0  0  0  0
 10 11  1  0  0  0  0
 12 13  1  0  0  0  0
 13 14  2  0  0  0  0
 14 15  1  0  0  0  0
 15 16  2  0  0  0  0
 16 17  1  0  0  0  0
 12 17  2  0  0  0  0
 15 18  1  0  0  0  0
 11 12  1  0  0  0  0
  9 10  1  0  0  0  0
  1  9  1  0  0  0  0
  3 19  1  0  0  0  0
M  END
>  <cdx:fragmentId>
459

$$$$
