379.cdx
  Mrv1902 05222410242D          

 17 17  0  0  0  0            999 V2000
    5.4659   -8.6084    0.0000 C   0  0  0  0  0  0  0  0  0  0  0  0
    5.4659   -9.4334    0.0000 C   0  0  1  0  0  0  0  0  0  0  0  0
    6.1804   -9.8459    0.0000 C   0  0  0  0  0  0  0  0  0  0  0  0
    6.8949   -9.4334    0.0000 C   0  0  1  0  0  0  0  0  0  0  0  0
    6.8949   -8.6084    0.0000 C   0  0  0  0  0  0  0  0  0  0  0  0
    6.1804   -8.1959    0.0000 C   0  0  2  0  0  0  0  0  0  0  0  0
    7.6093   -8.1959    0.0000 C   0  0  1  0  0  0  0  0  0  0  0  0
    8.3238   -7.7834    0.0000 C   0  0  0  0  0  0  0  0  0  0  0  0
    5.7679   -7.4814    0.0000 C   0  0  0  0  0  0  0  0  0  0  0  0
    7.6093   -9.0209    0.0000 C   0  0  0  0  0  0  0  0  0  0  0  0
    4.7514   -9.8459    0.0000 O   0  0  0  0  0  0  0  0  0  0  0  0
    6.5929   -7.4814    0.0000 C   0  0  0  0  0  0  0  0  0  0  0  0
    7.6093   -9.8459    0.0000 O   0  0  0  0  0  0  0  0  0  0  0  0
    8.3238   -6.9584    0.0000 C   0  0  0  0  0  0  0  0  0  0  0  0
    9.0383   -8.1959    0.0000 H   0  0  0  0  0  0  0  0  0  0  0  0
    7.6093   -6.5459    0.0000 O   0  0  0  0  0  0  0  0  0  0  0  0
    9.0383   -6.5459    0.0000 C   0  0  0  0  0  0  0  0  0  0  0  0
  1  2  1  0  0  0  0
  2  3  1  0  0  0  0
  3  4  1  0  0  0  0
  4  5  1  0  0  0  0
  5  6  1  0  0  0  0
  6  1  1  0  0  0  0
  5  7  2  0  0  0  0
  7  8  2  0  0  0  0
  6  9  1  1  0  0  0
  4 10  1  1  0  0  0
  2 11  1  1  0  0  0
  6 12  1  6  0  0  0
  4 13  1  6  0  0  0
  8 14  1  1  0  0  0
  8 15  1  6  0  0  0
 14 16  2  0  0  0  0
 14 17  1  0  0  0  0
M  END
>  <cdx:fragmentId>
61

$$$$
