400.cdx
  Mrv1902 05222410272D          

  9  8  0  0  0  0            999 V2000
    9.9256   -7.3443    0.0000 C   0  0  0  0  0  0  0  0  0  0  0  0
    9.2112   -6.9318    0.0000 C   0  0  0  0  0  0  0  0  0  0  0  0
    8.4967   -7.3443    0.0000 C   0  0  0  0  0  0  0  0  0  0  0  0
    7.7822   -7.7568    0.0000 C   0  0  0  0  0  0  0  0  0  0  0  0
    7.0678   -7.3443    0.0000 C   0  0  0  0  0  0  0  0  0  0  0  0
    6.3533   -7.7568    0.0000 C   0  0  0  0  0  0  0  0  0  0  0  0
    5.6388   -7.3443    0.0000 C   0  0  0  0  0  0  0  0  0  0  0  0
    4.9244   -7.7568    0.0000 C   0  0  0  0  0  0  0  0  0  0  0  0
    7.0678   -6.5193    0.0000 O   0  0  0  0  0  0  0  0  0  0  0  0
  1  2  1  0  0  0  0
  2  3  2  0  0  0  0
  3  4  2  0  0  0  0
  4  5  1  0  0  0  0
  5  6  1  0  0  0  0
  6  7  1  0  0  0  0
  7  8  1  0  0  0  0
  5  9  2  0  0  0  0
M  END
>  <cdx:fragmentId>
634

$$$$
