379033.cdx
  Mrv1902 05222410252D          

 24 26  0  0  0  0            999 V2000
   10.2329   -7.1864    0.0000 C   0  0  0  0  0  0  0  0  0  0  0  0
    9.8204   -7.9009    0.0000 C   0  0  0  0  0  0  0  0  0  0  0  0
    8.9954   -7.9009    0.0000 C   0  0  0  0  0  0  0  0  0  0  0  0
    8.5829   -7.1864    0.0000 C   0  0  0  0  0  0  0  0  0  0  0  0
    8.9954   -6.4719    0.0000 C   0  0  0  0  0  0  0  0  0  0  0  0
    9.8204   -6.4719    0.0000 C   0  0  0  0  0  0  0  0  0  0  0  0
   11.0579   -7.1864    0.0000 O   0  0  0  0  0  0  0  0  0  0  0  0
   10.2329   -8.6154    0.0000 O   0  0  0  0  0  0  0  0  0  0  0  0
   11.0579   -8.6154    0.0000 C   0  0  0  0  0  0  0  0  0  0  0  0
    7.2730   -7.8539    0.0000 O   0  0  0  0  0  0  0  0  0  0  0  0
    7.7579   -7.1864    0.0000 C   0  0  1  0  0  0  0  0  0  0  0  0
    7.2730   -6.5190    0.0000 C   0  0  2  0  0  0  0  0  0  0  0  0
    6.4884   -6.7739    0.0000 C   0  0  0  0  0  0  0  0  0  0  0  0
    6.4884   -7.5989    0.0000 C   0  0  0  0  0  0  0  0  0  0  0  0
    5.7739   -6.3614    0.0000 C   0  0  0  0  0  0  0  0  0  0  0  0
    5.0594   -6.7739    0.0000 C   0  0  0  0  0  0  0  0  0  0  0  0
    5.0594   -7.5989    0.0000 C   0  0  0  0  0  0  0  0  0  0  0  0
    5.7739   -8.0114    0.0000 C   0  0  0  0  0  0  0  0  0  0  0  0
    4.3450   -6.3614    0.0000 C   0  0  0  0  0  0  0  0  0  0  0  0
    3.6305   -6.7739    0.0000 C   0  0  0  0  0  0  0  0  0  0  0  0
    2.9160   -6.3614    0.0000 C   0  0  0  0  0  0  0  0  0  0  0  0
    7.5279   -5.7344    0.0000 C   0  0  0  0  0  0  0  0  0  0  0  0
    5.7739   -8.8364    0.0000 O   0  0  0  0  0  0  0  0  0  0  0  0
    5.0594   -9.2489    0.0000 C   0  0  0  0  0  0  0  0  0  0  0  0
  1  2  1  0  0  0  0
  2  3  2  0  0  0  0
  3  4  1  0  0  0  0
  4  5  2  0  0  0  0
  5  6  1  0  0  0  0
  1  6  2  0  0  0  0
  1  7  1  0  0  0  0
  8  9  1  0  0  0  0
  2  8  1  0  0  0  0
 10 11  1  0  0  0  0
 11 12  1  0  0  0  0
 12 13  1  0  0  0  0
 13 14  1  0  0  0  0
 10 14  1  0  0  0  0
 15 16  1  0  0  0  0
 16 17  2  0  0  0  0
 17 18  1  0  0  0  0
 18 14  2  0  0  0  0
 15 13  2  0  0  0  0
 19 20  2  0  0  0  0
 20 21  1  0  0  0  0
 16 19  1  0  0  0  0
 12 22  1  6  0  0  0
 23 24  1  0  0  0  0
 18 23  1  0  0  0  0
 11  4  1  1  0  0  0
M  END
>  <cdx:fragmentId>
32835

$$$$
