380.cdx
  Mrv1902 05222410262D          

 16 16  0  0  0  0            999 V2000
    5.4580   -8.8661    0.0000 C   0  0  0  0  0  0  0  0  0  0  0  0
    5.4580   -9.6911    0.0000 C   0  0  0  0  0  0  0  0  0  0  0  0
    6.1725  -10.1036    0.0000 C   0  0  0  0  0  0  0  0  0  0  0  0
    6.8870   -9.6911    0.0000 C   0  0  0  0  0  0  0  0  0  0  0  0
    6.8870   -8.8661    0.0000 C   0  0  1  0  0  0  0  0  0  0  0  0
    6.1725   -8.4536    0.0000 C   0  0  2  0  0  0  0  0  0  0  0  0
    4.7435  -10.1036    0.0000 O   0  0  0  0  0  0  0  0  0  0  0  0
    7.6014  -10.1036    0.0000 C   0  0  0  0  0  0  0  0  0  0  0  0
    5.7600   -7.7391    0.0000 C   0  0  0  0  0  0  0  0  0  0  0  0
    7.6014   -8.4536    0.0000 C   0  0  0  0  0  0  0  0  0  0  0  0
    6.5850   -7.7391    0.0000 C   0  0  0  0  0  0  0  0  0  0  0  0
    6.9076   -8.2267    0.0000 O   0  0  0  0  0  0  0  0  0  0  0  0
    8.3159   -8.8661    0.0000 C   0  0  0  0  0  0  0  0  0  0  0  0
    9.0304   -8.4536    0.0000 C   0  0  0  0  0  0  0  0  0  0  0  0
    9.7448   -8.8661    0.0000 C   0  0  0  0  0  0  0  0  0  0  0  0
    9.0304   -7.6286    0.0000 O   0  0  0  0  0  0  0  0  0  0  0  0
  1  2  1  0  0  0  0
  2  3  1  0  0  0  0
  3  4  2  0  0  0  0
  4  5  1  0  0  0  0
  5  6  1  0  0  0  0
  6  1  1  0  0  0  0
  2  7  2  0  0  0  0
  4  8  1  0  0  0  0
  6  9  1  1  0  0  0
  5 10  1  1  0  0  0
  6 11  1  6  0  0  0
  5 12  1  6  0  0  0
 10 13  2  0  0  0  0
 13 14  1  0  0  0  0
 14 15  1  0  0  0  0
 14 16  2  0  0  0  0
M  END
>  <cdx:fragmentId>
5

$$$$
