38001.cdx
  Mrv1902 05222410272D          

 22 23  0  0  0  0            999 V2000
    9.2985   -7.1160    0.0000 C   0  0  0  0  0  0  0  0  0  0  0  0
    8.5840   -7.5285    0.0000 C   0  0  0  0  0  0  0  0  0  0  0  0
    8.5839   -8.3535    0.0000 C   0  0  0  0  0  0  0  0  0  0  0  0
    9.2984   -8.7660    0.0000 C   0  0  0  0  0  0  0  0  0  0  0  0
   10.0129   -8.3536    0.0000 C   0  0  0  0  0  0  0  0  0  0  0  0
   10.0129   -7.5286    0.0000 C   0  0  0  0  0  0  0  0  0  0  0  0
    9.2983   -9.5910    0.0000 O   0  0  0  0  0  0  0  0  0  0  0  0
    7.8695   -7.1160    0.0000 C   0  0  0  0  0  0  0  0  0  0  0  0
    7.1550   -7.5284    0.0000 C   0  0  0  0  0  0  0  0  0  0  0  0
    7.8696   -6.2910    0.0000 C   0  0  0  0  0  0  0  0  0  0  0  0
    8.5840   -5.8785    0.0000 C   0  0  0  0  0  0  0  0  0  0  0  0
    6.4406   -7.1159    0.0000 C   0  0  0  0  0  0  0  0  0  0  0  0
    5.7261   -7.5284    0.0000 C   0  0  0  0  0  0  0  0  0  0  0  0
    5.7260   -8.3534    0.0000 C   0  0  0  0  0  0  0  0  0  0  0  0
    6.4405   -8.7659    0.0000 C   0  0  0  0  0  0  0  0  0  0  0  0
    7.1550   -8.3534    0.0000 C   0  0  0  0  0  0  0  0  0  0  0  0
    6.4406   -6.2909    0.0000 O   0  0  0  0  0  0  0  0  0  0  0  0
    5.0115   -8.7658    0.0000 O   0  0  0  0  0  0  0  0  0  0  0  0
    6.4404   -9.5909    0.0000 O   0  0  0  0  0  0  0  0  0  0  0  0
    5.7262   -5.8784    0.0000 C   0  0  0  0  0  0  0  0  0  0  0  0
    4.2971   -8.3533    0.0000 C   0  0  0  0  0  0  0  0  0  0  0  0
    5.7260  -10.0034    0.0000 C   0  0  0  0  0  0  0  0  0  0  0  0
  1  2  2  0  0  0  0
  2  3  1  0  0  0  0
  3  4  2  0  0  0  0
  4  5  1  0  0  0  0
  5  6  2  0  0  0  0
  6  1  1  0  0  0  0
  4  7  1  0  0  0  0
  2  8  1  0  0  0  0
  8  9  1  0  0  0  0
  8 10  1  0  0  0  0
 10 11  2  0  0  0  0
  9 12  2  0  0  0  0
 12 13  1  0  0  0  0
 13 14  2  0  0  0  0
 14 15  1  0  0  0  0
 15 16  2  0  0  0  0
 16  9  1  0  0  0  0
 12 17  1  0  0  0  0
 14 18  1  0  0  0  0
 15 19  1  0  0  0  0
 17 20  1  0  0  0  0
 18 21  1  0  0  0  0
 19 22  1  0  0  0  0
M  END
>  <cdx:fragmentId>
5

$$$$
