38009.cdx
  Mrv1902 05222410192D          

 25 26  0  0  0  0            999 V2000
    4.2764   -7.2017    0.0000 C   0  0  0  0  0  0  0  0  0  0  0  0
    4.7488   -7.8781    0.0000 C   0  0  0  0  0  0  0  0  0  0  0  0
    5.5380   -7.6378    0.0000 N   0  0  0  0  0  0  0  0  0  0  0  0
    5.5535   -6.8130    0.0000 C   0  0  1  0  0  0  0  0  0  0  0  0
    4.7738   -6.5434    0.0000 C   0  0  2  0  0  0  0  0  0  0  0  0
    6.3178   -7.9074    0.0000 C   0  0  0  0  0  0  0  0  0  0  0  0
    6.8151   -7.2492    0.0000 C   0  0  0  0  0  0  0  0  0  0  0  0
    6.3427   -6.5728    0.0000 C   0  0  0  0  0  0  0  0  0  0  0  0
    6.6123   -5.7931    0.0000 C   0  0  0  0  0  0  0  0  0  0  0  0
    7.4373   -5.7931    0.0000 O   0  0  0  0  0  0  0  0  0  0  0  0
    7.8498   -5.0786    0.0000 C   0  0  0  0  0  0  0  0  0  0  0  0
    8.6748   -5.0786    0.0000 C   0  0  0  0  0  0  0  0  0  0  0  0
    7.4373   -4.3641    0.0000 O   0  0  0  0  0  0  0  0  0  0  0  0
    9.4998   -5.0786    0.0000 C   0  0  1  0  0  0  0  0  0  0  0  0
    8.6748   -4.2536    0.0000 C   0  0  0  0  0  0  0  0  0  0  0  0
    9.3893   -3.8411    0.0000 C   0  0  0  0  0  0  0  0  0  0  0  0
    7.9603   -3.8411    0.0000 C   0  0  0  0  0  0  0  0  0  0  0  0
    4.5602   -5.7465    0.0000 O   0  0  0  0  0  0  0  0  0  0  0  0
    8.6748   -5.9036    0.0000 O   0  0  0  0  0  0  0  0  0  0  0  0
    9.9123   -4.3641    0.0000 O   0  0  0  0  0  0  0  0  0  0  0  0
    5.5689   -5.9881    0.0000 H   0  0  0  0  0  0  0  0  0  0  0  0
    9.9123   -5.7931    0.0000 C   0  0  0  0  0  0  0  0  0  0  0  0
    3.7634   -5.5330    0.0000 C   0  0  0  0  0  0  0  0  0  0  0  0
    3.5498   -4.7361    0.0000 C   0  0  0  0  0  0  0  0  0  0  0  0
    3.1800   -6.1164    0.0000 O   0  0  0  0  0  0  0  0  0  0  0  0
  1  2  1  0  0  0  0
  2  3  1  0  0  0  0
  3  4  1  0  0  0  0
  4  5  1  0  0  0  0
  5  1  1  0  0  0  0
  3  6  1  0  0  0  0
  6  7  1  0  0  0  0
  7  8  2  0  0  0  0
  8  4  1  0  0  0  0
  8  9  1  0  0  0  0
  9 10  1  0  0  0  0
 10 11  1  0  0  0  0
 11 12  1  0  0  0  0
 11 13  2  0  0  0  0
 12 14  1  0  0  0  0
 12 15  1  0  0  0  0
 15 16  1  0  0  0  0
 15 17  1  0  0  0  0
  5 18  1  1  0  0  0
 12 19  1  1  0  0  0
 14 20  1  1  0  0  0
  4 21  1  6  0  0  0
 14 22  1  0  0  0  0
 18 23  1  0  0  0  0
 23 24  1  0  0  0  0
 23 25  2  0  0  0  0
M  END
>  <cdx:fragmentId>
6

$$$$
