66846.cdx
  Mrv1902 05222410272D          

 16 16  0  0  0  0            999 V2000
    5.8172   -7.7566    0.0000 C   0  0  0  0  0  0  0  0  0  0  0  0
    6.5368   -8.1600    0.0000 C   0  0  0  0  0  0  0  0  0  0  0  0
    7.2460   -7.7385    0.0000 C   0  0  0  0  0  0  0  0  0  0  0  0
    7.2356   -6.9136    0.0000 C   0  0  0  0  0  0  0  0  0  0  0  0
    6.5159   -6.5102    0.0000 C   0  0  0  0  0  0  0  0  0  0  0  0
    5.8067   -6.9317    0.0000 C   0  0  0  0  0  0  0  0  0  0  0  0
    6.5055   -5.6852    0.0000 C   0  0  0  0  0  0  0  0  0  0  0  0
    7.2147   -5.2637    0.0000 C   0  0  0  0  0  0  0  0  0  0  0  0
    7.9343   -5.6672    0.0000 C   0  0  0  0  0  0  0  0  0  0  0  0
    8.6435   -5.2456    0.0000 O   0  0  0  0  0  0  0  0  0  0  0  0
    7.9448   -6.4921    0.0000 O   0  0  0  0  0  0  0  0  0  0  0  0
    9.3631   -5.6491    0.0000 C   0  0  0  0  0  0  0  0  0  0  0  0
   10.0723   -5.2276    0.0000 C   0  0  0  0  0  0  0  0  0  0  0  0
    5.7859   -5.2818    0.0000 O   0  0  0  0  0  0  0  0  0  0  0  0
    5.7754   -4.4569    0.0000 C   0  0  0  0  0  0  0  0  0  0  0  0
    5.0558   -4.0534    0.0000 O   0  0  0  0  0  0  0  0  0  0  0  0
  1  2  2  0  0  0  0
  2  3  1  0  0  0  0
  3  4  2  0  0  0  0
  4  5  1  0  0  0  0
  5  6  2  0  0  0  0
  6  1  1  0  0  0  0
  5  7  1  0  0  0  0
  7  8  2  0  0  0  0
  8  9  1  0  0  0  0
  9 10  1  0  0  0  0
  9 11  2  0  0  0  0
 10 12  1  0  0  0  0
 12 13  1  0  0  0  0
  7 14  1  0  0  0  0
 14 15  1  0  0  0  0
 15 16  1  0  0  0  0
M  END
>  <cdx:fragmentId>
5

$$$$
