38017.cdx
  Mrv1902 05222410282D          

 14 14  0  0  0  0            999 V2000
    5.2506   -5.2740    0.0000 C   0  0  0  0  0  0  0  0  0  0  0  0
    5.2506   -6.0990    0.0000 C   0  0  0  0  0  0  0  0  0  0  0  0
    5.9651   -6.5115    0.0000 C   0  0  0  0  0  0  0  0  0  0  0  0
    6.6795   -6.0990    0.0000 C   0  0  0  0  0  0  0  0  0  0  0  0
    6.6795   -5.2740    0.0000 C   0  0  0  0  0  0  0  0  0  0  0  0
    5.9651   -4.8615    0.0000 C   0  0  0  0  0  0  0  0  0  0  0  0
    4.5361   -6.5115    0.0000 O   0  0  0  0  0  0  0  0  0  0  0  0
    5.9651   -7.3365    0.0000 O   0  0  0  0  0  0  0  0  0  0  0  0
    7.3940   -4.8615    0.0000 C   0  0  0  0  0  0  0  0  0  0  0  0
    8.1085   -5.2740    0.0000 C   0  0  0  0  0  0  0  0  0  0  0  0
    8.8229   -4.8615    0.0000 O   0  0  0  0  0  0  0  0  0  0  0  0
    9.5374   -5.2740    0.0000 C   0  0  0  0  0  0  0  0  0  0  0  0
   10.2519   -4.8615    0.0000 C   0  0  0  0  0  0  0  0  0  0  0  0
    9.5374   -6.0990    0.0000 O   0  0  0  0  0  0  0  0  0  0  0  0
  1  2  2  0  0  0  0
  2  3  1  0  0  0  0
  3  4  2  0  0  0  0
  4  5  1  0  0  0  0
  5  6  2  0  0  0  0
  6  1  1  0  0  0  0
  2  7  1  0  0  0  0
  3  8  1  0  0  0  0
  5  9  1  0  0  0  0
  9 10  1  0  0  0  0
 10 11  1  0  0  0  0
 11 12  1  0  0  0  0
 12 13  1  0  0  0  0
 12 14  2  0  0  0  0
M  END
>  <cdx:fragmentId>
92

$$$$
