38019.cdx
  Mrv1902 05222410192D          

 12 11  0  0  0  0            999 V2000
    0.8112   -3.3963    0.0000 C   0  0  0  0  0  0  0  0  0  0  0  0
    1.5257   -3.8087    0.0000 C   0  0  0  0  0  0  0  0  0  0  0  0
    2.2402   -3.3963    0.0000 C   0  0  0  0  0  0  0  0  0  0  0  0
    2.9547   -2.9837    0.0000 C   0  0  0  0  0  0  0  0  0  0  0  0
    3.6691   -2.5713    0.0000 C   0  0  0  0  0  0  0  0  0  0  0  0
    4.3836   -2.9837    0.0000 C   0  0  0  0  0  0  0  0  0  0  0  0
    5.0981   -2.5713    0.0000 C   0  0  0  0  0  0  0  0  0  0  0  0
    5.8125   -2.9837    0.0000 C   0  0  0  0  0  0  0  0  0  0  0  0
    6.5270   -2.5713    0.0000 C   0  0  0  0  0  0  0  0  0  0  0  0
    7.2415   -2.1587    0.0000 C   0  0  0  0  0  0  0  0  0  0  0  0
    7.9560   -1.7463    0.0000 C   0  0  0  0  0  0  0  0  0  0  0  0
    8.6704   -2.1587    0.0000 C   0  0  0  0  0  0  0  0  0  0  0  0
  1  2  1  0  0  0  0
  2  3  1  0  0  0  0
  3  4  3  0  0  0  0
  4  5  1  0  0  0  0
  5  6  1  0  0  0  0
  6  7  1  0  0  0  0
  7  8  1  0  0  0  0
  8  9  1  0  0  0  0
  9 10  3  0  0  0  0
 10 11  1  0  0  0  0
 11 12  1  0  0  0  0
M  END
>  <cdx:fragmentId>
6

$$$$
