38013.cdx
  Mrv1902 05222410262D          

 25 27  0  0  0  0            999 V2000
   11.3749   -6.5747    0.0000 C   0  0  0  0  0  0  0  0  0  0  0  0
   10.6638   -6.1565    0.0000 O   0  0  0  0  0  0  0  0  0  0  0  0
    9.2215   -7.7949    0.0000 C   0  0  0  0  0  0  0  0  0  0  0  0
    9.9393   -7.3882    0.0000 C   0  0  0  0  0  0  0  0  0  0  0  0
    9.9460   -6.5632    0.0000 C   0  0  0  0  0  0  0  0  0  0  0  0
    9.2349   -6.1449    0.0000 C   0  0  0  0  0  0  0  0  0  0  0  0
    8.5171   -6.5517    0.0000 C   0  0  0  0  0  0  0  0  0  0  0  0
    8.5104   -7.3766    0.0000 C   0  0  0  0  0  0  0  0  0  0  0  0
    7.7926   -7.7834    0.0000 C   0  0  0  0  0  0  0  0  0  0  0  0
    4.2437   -4.8671    0.0000 O   0  0  0  0  0  0  0  0  0  0  0  0
    4.9549   -5.2853    0.0000 C   0  0  0  0  0  0  0  0  0  0  0  0
    3.5193   -6.0988    0.0000 O   0  0  0  0  0  0  0  0  0  0  0  0
    3.5060   -7.7487    0.0000 C   0  0  0  0  0  0  0  0  0  0  0  0
    4.9282   -8.5852    0.0000 O   0  0  0  0  0  0  0  0  0  0  0  0
    6.3571   -8.5968    0.0000 O   0  0  0  0  0  0  0  0  0  0  0  0
    6.3638   -7.7718    0.0000 C   0  0  0  0  0  0  0  0  0  0  0  0
    7.0815   -7.3651    0.0000 C   0  0  0  0  0  0  0  0  0  0  0  0
    7.0882   -6.5401    0.0000 C   0  0  0  0  0  0  0  0  0  0  0  0
    6.3771   -6.1219    0.0000 O   0  0  0  0  0  0  0  0  0  0  0  0
    4.9349   -7.7603    0.0000 C   0  0  0  0  0  0  0  0  0  0  0  0
    5.6526   -7.3535    0.0000 C   0  0  0  0  0  0  0  0  0  0  0  0
    5.6593   -6.5286    0.0000 C   0  0  0  0  0  0  0  0  0  0  0  0
    4.9482   -6.1103    0.0000 C   0  0  0  0  0  0  0  0  0  0  0  0
    4.2304   -6.5170    0.0000 C   0  0  0  0  0  0  0  0  0  0  0  0
    4.2237   -7.3420    0.0000 C   0  0  0  0  0  0  0  0  0  0  0  0
  2  1  1  0  0  0  0
  5  2  1  0  0  0  0
  3  8  1  0  0  0  0
  4  3  2  0  0  0  0
  5  4  1  0  0  0  0
  6  5  2  0  0  0  0
  7  6  1  0  0  0  0
  8  7  2  0  0  0  0
  9  8  1  0  0  0  0
 17  9  1  1  0  0  0
 11 10  2  0  0  0  0
 23 11  1  0  0  0  0
 24 12  1  0  0  0  0
 25 13  1  0  0  0  0
 20 14  1  0  0  0  0
 16 15  2  0  0  0  0
 16 21  1  0  0  0  0
 17 16  1  0  0  0  0
 18 17  2  0  0  0  0
 19 18  1  0  0  0  0
 22 19  1  0  0  0  0
 20 25  1  0  0  0  0
 21 20  2  0  0  0  0
 22 21  1  0  0  0  0
 23 22  2  0  0  0  0
 24 23  1  0  0  0  0
 25 24  2  0  0  0  0
M  END
>  <cdx:fragmentId>
118

$$$$
