38026.cdx
  Mrv1902 05222410182D          

 21 24  0  0  0  0            999 V2000
    4.6589   -7.3760    0.0000 C   0  0  0  0  0  0  0  0  0  0  0  0
    4.6589   -8.2010    0.0000 C   0  0  0  0  0  0  0  0  0  0  0  0
    5.3734   -8.6135    0.0000 C   0  0  0  0  0  0  0  0  0  0  0  0
    6.0878   -8.2010    0.0000 C   0  0  0  0  0  0  0  0  0  0  0  0
    6.0878   -7.3760    0.0000 C   0  0  0  0  0  0  0  0  0  0  0  0
    5.3734   -6.9635    0.0000 C   0  0  0  0  0  0  0  0  0  0  0  0
    6.8023   -8.6135    0.0000 C   0  0  0  0  0  0  0  0  0  0  0  0
    7.5168   -8.2010    0.0000 C   0  0  0  0  0  0  0  0  0  0  0  0
    7.5168   -7.3760    0.0000 C   0  0  0  0  0  0  0  0  0  0  0  0
    6.8023   -6.9635    0.0000 C   0  0  0  0  0  0  0  0  0  0  0  0
    8.2313   -6.9635    0.0000 C   0  0  0  0  0  0  0  0  0  0  0  0
    8.2313   -6.1385    0.0000 C   0  0  0  0  0  0  0  0  0  0  0  0
    7.5168   -5.7260    0.0000 C   0  0  0  0  0  0  0  0  0  0  0  0
    6.8023   -6.1385    0.0000 C   0  0  0  0  0  0  0  0  0  0  0  0
    9.0159   -7.2184    0.0000 O   0  0  0  0  0  0  0  0  0  0  0  0
    9.5008   -6.5510    0.0000 C   0  0  0  0  0  0  0  0  0  0  0  0
    9.0159   -5.8835    0.0000 C   0  0  0  0  0  0  0  0  0  0  0  0
    7.5168   -4.9010    0.0000 O   0  0  0  0  0  0  0  0  0  0  0  0
    6.0878   -5.7260    0.0000 O   0  0  0  0  0  0  0  0  0  0  0  0
    9.2708   -5.0989    0.0000 C   0  0  0  0  0  0  0  0  0  0  0  0
    5.3734   -9.4385    0.0000 C   0  0  0  0  0  0  0  0  0  0  0  0
  1  2  1  0  0  0  0
  2  3  1  0  0  0  0
  3  4  1  0  0  0  0
  4  5  2  0  0  0  0
  5  6  1  0  0  0  0
  6  1  2  0  0  0  0
  4  7  1  0  0  0  0
  7  8  2  0  0  0  0
  8  9  1  0  0  0  0
  9 10  2  0  0  0  0
 10  5  1  0  0  0  0
  9 11  1  0  0  0  0
 11 12  2  0  0  0  0
 12 13  1  0  0  0  0
 13 14  1  0  0  0  0
 14 10  1  0  0  0  0
 11 15  1  0  0  0  0
 15 16  1  0  0  0  0
 16 17  2  0  0  0  0
 17 12  1  0  0  0  0
 13 18  2  0  0  0  0
 14 19  2  0  0  0  0
 17 20  1  0  0  0  0
  3 21  1  0  0  0  0
M  END
>  <cdx:fragmentId>
97

$$$$
