38022.cdx
  Mrv1902 05222410202D          

  7  6  0  0  0  0            999 V2000
    5.2437   -5.4043    0.0000 O   0  0  0  0  0  0  0  0  0  0  0  0
    5.9582   -4.9918    0.0000 C   0  0  0  0  0  0  0  0  0  0  0  0
    6.6726   -5.4043    0.0000 C   0  0  0  0  0  0  0  0  0  0  0  0
    7.3871   -4.9918    0.0000 C   0  0  0  0  0  0  0  0  0  0  0  0
    8.1016   -4.5793    0.0000 S   0  0  0  0  0  0  0  0  0  0  0  0
    7.7996   -5.7063    0.0000 C   0  0  0  0  0  0  0  0  0  0  0  0
    6.9746   -4.2774    0.0000 C   0  0  0  0  0  0  0  0  0  0  0  0
  1  2  1  0  0  0  0
  2  3  1  0  0  0  0
  3  4  1  0  0  0  0
  4  5  1  0  0  0  0
  4  6  1  0  0  0  0
  4  7  1  0  0  0  0
M  END
>  <cdx:fragmentId>
45

$$$$
