38023.cdx
  Mrv1902 05222410202D          

 11 10  0  0  0  0            999 V2000
    4.5831   -5.5928    0.0000 C   0  0  0  0  0  0  0  0  0  0  0  0
    5.2975   -6.0053    0.0000 C   0  0  0  0  0  0  0  0  0  0  0  0
    6.0120   -5.5928    0.0000 O   0  0  0  0  0  0  0  0  0  0  0  0
    5.2975   -6.8303    0.0000 O   0  0  0  0  0  0  0  0  0  0  0  0
    6.7265   -6.0053    0.0000 C   0  0  0  0  0  0  0  0  0  0  0  0
    7.4409   -5.5928    0.0000 C   0  0  0  0  0  0  0  0  0  0  0  0
    8.1554   -6.0053    0.0000 C   0  0  0  0  0  0  0  0  0  0  0  0
    8.8699   -5.5928    0.0000 C   0  0  0  0  0  0  0  0  0  0  0  0
    9.5844   -6.0053    0.0000 C   0  0  0  0  0  0  0  0  0  0  0  0
    8.8699   -4.7678    0.0000 C   0  0  0  0  0  0  0  0  0  0  0  0
    8.1554   -6.8303    0.0000 S   0  0  0  0  0  0  0  0  0  0  0  0
  1  2  1  0  0  0  0
  2  3  1  0  0  0  0
  2  4  2  0  0  0  0
  3  5  1  0  0  0  0
  5  6  1  0  0  0  0
  6  7  1  0  0  0  0
  7  8  1  0  0  0  0
  8  9  1  0  0  0  0
  8 10  1  0  0  0  0
  7 11  1  0  0  0  0
M  END
>  <cdx:fragmentId>
4

$$$$
