38028.cdx
  Mrv1902 05222410272D          

 27 29  0  0  0  0            999 V2000
    4.4005   -8.5800    0.0000 C   0  0  0  0  0  0  0  0  0  0  0  0
    4.4005   -7.7550    0.0000 C   0  0  0  0  0  0  0  0  0  0  0  0
    5.1150   -7.3425    0.0000 C   0  0  0  0  0  0  0  0  0  0  0  0
    5.8295   -7.7550    0.0000 C   0  0  0  0  0  0  0  0  0  0  0  0
    5.8295   -8.5800    0.0000 C   0  0  0  0  0  0  0  0  0  0  0  0
    5.1150   -8.9925    0.0000 C   0  0  0  0  0  0  0  0  0  0  0  0
    6.6141   -7.5001    0.0000 O   0  0  0  0  0  0  0  0  0  0  0  0
    7.0990   -8.1675    0.0000 C   0  0  0  0  0  0  0  0  0  0  0  0
    6.6141   -8.8349    0.0000 C   0  0  0  0  0  0  0  0  0  0  0  0
    5.1150   -9.8175    0.0000 C   0  0  0  0  0  0  0  0  0  0  0  0
    4.4005  -10.2300    0.0000 C   0  0  0  0  0  0  0  0  0  0  0  0
    4.4005  -11.0550    0.0000 C   0  0  0  0  0  0  0  0  0  0  0  0
    3.6861  -11.4675    0.0000 O   0  0  0  0  0  0  0  0  0  0  0  0
    5.1150  -11.4675    0.0000 O   0  0  0  0  0  0  0  0  0  0  0  0
    7.9240   -8.1675    0.0000 C   0  0  0  0  0  0  0  0  0  0  0  0
    8.3365   -8.8820    0.0000 C   0  0  0  0  0  0  0  0  0  0  0  0
    9.1615   -8.8820    0.0000 C   0  0  0  0  0  0  0  0  0  0  0  0
    9.5740   -8.1675    0.0000 C   0  0  0  0  0  0  0  0  0  0  0  0
    9.1615   -7.4530    0.0000 C   0  0  0  0  0  0  0  0  0  0  0  0
    8.3365   -7.4530    0.0000 C   0  0  0  0  0  0  0  0  0  0  0  0
   10.3990   -8.1675    0.0000 O   0  0  0  0  0  0  0  0  0  0  0  0
    9.5740   -9.5964    0.0000 O   0  0  0  0  0  0  0  0  0  0  0  0
    5.1150   -6.5175    0.0000 O   0  0  0  0  0  0  0  0  0  0  0  0
    6.8690   -9.6196    0.0000 C   0  0  0  0  0  0  0  0  0  0  0  0
    6.3170  -10.2327    0.0000 O   0  0  0  0  0  0  0  0  0  0  0  0
    7.6760   -9.7911    0.0000 O   0  0  0  0  0  0  0  0  0  0  0  0
    3.6861  -12.2925    0.0000 C   0  0  0  0  0  0  0  0  0  0  0  0
  1  2  2  0  0  0  0
  2  3  1  0  0  0  0
  3  4  2  0  0  0  0
  4  5  1  0  0  0  0
  5  6  2  0  0  0  0
  6  1  1  0  0  0  0
  4  7  1  0  0  0  0
  7  8  1  0  0  0  0
  8  9  1  0  0  0  0
  9  5  1  0  0  0  0
  6 10  1  0  0  0  0
 10 11  2  0  0  0  0
 11 12  1  0  0  0  0
 12 13  1  0  0  0  0
 12 14  2  0  0  0  0
  8 15  1  0  0  0  0
 15 16  2  0  0  0  0
 16 17  1  0  0  0  0
 17 18  2  0  0  0  0
 18 19  1  0  0  0  0
 19 20  2  0  0  0  0
 20 15  1  0  0  0  0
 18 21  1  0  0  0  0
 17 22  1  0  0  0  0
  3 23  1  0  0  0  0
  9 24  1  0  0  0  0
 24 25  2  0  0  0  0
 24 26  1  0  0  0  0
 13 27  1  0  0  0  0
M  END
>  <cdx:fragmentId>
152

$$$$
