38025.cdx
  Mrv1902 05222410192D          

 30 31  0  0  0  0            999 V2000
    5.8107   -5.9303    0.0000 C   0  0  0  0  0  0  0  0  0  0  0  0
    5.8107   -6.7553    0.0000 C   0  0  0  0  0  0  0  0  0  0  0  0
    6.5252   -7.1678    0.0000 C   0  0  0  0  0  0  0  0  0  0  0  0
    7.2396   -6.7553    0.0000 C   0  0  0  0  0  0  0  0  0  0  0  0
    7.2396   -5.9303    0.0000 C   0  0  0  0  0  0  0  0  0  0  0  0
    6.5252   -5.5178    0.0000 C   0  0  0  0  0  0  0  0  0  0  0  0
    6.5252   -4.6928    0.0000 C   0  0  0  0  0  0  0  0  0  0  0  0
    5.7002   -4.6928    0.0000 C   0  0  0  0  0  0  0  0  0  0  0  0
    7.3502   -4.6928    0.0000 C   0  0  0  0  0  0  0  0  0  0  0  0
    6.5325   -3.8678    0.0000 C   0  0  0  0  0  0  0  0  0  0  0  0
    5.0962   -7.1678    0.0000 C   0  0  0  0  0  0  0  0  0  0  0  0
    6.5252   -7.9928    0.0000 O   0  0  0  0  0  0  0  0  0  0  0  0
    7.9541   -7.1678    0.0000 C   0  0  0  0  0  0  0  0  0  0  0  0
    4.6837   -6.4533    0.0000 C   0  0  0  0  0  0  0  0  0  0  0  0
    4.3818   -7.5803    0.0000 C   0  0  0  0  0  0  0  0  0  0  0  0
    5.5087   -7.8822    0.0000 C   0  0  0  0  0  0  0  0  0  0  0  0
    7.9541   -7.9928    0.0000 C   0  0  0  0  0  0  0  0  0  0  0  0
    8.6686   -8.4053    0.0000 C   0  0  0  0  0  0  0  0  0  0  0  0
    9.3831   -7.9928    0.0000 C   0  0  0  0  0  0  0  0  0  0  0  0
    9.3831   -7.1678    0.0000 C   0  0  0  0  0  0  0  0  0  0  0  0
    8.6686   -6.7553    0.0000 C   0  0  0  0  0  0  0  0  0  0  0  0
    7.2396   -8.4053    0.0000 O   0  0  0  0  0  0  0  0  0  0  0  0
   10.0975   -6.7553    0.0000 C   0  0  0  0  0  0  0  0  0  0  0  0
    8.6686   -9.2303    0.0000 C   0  0  0  0  0  0  0  0  0  0  0  0
    9.6581   -9.2578    0.0000 C   0  0  0  0  0  0  0  0  0  0  0  0
    7.8436   -9.2303    0.0000 C   0  0  0  0  0  0  0  0  0  0  0  0
    8.6686  -10.0553    0.0000 C   0  0  0  0  0  0  0  0  0  0  0  0
    9.6850   -6.0408    0.0000 C   0  0  0  0  0  0  0  0  0  0  0  0
   10.8532   -6.3767    0.0000 C   0  0  0  0  0  0  0  0  0  0  0  0
   10.5100   -7.4697    0.0000 C   0  0  0  0  0  0  0  0  0  0  0  0
  1  2  2  0  0  0  0
  2  3  1  0  0  0  0
  3  4  2  0  0  0  0
  4  5  1  0  0  0  0
  5  6  2  0  0  0  0
  6  1  1  0  0  0  0
  6  7  1  0  0  0  0
  7  8  1  0  0  0  0
  7  9  1  0  0  0  0
  7 10  1  0  0  0  0
  2 11  1  0  0  0  0
  3 12  1  0  0  0  0
  4 13  1  0  0  0  0
 11 14  1  0  0  0  0
 11 15  1  0  0  0  0
 11 16  1  0  0  0  0
 13 17  2  0  0  0  0
 17 18  1  0  0  0  0
 18 19  2  0  0  0  0
 19 20  1  0  0  0  0
 20 21  2  0  0  0  0
 21 13  1  0  0  0  0
 17 22  1  0  0  0  0
 20 23  1  0  0  0  0
 18 24  1  0  0  0  0
 24 25  1  0  0  0  0
 24 26  1  0  0  0  0
 24 27  1  0  0  0  0
 23 28  1  0  0  0  0
 23 29  1  0  0  0  0
 23 30  1  0  0  0  0
M  END
>  <cdx:fragmentId>
387

$$$$
