38034.cdx
  Mrv1902 05222410192D          

 26 28  0  0  0  0            999 V2000
    2.5133   -5.2140    0.0000 O   0  0  0  0  0  0  0  0  0  0  0  0
    3.2277   -4.8015    0.0000 C   0  0  0  0  0  0  0  0  0  0  0  0
    3.9422   -5.2140    0.0000 C   0  0  0  0  0  0  0  0  0  0  0  0
    4.6567   -4.8015    0.0000 C   0  0  0  0  0  0  0  0  0  0  0  0
    5.3711   -5.2140    0.0000 C   0  0  0  0  0  0  0  0  0  0  0  0
    5.3711   -6.0390    0.0000 C   0  0  0  0  0  0  0  0  0  0  0  0
    6.0856   -6.4515    0.0000 C   0  0  0  0  0  0  0  0  0  0  0  0
    6.8001   -6.0390    0.0000 C   0  0  0  0  0  0  0  0  0  0  0  0
    6.8001   -5.2140    0.0000 C   0  0  0  0  0  0  0  0  0  0  0  0
    6.0856   -4.8015    0.0000 C   0  0  0  0  0  0  0  0  0  0  0  0
    7.5847   -6.2939    0.0000 O   0  0  0  0  0  0  0  0  0  0  0  0
    8.0696   -5.6265    0.0000 C   0  0  2  0  0  0  0  0  0  0  0  0
    7.5847   -4.9590    0.0000 C   0  0  2  0  0  0  0  0  0  0  0  0
    8.8946   -5.6265    0.0000 C   0  0  0  0  0  0  0  0  0  0  0  0
    9.3071   -6.3409    0.0000 C   0  0  0  0  0  0  0  0  0  0  0  0
   10.1321   -6.3409    0.0000 C   0  0  0  0  0  0  0  0  0  0  0  0
   10.5446   -5.6265    0.0000 C   0  0  0  0  0  0  0  0  0  0  0  0
   10.1321   -4.9120    0.0000 C   0  0  0  0  0  0  0  0  0  0  0  0
    9.3071   -4.9120    0.0000 C   0  0  0  0  0  0  0  0  0  0  0  0
   10.5446   -4.1975    0.0000 O   0  0  0  0  0  0  0  0  0  0  0  0
   10.5446   -7.0554    0.0000 O   0  0  0  0  0  0  0  0  0  0  0  0
   11.3696   -7.0554    0.0000 C   0  0  0  0  0  0  0  0  0  0  0  0
    7.7982   -4.1621    0.0000 C   0  0  0  0  0  0  0  0  0  0  0  0
    6.0856   -7.2765    0.0000 O   0  0  0  0  0  0  0  0  0  0  0  0
    5.3711   -7.6890    0.0000 C   0  0  0  0  0  0  0  0  0  0  0  0
    7.2149   -3.5788    0.0000 O   0  0  0  0  0  0  0  0  0  0  0  0
  1  2  1  0  0  0  0
  2  3  1  0  0  0  0
  3  4  1  0  0  0  0
  4  5  1  0  0  0  0
  5  6  2  0  0  0  0
  6  7  1  0  0  0  0
  7  8  2  0  0  0  0
  8  9  1  0  0  0  0
  9 10  2  0  0  0  0
 10  5  1  0  0  0  0
  8 11  1  0  0  0  0
 11 12  1  0  0  0  0
 12 13  1  0  0  0  0
 13  9  1  0  0  0  0
 14 15  2  0  0  0  0
 15 16  1  0  0  0  0
 16 17  2  0  0  0  0
 17 18  1  0  0  0  0
 18 19  2  0  0  0  0
 19 14  1  0  0  0  0
 12 14  1  6  0  0  0
 18 20  1  0  0  0  0
 16 21  1  0  0  0  0
 21 22  1  0  0  0  0
 13 23  1  1  0  0  0
  7 24  1  0  0  0  0
 24 25  1  0  0  0  0
 23 26  1  0  0  0  0
M  END
>  <cdx:fragmentId>
204

$$$$
