38037.cdx
  Mrv1902 05222410202D          

 36 39  0  0  0  0            999 V2000
    3.9979   -8.1344    0.0000 C   0  0  0  0  0  0  0  0  0  0  0  0
    3.9979   -8.9594    0.0000 C   0  0  0  0  0  0  0  0  0  0  0  0
    4.7123   -9.3719    0.0000 C   0  0  0  0  0  0  0  0  0  0  0  0
    5.4268   -8.9594    0.0000 C   0  0  1  0  0  0  0  0  0  0  0  0
    5.4268   -8.1344    0.0000 C   0  0  2  0  0  0  0  0  0  0  0  0
    4.7123   -7.7219    0.0000 C   0  0  0  0  0  0  0  0  0  0  0  0
    6.1413   -9.3719    0.0000 C   0  0  0  0  0  0  0  0  0  0  0  0
    6.8557   -8.9594    0.0000 C   0  0  0  0  0  0  0  0  0  0  0  0
    6.8557   -8.1344    0.0000 C   0  0  0  0  0  0  0  0  0  0  0  0
    6.1413   -7.7219    0.0000 C   0  0  0  0  0  0  0  0  0  0  0  0
    7.5702   -7.7219    0.0000 C   0  0  2  0  0  0  0  0  0  0  0  0
    7.5702   -6.8969    0.0000 C   0  0  1  0  0  0  0  0  0  0  0  0
    6.8557   -6.4844    0.0000 C   0  0  0  0  0  0  0  0  0  0  0  0
    6.1413   -6.8969    0.0000 C   0  0  0  0  0  0  0  0  0  0  0  0
    8.3548   -7.9768    0.0000 C   0  0  0  0  0  0  0  0  0  0  0  0
    8.8398   -7.3094    0.0000 C   0  0  0  0  0  0  0  0  0  0  0  0
    8.3548   -6.6419    0.0000 C   0  0  1  0  0  0  0  0  0  0  0  0
    3.2834   -9.3719    0.0000 O   0  0  0  0  0  0  0  0  0  0  0  0
    7.5702   -9.3719    0.0000 O   0  0  0  0  0  0  0  0  0  0  0  0
    7.5702   -8.5469    0.0000 C   0  0  0  0  0  0  0  0  0  0  0  0
    5.4268   -7.3094    0.0000 C   0  0  0  0  0  0  0  0  0  0  0  0
    4.2998  -10.0863    0.0000 C   0  0  0  0  0  0  0  0  0  0  0  0
    5.1248  -10.0863    0.0000 C   0  0  0  0  0  0  0  0  0  0  0  0
    7.5702   -6.0719    0.0000 C   0  0  0  0  0  0  0  0  0  0  0  0
    8.6098   -5.8573    0.0000 C   0  0  1  0  0  0  0  0  0  0  0  0
    8.0577   -5.2442    0.0000 C   0  0  0  0  0  0  0  0  0  0  0  0
    9.4167   -5.6858    0.0000 C   0  0  0  0  0  0  0  0  0  0  0  0
    9.6717   -4.9011    0.0000 C   0  0  0  0  0  0  0  0  0  0  0  0
   10.4787   -4.7296    0.0000 C   0  0  0  0  0  0  0  0  0  0  0  0
   10.7336   -3.9450    0.0000 C   0  0  0  0  0  0  0  0  0  0  0  0
   10.1816   -3.3319    0.0000 C   0  0  0  0  0  0  0  0  0  0  0  0
   11.5406   -3.7735    0.0000 C   0  0  0  0  0  0  0  0  0  0  0  0
    5.4268   -9.7844    0.0000 H   0  0  0  0  0  0  0  0  0  0  0  0
    8.3127   -4.4596    0.0000 O   0  0  0  0  0  0  0  0  0  0  0  0
    7.2508   -5.4157    0.0000 O   0  0  0  0  0  0  0  0  0  0  0  0
    9.1517   -6.4284    0.0000 H   0  0  0  0  0  0  0  0  0  0  0  0
  1  2  1  0  0  0  0
  2  3  1  0  0  0  0
  3  4  1  0  0  0  0
  4  5  1  0  0  0  0
  5  6  1  0  0  0  0
  6  1  1  0  0  0  0
  4  7  1  0  0  0  0
  7  8  1  0  0  0  0
  8  9  1  0  0  0  0
  9 10  2  0  0  0  0
 10  5  1  0  0  0  0
  9 11  1  0  0  0  0
 11 12  1  0  0  0  0
 12 13  1  0  0  0  0
 13 14  1  0  0  0  0
 14 10  1  0  0  0  0
 11 15  1  0  0  0  0
 15 16  1  0  0  0  0
 16 17  1  0  0  0  0
 17 12  1  0  0  0  0
  2 18  2  0  0  0  0
  8 19  2  0  0  0  0
 11 20  1  1  0  0  0
  5 21  1  1  0  0  0
  3 22  1  0  0  0  0
  3 23  1  0  0  0  0
 12 24  1  6  0  0  0
 17 25  1  0  0  0  0
 25 26  1  1  0  0  0
 25 27  1  0  0  0  0
 27 28  1  0  0  0  0
 28 29  1  0  0  0  0
 29 30  2  0  0  0  0
 30 31  1  0  0  0  0
 30 32  1  0  0  0  0
  4 33  1  6  0  0  0
 26 34  2  0  0  0  0
 26 35  1  0  0  0  0
 17 36  1  1  0  0  0
M  END
>  <cdx:fragmentId>
6

$$$$
