38033.cdx
  Mrv1902 05222410182D          

 40 43  0  0  0  0            999 V2000
    2.4144  -10.9324    0.0000 O   0  0  0  0  0  0  0  0  0  0  0  0
    4.5573  -11.3476    0.0000 O   0  0  0  0  0  0  0  0  0  0  0  0
    6.7054   -7.6378    0.0000 C   0  0  0  0  0  0  0  0  0  0  0  0
    5.9914   -7.2244    0.0000 O   0  0  0  0  0  0  0  0  0  0  0  0
    5.2713  -11.7610    0.0000 O   0  0  0  0  0  0  0  0  0  0  0  0
    4.5604   -8.8726    0.0000 C   0  0  0  0  0  0  0  0  0  0  0  0
    6.7033   -9.2878    0.0000 C   0  0  2  0  0  0  0  0  0  0  0  0
    6.7033   -8.4628    0.0000 C   0  0  1  0  0  0  0  0  0  0  0  0
    5.9904   -8.0494    0.0000 C   0  0  1  0  0  0  0  0  0  0  0  0
    5.2754   -8.4610    0.0000 C   0  0  0  0  0  0  0  0  0  0  0  0
    5.2723  -10.9360    0.0000 C   0  0  2  0  0  0  0  0  0  0  0  0
    5.9873  -10.5244    0.0000 C   0  0  0  0  0  0  0  0  0  0  0  0
    5.9883   -9.6994    0.0000 C   0  0  2  0  0  0  0  0  0  0  0  0
    5.2744   -9.2860    0.0000 C   0  0  1  0  0  0  0  0  0  0  0  0
    3.8434  -10.9342    0.0000 C   0  0  0  0  0  0  0  0  0  0  0  0
    4.5584  -10.5226    0.0000 C   0  0  2  0  0  0  0  0  0  0  0  0
    4.5594   -9.6976    0.0000 C   0  0  1  0  0  0  0  0  0  0  0  0
    3.8454   -9.2842    0.0000 C   0  0  0  0  0  0  0  0  0  0  0  0
    3.1305   -9.6958    0.0000 C   0  0  0  0  0  0  0  0  0  0  0  0
    3.1294  -10.5208    0.0000 C   0  0  2  0  0  0  0  0  0  0  0  0
    7.4876   -9.5437    0.0000 C   0  0  0  0  0  0  0  0  0  0  0  0
    7.9734   -8.8769    0.0000 C   0  0  0  0  0  0  0  0  0  0  0  0
    7.4876   -8.2088    0.0000 C   0  0  2  0  0  0  0  0  0  0  0  0
    7.7428   -7.4243    0.0000 C   0  0  2  0  0  0  0  0  0  0  0  0
    7.1910   -6.8110    0.0000 C   0  0  0  0  0  0  0  0  0  0  0  0
    8.5498   -7.2530    0.0000 C   0  0  0  0  0  0  0  0  0  0  0  0
    8.8050   -6.4685    0.0000 C   0  0  0  0  0  0  0  0  0  0  0  0
    9.6121   -6.2972    0.0000 C   0  0  2  0  0  0  0  0  0  0  0  0
   10.1639   -6.9105    0.0000 C   0  0  0  0  0  0  0  0  0  0  0  0
    9.8672   -5.5127    0.0000 C   0  0  0  0  0  0  0  0  0  0  0  0
    9.0704   -5.2991    0.0000 C   0  0  0  0  0  0  0  0  0  0  0  0
   10.6641   -5.7262    0.0000 C   0  0  0  0  0  0  0  0  0  0  0  0
    8.2719   -7.9549    0.0000 H   0  0  0  0  0  0  0  0  0  0  0  0
   10.1224   -4.7281    0.0000 O   0  0  0  0  0  0  0  0  0  0  0  0
   10.9295   -4.5569    0.0000 C   0  0  0  0  0  0  0  0  0  0  0  0
   11.4813   -5.1701    0.0000 C   0  0  0  0  0  0  0  0  0  0  0  0
   11.1846   -3.7723    0.0000 O   0  0  0  0  0  0  0  0  0  0  0  0
    5.9894   -8.8744    0.0000 H   0  0  0  0  0  0  0  0  0  0  0  0
    5.2734  -10.1110    0.0000 H   0  0  0  0  0  0  0  0  0  0  0  0
    6.7033  -10.1128    0.0000 H   0  0  0  0  0  0  0  0  0  0  0  0
 20  1  1  1  0  0  0
 13 12  1  0  0  0  0
 16  2  1  6  0  0  0
  8  3  1  1  0  0  0
  9  4  1  1  0  0  0
 11  5  1  1  0  0  0
 17  6  1  1  0  0  0
  7 13  1  0  0  0  0
  8  7  1  0  0  0  0
  9  8  1  0  0  0  0
 10  9  1  0  0  0  0
 14 10  1  0  0  0  0
 11 16  1  0  0  0  0
 12 11  1  0  0  0  0
 14 13  1  0  0  0  0
 17 14  1  0  0  0  0
 15 20  1  0  0  0  0
 16 15  1  0  0  0  0
 17 16  1  0  0  0  0
 18 17  1  0  0  0  0
 19 18  1  0  0  0  0
 20 19  1  0  0  0  0
  7 21  1  0  0  0  0
 21 22  1  0  0  0  0
 22 23  1  0  0  0  0
 23  8  1  0  0  0  0
 23 24  1  0  0  0  0
 24 25  1  6  0  0  0
 24 26  1  0  0  0  0
 26 27  1  0  0  0  0
 27 28  1  0  0  0  0
 28 29  1  1  0  0  0
 28 30  1  0  0  0  0
 30 31  1  0  0  0  0
 30 32  1  0  0  0  0
 23 33  1  6  0  0  0
 30 34  1  0  0  0  0
 34 35  1  0  0  0  0
 35 36  1  0  0  0  0
 35 37  2  0  0  0  0
 13 38  1  1  0  0  0
 14 39  1  6  0  0  0
  7 40  1  6  0  0  0
M  END
>  <cdx:fragmentId>
117

$$$$
