38041.cdx
  Mrv1902 05222410222D          

 20 21  0  0  0  0            999 V2000
    9.1351   -8.0334    0.0000 C   0  0  0  0  0  0  0  0  0  0  0  0
    9.1351   -7.2084    0.0000 C   0  0  0  0  0  0  0  0  0  0  0  0
    8.4206   -6.7959    0.0000 C   0  0  0  0  0  0  0  0  0  0  0  0
    7.7061   -7.2084    0.0000 C   0  0  0  0  0  0  0  0  0  0  0  0
    7.7061   -8.0334    0.0000 C   0  0  0  0  0  0  0  0  0  0  0  0
    8.4206   -8.4459    0.0000 C   0  0  0  0  0  0  0  0  0  0  0  0
    6.9916   -6.7959    0.0000 C   0  0  0  0  0  0  0  0  0  0  0  0
    6.2772   -7.2084    0.0000 C   0  0  0  0  0  0  0  0  0  0  0  0
    6.2772   -8.0334    0.0000 C   0  0  0  0  0  0  0  0  0  0  0  0
    5.5627   -6.7959    0.0000 C   0  0  0  0  0  0  0  0  0  0  0  0
    4.8482   -7.2084    0.0000 C   0  0  0  0  0  0  0  0  0  0  0  0
    4.8482   -8.0334    0.0000 C   0  0  0  0  0  0  0  0  0  0  0  0
    5.5627   -8.4459    0.0000 C   0  0  0  0  0  0  0  0  0  0  0  0
    4.1338   -6.7959    0.0000 O   0  0  0  0  0  0  0  0  0  0  0  0
    3.4193   -8.0334    0.0000 C   0  0  0  0  0  0  0  0  0  0  0  0
    4.1338   -8.4459    0.0000 O   0  0  0  0  0  0  0  0  0  0  0  0
    9.8495   -6.7959    0.0000 O   0  0  0  0  0  0  0  0  0  0  0  0
    6.9916   -5.9709    0.0000 C   0  0  0  0  0  0  0  0  0  0  0  0
    7.7061   -5.5584    0.0000 C   0  0  0  0  0  0  0  0  0  0  0  0
    6.9916   -8.4459    0.0000 O   0  0  0  0  0  0  0  0  0  0  0  0
  1  2  2  0  0  0  0
  2  3  1  0  0  0  0
  3  4  2  0  0  0  0
  4  5  1  0  0  0  0
  5  6  2  0  0  0  0
  6  1  1  0  0  0  0
  4  7  1  0  0  0  0
  7  8  1  0  0  0  0
  8  9  1  0  0  0  0
  8 10  2  0  0  0  0
 10 11  1  0  0  0  0
 11 12  1  0  0  0  0
 12 13  2  0  0  0  0
 13  9  1  0  0  0  0
 11 14  2  0  0  0  0
 15 16  1  0  0  0  0
 16 12  1  0  0  0  0
  2 17  1  0  0  0  0
  7 18  1  0  0  0  0
 18 19  2  0  0  0  0
  9 20  2  0  0  0  0
M  END
>  <cdx:fragmentId>
5

$$$$
