38047.cdx
  Mrv1902 05222410212D          

 17 17  0  0  0  0            999 V2000
    7.6120   -8.2829    0.0000 O   0  0  0  0  0  0  0  0  0  0  0  0
    6.8975   -9.5204    0.0000 O   0  0  0  0  0  0  0  0  0  0  0  0
    6.1830   -8.2829    0.0000 C   0  0  1  0  0  0  0  0  0  0  0  0
    6.8975   -8.6954    0.0000 C   0  0  0  0  0  0  0  0  0  0  0  0
    5.4685   -8.6954    0.0000 N   0  0  0  0  0  0  0  0  0  0  0  0
    6.1830   -7.4579    0.0000 C   0  0  0  0  0  0  0  0  0  0  0  0
    5.4685   -7.0454    0.0000 C   0  0  0  0  0  0  0  0  0  0  0  0
    5.4685   -6.2204    0.0000 N   0  0  0  0  0  0  0  0  0  0  0  0
    4.7541   -7.4579    0.0000 O   0  0  0  0  0  0  0  0  0  0  0  0
    8.3264   -8.6954    0.0000 C   0  0  0  0  0  0  0  0  0  0  0  0
    9.0409   -8.2829    0.0000 C   0  0  0  0  0  0  0  0  0  0  0  0
    9.7554   -8.6954    0.0000 C   0  0  0  0  0  0  0  0  0  0  0  0
   10.4698   -8.2829    0.0000 C   0  0  0  0  0  0  0  0  0  0  0  0
   10.4698   -7.4579    0.0000 C   0  0  0  0  0  0  0  0  0  0  0  0
    9.7554   -7.0454    0.0000 C   0  0  0  0  0  0  0  0  0  0  0  0
    9.0409   -7.4579    0.0000 C   0  0  0  0  0  0  0  0  0  0  0  0
   11.1843   -7.0454    0.0000 O   0  0  0  0  0  0  0  0  0  0  0  0
  4  1  1  0  0  0  0
  4  2  2  0  0  0  0
  4  3  1  0  0  0  0
  3  5  1  1  0  0  0
  3  6  1  0  0  0  0
  6  7  1  0  0  0  0
  7  8  1  0  0  0  0
  7  9  2  0  0  0  0
  1 10  1  0  0  0  0
 10 11  1  0  0  0  0
 11 12  2  0  0  0  0
 12 13  1  0  0  0  0
 13 14  2  0  0  0  0
 14 15  1  0  0  0  0
 15 16  2  0  0  0  0
 16 11  1  0  0  0  0
 14 17  1  0  0  0  0
M  END
>  <cdx:fragmentId>
32

$$$$
