38045.cdx
  Mrv1902 05222410212D          

 18 19  0  0  0  0            999 V2000
    1.6093   -2.5162    0.0000 C   0  0  0  0  0  0  0  0  0  0  0  0
    1.6093   -3.3413    0.0000 C   0  0  1  0  0  0  0  0  0  0  0  0
    2.3237   -3.7538    0.0000 C   0  0  1  0  0  0  0  0  0  0  0  0
    3.0382   -3.3413    0.0000 C   0  0  0  0  0  0  0  0  0  0  0  0
    3.0382   -2.5162    0.0000 C   0  0  2  0  0  0  0  0  0  0  0  0
    2.3237   -2.1037    0.0000 C   0  0  0  0  0  0  0  0  0  0  0  0
    3.7527   -3.7538    0.0000 C   0  0  0  0  0  0  0  0  0  0  0  0
    4.4672   -3.3413    0.0000 C   0  0  1  0  0  0  0  0  0  0  0  0
    4.4672   -2.5162    0.0000 C   0  0  0  0  0  0  0  0  0  0  0  0
    3.7527   -2.1037    0.0000 C   0  0  0  0  0  0  0  0  0  0  0  0
    3.0382   -1.6912    0.0000 C   0  0  0  0  0  0  0  0  0  0  0  0
    2.3238   -4.5788    0.0000 C   0  0  0  0  0  0  0  0  0  0  0  0
    0.8948   -3.7538    0.0000 O   0  0  0  0  0  0  0  0  0  0  0  0
    5.1816   -3.7538    0.0000 C   0  0  0  0  0  0  0  0  0  0  0  0
    5.8961   -3.3413    0.0000 C   0  0  0  0  0  0  0  0  0  0  0  0
    5.1816   -4.5788    0.0000 C   0  0  0  0  0  0  0  0  0  0  0  0
    5.8961   -4.9913    0.0000 O   0  0  0  0  0  0  0  0  0  0  0  0
    4.4672   -4.9913    0.0000 O   0  0  0  0  0  0  0  0  0  0  0  0
  1  2  1  0  0  0  0
  2  3  1  0  0  0  0
  3  4  1  0  0  0  0
  4  5  1  0  0  0  0
  5  6  1  0  0  0  0
  6  1  1  0  0  0  0
  4  7  2  0  0  0  0
  7  8  1  0  0  0  0
  8  9  1  0  0  0  0
  9 10  1  0  0  0  0
 10  5  1  0  0  0  0
  5 11  1  1  0  0  0
  3 12  1  1  0  0  0
  2 13  1  1  0  0  0
  8 14  1  1  0  0  0
 14 15  2  0  0  0  0
 14 16  1  0  0  0  0
 16 17  2  0  0  0  0
 16 18  1  0  0  0  0
M  END
>  <cdx:fragmentId>
6

$$$$
