38046.cdx
  Mrv1902 05222410212D          

 37 41  0  0  0  0            999 V2000
    4.0726   -6.2777    0.0000 C   0  0  0  0  0  0  0  0  0  0  0  0
    4.0726   -7.1027    0.0000 C   0  0  1  0  0  0  0  0  0  0  0  0
    4.7871   -7.5152    0.0000 C   0  0  0  0  0  0  0  0  0  0  0  0
    5.5016   -7.1027    0.0000 C   0  0  1  0  0  0  0  0  0  0  0  0
    5.5016   -6.2777    0.0000 C   0  0  2  0  0  0  0  0  0  0  0  0
    4.7871   -5.8652    0.0000 C   0  0  0  0  0  0  0  0  0  0  0  0
    6.2161   -7.5152    0.0000 C   0  0  0  0  0  0  0  0  0  0  0  0
    6.9305   -7.1027    0.0000 C   0  0  0  0  0  0  0  0  0  0  0  0
    6.9305   -6.2777    0.0000 C   0  0  2  0  0  0  0  0  0  0  0  0
    6.2161   -5.8652    0.0000 C   0  0  2  0  0  0  0  0  0  0  0  0
    7.6450   -5.8652    0.0000 C   0  0  1  0  0  0  0  0  0  0  0  0
    7.6450   -5.0402    0.0000 C   0  0  0  0  0  0  0  0  0  0  0  0
    6.9305   -4.6277    0.0000 C   0  0  0  0  0  0  0  0  0  0  0  0
    6.2161   -5.0402    0.0000 C   0  0  0  0  0  0  0  0  0  0  0  0
    8.3595   -6.2777    0.0000 C   0  0  0  0  0  0  0  0  0  0  0  0
    9.0739   -5.8652    0.0000 C   0  0  0  0  0  0  0  0  0  0  0  0
    9.0739   -5.0402    0.0000 C   0  0  2  0  0  0  0  0  0  0  0  0
    8.3595   -4.6277    0.0000 C   0  0  1  0  0  0  0  0  0  0  0  0
    9.7884   -4.6277    0.0000 C   0  0  0  0  0  0  0  0  0  0  0  0
    9.7884   -3.8027    0.0000 C   0  0  0  0  0  0  0  0  0  0  0  0
    9.0739   -3.3902    0.0000 C   0  0  2  0  0  0  0  0  0  0  0  0
    8.3595   -3.8027    0.0000 C   0  0  1  0  0  0  0  0  0  0  0  0
    9.0739   -2.5652    0.0000 C   0  0  0  0  0  0  0  0  0  0  0  0
    7.5345   -3.8027    0.0000 O   0  0  0  0  0  0  0  0  0  0  0  0
    9.7884   -5.4527    0.0000 C   0  0  0  0  0  0  0  0  0  0  0  0
    8.3595   -5.4527    0.0000 H   0  0  0  0  0  0  0  0  0  0  0  0
    6.9305   -5.4527    0.0000 C   0  0  0  0  0  0  0  0  0  0  0  0
    5.5016   -5.4527    0.0000 C   0  0  0  0  0  0  0  0  0  0  0  0
    3.3582   -7.5152    0.0000 O   0  0  0  0  0  0  0  0  0  0  0  0
    6.2161   -6.6902    0.0000 H   0  0  0  0  0  0  0  0  0  0  0  0
    7.6450   -6.6902    0.0000 C   0  0  0  0  0  0  0  0  0  0  0  0
    9.7884   -6.2777    0.0000 O   0  0  0  0  0  0  0  0  0  0  0  0
   10.5029   -5.0402    0.0000 O   0  0  0  0  0  0  0  0  0  0  0  0
    5.5016   -7.9277    0.0000 H   0  0  0  0  0  0  0  0  0  0  0  0
    7.9470   -3.0882    0.0000 C   0  0  0  0  0  0  0  0  0  0  0  0
    5.1996   -8.2296    0.0000 C   0  0  0  0  0  0  0  0  0  0  0  0
    4.3746   -8.2296    0.0000 C   0  0  0  0  0  0  0  0  0  0  0  0
  1  2  1  0  0  0  0
  2  3  1  0  0  0  0
  3  4  1  0  0  0  0
  4  5  1  0  0  0  0
  5  6  1  0  0  0  0
  6  1  1  0  0  0  0
  4  7  1  0  0  0  0
  7  8  1  0  0  0  0
  8  9  1  0  0  0  0
  9 10  1  0  0  0  0
 10  5  1  0  0  0  0
  9 11  1  0  0  0  0
 11 12  1  0  0  0  0
 12 13  2  0  0  0  0
 13 14  1  0  0  0  0
 14 10  1  0  0  0  0
 11 15  1  0  0  0  0
 15 16  1  0  0  0  0
 16 17  1  0  0  0  0
 17 18  1  0  0  0  0
 18 12  1  0  0  0  0
 17 19  1  0  0  0  0
 19 20  1  0  0  0  0
 20 21  1  0  0  0  0
 21 22  1  0  0  0  0
 22 18  1  0  0  0  0
 21 23  1  6  0  0  0
 22 24  1  6  0  0  0
 17 25  1  1  0  0  0
 18 26  1  1  0  0  0
  9 27  1  1  0  0  0
  5 28  1  1  0  0  0
  2 29  1  1  0  0  0
 10 30  1  6  0  0  0
 11 31  1  6  0  0  0
 25 32  1  0  0  0  0
 25 33  2  0  0  0  0
  4 34  1  6  0  0  0
 22 35  1  1  0  0  0
  3 36  1  0  0  0  0
  3 37  1  0  0  0  0
M  END
>  <cdx:fragmentId>
76

$$$$
