38044.cdx
  Mrv1902 05222410202D          

 28 31  0  0  0  0            999 V2000
    4.1846   -6.2202    0.0000 C   0  0  0  0  0  0  0  0  0  0  0  0
    3.9527   -7.0119    0.0000 C   0  0  1  0  0  0  0  0  0  0  0  0
    4.4271   -7.6868    0.0000 C   0  0  1  0  0  0  0  0  0  0  0  0
    5.2506   -7.7367    0.0000 C   0  0  2  0  0  0  0  0  0  0  0  0
    5.8031   -7.1240    0.0000 C   0  0  1  0  0  0  0  0  0  0  0  0
    5.6684   -6.3100    0.0000 C   0  0  2  0  0  0  0  0  0  0  0  0
    4.9481   -5.9078    0.0000 C   0  0  0  0  0  0  0  0  0  0  0  0
    3.1642   -7.2546    0.0000 C   0  0  0  0  0  0  0  0  0  0  0  0
    3.1513   -8.0795    0.0000 C   0  0  2  0  0  0  0  0  0  0  0  0
    3.9319   -8.3466    0.0000 C   0  0  2  0  0  0  0  0  0  0  0  0
    4.1745   -9.1351    0.0000 C   0  0  0  0  0  0  0  0  0  0  0  0
    3.1323   -8.9043    0.0000 O   0  0  0  0  0  0  0  0  0  0  0  0
    4.6222   -8.4885    0.0000 H   0  0  0  0  0  0  0  0  0  0  0  0
    3.3830   -6.4152    0.0000 O   0  0  0  0  0  0  0  0  0  0  0  0
    3.5718   -5.6677    0.0000 C   0  0  0  0  0  0  0  0  0  0  0  0
    6.2651   -5.7403    0.0000 O   0  0  0  0  0  0  0  0  0  0  0  0
    6.1121   -4.9296    0.0000 C   0  0  0  0  0  0  0  0  0  0  0  0
    6.7377   -4.3918    0.0000 C   0  0  0  0  0  0  0  0  0  0  0  0
    5.3336   -4.6568    0.0000 O   0  0  0  0  0  0  0  0  0  0  0  0
    7.5163   -4.6646    0.0000 H   0  0  0  0  0  0  0  0  0  0  0  0
    6.5847   -3.5811    0.0000 C   0  0  0  0  0  0  0  0  0  0  0  0
    7.2103   -3.0432    0.0000 C   0  0  0  0  0  0  0  0  0  0  0  0
    5.8061   -3.3082    0.0000 C   0  0  0  0  0  0  0  0  0  0  0  0
    5.6627   -8.4515    0.0000 O   0  0  0  0  0  0  0  0  0  0  0  0
    6.4697   -8.2805    0.0000 C   0  0  0  0  0  0  0  0  0  0  0  0
    6.5565   -7.4600    0.0000 C   0  0  0  0  0  0  0  0  0  0  0  0
    7.2713   -7.0480    0.0000 C   0  0  0  0  0  0  0  0  0  0  0  0
    7.0825   -8.8329    0.0000 O   0  0  0  0  0  0  0  0  0  0  0  0
  1  2  1  0  0  0  0
  2  3  1  0  0  0  0
  3  4  1  0  0  0  0
  4  5  1  0  0  0  0
  5  6  1  0  0  0  0
  6  7  1  0  0  0  0
  7  1  1  0  0  0  0
  2  8  1  0  0  0  0
  8  9  1  0  0  0  0
  9 10  1  0  0  0  0
 10  3  1  0  0  0  0
 10 11  1  0  0  0  0
  9 12  1  6  0  0  0
  3 13  1  6  0  0  0
  2 14  1  6  0  0  0
  1 15  2  0  0  0  0
  6 16  1  6  0  0  0
 16 17  1  0  0  0  0
 17 18  1  0  0  0  0
 17 19  2  0  0  0  0
 18 20  1  0  0  0  0
 18 21  1  0  0  0  0
 21 22  1  0  0  0  0
 21 23  1  0  0  0  0
 24 25  1  0  0  0  0
 25 26  1  0  0  0  0
  5 26  1  1  0  0  0
 26 27  2  0  0  0  0
 25 28  2  0  0  0  0
  4 24  1  6  0  0  0
 10 12  1  6  0  0  0
M  END
>  <cdx:fragmentId>
79

$$$$
