38048.cdx
  Mrv1902 05222410252D          

 28 30  0  0  0  0            999 V2000
    4.8494   -4.0598    0.0000 O   0  0  0  0  0  0  0  0  0  0  0  0
    4.1350   -4.4723    0.0000 C   0  0  1  0  0  0  0  0  0  0  0  0
    4.1350   -5.2973    0.0000 C   0  0  2  0  0  0  0  0  0  0  0  0
    4.8494   -5.7098    0.0000 O   0  0  0  0  0  0  0  0  0  0  0  0
    3.4205   -5.7098    0.0000 C   0  0  1  0  0  0  0  0  0  0  0  0
    3.4205   -6.5348    0.0000 O   0  0  0  0  0  0  0  0  0  0  0  0
    2.7060   -5.2973    0.0000 C   0  0  2  0  0  0  0  0  0  0  0  0
    1.9916   -5.7098    0.0000 O   0  0  0  0  0  0  0  0  0  0  0  0
    2.7060   -4.4723    0.0000 C   0  0  0  0  0  0  0  0  0  0  0  0
    3.4205   -4.0598    0.0000 O   0  0  0  0  0  0  0  0  0  0  0  0
    5.5639   -4.4723    0.0000 C   0  0  0  0  0  0  0  0  0  0  0  0
    6.2784   -4.0598    0.0000 C   0  0  0  0  0  0  0  0  0  0  0  0
    6.9929   -4.4723    0.0000 C   0  0  0  0  0  0  0  0  0  0  0  0
    6.9929   -5.2973    0.0000 C   0  0  0  0  0  0  0  0  0  0  0  0
    6.2784   -5.7098    0.0000 C   0  0  0  0  0  0  0  0  0  0  0  0
    5.5639   -5.2973    0.0000 C   0  0  0  0  0  0  0  0  0  0  0  0
    7.7073   -5.7098    0.0000 C   0  0  0  0  0  0  0  0  0  0  0  0
    8.4218   -5.2973    0.0000 C   0  0  0  0  0  0  0  0  0  0  0  0
    9.1363   -5.7098    0.0000 O   0  0  0  0  0  0  0  0  0  0  0  0
    9.8507   -5.2973    0.0000 C   0  0  1  0  0  0  0  0  0  0  0  0
    9.8507   -4.4723    0.0000 C   0  0  2  0  0  0  0  0  0  0  0  0
    9.1363   -4.0598    0.0000 O   0  0  0  0  0  0  0  0  0  0  0  0
   10.5652   -4.0598    0.0000 C   0  0  1  0  0  0  0  0  0  0  0  0
   10.5652   -3.2348    0.0000 O   0  0  0  0  0  0  0  0  0  0  0  0
   11.2797   -4.4723    0.0000 C   0  0  2  0  0  0  0  0  0  0  0  0
   11.9941   -4.0598    0.0000 O   0  0  0  0  0  0  0  0  0  0  0  0
   11.2797   -5.2973    0.0000 C   0  0  0  0  0  0  0  0  0  0  0  0
   10.5652   -5.7098    0.0000 O   0  0  0  0  0  0  0  0  0  0  0  0
  2  1  1  1  0  0  0
  2  3  1  0  0  0  0
  3  4  1  6  0  0  0
  3  5  1  0  0  0  0
  5  6  1  1  0  0  0
  5  7  1  0  0  0  0
  7  8  1  6  0  0  0
  7  9  1  0  0  0  0
  9 10  1  0  0  0  0
  2 10  1  0  0  0  0
 11 12  1  0  0  0  0
 12 13  2  0  0  0  0
 13 14  1  0  0  0  0
 14 15  2  0  0  0  0
 15 16  1  0  0  0  0
 11 16  2  0  0  0  0
 17 18  1  0  0  0  0
 20 21  1  0  0  0  0
 21 22  1  6  0  0  0
 21 23  1  0  0  0  0
 23 24  1  1  0  0  0
 23 25  1  0  0  0  0
 25 26  1  6  0  0  0
 25 27  1  0  0  0  0
 27 28  1  0  0  0  0
 20 28  1  0  0  0  0
 20 19  1  1  0  0  0
 18 19  1  0  0  0  0
 14 17  1  0  0  0  0
  1 11  1  0  0  0  0
M  END
>  <cdx:groupId>
279

>  <cdx:fragmentId>
280

$$$$
