38050.cdx
  Mrv1902 05222410202D          

 34 36  0  0  0  0            999 V2000
    8.9055   -3.8994    0.0000 C   0  0  0  0  0  0  0  0  0  0  0  0
    8.9055   -4.7244    0.0000 C   0  0  0  0  0  0  0  0  0  0  0  0
    8.1910   -5.1369    0.0000 C   0  0  0  0  0  0  0  0  0  0  0  0
    8.1910   -5.9619    0.0000 C   0  0  0  0  0  0  0  0  0  0  0  0
    8.9055   -6.3744    0.0000 C   0  0  0  0  0  0  0  0  0  0  0  0
    9.6200   -5.9619    0.0000 C   0  0  0  0  0  0  0  0  0  0  0  0
    9.6200   -5.1369    0.0000 C   0  0  0  0  0  0  0  0  0  0  0  0
    8.1910   -3.4869    0.0000 O   0  0  0  0  0  0  0  0  0  0  0  0
    9.6200   -3.4869    0.0000 O   0  0  0  0  0  0  0  0  0  0  0  0
   10.3344   -6.3744    0.0000 O   0  0  0  0  0  0  0  0  0  0  0  0
    7.4766   -6.3744    0.0000 O   0  0  0  0  0  0  0  0  0  0  0  0
    8.9055   -7.1994    0.0000 O   0  0  0  0  0  0  0  0  0  0  0  0
    8.1910   -7.6119    0.0000 C   0  0  1  0  0  0  0  0  0  0  0  0
    8.1910   -8.4369    0.0000 C   0  0  2  0  0  0  0  0  0  0  0  0
    8.9055   -8.8494    0.0000 O   0  0  0  0  0  0  0  0  0  0  0  0
    7.4766   -8.8494    0.0000 C   0  0  1  0  0  0  0  0  0  0  0  0
    7.4766   -9.6744    0.0000 O   0  0  0  0  0  0  0  0  0  0  0  0
    6.7621   -8.4369    0.0000 C   0  0  1  0  0  0  0  0  0  0  0  0
    6.7621   -7.6119    0.0000 C   0  0  2  0  0  0  0  0  0  0  0  0
    7.4766   -7.1994    0.0000 O   0  0  0  0  0  0  0  0  0  0  0  0
    6.0476   -7.1994    0.0000 C   0  0  0  0  0  0  0  0  0  0  0  0
    5.3332   -7.6119    0.0000 O   0  0  0  0  0  0  0  0  0  0  0  0
    3.2069  -11.0709    0.0000 O   0  0  0  0  0  0  0  0  0  0  0  0
    3.6194  -10.3564    0.0000 C   0  0  0  0  0  0  0  0  0  0  0  0
    4.8335   -9.6029    0.0000 O   0  0  0  0  0  0  0  0  0  0  0  0
    4.4440  -10.3302    0.0000 C   0  0  1  0  0  0  0  0  0  0  0  0
    4.4894  -11.7584    0.0000 O   0  0  0  0  0  0  0  0  0  0  0  0
    4.8790  -11.0311    0.0000 C   0  0  1  0  0  0  0  0  0  0  0  0
    6.1386  -11.7059    0.0000 O   0  0  0  0  0  0  0  0  0  0  0  0
    5.7036  -11.0049    0.0000 C   0  0  2  0  0  0  0  0  0  0  0  0
    6.9177  -10.2514    0.0000 O   0  0  0  0  0  0  0  0  0  0  0  0
    6.0931  -10.2776    0.0000 C   0  0  1  0  0  0  0  0  0  0  0  0
    5.6581   -9.5767    0.0000 C   0  0  2  0  0  0  0  0  0  0  0  0
    6.0476   -8.8494    0.0000 O   0  0  0  0  0  0  0  0  0  0  0  0
 33 34  1  1  0  0  0
 33 25  1  0  0  0  0
 24 23  1  0  0  0  0
 26 24  1  1  0  0  0
 26 25  1  0  0  0  0
 28 26  1  0  0  0  0
 28 27  1  6  0  0  0
 30 28  1  0  0  0  0
 30 29  1  1  0  0  0
 32 30  1  0  0  0  0
 32 31  1  6  0  0  0
 33 32  1  0  0  0  0
  1  2  1  0  0  0  0
  2  3  1  0  0  0  0
  3  4  2  0  0  0  0
  4  5  1  0  0  0  0
  5  6  2  0  0  0  0
  6  7  1  0  0  0  0
  2  7  2  0  0  0  0
  1  8  2  0  0  0  0
  1  9  1  0  0  0  0
  6 10  1  0  0  0  0
  4 11  1  0  0  0  0
 13 14  1  0  0  0  0
 14 15  1  6  0  0  0
 14 16  1  0  0  0  0
 16 17  1  1  0  0  0
 16 18  1  0  0  0  0
 18 34  1  6  0  0  0
 18 19  1  0  0  0  0
 19 20  1  0  0  0  0
 19 21  1  1  0  0  0
 21 22  1  0  0  0  0
 13 20  1  0  0  0  0
 13 12  1  1  0  0  0
  5 12  1  0  0  0  0
M  END
>  <cdx:groupId>
111

>  <cdx:fragmentId>
56

$$$$
