38051.cdx
  Mrv1902 05222410212D          

 15 15  0  0  0  0            999 V2000
    5.2128   -8.3664    0.0000 C   0  0  0  0  0  0  0  0  0  0  0  0
    9.0889   -7.3597    0.0000 C   0  0  0  0  0  0  0  0  0  0  0  0
    7.6801   -7.0162    0.0000 C   0  0  0  0  0  0  0  0  0  0  0  0
    8.2913   -7.5704    0.0000 C   0  0  0  0  0  0  0  0  0  0  0  0
    8.1169   -8.3767    0.0000 C   0  0  0  0  0  0  0  0  0  0  0  0
    7.3313   -8.6289    0.0000 C   0  0  0  0  0  0  0  0  0  0  0  0
    7.0736   -9.4126    0.0000 C   0  0  0  0  0  0  0  0  0  0  0  0
    6.2486   -9.4096    0.0000 C   0  0  0  0  0  0  0  0  0  0  0  0
    5.9965   -8.6241    0.0000 C   0  0  0  0  0  0  0  0  0  0  0  0
    6.6656   -8.1416    0.0000 C   0  0  0  0  0  0  0  0  0  0  0  0
    6.6745   -5.6666    0.0000 O   0  0  0  0  0  0  0  0  0  0  0  0
    6.6686   -7.3166    0.0000 C   0  0  0  0  0  0  0  0  0  0  0  0
    5.9556   -6.9015    0.0000 C   0  0  0  0  0  0  0  0  0  0  0  0
    5.9585   -6.0765    0.0000 C   0  0  0  0  0  0  0  0  0  0  0  0
    5.2455   -5.6615    0.0000 C   0  0  0  0  0  0  0  0  0  0  0  0
 12 10  2  0  0  0  0
  9  1  1  0  0  0  0
  6  5  1  0  0  0  0
  4  2  1  0  0  0  0
  4  3  2  0  0  0  0
  5  4  1  0  0  0  0
 10  6  1  0  0  0  0
  7  6  1  0  0  0  0
  8  7  1  0  0  0  0
  9  8  2  0  0  0  0
 10  9  1  0  0  0  0
 14 11  2  0  0  0  0
 13 12  1  0  0  0  0
 14 13  1  0  0  0  0
 15 14  1  0  0  0  0
M  END
>  <cdx:groupId>
51

>  <cdx:fragmentId>
19

$$$$
