38052.cdx
  Mrv1902 05222410212D          

 27 28  0  0  0  0            999 V2000
   11.0624   -4.1687    0.0000 C   0  0  0  0  0  0  0  0  0  0  0  0
   10.3479   -3.7562    0.0000 C   0  0  0  0  0  0  0  0  0  0  0  0
    9.6335   -4.1687    0.0000 C   0  0  0  0  0  0  0  0  0  0  0  0
    8.9190   -3.7562    0.0000 C   0  0  0  0  0  0  0  0  0  0  0  0
   11.0624   -4.9937    0.0000 O   0  0  0  0  0  0  0  0  0  0  0  0
   11.7769   -3.7562    0.0000 O   0  0  0  0  0  0  0  0  0  0  0  0
    8.9190   -2.9312    0.0000 O   0  0  0  0  0  0  0  0  0  0  0  0
    9.6335   -4.9937    0.0000 C   0  0  0  0  0  0  0  0  0  0  0  0
    8.2045   -4.1687    0.0000 C   0  0  0  0  0  0  0  0  0  0  0  0
    7.4900   -3.7562    0.0000 C   0  0  0  0  0  0  0  0  0  0  0  0
    6.7756   -4.1687    0.0000 C   0  0  0  0  0  0  0  0  0  0  0  0
    6.7756   -4.9937    0.0000 C   0  0  0  0  0  0  0  0  0  0  0  0
    7.4900   -5.4062    0.0000 C   0  0  0  0  0  0  0  0  0  0  0  0
    8.2045   -4.9937    0.0000 C   0  0  0  0  0  0  0  0  0  0  0  0
    7.4900   -2.9312    0.0000 O   0  0  0  0  0  0  0  0  0  0  0  0
    6.0611   -3.7562    0.0000 O   0  0  0  0  0  0  0  0  0  0  0  0
    5.3466   -4.1687    0.0000 C   0  0  1  0  0  0  0  0  0  0  0  0
    5.3466   -4.9937    0.0000 C   0  0  2  0  0  0  0  0  0  0  0  0
    6.0611   -5.4062    0.0000 O   0  0  0  0  0  0  0  0  0  0  0  0
    4.6322   -5.4062    0.0000 C   0  0  1  0  0  0  0  0  0  0  0  0
    4.6322   -6.2312    0.0000 O   0  0  0  0  0  0  0  0  0  0  0  0
    3.9177   -4.9937    0.0000 C   0  0  2  0  0  0  0  0  0  0  0  0
    3.2032   -5.4062    0.0000 O   0  0  0  0  0  0  0  0  0  0  0  0
    3.9177   -4.1687    0.0000 C   0  0  2  0  0  0  0  0  0  0  0  0
    4.6322   -3.7562    0.0000 O   0  0  0  0  0  0  0  0  0  0  0  0
    3.2032   -3.7562    0.0000 C   0  0  0  0  0  0  0  0  0  0  0  0
    2.4888   -4.1687    0.0000 O   0  0  0  0  0  0  0  0  0  0  0  0
  1  2  1  0  0  0  0
  2  3  1  0  0  0  0
  3  4  1  0  0  0  0
  1  5  2  0  0  0  0
  1  6  1  0  0  0  0
  4  7  2  0  0  0  0
  3  8  1  0  0  0  0
  9 10  1  0  0  0  0
 10 11  2  0  0  0  0
 11 12  1  0  0  0  0
 12 13  2  0  0  0  0
 13 14  1  0  0  0  0
  9 14  2  0  0  0  0
 10 15  1  0  0  0  0
 17 18  1  0  0  0  0
 18 19  1  6  0  0  0
 18 20  1  0  0  0  0
 20 21  1  1  0  0  0
 20 22  1  0  0  0  0
 22 23  1  6  0  0  0
 22 24  1  0  0  0  0
 24 25  1  0  0  0  0
 24 26  1  1  0  0  0
 26 27  1  0  0  0  0
 17 25  1  0  0  0  0
 17 16  1  1  0  0  0
 11 16  1  0  0  0  0
  4  9  1  0  0  0  0
M  END
>  <cdx:groupId>
88

>  <cdx:fragmentId>
41

$$$$
