38053.cdx
  Mrv1902 05222410212D          

 17 17  0  0  0  0            999 V2000
    5.1077   -6.3070    0.0000 C   0  0  0  0  0  0  0  0  0  0  0  0
    5.0987   -3.6020    0.0000 C   0  0  0  0  0  0  0  0  0  0  0  0
    5.8180   -4.0060    0.0000 C   0  0  0  0  0  0  0  0  0  0  0  0
    5.8278   -4.8309    0.0000 C   0  0  0  0  0  0  0  0  0  0  0  0
    6.5471   -5.2349    0.0000 C   0  0  0  0  0  0  0  0  0  0  0  0
    4.3892   -4.0229    0.0000 O   0  0  0  0  0  0  0  0  0  0  0  0
    4.9266   -5.5022    0.0000 O   0  0  0  0  0  0  0  0  0  0  0  0
    8.9678   -5.2407    0.0000 C   0  0  0  0  0  0  0  0  0  0  0  0
    8.1735   -5.4637    0.0000 O   0  0  0  0  0  0  0  0  0  0  0  0
    8.0116   -6.2726    0.0000 C   0  0  0  0  0  0  0  0  0  0  0  0
    7.2300   -6.5368    0.0000 C   0  0  0  0  0  0  0  0  0  0  0  0
    6.9844   -7.3244    0.0000 C   0  0  0  0  0  0  0  0  0  0  0  0
    6.1595   -7.3342    0.0000 C   0  0  0  0  0  0  0  0  0  0  0  0
    5.8953   -6.5527    0.0000 C   0  0  0  0  0  0  0  0  0  0  0  0
    6.5569   -6.0599    0.0000 N   0  0  0  0  0  0  0  0  0  0  0  0
    5.0889   -2.7770    0.0000 O   0  0  0  0  0  0  0  0  0  0  0  0
    5.7985   -2.3561    0.0000 C   0  0  0  0  0  0  0  0  0  0  0  0
  5 15  1  0  0  0  0
 14  1  1  0  0  0  0
 11 10  1  0  0  0  0
 10  9  1  0  0  0  0
  9  8  1  0  0  0  0
 15 11  1  0  0  0  0
 12 11  2  0  0  0  0
 13 12  1  0  0  0  0
 14 13  2  0  0  0  0
 15 14  1  0  0  0  0
  1  7  2  0  0  0  0
  2  3  1  0  0  0  0
  3  4  1  0  0  0  0
  4  5  1  0  0  0  0
  2  6  2  0  0  0  0
  2 16  1  0  0  0  0
 16 17  1  0  0  0  0
M  END
>  <cdx:groupId>
118

>  <cdx:fragmentId>
119

$$$$
