38059.cdx
  Mrv1902 05222410232D          

 13 13  0  0  0  0            999 V2000
    5.8329   -3.5557    0.0000 C   0  0  0  0  0  0  0  0  0  0  0  0
    5.1184   -3.9682    0.0000 C   0  0  0  0  0  0  0  0  0  0  0  0
    5.1184   -4.7932    0.0000 C   0  0  0  0  0  0  0  0  0  0  0  0
    4.4039   -5.2057    0.0000 C   0  0  0  0  0  0  0  0  0  0  0  0
    4.4039   -6.0307    0.0000 O   0  0  0  0  0  0  0  0  0  0  0  0
    3.6895   -4.7932    0.0000 C   0  0  0  0  0  0  0  0  0  0  0  0
    2.9750   -5.2057    0.0000 O   0  0  0  0  0  0  0  0  0  0  0  0
    3.6895   -3.9682    0.0000 C   0  0  0  0  0  0  0  0  0  0  0  0
    2.9750   -3.5557    0.0000 O   0  0  0  0  0  0  0  0  0  0  0  0
    4.4039   -3.5557    0.0000 C   0  0  0  0  0  0  0  0  0  0  0  0
    5.8329   -2.7307    0.0000 O   0  0  0  0  0  0  0  0  0  0  0  0
    6.5474   -3.9682    0.0000 O   0  5  0  0  0  0  0  0  0  0  0  0
    2.2605   -4.7932    0.0000 C   0  0  0  0  0  0  0  0  0  0  0  0
  1  2  1  0  0  0  0
  2  3  1  0  0  0  0
  3  4  2  0  0  0  0
  4  5  1  0  0  0  0
  4  6  1  0  0  0  0
  6  7  1  0  0  0  0
  6  8  2  0  0  0  0
  8  9  1  0  0  0  0
  8 10  1  0  0  0  0
  2 10  2  0  0  0  0
  1 11  2  0  0  0  0
  1 12  1  0  0  0  0
  7 13  1  0  0  0  0
M  CHG  1  12  -1
M  END
>  <cdx:groupId>
48

>  <cdx:fragmentId>
12

$$$$
