38054.cdx
  Mrv1902 05222410232D          

 36 38  0  0  0  0            999 V2000
   12.1487   -5.9033    0.0000 C   0  0  0  0  0  0  0  0  0  0  0  0
   11.4342   -5.4908    0.0000 C   0  0  0  0  0  0  0  0  0  0  0  0
   11.4342   -4.6658    0.0000 C   0  0  0  0  0  0  0  0  0  0  0  0
   10.7197   -4.2533    0.0000 C   0  0  0  0  0  0  0  0  0  0  0  0
   10.0053   -4.6658    0.0000 C   0  0  0  0  0  0  0  0  0  0  0  0
   10.0053   -5.4908    0.0000 C   0  0  0  0  0  0  0  0  0  0  0  0
   10.7197   -5.9033    0.0000 C   0  0  0  0  0  0  0  0  0  0  0  0
   12.1487   -6.7283    0.0000 O   0  0  0  0  0  0  0  0  0  0  0  0
   12.8631   -5.4908    0.0000 O   0  0  0  0  0  0  0  0  0  0  0  0
   10.7197   -3.4283    0.0000 O   0  0  0  0  0  0  0  0  0  0  0  0
   11.4342   -3.0158    0.0000 C   0  0  0  0  0  0  0  0  0  0  0  0
    9.2908   -4.2533    0.0000 O   0  0  0  0  0  0  0  0  0  0  0  0
    8.5763   -4.6658    0.0000 C   0  0  1  0  0  0  0  0  0  0  0  0
    8.5763   -5.4908    0.0000 C   0  0  2  0  0  0  0  0  0  0  0  0
    9.2908   -5.9033    0.0000 O   0  0  0  0  0  0  0  0  0  0  0  0
    7.8618   -5.9033    0.0000 C   0  0  1  0  0  0  0  0  0  0  0  0
    7.8618   -6.7283    0.0000 O   0  0  0  0  0  0  0  0  0  0  0  0
    7.1474   -5.4908    0.0000 C   0  0  2  0  0  0  0  0  0  0  0  0
    6.4329   -5.9033    0.0000 O   0  0  0  0  0  0  0  0  0  0  0  0
    7.1474   -4.6658    0.0000 C   0  0  2  0  0  0  0  0  0  0  0  0
    7.8618   -4.2533    0.0000 O   0  0  0  0  0  0  0  0  0  0  0  0
    6.4329   -4.2533    0.0000 C   0  0  0  0  0  0  0  0  0  0  0  0
    5.7184   -4.6658    0.0000 O   0  0  0  0  0  0  0  0  0  0  0  0
    5.0040   -4.2533    0.0000 C   0  0  0  0  0  0  0  0  0  0  0  0
    4.2895   -4.6658    0.0000 C   0  0  0  0  0  0  0  0  0  0  0  0
    3.5750   -4.2533    0.0000 C   0  0  0  0  0  0  0  0  0  0  0  0
    2.8606   -4.6658    0.0000 C   0  0  0  0  0  0  0  0  0  0  0  0
    2.8606   -5.4908    0.0000 C   0  0  0  0  0  0  0  0  0  0  0  0
    3.5750   -5.9033    0.0000 C   0  0  0  0  0  0  0  0  0  0  0  0
    4.2895   -5.4908    0.0000 C   0  0  0  0  0  0  0  0  0  0  0  0
    5.0040   -3.4283    0.0000 O   0  0  0  0  0  0  0  0  0  0  0  0
    3.5750   -6.7283    0.0000 O   0  0  0  0  0  0  0  0  0  0  0  0
    2.8606   -7.1408    0.0000 C   0  0  0  0  0  0  0  0  0  0  0  0
    2.1461   -4.2533    0.0000 O   0  0  0  0  0  0  0  0  0  0  0  0
    1.4316   -4.6658    0.0000 C   0  0  0  0  0  0  0  0  0  0  0  0
    2.1461   -5.9033    0.0000 O   0  0  0  0  0  0  0  0  0  0  0  0
  1  2  1  0  0  0  0
  2  3  1  0  0  0  0
  3  4  2  0  0  0  0
  4  5  1  0  0  0  0
  5  6  2  0  0  0  0
  6  7  1  0  0  0  0
  2  7  2  0  0  0  0
  1  8  2  0  0  0  0
  1  9  1  0  0  0  0
 10 11  1  0  0  0  0
  4 10  1  0  0  0  0
 13 14  1  0  0  0  0
 14 15  1  6  0  0  0
 14 16  1  0  0  0  0
 16 17  1  1  0  0  0
 16 18  1  0  0  0  0
 18 19  1  6  0  0  0
 18 20  1  0  0  0  0
 20 21  1  0  0  0  0
 20 22  1  1  0  0  0
 22 23  1  0  0  0  0
 13 21  1  0  0  0  0
 24 25  1  0  0  0  0
 25 26  1  0  0  0  0
 26 27  2  0  0  0  0
 27 28  1  0  0  0  0
 28 29  2  0  0  0  0
 29 30  1  0  0  0  0
 25 30  2  0  0  0  0
 24 31  2  0  0  0  0
 32 33  1  0  0  0  0
 29 32  1  0  0  0  0
 34 35  1  0  0  0  0
 27 34  1  0  0  0  0
 28 36  1  0  0  0  0
 23 24  1  0  0  0  0
 13 12  1  1  0  0  0
  5 12  1  0  0  0  0
M  END
>  <cdx:groupId>
116

>  <cdx:fragmentId>
117

$$$$
