38061.cdx
  Mrv1902 05222410252D          

 26 26  0  0  0  0            999 V2000
    5.2153   -8.7871    0.0000 C   0  0  0  0  0  0  0  0  0  0  0  0
    5.9298   -8.3746    0.0000 C   0  0  2  0  0  0  0  0  0  0  0  0
    6.6443   -8.7871    0.0000 C   0  0  2  0  0  0  0  0  0  0  0  0
    7.3587   -8.3746    0.0000 C   0  0  1  0  0  0  0  0  0  0  0  0
    8.0732   -8.7871    0.0000 C   0  0  2  0  0  0  0  0  0  0  0  0
    8.7877   -8.3746    0.0000 C   0  0  0  0  0  0  0  0  0  0  0  0
    5.2153   -9.6121    0.0000 O   0  0  0  0  0  0  0  0  0  0  0  0
    4.5009   -8.3746    0.0000 O   0  0  0  0  0  0  0  0  0  0  0  0
    8.7877   -7.5496    0.0000 O   0  0  0  0  0  0  0  0  0  0  0  0
    9.5021   -8.7871    0.0000 O   0  0  0  0  0  0  0  0  0  0  0  0
    8.0732   -9.6121    0.0000 O   0  0  0  0  0  0  0  0  0  0  0  0
    7.3587   -7.5496    0.0000 O   0  0  0  0  0  0  0  0  0  0  0  0
    6.6443   -9.6121    0.0000 O   0  0  0  0  0  0  0  0  0  0  0  0
    5.9298   -7.5496    0.0000 O   0  0  0  0  0  0  0  0  0  0  0  0
    6.9629   -6.8639    0.0000 C   0  0  0  0  0  0  0  0  0  0  0  0
    7.3587   -6.1782    0.0000 C   0  0  0  0  0  0  0  0  0  0  0  0
    6.1711   -6.8639    0.0000 O   0  0  0  0  0  0  0  0  0  0  0  0
    6.9629   -5.4926    0.0000 C   0  0  0  0  0  0  0  0  0  0  0  0
    7.3587   -4.8069    0.0000 C   0  0  0  0  0  0  0  0  0  0  0  0
    8.1837   -4.8069    0.0000 C   0  0  0  0  0  0  0  0  0  0  0  0
    8.5962   -4.0925    0.0000 C   0  0  0  0  0  0  0  0  0  0  0  0
    8.1837   -3.3780    0.0000 C   0  0  0  0  0  0  0  0  0  0  0  0
    7.3587   -3.3780    0.0000 C   0  0  0  0  0  0  0  0  0  0  0  0
    6.9462   -4.0925    0.0000 C   0  0  0  0  0  0  0  0  0  0  0  0
    8.5962   -2.6635    0.0000 O   0  0  0  0  0  0  0  0  0  0  0  0
    6.9462   -2.6635    0.0000 O   0  0  0  0  0  0  0  0  0  0  0  0
  1  2  1  0  0  0  0
  2  3  1  0  0  0  0
  3  4  1  0  0  0  0
  4  5  1  0  0  0  0
  5  6  1  0  0  0  0
  1  7  2  0  0  0  0
  1  8  1  0  0  0  0
  6  9  2  0  0  0  0
  6 10  1  0  0  0  0
  5 11  1  6  0  0  0
  4 12  1  6  0  0  0
  3 13  1  6  0  0  0
  2 14  1  1  0  0  0
 12 15  1  0  0  0  0
 15 16  1  0  0  0  0
 15 17  2  0  0  0  0
 16 18  2  0  0  0  0
 18 19  1  0  0  0  0
 19 20  2  0  0  0  0
 20 21  1  0  0  0  0
 21 22  2  0  0  0  0
 22 23  1  0  0  0  0
 23 24  2  0  0  0  0
 24 19  1  0  0  0  0
 22 25  1  0  0  0  0
 23 26  1  0  0  0  0
M  END
>  <cdx:groupId>
43

>  <cdx:fragmentId>
5

$$$$
