38065.cdx
  Mrv1902 05222410232D          

 22 24  0  0  0  0            999 V2000
    5.8143   -4.2031    0.0000 C   0  0  0  0  0  0  0  0  0  0  0  0
    5.0998   -4.6156    0.0000 C   0  0  0  0  0  0  0  0  0  0  0  0
    4.3854   -4.2031    0.0000 C   0  0  0  0  0  0  0  0  0  0  0  0
    3.6709   -4.6156    0.0000 C   0  0  0  0  0  0  0  0  0  0  0  0
    2.9564   -4.2031    0.0000 C   0  0  0  0  0  0  0  0  0  0  0  0
    2.9564   -3.3781    0.0000 C   0  0  0  0  0  0  0  0  0  0  0  0
    3.6709   -2.9656    0.0000 C   0  0  0  0  0  0  0  0  0  0  0  0
    4.3854   -3.3781    0.0000 C   0  0  0  0  0  0  0  0  0  0  0  0
    5.0998   -2.9656    0.0000 O   0  0  0  0  0  0  0  0  0  0  0  0
    5.8143   -3.3781    0.0000 C   0  0  0  0  0  0  0  0  0  0  0  0
    6.5288   -4.6156    0.0000 C   0  0  0  0  0  0  0  0  0  0  0  0
    6.5288   -5.4406    0.0000 C   0  0  0  0  0  0  0  0  0  0  0  0
    7.2432   -5.8531    0.0000 C   0  0  0  0  0  0  0  0  0  0  0  0
    7.9577   -5.4406    0.0000 C   0  0  0  0  0  0  0  0  0  0  0  0
    7.9577   -4.6156    0.0000 C   0  0  0  0  0  0  0  0  0  0  0  0
    7.2432   -4.2031    0.0000 C   0  0  0  0  0  0  0  0  0  0  0  0
    8.6722   -5.8531    0.0000 O   0  0  0  0  0  0  0  0  0  0  0  0
    9.3866   -5.4406    0.0000 C   0  0  0  0  0  0  0  0  0  0  0  0
    5.8143   -5.8531    0.0000 O   0  0  0  0  0  0  0  0  0  0  0  0
    2.2419   -2.9656    0.0000 O   0  0  0  0  0  0  0  0  0  0  0  0
    5.0998   -5.4406    0.0000 O   0  0  0  0  0  0  0  0  0  0  0  0
    5.8143   -5.0281    0.0000 O   0  0  0  0  0  0  0  0  0  0  0  0
  1  2  1  0  0  0  0
  2  3  1  0  0  0  0
  3  4  1  0  0  0  0
  4  5  2  0  0  0  0
  5  6  1  0  0  0  0
  6  7  2  0  0  0  0
  7  8  1  0  0  0  0
  3  8  2  0  0  0  0
  8  9  1  0  0  0  0
  9 10  1  0  0  0  0
  1 10  1  0  0  0  0
  1 11  1  0  0  0  0
 11 12  1  0  0  0  0
 12 13  2  0  0  0  0
 13 14  1  0  0  0  0
 14 15  2  0  0  0  0
 15 16  1  0  0  0  0
 11 16  2  0  0  0  0
 17 18  1  0  0  0  0
 14 17  1  0  0  0  0
 12 19  1  0  0  0  0
  6 20  1  0  0  0  0
  2 21  1  0  0  0  0
  1 22  1  0  0  0  0
M  END
>  <cdx:groupId>
74

>  <cdx:fragmentId>
9

$$$$
