38069.cdx
  Mrv1902 05222410222D          

 24 25  0  0  0  0            999 V2000
   10.8751   -4.7977    0.0000 C   0  0  0  0  0  0  0  0  0  0  0  0
   10.1606   -5.2102    0.0000 C   0  0  0  0  0  0  0  0  0  0  0  0
   10.1606   -6.0352    0.0000 N   0  0  0  0  0  0  0  0  0  0  0  0
    9.4461   -6.4477    0.0000 C   0  0  0  0  0  0  0  0  0  0  0  0
    8.7317   -6.0352    0.0000 C   0  0  0  0  0  0  0  0  0  0  0  0
    8.0172   -6.4477    0.0000 C   0  0  0  0  0  0  0  0  0  0  0  0
    8.7317   -5.2102    0.0000 C   0  0  0  0  0  0  0  0  0  0  0  0
    8.0172   -4.7977    0.0000 C   0  0  0  0  0  0  0  0  0  0  0  0
    7.3027   -5.2102    0.0000 O   0  0  0  0  0  0  0  0  0  0  0  0
    9.4461   -4.7977    0.0000 C   0  0  0  0  0  0  0  0  0  0  0  0
    9.4461   -3.9727    0.0000 O   0  0  0  0  0  0  0  0  0  0  0  0
    6.5883   -4.7977    0.0000 C   0  0  0  0  0  0  0  0  0  0  0  0
    7.3027   -6.0352    0.0000 O   0  0  0  0  0  0  0  0  0  0  0  0
    6.5883   -6.4477    0.0000 C   0  0  1  0  0  0  0  0  0  0  0  0
    6.5883   -7.2727    0.0000 C   0  0  2  0  0  0  0  0  0  0  0  0
    7.3027   -7.6852    0.0000 O   0  0  0  0  0  0  0  0  0  0  0  0
    5.8738   -7.6852    0.0000 C   0  0  1  0  0  0  0  0  0  0  0  0
    5.8738   -8.5102    0.0000 O   0  0  0  0  0  0  0  0  0  0  0  0
    5.1593   -7.2727    0.0000 C   0  0  2  0  0  0  0  0  0  0  0  0
    4.4448   -7.6852    0.0000 O   0  0  0  0  0  0  0  0  0  0  0  0
    5.1593   -6.4477    0.0000 C   0  0  2  0  0  0  0  0  0  0  0  0
    5.8738   -6.0352    0.0000 O   0  0  0  0  0  0  0  0  0  0  0  0
    4.4448   -6.0352    0.0000 C   0  0  0  0  0  0  0  0  0  0  0  0
    3.7304   -6.4477    0.0000 O   0  0  0  0  0  0  0  0  0  0  0  0
  1  2  1  0  0  0  0
  2  3  2  0  0  0  0
  3  4  1  0  0  0  0
  4  5  2  0  0  0  0
  5  6  1  0  0  0  0
  5  7  1  0  0  0  0
  7  8  1  0  0  0  0
  8  9  1  0  0  0  0
  7 10  2  0  0  0  0
  2 10  1  0  0  0  0
 10 11  1  0  0  0  0
  9 12  1  0  0  0  0
 14 13  1  1  0  0  0
 14 15  1  0  0  0  0
 15 16  1  6  0  0  0
 15 17  1  0  0  0  0
 17 18  1  1  0  0  0
 17 19  1  0  0  0  0
 19 20  1  6  0  0  0
 19 21  1  0  0  0  0
 21 22  1  0  0  0  0
 21 23  1  1  0  0  0
 23 24  1  0  0  0  0
 14 22  1  0  0  0  0
  6 13  1  0  0  0  0
M  END
>  <cdx:fragmentId>
43

$$$$
