38066.cdx
  Mrv1902 05222410242D          

 26 29  0  0  0  0            999 V2000
    8.7396   -8.0649    0.0000 H   0  0  0  0  0  0  0  0  0  0  0  0
    8.7468  -10.3972    0.0000 H   0  0  0  0  0  0  0  0  0  0  0  0
    7.8916   -5.5449    0.0000 O   0  0  0  0  0  0  0  0  0  0  0  0
    6.5312   -5.1076    0.0000 N   0  0  0  0  0  0  0  0  0  0  0  0
    7.0851   -5.7189    0.0000 C   0  0  0  0  0  0  0  0  0  0  0  0
    6.8326   -6.5043    0.0000 O   0  0  0  0  0  0  0  0  0  0  0  0
    7.3865   -7.1157    0.0000 C   0  0  0  0  0  0  0  0  0  0  0  0
    7.8735   -7.7817    0.0000 O   0  0  0  0  0  0  0  0  0  0  0  0
    9.9471   -9.2273    0.0000 C   0  0  0  0  0  0  0  0  0  0  0  0
    4.2106   -9.4026    0.0000 C   0  0  0  0  0  0  0  0  0  0  0  0
    5.6421  -10.2232    0.0000 O   0  0  0  0  0  0  0  0  0  0  0  0
    5.6319   -6.9232    0.0000 O   0  0  0  0  0  0  0  0  0  0  0  0
    4.2055   -7.7526    0.0000 O   0  5  0  0  0  0  0  0  0  0  0  0
    9.1221   -9.2299    0.0000 N   0  0  0  0  0  0  0  0  0  0  0  0
    7.6251   -9.9019    0.0000 C   0  0  0  0  0  0  0  0  0  0  0  0
    8.4090   -9.6446    0.0000 C   0  0  1  0  0  0  0  0  0  0  0  0
    8.4064   -8.8196    0.0000 C   0  0  1  0  0  0  0  0  0  0  0  0
    6.3527   -8.9835    0.0000 C   0  0  0  0  0  0  0  0  0  0  0  0
    5.6395   -9.3982    0.0000 C   0  0  0  0  0  0  0  0  0  0  0  0
    4.9238   -8.9879    0.0000 C   0  0  0  0  0  0  0  0  0  0  0  0
    4.9213   -8.1629    0.0000 C   0  0  0  0  0  0  0  0  0  0  0  0
    5.6345   -7.7482    0.0000 C   0  0  0  0  0  0  0  0  0  0  0  0
    6.3502   -8.1585    0.0000 C   0  0  0  0  0  0  0  0  0  0  0  0
    7.1340   -7.9011    0.0000 C   0  0  1  0  0  0  0  0  0  0  0  0
    7.6210   -8.5671    0.0000 C   0  0  1  0  0  0  0  0  0  0  0  0
    7.1381   -9.2360    0.0000 N   0  0  0  0  0  0  0  0  0  0  0  0
 17  1  1  6  0  0  0
 16  2  1  6  0  0  0
 24  7  1  6  0  0  0
  7  6  1  0  0  0  0
  6  5  1  0  0  0  0
  5  3  2  0  0  0  0
  5  4  1  0  0  0  0
 25  8  1  6  0  0  0
 14  9  1  0  0  0  0
 20 10  1  0  0  0  0
 19 11  2  0  0  0  0
 22 12  2  0  0  0  0
 21 13  1  0  0  0  0
 17 25  1  0  0  0  0
 15 26  1  0  0  0  0
 14 16  1  0  0  0  0
 14 17  1  0  0  0  0
 16 15  1  0  0  0  0
 17 16  1  0  0  0  0
 23 18  2  0  0  0  0
 26 18  1  0  0  0  0
 19 18  1  0  0  0  0
 20 19  1  0  0  0  0
 21 20  2  0  0  0  0
 22 21  1  0  0  0  0
 23 22  1  0  0  0  0
 24 23  1  0  0  0  0
 25 24  1  0  0  0  0
 26 25  1  0  0  0  0
M  CHG  1  13  -1
M  END
>  <cdx:fragmentId>
5

$$$$
