38068.cdx
  Mrv1902 05222410232D          

 26 28  0  0  0  0            999 V2000
   10.6572   -6.0182    0.0000 C   0  0  0  0  0  0  0  0  0  0  0  0
    9.8322   -6.0155    0.0000 C   0  0  0  0  0  0  0  0  0  0  0  0
    9.4174   -6.7286    0.0000 C   0  0  0  0  0  0  0  0  0  0  0  0
    9.8276   -7.4444    0.0000 C   0  0  0  0  0  0  0  0  0  0  0  0
   10.6526   -7.4471    0.0000 C   0  0  0  0  0  0  0  0  0  0  0  0
   11.0674   -6.7340    0.0000 C   0  0  0  0  0  0  0  0  0  0  0  0
   11.0627   -8.1629    0.0000 O   0  0  0  0  0  0  0  0  0  0  0  0
   10.6479   -8.8760    0.0000 C   0  0  0  0  0  0  0  0  0  0  0  0
    8.5924   -6.7259    0.0000 C   0  0  0  0  0  0  0  0  0  0  0  0
    8.1097   -6.0569    0.0000 C   0  0  0  0  0  0  0  0  0  0  0  0
    7.3242   -6.3093    0.0000 C   0  0  0  0  0  0  0  0  0  0  0  0
    7.3215   -7.1343    0.0000 C   0  0  0  0  0  0  0  0  0  0  0  0
    8.1053   -7.3918    0.0000 O   0  0  0  0  0  0  0  0  0  0  0  0
    6.6111   -5.8945    0.0000 C   0  0  0  0  0  0  0  0  0  0  0  0
    5.8953   -6.3093    0.0000 C   0  0  0  0  0  0  0  0  0  0  0  0
    5.8953   -7.1343    0.0000 C   0  0  0  0  0  0  0  0  0  0  0  0
    6.6111   -7.5491    0.0000 C   0  0  0  0  0  0  0  0  0  0  0  0
   11.8924   -6.7367    0.0000 O   0  0  0  0  0  0  0  0  0  0  0  0
    8.3672   -5.2731    0.0000 C   0  0  0  0  0  0  0  0  0  0  0  0
    7.8171   -4.6582    0.0000 O   0  0  0  0  0  0  0  0  0  0  0  0
    5.1805   -5.8974    0.0000 C   0  0  0  0  0  0  0  0  0  0  0  0
    4.4663   -6.3105    0.0000 C   0  0  0  0  0  0  0  0  0  0  0  0
    3.7515   -5.8985    0.0000 C   0  0  0  0  0  0  0  0  0  0  0  0
    3.0374   -6.3116    0.0000 O   0  0  0  0  0  0  0  0  0  0  0  0
    6.6125   -8.3741    0.0000 O   0  0  0  0  0  0  0  0  0  0  0  0
    5.8987   -8.7878    0.0000 C   0  0  0  0  0  0  0  0  0  0  0  0
  1  2  2  0  0  0  0
  2  3  1  0  0  0  0
  3  4  2  0  0  0  0
  4  5  1  0  0  0  0
  5  6  2  0  0  0  0
  6  1  1  0  0  0  0
  5  7  1  0  0  0  0
  7  8  1  0  0  0  0
  3  9  1  0  0  0  0
  9 10  1  0  0  0  0
 10 11  1  0  0  0  0
 11 12  2  0  0  0  0
 12 13  1  0  0  0  0
 13  9  1  0  0  0  0
 11 14  1  0  0  0  0
 14 15  2  0  0  0  0
 15 16  1  0  0  0  0
 16 17  2  0  0  0  0
 17 12  1  0  0  0  0
  6 18  1  0  0  0  0
 10 19  1  0  0  0  0
 19 20  1  0  0  0  0
 15 21  1  0  0  0  0
 21 22  1  0  0  0  0
 22 23  1  0  0  0  0
 23 24  1  0  0  0  0
 17 25  1  0  0  0  0
 25 26  1  0  0  0  0
M  END
>  <cdx:fragmentId>
1320

$$$$
