38067.cdx
  Mrv1902 05222410242D          

 36 39  0  0  0  0            999 V2000
    6.7773   -4.4458    0.0000 O   0  0  0  0  0  0  0  0  0  0  0  0
    6.0629   -4.8583    0.0000 C   0  0  1  0  0  0  0  0  0  0  0  0
    6.0629   -5.6833    0.0000 C   0  0  2  0  0  0  0  0  0  0  0  0
    6.7773   -6.0958    0.0000 O   0  0  0  0  0  0  0  0  0  0  0  0
    5.3484   -6.0958    0.0000 C   0  0  1  0  0  0  0  0  0  0  0  0
    5.3484   -6.9208    0.0000 O   0  0  0  0  0  0  0  0  0  0  0  0
    4.6339   -5.6833    0.0000 C   0  0  2  0  0  0  0  0  0  0  0  0
    3.9194   -6.0958    0.0000 O   0  0  0  0  0  0  0  0  0  0  0  0
    4.6339   -4.8583    0.0000 C   0  0  2  0  0  0  0  0  0  0  0  0
    5.3484   -4.4458    0.0000 O   0  0  0  0  0  0  0  0  0  0  0  0
    3.9194   -4.4458    0.0000 C   0  0  0  0  0  0  0  0  0  0  0  0
    3.2050   -4.8583    0.0000 O   0  0  0  0  0  0  0  0  0  0  0  0
    7.4918   -5.6833    0.0000 C   0  0  0  0  0  0  0  0  0  0  0  0
    7.4918   -4.8583    0.0000 C   0  0  0  0  0  0  0  0  0  0  0  0
    8.2063   -4.4458    0.0000 C   0  0  0  0  0  0  0  0  0  0  0  0
    8.9207   -4.8583    0.0000 C   0  0  0  0  0  0  0  0  0  0  0  0
    8.9207   -5.6833    0.0000 C   0  0  0  0  0  0  0  0  0  0  0  0
    9.6352   -6.0958    0.0000 C   0  0  0  0  0  0  0  0  0  0  0  0
    9.6352   -6.9208    0.0000 C   0  0  0  0  0  0  0  0  0  0  0  0
   10.3497   -7.3333    0.0000 C   0  0  0  0  0  0  0  0  0  0  0  0
   10.3497   -8.1583    0.0000 C   0  0  0  0  0  0  0  0  0  0  0  0
    9.6352   -8.5708    0.0000 C   0  0  0  0  0  0  0  0  0  0  0  0
    8.9207   -8.1583    0.0000 C   0  0  0  0  0  0  0  0  0  0  0  0
    8.9207   -7.3333    0.0000 C   0  0  0  0  0  0  0  0  0  0  0  0
    8.2063   -6.9208    0.0000 C   0  0  0  0  0  0  0  0  0  0  0  0
    8.2063   -6.0958    0.0000 C   0  0  0  0  0  0  0  0  0  0  0  0
    9.6352   -9.3958    0.0000 O   0  0  0  0  0  0  0  0  0  0  0  0
   10.3497   -9.8083    0.0000 C   0  0  0  0  0  0  0  0  0  0  0  0
   11.0641   -8.5708    0.0000 O   0  0  0  0  0  0  0  0  0  0  0  0
   11.7786   -8.1583    0.0000 C   0  0  0  0  0  0  0  0  0  0  0  0
    8.2063   -3.6208    0.0000 O   0  0  0  0  0  0  0  0  0  0  0  0
    7.4918   -3.2083    0.0000 C   0  0  0  0  0  0  0  0  0  0  0  0
   10.3497   -5.6833    0.0000 O   0  0  0  0  0  0  0  0  0  0  0  0
    7.4918   -7.3333    0.0000 O   0  0  0  0  0  0  0  0  0  0  0  0
    8.2063   -8.5708    0.0000 O   0  0  0  0  0  0  0  0  0  0  0  0
    9.6352   -4.4458    0.0000 O   0  0  0  0  0  0  0  0  0  0  0  0
  2  1  1  1  0  0  0
  2  3  1  0  0  0  0
  3  4  1  6  0  0  0
  3  5  1  0  0  0  0
  5  6  1  1  0  0  0
  5  7  1  0  0  0  0
  7  8  1  6  0  0  0
  7  9  1  0  0  0  0
  9 10  1  0  0  0  0
  9 11  1  1  0  0  0
 11 12  1  0  0  0  0
  2 10  1  0  0  0  0
 13 14  1  0  0  0  0
 14 15  2  0  0  0  0
 15 16  1  0  0  0  0
 16 17  2  0  0  0  0
 17 18  1  0  0  0  0
 18 19  2  0  0  0  0
 19 20  1  0  0  0  0
 20 21  2  0  0  0  0
 21 22  1  0  0  0  0
 22 23  2  0  0  0  0
 23 24  1  0  0  0  0
 19 24  1  0  0  0  0
 24 25  2  0  0  0  0
 25 26  1  0  0  0  0
 17 26  1  0  0  0  0
 13 26  2  0  0  0  0
 27 28  1  0  0  0  0
 22 27  1  0  0  0  0
 29 30  1  0  0  0  0
 21 29  1  0  0  0  0
 31 32  1  0  0  0  0
 15 31  1  0  0  0  0
 18 33  1  0  0  0  0
 25 34  1  0  0  0  0
 23 35  1  0  0  0  0
 16 36  1  0  0  0  0
  1 14  1  0  0  0  0
M  END
>  <cdx:fragmentId>
33

$$$$
