38063.cdx
  Mrv1902 05222410252D          

 36 41  0  0  0  0            999 V2000
   12.5520   -4.9479    0.0000 C   0  0  0  0  0  0  0  0  0  0  0  0
   12.5520   -4.1229    0.0000 C   0  0  0  0  0  0  0  0  0  0  0  0
   11.8375   -3.7104    0.0000 C   0  0  0  0  0  0  0  0  0  0  0  0
   11.1230   -4.1229    0.0000 C   0  0  0  0  0  0  0  0  0  0  0  0
   11.1230   -4.9479    0.0000 C   0  0  0  0  0  0  0  0  0  0  0  0
   10.4086   -5.3604    0.0000 C   0  0  0  0  0  0  0  0  0  0  0  0
    9.6941   -4.9479    0.0000 C   0  0  0  0  0  0  0  0  0  0  0  0
    8.9796   -5.3604    0.0000 C   0  0  0  0  0  0  0  0  0  0  0  0
    8.9796   -6.1854    0.0000 C   0  0  0  0  0  0  0  0  0  0  0  0
    9.6941   -6.5979    0.0000 C   0  0  0  0  0  0  0  0  0  0  0  0
   10.4086   -6.1854    0.0000 C   0  0  0  0  0  0  0  0  0  0  0  0
   11.1230   -6.5979    0.0000 C   0  0  0  0  0  0  0  0  0  0  0  0
   11.8375   -6.1854    0.0000 C   0  0  0  0  0  0  0  0  0  0  0  0
   11.8375   -5.3604    0.0000 C   0  0  0  0  0  0  0  0  0  0  0  0
    8.2652   -4.9479    0.0000 C   0  0  0  0  0  0  0  0  0  0  0  0
    8.2652   -4.1229    0.0000 C   0  0  0  0  0  0  0  0  0  0  0  0
    7.5507   -3.7104    0.0000 C   0  0  0  0  0  0  0  0  0  0  0  0
    6.8362   -4.1229    0.0000 C   0  0  0  0  0  0  0  0  0  0  0  0
    6.8362   -4.9479    0.0000 C   0  0  0  0  0  0  0  0  0  0  0  0
    6.1218   -5.3604    0.0000 C   0  0  0  0  0  0  0  0  0  0  0  0
    5.4073   -4.9479    0.0000 C   0  0  0  0  0  0  0  0  0  0  0  0
    4.6928   -5.3604    0.0000 C   0  0  0  0  0  0  0  0  0  0  0  0
    4.6928   -6.1854    0.0000 C   0  0  0  0  0  0  0  0  0  0  0  0
    5.4073   -6.5979    0.0000 C   0  0  0  0  0  0  0  0  0  0  0  0
    6.1218   -6.1854    0.0000 C   0  0  0  0  0  0  0  0  0  0  0  0
    6.8362   -6.5979    0.0000 C   0  0  0  0  0  0  0  0  0  0  0  0
    7.5507   -6.1854    0.0000 C   0  0  0  0  0  0  0  0  0  0  0  0
    7.5507   -5.3604    0.0000 C   0  0  0  0  0  0  0  0  0  0  0  0
   13.2665   -3.7104    0.0000 O   0  0  0  0  0  0  0  0  0  0  0  0
    8.9796   -3.7104    0.0000 O   0  0  0  0  0  0  0  0  0  0  0  0
    8.2652   -6.5979    0.0000 O   0  0  0  0  0  0  0  0  0  0  0  0
    3.9783   -6.5979    0.0000 O   0  0  0  0  0  0  0  0  0  0  0  0
    6.1218   -3.7104    0.0000 O   0  0  0  0  0  0  0  0  0  0  0  0
    5.4073   -4.1229    0.0000 C   0  0  0  0  0  0  0  0  0  0  0  0
   10.4086   -3.7104    0.0000 O   0  0  0  0  0  0  0  0  0  0  0  0
    9.6941   -4.1229    0.0000 C   0  0  0  0  0  0  0  0  0  0  0  0
  1  2  1  0  0  0  0
  2  3  2  0  0  0  0
  3  4  1  0  0  0  0
  4  5  2  0  0  0  0
  5  6  1  0  0  0  0
  6  7  1  0  0  0  0
  7  8  2  0  0  0  0
  8  9  1  0  0  0  0
  9 10  2  0  0  0  0
 10 11  1  0  0  0  0
  6 11  2  0  0  0  0
 11 12  1  0  0  0  0
 12 13  1  0  0  0  0
 13 14  1  0  0  0  0
  1 14  2  0  0  0  0
  5 14  1  0  0  0  0
 15 16  1  0  0  0  0
 16 17  2  0  0  0  0
 17 18  1  0  0  0  0
 18 19  2  0  0  0  0
 19 20  1  0  0  0  0
 20 21  2  0  0  0  0
 21 22  1  0  0  0  0
 22 23  2  0  0  0  0
 23 24  1  0  0  0  0
 24 25  2  0  0  0  0
 20 25  1  0  0  0  0
 25 26  1  0  0  0  0
 26 27  2  0  0  0  0
 27 28  1  0  0  0  0
 15 28  2  0  0  0  0
 19 28  1  0  0  0  0
  8 15  1  0  0  0  0
  2 29  1  0  0  0  0
 16 30  1  0  0  0  0
  9 31  1  0  0  0  0
 23 32  1  0  0  0  0
 33 34  1  0  0  0  0
 18 33  1  0  0  0  0
 35 36  1  0  0  0  0
  4 35  1  0  0  0  0
M  END
>  <cdx:groupId>
122

>  <cdx:fragmentId>
40

$$$$
