38076.cdx
  Mrv1902 05222410252D          

 25 28  0  0  0  0            999 V2000
    6.6079   -8.4815    0.0000 C   0  0  0  0  0  0  0  0  0  0  0  0
    7.3224   -8.0690    0.0000 N   0  0  0  0  0  0  0  0  0  0  0  0
    7.3224   -7.2440    0.0000 C   0  0  0  0  0  0  0  0  0  0  0  0
    6.6079   -6.8315    0.0000 C   0  0  0  0  0  0  0  0  0  0  0  0
    5.8935   -7.2440    0.0000 C   0  0  0  0  0  0  0  0  0  0  0  0
    5.1790   -6.8315    0.0000 C   0  0  0  0  0  0  0  0  0  0  0  0
    4.4645   -7.2440    0.0000 C   0  0  0  0  0  0  0  0  0  0  0  0
    4.4645   -8.0690    0.0000 C   0  0  0  0  0  0  0  0  0  0  0  0
    5.1790   -8.4815    0.0000 C   0  0  0  0  0  0  0  0  0  0  0  0
    5.8935   -8.0690    0.0000 C   0  0  0  0  0  0  0  0  0  0  0  0
    8.0369   -8.4815    0.0000 C   0  0  0  0  0  0  0  0  0  0  0  0
    8.7513   -8.0690    0.0000 C   0  0  0  0  0  0  0  0  0  0  0  0
    8.7513   -7.2440    0.0000 C   0  0  0  0  0  0  0  0  0  0  0  0
    9.4658   -6.8315    0.0000 C   0  0  0  0  0  0  0  0  0  0  0  0
    9.4658   -6.0065    0.0000 C   0  0  0  0  0  0  0  0  0  0  0  0
    8.7513   -5.5940    0.0000 C   0  0  0  0  0  0  0  0  0  0  0  0
    8.0369   -6.0065    0.0000 C   0  0  0  0  0  0  0  0  0  0  0  0
    8.0369   -6.8315    0.0000 C   0  0  0  0  0  0  0  0  0  0  0  0
    5.1790   -9.3065    0.0000 O   0  0  0  0  0  0  0  0  0  0  0  0
    4.4645   -9.7190    0.0000 C   0  0  0  0  0  0  0  0  0  0  0  0
    6.6079   -9.3065    0.0000 O   0  0  0  0  0  0  0  0  0  0  0  0
    5.8935   -9.7190    0.0000 C   0  0  0  0  0  0  0  0  0  0  0  0
    8.7513   -4.7690    0.0000 O   0  0  0  0  0  0  0  0  0  0  0  0
    9.4658   -4.3565    0.0000 C   0  0  0  0  0  0  0  0  0  0  0  0
   10.1803   -5.5940    0.0000 O   0  0  0  0  0  0  0  0  0  0  0  0
  1  2  1  0  0  0  0
  2  3  1  0  0  0  0
  3  4  1  0  0  0  0
  4  5  2  0  0  0  0
  5  6  1  0  0  0  0
  6  7  1  0  0  0  0
  7  8  1  0  0  0  0
  8  9  1  0  0  0  0
  9 10  2  0  0  0  0
  1 10  1  0  0  0  0
  5 10  1  0  0  0  0
 11 12  1  0  0  0  0
 12 13  1  0  0  0  0
 13 14  1  0  0  0  0
 14 15  1  0  0  0  0
 15 16  2  0  0  0  0
 16 17  1  0  0  0  0
 17 18  2  0  0  0  0
 13 18  1  0  0  0  0
 11  2  1  0  0  0  0
 18  3  1  0  0  0  0
 19 20  1  0  0  0  0
  9 19  1  0  0  0  0
 21 22  1  0  0  0  0
  1 21  1  0  0  0  0
 23 24  1  0  0  0  0
 16 23  1  0  0  0  0
 15 25  1  0  0  0  0
M  END
>  <cdx:fragmentId>
116

$$$$
