38074-.cdx
  Mrv1902 05222410252D          

 27 27  0  0  0  0            999 V2000
    5.0049   -6.1698    0.0000 C   0  0  0  0  0  0  0  0  0  0  0  0
    5.7194   -6.5823    0.0000 C   0  0  0  0  0  0  0  0  0  0  0  0
    6.4338   -6.1698    0.0000 C   0  0  0  0  0  0  0  0  0  0  0  0
    7.1483   -6.5823    0.0000 C   0  0  0  0  0  0  0  0  0  0  0  0
    7.8628   -6.1698    0.0000 C   0  0  0  0  0  0  0  0  0  0  0  0
    8.5773   -6.5823    0.0000 C   0  0  0  0  0  0  0  0  0  0  0  0
    9.2917   -6.1698    0.0000 C   0  0  0  0  0  0  0  0  0  0  0  0
   10.0062   -6.5823    0.0000 C   0  0  0  0  0  0  0  0  0  0  0  0
   10.7207   -6.1698    0.0000 C   0  0  0  0  0  0  0  0  0  0  0  0
   11.4351   -6.5823    0.0000 C   0  0  0  0  0  0  0  0  0  0  0  0
   12.1496   -6.1698    0.0000 C   0  0  0  0  0  0  0  0  0  0  0  0
   12.8641   -6.5823    0.0000 C   0  0  0  0  0  0  0  0  0  0  0  0
   13.5785   -6.1698    0.0000 C   0  0  0  0  0  0  0  0  0  0  0  0
   14.2930   -6.5823    0.0000 C   0  0  0  0  0  0  0  0  0  0  0  0
   15.0075   -6.1698    0.0000 C   0  0  0  0  0  0  0  0  0  0  0  0
   15.7220   -6.5823    0.0000 C   0  0  0  0  0  0  0  0  0  0  0  0
    6.4338   -5.3448    0.0000 O   0  0  0  0  0  0  0  0  0  0  0  0
    4.2904   -6.5823    0.0000 C   0  0  0  0  0  0  0  0  0  0  0  0
    3.5760   -6.1698    0.0000 C   0  0  0  0  0  0  0  0  0  0  0  0
    2.8615   -6.5823    0.0000 C   0  0  0  0  0  0  0  0  0  0  0  0
    2.8615   -7.4073    0.0000 C   0  0  0  0  0  0  0  0  0  0  0  0
    3.5760   -7.8198    0.0000 C   0  0  0  0  0  0  0  0  0  0  0  0
    4.2904   -7.4073    0.0000 C   0  0  0  0  0  0  0  0  0  0  0  0
    2.1470   -6.1698    0.0000 O   0  0  0  0  0  0  0  0  0  0  0  0
    1.4325   -6.5823    0.0000 C   0  0  0  0  0  0  0  0  0  0  0  0
    2.1470   -7.8198    0.0000 O   0  0  0  0  0  0  0  0  0  0  0  0
    7.8628   -5.3448    0.0000 O   0  0  0  0  0  0  0  0  0  0  0  0
  1  2  1  0  0  0  0
  2  3  1  0  0  0  0
  3  4  1  0  0  0  0
  4  5  2  0  0  0  0
  5  6  1  0  0  0  0
  6  7  1  0  0  0  0
  7  8  1  0  0  0  0
  8  9  1  0  0  0  0
  9 10  1  0  0  0  0
 10 11  1  0  0  0  0
 11 12  1  0  0  0  0
 12 13  1  0  0  0  0
 13 14  1  0  0  0  0
 14 15  1  0  0  0  0
 15 16  1  0  0  0  0
  3 17  2  0  0  0  0
 18 19  1  0  0  0  0
 19 20  2  0  0  0  0
 20 21  1  0  0  0  0
 21 22  2  0  0  0  0
 22 23  1  0  0  0  0
 18 23  2  0  0  0  0
 24 25  1  0  0  0  0
 20 24  1  0  0  0  0
 21 26  1  0  0  0  0
  1 18  1  0  0  0  0
  5 27  1  0  0  0  0
M  END
>  <cdx:groupId>
87

>  <cdx:fragmentId>
435

$$$$
