38077.cdx
  Mrv1902 05222410252D          

 20 22  0  0  0  0            999 V2000
    5.9592   -7.9728    0.0000 C   0  0  0  0  0  0  0  0  0  0  0  0
    5.4743   -8.6402    0.0000 C   0  0  0  0  0  0  0  0  0  0  0  0
    5.9592   -9.3077    0.0000 C   0  0  1  0  0  0  0  0  0  0  0  0
    6.7438   -9.0527    0.0000 C   0  0  1  0  0  0  0  0  0  0  0  0
    7.4583   -9.4652    0.0000 C   0  0  1  0  0  0  0  0  0  0  0  0
    8.1728   -9.0527    0.0000 C   0  0  1  0  0  0  0  0  0  0  0  0
    8.1728   -8.2277    0.0000 C   0  0  0  0  0  0  0  0  0  0  0  0
    7.4583   -7.8152    0.0000 C   0  0  1  0  0  0  0  0  0  0  0  0
    6.7438   -8.2277    0.0000 C   0  0  2  0  0  0  0  0  0  0  0  0
    8.1728   -9.8777    0.0000 C   0  0  0  0  0  0  0  0  0  0  0  0
    7.0458   -7.1008    0.0000 O   0  0  0  0  0  0  0  0  0  0  0  0
    6.1307  -10.1146    0.0000 O   0  0  0  0  0  0  0  0  0  0  0  0
    5.3461   -9.8597    0.0000 C   0  0  0  0  0  0  0  0  0  0  0  0
    7.8708   -7.1008    0.0000 C   0  0  0  0  0  0  0  0  0  0  0  0
    8.8873  -10.2902    0.0000 C   0  0  0  0  0  0  0  0  0  0  0  0
    8.1728  -10.7027    0.0000 C   0  0  0  0  0  0  0  0  0  0  0  0
    8.9978   -9.0527    0.0000 H   0  0  0  0  0  0  0  0  0  0  0  0
    6.6576   -7.4073    0.0000 H   0  0  0  0  0  0  0  0  0  0  0  0
    6.7438   -9.8777    0.0000 H   0  0  0  0  0  0  0  0  0  0  0  0
    7.0458  -10.1797    0.0000 H   0  0  0  0  0  0  0  0  0  0  0  0
  1  2  1  0  0  0  0
  2  3  1  0  0  0  0
  3  4  1  0  0  0  0
  4  5  1  0  0  0  0
  5  6  1  0  0  0  0
  6  7  1  0  0  0  0
  7  8  1  0  0  0  0
  8  9  1  0  0  0  0
  1  9  1  0  0  0  0
  4  9  1  0  0  0  0
 10  5  1  0  0  0  0
 10  6  1  0  0  0  0
  8 11  1  1  0  0  0
  3 12  1  1  0  0  0
  3 13  1  6  0  0  0
  8 14  1  6  0  0  0
 10 15  1  0  0  0  0
 10 16  1  0  0  0  0
  6 17  1  6  0  0  0
  9 18  1  6  0  0  0
  4 19  1  1  0  0  0
  5 20  1  6  0  0  0
M  END
>  <cdx:fragmentId>
5

$$$$
