38073.cdx
  Mrv1902 05222410242D          

 30 30  0  0  0  0            999 V2000
    4.3661   -3.5843    0.0000 C   0  0  0  0  0  0  0  0  0  0  0  0
    5.0805   -3.9968    0.0000 C   0  0  0  0  0  0  0  0  0  0  0  0
    5.7950   -3.5843    0.0000 C   0  0  0  0  0  0  0  0  0  0  0  0
    6.5095   -3.9968    0.0000 C   0  0  0  0  0  0  0  0  0  0  0  0
    7.2239   -3.5843    0.0000 C   0  0  0  0  0  0  0  0  0  0  0  0
    7.9384   -3.9968    0.0000 C   0  0  0  0  0  0  0  0  0  0  0  0
    8.6529   -3.5843    0.0000 C   0  0  0  0  0  0  0  0  0  0  0  0
    9.3673   -3.9968    0.0000 C   0  0  0  0  0  0  0  0  0  0  0  0
   10.0818   -3.5843    0.0000 C   0  0  0  0  0  0  0  0  0  0  0  0
   10.7963   -3.9968    0.0000 C   0  0  0  0  0  0  0  0  0  0  0  0
   12.9397   -6.0593    0.0000 C   0  0  0  0  0  0  0  0  0  0  0  0
    5.7950   -2.7593    0.0000 O   0  0  0  0  0  0  0  0  0  0  0  0
    3.6516   -3.9968    0.0000 C   0  0  0  0  0  0  0  0  0  0  0  0
    2.9371   -3.5843    0.0000 C   0  0  0  0  0  0  0  0  0  0  0  0
    2.2226   -3.9968    0.0000 C   0  0  0  0  0  0  0  0  0  0  0  0
    2.2226   -4.8218    0.0000 C   0  0  0  0  0  0  0  0  0  0  0  0
    2.9371   -5.2343    0.0000 C   0  0  0  0  0  0  0  0  0  0  0  0
    3.6516   -4.8218    0.0000 C   0  0  0  0  0  0  0  0  0  0  0  0
    1.5082   -3.5843    0.0000 O   0  0  0  0  0  0  0  0  0  0  0  0
    0.7937   -3.9968    0.0000 C   0  0  0  0  0  0  0  0  0  0  0  0
    1.5082   -5.2343    0.0000 O   0  0  0  0  0  0  0  0  0  0  0  0
   12.2252   -6.4718    0.0000 C   0  0  0  0  0  0  0  0  0  0  0  0
   12.2252   -7.2968    0.0000 C   0  0  0  0  0  0  0  0  0  0  0  0
   11.5108   -7.7093    0.0000 C   0  0  0  0  0  0  0  0  0  0  0  0
   11.5108   -8.5343    0.0000 C   0  0  0  0  0  0  0  0  0  0  0  0
   10.7963   -8.9468    0.0000 C   0  0  0  0  0  0  0  0  0  0  0  0
   12.9397   -5.2343    0.0000 C   0  0  0  0  0  0  0  0  0  0  0  0
   12.2252   -4.8218    0.0000 C   0  0  0  0  0  0  0  0  0  0  0  0
   12.2252   -3.9968    0.0000 C   0  0  0  0  0  0  0  0  0  0  0  0
   11.5108   -3.5843    0.0000 C   0  0  0  0  0  0  0  0  0  0  0  0
  1  2  1  0  0  0  0
  2  3  1  0  0  0  0
  3  4  1  0  0  0  0
  4  5  2  0  0  0  0
  5  6  1  0  0  0  0
  6  7  1  0  0  0  0
  7  8  1  0  0  0  0
  8  9  1  0  0  0  0
  9 10  1  0  0  0  0
 10 30  1  0  0  0  0
  3 12  2  0  0  0  0
 13 14  1  0  0  0  0
 14 15  2  0  0  0  0
 15 16  1  0  0  0  0
 16 17  2  0  0  0  0
 17 18  1  0  0  0  0
 13 18  2  0  0  0  0
 19 20  1  0  0  0  0
 15 19  1  0  0  0  0
 16 21  1  0  0  0  0
  1 13  1  0  0  0  0
 11 22  1  0  0  0  0
 22 23  1  0  0  0  0
 23 24  1  0  0  0  0
 24 25  1  0  0  0  0
 27 11  2  0  0  0  0
 25 26  1  0  0  0  0
 28 27  1  0  0  0  0
 29 28  1  0  0  0  0
 30 29  2  0  0  0  0
M  END
>  <cdx:groupId>
128

>  <cdx:fragmentId>
17

$$$$
