38079.cdx
  Mrv1902 05222410212D          

 23 26  0  0  0  0            999 V2000
    2.7816   -6.1572    0.0000 C   0  0  0  0  0  0  0  0  0  0  0  0
    3.4991   -6.5644    0.0000 C   0  0  0  0  0  0  0  0  0  0  0  0
    4.2105   -6.1466    0.0000 C   0  0  0  0  0  0  0  0  0  0  0  0
    6.3753   -9.0181    0.0000 C   0  0  0  0  0  0  0  0  0  0  0  0
    5.6578   -8.6109    0.0000 O   0  0  0  0  0  0  0  0  0  0  0  0
   10.9126   -7.0933    0.0000 O   0  0  0  0  0  0  0  0  0  0  0  0
   10.2538   -8.2543    0.0000 O   0  0  0  0  0  0  0  0  0  0  0  0
   11.0050   -7.9131    0.0000 C   0  0  0  0  0  0  0  0  0  0  0  0
    8.8616   -6.2225    0.0000 C   0  0  0  0  0  0  0  0  0  0  0  0
    9.6866   -6.2164    0.0000 C   0  0  0  0  0  0  0  0  0  0  0  0
   10.1044   -6.9278    0.0000 C   0  0  0  0  0  0  0  0  0  0  0  0
    9.6972   -7.6453    0.0000 C   0  0  0  0  0  0  0  0  0  0  0  0
    8.8723   -7.6514    0.0000 C   0  0  0  0  0  0  0  0  0  0  0  0
    8.4545   -6.9401    0.0000 C   0  0  0  0  0  0  0  0  0  0  0  0
    5.6517   -7.7859    0.0000 C   0  0  0  0  0  0  0  0  0  0  0  0
    4.9341   -7.3787    0.0000 C   0  0  0  0  0  0  0  0  0  0  0  0
    4.9280   -6.5537    0.0000 C   0  0  0  0  0  0  0  0  0  0  0  0
    5.6394   -6.1360    0.0000 C   0  0  0  0  0  0  0  0  0  0  0  0
    6.3630   -7.3681    0.0000 C   0  0  0  0  0  0  0  0  0  0  0  0
    6.3569   -6.5431    0.0000 C   0  0  0  0  0  0  0  0  0  0  0  0
    7.1396   -6.2824    0.0000 C   0  0  0  0  0  0  0  0  0  0  0  0
    7.6295   -6.9462    0.0000 C   0  0  0  0  0  0  0  0  0  0  0  0
    7.1495   -7.6172    0.0000 O   0  0  0  0  0  0  0  0  0  0  0  0
 17  3  1  0  0  0  0
  2  1  2  0  0  0  0
  3  2  1  0  0  0  0
 15  5  1  0  0  0  0
  5  4  1  0  0  0  0
 22 14  1  0  0  0  0
 11  6  1  0  0  0  0
 12  7  1  0  0  0  0
  8  6  1  0  0  0  0
  8  7  1  0  0  0  0
 14  9  1  0  0  0  0
 10  9  2  0  0  0  0
 11 10  1  0  0  0  0
 12 11  2  0  0  0  0
 13 12  1  0  0  0  0
 14 13  2  0  0  0  0
 18 20  2  0  0  0  0
 15 19  2  0  0  0  0
 16 15  1  0  0  0  0
 17 16  2  0  0  0  0
 18 17  1  0  0  0  0
 23 19  1  0  0  0  0
 20 19  1  0  0  0  0
 21 20  1  0  0  0  0
 22 21  2  0  0  0  0
 23 22  1  0  0  0  0
M  END
>  <cdx:groupId>
226

>  <cdx:fragmentId>
102

$$$$
