38078.cdx
  Mrv1902 05222410202D          

 12 12  0  0  0  0            999 V2000
    5.8781   -5.8210    0.0000 O   0  0  0  0  0  0  0  0  0  0  0  0
    5.3260   -6.4341    0.0000 C   0  0  0  0  0  0  0  0  0  0  0  0
    5.7385   -7.1486    0.0000 C   0  0  0  0  0  0  0  0  0  0  0  0
    6.5455   -6.9771    0.0000 C   0  0  0  0  0  0  0  0  0  0  0  0
    6.6317   -6.1566    0.0000 C   0  0  0  0  0  0  0  0  0  0  0  0
    4.5055   -6.3479    0.0000 O   0  0  0  0  0  0  0  0  0  0  0  0
    7.3462   -5.7441    0.0000 C   0  0  0  0  0  0  0  0  0  0  0  0
    8.0607   -6.1566    0.0000 C   0  0  0  0  0  0  0  0  0  0  0  0
    8.7752   -5.7441    0.0000 C   0  0  0  0  0  0  0  0  0  0  0  0
    9.4896   -6.1566    0.0000 C   0  0  0  0  0  0  0  0  0  0  0  0
   10.2041   -5.7441    0.0000 C   0  0  0  0  0  0  0  0  0  0  0  0
    7.3462   -4.9191    0.0000 O   0  0  0  0  0  0  0  0  0  0  0  0
  1  2  1  0  0  0  0
  2  3  1  0  0  0  0
  3  4  2  0  0  0  0
  4  5  1  0  0  0  0
  1  5  1  0  0  0  0
  2  6  2  0  0  0  0
  7  8  1  0  0  0  0
  8  9  1  0  0  0  0
  9 10  1  0  0  0  0
 10 11  1  0  0  0  0
  7 12  1  0  0  0  0
  5  7  1  0  0  0  0
M  END
>  <cdx:groupId>
44

>  <cdx:fragmentId>
11

$$$$
