38071.cdx
  Mrv1902 05222410232D          

 33 36  0  0  0  0            999 V2000
    5.9887   -4.9020    0.0000 C   0  0  0  0  0  0  0  0  0  0  0  0
    5.9887   -5.7270    0.0000 C   0  0  0  0  0  0  0  0  0  0  0  0
    5.2742   -6.1395    0.0000 C   0  0  0  0  0  0  0  0  0  0  0  0
    5.2742   -6.9645    0.0000 O   0  0  0  0  0  0  0  0  0  0  0  0
    4.5597   -5.7270    0.0000 C   0  0  0  0  0  0  0  0  0  0  0  0
    3.8452   -6.1395    0.0000 C   0  0  0  0  0  0  0  0  0  0  0  0
    3.8452   -6.9645    0.0000 O   0  0  0  0  0  0  0  0  0  0  0  0
    3.1308   -5.7270    0.0000 C   0  0  0  0  0  0  0  0  0  0  0  0
    3.1308   -4.9020    0.0000 C   0  0  0  0  0  0  0  0  0  0  0  0
    2.4163   -4.4895    0.0000 O   0  0  0  0  0  0  0  0  0  0  0  0
    3.8452   -4.4895    0.0000 C   0  0  0  0  0  0  0  0  0  0  0  0
    4.5597   -4.9020    0.0000 C   0  0  0  0  0  0  0  0  0  0  0  0
    5.2742   -4.4895    0.0000 O   0  0  0  0  0  0  0  0  0  0  0  0
    6.7031   -4.4895    0.0000 C   0  0  0  0  0  0  0  0  0  0  0  0
    7.4176   -4.9020    0.0000 C   0  0  0  0  0  0  0  0  0  0  0  0
    8.1321   -4.4895    0.0000 C   0  0  0  0  0  0  0  0  0  0  0  0
    8.1321   -3.6645    0.0000 C   0  0  0  0  0  0  0  0  0  0  0  0
    8.8465   -3.2520    0.0000 O   0  0  0  0  0  0  0  0  0  0  0  0
    7.4176   -3.2520    0.0000 C   0  0  0  0  0  0  0  0  0  0  0  0
    6.7031   -3.6645    0.0000 C   0  0  0  0  0  0  0  0  0  0  0  0
    9.5610   -3.6645    0.0000 C   0  0  0  0  0  0  0  0  0  0  0  0
    8.8465   -4.9020    0.0000 O   0  0  0  0  0  0  0  0  0  0  0  0
    8.8465   -5.7270    0.0000 C   0  0  0  0  0  0  0  0  0  0  0  0
    8.1321   -6.1395    0.0000 C   0  0  2  0  0  0  0  0  0  0  0  0
    7.4176   -5.7270    0.0000 O   0  0  0  0  0  0  0  0  0  0  0  0
    8.1321   -6.9645    0.0000 C   0  0  1  0  0  0  0  0  0  0  0  0
    7.4176   -7.3770    0.0000 O   0  0  0  0  0  0  0  0  0  0  0  0
    8.8465   -7.3770    0.0000 C   0  0  2  0  0  0  0  0  0  0  0  0
    8.8465   -8.2020    0.0000 O   0  0  0  0  0  0  0  0  0  0  0  0
    9.5610   -6.9645    0.0000 C   0  0  2  0  0  0  0  0  0  0  0  0
    9.5610   -6.1395    0.0000 O   0  0  0  0  0  0  0  0  0  0  0  0
   10.2755   -7.3770    0.0000 C   0  0  0  0  0  0  0  0  0  0  0  0
   10.9900   -6.9645    0.0000 O   0  0  0  0  0  0  0  0  0  0  0  0
  1  2  2  0  0  0  0
  2  3  1  0  0  0  0
  3  4  2  0  0  0  0
  3  5  1  0  0  0  0
  5  6  1  0  0  0  0
  6  7  1  0  0  0  0
  6  8  2  0  0  0  0
  8  9  1  0  0  0  0
  9 10  1  0  0  0  0
  9 11  2  0  0  0  0
 11 12  1  0  0  0  0
  5 12  2  0  0  0  0
 12 13  1  0  0  0  0
  1 13  1  0  0  0  0
  1 14  1  0  0  0  0
 14 15  1  0  0  0  0
 15 16  2  0  0  0  0
 16 17  1  0  0  0  0
 17 18  1  0  0  0  0
 17 19  2  0  0  0  0
 19 20  1  0  0  0  0
 14 20  2  0  0  0  0
 18 21  1  0  0  0  0
 22 23  1  0  0  0  0
 23 24  1  0  0  0  0
 24 25  1  1  0  0  0
 24 26  1  0  0  0  0
 26 27  1  6  0  0  0
 26 28  1  0  0  0  0
 28 29  1  1  0  0  0
 28 30  1  0  0  0  0
 30 31  1  0  0  0  0
 30 32  1  6  0  0  0
 32 33  1  0  0  0  0
 23 31  1  0  0  0  0
 16 22  1  0  0  0  0
M  END
>  <cdx:groupId>
108

>  <cdx:fragmentId>
9

$$$$
