38082.cdx
  Mrv1902 05222410232D          

 26 27  0  0  0  0            999 V2000
    9.4874   -6.2353    0.0000 C   0  0  0  0  0  0  0  0  0  0  0  0
    8.7730   -6.6478    0.0000 C   0  0  0  0  0  0  0  0  0  0  0  0
    8.0585   -6.2353    0.0000 C   0  0  0  0  0  0  0  0  0  0  0  0
    6.6296   -8.7103    0.0000 C   0  0  0  0  0  0  0  0  0  0  0  0
    7.3440   -9.1228    0.0000 C   0  0  0  0  0  0  0  0  0  0  0  0
    9.4874   -5.4103    0.0000 O   0  0  0  0  0  0  0  0  0  0  0  0
   10.2019   -6.6478    0.0000 O   0  0  0  0  0  0  0  0  0  0  0  0
    7.3440   -7.4728    0.0000 C   0  0  0  0  0  0  0  0  0  0  0  0
    6.6296   -7.8853    0.0000 C   0  0  0  0  0  0  0  0  0  0  0  0
    5.2006   -7.8853    0.0000 O   0  0  0  0  0  0  0  0  0  0  0  0
    5.9151   -7.4728    0.0000 C   0  0  0  0  0  0  0  0  0  0  0  0
    4.4861   -6.6478    0.0000 C   0  0  0  0  0  0  0  0  0  0  0  0
    5.2006   -6.2353    0.0000 O   0  0  0  0  0  0  0  0  0  0  0  0
    5.9151   -6.6478    0.0000 C   0  0  0  0  0  0  0  0  0  0  0  0
    6.6295   -6.2353    0.0000 C   0  0  0  0  0  0  0  0  0  0  0  0
    7.3440   -6.6478    0.0000 C   0  0  0  0  0  0  0  0  0  0  0  0
    5.9151   -9.1228    0.0000 C   0  0  0  0  0  0  0  0  0  0  0  0
    5.2006   -8.7103    0.0000 C   0  0  0  0  0  0  0  0  0  0  0  0
    7.3440   -9.9478    0.0000 C   0  0  0  0  0  0  0  0  0  0  0  0
    8.0585  -10.3603    0.0000 C   0  0  0  0  0  0  0  0  0  0  0  0
    8.7730   -9.9478    0.0000 C   0  0  0  0  0  0  0  0  0  0  0  0
    8.7730   -9.1228    0.0000 C   0  0  0  0  0  0  0  0  0  0  0  0
    8.0585   -8.7103    0.0000 C   0  0  0  0  0  0  0  0  0  0  0  0
    9.4874  -10.3603    0.0000 O   0  0  0  0  0  0  0  0  0  0  0  0
    9.4874   -8.7103    0.0000 O   0  0  0  0  0  0  0  0  0  0  0  0
   10.2019   -9.1228    0.0000 C   0  0  0  0  0  0  0  0  0  0  0  0
  9  4  1  0  0  0  0
 16  8  2  0  0  0  0
  9  8  1  0  0  0  0
 11  9  2  0  0  0  0
 11 10  1  0  0  0  0
 14 11  1  0  0  0  0
 13 12  1  0  0  0  0
 14 13  1  0  0  0  0
 15 14  2  0  0  0  0
  1  2  1  0  0  0  0
  2  3  2  0  0  0  0
  3 16  1  0  0  0  0
 16 15  1  0  0  0  0
  4  5  1  0  0  0  0
  1  6  2  0  0  0  0
  1  7  1  0  0  0  0
  4 17  1  0  0  0  0
 17 18  2  0  0  0  0
  5 19  2  0  0  0  0
 19 20  1  0  0  0  0
 20 21  2  0  0  0  0
 21 22  1  0  0  0  0
 22 23  2  0  0  0  0
 23  5  1  0  0  0  0
 21 24  1  0  0  0  0
 22 25  1  0  0  0  0
 25 26  1  0  0  0  0
M  END
>  <cdx:groupId>
86

>  <cdx:fragmentId>
87

$$$$
