38081.cdx
  Mrv1902 05222410222D          

 14 14  0  0  0  0            999 V2000
    7.4637   -6.2619    0.0000 C   0  0  0  0  0  0  0  0  0  0  0  0
    8.2886   -6.2649    0.0000 C   0  0  0  0  0  0  0  0  0  0  0  0
    8.5464   -5.4812    0.0000 C   0  0  0  0  0  0  0  0  0  0  0  0
    7.8807   -4.9939    0.0000 C   0  0  0  0  0  0  0  0  0  0  0  0
    7.2115   -5.4764    0.0000 C   0  0  0  0  0  0  0  0  0  0  0  0
    7.3092   -7.6825    0.0000 C   0  0  0  0  0  0  0  0  0  0  0  0
    6.9763   -6.9276    0.0000 C   0  0  0  0  0  0  0  0  0  0  0  0
    6.8219   -8.3482    0.0000 O   0  0  0  0  0  0  0  0  0  0  0  0
    9.3319   -5.2291    0.0000 C   0  0  0  0  0  0  0  0  0  0  0  0
    8.7712   -6.9341    0.0000 C   0  0  0  0  0  0  0  0  0  0  0  0
    6.4278   -5.2186    0.0000 O   0  0  0  0  0  0  0  0  0  0  0  0
    5.8128   -5.7685    0.0000 C   0  0  0  0  0  0  0  0  0  0  0  0
    5.9814   -6.5761    0.0000 O   0  0  0  0  0  0  0  0  0  0  0  0
    5.0436   -5.4701    0.0000 C   0  0  0  0  0  0  0  0  0  0  0  0
  1  2  1  0  0  0  0
  2  3  2  0  0  0  0
  3  4  1  0  0  0  0
  4  5  1  0  0  0  0
  1  5  1  0  0  0  0
  6  7  1  0  0  0  0
  6  8  1  0  0  0  0
  1  7  1  0  0  0  0
  3  9  1  0  0  0  0
  2 10  1  0  0  0  0
 12 13  2  0  0  0  0
 12 14  1  0  0  0  0
 11 12  1  0  0  0  0
  5 11  1  0  0  0  0
M  END
>  <cdx:groupId>
130

>  <cdx:fragmentId>
131

$$$$
