38089.cdx
  Mrv1902 05222410252D          

 11 11  0  0  0  0            999 V2000
   11.7831   -8.2026    0.0000 C   0  0  0  0  0  0  0  0  0  0  0  0
   11.7831   -7.3776    0.0000 C   0  0  0  0  0  0  0  0  0  0  0  0
   12.4976   -6.9651    0.0000 C   0  0  0  0  0  0  0  0  0  0  0  0
   13.2121   -7.3776    0.0000 C   0  0  0  0  0  0  0  0  0  0  0  0
   13.2121   -8.2026    0.0000 C   0  0  0  0  0  0  0  0  0  0  0  0
   12.4976   -8.6151    0.0000 C   0  0  0  0  0  0  0  0  0  0  0  0
   11.0686   -8.6151    0.0000 O   0  0  0  0  0  0  0  0  0  0  0  0
   11.0686   -6.9651    0.0000 C   0  0  0  0  0  0  0  0  0  0  0  0
   13.9265   -8.6151    0.0000 C   0  0  0  0  0  0  0  0  0  0  0  0
   13.9265   -9.4401    0.0000 C   0  0  0  0  0  0  0  0  0  0  0  0
   14.6410   -8.2026    0.0000 C   0  0  0  0  0  0  0  0  0  0  0  0
  1  2  1  0  0  0  0
  2  3  2  0  0  0  0
  3  4  1  0  0  0  0
  4  5  2  0  0  0  0
  5  6  1  0  0  0  0
  1  6  1  0  0  0  0
  1  7  2  0  0  0  0
  2  8  1  0  0  0  0
  9 10  1  0  0  0  0
  9 11  1  0  0  0  0
  5  9  1  0  0  0  0
M  END
>  <cdx:groupId>
39

>  <cdx:fragmentId>
9

$$$$
