38088.cdx
  Mrv1902 05222410252D          

  9  9  0  0  0  0            999 V2000
   12.8102   -8.7877    0.0000 O   0  0  0  0  0  0  0  0  0  0  0  0
   13.5639   -8.4522    0.0000 C   0  0  0  0  0  0  0  0  0  0  0  0
   13.4777   -7.6317    0.0000 C   0  0  0  0  0  0  0  0  0  0  0  0
   12.6707   -7.4601    0.0000 C   0  0  0  0  0  0  0  0  0  0  0  0
   12.2582   -8.1746    0.0000 C   0  0  0  0  0  0  0  0  0  0  0  0
   14.2784   -8.8647    0.0000 C   0  0  0  0  0  0  0  0  0  0  0  0
   14.9929   -8.4522    0.0000 O   0  0  0  0  0  0  0  0  0  0  0  0
   11.4377   -8.2609    0.0000 C   0  0  0  0  0  0  0  0  0  0  0  0
   10.9528   -7.5934    0.0000 O   0  0  0  0  0  0  0  0  0  0  0  0
  1  2  1  0  0  0  0
  2  3  2  0  0  0  0
  3  4  1  0  0  0  0
  4  5  1  0  0  0  0
  1  5  1  0  0  0  0
  2  6  1  0  0  0  0
  6  7  2  0  0  0  0
  8  9  1  0  0  0  0
  5  8  2  0  0  0  0
M  END
>  <cdx:groupId>
33

>  <cdx:fragmentId>
9

$$$$
