38085.cdx
  Mrv1902 05222410212D          

 24 26  0  0  0  0            999 V2000
   13.4576   -9.0156    0.0000 C   0  0  0  0  0  0  0  0  0  0  0  0
   13.4576   -8.1906    0.0000 C   0  0  0  0  0  0  0  0  0  0  0  0
   12.7431   -7.7781    0.0000 C   0  0  0  0  0  0  0  0  0  0  0  0
   12.0286   -8.1906    0.0000 C   0  0  0  0  0  0  0  0  0  0  0  0
   11.3142   -7.7781    0.0000 C   0  0  0  0  0  0  0  0  0  0  0  0
   10.5997   -8.1906    0.0000 C   0  0  0  0  0  0  0  0  0  0  0  0
   10.5997   -9.0156    0.0000 C   0  0  0  0  0  0  0  0  0  0  0  0
   11.3142   -9.4281    0.0000 C   0  0  0  0  0  0  0  0  0  0  0  0
   12.0286   -9.0156    0.0000 C   0  0  0  0  0  0  0  0  0  0  0  0
   12.7431   -9.4281    0.0000 O   0  0  0  0  0  0  0  0  0  0  0  0
   12.7431   -6.9531    0.0000 O   0  0  0  0  0  0  0  0  0  0  0  0
   14.1720   -7.7781    0.0000 C   0  0  0  0  0  0  0  0  0  0  0  0
   14.8865   -8.1906    0.0000 C   0  0  0  0  0  0  0  0  0  0  0  0
   14.8865   -9.0156    0.0000 C   0  0  0  0  0  0  0  0  0  0  0  0
   15.6010   -9.4281    0.0000 C   0  0  0  0  0  0  0  0  0  0  0  0
   16.3155   -9.0156    0.0000 C   0  0  0  0  0  0  0  0  0  0  0  0
   16.3155   -8.1906    0.0000 C   0  0  0  0  0  0  0  0  0  0  0  0
   15.6010   -7.7781    0.0000 C   0  0  0  0  0  0  0  0  0  0  0  0
   14.1720   -9.4281    0.0000 O   0  0  0  0  0  0  0  0  0  0  0  0
    9.8852   -9.4281    0.0000 O   0  0  0  0  0  0  0  0  0  0  0  0
    9.1707   -9.0156    0.0000 C   0  0  0  0  0  0  0  0  0  0  0  0
    9.8852   -7.7781    0.0000 O   0  0  0  0  0  0  0  0  0  0  0  0
    9.1707   -8.1906    0.0000 C   0  0  0  0  0  0  0  0  0  0  0  0
   11.3142   -6.9531    0.0000 O   0  0  0  0  0  0  0  0  0  0  0  0
  1  2  1  0  0  0  0
  2  3  1  0  0  0  0
  3  4  1  0  0  0  0
  4  5  1  0  0  0  0
  5  6  2  0  0  0  0
  6  7  1  0  0  0  0
  7  8  2  0  0  0  0
  8  9  1  0  0  0  0
  4  9  2  0  0  0  0
  9 10  1  0  0  0  0
  1 10  1  0  0  0  0
  3 11  2  0  0  0  0
 12 13  1  0  0  0  0
 13 14  1  0  0  0  0
 14 15  2  0  0  0  0
 15 16  1  0  0  0  0
 16 17  2  0  0  0  0
 17 18  1  0  0  0  0
 13 18  2  0  0  0  0
 14 19  1  0  0  0  0
  2 12  1  0  0  0  0
 20 21  1  0  0  0  0
  7 20  1  0  0  0  0
 22 23  1  0  0  0  0
  6 22  1  0  0  0  0
  5 24  1  0  0  0  0
M  END
>  <cdx:groupId>
82

>  <cdx:fragmentId>
11

$$$$
