38080.cdx
  Mrv1902 05222410222D          

 21 22  0  0  0  0            999 V2000
   10.9755  -11.0292    0.0000 C   0  0  0  0  0  0  0  0  0  0  0  0
   10.9755  -10.2042    0.0000 C   0  0  0  0  0  0  0  0  0  0  0  0
   11.6900   -9.7917    0.0000 C   0  0  0  0  0  0  0  0  0  0  0  0
   11.6900   -8.9667    0.0000 C   0  0  0  0  0  0  0  0  0  0  0  0
   12.4044   -8.5542    0.0000 C   0  0  0  0  0  0  0  0  0  0  0  0
   12.5150   -9.7917    0.0000 O   0  0  0  0  0  0  0  0  0  0  0  0
   12.1025  -10.5062    0.0000 C   0  0  0  0  0  0  0  0  0  0  0  0
   12.4044   -7.7292    0.0000 C   0  0  0  0  0  0  0  0  0  0  0  0
   11.6900   -7.3167    0.0000 C   0  0  0  0  0  0  0  0  0  0  0  0
   11.6900   -6.4917    0.0000 C   0  0  0  0  0  0  0  0  0  0  0  0
   12.4044   -6.0792    0.0000 C   0  0  0  0  0  0  0  0  0  0  0  0
   13.1189   -6.4917    0.0000 C   0  0  0  0  0  0  0  0  0  0  0  0
   13.8334   -6.0792    0.0000 C   0  0  0  0  0  0  0  0  0  0  0  0
   14.5478   -6.4917    0.0000 C   0  0  0  0  0  0  0  0  0  0  0  0
   14.5478   -7.3167    0.0000 C   0  0  0  0  0  0  0  0  0  0  0  0
   13.8334   -7.7292    0.0000 C   0  0  0  0  0  0  0  0  0  0  0  0
   13.1189   -7.3167    0.0000 C   0  0  0  0  0  0  0  0  0  0  0  0
   10.9755   -7.7292    0.0000 C   0  0  0  0  0  0  0  0  0  0  0  0
   13.1189   -8.1417    0.0000 C   0  0  0  0  0  0  0  0  0  0  0  0
   13.4209   -5.3648    0.0000 C   0  0  0  0  0  0  0  0  0  0  0  0
   14.2459   -5.3648    0.0000 C   0  0  0  0  0  0  0  0  0  0  0  0
  1  2  2  0  0  0  0
  2  3  1  0  0  0  0
  3  4  1  0  0  0  0
  4  5  1  0  0  0  0
  3  6  1  0  0  0  0
  3  7  1  0  0  0  0
  8  9  1  0  0  0  0
  9 10  1  0  0  0  0
 10 11  1  0  0  0  0
 11 12  1  0  0  0  0
 12 13  1  0  0  0  0
 13 14  1  0  0  0  0
 14 15  1  0  0  0  0
 15 16  1  0  0  0  0
 16 17  1  0  0  0  0
  8 17  1  0  0  0  0
 12 17  1  0  0  0  0
  9 18  2  0  0  0  0
 17 19  1  0  0  0  0
 13 20  1  0  0  0  0
 13 21  1  0  0  0  0
  5  8  1  0  0  0  0
M  END
>  <cdx:groupId>
70

>  <cdx:fragmentId>
23

$$$$
