38087.cdx
  Mrv1902 05222410212D          

 26 28  0  0  0  0            999 V2000
    7.9973   -6.1311    0.0000 O   0  0  0  0  0  0  0  0  0  0  0  0
    7.3299   -6.6160    0.0000 C   0  0  0  0  0  0  0  0  0  0  0  0
    6.6625   -6.1311    0.0000 C   0  0  0  0  0  0  0  0  0  0  0  0
    6.9174   -5.3465    0.0000 C   0  0  0  0  0  0  0  0  0  0  0  0
    7.7424   -5.3465    0.0000 C   0  0  0  0  0  0  0  0  0  0  0  0
    7.3299   -7.4410    0.0000 C   0  0  0  0  0  0  0  0  0  0  0  0
    8.2273   -4.6790    0.0000 C   0  0  0  0  0  0  0  0  0  0  0  0
    8.0138   -3.8821    0.0000 O   0  0  0  0  0  0  0  0  0  0  0  0
    6.6154   -7.8535    0.0000 O   0  0  0  0  0  0  0  0  0  0  0  0
    8.0444   -7.8535    0.0000 O   0  0  0  0  0  0  0  0  0  0  0  0
    5.9010   -7.4410    0.0000 C   0  0  0  0  0  0  0  0  0  0  0  0
    5.1865   -7.8535    0.0000 C   0  0  0  0  0  0  0  0  0  0  0  0
    5.1003   -8.6740    0.0000 C   0  0  0  0  0  0  0  0  0  0  0  0
    4.2933   -8.8455    0.0000 C   0  0  0  0  0  0  0  0  0  0  0  0
    3.8808   -8.1310    0.0000 C   0  0  0  0  0  0  0  0  0  0  0  0
    4.4328   -7.5179    0.0000 O   0  0  0  0  0  0  0  0  0  0  0  0
    3.0603   -8.0448    0.0000 C   0  0  0  0  0  0  0  0  0  0  0  0
    2.5754   -8.7122    0.0000 O   0  0  0  0  0  0  0  0  0  0  0  0
    8.7588   -7.4410    0.0000 C   0  0  0  0  0  0  0  0  0  0  0  0
    9.4733   -7.8535    0.0000 C   0  0  0  0  0  0  0  0  0  0  0  0
    9.5595   -8.6740    0.0000 C   0  0  0  0  0  0  0  0  0  0  0  0
   10.3665   -8.8455    0.0000 C   0  0  0  0  0  0  0  0  0  0  0  0
   10.7790   -8.1310    0.0000 C   0  0  0  0  0  0  0  0  0  0  0  0
   10.2270   -7.5179    0.0000 O   0  0  0  0  0  0  0  0  0  0  0  0
   11.5995   -8.0448    0.0000 C   0  0  0  0  0  0  0  0  0  0  0  0
   12.0844   -8.7122    0.0000 O   0  0  0  0  0  0  0  0  0  0  0  0
  1  2  1  0  0  0  0
  2  3  2  0  0  0  0
  3  4  1  0  0  0  0
  4  5  2  0  0  0  0
  1  5  1  0  0  0  0
  2  6  1  0  0  0  0
  7  8  1  0  0  0  0
  5  7  1  0  0  0  0
 11 12  1  0  0  0  0
 12 13  2  0  0  0  0
 13 14  1  0  0  0  0
 14 15  2  0  0  0  0
 15 16  1  0  0  0  0
 12 16  1  0  0  0  0
 17 18  2  0  0  0  0
 15 17  1  0  0  0  0
  9 11  1  0  0  0  0
 19 20  1  0  0  0  0
 20 21  2  0  0  0  0
 21 22  1  0  0  0  0
 22 23  2  0  0  0  0
 23 24  1  0  0  0  0
 20 24  1  0  0  0  0
 25 26  2  0  0  0  0
 23 25  1  0  0  0  0
 10 19  1  0  0  0  0
  6  9  1  0  0  0  0
  6 10  1  0  0  0  0
M  END
>  <cdx:groupId>
107

>  <cdx:fragmentId>
31

$$$$
