38084.cdx
  Mrv1902 05222410212D          

 25 27  0  0  0  0            999 V2000
    4.8978  -10.5614    0.0000 O   0  0  0  0  0  0  0  0  0  0  0  0
    7.7445   -5.6049    0.0000 O   0  0  0  0  0  0  0  0  0  0  0  0
    7.0347   -7.6690    0.0000 C   0  0  0  0  0  0  0  0  0  0  0  0
    7.0328   -6.8440    0.0000 C   0  0  0  0  0  0  0  0  0  0  0  0
    7.7464   -6.4299    0.0000 C   0  0  0  0  0  0  0  0  0  0  0  0
    8.4618   -6.8408    0.0000 C   0  0  0  0  0  0  0  0  0  0  0  0
    8.4636   -7.6658    0.0000 C   0  0  0  0  0  0  0  0  0  0  0  0
    7.7501   -8.0799    0.0000 C   0  0  0  0  0  0  0  0  0  0  0  0
    7.7520   -8.9049    0.0000 C   0  0  0  0  0  0  0  0  0  0  0  0
    7.7576  -11.3799    0.0000 C   0  0  0  0  0  0  0  0  0  0  0  0
    7.7557  -10.5549    0.0000 O   0  0  0  0  0  0  0  0  0  0  0  0
    4.8885   -6.4364    0.0000 C   0  0  0  0  0  0  0  0  0  0  0  0
    4.8866   -5.6114    0.0000 C   0  0  0  0  0  0  0  0  0  0  0  0
    5.6002   -5.1973    0.0000 C   0  0  0  0  0  0  0  0  0  0  0  0
    6.3156   -5.6082    0.0000 C   0  0  0  0  0  0  0  0  0  0  0  0
    6.3174   -6.4332    0.0000 C   0  0  0  0  0  0  0  0  0  0  0  0
    5.6039   -6.8473    0.0000 C   0  0  0  0  0  0  0  0  0  0  0  0
    5.6058   -7.6723    0.0000 C   0  0  0  0  0  0  0  0  0  0  0  0
    5.6095   -9.3223    0.0000 C   0  0  0  0  0  0  0  0  0  0  0  0
    5.6114  -10.1473    0.0000 C   0  0  0  0  0  0  0  0  0  0  0  0
    6.3268  -10.5581    0.0000 C   0  0  0  0  0  0  0  0  0  0  0  0
    7.0403  -10.1440    0.0000 C   0  0  0  0  0  0  0  0  0  0  0  0
    7.0384   -9.3190    0.0000 C   0  0  0  0  0  0  0  0  0  0  0  0
    6.3230   -8.9081    0.0000 C   0  0  0  0  0  0  0  0  0  0  0  0
    6.3212   -8.0832    0.0000 C   0  0  0  0  0  0  0  0  0  0  0  0
 20  1  1  0  0  0  0
 23  9  1  0  0  0  0
  5  2  1  0  0  0  0
  8  3  2  0  0  0  0
  4  3  1  0  0  0  0
  5  4  2  0  0  0  0
  6  5  1  0  0  0  0
  7  6  2  0  0  0  0
  8  7  1  0  0  0  0
  9  8  1  0  0  0  0
 22 11  1  0  0  0  0
 11 10  1  0  0  0  0
 25 18  1  0  0  0  0
 17 12  2  0  0  0  0
 13 12  1  0  0  0  0
 14 13  2  0  0  0  0
 15 14  1  0  0  0  0
 16 15  2  0  0  0  0
 17 16  1  0  0  0  0
 18 17  1  0  0  0  0
 24 19  2  0  0  0  0
 20 19  1  0  0  0  0
 21 20  2  0  0  0  0
 22 21  1  0  0  0  0
 23 22  2  0  0  0  0
 24 23  1  0  0  0  0
 25 24  1  0  0  0  0
M  END
>  <cdx:fragmentId>
19

$$$$
