38083.cdx
  Mrv1902 05222410232D          

 12 12  0  0  0  0            999 V2000
   14.7834   -7.8842    0.0000 C   0  0  0  0  0  0  0  0  0  0  0  0
   14.7834   -8.7092    0.0000 C   0  0  0  0  0  0  0  0  0  0  0  0
   14.0689   -9.1217    0.0000 C   0  0  0  0  0  0  0  0  0  0  0  0
   13.3544   -8.7092    0.0000 C   0  0  0  0  0  0  0  0  0  0  0  0
   13.3544   -7.8842    0.0000 C   0  0  0  0  0  0  0  0  0  0  0  0
   14.0689   -7.4717    0.0000 O   0  0  0  0  0  0  0  0  0  0  0  0
   15.4979   -7.4717    0.0000 O   0  0  0  0  0  0  0  0  0  0  0  0
   12.6400   -9.1217    0.0000 C   0  0  0  0  0  0  0  0  0  0  0  0
   11.9255   -8.7092    0.0000 C   0  0  0  0  0  0  0  0  0  0  0  0
   11.2110   -9.1217    0.0000 C   0  0  0  0  0  0  0  0  0  0  0  0
   10.4966   -8.7092    0.0000 C   0  0  0  0  0  0  0  0  0  0  0  0
    9.7821   -9.1217    0.0000 C   0  0  0  0  0  0  0  0  0  0  0  0
  1  2  1  0  0  0  0
  2  3  2  0  0  0  0
  3  4  1  0  0  0  0
  4  5  2  0  0  0  0
  5  6  1  0  0  0  0
  1  6  1  0  0  0  0
  1  7  2  0  0  0  0
  8  9  1  0  0  0  0
  9 10  1  0  0  0  0
 10 11  1  0  0  0  0
 11 12  1  0  0  0  0
  4  8  1  0  0  0  0
M  END
>  <cdx:groupId>
43

>  <cdx:fragmentId>
10

$$$$
