38092.cdx
  Mrv1902 05222410212D          

 26 28  0  0  0  0            999 V2000
    4.4871  -10.8130    0.0000 O   0  0  0  0  0  0  0  0  0  0  0  0
    3.0582   -9.9880    0.0000 O   0  0  0  0  0  0  0  0  0  0  0  0
    3.0582   -8.3380    0.0000 O   0  0  0  0  0  0  0  0  0  0  0  0
    4.4871   -7.5130    0.0000 O   0  0  0  0  0  0  0  0  0  0  0  0
   10.9173   -8.7505    0.0000 O   0  0  0  0  0  0  0  0  0  0  0  0
   11.6318   -7.5130    0.0000 C   0  0  0  0  0  0  0  0  0  0  0  0
   10.9173   -7.1005    0.0000 O   0  0  0  0  0  0  0  0  0  0  0  0
    8.7739   -7.5130    0.0000 C   0  0  0  0  0  0  0  0  0  0  0  0
    9.4884   -7.1005    0.0000 C   0  0  0  0  0  0  0  0  0  0  0  0
   10.2029   -7.5130    0.0000 C   0  0  0  0  0  0  0  0  0  0  0  0
   10.2029   -8.3380    0.0000 C   0  0  0  0  0  0  0  0  0  0  0  0
    9.4884   -8.7505    0.0000 C   0  0  0  0  0  0  0  0  0  0  0  0
    8.7739   -8.3380    0.0000 C   0  0  0  0  0  0  0  0  0  0  0  0
    8.0595   -8.7505    0.0000 C   0  0  0  0  0  0  0  0  0  0  0  0
    7.3450   -8.3380    0.0000 C   0  0  0  0  0  0  0  0  0  0  0  0
    5.9160  -10.8130    0.0000 O   0  0  0  0  0  0  0  0  0  0  0  0
    5.9160   -8.3380    0.0000 O   0  0  0  0  0  0  0  0  0  0  0  0
    5.2016   -8.7505    0.0000 C   0  0  0  0  0  0  0  0  0  0  0  0
    4.4871   -8.3380    0.0000 C   0  0  0  0  0  0  0  0  0  0  0  0
    3.7726   -8.7505    0.0000 C   0  0  0  0  0  0  0  0  0  0  0  0
    3.7726   -9.5755    0.0000 C   0  0  0  0  0  0  0  0  0  0  0  0
    4.4871   -9.9880    0.0000 C   0  0  0  0  0  0  0  0  0  0  0  0
    5.2016   -9.5755    0.0000 C   0  0  0  0  0  0  0  0  0  0  0  0
    5.9160   -9.9880    0.0000 C   0  0  0  0  0  0  0  0  0  0  0  0
    6.6305   -9.5755    0.0000 C   0  0  0  0  0  0  0  0  0  0  0  0
    6.6305   -8.7505    0.0000 C   0  0  0  0  0  0  0  0  0  0  0  0
 22  1  1  0  0  0  0
 21  2  1  0  0  0  0
 20  3  1  0  0  0  0
 19  4  1  0  0  0  0
 26 15  1  0  0  0  0
 14 13  1  0  0  0  0
 11  5  1  0  0  0  0
 10  7  1  0  0  0  0
  7  6  1  0  0  0  0
 13  8  2  0  0  0  0
  9  8  1  0  0  0  0
 10  9  2  0  0  0  0
 11 10  1  0  0  0  0
 12 11  2  0  0  0  0
 13 12  1  0  0  0  0
 15 14  1  0  0  0  0
 24 16  2  0  0  0  0
 26 17  1  0  0  0  0
 18 17  1  0  0  0  0
 23 18  2  0  0  0  0
 19 18  1  0  0  0  0
 20 19  1  0  0  0  0
 21 20  1  0  0  0  0
 22 21  1  0  0  0  0
 23 22  1  0  0  0  0
 24 23  1  0  0  0  0
 25 24  1  0  0  0  0
 26 25  2  0  0  0  0
M  END
>  <cdx:fragmentId>
5

$$$$
