38091.cdx
  Mrv1902 05222410212D          

 18 19  0  0  0  0            999 V2000
    5.3635   -7.7762    0.0000 C   0  0  0  0  0  0  0  0  0  0  0  0
    5.7214   -8.5195    0.0000 O   0  0  0  0  0  0  0  0  0  0  0  0
    6.5257   -8.7031    0.0000 C   0  0  0  0  0  0  0  0  0  0  0  0
    7.1707   -8.1887    0.0000 C   0  0  2  0  0  0  0  0  0  0  0  0
    7.1707   -7.3637    0.0000 C   0  0  2  0  0  0  0  0  0  0  0  0
    6.5257   -6.8493    0.0000 C   0  0  0  0  0  0  0  0  0  0  0  0
    5.7214   -7.0329    0.0000 O   0  0  0  0  0  0  0  0  0  0  0  0
    7.9554   -7.1088    0.0000 C   0  0  0  0  0  0  0  0  0  0  0  0
    8.4403   -7.7762    0.0000 C   0  0  0  0  0  0  0  0  0  0  0  0
    7.9554   -8.4437    0.0000 C   0  0  0  0  0  0  0  0  0  0  0  0
    9.0173   -6.1526    0.0000 C   0  0  0  0  0  0  0  0  0  0  0  0
    8.2103   -6.3242    0.0000 C   0  0  0  0  0  0  0  0  0  0  0  0
    9.2722   -5.3680    0.0000 O   0  0  0  0  0  0  0  0  0  0  0  0
    4.6490   -7.3637    0.0000 C   0  0  0  0  0  0  0  0  0  0  0  0
    4.6490   -8.1887    0.0000 C   0  0  0  0  0  0  0  0  0  0  0  0
    9.2653   -7.7762    0.0000 O   0  0  0  0  0  0  0  0  0  0  0  0
    7.1707   -6.5387    0.0000 H   0  0  0  0  0  0  0  0  0  0  0  0
    7.1707   -9.0137    0.0000 H   0  0  0  0  0  0  0  0  0  0  0  0
  1  2  1  0  0  0  0
  2  3  1  0  0  0  0
  3  4  1  0  0  0  0
  4  5  1  0  0  0  0
  5  6  1  0  0  0  0
  6  7  1  0  0  0  0
  1  7  1  0  0  0  0
  8  9  1  0  0  0  0
  9 10  1  0  0  0  0
 10  4  1  0  0  0  0
  8  5  1  0  0  0  0
 11 12  1  0  0  0  0
 11 13  1  0  0  0  0
  8 12  1  0  0  0  0
  1 14  1  0  0  0  0
  1 15  1  0  0  0  0
  9 16  1  0  0  0  0
  5 17  1  1  0  0  0
  4 18  1  1  0  0  0
M  END
>  <cdx:groupId>
108

>  <cdx:fragmentId>
22

$$$$
