38097.cdx
  Mrv1902 05222410232D          

 25 27  0  0  0  0            999 V2000
   13.8148   -7.7100    0.0000 C   0  0  0  0  0  0  0  0  0  0  0  0
   13.8148   -8.5350    0.0000 C   0  0  0  0  0  0  0  0  0  0  0  0
   13.1003   -8.9475    0.0000 C   0  0  0  0  0  0  0  0  0  0  0  0
   13.5128   -9.6620    0.0000 O   0  0  0  0  0  0  0  0  0  0  0  0
   12.3859   -8.5350    0.0000 C   0  0  0  0  0  0  0  0  0  0  0  0
   11.6714   -8.9475    0.0000 C   0  0  0  0  0  0  0  0  0  0  0  0
   10.9569   -8.5350    0.0000 C   0  0  0  0  0  0  0  0  0  0  0  0
   10.9569   -7.7100    0.0000 C   0  0  0  0  0  0  0  0  0  0  0  0
   11.6714   -7.2975    0.0000 C   0  0  0  0  0  0  0  0  0  0  0  0
   12.3859   -7.7100    0.0000 C   0  0  0  0  0  0  0  0  0  0  0  0
   13.1003   -7.2975    0.0000 O   0  0  0  0  0  0  0  0  0  0  0  0
   14.5293   -7.2975    0.0000 C   0  0  0  0  0  0  0  0  0  0  0  0
   14.5293   -6.4725    0.0000 C   0  0  0  0  0  0  0  0  0  0  0  0
   15.2438   -6.0600    0.0000 C   0  0  0  0  0  0  0  0  0  0  0  0
   15.9582   -6.4725    0.0000 C   0  0  0  0  0  0  0  0  0  0  0  0
   15.9582   -7.2975    0.0000 C   0  0  0  0  0  0  0  0  0  0  0  0
   15.2438   -7.7100    0.0000 C   0  0  0  0  0  0  0  0  0  0  0  0
   14.2273   -9.2495    0.0000 O   0  0  0  0  0  0  0  0  0  0  0  0
   10.2425   -8.9475    0.0000 O   0  0  0  0  0  0  0  0  0  0  0  0
    9.5280   -8.5350    0.0000 C   0  0  0  0  0  0  0  0  0  0  0  0
   14.6398   -8.5350    0.0000 O   0  0  0  0  0  0  0  0  0  0  0  0
   15.0523   -9.2495    0.0000 C   0  0  0  0  0  0  0  0  0  0  0  0
   12.6878   -9.6620    0.0000 O   0  0  0  0  0  0  0  0  0  0  0  0
   10.2425   -7.2975    0.0000 O   0  0  0  0  0  0  0  0  0  0  0  0
   11.6714   -9.7725    0.0000 O   0  0  0  0  0  0  0  0  0  0  0  0
  1  2  1  0  0  0  0
  2  3  1  0  0  0  0
  3  4  2  0  0  0  0
  3  5  1  0  0  0  0
  5  6  1  0  0  0  0
  6  7  2  0  0  0  0
  7  8  1  0  0  0  0
  8  9  2  0  0  0  0
  9 10  1  0  0  0  0
  5 10  2  0  0  0  0
 10 11  1  0  0  0  0
  1 11  1  0  0  0  0
  1 12  2  0  0  0  0
 12 13  1  0  0  0  0
 13 14  2  0  0  0  0
 14 15  1  0  0  0  0
 15 16  2  0  0  0  0
 16 17  1  0  0  0  0
 12 17  1  0  0  0  0
  2 18  2  0  0  0  0
 19 20  1  0  0  0  0
  7 19  1  0  0  0  0
 21 22  1  0  0  0  0
  2 21  1  0  0  0  0
  3 23  1  0  0  0  0
  8 24  1  0  0  0  0
  6 25  1  0  0  0  0
M  END
>  <cdx:groupId>
84

>  <cdx:fragmentId>
10

$$$$
