38090.cdx
  Mrv1902 05222410212D          

 24 25  0  0  0  0            999 V2000
   12.7045   -7.3656    0.0000 C   0  0  0  0  0  0  0  0  0  0  0  0
   12.7045   -8.1906    0.0000 C   0  0  0  0  0  0  0  0  0  0  0  0
   13.4189   -8.6031    0.0000 C   0  0  0  0  0  0  0  0  0  0  0  0
   13.4189   -9.4281    0.0000 O   0  0  0  0  0  0  0  0  0  0  0  0
   14.1334   -8.1906    0.0000 C   0  0  0  0  0  0  0  0  0  0  0  0
   14.1334   -7.3656    0.0000 C   0  0  0  0  0  0  0  0  0  0  0  0
   13.4189   -6.9531    0.0000 C   0  0  0  0  0  0  0  0  0  0  0  0
   14.8479   -6.9531    0.0000 C   0  0  0  0  0  0  0  0  0  0  0  0
   15.5623   -7.3656    0.0000 C   0  0  0  0  0  0  0  0  0  0  0  0
   16.2768   -6.9531    0.0000 C   0  0  0  0  0  0  0  0  0  0  0  0
   16.9913   -7.3656    0.0000 C   0  0  0  0  0  0  0  0  0  0  0  0
   17.7058   -6.9531    0.0000 C   0  0  0  0  0  0  0  0  0  0  0  0
   11.9900   -6.9531    0.0000 O   0  0  0  0  0  0  0  0  0  0  0  0
   11.2755   -7.3656    0.0000 C   0  0  1  0  0  0  0  0  0  0  0  0
   11.2755   -8.1906    0.0000 C   0  0  2  0  0  0  0  0  0  0  0  0
   11.9900   -8.6031    0.0000 O   0  0  0  0  0  0  0  0  0  0  0  0
   10.5610   -8.6031    0.0000 C   0  0  1  0  0  0  0  0  0  0  0  0
   10.5610   -9.4281    0.0000 O   0  0  0  0  0  0  0  0  0  0  0  0
    9.8466   -8.1906    0.0000 C   0  0  2  0  0  0  0  0  0  0  0  0
    9.1321   -8.6031    0.0000 O   0  0  0  0  0  0  0  0  0  0  0  0
    9.8466   -7.3656    0.0000 C   0  0  2  0  0  0  0  0  0  0  0  0
   10.5610   -6.9531    0.0000 O   0  0  0  0  0  0  0  0  0  0  0  0
    9.1321   -6.9531    0.0000 C   0  0  0  0  0  0  0  0  0  0  0  0
    8.4176   -7.3656    0.0000 O   0  0  0  0  0  0  0  0  0  0  0  0
  1  2  1  0  0  0  0
  2  3  2  0  0  0  0
  3  4  1  0  0  0  0
  3  5  1  0  0  0  0
  5  6  2  0  0  0  0
  6  7  1  0  0  0  0
  1  7  2  0  0  0  0
  8  9  1  0  0  0  0
  9 10  1  0  0  0  0
 10 11  1  0  0  0  0
 11 12  1  0  0  0  0
  6  8  1  0  0  0  0
 14 13  1  1  0  0  0
 14 15  1  0  0  0  0
 15 16  1  6  0  0  0
 15 17  1  0  0  0  0
 17 18  1  1  0  0  0
 17 19  1  0  0  0  0
 19 20  1  6  0  0  0
 19 21  1  0  0  0  0
 21 22  1  0  0  0  0
 21 23  1  1  0  0  0
 23 24  1  0  0  0  0
 14 22  1  0  0  0  0
  1 13  1  0  0  0  0
M  END
>  <cdx:groupId>
84

>  <cdx:fragmentId>
36

$$$$
