38095.cdx
  Mrv1902 05222410222D          

 25 27  0  0  0  0            999 V2000
    9.6963   -9.7837    0.0000 C   0  0  0  0  0  0  0  0  0  0  0  0
    8.9818   -9.3712    0.0000 O   0  0  0  0  0  0  0  0  0  0  0  0
   11.1252   -8.1337    0.0000 C   0  0  0  0  0  0  0  0  0  0  0  0
   10.4108   -8.5462    0.0000 O   0  0  0  0  0  0  0  0  0  0  0  0
    8.2674   -7.3087    0.0000 C   0  0  0  0  0  0  0  0  0  0  0  0
    8.9818   -6.8962    0.0000 C   0  0  0  0  0  0  0  0  0  0  0  0
    9.6963   -7.3087    0.0000 C   0  0  0  0  0  0  0  0  0  0  0  0
    9.6963   -8.1337    0.0000 C   0  0  0  0  0  0  0  0  0  0  0  0
    8.9818   -8.5462    0.0000 C   0  0  0  0  0  0  0  0  0  0  0  0
    8.2674   -8.1337    0.0000 C   0  0  0  0  0  0  0  0  0  0  0  0
    4.6950  -11.0212    0.0000 C   0  0  0  0  0  0  0  0  0  0  0  0
    5.4095  -10.6087    0.0000 O   0  0  0  0  0  0  0  0  0  0  0  0
    3.2661   -8.5462    0.0000 C   0  0  0  0  0  0  0  0  0  0  0  0
    3.9805   -8.1337    0.0000 O   0  0  0  0  0  0  0  0  0  0  0  0
    6.8384  -10.6087    0.0000 O   0  0  0  0  0  0  0  0  0  0  0  0
    6.8384   -8.1337    0.0000 O   0  0  0  0  0  0  0  0  0  0  0  0
    6.1239   -8.5462    0.0000 C   0  0  0  0  0  0  0  0  0  0  0  0
    5.4095   -8.1337    0.0000 C   0  0  0  0  0  0  0  0  0  0  0  0
    4.6950   -8.5462    0.0000 C   0  0  0  0  0  0  0  0  0  0  0  0
    4.6950   -9.3712    0.0000 C   0  0  0  0  0  0  0  0  0  0  0  0
    5.4095   -9.7837    0.0000 C   0  0  0  0  0  0  0  0  0  0  0  0
    6.1239   -9.3712    0.0000 C   0  0  0  0  0  0  0  0  0  0  0  0
    6.8384   -9.7837    0.0000 C   0  0  0  0  0  0  0  0  0  0  0  0
    7.5529   -9.3712    0.0000 C   0  0  0  0  0  0  0  0  0  0  0  0
    7.5529   -8.5462    0.0000 C   0  0  0  0  0  0  0  0  0  0  0  0
 25 10  1  0  0  0  0
  9  2  1  0  0  0  0
  2  1  1  0  0  0  0
  8  4  1  0  0  0  0
  4  3  1  0  0  0  0
 10  5  2  0  0  0  0
  6  5  1  0  0  0  0
  7  6  2  0  0  0  0
  8  7  1  0  0  0  0
  9  8  2  0  0  0  0
 10  9  1  0  0  0  0
 21 12  1  0  0  0  0
 12 11  1  0  0  0  0
 19 14  1  0  0  0  0
 14 13  1  0  0  0  0
 23 15  2  0  0  0  0
 25 16  1  0  0  0  0
 17 16  1  0  0  0  0
 22 17  2  0  0  0  0
 18 17  1  0  0  0  0
 19 18  2  0  0  0  0
 20 19  1  0  0  0  0
 21 20  2  0  0  0  0
 22 21  1  0  0  0  0
 23 22  1  0  0  0  0
 24 23  1  0  0  0  0
 25 24  2  0  0  0  0
M  END
>  <cdx:fragmentId>
5

$$$$
