38099.cdx
  Mrv1902 05222410242D          

 23 25  0  0  0  0            999 V2000
   13.1476   -7.9843    0.0000 C   0  0  0  0  0  0  0  0  0  0  0  0
   13.1476   -8.8093    0.0000 C   0  0  0  0  0  0  0  0  0  0  0  0
   12.4331   -9.2218    0.0000 C   0  0  0  0  0  0  0  0  0  0  0  0
   12.4331  -10.0468    0.0000 O   0  0  0  0  0  0  0  0  0  0  0  0
   11.7186   -8.8093    0.0000 C   0  0  0  0  0  0  0  0  0  0  0  0
   11.0042   -9.2218    0.0000 C   0  0  0  0  0  0  0  0  0  0  0  0
   10.2897   -8.8093    0.0000 C   0  0  0  0  0  0  0  0  0  0  0  0
   10.2897   -7.9843    0.0000 C   0  0  0  0  0  0  0  0  0  0  0  0
   11.0042   -7.5718    0.0000 C   0  0  0  0  0  0  0  0  0  0  0  0
   11.7186   -7.9843    0.0000 C   0  0  0  0  0  0  0  0  0  0  0  0
   12.4331   -7.5718    0.0000 O   0  0  0  0  0  0  0  0  0  0  0  0
   13.8620   -7.5718    0.0000 C   0  0  0  0  0  0  0  0  0  0  0  0
   14.5765   -7.9843    0.0000 C   0  0  0  0  0  0  0  0  0  0  0  0
   15.2910   -7.5718    0.0000 C   0  0  0  0  0  0  0  0  0  0  0  0
   15.2910   -6.7468    0.0000 C   0  0  0  0  0  0  0  0  0  0  0  0
   14.5765   -6.3343    0.0000 C   0  0  0  0  0  0  0  0  0  0  0  0
   13.8620   -6.7468    0.0000 C   0  0  0  0  0  0  0  0  0  0  0  0
    9.5752   -7.5718    0.0000 O   0  0  0  0  0  0  0  0  0  0  0  0
    8.8608   -7.9843    0.0000 C   0  0  0  0  0  0  0  0  0  0  0  0
   16.0055   -6.3343    0.0000 O   0  0  0  0  0  0  0  0  0  0  0  0
   16.0055   -7.9843    0.0000 O   0  0  0  0  0  0  0  0  0  0  0  0
   11.0042   -6.7468    0.0000 O   0  0  0  0  0  0  0  0  0  0  0  0
   11.0042  -10.0468    0.0000 O   0  0  0  0  0  0  0  0  0  0  0  0
  1  2  2  0  0  0  0
  2  3  1  0  0  0  0
  3  4  2  0  0  0  0
  3  5  1  0  0  0  0
  5  6  1  0  0  0  0
  6  7  2  0  0  0  0
  7  8  1  0  0  0  0
  8  9  2  0  0  0  0
  9 10  1  0  0  0  0
  5 10  2  0  0  0  0
 10 11  1  0  0  0  0
  1 11  1  0  0  0  0
  1 12  1  0  0  0  0
 12 13  1  0  0  0  0
 13 14  2  0  0  0  0
 14 15  1  0  0  0  0
 15 16  2  0  0  0  0
 16 17  1  0  0  0  0
 12 17  2  0  0  0  0
 18 19  1  0  0  0  0
  8 18  1  0  0  0  0
 15 20  1  0  0  0  0
 14 21  1  0  0  0  0
  9 22  1  0  0  0  0
  6 23  1  0  0  0  0
M  END
>  <cdx:groupId>
80

>  <cdx:fragmentId>
12

$$$$
