381.cdx
  Mrv1902 05222410252D          

 15 15  0  0  0  0            999 V2000
    9.0214   -6.7009    0.0000 C   0  0  1  0  0  0  0  0  0  0  0  0
    9.7357   -7.1138    0.0000 C   0  0  0  0  0  0  0  0  0  0  0  0
    9.0218   -5.9790    0.0000 O   0  0  0  0  0  0  0  0  0  0  0  0
    8.3067   -7.1130    0.0000 C   0  0  0  0  0  0  0  0  0  0  0  0
    7.5925   -6.7001    0.0000 C   0  0  0  0  0  0  0  0  0  0  0  0
    5.7425   -6.0079    0.0000 C   0  0  0  0  0  0  0  0  0  0  0  0
    6.5675   -5.9980    0.0000 C   0  0  0  0  0  0  0  0  0  0  0  0
    4.8782   -8.3624    0.0000 O   0  0  0  0  0  0  0  0  0  0  0  0
    7.6124   -8.3500    0.0000 C   0  0  0  0  0  0  0  0  0  0  0  0
    6.1636   -6.7174    0.0000 C   0  0  0  0  0  0  0  0  0  0  0  0
    6.8830   -7.1212    0.0000 C   0  0  2  0  0  0  0  0  0  0  0  0
    6.8930   -7.9462    0.0000 C   0  0  0  0  0  0  0  0  0  0  0  0
    6.1836   -8.3673    0.0000 C   0  0  0  0  0  0  0  0  0  0  0  0
    5.4642   -7.9634    0.0000 C   0  0  0  0  0  0  0  0  0  0  0  0
    5.4542   -7.1385    0.0000 C   0  0  0  0  0  0  0  0  0  0  0  0
  1  2  1  0  0  0  0
  4  1  1  0  0  0  0
  1  3  1  6  0  0  0
  5  4  2  0  0  0  0
 11  5  1  1  0  0  0
 10  6  1  0  0  0  0
 10  7  1  0  0  0  0
 14  8  2  0  0  0  0
 12  9  1  0  0  0  0
 10 15  1  0  0  0  0
 11 10  1  0  0  0  0
 12 11  1  0  0  0  0
 13 12  2  0  0  0  0
 14 13  1  0  0  0  0
 15 14  1  0  0  0  0
M  END
>  <cdx:fragmentId>
146

$$$$
