38107.cdx
  Mrv1902 05222410242D          

 43 48  0  0  0  0            999 V2000
   10.2305   -6.3800    0.0000 C   0  0  2  0  0  0  0  0  0  0  0  0
   10.2305   -7.2050    0.0000 C   0  0  0  0  0  0  0  0  0  0  0  0
   10.9450   -7.6175    0.0000 C   0  0  1  0  0  0  0  0  0  0  0  0
   11.6595   -7.2050    0.0000 C   0  0  1  0  0  0  0  0  0  0  0  0
   11.6595   -6.3800    0.0000 C   0  0  0  0  0  0  0  0  0  0  0  0
   10.9450   -5.9675    0.0000 C   0  0  1  0  0  0  0  0  0  0  0  0
   10.9450   -5.1425    0.0000 C   0  0  0  0  0  0  0  0  0  0  0  0
   12.2925   -5.9950    0.0000 O   0  0  0  0  0  0  0  0  0  0  0  0
   10.9450   -6.7925    0.0000 C   0  0  2  0  0  0  0  0  0  0  0  0
    9.5161   -5.9675    0.0000 O   0  0  0  0  0  0  0  0  0  0  0  0
   12.2925   -7.5900    0.0000 O   0  0  0  0  0  0  0  0  0  0  0  0
   11.6595   -8.0300    0.0000 O   0  0  0  0  0  0  0  0  0  0  0  0
   10.3400   -7.5625    0.0000 C   0  0  0  0  0  0  0  0  0  0  0  0
   10.3400   -8.3875    0.0000 O   0  0  0  0  0  0  0  0  0  0  0  0
   12.2925   -6.7925    0.0000 C   0  0  1  0  0  0  0  0  0  0  0  0
    9.6215   -8.7930    0.0000 C   0  0  0  0  0  0  0  0  0  0  0  0
    8.9111   -8.3735    0.0000 O   0  0  0  0  0  0  0  0  0  0  0  0
    9.6134   -9.6179    0.0000 C   0  0  0  0  0  0  0  0  0  0  0  0
   10.3238  -10.0374    0.0000 C   0  0  0  0  0  0  0  0  0  0  0  0
   10.3157  -10.8624    0.0000 C   0  0  0  0  0  0  0  0  0  0  0  0
    9.5973  -11.2679    0.0000 C   0  0  0  0  0  0  0  0  0  0  0  0
    8.8869  -10.8484    0.0000 C   0  0  0  0  0  0  0  0  0  0  0  0
    8.8950  -10.0234    0.0000 C   0  0  0  0  0  0  0  0  0  0  0  0
    8.8016   -6.3800    0.0000 C   0  0  2  0  0  0  0  0  0  0  0  0
    8.0871   -5.9675    0.0000 O   0  0  0  0  0  0  0  0  0  0  0  0
    7.3726   -6.3800    0.0000 C   0  0  1  0  0  0  0  0  0  0  0  0
    7.3726   -7.2050    0.0000 C   0  0  2  0  0  0  0  0  0  0  0  0
    8.0871   -7.6175    0.0000 C   0  0  1  0  0  0  0  0  0  0  0  0
    8.8016   -7.2050    0.0000 C   0  0  1  0  0  0  0  0  0  0  0  0
    6.6582   -5.9675    0.0000 C   0  0  0  0  0  0  0  0  0  0  0  0
    8.0871   -8.4425    0.0000 O   0  0  0  0  0  0  0  0  0  0  0  0
    9.5161   -7.6175    0.0000 O   0  0  0  0  0  0  0  0  0  0  0  0
    6.6582   -7.6175    0.0000 O   0  0  0  0  0  0  0  0  0  0  0  0
    5.9437   -6.3800    0.0000 O   0  0  0  0  0  0  0  0  0  0  0  0
   10.9450   -8.4425    0.0000 H   0  0  0  0  0  0  0  0  0  0  0  0
   13.2000   -6.7650    0.0000 H   0  0  0  0  0  0  0  0  0  0  0  0
    5.2292   -5.9675    0.0000 C   0  0  0  0  0  0  0  0  0  0  0  0
    4.5148   -6.3800    0.0000 C   0  0  0  0  0  0  0  0  0  0  0  0
    5.2292   -5.1425    0.0000 O   0  0  0  0  0  0  0  0  0  0  0  0
    3.8003   -5.9675    0.0000 C   0  0  0  0  0  0  0  0  0  0  0  0
    3.0858   -6.3800    0.0000 C   0  0  0  0  0  0  0  0  0  0  0  0
    2.3713   -5.9675    0.0000 O   0  0  0  0  0  0  0  0  0  0  0  0
    3.0858   -7.2050    0.0000 O   0  0  0  0  0  0  0  0  0  0  0  0
  1  2  1  0  0  0  0
  2  3  1  0  0  0  0
  3  4  1  0  0  0  0
  4  5  1  0  0  0  0
  5  6  1  0  0  0  0
  6  1  1  0  0  0  0
  6  7  1  6  0  0  0
  6  8  1  0  0  0  0
  3  9  1  0  0  0  0
  1 10  1  1  0  0  0
  4 11  1  0  0  0  0
  4 12  1  6  0  0  0
  9  1  1  0  0  0  0
  9 13  1  1  0  0  0
 13 14  1  0  0  0  0
 11 15  1  0  0  0  0
  8 15  1  0  0  0  0
  9 15  1  0  0  0  0
 14 16  1  0  0  0  0
 16 17  2  0  0  0  0
 16 18  1  0  0  0  0
 18 19  2  0  0  0  0
 19 20  1  0  0  0  0
 20 21  2  0  0  0  0
 21 22  1  0  0  0  0
 22 23  2  0  0  0  0
 23 18  1  0  0  0  0
 24 10  1  1  0  0  0
 24 25  1  0  0  0  0
 25 26  1  0  0  0  0
 26 27  1  0  0  0  0
 27 28  1  0  0  0  0
 28 29  1  0  0  0  0
 29 24  1  0  0  0  0
 26 30  1  1  0  0  0
 28 31  1  1  0  0  0
 29 32  1  6  0  0  0
 27 33  1  6  0  0  0
 30 34  1  0  0  0  0
  3 35  1  1  0  0  0
 15 36  1  1  0  0  0
 34 37  1  0  0  0  0
 37 38  1  0  0  0  0
 37 39  2  0  0  0  0
 38 40  1  0  0  0  0
 40 41  1  0  0  0  0
 41 42  1  0  0  0  0
 41 43  2  0  0  0  0
M  END
>  <cdx:fragmentId>
157

$$$$
