38100.cdx
  Mrv1902 05222410252D          

 43 48  0  0  0  0            999 V2000
   14.8908   -6.7468    0.0000 C   0  0  0  0  0  0  0  0  0  0  0  0
   14.8908   -5.9218    0.0000 C   0  0  0  0  0  0  0  0  0  0  0  0
   14.1763   -5.5093    0.0000 C   0  0  0  0  0  0  0  0  0  0  0  0
   13.4619   -5.9218    0.0000 C   0  0  0  0  0  0  0  0  0  0  0  0
   12.7474   -5.5093    0.0000 C   0  0  0  0  0  0  0  0  0  0  0  0
   12.0329   -5.9218    0.0000 C   0  0  0  0  0  0  0  0  0  0  0  0
   12.0329   -6.7468    0.0000 C   0  0  0  0  0  0  0  0  0  0  0  0
   12.7474   -7.1593    0.0000 C   0  0  0  0  0  0  0  0  0  0  0  0
   13.4619   -6.7468    0.0000 C   0  0  0  0  0  0  0  0  0  0  0  0
   14.1763   -7.1593    0.0000 O   0  0  0  0  0  0  0  0  0  0  0  0
   14.1763   -4.6843    0.0000 O   0  0  0  0  0  0  0  0  0  0  0  0
   15.6053   -7.1593    0.0000 C   0  0  0  0  0  0  0  0  0  0  0  0
   16.3198   -6.7468    0.0000 C   0  0  0  0  0  0  0  0  0  0  0  0
   17.0342   -7.1593    0.0000 C   0  0  0  0  0  0  0  0  0  0  0  0
   17.0342   -7.9843    0.0000 C   0  0  0  0  0  0  0  0  0  0  0  0
   16.3198   -8.3968    0.0000 C   0  0  0  0  0  0  0  0  0  0  0  0
   15.6053   -7.9843    0.0000 C   0  0  0  0  0  0  0  0  0  0  0  0
   17.7487   -8.3968    0.0000 O   0  0  0  0  0  0  0  0  0  0  0  0
   11.3185   -7.1593    0.0000 O   0  0  0  0  0  0  0  0  0  0  0  0
   12.7474   -4.6843    0.0000 O   0  0  0  0  0  0  0  0  0  0  0  0
   12.7474   -7.9843    0.0000 C   0  0  0  0  0  0  0  0  0  0  0  0
   13.4619   -8.3968    0.0000 C   0  0  0  0  0  0  0  0  0  0  0  0
   13.4619   -9.2218    0.0000 C   0  0  0  0  0  0  0  0  0  0  0  0
   12.7474   -9.6343    0.0000 C   0  0  0  0  0  0  0  0  0  0  0  0
   12.0329   -9.2218    0.0000 C   0  0  0  0  0  0  0  0  0  0  0  0
   12.0329   -8.3968    0.0000 C   0  0  0  0  0  0  0  0  0  0  0  0
   14.1763   -9.6343    0.0000 O   0  0  0  0  0  0  0  0  0  0  0  0
   14.8908   -9.2218    0.0000 C   0  0  0  0  0  0  0  0  0  0  0  0
   14.1763   -7.9843    0.0000 O   0  0  0  0  0  0  0  0  0  0  0  0
   14.8908   -8.3968    0.0000 C   0  0  0  0  0  0  0  0  0  0  0  0
   11.3185   -9.6343    0.0000 C   0  0  0  0  0  0  0  0  0  0  0  0
   11.3185  -10.4593    0.0000 C   0  0  0  0  0  0  0  0  0  0  0  0
   10.6040  -10.8718    0.0000 C   0  0  0  0  0  0  0  0  0  0  0  0
    9.8895  -10.4593    0.0000 C   0  0  0  0  0  0  0  0  0  0  0  0
    9.1750  -10.8718    0.0000 C   0  0  0  0  0  0  0  0  0  0  0  0
    8.4606  -10.4593    0.0000 C   0  0  0  0  0  0  0  0  0  0  0  0
    8.4606   -9.6343    0.0000 C   0  0  0  0  0  0  0  0  0  0  0  0
    9.1750   -9.2218    0.0000 C   0  0  0  0  0  0  0  0  0  0  0  0
    9.8895   -9.6343    0.0000 C   0  0  0  0  0  0  0  0  0  0  0  0
   10.6040   -9.2218    0.0000 O   0  0  0  0  0  0  0  0  0  0  0  0
   10.6040  -11.6968    0.0000 O   0  0  0  0  0  0  0  0  0  0  0  0
    7.7461   -9.2218    0.0000 O   0  0  0  0  0  0  0  0  0  0  0  0
    9.1750  -11.6968    0.0000 O   0  0  0  0  0  0  0  0  0  0  0  0
  1  2  2  0  0  0  0
  2  3  1  0  0  0  0
  3  4  1  0  0  0  0
  4  5  1  0  0  0  0
  5  6  2  0  0  0  0
  6  7  1  0  0  0  0
  7  8  2  0  0  0  0
  8  9  1  0  0  0  0
  4  9  2  0  0  0  0
  9 10  1  0  0  0  0
  1 10  1  0  0  0  0
  3 11  2  0  0  0  0
 12 13  1  0  0  0  0
 13 14  2  0  0  0  0
 14 15  1  0  0  0  0
 15 16  2  0  0  0  0
 16 17  1  0  0  0  0
 12 17  2  0  0  0  0
 15 18  1  0  0  0  0
  1 12  1  0  0  0  0
  7 19  1  0  0  0  0
  5 20  1  0  0  0  0
 21 22  1  0  0  0  0
 22 23  2  0  0  0  0
 23 24  1  0  0  0  0
 24 25  2  0  0  0  0
 25 26  1  0  0  0  0
 21 26  2  0  0  0  0
 27 28  1  0  0  0  0
 23 27  1  0  0  0  0
 29 30  1  0  0  0  0
 22 29  1  0  0  0  0
 31 32  2  0  0  0  0
 32 33  1  0  0  0  0
 33 34  1  0  0  0  0
 34 35  1  0  0  0  0
 35 36  2  0  0  0  0
 36 37  1  0  0  0  0
 37 38  2  0  0  0  0
 38 39  1  0  0  0  0
 34 39  2  0  0  0  0
 39 40  1  0  0  0  0
 31 40  1  0  0  0  0
 33 41  2  0  0  0  0
 37 42  1  0  0  0  0
 35 43  1  0  0  0  0
 25 31  1  0  0  0  0
  8 21  1  0  0  0  0
M  END
>  <cdx:groupId>
144

>  <cdx:fragmentId>
73

$$$$
