38108.cdx
  Mrv1902 05222410232D          

 36 37  0  0  0  0            999 V2000
   19.8492   -8.5006    0.0000 C   0  0  0  0  0  0  0  0  0  0  0  0
   19.1347   -8.9131    0.0000 C   0  0  0  0  0  0  0  0  0  0  0  0
   18.4202   -8.5006    0.0000 C   0  0  0  0  0  0  0  0  0  0  0  0
   17.7058   -8.9131    0.0000 C   0  0  0  0  0  0  0  0  0  0  0  0
   16.9913   -8.5006    0.0000 C   0  0  0  0  0  0  0  0  0  0  0  0
   16.2768   -8.9131    0.0000 C   0  0  0  0  0  0  0  0  0  0  0  0
   15.5623   -8.5006    0.0000 C   0  0  0  0  0  0  0  0  0  0  0  0
   19.8492   -7.6756    0.0000 O   0  0  0  0  0  0  0  0  0  0  0  0
   20.5636   -8.9131    0.0000 O   0  0  0  0  0  0  0  0  0  0  0  0
   16.2768   -7.2631    0.0000 C   0  0  0  0  0  0  0  0  0  0  0  0
   15.5623   -7.6756    0.0000 C   0  0  0  0  0  0  0  0  0  0  0  0
   14.8479   -7.2631    0.0000 C   0  0  0  0  0  0  0  0  0  0  0  0
   14.8479   -6.4381    0.0000 C   0  0  0  0  0  0  0  0  0  0  0  0
   15.5623   -6.0256    0.0000 C   0  0  0  0  0  0  0  0  0  0  0  0
   16.2768   -6.4381    0.0000 N   0  0  0  0  0  0  0  0  0  0  0  0
   14.8479   -8.9131    0.0000 C   0  0  0  0  0  0  0  0  0  0  0  0
   14.8479   -9.7381    0.0000 C   0  0  0  0  0  0  0  0  0  0  0  0
   14.1334  -10.1506    0.0000 C   0  0  0  0  0  0  0  0  0  0  0  0
   13.4189   -9.7381    0.0000 C   0  0  0  0  0  0  0  0  0  0  0  0
   13.4189   -8.9131    0.0000 C   0  0  0  0  0  0  0  0  0  0  0  0
   14.1334   -8.5006    0.0000 C   0  0  0  0  0  0  0  0  0  0  0  0
   12.7045  -10.1506    0.0000 O   0  0  0  0  0  0  0  0  0  0  0  0
   11.9900   -9.7381    0.0000 C   0  0  0  0  0  0  0  0  0  0  0  0
   11.2755  -10.1506    0.0000 C   0  0  0  0  0  0  0  0  0  0  0  0
   10.5610   -9.7381    0.0000 C   0  0  0  0  0  0  0  0  0  0  0  0
    9.8466  -10.1506    0.0000 C   0  0  0  0  0  0  0  0  0  0  0  0
    9.1321   -9.7381    0.0000 C   0  0  0  0  0  0  0  0  0  0  0  0
    8.4176  -10.1506    0.0000 C   0  0  0  0  0  0  0  0  0  0  0  0
    7.7032   -9.7381    0.0000 C   0  0  0  0  0  0  0  0  0  0  0  0
    6.9887  -10.1506    0.0000 C   0  0  0  0  0  0  0  0  0  0  0  0
    6.2742   -9.7381    0.0000 C   0  0  0  0  0  0  0  0  0  0  0  0
    5.5597  -10.1506    0.0000 C   0  0  0  0  0  0  0  0  0  0  0  0
    4.8453   -9.7381    0.0000 C   0  0  0  0  0  0  0  0  0  0  0  0
    4.1308  -10.1506    0.0000 O   0  0  0  0  0  0  0  0  0  0  0  0
   21.2781   -8.5006    0.0000 C   0  0  0  0  0  0  0  0  0  0  0  0
   21.9926   -8.9131    0.0000 C   0  0  0  0  0  0  0  0  0  0  0  0
  1  2  1  0  0  0  0
  2  3  1  0  0  0  0
  3  4  1  0  0  0  0
  4  5  1  0  0  0  0
  5  6  1  0  0  0  0
  6  7  2  0  0  0  0
  1  8  2  0  0  0  0
  1  9  1  0  0  0  0
 10 11  1  0  0  0  0
 11 12  2  0  0  0  0
 12 13  1  0  0  0  0
 13 14  2  0  0  0  0
 14 15  1  0  0  0  0
 10 15  2  0  0  0  0
  7 11  1  0  0  0  0
 16 17  1  0  0  0  0
 17 18  2  0  0  0  0
 18 19  1  0  0  0  0
 19 20  2  0  0  0  0
 20 21  1  0  0  0  0
 16 21  2  0  0  0  0
 23 24  1  0  0  0  0
 24 25  1  0  0  0  0
 25 26  1  0  0  0  0
 26 27  1  0  0  0  0
 27 28  1  0  0  0  0
 28 29  1  0  0  0  0
 29 30  1  0  0  0  0
 30 31  1  0  0  0  0
 31 32  1  0  0  0  0
 32 33  1  0  0  0  0
 22 23  1  0  0  0  0
 33 34  1  0  0  0  0
 19 22  1  0  0  0  0
  7 16  1  0  0  0  0
 35 36  1  0  0  0  0
  9 35  1  0  0  0  0
M  END
>  <cdx:groupId>
130

>  <cdx:fragmentId>
68

$$$$
