38103.cdx
  Mrv1902 05222410242D          

 38 41  0  0  0  0            999 V2000
   13.8620   -6.7666    0.0000 C   0  0  0  0  0  0  0  0  0  0  0  0
   13.8620   -7.5916    0.0000 C   0  0  0  0  0  0  0  0  0  0  0  0
   13.1476   -8.0041    0.0000 C   0  0  0  0  0  0  0  0  0  0  0  0
   13.1476   -8.8291    0.0000 O   0  0  0  0  0  0  0  0  0  0  0  0
   12.4331   -7.5916    0.0000 C   0  0  0  0  0  0  0  0  0  0  0  0
   11.7186   -8.0041    0.0000 C   0  0  0  0  0  0  0  0  0  0  0  0
   11.7186   -8.8291    0.0000 O   0  0  0  0  0  0  0  0  0  0  0  0
   11.0042   -7.5916    0.0000 C   0  0  0  0  0  0  0  0  0  0  0  0
   11.0042   -6.7666    0.0000 C   0  0  0  0  0  0  0  0  0  0  0  0
   10.2897   -6.3541    0.0000 O   0  0  0  0  0  0  0  0  0  0  0  0
   11.7186   -6.3541    0.0000 C   0  0  0  0  0  0  0  0  0  0  0  0
   12.4331   -6.7666    0.0000 C   0  0  0  0  0  0  0  0  0  0  0  0
   13.1476   -6.3541    0.0000 O   0  0  0  0  0  0  0  0  0  0  0  0
   14.5765   -6.3541    0.0000 C   0  0  0  0  0  0  0  0  0  0  0  0
   15.2910   -6.7666    0.0000 C   0  0  0  0  0  0  0  0  0  0  0  0
   16.0055   -6.3541    0.0000 C   0  0  0  0  0  0  0  0  0  0  0  0
   16.7199   -6.7666    0.0000 O   0  0  0  0  0  0  0  0  0  0  0  0
   16.0055   -5.5291    0.0000 C   0  0  0  0  0  0  0  0  0  0  0  0
   16.7199   -5.1166    0.0000 O   0  0  0  0  0  0  0  0  0  0  0  0
   15.2910   -5.1166    0.0000 C   0  0  0  0  0  0  0  0  0  0  0  0
   14.5765   -5.5291    0.0000 C   0  0  0  0  0  0  0  0  0  0  0  0
   10.2897   -8.0041    0.0000 C   0  0  0  0  0  0  0  0  0  0  0  0
    9.5752   -7.5916    0.0000 C   0  0  0  0  0  0  0  0  0  0  0  0
    8.8608   -8.0041    0.0000 C   0  0  0  0  0  0  0  0  0  0  0  0
    8.8608   -8.8291    0.0000 C   0  0  0  0  0  0  0  0  0  0  0  0
    8.1463   -7.5916    0.0000 C   0  0  0  0  0  0  0  0  0  0  0  0
   14.5765   -8.0041    0.0000 O   0  0  0  0  0  0  0  0  0  0  0  0
   14.5765   -8.8291    0.0000 C   0  0  0  0  0  0  0  0  0  0  0  0
   15.2910   -9.2416    0.0000 C   0  0  2  0  0  0  0  0  0  0  0  0
   16.0055   -8.8291    0.0000 O   0  0  0  0  0  0  0  0  0  0  0  0
   15.2910  -10.0666    0.0000 C   0  0  1  0  0  0  0  0  0  0  0  0
   16.0055  -10.4791    0.0000 O   0  0  0  0  0  0  0  0  0  0  0  0
   14.5765  -10.4791    0.0000 C   0  0  2  0  0  0  0  0  0  0  0  0
   14.5765  -11.3041    0.0000 O   0  0  0  0  0  0  0  0  0  0  0  0
   13.8620  -10.0666    0.0000 C   0  0  2  0  0  0  0  0  0  0  0  0
   13.8620   -9.2416    0.0000 O   0  0  0  0  0  0  0  0  0  0  0  0
   13.1476  -10.4791    0.0000 C   0  0  0  0  0  0  0  0  0  0  0  0
   12.4331  -10.0666    0.0000 O   0  0  0  0  0  0  0  0  0  0  0  0
  1  2  2  0  0  0  0
  2  3  1  0  0  0  0
  3  4  2  0  0  0  0
  3  5  1  0  0  0  0
  5  6  1  0  0  0  0
  6  7  1  0  0  0  0
  6  8  2  0  0  0  0
  8  9  1  0  0  0  0
  9 10  1  0  0  0  0
  9 11  2  0  0  0  0
 11 12  1  0  0  0  0
  5 12  2  0  0  0  0
 12 13  1  0  0  0  0
  1 13  1  0  0  0  0
  1 14  1  0  0  0  0
 14 15  1  0  0  0  0
 15 16  2  0  0  0  0
 16 17  1  0  0  0  0
 16 18  1  0  0  0  0
 18 19  1  0  0  0  0
 18 20  2  0  0  0  0
 20 21  1  0  0  0  0
 14 21  2  0  0  0  0
 22 23  1  0  0  0  0
 23 24  2  0  0  0  0
 24 25  1  0  0  0  0
 24 26  1  0  0  0  0
  8 22  1  0  0  0  0
 27 28  1  0  0  0  0
 28 29  1  0  0  0  0
 29 30  1  6  0  0  0
 29 31  1  0  0  0  0
 31 32  1  1  0  0  0
 31 33  1  0  0  0  0
 33 34  1  6  0  0  0
 33 35  1  0  0  0  0
 35 36  1  0  0  0  0
 35 37  1  1  0  0  0
 37 38  1  0  0  0  0
 28 36  1  0  0  0  0
  2 27  1  0  0  0  0
M  END
>  <cdx:groupId>
123

>  <cdx:fragmentId>
9

$$$$
