38109.cdx
  Mrv1902 05222410222D          

 26 27  0  0  0  0            999 V2000
    5.3193   -9.3357    0.0000 C   0  0  2  0  0  0  0  0  0  0  0  0
    4.8317  -10.0011    0.0000 C   0  0  0  0  0  0  0  0  0  0  0  0
    5.3139  -10.6705    0.0000 C   0  0  0  0  0  0  0  0  0  0  0  0
    6.0996  -10.4188    0.0000 N   0  3  0  0  0  0  0  0  0  0  0  0
    6.1029   -9.5938    0.0000 C   0  0  2  0  0  0  0  0  0  0  0  0
    6.8831  -10.6769    0.0000 C   0  0  0  0  0  0  0  0  0  0  0  0
    7.3708  -10.0114    0.0000 C   0  0  0  0  0  0  0  0  0  0  0  0
    6.8885   -9.3420    0.0000 C   0  0  0  0  0  0  0  0  0  0  0  0
    5.0676   -8.5500    0.0000 O   0  0  0  0  0  0  0  0  0  0  0  0
    4.2613   -8.3752    0.0000 C   0  0  0  0  0  0  0  0  0  0  0  0
    3.7068   -8.9861    0.0000 O   0  0  0  0  0  0  0  0  0  0  0  0
    4.0095   -7.5896    0.0000 C   0  0  0  0  0  0  0  0  0  0  0  0
    7.1467   -8.5584    0.0000 C   0  0  0  0  0  0  0  0  0  0  0  0
    7.9543   -8.3902    0.0000 O   0  0  0  0  0  0  0  0  0  0  0  0
    8.2124   -7.6066    0.0000 C   0  0  0  0  0  0  0  0  0  0  0  0
    7.6629   -6.9913    0.0000 O   0  0  0  0  0  0  0  0  0  0  0  0
    9.0201   -7.4383    0.0000 C   0  0  0  0  0  0  0  0  0  0  0  0
    9.8170   -7.2248    0.0000 C   0  0  1  0  0  0  0  0  0  0  0  0
    9.2111   -8.2409    0.0000 O   0  0  0  0  0  0  0  0  0  0  0  0
    8.8291   -6.6358    0.0000 C   0  0  0  0  0  0  0  0  0  0  0  0
    9.4287   -6.0691    0.0000 C   0  0  0  0  0  0  0  0  0  0  0  0
    8.0386   -6.3998    0.0000 C   0  0  0  0  0  0  0  0  0  0  0  0
   10.4003   -7.8082    0.0000 C   0  0  0  0  0  0  0  0  0  0  0  0
   10.0305   -6.4279    0.0000 O   0  0  0  0  0  0  0  0  0  0  0  0
    6.1062   -8.7688    0.0000 H   0  0  0  0  0  0  0  0  0  0  0  0
    6.0962  -11.2438    0.0000 O   0  5  0  0  0  0  0  0  0  0  0  0
  1  2  1  0  0  0  0
  2  3  1  0  0  0  0
  3  4  1  0  0  0  0
  4  5  1  0  0  0  0
  5  1  1  0  0  0  0
  4  6  1  0  0  0  0
  6  7  1  0  0  0  0
  7  8  2  0  0  0  0
  8  5  1  0  0  0  0
  1  9  1  1  0  0  0
  9 10  1  0  0  0  0
 10 11  2  0  0  0  0
 10 12  1  0  0  0  0
  8 13  1  0  0  0  0
 13 14  1  0  0  0  0
 14 15  1  0  0  0  0
 15 16  2  0  0  0  0
 15 17  1  0  0  0  0
 17 18  1  0  0  0  0
 17 19  1  1  0  0  0
 17 20  1  0  0  0  0
 20 21  1  0  0  0  0
 20 22  1  0  0  0  0
 18 23  1  0  0  0  0
 18 24  1  6  0  0  0
  5 25  1  6  0  0  0
  4 26  1  0  0  0  0
M  CHG  2   4   1  26  -1
M  END
>  <cdx:fragmentId>
5

$$$$
