38105.cdx
  Mrv1902 05222410232D          

 19 21  0  0  0  0            999 V2000
    6.6010   -3.6345    0.0000 C   0  0  0  0  0  0  0  0  0  0  0  0
    8.9366   -8.0342    0.0000 C   0  0  0  0  0  0  0  0  0  0  0  0
    6.0275   -4.2276    0.0000 O   0  0  0  0  0  0  0  0  0  0  0  0
    8.9541   -3.7183    0.0000 O   0  0  0  0  0  0  0  0  0  0  0  0
    9.4840   -4.3506    0.0000 C   0  0  0  0  0  0  0  0  0  0  0  0
    8.3532   -7.4508    0.0000 O   0  0  0  0  0  0  0  0  0  0  0  0
    8.6359   -6.6758    0.0000 C   0  0  0  0  0  0  0  0  0  0  0  0
    9.4485   -6.5331    0.0000 C   0  0  0  0  0  0  0  0  0  0  0  0
    9.7312   -5.7580    0.0000 N   0  0  0  0  0  0  0  0  0  0  0  0
    9.2013   -5.1257    0.0000 C   0  0  0  0  0  0  0  0  0  0  0  0
    8.1061   -6.0434    0.0000 C   0  0  0  0  0  0  0  0  0  0  0  0
    8.3887   -5.2684    0.0000 C   0  0  0  0  0  0  0  0  0  0  0  0
    7.7390   -4.7600    0.0000 N   0  0  0  0  0  0  0  0  0  0  0  0
    6.7081   -6.6072    0.0000 C   0  0  0  0  0  0  0  0  0  0  0  0
    7.2816   -6.0141    0.0000 C   0  0  0  0  0  0  0  0  0  0  0  0
    7.0547   -5.2209    0.0000 C   0  0  0  0  0  0  0  0  0  0  0  0
    6.2544   -5.0208    0.0000 C   0  0  0  0  0  0  0  0  0  0  0  0
    5.6809   -5.6139    0.0000 C   0  0  0  0  0  0  0  0  0  0  0  0
    5.9077   -6.4070    0.0000 C   0  0  0  0  0  0  0  0  0  0  0  0
  3  1  1  0  0  0  0
  6  2  1  0  0  0  0
 17  3  1  0  0  0  0
  5  4  2  0  0  0  0
 10  5  1  0  0  0  0
  7  6  1  0  0  0  0
  7 11  1  0  0  0  0
  8  7  2  0  0  0  0
  9  8  1  0  0  0  0
 10  9  2  0  0  0  0
 12 10  1  0  0  0  0
 11 15  1  0  0  0  0
 12 11  2  0  0  0  0
 13 12  1  0  0  0  0
 16 13  1  0  0  0  0
 14 19  1  0  0  0  0
 15 14  2  0  0  0  0
 16 15  1  0  0  0  0
 17 16  2  0  0  0  0
 18 17  1  0  0  0  0
 19 18  2  0  0  0  0
M  END
>  <cdx:fragmentId>
9

$$$$
