38106.cdx
  Mrv1902 05222410242D          

 33 35  0  0  0  0            999 V2000
   13.8620   -8.4981    0.0000 C   0  0  0  0  0  0  0  0  0  0  0  0
   13.8620   -9.3231    0.0000 C   0  0  0  0  0  0  0  0  0  0  0  0
   14.5765   -9.7356    0.0000 O   0  0  0  0  0  0  0  0  0  0  0  0
   13.1476   -9.7356    0.0000 C   0  0  0  0  0  0  0  0  0  0  0  0
   13.1476  -10.5606    0.0000 O   0  0  0  0  0  0  0  0  0  0  0  0
   12.4331   -9.3231    0.0000 C   0  0  0  0  0  0  0  0  0  0  0  0
   11.7186   -9.7356    0.0000 C   0  0  0  0  0  0  0  0  0  0  0  0
   11.7186  -10.5606    0.0000 O   0  0  0  0  0  0  0  0  0  0  0  0
   11.0042   -9.3231    0.0000 C   0  0  0  0  0  0  0  0  0  0  0  0
   11.0042   -8.4981    0.0000 C   0  0  0  0  0  0  0  0  0  0  0  0
   10.2897   -8.0856    0.0000 O   0  0  0  0  0  0  0  0  0  0  0  0
   11.7186   -8.0856    0.0000 C   0  0  0  0  0  0  0  0  0  0  0  0
   12.4331   -8.4981    0.0000 C   0  0  0  0  0  0  0  0  0  0  0  0
   13.1476   -8.0856    0.0000 O   0  0  0  0  0  0  0  0  0  0  0  0
   14.5765   -8.0856    0.0000 C   0  0  0  0  0  0  0  0  0  0  0  0
   15.2910   -8.4981    0.0000 C   0  0  0  0  0  0  0  0  0  0  0  0
   16.0055   -8.0856    0.0000 C   0  0  0  0  0  0  0  0  0  0  0  0
   16.7199   -8.4981    0.0000 O   0  0  0  0  0  0  0  0  0  0  0  0
   16.0055   -7.2606    0.0000 C   0  0  0  0  0  0  0  0  0  0  0  0
   16.7199   -6.8481    0.0000 O   0  0  0  0  0  0  0  0  0  0  0  0
   15.2910   -6.8481    0.0000 C   0  0  0  0  0  0  0  0  0  0  0  0
   14.5765   -7.2606    0.0000 C   0  0  0  0  0  0  0  0  0  0  0  0
   11.7186   -7.2606    0.0000 C   0  0  0  0  0  0  0  0  0  0  0  0
   11.0042   -6.8481    0.0000 C   0  0  0  0  0  0  0  0  0  0  0  0
   11.0042   -6.0231    0.0000 C   0  0  0  0  0  0  0  0  0  0  0  0
   11.7186   -5.6106    0.0000 C   0  0  0  0  0  0  0  0  0  0  0  0
   10.2897   -5.6106    0.0000 C   0  0  0  0  0  0  0  0  0  0  0  0
   10.2897   -9.7356    0.0000 C   0  0  0  0  0  0  0  0  0  0  0  0
    9.5752   -9.3231    0.0000 C   0  0  0  0  0  0  0  0  0  0  0  0
    8.8608   -9.7356    0.0000 C   0  0  0  0  0  0  0  0  0  0  0  0
    8.8608  -10.5606    0.0000 C   0  0  0  0  0  0  0  0  0  0  0  0
    8.1463   -9.3231    0.0000 C   0  0  0  0  0  0  0  0  0  0  0  0
   15.2910   -9.3231    0.0000 C   0  0  0  0  0  0  0  0  0  0  0  0
  1  2  2  0  0  0  0
  2  3  1  0  0  0  0
  2  4  1  0  0  0  0
  4  5  2  0  0  0  0
  4  6  1  0  0  0  0
  6  7  1  0  0  0  0
  7  8  1  0  0  0  0
  7  9  2  0  0  0  0
  9 10  1  0  0  0  0
 10 11  1  0  0  0  0
 10 12  2  0  0  0  0
 12 13  1  0  0  0  0
  6 13  2  0  0  0  0
 13 14  1  0  0  0  0
  1 14  1  0  0  0  0
  1 15  1  0  0  0  0
 15 16  1  0  0  0  0
 16 17  2  0  0  0  0
 17 18  1  0  0  0  0
 17 19  1  0  0  0  0
 19 20  1  0  0  0  0
 19 21  2  0  0  0  0
 21 22  1  0  0  0  0
 15 22  2  0  0  0  0
 23 24  1  0  0  0  0
 24 25  2  0  0  0  0
 25 26  1  0  0  0  0
 25 27  1  0  0  0  0
 12 23  1  0  0  0  0
 28 29  1  0  0  0  0
 29 30  2  0  0  0  0
 30 31  1  0  0  0  0
 30 32  1  0  0  0  0
  9 28  1  0  0  0  0
  3 33  1  0  0  0  0
M  END
>  <cdx:groupId>
112

>  <cdx:fragmentId>
14

$$$$
