381152.cdx
  Mrv1902 05222410222D          

 11 11  0  0  0  0            999 V2000
   14.2890  -12.7604    0.0000 C   0  0  0  0  0  0  0  0  0  0  0  0
   14.2890  -13.5946    0.0000 C   0  0  0  0  0  0  0  0  0  0  0  0
   15.0034  -14.0162    0.0000 C   0  0  0  0  0  0  0  0  0  0  0  0
   15.7269  -13.5946    0.0000 C   0  0  0  0  0  0  0  0  0  0  0  0
   15.7269  -12.7604    0.0000 C   0  0  0  0  0  0  0  0  0  0  0  0
   15.0034  -12.3479    0.0000 C   0  0  0  0  0  0  0  0  0  0  0  0
   15.0011  -11.5230    0.0000 C   0  0  0  0  0  0  0  0  0  0  0  0
   16.4422  -14.0057    0.0000 O   0  0  0  0  0  0  0  0  0  0  0  0
   15.0011  -14.8412    0.0000 C   0  0  0  0  0  0  0  0  0  0  0  0
   14.2855  -15.2517    0.0000 C   0  0  0  0  0  0  0  0  0  0  0  0
   15.7144  -15.2556    0.0000 C   0  0  0  0  0  0  0  0  0  0  0  0
  1  6  1  0  0  0  0
  1  2  1  0  0  0  0
  2  3  1  0  0  0  0
  3  4  1  0  0  0  0
  4  5  1  0  0  0  0
  5  6  2  0  0  0  0
  6  7  1  0  0  0  0
  4  8  2  0  0  0  0
  3  9  2  0  0  0  0
  9 10  1  0  0  0  0
  9 11  1  0  0  0  0
M  END
>  <cdx:fragmentId>
2597

$$$$
