38113.cdx
  Mrv1902 05222410242D          

 26 28  0  0  0  0            999 V2000
   13.8148   -7.7827    0.0000 C   0  0  0  0  0  0  0  0  0  0  0  0
   13.8148   -8.6077    0.0000 C   0  0  0  0  0  0  0  0  0  0  0  0
   13.1003   -9.0202    0.0000 C   0  0  0  0  0  0  0  0  0  0  0  0
   13.1003   -9.8452    0.0000 O   0  0  0  0  0  0  0  0  0  0  0  0
   12.3859   -8.6077    0.0000 C   0  0  0  0  0  0  0  0  0  0  0  0
   11.6714   -9.0202    0.0000 C   0  0  0  0  0  0  0  0  0  0  0  0
   10.9569   -8.6077    0.0000 C   0  0  0  0  0  0  0  0  0  0  0  0
   10.9569   -7.7827    0.0000 C   0  0  0  0  0  0  0  0  0  0  0  0
   11.6714   -7.3702    0.0000 C   0  0  0  0  0  0  0  0  0  0  0  0
   12.3859   -7.7827    0.0000 C   0  0  0  0  0  0  0  0  0  0  0  0
   13.1003   -7.3702    0.0000 O   0  0  0  0  0  0  0  0  0  0  0  0
   14.5293   -7.3702    0.0000 C   0  0  0  0  0  0  0  0  0  0  0  0
   14.5293   -6.5452    0.0000 C   0  0  0  0  0  0  0  0  0  0  0  0
   15.2438   -6.1327    0.0000 C   0  0  0  0  0  0  0  0  0  0  0  0
   15.9582   -6.5452    0.0000 C   0  0  0  0  0  0  0  0  0  0  0  0
   15.9582   -7.3702    0.0000 C   0  0  0  0  0  0  0  0  0  0  0  0
   15.2438   -7.7827    0.0000 C   0  0  0  0  0  0  0  0  0  0  0  0
   11.6714   -6.5452    0.0000 O   0  0  0  0  0  0  0  0  0  0  0  0
   10.9569   -6.1327    0.0000 C   0  0  0  0  0  0  0  0  0  0  0  0
   10.2425   -9.0202    0.0000 O   0  0  0  0  0  0  0  0  0  0  0  0
    9.5280   -8.6077    0.0000 C   0  0  0  0  0  0  0  0  0  0  0  0
   11.6714   -9.8452    0.0000 O   0  0  0  0  0  0  0  0  0  0  0  0
   10.9569  -10.2577    0.0000 C   0  0  0  0  0  0  0  0  0  0  0  0
   14.5293   -9.0202    0.0000 O   0  0  0  0  0  0  0  0  0  0  0  0
   15.2438   -8.6077    0.0000 C   0  0  0  0  0  0  0  0  0  0  0  0
   10.2425   -7.3702    0.0000 O   0  0  0  0  0  0  0  0  0  0  0  0
  1  2  2  0  0  0  0
  2  3  1  0  0  0  0
  3  4  2  0  0  0  0
  3  5  1  0  0  0  0
  5  6  1  0  0  0  0
  6  7  2  0  0  0  0
  7  8  1  0  0  0  0
  8  9  2  0  0  0  0
  9 10  1  0  0  0  0
  5 10  2  0  0  0  0
 10 11  1  0  0  0  0
  1 11  1  0  0  0  0
  1 12  1  0  0  0  0
 12 13  1  0  0  0  0
 13 14  2  0  0  0  0
 14 15  1  0  0  0  0
 15 16  2  0  0  0  0
 16 17  1  0  0  0  0
 12 17  2  0  0  0  0
 18 19  1  0  0  0  0
  9 18  1  0  0  0  0
 20 21  1  0  0  0  0
  7 20  1  0  0  0  0
 22 23  1  0  0  0  0
  6 22  1  0  0  0  0
 24 25  1  0  0  0  0
  2 24  1  0  0  0  0
  8 26  1  0  0  0  0
M  END
>  <cdx:groupId>
86

>  <cdx:fragmentId>
9

$$$$
