38115.cdx
  Mrv1902 05222410262D          

 18 19  0  0  0  0            999 V2000
   14.4262   -7.0875    0.0000 O   0  0  0  0  0  0  0  0  0  0  0  0
   15.1406   -7.5000    0.0000 C   0  0  0  0  0  0  0  0  0  0  0  0
   15.8551   -7.0875    0.0000 O   0  0  0  0  0  0  0  0  0  0  0  0
   15.1406   -8.3250    0.0000 C   0  0  0  0  0  0  0  0  0  0  0  0
   14.4262   -8.7375    0.0000 C   0  0  0  0  0  0  0  0  0  0  0  0
   13.7117   -8.3250    0.0000 C   0  0  0  0  0  0  0  0  0  0  0  0
   12.9972   -8.7375    0.0000 C   0  0  0  0  0  0  0  0  0  0  0  0
   12.2827   -8.3250    0.0000 C   0  0  0  0  0  0  0  0  0  0  0  0
   12.2827   -7.5000    0.0000 C   0  0  0  0  0  0  0  0  0  0  0  0
   12.9972   -7.0875    0.0000 C   0  0  0  0  0  0  0  0  0  0  0  0
   13.7117   -7.5000    0.0000 C   0  0  0  0  0  0  0  0  0  0  0  0
   11.5683   -8.7375    0.0000 C   0  0  0  0  0  0  0  0  0  0  0  0
   10.8538   -8.3250    0.0000 C   0  0  0  0  0  0  0  0  0  0  0  0
   10.1393   -8.7375    0.0000 C   0  0  0  0  0  0  0  0  0  0  0  0
   10.1393   -9.5625    0.0000 C   0  0  0  0  0  0  0  0  0  0  0  0
    9.4249   -8.3250    0.0000 C   0  0  0  0  0  0  0  0  0  0  0  0
   11.5683   -7.0875    0.0000 O   0  0  0  0  0  0  0  0  0  0  0  0
   10.8538   -7.5000    0.0000 C   0  0  0  0  0  0  0  0  0  0  0  0
  1  2  1  0  0  0  0
  2  3  2  0  0  0  0
  2  4  1  0  0  0  0
  4  5  2  0  0  0  0
  5  6  1  0  0  0  0
  6  7  1  0  0  0  0
  7  8  2  0  0  0  0
  8  9  1  0  0  0  0
  9 10  2  0  0  0  0
 10 11  1  0  0  0  0
  1 11  1  0  0  0  0
  6 11  2  0  0  0  0
 12 13  2  0  0  0  0
 13 14  1  0  0  0  0
 14 15  2  0  0  0  0
 14 16  1  0  0  0  0
  8 12  1  0  0  0  0
 17 18  1  0  0  0  0
  9 17  1  0  0  0  0
M  END
>  <cdx:groupId>
66

>  <cdx:fragmentId>
14

$$$$
