38116\.cdx
  Mrv1902 05222410252D          

 20 21  0  0  0  0            999 V2000
    9.6032   -6.4413    0.0000 O   0  0  0  0  0  0  0  0  0  0  0  0
    9.1907   -5.7268    0.0000 C   0  0  0  0  0  0  0  0  0  0  0  0
    8.3749   -5.6039    0.0000 N   0  0  0  0  0  0  0  0  0  0  0  0
    7.7702   -6.1650    0.0000 N   0  0  0  0  0  0  0  0  0  0  0  0
    7.8318   -6.9877    0.0000 C   0  0  0  0  0  0  0  0  0  0  0  0
    8.5135   -7.4524    0.0000 C   0  0  0  0  0  0  0  0  0  0  0  0
    9.3018   -7.2093    0.0000 C   0  0  0  0  0  0  0  0  0  0  0  0
    9.6032   -5.0124    0.0000 N   0  0  0  0  0  0  0  0  0  0  0  0
    7.1173   -7.4002    0.0000 C   0  0  0  0  0  0  0  0  0  0  0  0
    6.4029   -6.9877    0.0000 C   0  0  0  0  0  0  0  0  0  0  0  0
    6.4029   -6.1627    0.0000 C   0  0  0  0  0  0  0  0  0  0  0  0
    5.6884   -7.4002    0.0000 C   0  0  0  0  0  0  0  0  0  0  0  0
    5.6884   -8.2252    0.0000 C   0  0  0  0  0  0  0  0  0  0  0  0
    4.2595   -8.2252    0.0000 C   0  0  0  0  0  0  0  0  0  0  0  0
    4.9739   -6.9877    0.0000 C   0  0  0  0  0  0  0  0  0  0  0  0
    4.9739   -8.6377    0.0000 C   0  0  0  0  0  0  0  0  0  0  0  0
    4.2595   -7.4002    0.0000 C   0  0  0  0  0  0  0  0  0  0  0  0
    3.5450   -8.6377    0.0000 C   0  0  0  0  0  0  0  0  0  0  0  0
   10.0901   -7.4524    0.0000 C   0  0  0  0  0  0  0  0  0  0  0  0
    9.4854   -8.0136    0.0000 C   0  0  0  0  0  0  0  0  0  0  0  0
  1  2  1  0  0  0  0
  2  3  2  0  0  0  0
  3  4  1  0  0  0  0
  4  5  2  0  0  0  0
  5  6  1  0  0  0  0
  6  7  1  0  0  0  0
  1  7  1  0  0  0  0
  2  8  1  0  0  0  0
  9 10  1  0  0  0  0
 10 11  1  0  0  0  0
 12 13  1  0  0  0  0
 12 15  2  0  0  0  0
 13 16  2  0  0  0  0
 14 16  1  0  0  0  0
 14 17  2  0  0  0  0
 15 17  1  0  0  0  0
 14 18  1  0  0  0  0
 10 12  1  0  0  0  0
  5  9  1  0  0  0  0
  7 19  1  0  0  0  0
  7 20  1  0  0  0  0
M  END
>  <cdx:fragmentId>
65

$$$$
