38110.cdx
  Mrv1902 05222410242D          

 22 24  0  0  0  0            999 V2000
   13.1046   -8.0041    0.0000 C   0  0  0  0  0  0  0  0  0  0  0  0
   13.1046   -8.8291    0.0000 C   0  0  0  0  0  0  0  0  0  0  0  0
   12.3902   -9.2416    0.0000 C   0  0  0  0  0  0  0  0  0  0  0  0
   12.3902  -10.0666    0.0000 O   0  0  0  0  0  0  0  0  0  0  0  0
   11.6757   -8.8291    0.0000 C   0  0  0  0  0  0  0  0  0  0  0  0
   10.9612   -9.2416    0.0000 C   0  0  0  0  0  0  0  0  0  0  0  0
   10.2468   -8.8291    0.0000 C   0  0  0  0  0  0  0  0  0  0  0  0
   10.2468   -8.0041    0.0000 C   0  0  0  0  0  0  0  0  0  0  0  0
   10.9612   -7.5916    0.0000 C   0  0  0  0  0  0  0  0  0  0  0  0
   11.6757   -8.0041    0.0000 C   0  0  0  0  0  0  0  0  0  0  0  0
   12.3902   -7.5916    0.0000 O   0  0  0  0  0  0  0  0  0  0  0  0
   13.8191   -7.5916    0.0000 C   0  0  0  0  0  0  0  0  0  0  0  0
   13.8191   -6.7666    0.0000 C   0  0  0  0  0  0  0  0  0  0  0  0
   14.5336   -6.3541    0.0000 C   0  0  0  0  0  0  0  0  0  0  0  0
   15.2480   -6.7666    0.0000 C   0  0  0  0  0  0  0  0  0  0  0  0
   15.2480   -7.5916    0.0000 C   0  0  0  0  0  0  0  0  0  0  0  0
   14.5336   -8.0041    0.0000 C   0  0  0  0  0  0  0  0  0  0  0  0
   15.9625   -6.3541    0.0000 O   0  0  0  0  0  0  0  0  0  0  0  0
   16.6770   -6.7666    0.0000 C   0  0  0  0  0  0  0  0  0  0  0  0
    9.5323   -9.2416    0.0000 O   0  0  0  0  0  0  0  0  0  0  0  0
    8.8178   -8.8291    0.0000 C   0  0  0  0  0  0  0  0  0  0  0  0
    9.5323   -7.5916    0.0000 O   0  0  0  0  0  0  0  0  0  0  0  0
  1  2  2  0  0  0  0
  2  3  1  0  0  0  0
  3  4  2  0  0  0  0
  3  5  1  0  0  0  0
  5  6  1  0  0  0  0
  6  7  2  0  0  0  0
  7  8  1  0  0  0  0
  8  9  2  0  0  0  0
  9 10  1  0  0  0  0
  5 10  2  0  0  0  0
 10 11  1  0  0  0  0
  1 11  1  0  0  0  0
  1 12  1  0  0  0  0
 12 13  1  0  0  0  0
 13 14  2  0  0  0  0
 14 15  1  0  0  0  0
 15 16  2  0  0  0  0
 16 17  1  0  0  0  0
 12 17  2  0  0  0  0
 18 19  1  0  0  0  0
 15 18  1  0  0  0  0
 20 21  1  0  0  0  0
  7 20  1  0  0  0  0
  8 22  1  0  0  0  0
M  END
>  <cdx:groupId>
75

>  <cdx:fragmentId>
10

$$$$
