38112.cdx
  Mrv1902 05222410242D          

 25 27  0  0  0  0            999 V2000
    6.9572   -6.3266    0.0000 C   0  0  0  0  0  0  0  0  0  0  0  0
    6.9572   -7.1516    0.0000 C   0  0  0  0  0  0  0  0  0  0  0  0
    6.2428   -7.5641    0.0000 C   0  0  0  0  0  0  0  0  0  0  0  0
    5.5283   -7.1516    0.0000 C   0  0  0  0  0  0  0  0  0  0  0  0
    4.8138   -7.5641    0.0000 C   0  0  0  0  0  0  0  0  0  0  0  0
    4.0993   -7.1516    0.0000 C   0  0  0  0  0  0  0  0  0  0  0  0
    4.0993   -6.3266    0.0000 C   0  0  0  0  0  0  0  0  0  0  0  0
    4.8138   -5.9141    0.0000 C   0  0  0  0  0  0  0  0  0  0  0  0
    5.5283   -6.3266    0.0000 C   0  0  0  0  0  0  0  0  0  0  0  0
    6.2428   -5.9141    0.0000 O   0  0  0  0  0  0  0  0  0  0  0  0
    6.2428   -8.3891    0.0000 O   0  0  0  0  0  0  0  0  0  0  0  0
    7.6717   -7.5641    0.0000 C   0  0  0  0  0  0  0  0  0  0  0  0
    8.3862   -7.1516    0.0000 C   0  0  0  0  0  0  0  0  0  0  0  0
    9.1006   -7.5641    0.0000 C   0  0  0  0  0  0  0  0  0  0  0  0
    9.1006   -8.3891    0.0000 C   0  0  0  0  0  0  0  0  0  0  0  0
    8.3862   -8.8016    0.0000 C   0  0  0  0  0  0  0  0  0  0  0  0
    7.6717   -8.3891    0.0000 C   0  0  0  0  0  0  0  0  0  0  0  0
    9.8151   -7.1516    0.0000 C   0  0  0  0  0  0  0  0  0  0  0  0
   10.5296   -7.5641    0.0000 C   0  0  0  0  0  0  0  0  0  0  0  0
   11.2440   -7.1516    0.0000 C   0  0  0  0  0  0  0  0  0  0  0  0
   11.2440   -6.3266    0.0000 C   0  0  0  0  0  0  0  0  0  0  0  0
   11.9585   -7.5641    0.0000 C   0  0  0  0  0  0  0  0  0  0  0  0
   10.5296   -8.3891    0.0000 O   0  0  0  0  0  0  0  0  0  0  0  0
    9.8151   -8.8016    0.0000 O   0  0  0  0  0  0  0  0  0  0  0  0
    3.3849   -5.9141    0.0000 O   0  0  0  0  0  0  0  0  0  0  0  0
  1  2  2  0  0  0  0
  2  3  1  0  0  0  0
  3  4  1  0  0  0  0
  4  5  1  0  0  0  0
  5  6  2  0  0  0  0
  6  7  1  0  0  0  0
  7  8  2  0  0  0  0
  8  9  1  0  0  0  0
  4  9  2  0  0  0  0
  9 10  1  0  0  0  0
  1 10  1  0  0  0  0
  3 11  2  0  0  0  0
 12 13  1  0  0  0  0
 13 14  2  0  0  0  0
 14 15  1  0  0  0  0
 15 16  2  0  0  0  0
 16 17  1  0  0  0  0
 12 17  2  0  0  0  0
 18 19  1  0  0  0  0
 19 20  1  0  0  0  0
 20 21  2  0  0  0  0
 20 22  1  0  0  0  0
 19 23  1  0  0  0  0
 14 18  1  0  0  0  0
 15 24  1  0  0  0  0
  2 12  1  0  0  0  0
  7 25  1  0  0  0  0
M  END
>  <cdx:groupId>
83

>  <cdx:fragmentId>
31

$$$$
