38111.cdx
  Mrv1902 05222410232D          

 25 28  0  0  0  0            999 V2000
    6.8596   -5.9485    0.0000 C   0  0  0  0  0  0  0  0  0  0  0  0
    6.8596   -6.7735    0.0000 C   0  0  0  0  0  0  0  0  0  0  0  0
    6.1451   -7.1860    0.0000 C   0  0  0  0  0  0  0  0  0  0  0  0
    5.4307   -6.7735    0.0000 C   0  0  0  0  0  0  0  0  0  0  0  0
    4.7162   -7.1860    0.0000 C   0  0  0  0  0  0  0  0  0  0  0  0
    4.0017   -6.7735    0.0000 C   0  0  0  0  0  0  0  0  0  0  0  0
    4.0017   -5.9485    0.0000 C   0  0  0  0  0  0  0  0  0  0  0  0
    4.7162   -5.5360    0.0000 C   0  0  0  0  0  0  0  0  0  0  0  0
    5.4307   -5.9485    0.0000 C   0  0  0  0  0  0  0  0  0  0  0  0
    6.1451   -5.5360    0.0000 O   0  0  0  0  0  0  0  0  0  0  0  0
    6.1451   -8.0110    0.0000 O   0  0  0  0  0  0  0  0  0  0  0  0
    9.7876   -8.2659    0.0000 C   0  0  0  0  0  0  0  0  0  0  0  0
   10.2726   -7.5985    0.0000 C   0  0  0  0  0  0  0  0  0  0  0  0
    9.7876   -6.9311    0.0000 O   0  0  0  0  0  0  0  0  0  0  0  0
    9.0030   -7.1860    0.0000 C   0  0  0  0  0  0  0  0  0  0  0  0
    9.0030   -8.0110    0.0000 C   0  0  0  0  0  0  0  0  0  0  0  0
    8.2885   -6.7735    0.0000 C   0  0  0  0  0  0  0  0  0  0  0  0
    7.5741   -7.1860    0.0000 C   0  0  0  0  0  0  0  0  0  0  0  0
    7.5741   -8.0110    0.0000 C   0  0  0  0  0  0  0  0  0  0  0  0
    8.2885   -8.4235    0.0000 C   0  0  0  0  0  0  0  0  0  0  0  0
   11.0976   -6.7735    0.0000 C   0  0  0  0  0  0  0  0  0  0  0  0
   11.0976   -7.5985    0.0000 C   0  0  0  0  0  0  0  0  0  0  0  0
   11.0976   -8.4235    0.0000 C   0  0  0  0  0  0  0  0  0  0  0  0
   11.9226   -7.5985    0.0000 O   0  0  0  0  0  0  0  0  0  0  0  0
    3.2872   -5.5360    0.0000 O   0  0  0  0  0  0  0  0  0  0  0  0
  1  2  2  0  0  0  0
  2  3  1  0  0  0  0
  3  4  1  0  0  0  0
  4  5  1  0  0  0  0
  5  6  2  0  0  0  0
  6  7  1  0  0  0  0
  7  8  2  0  0  0  0
  8  9  1  0  0  0  0
  4  9  2  0  0  0  0
  9 10  1  0  0  0  0
  1 10  1  0  0  0  0
  3 11  2  0  0  0  0
 12 13  2  0  0  0  0
 13 14  1  0  0  0  0
 14 15  1  0  0  0  0
 15 16  1  0  0  0  0
 12 16  1  0  0  0  0
 17 18  1  0  0  0  0
 18 19  2  0  0  0  0
 19 20  1  0  0  0  0
 20 16  2  0  0  0  0
 17 15  2  0  0  0  0
 21 22  1  0  0  0  0
 22 23  1  0  0  0  0
 22 24  1  0  0  0  0
 13 22  1  0  0  0  0
  2 18  1  0  0  0  0
  7 25  1  0  0  0  0
M  END
>  <cdx:groupId>
86

>  <cdx:fragmentId>
33

$$$$
