38126.cdx
  Mrv1902 05222410222D          

 50 54  0  0  0  0            999 V2000
    4.4393  -11.3151    0.0000 C   0  0  2  0  0  0  0  0  0  0  0  0
    4.4393  -12.1401    0.0000 C   0  0  2  0  0  0  0  0  0  0  0  0
    5.1538  -12.5526    0.0000 C   0  0  1  0  0  0  0  0  0  0  0  0
    5.8682  -12.1401    0.0000 C   0  0  2  0  0  0  0  0  0  0  0  0
    5.8682  -11.3151    0.0000 C   0  0  1  0  0  0  0  0  0  0  0  0
    5.1538  -10.9026    0.0000 O   0  0  0  0  0  0  0  0  0  0  0  0
    6.5827  -10.9026    0.0000 O   0  0  0  0  0  0  0  0  0  0  0  0
    6.5827  -10.0776    0.0000 C   0  0  2  0  0  0  0  0  0  0  0  0
    5.8682   -9.6651    0.0000 O   0  0  0  0  0  0  0  0  0  0  0  0
    7.2972   -9.6651    0.0000 C   0  0  1  0  0  0  0  0  0  0  0  0
    7.2972   -8.8401    0.0000 C   0  0  1  0  0  0  0  0  0  0  0  0
    6.5827   -8.4276    0.0000 C   0  0  0  0  0  0  0  0  0  0  0  0
    5.8682   -8.8401    0.0000 C   0  0  0  0  0  0  0  0  0  0  0  0
    8.0818   -9.9201    0.0000 C   0  0  2  0  0  0  0  0  0  0  0  0
    8.5667   -9.2526    0.0000 C   0  0  2  0  0  0  0  0  0  0  0  0
    8.0818   -8.5852    0.0000 C   0  0  0  0  0  0  0  0  0  0  0  0
    3.7248  -10.9026    0.0000 C   0  0  0  0  0  0  0  0  0  0  0  0
    3.0104  -11.3151    0.0000 O   0  0  0  0  0  0  0  0  0  0  0  0
    6.5827   -7.6026    0.0000 C   0  0  0  0  0  0  0  0  0  0  0  0
    5.8682   -7.1901    0.0000 O   0  0  0  0  0  0  0  0  0  0  0  0
    7.2972   -7.1901    0.0000 O   0  0  0  0  0  0  0  0  0  0  0  0
    5.1538  -13.3776    0.0000 O   0  0  0  0  0  0  0  0  0  0  0  0
    8.3367  -10.7047    0.0000 C   0  0  0  0  0  0  0  0  0  0  0  0
    7.2972   -8.0151    0.0000 H   0  0  0  0  0  0  0  0  0  0  0  0
    7.2972  -10.4901    0.0000 H   0  0  0  0  0  0  0  0  0  0  0  0
    9.3917   -9.2526    0.0000 O   0  0  0  0  0  0  0  0  0  0  0  0
    3.7248  -12.5526    0.0000 O   0  0  0  0  0  0  0  0  0  0  0  0
    6.5827  -12.5526    0.0000 O   0  0  0  0  0  0  0  0  0  0  0  0
    9.8042   -8.5382    0.0000 C   0  0  0  0  0  0  0  0  0  0  0  0
   10.6292   -8.5382    0.0000 C   0  0  0  0  0  0  0  0  0  0  0  0
    9.3917   -7.8237    0.0000 O   0  0  0  0  0  0  0  0  0  0  0  0
   11.0417   -7.8237    0.0000 C   0  0  0  0  0  0  0  0  0  0  0  0
   11.8667   -7.8237    0.0000 C   0  0  0  0  0  0  0  0  0  0  0  0
   12.2792   -8.5382    0.0000 C   0  0  0  0  0  0  0  0  0  0  0  0
   13.1042   -8.5382    0.0000 C   0  0  0  0  0  0  0  0  0  0  0  0
   13.5167   -7.8237    0.0000 C   0  0  0  0  0  0  0  0  0  0  0  0
   13.1042   -7.1092    0.0000 C   0  0  0  0  0  0  0  0  0  0  0  0
   12.2792   -7.1092    0.0000 C   0  0  0  0  0  0  0  0  0  0  0  0
   14.3417   -7.8237    0.0000 O   0  0  0  0  0  0  0  0  0  0  0  0
   14.7542   -8.5382    0.0000 C   0  0  2  0  0  0  0  0  0  0  0  0
   14.3417   -9.2526    0.0000 O   0  0  0  0  0  0  0  0  0  0  0  0
   14.7542   -9.9671    0.0000 C   0  0  1  0  0  0  0  0  0  0  0  0
   15.5792   -9.9671    0.0000 C   0  0  2  0  0  0  0  0  0  0  0  0
   15.9917   -9.2526    0.0000 C   0  0  1  0  0  0  0  0  0  0  0  0
   15.5792   -8.5382    0.0000 C   0  0  1  0  0  0  0  0  0  0  0  0
   14.3417  -10.6816    0.0000 C   0  0  0  0  0  0  0  0  0  0  0  0
   16.8167   -9.2526    0.0000 O   0  0  0  0  0  0  0  0  0  0  0  0
   15.9917   -7.8237    0.0000 O   0  0  0  0  0  0  0  0  0  0  0  0
   15.9917  -10.6816    0.0000 O   0  0  0  0  0  0  0  0  0  0  0  0
   14.7542  -11.3961    0.0000 O   0  0  0  0  0  0  0  0  0  0  0  0
  1  2  1  0  0  0  0
  2  3  1  0  0  0  0
  3  4  1  0  0  0  0
  4  5  1  0  0  0  0
  5  6  1  0  0  0  0
  6  1  1  0  0  0  0
  5  7  1  1  0  0  0
  8  7  1  6  0  0  0
  8  9  1  0  0  0  0
  8 10  1  0  0  0  0
 10 11  1  0  0  0  0
 11 12  1  0  0  0  0
 12 13  2  0  0  0  0
 13  9  1  0  0  0  0
 10 14  1  0  0  0  0
 14 15  1  0  0  0  0
 15 16  1  0  0  0  0
 16 11  1  0  0  0  0
  1 17  1  1  0  0  0
 17 18  1  0  0  0  0
 12 19  1  0  0  0  0
 19 20  1  0  0  0  0
 19 21  2  0  0  0  0
  3 22  1  1  0  0  0
 14 23  1  6  0  0  0
 11 24  1  6  0  0  0
 10 25  1  6  0  0  0
 15 26  1  6  0  0  0
  2 27  1  6  0  0  0
  4 28  1  6  0  0  0
 26 29  1  0  0  0  0
 29 30  1  0  0  0  0
 29 31  2  0  0  0  0
 30 32  2  0  0  0  0
 32 33  1  0  0  0  0
 33 34  2  0  0  0  0
 34 35  1  0  0  0  0
 35 36  2  0  0  0  0
 36 37  1  0  0  0  0
 37 38  2  0  0  0  0
 38 33  1  0  0  0  0
 36 39  1  0  0  0  0
 40 39  1  1  0  0  0
 40 41  1  0  0  0  0
 41 42  1  0  0  0  0
 42 43  1  0  0  0  0
 43 44  1  0  0  0  0
 44 45  1  0  0  0  0
 45 40  1  0  0  0  0
 42 46  1  1  0  0  0
 44 47  1  1  0  0  0
 45 48  1  6  0  0  0
 43 49  1  6  0  0  0
 46 50  1  0  0  0  0
M  END
>  <cdx:fragmentId>
5

$$$$
