38129.cdx
  Mrv1902 05222410262D          

 92100  0  0  0  0            999 V2000
   12.0870  -12.1863    0.0000 C   0  0  0  0  0  0  0  0  0  0  0  0
   11.3725  -12.5988    0.0000 C   0  0  0  0  0  0  0  0  0  0  0  0
   11.3725  -13.4238    0.0000 C   0  0  1  0  0  0  0  0  0  0  0  0
   12.0870  -13.8363    0.0000 C   0  0  0  0  0  0  0  0  0  0  0  0
   12.8015  -13.4238    0.0000 C   0  0  0  0  0  0  0  0  0  0  0  0
   13.5160  -13.8363    0.0000 C   0  0  0  0  0  0  0  0  0  0  0  0
   14.2304  -13.4238    0.0000 C   0  0  0  0  0  0  0  0  0  0  0  0
   14.2304  -12.5988    0.0000 C   0  0  1  0  0  0  0  0  0  0  0  0
   14.9449  -12.1863    0.0000 C   0  0  2  0  0  0  0  0  0  0  0  0
   15.7295  -12.4412    0.0000 C   0  0  0  0  0  0  0  0  0  0  0  0
   16.2144  -11.7738    0.0000 C   0  0  0  0  0  0  0  0  0  0  0  0
   15.7295  -11.1063    0.0000 C   0  0  1  0  0  0  0  0  0  0  0  0
   14.9449  -11.3613    0.0000 C   0  0  1  0  0  0  0  0  0  0  0  0
   14.2304  -10.9488    0.0000 C   0  0  0  0  0  0  0  0  0  0  0  0
   13.5160  -11.3613    0.0000 C   0  0  2  0  0  0  0  0  0  0  0  0
   13.5160  -12.1863    0.0000 C   0  0  1  0  0  0  0  0  0  0  0  0
   12.8015  -12.5988    0.0000 C   0  0  2  0  0  0  0  0  0  0  0  0
   14.9449  -13.8363    0.0000 O   0  0  0  0  0  0  0  0  0  0  0  0
   10.6581  -13.8363    0.0000 O   0  0  0  0  0  0  0  0  0  0  0  0
    9.2291  -13.8363    0.0000 O   0  0  0  0  0  0  0  0  0  0  0  0
    9.9436  -13.4238    0.0000 C   0  0  2  0  0  0  0  0  0  0  0  0
    9.9436  -12.5988    0.0000 C   0  0  1  0  0  0  0  0  0  0  0  0
    9.2291  -12.1863    0.0000 C   0  0  2  0  0  0  0  0  0  0  0  0
    8.5147  -12.5988    0.0000 C   0  0  1  0  0  0  0  0  0  0  0  0
    8.5147  -13.4238    0.0000 C   0  0  1  0  0  0  0  0  0  0  0  0
    7.8002  -13.8363    0.0000 C   0  0  0  0  0  0  0  0  0  0  0  0
    7.0857  -13.4238    0.0000 O   0  0  0  0  0  0  0  0  0  0  0  0
    5.6568  -13.4238    0.0000 O   0  0  0  0  0  0  0  0  0  0  0  0
    6.3713  -13.8363    0.0000 C   0  0  2  0  0  0  0  0  0  0  0  0
    6.3713  -14.6613    0.0000 C   0  0  1  0  0  0  0  0  0  0  0  0
    5.6568  -15.0738    0.0000 C   0  0  2  0  0  0  0  0  0  0  0  0
    4.9423  -14.6613    0.0000 C   0  0  1  0  0  0  0  0  0  0  0  0
    4.9423  -13.8363    0.0000 C   0  0  1  0  0  0  0  0  0  0  0  0
    4.2278  -13.4238    0.0000 C   0  0  0  0  0  0  0  0  0  0  0  0
    3.5134  -13.8363    0.0000 O   0  0  0  0  0  0  0  0  0  0  0  0
    4.2278  -15.0738    0.0000 O   0  0  0  0  0  0  0  0  0  0  0  0
    5.6568  -15.8988    0.0000 O   0  0  0  0  0  0  0  0  0  0  0  0
    7.0857  -15.0738    0.0000 O   0  0  0  0  0  0  0  0  0  0  0  0
    7.8002  -12.1863    0.0000 O   0  0  0  0  0  0  0  0  0  0  0  0
    9.2291  -11.3613    0.0000 O   0  0  0  0  0  0  0  0  0  0  0  0
   10.6581  -12.1863    0.0000 O   0  0  0  0  0  0  0  0  0  0  0  0
   14.9449  -13.0113    0.0000 C   0  0  0  0  0  0  0  0  0  0  0  0
   15.0311  -10.5408    0.0000 C   0  0  0  0  0  0  0  0  0  0  0  0
   13.5160  -13.0113    0.0000 C   0  0  0  0  0  0  0  0  0  0  0  0
   12.4995  -14.5507    0.0000 C   0  0  0  0  0  0  0  0  0  0  0  0
   11.6745  -14.5507    0.0000 C   0  0  0  0  0  0  0  0  0  0  0  0
   12.8015  -10.9488    0.0000 O   0  0  0  0  0  0  0  0  0  0  0  0
   15.4324   -9.7086    0.0000 C   0  0  0  0  0  0  0  0  0  0  0  0
   15.9845  -10.3217    0.0000 C   0  0  2  0  0  0  0  0  0  0  0  0
   16.7914  -10.1502    0.0000 C   0  0  0  0  0  0  0  0  0  0  0  0
   17.0464   -9.3656    0.0000 C   0  0  0  0  0  0  0  0  0  0  0  0
   17.8533   -9.1940    0.0000 C   0  0  2  0  0  0  0  0  0  0  0  0
   18.4054   -9.8071    0.0000 C   0  0  0  0  0  0  0  0  0  0  0  0
   19.2124   -9.6356    0.0000 C   0  0  0  0  0  0  0  0  0  0  0  0
   18.1504  -10.5917    0.0000 C   0  0  0  0  0  0  0  0  0  0  0  0
   18.9574  -10.4202    0.0000 O   0  0  0  0  0  0  0  0  0  0  0  0
   18.1083   -8.4094    0.0000 O   0  0  0  0  0  0  0  0  0  0  0  0
   19.4673   -8.8510    0.0000 O   0  0  0  0  0  0  0  0  0  0  0  0
   18.9153   -8.2379    0.0000 C   0  0  2  0  0  0  0  0  0  0  0  0
   19.1702   -7.4533    0.0000 C   0  0  1  0  0  0  0  0  0  0  0  0
   19.9772   -7.2817    0.0000 C   0  0  2  0  0  0  0  0  0  0  0  0
   20.5292   -7.8948    0.0000 C   0  0  1  0  0  0  0  0  0  0  0  0
   20.2743   -8.6794    0.0000 C   0  0  1  0  0  0  0  0  0  0  0  0
   20.8263   -9.2925    0.0000 C   0  0  0  0  0  0  0  0  0  0  0  0
   21.6333   -9.1210    0.0000 O   0  0  0  0  0  0  0  0  0  0  0  0
   22.9923   -9.5626    0.0000 O   0  0  0  0  0  0  0  0  0  0  0  0
   22.1853   -9.7341    0.0000 C   0  0  2  0  0  0  0  0  0  0  0  0
   21.9304  -10.5187    0.0000 C   0  0  1  0  0  0  0  0  0  0  0  0
   22.4824  -11.1318    0.0000 C   0  0  2  0  0  0  0  0  0  0  0  0
   23.2894  -10.9603    0.0000 C   0  0  1  0  0  0  0  0  0  0  0  0
   23.5443  -10.1757    0.0000 C   0  0  1  0  0  0  0  0  0  0  0  0
   24.3513  -10.0041    0.0000 C   0  0  0  0  0  0  0  0  0  0  0  0
   24.9033  -10.6172    0.0000 O   0  0  0  0  0  0  0  0  0  0  0  0
   23.8414  -11.5734    0.0000 O   0  0  0  0  0  0  0  0  0  0  0  0
   22.2275  -11.9164    0.0000 O   0  0  0  0  0  0  0  0  0  0  0  0
   21.1234  -10.6903    0.0000 O   0  0  0  0  0  0  0  0  0  0  0  0
   18.6182   -6.8402    0.0000 O   0  0  0  0  0  0  0  0  0  0  0  0
   19.6801   -5.8840    0.0000 O   0  0  0  0  0  0  0  0  0  0  0  0
   18.8731   -6.0555    0.0000 C   0  0  1  0  0  0  0  0  0  0  0  0
   18.3211   -5.4424    0.0000 C   0  0  1  0  0  0  0  0  0  0  0  0
   18.5760   -4.6578    0.0000 C   0  0  2  0  0  0  0  0  0  0  0  0
   19.3830   -4.4863    0.0000 C   0  0  1  0  0  0  0  0  0  0  0  0
   19.9350   -5.0994    0.0000 C   0  0  1  0  0  0  0  0  0  0  0  0
   20.7420   -4.9279    0.0000 C   0  0  0  0  0  0  0  0  0  0  0  0
   21.2940   -5.5410    0.0000 O   0  0  0  0  0  0  0  0  0  0  0  0
   19.6379   -3.7017    0.0000 O   0  0  0  0  0  0  0  0  0  0  0  0
   18.0240   -4.0447    0.0000 O   0  0  0  0  0  0  0  0  0  0  0  0
   17.5141   -5.6140    0.0000 O   0  0  0  0  0  0  0  0  0  0  0  0
   21.3362   -7.7233    0.0000 O   0  0  0  0  0  0  0  0  0  0  0  0
   20.2321   -6.4971    0.0000 O   0  0  0  0  0  0  0  0  0  0  0  0
   14.2304  -11.7738    0.0000 H   0  0  0  0  0  0  0  0  0  0  0  0
   12.8015  -11.7738    0.0000 H   0  0  0  0  0  0  0  0  0  0  0  0
  1  2  1  0  0  0  0
  2  3  1  0  0  0  0
  3  4  1  0  0  0  0
  4  5  1  0  0  0  0
  5  6  2  0  0  0  0
  6  7  1  0  0  0  0
  7  8  1  0  0  0  0
  8  9  1  0  0  0  0
  9 10  1  0  0  0  0
 10 11  1  0  0  0  0
 12 11  1  1  0  0  0
 12 13  1  0  0  0  0
  9 13  1  0  0  0  0
 13 14  1  0  0  0  0
 14 15  1  0  0  0  0
 15 16  1  0  0  0  0
  8 16  1  0  0  0  0
 16 17  1  0  0  0  0
  5 17  1  0  0  0  0
  1 17  1  0  0  0  0
  7 18  2  0  0  0  0
 20 21  1  0  0  0  0
 21 22  1  0  0  0  0
 22 23  1  0  0  0  0
 23 24  1  0  0  0  0
 24 25  1  0  0  0  0
 20 25  1  0  0  0  0
 28 29  1  0  0  0  0
 29 30  1  0  0  0  0
 30 31  1  0  0  0  0
 31 32  1  0  0  0  0
 32 33  1  0  0  0  0
 28 33  1  0  0  0  0
 34 35  1  0  0  0  0
 33 34  1  1  0  0  0
 32 36  1  6  0  0  0
 31 37  1  1  0  0  0
 30 38  1  6  0  0  0
 29 27  1  1  0  0  0
 26 27  1  0  0  0  0
 25 26  1  6  0  0  0
 24 39  1  1  0  0  0
 23 40  1  6  0  0  0
 22 41  1  1  0  0  0
 21 19  1  6  0  0  0
  3 19  1  1  0  0  0
  9 42  1  6  0  0  0
 13 43  1  1  0  0  0
 16 44  1  1  0  0  0
  4 45  1  0  0  0  0
  4 46  1  0  0  0  0
 15 47  1  6  0  0  0
 49 48  1  6  0  0  0
 49 50  1  0  0  0  0
 50 51  1  0  0  0  0
 51 52  1  0  0  0  0
 52 53  1  0  0  0  0
 53 54  1  0  0  0  0
 53 55  1  0  0  0  0
 53 56  1  0  0  0  0
 58 59  1  0  0  0  0
 59 60  1  0  0  0  0
 60 61  1  0  0  0  0
 61 62  1  0  0  0  0
 62 63  1  0  0  0  0
 58 63  1  0  0  0  0
 66 67  1  0  0  0  0
 67 68  1  0  0  0  0
 68 69  1  0  0  0  0
 69 70  1  0  0  0  0
 70 71  1  0  0  0  0
 66 71  1  0  0  0  0
 72 73  1  0  0  0  0
 71 72  1  6  0  0  0
 70 74  1  1  0  0  0
 69 75  1  6  0  0  0
 68 76  1  1  0  0  0
 67 65  1  6  0  0  0
 64 65  1  0  0  0  0
 63 64  1  1  0  0  0
 78 79  1  0  0  0  0
 79 80  1  0  0  0  0
 80 81  1  0  0  0  0
 81 82  1  0  0  0  0
 82 83  1  0  0  0  0
 78 83  1  0  0  0  0
 84 85  1  0  0  0  0
 83 84  1  1  0  0  0
 82 86  1  6  0  0  0
 81 87  1  1  0  0  0
 80 88  1  6  0  0  0
 79 77  1  6  0  0  0
 60 77  1  6  0  0  0
 62 89  1  6  0  0  0
 61 90  1  1  0  0  0
 59 57  1  1  0  0  0
 52 57  1  1  0  0  0
 12 49  1  0  0  0  0
  8 91  1  1  0  0  0
 17 92  1  6  0  0  0
M  END
>  <cdx:groupId>
827

>  <cdx:fragmentId>
600

$$$$
