38121.cdx
  Mrv1902 05222410222D          

 36 39  0  0  0  0            999 V2000
    3.2506  -10.2410    0.0000 O   0  0  0  0  0  0  0  0  0  0  0  0
    4.6795  -11.0660    0.0000 O   0  0  0  0  0  0  0  0  0  0  0  0
    6.1085  -10.2410    0.0000 O   0  0  0  0  0  0  0  0  0  0  0  0
    7.5374  -11.0660    0.0000 O   0  0  0  0  0  0  0  0  0  0  0  0
   12.5387   -9.8285    0.0000 O   0  0  0  0  0  0  0  0  0  0  0  0
   13.2532  -11.0660    0.0000 C   0  0  0  0  0  0  0  0  0  0  0  0
   12.5387  -11.4785    0.0000 O   0  0  0  0  0  0  0  0  0  0  0  0
   10.3953  -11.0660    0.0000 C   0  0  0  0  0  0  0  0  0  0  0  0
   11.1098  -11.4785    0.0000 C   0  0  0  0  0  0  0  0  0  0  0  0
   11.8242  -11.0660    0.0000 C   0  0  0  0  0  0  0  0  0  0  0  0
   11.8242  -10.2410    0.0000 C   0  0  0  0  0  0  0  0  0  0  0  0
   11.1098   -9.8285    0.0000 C   0  0  0  0  0  0  0  0  0  0  0  0
   10.3953  -10.2410    0.0000 C   0  0  0  0  0  0  0  0  0  0  0  0
    8.9664  -11.0660    0.0000 O   0  0  0  0  0  0  0  0  0  0  0  0
    8.9664   -8.5910    0.0000 O   0  0  0  0  0  0  0  0  0  0  0  0
    8.2519   -9.0035    0.0000 C   0  0  0  0  0  0  0  0  0  0  0  0
    7.5374   -8.5910    0.0000 C   0  0  0  0  0  0  0  0  0  0  0  0
    6.8230   -9.0035    0.0000 C   0  0  0  0  0  0  0  0  0  0  0  0
    6.8230   -9.8285    0.0000 C   0  0  0  0  0  0  0  0  0  0  0  0
    7.5374  -10.2410    0.0000 C   0  0  0  0  0  0  0  0  0  0  0  0
    8.2519   -9.8285    0.0000 C   0  0  0  0  0  0  0  0  0  0  0  0
    8.9664  -10.2410    0.0000 C   0  0  0  0  0  0  0  0  0  0  0  0
    9.6808   -9.8285    0.0000 C   0  0  0  0  0  0  0  0  0  0  0  0
    9.6808   -9.0035    0.0000 C   0  0  0  0  0  0  0  0  0  0  0  0
    6.1085   -8.5910    0.0000 O   0  0  0  0  0  0  0  0  0  0  0  0
    4.6795   -8.5910    0.0000 O   0  0  0  0  0  0  0  0  0  0  0  0
    5.3940   -9.0035    0.0000 C   0  0  2  0  0  0  0  0  0  0  0  0
    5.3940   -9.8285    0.0000 C   0  0  1  0  0  0  0  0  0  0  0  0
    4.6795  -10.2410    0.0000 C   0  0  2  0  0  0  0  0  0  0  0  0
    3.9651   -9.8285    0.0000 C   0  0  1  0  0  0  0  0  0  0  0  0
    3.9651   -9.0035    0.0000 C   0  0  1  0  0  0  0  0  0  0  0  0
    3.2506   -8.5910    0.0000 C   0  0  0  0  0  0  0  0  0  0  0  0
    2.5361   -9.0035    0.0000 O   0  0  0  0  0  0  0  0  0  0  0  0
    1.8217   -7.7660    0.0000 O   0  0  0  0  0  0  0  0  0  0  0  0
    1.1072   -9.0035    0.0000 C   0  0  0  0  0  0  0  0  0  0  0  0
    1.8217   -8.5910    0.0000 C   0  0  0  0  0  0  0  0  0  0  0  0
 33 32  1  0  0  0  0
 31 32  1  1  0  0  0
 30  1  1  6  0  0  0
 29  2  1  1  0  0  0
 28  3  1  6  0  0  0
 27 25  1  1  0  0  0
 25 18  1  0  0  0  0
 20  4  1  0  0  0  0
 23 13  1  0  0  0  0
 11  5  1  0  0  0  0
 10  7  1  0  0  0  0
  7  6  1  0  0  0  0
 13  8  2  0  0  0  0
  9  8  1  0  0  0  0
 10  9  2  0  0  0  0
 11 10  1  0  0  0  0
 12 11  2  0  0  0  0
 13 12  1  0  0  0  0
 22 14  2  0  0  0  0
 24 15  1  0  0  0  0
 16 15  1  0  0  0  0
 21 16  2  0  0  0  0
 17 16  1  0  0  0  0
 18 17  2  0  0  0  0
 19 18  1  0  0  0  0
 20 19  2  0  0  0  0
 21 20  1  0  0  0  0
 22 21  1  0  0  0  0
 23 22  1  0  0  0  0
 24 23  2  0  0  0  0
 31 26  1  0  0  0  0
 27 26  1  0  0  0  0
 28 27  1  0  0  0  0
 29 28  1  0  0  0  0
 30 29  1  0  0  0  0
 31 30  1  0  0  0  0
 36 33  1  0  0  0  0
 36 34  2  0  0  0  0
 36 35  1  0  0  0  0
M  END
>  <cdx:fragmentId>
29

$$$$
