38124.cdx
  Mrv1902 05222410202D          

 18 19  0  0  0  0            999 V2000
    6.3655   -8.4818    0.0000 C   0  0  1  0  0  0  0  0  0  0  0  0
    5.8767   -9.1464    0.0000 C   0  0  0  0  0  0  0  0  0  0  0  0
    6.3577   -9.8166    0.0000 C   0  0  0  0  0  0  0  0  0  0  0  0
    7.1438   -9.5663    0.0000 N   0  0  0  0  0  0  0  0  0  0  0  0
    7.1486   -8.7413    0.0000 C   0  0  2  0  0  0  0  0  0  0  0  0
    7.9269   -9.8258    0.0000 C   0  0  0  0  0  0  0  0  0  0  0  0
    8.4157   -9.1612    0.0000 C   0  0  0  0  0  0  0  0  0  0  0  0
    7.9347   -8.4909    0.0000 C   0  0  0  0  0  0  0  0  0  0  0  0
    7.1534   -7.9163    0.0000 H   0  0  0  0  0  0  0  0  0  0  0  0
    6.1151   -7.6957    0.0000 O   0  0  0  0  0  0  0  0  0  0  0  0
    8.1942   -7.7078    0.0000 C   0  0  0  0  0  0  0  0  0  0  0  0
    9.0022   -7.5410    0.0000 O   0  0  0  0  0  0  0  0  0  0  0  0
    5.3092   -7.5195    0.0000 C   0  0  0  0  0  0  0  0  0  0  0  0
    4.7536   -8.1293    0.0000 O   0  0  0  0  0  0  0  0  0  0  0  0
    5.0588   -6.7334    0.0000 C   0  0  0  0  0  0  0  0  0  0  0  0
    5.6144   -6.1235    0.0000 C   0  0  0  0  0  0  0  0  0  0  0  0
    4.2529   -6.5571    0.0000 C   0  0  0  0  0  0  0  0  0  0  0  0
    3.6973   -7.1670    0.0000 C   0  0  0  0  0  0  0  0  0  0  0  0
  1  2  1  0  0  0  0
  2  3  1  0  0  0  0
  3  4  1  0  0  0  0
  4  5  1  0  0  0  0
  5  1  1  0  0  0  0
  4  6  1  0  0  0  0
  6  7  1  0  0  0  0
  7  8  2  0  0  0  0
  8  5  1  0  0  0  0
  5  9  1  6  0  0  0
  1 10  1  6  0  0  0
  8 11  1  0  0  0  0
 11 12  1  0  0  0  0
 10 13  1  0  0  0  0
 13 14  2  0  0  0  0
 13 15  1  0  0  0  0
 15 16  1  0  0  0  0
 15 17  2  0  0  0  0
 17 18  1  0  0  0  0
M  END
>  <cdx:fragmentId>
5

$$$$
