38127.cdx
  Mrv1902 05222410212D          

 30 32  0  0  0  0            999 V2000
    9.4309   -9.0421    0.0000 C   0  0  0  0  0  0  0  0  0  0  0  0
    8.4776   -8.8230    0.0000 H   0  0  0  0  0  0  0  0  0  0  0  0
    8.4776   -6.3570    0.0000 H   0  0  0  0  0  0  0  0  0  0  0  0
   10.8984   -8.3045    0.0000 C   0  0  0  0  0  0  0  0  0  0  0  0
   10.4859   -7.5900    0.0000 O   0  0  0  0  0  0  0  0  0  0  0  0
    6.9624   -4.7025    0.0000 C   0  0  0  0  0  0  0  0  0  0  0  0
    6.9624   -5.5275    0.0000 O   0  0  0  0  0  0  0  0  0  0  0  0
    8.3914   -5.5275    0.0000 O   0  0  0  0  0  0  0  0  0  0  0  0
    7.6769   -5.9400    0.0000 C   0  0  0  0  0  0  0  0  0  0  0  0
    9.1760   -8.2574    0.0000 C   0  0  1  0  0  0  0  0  0  0  0  0
    9.6609   -7.5900    0.0000 C   0  0  2  0  0  0  0  0  0  0  0  0
    9.1760   -6.9226    0.0000 C   0  0  0  0  0  0  0  0  0  0  0  0
    7.6769   -9.2400    0.0000 O   0  0  0  0  0  0  0  0  0  0  0  0
    7.6769   -6.7650    0.0000 C   0  0  0  0  0  0  0  0  0  0  0  0
    6.9624   -7.1775    0.0000 C   0  0  0  0  0  0  0  0  0  0  0  0
    6.9624   -8.0025    0.0000 O   0  0  0  0  0  0  0  0  0  0  0  0
    7.6769   -8.4150    0.0000 C   0  0  0  0  0  0  0  0  0  0  0  0
    8.3914   -8.0025    0.0000 C   0  0  1  0  0  0  0  0  0  0  0  0
    8.3914   -7.1775    0.0000 C   0  0  2  0  0  0  0  0  0  0  0  0
    6.9624   -9.6525    0.0000 C   0  0  2  0  0  0  0  0  0  0  0  0
    6.2480   -9.2400    0.0000 O   0  0  0  0  0  0  0  0  0  0  0  0
    5.5335   -9.6525    0.0000 C   0  0  1  0  0  0  0  0  0  0  0  0
    5.5335  -10.4775    0.0000 C   0  0  2  0  0  0  0  0  0  0  0  0
    6.2480  -10.8900    0.0000 C   0  0  1  0  0  0  0  0  0  0  0  0
    6.9624  -10.4775    0.0000 C   0  0  1  0  0  0  0  0  0  0  0  0
    4.8190   -9.2400    0.0000 C   0  0  0  0  0  0  0  0  0  0  0  0
    6.2480  -11.7150    0.0000 O   0  0  0  0  0  0  0  0  0  0  0  0
    4.8190  -10.8900    0.0000 O   0  0  0  0  0  0  0  0  0  0  0  0
    7.6769  -10.8900    0.0000 O   0  0  0  0  0  0  0  0  0  0  0  0
    4.1045   -9.6525    0.0000 O   0  0  0  0  0  0  0  0  0  0  0  0
 10  1  1  6  0  0  0
 18  2  1  6  0  0  0
 19  3  1  6  0  0  0
  5  4  1  0  0  0  0
 11  5  1  6  0  0  0
  7  6  1  0  0  0  0
  9  7  1  0  0  0  0
  9  8  2  0  0  0  0
 14  9  1  0  0  0  0
 10 18  1  0  0  0  0
 11 10  1  0  0  0  0
 12 11  1  0  0  0  0
 19 12  1  0  0  0  0
 14 19  1  0  0  0  0
 15 14  2  0  0  0  0
 17 13  1  0  0  0  0
 16 15  1  0  0  0  0
 17 16  1  0  0  0  0
 18 17  1  0  0  0  0
 19 18  1  0  0  0  0
 20 13  1  1  0  0  0
 20 21  1  0  0  0  0
 21 22  1  0  0  0  0
 22 23  1  0  0  0  0
 23 24  1  0  0  0  0
 24 25  1  0  0  0  0
 25 20  1  0  0  0  0
 22 26  1  1  0  0  0
 24 27  1  1  0  0  0
 23 28  1  6  0  0  0
 25 29  1  6  0  0  0
 26 30  1  0  0  0  0
M  END
>  <cdx:fragmentId>
23

$$$$
