38123.cdx
  Mrv1902 05222410222D          

 40 43  0  0  0  0            999 V2000
    8.6982   -8.5160    0.0000 C   0  0  0  0  0  0  0  0  0  0  0  0
    9.4127   -8.1035    0.0000 C   0  0  0  0  0  0  0  0  0  0  0  0
   10.1272   -8.5160    0.0000 C   0  0  0  0  0  0  0  0  0  0  0  0
   10.1272   -9.3410    0.0000 C   0  0  0  0  0  0  0  0  0  0  0  0
    9.4127   -9.7535    0.0000 C   0  0  0  0  0  0  0  0  0  0  0  0
    8.6982   -9.3410    0.0000 O   0  0  0  0  0  0  0  0  0  0  0  0
   10.7403   -7.9640    0.0000 C   0  0  0  0  0  0  0  0  0  0  0  0
   10.4047   -7.2103    0.0000 C   0  0  0  0  0  0  0  0  0  0  0  0
    9.5842   -7.2965    0.0000 C   0  0  0  0  0  0  0  0  0  0  0  0
   10.8416   -9.7535    0.0000 C   0  0  0  0  0  0  0  0  0  0  0  0
   10.8416  -10.5785    0.0000 O   0  0  0  0  0  0  0  0  0  0  0  0
   11.5561   -9.3410    0.0000 O   0  0  0  0  0  0  0  0  0  0  0  0
    7.9838   -8.1035    0.0000 O   0  0  0  0  0  0  0  0  0  0  0  0
    7.2693   -8.5160    0.0000 C   0  0  1  0  0  0  0  0  0  0  0  0
    7.2693   -9.3410    0.0000 C   0  0  2  0  0  0  0  0  0  0  0  0
    7.9838   -9.7535    0.0000 O   0  0  0  0  0  0  0  0  0  0  0  0
    6.5548   -9.7535    0.0000 C   0  0  1  0  0  0  0  0  0  0  0  0
    6.5548  -10.5785    0.0000 O   0  0  0  0  0  0  0  0  0  0  0  0
    5.8404   -9.3410    0.0000 C   0  0  2  0  0  0  0  0  0  0  0  0
    5.1259   -9.7535    0.0000 O   0  0  0  0  0  0  0  0  0  0  0  0
    5.8404   -8.5160    0.0000 C   0  0  2  0  0  0  0  0  0  0  0  0
    6.5548   -8.1035    0.0000 O   0  0  0  0  0  0  0  0  0  0  0  0
    5.1259   -8.1035    0.0000 C   0  0  0  0  0  0  0  0  0  0  0  0
    4.4114   -8.5160    0.0000 O   0  0  0  0  0  0  0  0  0  0  0  0
    9.0322   -6.6834    0.0000 C   0  0  0  0  0  0  0  0  0  0  0  0
    8.2252   -6.8550    0.0000 O   0  0  0  0  0  0  0  0  0  0  0  0
    7.6732   -6.2419    0.0000 C   0  0  0  0  0  0  0  0  0  0  0  0
    6.8662   -6.4134    0.0000 C   0  0  0  0  0  0  0  0  0  0  0  0
    6.3142   -5.8003    0.0000 C   0  0  0  0  0  0  0  0  0  0  0  0
    7.9281   -5.4572    0.0000 O   0  0  0  0  0  0  0  0  0  0  0  0
    5.5072   -5.9718    0.0000 C   0  0  0  0  0  0  0  0  0  0  0  0
    5.2523   -6.7565    0.0000 C   0  0  0  0  0  0  0  0  0  0  0  0
    4.4453   -6.9280    0.0000 C   0  0  0  0  0  0  0  0  0  0  0  0
    3.8933   -6.3149    0.0000 C   0  0  0  0  0  0  0  0  0  0  0  0
    4.1482   -5.5303    0.0000 C   0  0  0  0  0  0  0  0  0  0  0  0
    4.9552   -5.3587    0.0000 C   0  0  0  0  0  0  0  0  0  0  0  0
    3.0863   -6.4864    0.0000 O   0  0  0  0  0  0  0  0  0  0  0  0
    2.5343   -5.8733    0.0000 C   0  0  0  0  0  0  0  0  0  0  0  0
    4.1904   -7.7126    0.0000 O   0  0  0  0  0  0  0  0  0  0  0  0
    3.3834   -7.8841    0.0000 C   0  0  0  0  0  0  0  0  0  0  0  0
  1  2  1  0  0  0  0
  2  3  1  0  0  0  0
  3  4  1  0  0  0  0
  4  5  2  0  0  0  0
  5  6  1  0  0  0  0
  1  6  1  0  0  0  0
  7  8  1  0  0  0  0
  8  9  2  0  0  0  0
  9  2  1  0  0  0  0
  7  3  1  0  0  0  0
 10 11  2  0  0  0  0
 10 12  1  0  0  0  0
  4 10  1  0  0  0  0
 14 15  1  0  0  0  0
 15 16  1  6  0  0  0
 15 17  1  0  0  0  0
 17 18  1  1  0  0  0
 17 19  1  0  0  0  0
 19 20  1  6  0  0  0
 19 21  1  0  0  0  0
 21 22  1  0  0  0  0
 21 23  1  1  0  0  0
 23 24  1  0  0  0  0
 14 22  1  0  0  0  0
 14 13  1  1  0  0  0
  1 13  1  0  0  0  0
 27 28  1  0  0  0  0
 28 29  2  0  0  0  0
 27 30  2  0  0  0  0
 31 32  1  0  0  0  0
 32 33  2  0  0  0  0
 33 34  1  0  0  0  0
 34 35  2  0  0  0  0
 35 36  1  0  0  0  0
 31 36  2  0  0  0  0
 37 38  1  0  0  0  0
 34 37  1  0  0  0  0
 39 40  1  0  0  0  0
 33 39  1  0  0  0  0
 29 31  1  0  0  0  0
 26 27  1  0  0  0  0
 25 26  1  0  0  0  0
  9 25  1  0  0  0  0
M  END
>  <cdx:groupId>
129

>  <cdx:fragmentId>
9

$$$$
