38131.cdx
  Mrv1902 05222410212D          

 39 42  0  0  0  0            999 V2000
    5.0415  -12.6173    0.0000 C   0  0  0  0  0  0  0  0  0  0  0  0
    5.0415  -13.4423    0.0000 C   0  0  2  0  0  0  0  0  0  0  0  0
    5.7560  -13.8548    0.0000 O   0  0  0  0  0  0  0  0  0  0  0  0
    6.4704  -13.4423    0.0000 C   0  0  2  0  0  0  0  0  0  0  0  0
    6.4704  -12.6173    0.0000 C   0  0  1  0  0  0  0  0  0  0  0  0
    5.7560  -12.2048    0.0000 C   0  0  1  0  0  0  0  0  0  0  0  0
    5.7560  -11.3798    0.0000 O   0  0  0  0  0  0  0  0  0  0  0  0
    7.1849  -12.2048    0.0000 O   0  0  0  0  0  0  0  0  0  0  0  0
    5.0415  -14.2673    0.0000 O   0  0  0  0  0  0  0  0  0  0  0  0
    6.4704  -14.2673    0.0000 C   0  0  1  0  0  0  0  0  0  0  0  0
    7.0538  -14.8506    0.0000 C   0  0  0  0  0  0  0  0  0  0  0  0
    7.8507  -14.6371    0.0000 O   0  0  0  0  0  0  0  0  0  0  0  0
    4.3270  -13.8548    0.0000 C   0  0  0  0  0  0  0  0  0  0  0  0
    4.3270  -14.6798    0.0000 O   0  0  0  0  0  0  0  0  0  0  0  0
    3.6126  -13.4423    0.0000 O   0  0  0  0  0  0  0  0  0  0  0  0
    5.0469  -10.9517    0.0000 C   0  0  0  0  0  0  0  0  0  0  0  0
    5.0504  -10.1267    0.0000 C   0  0  0  0  0  0  0  0  0  0  0  0
    4.3307  -11.3612    0.0000 O   0  0  0  0  0  0  0  0  0  0  0  0
    4.3376   -9.7112    0.0000 C   0  0  0  0  0  0  0  0  0  0  0  0
    4.3411   -8.8862    0.0000 C   0  0  0  0  0  0  0  0  0  0  0  0
    5.0572   -8.4767    0.0000 C   0  0  0  0  0  0  0  0  0  0  0  0
    5.0607   -7.6517    0.0000 C   0  0  0  0  0  0  0  0  0  0  0  0
    4.3479   -7.2362    0.0000 C   0  0  0  0  0  0  0  0  0  0  0  0
    3.6318   -7.6457    0.0000 C   0  0  0  0  0  0  0  0  0  0  0  0
    3.6283   -8.4707    0.0000 C   0  0  0  0  0  0  0  0  0  0  0  0
    4.3514   -6.4112    0.0000 O   0  0  0  0  0  0  0  0  0  0  0  0
    5.7769   -7.2422    0.0000 O   0  0  0  0  0  0  0  0  0  0  0  0
    7.1977  -11.3883    0.0000 C   0  0  0  0  0  0  0  0  0  0  0  0
    7.9122  -10.9758    0.0000 C   0  0  0  0  0  0  0  0  0  0  0  0
    6.4833  -10.9758    0.0000 O   0  0  0  0  0  0  0  0  0  0  0  0
    7.9122  -10.1508    0.0000 C   0  0  0  0  0  0  0  0  0  0  0  0
    8.6267   -9.7383    0.0000 C   0  0  0  0  0  0  0  0  0  0  0  0
    9.3411  -10.1508    0.0000 C   0  0  0  0  0  0  0  0  0  0  0  0
   10.0556   -9.7383    0.0000 C   0  0  0  0  0  0  0  0  0  0  0  0
   10.0556   -8.9133    0.0000 C   0  0  0  0  0  0  0  0  0  0  0  0
    9.3411   -8.5008    0.0000 C   0  0  0  0  0  0  0  0  0  0  0  0
    8.6267   -8.9133    0.0000 C   0  0  0  0  0  0  0  0  0  0  0  0
   10.7701   -8.5008    0.0000 O   0  0  0  0  0  0  0  0  0  0  0  0
   10.7701  -10.1508    0.0000 O   0  0  0  0  0  0  0  0  0  0  0  0
  1  2  1  0  0  0  0
  2  3  1  1  0  0  0
  4  3  1  1  0  0  0
  4  5  1  0  0  0  0
  5  6  1  0  0  0  0
  6  1  1  0  0  0  0
  6  7  1  6  0  0  0
  5  8  1  1  0  0  0
  2  9  1  0  0  0  0
  4 10  1  0  0  0  0
  9 10  1  0  0  0  0
 10 11  1  6  0  0  0
 11 12  1  0  0  0  0
  2 13  1  0  0  0  0
 13 14  2  0  0  0  0
 13 15  1  0  0  0  0
 16 17  1  0  0  0  0
 16 18  2  0  0  0  0
 17 19  2  0  0  0  0
 19 20  1  0  0  0  0
 20 21  2  0  0  0  0
 21 22  1  0  0  0  0
 22 23  2  0  0  0  0
 23 24  1  0  0  0  0
 24 25  2  0  0  0  0
 25 20  1  0  0  0  0
 23 26  1  0  0  0  0
 22 27  1  0  0  0  0
 28 29  1  0  0  0  0
 28 30  2  0  0  0  0
 29 31  2  0  0  0  0
 31 32  1  0  0  0  0
 32 33  2  0  0  0  0
 33 34  1  0  0  0  0
 34 35  2  0  0  0  0
 35 36  1  0  0  0  0
 36 37  2  0  0  0  0
 37 32  1  0  0  0  0
 35 38  1  0  0  0  0
 34 39  1  0  0  0  0
 16  7  1  0  0  0  0
 28  8  1  0  0  0  0
M  END
>  <cdx:fragmentId>
196

$$$$
