38133.cdx
  Mrv1902 05222410212D          

 21 23  0  0  0  0            999 V2000
    7.2330   -7.5350    0.0000 H   0  0  0  0  0  0  0  0  0  0  0  0
    9.7015   -7.3204    0.0000 C   0  0  0  0  0  0  0  0  0  0  0  0
    7.2330  -10.0100    0.0000 C   0  0  0  0  0  0  0  0  0  0  0  0
    6.5185   -7.1225    0.0000 C   0  0  0  0  0  0  0  0  0  0  0  0
    6.5185   -7.9475    0.0000 C   0  0  0  0  0  0  0  0  0  0  0  0
    5.8041   -8.3600    0.0000 C   0  0  1  0  0  0  0  0  0  0  0  0
    5.8041   -9.1850    0.0000 C   0  0  0  0  0  0  0  0  0  0  0  0
    6.5185   -9.5975    0.0000 C   0  0  0  0  0  0  0  0  0  0  0  0
    8.6619   -9.1850    0.0000 C   0  0  0  0  0  0  0  0  0  0  0  0
    7.9475   -9.5975    0.0000 C   0  0  0  0  0  0  0  0  0  0  0  0
    7.2330   -9.1850    0.0000 C   0  0  1  0  0  0  0  0  0  0  0  0
    7.2330   -8.3600    0.0000 C   0  0  1  0  0  0  0  0  0  0  0  0
    7.9475   -7.9475    0.0000 C   0  0  0  0  0  0  0  0  0  0  0  0
    8.6619   -8.3600    0.0000 C   0  0  0  0  0  0  0  0  0  0  0  0
    9.4466   -8.1051    0.0000 C   0  0  0  0  0  0  0  0  0  0  0  0
    9.9315   -8.7725    0.0000 C   0  0  0  0  0  0  0  0  0  0  0  0
    9.4466   -9.4399    0.0000 O   0  0  0  0  0  0  0  0  0  0  0  0
    5.0896   -7.9475    0.0000 O   0  0  0  0  0  0  0  0  0  0  0  0
    4.3751   -8.3600    0.0000 C   0  0  0  0  0  0  0  0  0  0  0  0
    3.6606   -7.9475    0.0000 C   0  0  0  0  0  0  0  0  0  0  0  0
    4.3751   -9.1850    0.0000 O   0  0  0  0  0  0  0  0  0  0  0  0
 12  1  1  1  0  0  0
 15  2  1  0  0  0  0
 11  3  1  6  0  0  0
  5  4  2  0  0  0  0
  8 11  1  0  0  0  0
  5 12  1  0  0  0  0
  6  5  1  0  0  0  0
  7  6  1  0  0  0  0
  8  7  1  0  0  0  0
 17  9  1  0  0  0  0
 14  9  2  0  0  0  0
 10  9  1  0  0  0  0
 11 10  1  0  0  0  0
 12 11  1  0  0  0  0
 13 12  1  0  0  0  0
 14 13  1  0  0  0  0
 15 14  1  0  0  0  0
 16 15  2  0  0  0  0
 17 16  1  0  0  0  0
  6 18  1  1  0  0  0
 18 19  1  0  0  0  0
 19 20  1  0  0  0  0
 19 21  2  0  0  0  0
M  END
>  <cdx:fragmentId>
5

$$$$
