38140.cdx
  Mrv1902 05222410202D          

 68 72  0  0  0  0            999 V2000
   15.5075   -6.1479    0.0000 O   0  0  0  0  0  0  0  0  0  0  0  0
   14.7931   -6.5604    0.0000 C   0  0  0  0  0  0  0  0  0  0  0  0
   14.7931   -7.3854    0.0000 C   0  0  2  0  0  0  0  0  0  0  0  0
   15.5075   -7.7979    0.0000 O   0  0  0  0  0  0  0  0  0  0  0  0
   14.0786   -7.7979    0.0000 C   0  0  1  0  0  0  0  0  0  0  0  0
   14.0786   -8.6229    0.0000 O   0  0  0  0  0  0  0  0  0  0  0  0
   13.3641   -7.3854    0.0000 C   0  0  2  0  0  0  0  0  0  0  0  0
   12.6497   -7.7979    0.0000 O   0  0  0  0  0  0  0  0  0  0  0  0
   13.3641   -6.5604    0.0000 C   0  0  2  0  0  0  0  0  0  0  0  0
   14.0786   -6.1479    0.0000 O   0  0  0  0  0  0  0  0  0  0  0  0
   12.6497   -6.1479    0.0000 C   0  0  0  0  0  0  0  0  0  0  0  0
   12.6497   -5.3229    0.0000 O   0  0  0  0  0  0  0  0  0  0  0  0
   16.2220   -8.2104    0.0000 O   0  0  0  0  0  0  0  0  0  0  0  0
   16.9365   -7.7979    0.0000 C   0  0  0  0  0  0  0  0  0  0  0  0
   17.6509   -7.3854    0.0000 C   0  0  0  0  0  0  0  0  0  0  0  0
   17.6509   -6.5604    0.0000 O   0  0  0  0  0  0  0  0  0  0  0  0
   18.3654   -7.7979    0.0000 C   0  0  1  0  0  0  0  0  0  0  0  0
   19.0799   -7.3854    0.0000 O   0  0  0  0  0  0  0  0  0  0  0  0
   18.3654   -8.6229    0.0000 C   0  0  1  0  0  0  0  0  0  0  0  0
   19.0799   -9.0354    0.0000 O   0  0  0  0  0  0  0  0  0  0  0  0
   17.6509   -9.0354    0.0000 C   0  0  2  0  0  0  0  0  0  0  0  0
   16.9365   -8.6229    0.0000 O   0  0  0  0  0  0  0  0  0  0  0  0
   17.6509   -9.8604    0.0000 C   0  0  0  0  0  0  0  0  0  0  0  0
   16.9365  -10.2729    0.0000 O   0  0  0  0  0  0  0  0  0  0  0  0
   16.2220   -7.3854    0.0000 C   0  0  0  0  0  0  0  0  0  0  0  0
   16.2220   -6.5604    0.0000 O   0  0  0  0  0  0  0  0  0  0  0  0
   14.0786   -9.4479    0.0000 O   0  0  0  0  0  0  0  0  0  0  0  0
   14.7931   -9.8604    0.0000 C   0  0  0  0  0  0  0  0  0  0  0  0
   15.5075  -10.2729    0.0000 C   0  0  0  0  0  0  0  0  0  0  0  0
   16.2220   -9.8604    0.0000 O   0  0  0  0  0  0  0  0  0  0  0  0
   15.5075  -11.0979    0.0000 C   0  0  1  0  0  0  0  0  0  0  0  0
   16.2220  -11.5104    0.0000 O   0  0  0  0  0  0  0  0  0  0  0  0
   14.7931  -11.5104    0.0000 C   0  0  1  0  0  0  0  0  0  0  0  0
   14.7931  -12.3354    0.0000 O   0  0  0  0  0  0  0  0  0  0  0  0
   14.0786  -11.0979    0.0000 C   0  0  2  0  0  0  0  0  0  0  0  0
   14.0786  -10.2729    0.0000 O   0  0  0  0  0  0  0  0  0  0  0  0
   13.3641  -11.5104    0.0000 C   0  0  0  0  0  0  0  0  0  0  0  0
   12.6497  -11.0979    0.0000 O   0  0  0  0  0  0  0  0  0  0  0  0
   14.7931   -9.0354    0.0000 C   0  0  0  0  0  0  0  0  0  0  0  0
   15.5075   -8.6229    0.0000 O   0  0  0  0  0  0  0  0  0  0  0  0
   12.6497   -9.4479    0.0000 O   0  0  0  0  0  0  0  0  0  0  0  0
   11.9352   -9.0354    0.0000 C   0  0  0  0  0  0  0  0  0  0  0  0
   11.2207   -8.6229    0.0000 C   0  0  0  0  0  0  0  0  0  0  0  0
   11.2207   -7.7979    0.0000 O   0  0  0  0  0  0  0  0  0  0  0  0
   10.5062   -9.0354    0.0000 C   0  0  1  0  0  0  0  0  0  0  0  0
    9.7918   -8.6229    0.0000 O   0  0  0  0  0  0  0  0  0  0  0  0
   10.5062   -9.8604    0.0000 C   0  0  1  0  0  0  0  0  0  0  0  0
    9.7918  -10.2729    0.0000 O   0  0  0  0  0  0  0  0  0  0  0  0
   11.2207  -10.2729    0.0000 C   0  0  2  0  0  0  0  0  0  0  0  0
   11.9352   -9.8604    0.0000 O   0  0  0  0  0  0  0  0  0  0  0  0
   11.2207  -11.0979    0.0000 C   0  0  0  0  0  0  0  0  0  0  0  0
   10.5062  -11.5104    0.0000 O   0  0  0  0  0  0  0  0  0  0  0  0
   12.6497   -8.6229    0.0000 C   0  0  0  0  0  0  0  0  0  0  0  0
   13.3641   -9.0354    0.0000 O   0  0  0  0  0  0  0  0  0  0  0  0
   11.2207   -4.4979    0.0000 O   0  0  0  0  0  0  0  0  0  0  0  0
   11.2207   -5.3229    0.0000 C   0  0  0  0  0  0  0  0  0  0  0  0
   11.2207   -6.1479    0.0000 C   0  0  0  0  0  0  0  0  0  0  0  0
   11.9352   -6.5604    0.0000 O   0  0  0  0  0  0  0  0  0  0  0  0
   10.5062   -6.5604    0.0000 C   0  0  1  0  0  0  0  0  0  0  0  0
   10.5062   -7.3854    0.0000 O   0  0  0  0  0  0  0  0  0  0  0  0
    9.7918   -6.1479    0.0000 C   0  0  1  0  0  0  0  0  0  0  0  0
    9.0773   -6.5604    0.0000 O   0  0  0  0  0  0  0  0  0  0  0  0
    9.7918   -5.3229    0.0000 C   0  0  2  0  0  0  0  0  0  0  0  0
   10.5062   -4.9104    0.0000 O   0  0  0  0  0  0  0  0  0  0  0  0
    9.0773   -4.9104    0.0000 C   0  0  0  0  0  0  0  0  0  0  0  0
    8.3628   -5.3229    0.0000 O   0  0  0  0  0  0  0  0  0  0  0  0
   11.9352   -4.9104    0.0000 C   0  0  0  0  0  0  0  0  0  0  0  0
   11.9352   -4.0854    0.0000 O   0  0  0  0  0  0  0  0  0  0  0  0
  1  2  1  0  0  0  0
  2  3  1  0  0  0  0
  3  4  1  6  0  0  0
  3  5  1  0  0  0  0
  5  6  1  1  0  0  0
  5  7  1  0  0  0  0
  7  8  1  6  0  0  0
  7  9  1  0  0  0  0
  9 10  1  0  0  0  0
  9 11  1  1  0  0  0
 11 12  1  0  0  0  0
  2 10  1  0  0  0  0
 13 14  1  0  0  0  0
 14 15  1  0  0  0  0
 15 16  2  0  0  0  0
 15 17  1  0  0  0  0
 17 18  1  1  0  0  0
 17 19  1  0  0  0  0
 19 20  1  1  0  0  0
 19 21  1  0  0  0  0
 21 22  1  0  0  0  0
 21 23  1  1  0  0  0
 23 24  1  0  0  0  0
 14 22  1  0  0  0  0
 14 25  1  0  0  0  0
 25 26  2  0  0  0  0
  4 25  1  0  0  0  0
 27 28  1  0  0  0  0
 28 29  1  0  0  0  0
 29 30  2  0  0  0  0
 29 31  1  0  0  0  0
 31 32  1  1  0  0  0
 31 33  1  0  0  0  0
 33 34  1  1  0  0  0
 33 35  1  0  0  0  0
 35 36  1  0  0  0  0
 35 37  1  1  0  0  0
 37 38  1  0  0  0  0
 28 36  1  0  0  0  0
 28 39  1  0  0  0  0
 39 40  2  0  0  0  0
  6 39  1  0  0  0  0
 41 42  1  0  0  0  0
 42 43  1  0  0  0  0
 43 44  2  0  0  0  0
 43 45  1  0  0  0  0
 45 46  1  6  0  0  0
 45 47  1  0  0  0  0
 47 48  1  6  0  0  0
 47 49  1  0  0  0  0
 49 50  1  0  0  0  0
 49 51  1  6  0  0  0
 51 52  1  0  0  0  0
 42 50  1  0  0  0  0
 42 53  1  0  0  0  0
 53 54  2  0  0  0  0
  8 53  1  0  0  0  0
 55 56  1  0  0  0  0
 56 57  1  0  0  0  0
 57 58  2  0  0  0  0
 57 59  1  0  0  0  0
 59 60  1  1  0  0  0
 59 61  1  0  0  0  0
 61 62  1  1  0  0  0
 61 63  1  0  0  0  0
 63 64  1  0  0  0  0
 63 65  1  1  0  0  0
 65 66  1  0  0  0  0
 56 64  1  0  0  0  0
 56 67  1  0  0  0  0
 67 68  2  0  0  0  0
 12 67  1  0  0  0  0
M  END
>  <cdx:groupId>
217

>  <cdx:fragmentId>
36

$$$$
