38155.cdx
  Mrv1902 05222410192D          

 31 30  0  0  0  0            999 V2000
   10.0835   -9.1041    0.0000 O   0  0  0  0  0  0  0  0  0  0  0  0
    9.3691   -7.0416    0.0000 O   0  0  0  0  0  0  0  0  0  0  0  0
    8.6546   -9.1041    0.0000 O   0  0  0  0  0  0  0  0  0  0  0  0
    7.2256   -8.2791    0.0000 O   0  0  0  0  0  0  0  0  0  0  0  0
    7.9401   -7.0416    0.0000 O   0  0  0  0  0  0  0  0  0  0  0  0
   19.3717   -7.8666    0.0000 C   0  0  0  0  0  0  0  0  0  0  0  0
   18.6572   -8.2791    0.0000 C   0  0  0  0  0  0  0  0  0  0  0  0
   17.9427   -7.8666    0.0000 C   0  0  0  0  0  0  0  0  0  0  0  0
   17.2282   -8.2791    0.0000 C   0  0  0  0  0  0  0  0  0  0  0  0
   16.5138   -7.8666    0.0000 C   0  0  0  0  0  0  0  0  0  0  0  0
   15.7993   -8.2791    0.0000 C   0  0  0  0  0  0  0  0  0  0  0  0
   15.0848   -7.8666    0.0000 C   0  0  0  0  0  0  0  0  0  0  0  0
   14.3704   -8.2791    0.0000 C   0  0  0  0  0  0  0  0  0  0  0  0
   13.6559   -7.8666    0.0000 C   0  0  0  0  0  0  0  0  0  0  0  0
   12.9414   -8.2791    0.0000 C   0  0  0  0  0  0  0  0  0  0  0  0
   12.2269   -7.8666    0.0000 C   0  0  0  0  0  0  0  0  0  0  0  0
   11.5125   -8.2791    0.0000 C   0  0  0  0  0  0  0  0  0  0  0  0
   10.7980   -7.8666    0.0000 C   0  0  0  0  0  0  0  0  0  0  0  0
   10.0835   -8.2791    0.0000 C   0  0  0  0  0  0  0  0  0  0  0  0
    9.3691   -7.8666    0.0000 C   0  0  0  0  0  0  0  0  0  0  0  0
    8.6546   -8.2791    0.0000 C   0  0  0  0  0  0  0  0  0  0  0  0
    7.9401   -7.8666    0.0000 C   0  0  0  0  0  0  0  0  0  0  0  0
   10.7980   -7.0416    0.0000 O   0  0  0  0  0  0  0  0  0  0  0  0
   11.5125   -9.1041    0.0000 O   0  0  0  0  0  0  0  0  0  0  0  0
   20.0861   -8.2791    0.0000 C   0  0  0  0  0  0  0  0  0  0  0  0
   20.8006   -7.8666    0.0000 C   0  0  0  0  0  0  0  0  0  0  0  0
   21.5151   -8.2791    0.0000 C   0  0  0  0  0  0  0  0  0  0  0  0
   22.2295   -7.8666    0.0000 C   0  0  0  0  0  0  0  0  0  0  0  0
   22.9440   -8.2791    0.0000 C   0  0  0  0  0  0  0  0  0  0  0  0
   23.6585   -7.8666    0.0000 C   0  0  0  0  0  0  0  0  0  0  0  0
   24.3730   -8.2791    0.0000 C   0  0  0  0  0  0  0  0  0  0  0  0
 19  1  1  0  0  0  0
 20  2  1  0  0  0  0
 21  3  1  0  0  0  0
 22  4  1  0  0  0  0
 22  5  2  0  0  0  0
  7  6  1  0  0  0  0
  8  7  1  0  0  0  0
  9  8  2  0  0  0  0
 10  9  1  0  0  0  0
 11 10  2  0  0  0  0
 12 11  1  0  0  0  0
 13 12  2  0  0  0  0
 14 13  1  0  0  0  0
 15 14  2  0  0  0  0
 16 15  1  0  0  0  0
 17 16  2  0  0  0  0
 18 17  1  0  0  0  0
 19 18  2  0  0  0  0
 20 19  1  0  0  0  0
 21 20  2  0  0  0  0
 22 21  1  0  0  0  0
 18 23  1  0  0  0  0
 17 24  1  0  0  0  0
  6 25  1  0  0  0  0
 25 26  1  0  0  0  0
 26 27  1  0  0  0  0
 27 28  1  0  0  0  0
 28 29  1  0  0  0  0
 29 30  1  0  0  0  0
 30 31  1  0  0  0  0
M  END
>  <cdx:fragmentId>
9

$$$$
