38152.cdx
  Mrv1902 05222410182D          

 54 57  0  0  0  0            999 V2000
   15.1503   -5.1166    0.0000 O   0  0  0  0  0  0  0  0  0  0  0  0
   14.4358   -5.5291    0.0000 C   0  0  0  0  0  0  0  0  0  0  0  0
   14.4358   -6.3541    0.0000 C   0  0  2  0  0  0  0  0  0  0  0  0
   15.1503   -6.7666    0.0000 O   0  0  0  0  0  0  0  0  0  0  0  0
   13.7214   -6.7666    0.0000 C   0  0  1  0  0  0  0  0  0  0  0  0
   13.7214   -7.5916    0.0000 O   0  0  0  0  0  0  0  0  0  0  0  0
   13.0069   -6.3541    0.0000 C   0  0  2  0  0  0  0  0  0  0  0  0
   12.2924   -6.7666    0.0000 O   0  0  0  0  0  0  0  0  0  0  0  0
   13.0069   -5.5291    0.0000 C   0  0  2  0  0  0  0  0  0  0  0  0
   13.7214   -5.1166    0.0000 O   0  0  0  0  0  0  0  0  0  0  0  0
   12.2924   -5.1166    0.0000 C   0  0  0  0  0  0  0  0  0  0  0  0
   11.5779   -5.5291    0.0000 O   0  0  0  0  0  0  0  0  0  0  0  0
   15.8648   -7.1791    0.0000 O   0  0  0  0  0  0  0  0  0  0  0  0
   16.5792   -6.7666    0.0000 C   0  0  0  0  0  0  0  0  0  0  0  0
   17.2937   -6.3541    0.0000 C   0  0  0  0  0  0  0  0  0  0  0  0
   17.2937   -5.5291    0.0000 O   0  0  0  0  0  0  0  0  0  0  0  0
   18.0082   -6.7666    0.0000 C   0  0  1  0  0  0  0  0  0  0  0  0
   18.7227   -6.3541    0.0000 O   0  0  0  0  0  0  0  0  0  0  0  0
   18.0082   -7.5916    0.0000 C   0  0  1  0  0  0  0  0  0  0  0  0
   18.7227   -8.0041    0.0000 O   0  0  0  0  0  0  0  0  0  0  0  0
   17.2937   -8.0041    0.0000 C   0  0  2  0  0  0  0  0  0  0  0  0
   16.5792   -7.5916    0.0000 O   0  0  0  0  0  0  0  0  0  0  0  0
   17.2937   -8.8291    0.0000 C   0  0  0  0  0  0  0  0  0  0  0  0
   16.5792   -9.2416    0.0000 O   0  0  0  0  0  0  0  0  0  0  0  0
   15.8648   -6.3541    0.0000 C   0  0  0  0  0  0  0  0  0  0  0  0
   15.8648   -5.5291    0.0000 O   0  0  0  0  0  0  0  0  0  0  0  0
   13.7214   -8.4166    0.0000 O   0  0  0  0  0  0  0  0  0  0  0  0
   14.4358   -8.8291    0.0000 C   0  0  0  0  0  0  0  0  0  0  0  0
   15.1503   -9.2416    0.0000 C   0  0  0  0  0  0  0  0  0  0  0  0
   15.8648   -8.8291    0.0000 O   0  0  0  0  0  0  0  0  0  0  0  0
   15.1503  -10.0666    0.0000 C   0  0  1  0  0  0  0  0  0  0  0  0
   15.8648  -10.4791    0.0000 O   0  0  0  0  0  0  0  0  0  0  0  0
   14.4358  -10.4791    0.0000 C   0  0  1  0  0  0  0  0  0  0  0  0
   14.4358  -11.3041    0.0000 O   0  0  0  0  0  0  0  0  0  0  0  0
   13.7214  -10.0666    0.0000 C   0  0  2  0  0  0  0  0  0  0  0  0
   13.7214   -9.2416    0.0000 O   0  0  0  0  0  0  0  0  0  0  0  0
   13.0069  -10.4791    0.0000 C   0  0  0  0  0  0  0  0  0  0  0  0
   12.2924  -10.0666    0.0000 O   0  0  0  0  0  0  0  0  0  0  0  0
   14.4358   -8.0041    0.0000 C   0  0  0  0  0  0  0  0  0  0  0  0
   15.1503   -7.5916    0.0000 O   0  0  0  0  0  0  0  0  0  0  0  0
   11.5779   -7.1791    0.0000 O   0  0  0  0  0  0  0  0  0  0  0  0
   11.5779   -8.0041    0.0000 C   0  0  0  0  0  0  0  0  0  0  0  0
   11.5779   -8.8291    0.0000 C   0  0  0  0  0  0  0  0  0  0  0  0
   12.2924   -9.2416    0.0000 O   0  0  0  0  0  0  0  0  0  0  0  0
   10.8635   -9.2416    0.0000 C   0  0  1  0  0  0  0  0  0  0  0  0
   10.8635  -10.0666    0.0000 O   0  0  0  0  0  0  0  0  0  0  0  0
   10.1490   -8.8291    0.0000 C   0  0  1  0  0  0  0  0  0  0  0  0
    9.4345   -9.2416    0.0000 O   0  0  0  0  0  0  0  0  0  0  0  0
   10.1490   -8.0041    0.0000 C   0  0  2  0  0  0  0  0  0  0  0  0
   10.8635   -7.5916    0.0000 O   0  0  0  0  0  0  0  0  0  0  0  0
    9.4345   -7.5916    0.0000 C   0  0  0  0  0  0  0  0  0  0  0  0
    8.7201   -8.0041    0.0000 O   0  0  0  0  0  0  0  0  0  0  0  0
   12.2924   -7.5916    0.0000 C   0  0  0  0  0  0  0  0  0  0  0  0
   13.0069   -8.0041    0.0000 O   0  0  0  0  0  0  0  0  0  0  0  0
  1  2  1  0  0  0  0
  2  3  1  0  0  0  0
  3  4  1  6  0  0  0
  3  5  1  0  0  0  0
  5  6  1  1  0  0  0
  5  7  1  0  0  0  0
  7  8  1  6  0  0  0
  7  9  1  0  0  0  0
  9 10  1  0  0  0  0
  9 11  1  1  0  0  0
 11 12  1  0  0  0  0
  2 10  1  0  0  0  0
 13 14  1  0  0  0  0
 14 15  1  0  0  0  0
 15 16  2  0  0  0  0
 15 17  1  0  0  0  0
 17 18  1  1  0  0  0
 17 19  1  0  0  0  0
 19 20  1  1  0  0  0
 19 21  1  0  0  0  0
 21 22  1  0  0  0  0
 21 23  1  1  0  0  0
 23 24  1  0  0  0  0
 14 22  1  0  0  0  0
 14 25  1  0  0  0  0
 25 26  2  0  0  0  0
  4 25  1  0  0  0  0
 27 28  1  0  0  0  0
 28 29  1  0  0  0  0
 29 30  2  0  0  0  0
 29 31  1  0  0  0  0
 31 32  1  1  0  0  0
 31 33  1  0  0  0  0
 33 34  1  1  0  0  0
 33 35  1  0  0  0  0
 35 36  1  0  0  0  0
 35 37  1  1  0  0  0
 37 38  1  0  0  0  0
 28 36  1  0  0  0  0
 28 39  1  0  0  0  0
 39 40  2  0  0  0  0
  6 39  1  0  0  0  0
 41 42  1  0  0  0  0
 42 43  1  0  0  0  0
 43 44  2  0  0  0  0
 43 45  1  0  0  0  0
 45 46  1  1  0  0  0
 45 47  1  0  0  0  0
 47 48  1  1  0  0  0
 47 49  1  0  0  0  0
 49 50  1  0  0  0  0
 49 51  1  1  0  0  0
 51 52  1  0  0  0  0
 42 50  1  0  0  0  0
 42 53  1  0  0  0  0
 53 54  2  0  0  0  0
  8 53  1  0  0  0  0
M  END
>  <cdx:groupId>
173

>  <cdx:fragmentId>
35

$$$$
