38156.cdx
  Mrv1902 05222410202D          

 22 21  0  0  0  0            999 V2000
   10.3860   -9.2141    0.0000 O   0  0  0  0  0  0  0  0  0  0  0  0
    9.6716   -7.1516    0.0000 O   0  0  0  0  0  0  0  0  0  0  0  0
    8.9571   -9.2141    0.0000 O   0  0  0  0  0  0  0  0  0  0  0  0
    7.5281   -8.3891    0.0000 O   0  0  0  0  0  0  0  0  0  0  0  0
    8.2426   -7.1516    0.0000 O   0  0  0  0  0  0  0  0  0  0  0  0
   19.6742   -7.9766    0.0000 C   0  0  0  0  0  0  0  0  0  0  0  0
   18.9597   -8.3891    0.0000 C   0  0  0  0  0  0  0  0  0  0  0  0
   18.2452   -7.9766    0.0000 C   0  0  0  0  0  0  0  0  0  0  0  0
   17.5307   -8.3891    0.0000 C   0  0  0  0  0  0  0  0  0  0  0  0
   16.8163   -7.9766    0.0000 C   0  0  0  0  0  0  0  0  0  0  0  0
   16.1018   -8.3891    0.0000 C   0  0  0  0  0  0  0  0  0  0  0  0
   15.3873   -7.9766    0.0000 C   0  0  0  0  0  0  0  0  0  0  0  0
   14.6729   -8.3891    0.0000 C   0  0  0  0  0  0  0  0  0  0  0  0
   13.9584   -7.9766    0.0000 C   0  0  0  0  0  0  0  0  0  0  0  0
   13.2439   -8.3891    0.0000 C   0  0  0  0  0  0  0  0  0  0  0  0
   12.5294   -7.9766    0.0000 C   0  0  0  0  0  0  0  0  0  0  0  0
   11.8150   -8.3891    0.0000 C   0  0  0  0  0  0  0  0  0  0  0  0
   11.1005   -7.9766    0.0000 C   0  0  0  0  0  0  0  0  0  0  0  0
   10.3860   -8.3891    0.0000 C   0  0  0  0  0  0  0  0  0  0  0  0
    9.6716   -7.9766    0.0000 C   0  0  0  0  0  0  0  0  0  0  0  0
    8.9571   -8.3891    0.0000 C   0  0  0  0  0  0  0  0  0  0  0  0
    8.2426   -7.9766    0.0000 C   0  0  0  0  0  0  0  0  0  0  0  0
 19  1  1  0  0  0  0
 20  2  1  0  0  0  0
 21  3  1  0  0  0  0
 22  4  1  0  0  0  0
 22  5  2  0  0  0  0
  7  6  1  0  0  0  0
  8  7  1  0  0  0  0
  9  8  1  0  0  0  0
 10  9  1  0  0  0  0
 11 10  1  0  0  0  0
 12 11  1  0  0  0  0
 13 12  1  0  0  0  0
 14 13  1  0  0  0  0
 15 14  1  0  0  0  0
 16 15  1  0  0  0  0
 17 16  2  0  0  0  0
 18 17  1  0  0  0  0
 19 18  2  0  0  0  0
 20 19  1  0  0  0  0
 21 20  2  0  0  0  0
 22 21  1  0  0  0  0
M  END
>  <cdx:fragmentId>
9

$$$$
