38153.cdx
  Mrv1902 05222410182D          

 15 17  0  0  0  0            999 V2000
    6.4690   -7.0934    0.0000 C   0  0  0  0  0  0  0  0  0  0  0  0
    5.6441   -7.0974    0.0000 C   0  0  0  0  0  0  0  0  0  0  0  0
    5.3061   -7.8500    0.0000 C   0  0  0  0  0  0  0  0  0  0  0  0
    5.8515   -8.4684    0.0000 C   0  0  0  0  0  0  0  0  0  0  0  0
    6.1846   -9.2232    0.0000 C   0  0  0  0  0  0  0  0  0  0  0  0
    7.0053   -9.1396    0.0000 C   0  0  0  0  0  0  0  0  0  0  0  0
    7.1795   -8.3332    0.0000 C   0  0  0  0  0  0  0  0  0  0  0  0
    7.8953   -7.9230    0.0000 C   0  0  0  0  0  0  0  0  0  0  0  0
    7.8980   -7.0980    0.0000 C   0  0  0  0  0  0  0  0  0  0  0  0
    7.1849   -6.6832    0.0000 C   0  0  0  0  0  0  0  0  0  0  0  0
    6.4664   -7.9184    0.0000 C   0  0  0  0  0  0  0  0  0  0  0  0
    5.1357   -8.8786    0.0000 C   0  0  0  0  0  0  0  0  0  0  0  0
    4.9309   -6.6826    0.0000 C   0  0  0  0  0  0  0  0  0  0  0  0
    7.8454   -8.8203    0.0000 C   0  0  0  0  0  0  0  0  0  0  0  0
    6.4637   -8.7434    0.0000 C   0  0  0  0  0  0  0  0  0  0  0  0
  1  2  1  0  0  0  0
  2  3  1  0  0  0  0
  3  4  1  0  0  0  0
  4  5  1  0  0  0  0
  5  6  1  0  0  0  0
  6  7  1  0  0  0  0
  7  8  1  0  0  0  0
  8  9  2  0  0  0  0
  9 10  1  0  0  0  0
  1 10  1  0  0  0  0
  1 11  1  0  0  0  0
 11  7  1  0  0  0  0
  4 11  1  0  0  0  0
  4 12  1  0  0  0  0
  2 13  1  0  0  0  0
  7 14  1  0  0  0  0
 11 15  1  0  0  0  0
M  END
>  <cdx:fragmentId>
57

$$$$
