38159.cdx
  Mrv1902 05222410262D          

 23 22  0  0  0  0            999 V2000
   10.1113   -9.2416    0.0000 O   0  0  0  0  0  0  0  0  0  0  0  0
    9.3968   -7.1791    0.0000 O   0  0  0  0  0  0  0  0  0  0  0  0
    8.6824   -9.2416    0.0000 O   0  0  0  0  0  0  0  0  0  0  0  0
    7.2534   -8.4166    0.0000 O   0  0  0  0  0  0  0  0  0  0  0  0
    7.9679   -7.1791    0.0000 O   0  0  0  0  0  0  0  0  0  0  0  0
   20.1139   -8.4166    0.0000 C   0  0  0  0  0  0  0  0  0  0  0  0
   19.3994   -8.0041    0.0000 C   0  0  0  0  0  0  0  0  0  0  0  0
   18.6849   -8.4166    0.0000 C   0  0  0  0  0  0  0  0  0  0  0  0
   17.9705   -8.0041    0.0000 C   0  0  0  0  0  0  0  0  0  0  0  0
   17.2560   -8.4166    0.0000 C   0  0  0  0  0  0  0  0  0  0  0  0
   16.5415   -8.0041    0.0000 C   0  0  0  0  0  0  0  0  0  0  0  0
   15.8271   -8.4166    0.0000 C   0  0  0  0  0  0  0  0  0  0  0  0
   15.1126   -8.0041    0.0000 C   0  0  0  0  0  0  0  0  0  0  0  0
   14.3981   -8.4166    0.0000 C   0  0  0  0  0  0  0  0  0  0  0  0
   13.6837   -8.0041    0.0000 C   0  0  0  0  0  0  0  0  0  0  0  0
   12.9692   -8.4166    0.0000 C   0  0  0  0  0  0  0  0  0  0  0  0
   12.2547   -8.0041    0.0000 C   0  0  0  0  0  0  0  0  0  0  0  0
   11.5402   -8.4166    0.0000 C   0  0  0  0  0  0  0  0  0  0  0  0
   10.8258   -8.0041    0.0000 C   0  0  0  0  0  0  0  0  0  0  0  0
   10.1113   -8.4166    0.0000 C   0  0  0  0  0  0  0  0  0  0  0  0
    9.3968   -8.0041    0.0000 C   0  0  0  0  0  0  0  0  0  0  0  0
    8.6824   -8.4166    0.0000 C   0  0  0  0  0  0  0  0  0  0  0  0
    7.9679   -8.0041    0.0000 C   0  0  0  0  0  0  0  0  0  0  0  0
 20  1  1  0  0  0  0
 21  2  1  0  0  0  0
 22  3  1  0  0  0  0
 23  4  1  0  0  0  0
 23  5  2  0  0  0  0
  7  6  1  0  0  0  0
  8  7  1  0  0  0  0
  9  8  1  0  0  0  0
 10  9  1  0  0  0  0
 11 10  1  0  0  0  0
 12 11  1  0  0  0  0
 13 12  1  0  0  0  0
 14 13  1  0  0  0  0
 15 14  1  0  0  0  0
 16 15  1  0  0  0  0
 17 16  1  0  0  0  0
 18 17  1  0  0  0  0
 19 18  1  0  0  0  0
 20 19  2  0  0  0  0
 21 20  1  0  0  0  0
 22 21  2  0  0  0  0
 23 22  1  0  0  0  0
M  END
>  <cdx:fragmentId>
23860

$$$$
