38164.cdx
  Mrv1902 05222410272D          

 13 13  0  0  0  0            999 V2000
    7.8755   -6.4711    0.0000 C   0  0  0  0  0  0  0  0  0  0  0  0
    7.8754   -7.2961    0.0000 C   0  0  0  0  0  0  0  0  0  0  0  0
    7.1609   -7.7086    0.0000 C   0  0  0  0  0  0  0  0  0  0  0  0
    7.1611   -6.0586    0.0000 O   0  0  0  0  0  0  0  0  0  0  0  0
    8.5900   -6.0587    0.0000 O   0  5  0  0  0  0  0  0  0  0  0  0
    7.1608   -8.5336    0.0000 C   0  0  0  0  0  0  0  0  0  0  0  0
    7.8752   -8.9461    0.0000 C   0  0  0  0  0  0  0  0  0  0  0  0
    7.8751   -9.7711    0.0000 C   0  0  0  0  0  0  0  0  0  0  0  0
    7.1606  -10.1836    0.0000 C   0  0  0  0  0  0  0  0  0  0  0  0
    6.4462   -9.7710    0.0000 C   0  0  0  0  0  0  0  0  0  0  0  0
    6.4463   -8.9460    0.0000 C   0  0  0  0  0  0  0  0  0  0  0  0
    7.1605  -11.0086    0.0000 O   0  0  0  0  0  0  0  0  0  0  0  0
    6.4460  -11.4210    0.0000 C   0  0  0  0  0  0  0  0  0  0  0  0
  1  2  1  0  0  0  0
  2  3  2  0  0  0  0
  1  4  2  0  0  0  0
  1  5  1  0  0  0  0
  6  7  1  0  0  0  0
  7  8  2  0  0  0  0
  8  9  1  0  0  0  0
  9 10  2  0  0  0  0
 10 11  1  0  0  0  0
  6 11  2  0  0  0  0
 12 13  1  0  0  0  0
  9 12  1  0  0  0  0
  3  6  1  0  0  0  0
M  CHG  1   5  -1
M  END
>  <cdx:fragmentId>
15

$$$$
