381847.cdx
  Mrv1902 05222410282D          

 24 26  0  0  0  0            999 V2000
    4.1745   -7.3402    0.0000 C   0  0  0  0  0  0  0  0  0  0  0  0
    4.1745   -8.1652    0.0000 C   0  0  0  0  0  0  0  0  0  0  0  0
    4.8890   -8.5777    0.0000 C   0  0  0  0  0  0  0  0  0  0  0  0
    5.6035   -8.1652    0.0000 C   0  0  0  0  0  0  0  0  0  0  0  0
    5.6035   -7.3402    0.0000 C   0  0  0  0  0  0  0  0  0  0  0  0
    4.8890   -6.9277    0.0000 C   0  0  0  0  0  0  0  0  0  0  0  0
    3.4600   -6.9277    0.0000 O   0  0  0  0  0  0  0  0  0  0  0  0
    3.4600   -8.5777    0.0000 O   0  0  0  0  0  0  0  0  0  0  0  0
    2.7456   -8.1652    0.0000 C   0  0  0  0  0  0  0  0  0  0  0  0
    6.3179   -8.5777    0.0000 C   0  0  0  0  0  0  0  0  0  0  0  0
    7.0324   -8.1652    0.0000 C   0  0  1  0  0  0  0  0  0  0  0  0
    7.7469   -8.5777    0.0000 C   0  0  1  0  0  0  0  0  0  0  0  0
    8.4613   -8.1652    0.0000 C   0  0  0  0  0  0  0  0  0  0  0  0
    7.7469   -9.4027    0.0000 C   0  0  0  0  0  0  0  0  0  0  0  0
    7.0324   -7.3402    0.0000 C   0  0  0  0  0  0  0  0  0  0  0  0
   11.3894   -9.6576    0.0000 O   0  0  0  0  0  0  0  0  0  0  0  0
   11.8743   -8.9902    0.0000 C   0  0  0  0  0  0  0  0  0  0  0  0
   11.3894   -8.3227    0.0000 O   0  0  0  0  0  0  0  0  0  0  0  0
   10.6048   -8.5777    0.0000 C   0  0  0  0  0  0  0  0  0  0  0  0
   10.6048   -9.4027    0.0000 C   0  0  0  0  0  0  0  0  0  0  0  0
    9.8903   -8.1652    0.0000 C   0  0  0  0  0  0  0  0  0  0  0  0
    9.1758   -8.5777    0.0000 C   0  0  0  0  0  0  0  0  0  0  0  0
    9.1758   -9.4027    0.0000 C   0  0  0  0  0  0  0  0  0  0  0  0
    9.8903   -9.8152    0.0000 C   0  0  0  0  0  0  0  0  0  0  0  0
  1  2  1  0  0  0  0
  2  3  2  0  0  0  0
  3  4  1  0  0  0  0
  4  5  2  0  0  0  0
  5  6  1  0  0  0  0
  1  6  2  0  0  0  0
  1  7  1  0  0  0  0
  8  9  1  0  0  0  0
  2  8  1  0  0  0  0
 10 11  1  0  0  0  0
 11 12  1  0  0  0  0
 12 13  1  0  0  0  0
 12 14  1  1  0  0  0
 11 15  1  6  0  0  0
 16 17  1  0  0  0  0
 17 18  1  0  0  0  0
 18 19  1  0  0  0  0
 19 20  1  0  0  0  0
 16 20  1  0  0  0  0
 21 22  1  0  0  0  0
 22 23  2  0  0  0  0
 23 24  1  0  0  0  0
 24 20  2  0  0  0  0
 21 19  2  0  0  0  0
 13 22  1  0  0  0  0
  4 10  1  0  0  0  0
M  END
>  <cdx:fragmentId>
3092

$$$$
