382.cdx
  Mrv1902 05222410242D          

 17 17  0  0  0  0            999 V2000
    5.5573   -8.7807    0.0000 C   0  0  0  0  0  0  0  0  0  0  0  0
    5.5573   -9.6057    0.0000 C   0  0  1  0  0  0  0  0  0  0  0  0
    6.2718  -10.0182    0.0000 C   0  0  0  0  0  0  0  0  0  0  0  0
    6.9862   -9.6057    0.0000 C   0  0  1  0  0  0  0  0  0  0  0  0
    6.9862   -8.7807    0.0000 C   0  0  1  0  0  0  0  0  0  0  0  0
    6.2718   -8.3682    0.0000 C   0  0  2  0  0  0  0  0  0  0  0  0
    4.8428  -10.0182    0.0000 O   0  0  0  0  0  0  0  0  0  0  0  0
    5.8593   -7.6537    0.0000 C   0  0  0  0  0  0  0  0  0  0  0  0
    7.7007   -8.3682    0.0000 C   0  0  0  0  0  0  0  0  0  0  0  0
    6.6843   -7.6537    0.0000 C   0  0  0  0  0  0  0  0  0  0  0  0
    8.4152   -8.7807    0.0000 C   0  0  0  0  0  0  0  0  0  0  0  0
    9.1297   -8.3682    0.0000 C   0  0  0  0  0  0  0  0  0  0  0  0
    9.8441   -8.7807    0.0000 C   0  0  0  0  0  0  0  0  0  0  0  0
    9.1297   -7.5432    0.0000 O   0  0  0  0  0  0  0  0  0  0  0  0
    6.9862   -8.1207    0.0000 O   0  0  0  0  0  0  0  0  0  0  0  0
    7.7007   -9.1932    0.0000 C   0  0  0  0  0  0  0  0  0  0  0  0
    7.7007  -10.0182    0.0000 O   0  0  0  0  0  0  0  0  0  0  0  0
  1  2  1  0  0  0  0
  2  3  1  0  0  0  0
  3  4  1  0  0  0  0
  4  5  1  0  0  0  0
  5  6  1  0  0  0  0
  6  1  1  0  0  0  0
  6  8  1  1  0  0  0
  5  9  1  1  0  0  0
  6 10  1  6  0  0  0
  9 11  2  0  0  0  0
 11 12  1  0  0  0  0
 12 13  1  0  0  0  0
 12 14  2  0  0  0  0
  5 15  1  6  0  0  0
  2  7  1  1  0  0  0
  4 16  1  1  0  0  0
  4 17  1  6  0  0  0
M  END
>  <cdx:fragmentId>
5

$$$$
