10382239.cdx
  Mrv1902 05222410182D          

 28 33  0  0  0  0            999 V2000
    6.7279   -7.1682    0.0000 C   0  0  2  0  0  0  0  0  0  0  0  0
    5.9029   -7.1682    0.0000 C   0  0  0  0  0  0  0  0  0  0  0  0
    5.3509   -7.7813    0.0000 C   0  0  0  0  0  0  0  0  0  0  0  0
    4.5439   -7.6098    0.0000 C   0  0  0  0  0  0  0  0  0  0  0  0
    4.2890   -6.8252    0.0000 C   0  0  0  0  0  0  0  0  0  0  0  0
    4.8410   -6.2121    0.0000 C   0  0  0  0  0  0  0  0  0  0  0  0
    5.6480   -6.3836    0.0000 C   0  0  0  0  0  0  0  0  0  0  0  0
    6.3154   -5.8987    0.0000 N   0  0  0  0  0  0  0  0  0  0  0  0
    6.4017   -5.0782    0.0000 C   0  0  0  0  0  0  0  0  0  0  0  0
    7.1554   -4.7426    0.0000 C   0  0  0  0  0  0  0  0  0  0  0  0
    7.8228   -5.2276    0.0000 C   0  0  0  0  0  0  0  0  0  0  0  0
    7.7366   -6.0480    0.0000 C   0  0  0  0  0  0  0  0  0  0  0  0
    8.3255   -6.6259    0.0000 C   0  0  2  0  0  0  0  0  0  0  0  0
    8.4271   -7.5113    0.0000 C   0  0  0  0  0  0  0  0  0  0  0  0
    7.9205   -8.2443    0.0000 C   0  0  0  0  0  0  0  0  0  0  0  0
    7.0565   -8.4620    0.0000 N   0  0  0  0  0  0  0  0  0  0  0  0
    6.2333   -8.4081    0.0000 C   0  0  0  0  0  0  0  0  0  0  0  0
    6.0302   -7.6084    0.0000 C   0  0  0  0  0  0  0  0  0  0  0  0
    7.3622   -7.6957    0.0000 C   0  0  1  0  0  0  0  0  0  0  0  0
    8.1435   -7.4306    0.0000 C   0  0  0  0  0  0  0  0  0  0  0  0
    6.9829   -6.3836    0.0000 C   0  0  1  0  0  0  0  0  0  0  0  0
    5.7342   -4.5933    0.0000 O   0  0  0  0  0  0  0  0  0  0  0  0
    9.2274   -7.7116    0.0000 C   0  0  0  0  0  0  0  0  0  0  0  0
    9.4672   -8.5010    0.0000 C   0  0  0  0  0  0  0  0  0  0  0  0
   10.2707   -8.6881    0.0000 O   0  0  0  0  0  0  0  0  0  0  0  0
    9.0400   -6.2134    0.0000 H   0  0  0  0  0  0  0  0  0  0  0  0
    7.4126   -8.5192    0.0000 H   0  0  0  0  0  0  0  0  0  0  0  0
    6.9829   -5.5586    0.0000 H   0  0  0  0  0  0  0  0  0  0  0  0
  1  2  1  1  0  0  0
  2  3  2  0  0  0  0
  3  4  1  0  0  0  0
  4  5  2  0  0  0  0
  5  6  1  0  0  0  0
  6  7  2  0  0  0  0
  7  8  1  0  0  0  0
  8  9  1  0  0  0  0
  9 10  1  0  0  0  0
 10 11  1  0  0  0  0
 11 12  2  0  0  0  0
 12 13  1  0  0  0  0
 13 14  1  0  0  0  0
 14 15  1  0  0  0  0
 15 16  1  0  0  0  0
 16 17  1  0  0  0  0
 17 18  1  0  0  0  0
 19 20  1  0  0  0  0
  1 18  1  6  0  0  0
  1 19  1  0  0  0  0
 13 20  1  1  0  0  0
 16 19  1  0  0  0  0
  8 21  1  0  0  0  0
 21  1  1  0  0  0  0
  2  7  1  0  0  0  0
 12 21  1  0  0  0  0
  9 22  2  0  0  0  0
 23 24  1  0  0  0  0
 24 25  1  0  0  0  0
 14 23  2  0  0  0  0
 13 26  1  0  0  0  0
 19 27  1  1  0  0  0
 21 28  1  6  0  0  0
M  END
>  <cdx:groupId>
91

>  <cdx:fragmentId>
5

$$$$
