3830.cdx
  Mrv1902 05222410242D          

 16 18  0  0  0  0            999 V2000
    8.0616   -7.0018    0.0000 N   0  0  0  0  0  0  0  0  0  0  0  0
    8.5465   -7.6693    0.0000 C   0  0  0  0  0  0  0  0  0  0  0  0
    8.0616   -8.3367    0.0000 N   0  0  0  0  0  0  0  0  0  0  0  0
    7.2770   -8.0818    0.0000 C   0  0  0  0  0  0  0  0  0  0  0  0
    6.5625   -8.4943    0.0000 N   0  0  0  0  0  0  0  0  0  0  0  0
    5.8481   -8.0818    0.0000 C   0  0  0  0  0  0  0  0  0  0  0  0
    5.8481   -7.2568    0.0000 N   0  0  0  0  0  0  0  0  0  0  0  0
    6.5625   -6.8443    0.0000 C   0  0  0  0  0  0  0  0  0  0  0  0
    7.2770   -7.2568    0.0000 C   0  0  0  0  0  0  0  0  0  0  0  0
    6.5625   -6.0193    0.0000 N   0  0  0  0  0  0  0  0  0  0  0  0
    5.8481   -5.6068    0.0000 C   0  0  0  0  0  0  0  0  0  0  0  0
    5.4356   -3.5122    0.0000 C   0  0  0  0  0  0  0  0  0  0  0  0
    6.2606   -3.5122    0.0000 C   0  0  0  0  0  0  0  0  0  0  0  0
    6.5155   -4.2968    0.0000 C   0  0  0  0  0  0  0  0  0  0  0  0
    5.8481   -4.7818    0.0000 C   0  0  0  0  0  0  0  0  0  0  0  0
    5.1806   -4.2968    0.0000 O   0  0  0  0  0  0  0  0  0  0  0  0
 16 12  1  0  0  0  0
 13 12  2  0  0  0  0
 14 13  1  0  0  0  0
 15 14  2  0  0  0  0
 16 15  1  0  0  0  0
  1  2  1  0  0  0  0
  2  3  2  0  0  0  0
  3  4  1  0  0  0  0
  4  5  2  0  0  0  0
  5  6  1  0  0  0  0
  6  7  2  0  0  0  0
  7  8  1  0  0  0  0
  8  9  2  0  0  0  0
  1  9  1  0  0  0  0
  4  9  1  0  0  0  0
  8 10  1  0  0  0  0
 11 15  1  0  0  0  0
 10 11  1  0  0  0  0
M  END
>  <cdx:groupId>
52

>  <cdx:fragmentId>
5

$$$$
