14038380.cdx
  Mrv1902 05222410192D          

 19 20  0  0  0  0            999 V2000
    8.3844  -15.6558    0.0000 O   0  0  0  0  0  0  0  0  0  0  0  0
    8.8693  -14.9884    0.0000 C   0  0  0  0  0  0  0  0  0  0  0  0
    8.3844  -14.3209    0.0000 C   0  0  1  0  0  0  0  0  0  0  0  0
    7.5997  -14.5759    0.0000 C   0  0  1  0  0  0  0  0  0  0  0  0
    6.8853  -14.1634    0.0000 C   0  0  0  0  0  0  0  0  0  0  0  0
    6.1708  -14.5759    0.0000 C   0  0  1  0  0  0  0  0  0  0  0  0
    6.1708  -15.4009    0.0000 C   0  0  1  0  0  0  0  0  0  0  0  0
    6.8853  -15.8134    0.0000 C   0  0  0  0  0  0  0  0  0  0  0  0
    7.5997  -15.4009    0.0000 C   0  0  1  0  0  0  0  0  0  0  0  0
    9.6943  -14.9884    0.0000 O   0  0  0  0  0  0  0  0  0  0  0  0
    5.4563  -13.3384    0.0000 C   0  0  0  0  0  0  0  0  0  0  0  0
    5.4563  -14.1634    0.0000 C   0  0  0  0  0  0  0  0  0  0  0  0
    4.7418  -14.5759    0.0000 C   0  0  0  0  0  0  0  0  0  0  0  0
    5.7583  -16.1154    0.0000 C   0  0  0  0  0  0  0  0  0  0  0  0
    8.6393  -13.5363    0.0000 C   0  0  0  0  0  0  0  0  0  0  0  0
    5.3458  -15.4009    0.0000 C   0  0  0  0  0  0  0  0  0  0  0  0
    4.9333  -16.1154    0.0000 C   0  0  0  0  0  0  0  0  0  0  0  0
    7.6860  -13.7554    0.0000 H   0  0  0  0  0  0  0  0  0  0  0  0
    7.6860  -16.2214    0.0000 H   0  0  0  0  0  0  0  0  0  0  0  0
  1  2  1  0  0  0  0
  2  3  1  0  0  0  0
  3  4  1  0  0  0  0
  4  5  1  0  0  0  0
  5  6  1  0  0  0  0
  6  7  1  0  0  0  0
  7  8  1  0  0  0  0
  8  9  1  0  0  0  0
  4  9  1  0  0  0  0
  1  9  1  0  0  0  0
  2 10  2  0  0  0  0
 11 12  2  0  0  0  0
 12 13  1  0  0  0  0
  6 12  1  1  0  0  0
  7 14  1  1  0  0  0
  3 15  1  1  0  0  0
 16 17  2  0  0  0  0
  7 16  1  6  0  0  0
  4 18  1  1  0  0  0
  9 19  1  1  0  0  0
M  END
>  <cdx:groupId>
100570

>  <cdx:fragmentId>
100515

$$$$
