384.cdx
  Mrv1902 05222410232D          

 26 27  0  0  0  0            999 V2000
    6.5828   -7.2677    0.0000 C   0  0  0  0  0  0  0  0  0  0  0  0
    6.5828   -8.0927    0.0000 C   0  0  2  0  0  0  0  0  0  0  0  0
    7.2973   -8.5052    0.0000 C   0  0  0  0  0  0  0  0  0  0  0  0
    8.0117   -8.0927    0.0000 C   0  0  2  0  0  0  0  0  0  0  0  0
    8.0117   -7.2677    0.0000 C   0  0  1  0  0  0  0  0  0  0  0  0
    7.2973   -6.8552    0.0000 C   0  0  2  0  0  0  0  0  0  0  0  0
    7.7098   -6.1407    0.0000 C   0  0  0  0  0  0  0  0  0  0  0  0
    6.8848   -6.1407    0.0000 C   0  0  0  0  0  0  0  0  0  0  0  0
    8.7262   -6.8552    0.0000 C   0  0  0  0  0  0  0  0  0  0  0  0
    9.4407   -7.2677    0.0000 C   0  0  0  0  0  0  0  0  0  0  0  0
   10.1551   -6.8552    0.0000 C   0  0  0  0  0  0  0  0  0  0  0  0
   10.1551   -6.0302    0.0000 O   0  0  0  0  0  0  0  0  0  0  0  0
   10.8696   -7.2677    0.0000 C   0  0  0  0  0  0  0  0  0  0  0  0
    5.9508   -8.4846    0.0000 O   0  0  0  0  0  0  0  0  0  0  0  0
    8.7262   -8.5052    0.0000 C   0  0  0  0  0  0  0  0  0  0  0  0
    5.2463   -9.6396    0.0000 O   0  0  0  0  0  0  0  0  0  0  0  0
    5.2463  -10.4646    0.0000 C   0  0  1  0  0  0  0  0  0  0  0  0
    5.9608  -10.8771    0.0000 C   0  0  2  0  0  0  0  0  0  0  0  0
    6.6752  -10.4646    0.0000 C   0  0  1  0  0  0  0  0  0  0  0  0
    6.6752   -9.6396    0.0000 C   0  0  2  0  0  0  0  0  0  0  0  0
    5.9608   -9.2271    0.0000 C   0  0  2  0  0  0  0  0  0  0  0  0
    4.5318  -10.8771    0.0000 C   0  0  0  0  0  0  0  0  0  0  0  0
    4.5318  -11.7021    0.0000 O   0  0  0  0  0  0  0  0  0  0  0  0
    5.9608  -11.7021    0.0000 O   0  0  0  0  0  0  0  0  0  0  0  0
    7.3897   -9.2271    0.0000 O   0  0  0  0  0  0  0  0  0  0  0  0
    7.3897  -10.8771    0.0000 O   0  0  0  0  0  0  0  0  0  0  0  0
  1  2  1  0  0  0  0
  2  3  1  0  0  0  0
  3  4  1  0  0  0  0
  4  5  1  0  0  0  0
  5  6  1  0  0  0  0
  6  1  1  0  0  0  0
  6  7  1  1  0  0  0
  6  8  1  6  0  0  0
  5  9  1  1  0  0  0
  9 10  2  0  0  0  0
 10 11  1  0  0  0  0
 11 12  2  0  0  0  0
 11 13  1  0  0  0  0
  2 14  1  6  0  0  0
  4 15  1  6  0  0  0
 16 17  1  0  0  0  0
 17 18  1  0  0  0  0
 18 19  1  0  0  0  0
 19 20  1  0  0  0  0
 20 21  1  0  0  0  0
 21 16  1  0  0  0  0
 21 14  1  1  0  0  0
 17 22  1  1  0  0  0
 22 23  1  0  0  0  0
 18 24  1  6  0  0  0
 20 25  1  6  0  0  0
 19 26  1  1  0  0  0
M  END
>  <cdx:fragmentId>
5

$$$$
