384082.cdx
  Mrv1902 05222410272D          

 25 29  0  0  0  0            999 V2000
    8.3440   -7.9038    0.0000 C   0  0  0  0  0  0  0  0  0  0  0  0
    9.0585   -7.4913    0.0000 C   0  0  0  0  0  0  0  0  0  0  0  0
    9.0585   -6.6663    0.0000 C   0  0  0  0  0  0  0  0  0  0  0  0
    9.7729   -6.2538    0.0000 C   0  0  0  0  0  0  0  0  0  0  0  0
    9.9445   -5.4469    0.0000 O   0  0  0  0  0  0  0  0  0  0  0  0
   10.7649   -5.3606    0.0000 C   0  0  0  0  0  0  0  0  0  0  0  0
   11.1005   -6.1143    0.0000 O   0  0  0  0  0  0  0  0  0  0  0  0
   10.4874   -6.6663    0.0000 C   0  0  0  0  0  0  0  0  0  0  0  0
   10.4874   -7.4913    0.0000 C   0  0  0  0  0  0  0  0  0  0  0  0
    9.7729   -7.9038    0.0000 C   0  0  0  0  0  0  0  0  0  0  0  0
    9.7729   -8.7288    0.0000 C   0  0  0  0  0  0  0  0  0  0  0  0
    9.0585   -9.1413    0.0000 C   0  0  0  0  0  0  0  0  0  0  0  0
    8.3440   -8.7288    0.0000 N   0  0  0  0  0  0  0  0  0  0  0  0
    7.6295   -9.1413    0.0000 C   0  0  0  0  0  0  0  0  0  0  0  0
    6.9151   -8.7288    0.0000 C   0  0  0  0  0  0  0  0  0  0  0  0
    6.2006   -9.1413    0.0000 C   0  0  0  0  0  0  0  0  0  0  0  0
    5.4861   -8.7288    0.0000 C   0  0  0  0  0  0  0  0  0  0  0  0
    5.4861   -7.9038    0.0000 C   0  0  0  0  0  0  0  0  0  0  0  0
    6.2006   -7.4913    0.0000 C   0  0  0  0  0  0  0  0  0  0  0  0
    6.9151   -7.9038    0.0000 C   0  0  0  0  0  0  0  0  0  0  0  0
    7.6295   -7.4913    0.0000 C   0  0  0  0  0  0  0  0  0  0  0  0
    7.6295   -9.9663    0.0000 O   0  0  0  0  0  0  0  0  0  0  0  0
    4.7716   -9.1413    0.0000 O   0  0  0  0  0  0  0  0  0  0  0  0
    4.0572   -8.7288    0.0000 C   0  0  0  0  0  0  0  0  0  0  0  0
    6.2006   -9.9663    0.0000 O   0  0  0  0  0  0  0  0  0  0  0  0
  1  2  1  0  0  0  0
  2  3  2  0  0  0  0
  3  4  1  0  0  0  0
  4  5  1  0  0  0  0
  5  6  1  0  0  0  0
  6  7  1  0  0  0  0
  7  8  1  0  0  0  0
  8  9  1  0  0  0  0
  9 10  2  0  0  0  0
 10 11  1  0  0  0  0
 11 12  1  0  0  0  0
 12 13  1  0  0  0  0
 13 14  1  0  0  0  0
 14 15  1  0  0  0  0
 15 16  1  0  0  0  0
 16 17  2  0  0  0  0
 17 18  1  0  0  0  0
 18 19  2  0  0  0  0
 19 20  1  0  0  0  0
 20 21  1  0  0  0  0
  1 21  2  0  0  0  0
  1 13  1  0  0  0  0
 15 20  2  0  0  0  0
  2 10  1  0  0  0  0
  4  8  2  0  0  0  0
 14 22  2  0  0  0  0
 23 24  1  0  0  0  0
 17 23  1  0  0  0  0
 16 25  1  0  0  0  0
M  END
>  <cdx:fragmentId>
33077

$$$$
