384346.cdx
  Mrv1902 05222410232D          

 13 14  0  0  0  0            999 V2000
    6.0346   -5.3316    0.0000 H   0  0  0  0  0  0  0  0  0  0  0  0
    8.3384   -5.6316    0.0000 O   0  0  0  0  0  0  0  0  0  0  0  0
    9.0194   -7.1710    0.0000 O   0  0  0  0  0  0  0  0  0  0  0  0
    6.7520   -8.0575    0.0000 O   0  0  0  0  0  0  0  0  0  0  0  0
    7.8585   -8.2769    0.0000 O   0  0  0  0  0  0  0  0  0  0  0  0
    6.9575   -4.9225    0.0000 N   0  0  0  0  0  0  0  0  0  0  0  0
    8.2225   -6.9575    0.0000 C   0  0  1  0  0  0  0  0  0  0  0  0
    7.6450   -7.4800    0.0000 C   0  0  1  0  0  0  0  0  0  0  0  0
    6.6970   -7.0675    0.0000 C   0  0  1  0  0  0  0  0  0  0  0  0
    5.6520   -7.4250    0.0000 C   0  0  0  0  0  0  0  0  0  0  0  0
    5.3770   -6.4075    0.0000 C   0  0  0  0  0  0  0  0  0  0  0  0
    6.3945   -6.1050    0.0000 C   0  0  2  0  0  0  0  0  0  0  0  0
    7.7550   -6.2150    0.0000 C   0  0  2  0  0  0  0  0  0  0  0  0
 12  1  1  6  0  0  0
 13  2  1  6  0  0  0
  7  3  1  1  0  0  0
  9  4  1  1  0  0  0
  8  5  1  6  0  0  0
  9  6  1  0  0  0  0
 12  6  1  0  0  0  0
  7 13  1  0  0  0  0
  8  7  1  0  0  0  0
  9  8  1  0  0  0  0
 10  9  1  0  0  0  0
 11 10  1  0  0  0  0
 12 11  1  0  0  0  0
 13 12  1  0  0  0  0
M  END
>  <cdx:fragmentId>
48

$$$$
