3845.cdx
  Mrv1902 05222410262D          

 14 15  0  0  0  0            999 V2000
    7.7973   -6.3739    0.0000 N   0  0  0  0  0  0  0  0  0  0  0  0
    8.5118   -5.9614    0.0000 C   0  0  0  0  0  0  0  0  0  0  0  0
    8.5118   -5.1364    0.0000 C   0  0  0  0  0  0  0  0  0  0  0  0
    7.7973   -4.7239    0.0000 C   0  0  0  0  0  0  0  0  0  0  0  0
    7.0829   -5.1364    0.0000 C   0  0  0  0  0  0  0  0  0  0  0  0
    6.3684   -4.7239    0.0000 C   0  0  0  0  0  0  0  0  0  0  0  0
    5.6539   -5.1364    0.0000 C   0  0  0  0  0  0  0  0  0  0  0  0
    5.6539   -5.9614    0.0000 C   0  0  0  0  0  0  0  0  0  0  0  0
    6.3684   -6.3739    0.0000 C   0  0  0  0  0  0  0  0  0  0  0  0
    7.0829   -5.9614    0.0000 C   0  0  0  0  0  0  0  0  0  0  0  0
    9.2263   -6.3739    0.0000 C   0  0  0  0  0  0  0  0  0  0  0  0
    9.2263   -7.1989    0.0000 O   0  0  0  0  0  0  0  0  0  0  0  0
    9.9407   -5.9614    0.0000 O   0  0  0  0  0  0  0  0  0  0  0  0
    7.7973   -3.8989    0.0000 O   0  0  0  0  0  0  0  0  0  0  0  0
  1  2  1  0  0  0  0
  2  3  2  0  0  0  0
  3  4  1  0  0  0  0
  4  5  1  0  0  0  0
  5  6  1  0  0  0  0
  6  7  2  0  0  0  0
  7  8  1  0  0  0  0
  8  9  2  0  0  0  0
  9 10  1  0  0  0  0
  1 10  1  0  0  0  0
  5 10  2  0  0  0  0
 11 12  2  0  0  0  0
 11 13  1  0  0  0  0
  2 11  1  0  0  0  0
  4 14  2  0  0  0  0
M  END
>  <cdx:fragmentId>
5

$$$$
