5384838.cdx
  Mrv1902 05222410232D          

 26 26  0  0  0  0            999 V2000
   20.1681   -7.6241    0.0000 C   0  0  0  0  0  0  0  0  0  0  0  0
   19.4536   -8.0366    0.0000 C   0  0  0  0  0  0  0  0  0  0  0  0
   19.4536   -8.8616    0.0000 C   0  0  0  0  0  0  0  0  0  0  0  0
   20.1681   -9.2741    0.0000 C   0  0  0  0  0  0  0  0  0  0  0  0
   20.8826   -8.8616    0.0000 C   0  0  0  0  0  0  0  0  0  0  0  0
   20.8826   -8.0366    0.0000 C   0  0  0  0  0  0  0  0  0  0  0  0
   20.1681   -6.7991    0.0000 O   0  0  0  0  0  0  0  0  0  0  0  0
   20.1681  -10.0991    0.0000 O   0  0  0  0  0  0  0  0  0  0  0  0
   18.7391   -9.2741    0.0000 C   0  0  0  0  0  0  0  0  0  0  0  0
   18.0247   -8.8616    0.0000 C   0  0  0  0  0  0  0  0  0  0  0  0
   17.3102   -9.2741    0.0000 C   0  0  0  0  0  0  0  0  0  0  0  0
   16.5957   -8.8616    0.0000 C   0  0  0  0  0  0  0  0  0  0  0  0
   15.8813   -9.2741    0.0000 C   0  0  0  0  0  0  0  0  0  0  0  0
   15.1668   -8.8616    0.0000 C   0  0  0  0  0  0  0  0  0  0  0  0
   14.4523   -9.2741    0.0000 C   0  0  0  0  0  0  0  0  0  0  0  0
   13.7378   -8.8616    0.0000 C   0  0  0  0  0  0  0  0  0  0  0  0
   13.0234   -9.2741    0.0000 C   0  0  0  0  0  0  0  0  0  0  0  0
   12.3089   -8.8616    0.0000 C   0  0  0  0  0  0  0  0  0  0  0  0
   11.4839   -8.8616    0.0000 C   0  0  0  0  0  0  0  0  0  0  0  0
   10.7694   -9.2741    0.0000 C   0  0  0  0  0  0  0  0  0  0  0  0
   10.0550   -8.8616    0.0000 C   0  0  0  0  0  0  0  0  0  0  0  0
    9.3405   -9.2741    0.0000 C   0  0  0  0  0  0  0  0  0  0  0  0
    8.6260   -8.8616    0.0000 C   0  0  0  0  0  0  0  0  0  0  0  0
   21.5970   -9.2741    0.0000 O   0  0  0  0  0  0  0  0  0  0  0  0
   22.3115   -8.8616    0.0000 C   0  0  0  0  0  0  0  0  0  0  0  0
   18.7391   -7.6241    0.0000 O   0  0  0  0  0  0  0  0  0  0  0  0
  1  2  1  0  0  0  0
  2  3  2  0  0  0  0
  3  4  1  0  0  0  0
  4  5  1  0  0  0  0
  5  6  2  0  0  0  0
  1  6  1  0  0  0  0
  1  7  2  0  0  0  0
  4  8  2  0  0  0  0
  9 10  1  0  0  0  0
 10 11  1  0  0  0  0
 11 12  1  0  0  0  0
 12 13  1  0  0  0  0
 13 14  1  0  0  0  0
 14 15  1  0  0  0  0
 15 16  1  0  0  0  0
 16 17  1  0  0  0  0
 17 18  1  0  0  0  0
 18 19  2  0  0  0  0
 19 20  1  0  0  0  0
 20 21  1  0  0  0  0
 21 22  1  0  0  0  0
 22 23  1  0  0  0  0
  3  9  1  0  0  0  0
 24 25  1  0  0  0  0
  5 24  1  0  0  0  0
  2 26  1  0  0  0  0
M  END
>  <cdx:groupId>
33239

>  <cdx:fragmentId>
33180

$$$$
