3848.cdx
  Mrv1902 05222410202D          

 12 12  0  0  0  0            999 V2000
    4.8675   -1.8697    0.0000 C   0  0  0  0  0  0  0  0  0  0  0  0
    4.1530   -2.2822    0.0000 C   0  0  0  0  0  0  0  0  0  0  0  0
    3.4386   -1.8697    0.0000 C   0  0  0  0  0  0  0  0  0  0  0  0
    4.8675   -1.0447    0.0000 O   0  0  0  0  0  0  0  0  0  0  0  0
    5.5820   -2.2822    0.0000 O   0  0  0  0  0  0  0  0  0  0  0  0
    2.7241   -2.2822    0.0000 C   0  0  0  0  0  0  0  0  0  0  0  0
    2.7241   -3.1072    0.0000 C   0  0  0  0  0  0  0  0  0  0  0  0
    2.0096   -3.5197    0.0000 C   0  0  0  0  0  0  0  0  0  0  0  0
    1.2952   -3.1072    0.0000 C   0  0  0  0  0  0  0  0  0  0  0  0
    1.2952   -2.2822    0.0000 C   0  0  0  0  0  0  0  0  0  0  0  0
    2.0096   -1.8697    0.0000 C   0  0  0  0  0  0  0  0  0  0  0  0
    4.1530   -3.1072    0.0000 O   0  0  0  0  0  0  0  0  0  0  0  0
  1  2  1  0  0  0  0
  2  3  1  0  0  0  0
  1  4  2  0  0  0  0
  1  5  1  0  0  0  0
  6  7  1  0  0  0  0
  7  8  2  0  0  0  0
  8  9  1  0  0  0  0
  9 10  2  0  0  0  0
 10 11  1  0  0  0  0
  6 11  2  0  0  0  0
  3  6  1  0  0  0  0
  2 12  1  0  0  0  0
M  END
>  <cdx:groupId>
38

>  <cdx:fragmentId>
15

$$$$
