38508.cdx
  Mrv1902 05222410202D          

 23 24  0  0  0  0            999 V2000
    5.7126   -8.6649    0.0000 C   0  0  0  0  0  0  0  0  0  0  0  0
    6.4259   -8.2505    0.0000 C   0  0  0  0  0  0  0  0  0  0  0  0
    6.4238   -7.4255    0.0000 C   0  0  0  0  0  0  0  0  0  0  0  0
    5.7082   -7.0149    0.0000 C   0  0  0  0  0  0  0  0  0  0  0  0
    4.9948   -7.4293    0.0000 C   0  0  0  0  0  0  0  0  0  0  0  0
    4.9970   -8.2543    0.0000 C   0  0  0  0  0  0  0  0  0  0  0  0
    9.2633   -3.3030    0.0000 C   0  0  0  0  0  0  0  0  0  0  0  0
    8.5524   -3.7160    0.0000 C   0  0  0  0  0  0  0  0  0  0  0  0
    8.5546   -4.5381    0.0000 C   0  0  0  0  0  0  0  0  0  0  0  0
    7.1325   -6.1904    0.0000 C   0  0  0  0  0  0  0  0  0  0  0  0
    7.8459   -5.7761    0.0000 C   0  0  0  0  0  0  0  0  0  0  0  0
    4.2817   -7.0201    0.0000 O   0  0  0  0  0  0  0  0  0  0  0  0
    4.2861   -8.6673    0.0000 O   0  0  0  0  0  0  0  0  0  0  0  0
    7.1390   -8.6597    0.0000 C   0  0  0  0  0  0  0  0  0  0  0  0
    7.1412   -9.4818    0.0000 C   0  0  0  0  0  0  0  0  0  0  0  0
    7.8543   -9.8910    0.0000 C   0  0  0  0  0  0  0  0  0  0  0  0
    7.8564  -10.7132    0.0000 O   0  0  0  0  0  0  0  0  0  0  0  0
    8.5695  -11.1223    0.0000 C   0  0  0  0  0  0  0  0  0  0  0  0
    7.8437   -4.9511    0.0000 C   0  0  0  0  0  0  0  0  0  0  0  0
    7.1281   -4.5405    0.0000 C   0  0  0  0  0  0  0  0  0  0  0  0
    6.4147   -4.9548    0.0000 C   0  0  0  0  0  0  0  0  0  0  0  0
    6.4169   -5.7798    0.0000 C   0  0  0  0  0  0  0  0  0  0  0  0
    5.7060   -6.1928    0.0000 O   0  0  0  0  0  0  0  0  0  0  0  0
  1  2  2  0  0  0  0
  2  3  1  0  0  0  0
  3  4  2  0  0  0  0
  4  5  1  0  0  0  0
  5  6  2  0  0  0  0
  6  1  1  0  0  0  0
  8  7  2  0  0  0  0
  4 23  1  0  0  0  0
  9  8  1  0  0  0  0
 19  9  1  0  0  0  0
 10 22  1  0  0  0  0
 11 10  2  0  0  0  0
 19 11  1  0  0  0  0
 20 19  2  0  0  0  0
 21 20  1  0  0  0  0
 22 21  2  0  0  0  0
  5 12  1  0  0  0  0
  6 13  1  0  0  0  0
  2 14  1  0  0  0  0
 14 15  2  0  0  0  0
 15 16  1  0  0  0  0
 16 17  1  0  0  0  0
 17 18  1  0  0  0  0
 23 22  1  0  0  0  0
M  END
>  <cdx:fragmentId>
16815

$$$$
