38507.cdx
  Mrv1902 05222410242D          

 27 30  0  0  0  0            999 V2000
    7.6522   -8.8772    0.0000 O   0  0  0  0  0  0  0  0  0  0  0  0
    6.9377   -9.2897    0.0000 C   0  0  1  0  0  0  0  0  0  0  0  0
    6.9377  -10.1147    0.0000 C   0  0  2  0  0  0  0  0  0  0  0  0
    7.6522  -10.5272    0.0000 O   0  0  0  0  0  0  0  0  0  0  0  0
    6.2232  -10.5272    0.0000 C   0  0  1  0  0  0  0  0  0  0  0  0
    6.2232  -11.3522    0.0000 O   0  0  0  0  0  0  0  0  0  0  0  0
    5.5088  -10.1147    0.0000 C   0  0  2  0  0  0  0  0  0  0  0  0
    4.7943  -10.5272    0.0000 O   0  0  0  0  0  0  0  0  0  0  0  0
    5.5088   -9.2897    0.0000 C   0  0  2  0  0  0  0  0  0  0  0  0
    6.2232   -8.8772    0.0000 O   0  0  0  0  0  0  0  0  0  0  0  0
    4.7943   -8.8772    0.0000 C   0  0  0  0  0  0  0  0  0  0  0  0
    4.0798   -9.2897    0.0000 O   0  0  0  0  0  0  0  0  0  0  0  0
    9.7956   -6.8147    0.0000 C   0  0  0  0  0  0  0  0  0  0  0  0
    9.7956   -7.6397    0.0000 C   0  0  0  0  0  0  0  0  0  0  0  0
    9.0811   -8.0522    0.0000 C   0  0  0  0  0  0  0  0  0  0  0  0
    8.3667   -7.6397    0.0000 C   0  0  0  0  0  0  0  0  0  0  0  0
    7.6522   -8.0522    0.0000 C   0  0  0  0  0  0  0  0  0  0  0  0
    6.9377   -7.6397    0.0000 C   0  0  0  0  0  0  0  0  0  0  0  0
    6.9377   -6.8147    0.0000 C   0  0  0  0  0  0  0  0  0  0  0  0
    7.6522   -6.4022    0.0000 C   0  0  0  0  0  0  0  0  0  0  0  0
    8.3667   -6.8147    0.0000 C   0  0  0  0  0  0  0  0  0  0  0  0
    9.0811   -6.4022    0.0000 O   0  0  0  0  0  0  0  0  0  0  0  0
    6.1531   -6.5598    0.0000 O   0  0  0  0  0  0  0  0  0  0  0  0
    6.1531   -7.8947    0.0000 C   0  0  0  0  0  0  0  0  0  0  0  0
    5.6682   -7.2272    0.0000 C   0  0  0  0  0  0  0  0  0  0  0  0
   10.5101   -6.4022    0.0000 O   0  0  0  0  0  0  0  0  0  0  0  0
    7.6522   -5.5772    0.0000 O   0  0  0  0  0  0  0  0  0  0  0  0
  2  1  1  1  0  0  0
  2  3  1  0  0  0  0
  3  4  1  6  0  0  0
  3  5  1  0  0  0  0
  5  6  1  1  0  0  0
  5  7  1  0  0  0  0
  7  8  1  6  0  0  0
  7  9  1  0  0  0  0
  9 10  1  0  0  0  0
  9 11  1  1  0  0  0
 11 12  1  0  0  0  0
  2 10  1  0  0  0  0
 13 14  1  0  0  0  0
 14 15  2  0  0  0  0
 15 16  1  0  0  0  0
 16 17  2  0  0  0  0
 17 18  1  0  0  0  0
 18 19  2  0  0  0  0
 19 20  1  0  0  0  0
 20 21  2  0  0  0  0
 16 21  1  0  0  0  0
 21 22  1  0  0  0  0
 13 22  1  0  0  0  0
 24 25  2  0  0  0  0
 23 25  1  0  0  0  0
 24 18  1  0  0  0  0
 23 19  1  0  0  0  0
 13 26  2  0  0  0  0
 20 27  1  0  0  0  0
  1 17  1  0  0  0  0
M  END
>  <cdx:fragmentId>
29

$$$$
