38509.cdx
  Mrv1902 05222410212D          

 34 36  0  0  0  0            999 V2000
   14.9403   -8.1153    0.0000 C   0  0  1  0  0  0  0  0  0  0  0  0
   15.7445   -8.2862    0.0000 C   0  0  1  0  0  0  0  0  0  0  0  0
   15.8304   -9.1038    0.0000 C   0  0  1  0  0  0  0  0  0  0  0  0
   15.0794   -9.4382    0.0000 O   0  0  0  0  0  0  0  0  0  0  0  0
   14.5292   -8.8273    0.0000 C   0  0  2  0  0  0  0  0  0  0  0  0
   13.7116   -8.9132    0.0000 C   0  0  0  0  0  0  0  0  0  0  0  0
   16.2415   -9.8158    0.0000 O   0  0  0  0  0  0  0  0  0  0  0  0
   17.0636   -9.8158    0.0000 C   0  0  1  0  0  0  0  0  0  0  0  0
   13.2284   -8.2481    0.0000 O   0  0  0  0  0  0  0  0  0  0  0  0
   12.4107   -8.3340    0.0000 C   0  0  1  0  0  0  0  0  0  0  0  0
   11.9275   -7.6689    0.0000 O   0  0  0  0  0  0  0  0  0  0  0  0
   11.1099   -7.7548    0.0000 C   0  0  1  0  0  0  0  0  0  0  0  0
   10.7755   -8.5059    0.0000 C   0  0  2  0  0  0  0  0  0  0  0  0
   11.2587   -9.1710    0.0000 C   0  0  1  0  0  0  0  0  0  0  0  0
   12.0763   -9.0851    0.0000 C   0  0  1  0  0  0  0  0  0  0  0  0
   17.4747  -10.5278    0.0000 C   0  0  1  0  0  0  0  0  0  0  0  0
   18.2968  -10.5278    0.0000 C   0  0  2  0  0  0  0  0  0  0  0  0
   18.7079   -9.8158    0.0000 C   0  0  1  0  0  0  0  0  0  0  0  0
   18.2968   -9.1038    0.0000 C   0  0  2  0  0  0  0  0  0  0  0  0
   17.4747   -9.1038    0.0000 O   0  0  0  0  0  0  0  0  0  0  0  0
   18.7079   -8.3919    0.0000 C   0  0  0  0  0  0  0  0  0  0  0  0
   18.7079  -11.2398    0.0000 O   0  0  0  0  0  0  0  0  0  0  0  0
   17.0636  -11.2398    0.0000 O   0  0  0  0  0  0  0  0  0  0  0  0
   19.5300   -9.8158    0.0000 O   0  0  0  0  0  0  0  0  0  0  0  0
   12.5596   -9.7502    0.0000 O   0  0  0  0  0  0  0  0  0  0  0  0
   10.9243   -9.9221    0.0000 O   0  0  0  0  0  0  0  0  0  0  0  0
   10.6266   -7.0897    0.0000 C   0  0  0  0  0  0  0  0  0  0  0  0
    9.8090   -7.1757    0.0000 O   0  0  0  0  0  0  0  0  0  0  0  0
    9.9578   -8.5918    0.0000 O   0  0  0  0  0  0  0  0  0  0  0  0
   19.5300   -8.3919    0.0000 O   0  0  0  0  0  0  0  0  0  0  0  0
   14.6059   -7.3642    0.0000 O   0  0  0  0  0  0  0  0  0  0  0  0
   16.3554   -7.7361    0.0000 O   0  0  0  0  0  0  0  0  0  0  0  0
   16.6526   -9.1038    0.0000 C   0  0  0  0  0  0  0  0  0  0  0  0
   17.0636   -8.3919    0.0000 O   0  0  0  0  0  0  0  0  0  0  0  0
  1  2  1  0  0  0  0
  2  3  1  0  0  0  0
  3  4  1  0  0  0  0
  4  5  1  0  0  0  0
  5  1  1  0  0  0  0
  5  6  1  6  0  0  0
  3  7  1  6  0  0  0
  8  7  1  6  0  0  0
  6  9  1  0  0  0  0
 10  9  1  6  0  0  0
 10 11  1  0  0  0  0
 11 12  1  0  0  0  0
 12 13  1  0  0  0  0
 13 14  1  0  0  0  0
 14 15  1  0  0  0  0
 15 10  1  0  0  0  0
  8 16  1  0  0  0  0
 16 17  1  0  0  0  0
 17 18  1  0  0  0  0
 18 19  1  0  0  0  0
 19 20  1  0  0  0  0
 20  8  1  0  0  0  0
 19 21  1  6  0  0  0
 17 22  1  6  0  0  0
 16 23  1  1  0  0  0
 18 24  1  1  0  0  0
 15 25  1  6  0  0  0
 14 26  1  1  0  0  0
 12 27  1  1  0  0  0
 27 28  1  0  0  0  0
 13 29  1  6  0  0  0
 21 30  1  0  0  0  0
  1 31  1  1  0  0  0
  2 32  1  6  0  0  0
  3 33  1  1  0  0  0
 33 34  1  0  0  0  0
M  END
>  <cdx:fragmentId>
28792

$$$$
