1006.cdx
  Mrv1902 05222410252D          

 18 20  0  0  0  0            999 V2000
   10.7357   -6.5323    0.0000 O   0  0  0  0  0  0  0  0  0  0  0  0
   11.4894   -6.8679    0.0000 C   0  0  2  0  0  0  0  0  0  0  0  0
   11.4032   -7.6884    0.0000 C   0  0  0  0  0  0  0  0  0  0  0  0
   10.5962   -7.8599    0.0000 C   0  0  1  0  0  0  0  0  0  0  0  0
   10.1837   -7.1454    0.0000 C   0  0  1  0  0  0  0  0  0  0  0  0
   11.4894   -6.0429    0.0000 O   0  0  0  0  0  0  0  0  0  0  0  0
   12.2039   -5.6304    0.0000 C   0  0  0  0  0  0  0  0  0  0  0  0
   12.9183   -6.0429    0.0000 C   0  0  0  0  0  0  0  0  0  0  0  0
   12.9183   -6.8679    0.0000 N   0  0  0  0  0  0  0  0  0  0  0  0
   12.2039   -7.2804    0.0000 C   0  0  0  0  0  0  0  0  0  0  0  0
   13.7030   -5.7879    0.0000 C   0  0  0  0  0  0  0  0  0  0  0  0
   14.1879   -6.4554    0.0000 C   0  0  0  0  0  0  0  0  0  0  0  0
   13.7030   -7.1228    0.0000 C   0  0  0  0  0  0  0  0  0  0  0  0
   13.9579   -7.9074    0.0000 C   0  0  0  0  0  0  0  0  0  0  0  0
   14.7649   -8.0790    0.0000 O   0  0  0  0  0  0  0  0  0  0  0  0
    9.3632   -7.0592    0.0000 C   0  0  0  0  0  0  0  0  0  0  0  0
    8.8783   -7.7266    0.0000 O   0  0  0  0  0  0  0  0  0  0  0  0
   10.2606   -8.6136    0.0000 O   0  0  0  0  0  0  0  0  0  0  0  0
  2  1  1  6  0  0  0
  2  3  1  1  0  0  0
  3  4  1  0  0  0  0
  4  5  1  0  0  0  0
  1  5  1  0  0  0  0
  6  7  1  0  0  0  0
  7  8  1  0  0  0  0
  8  9  1  0  0  0  0
  9 10  1  0  0  0  0
 11 12  1  0  0  0  0
 12 13  2  0  0  0  0
  8 11  2  0  0  0  0
  9 13  1  0  0  0  0
  2  6  1  0  0  0  0
  2 10  1  0  0  0  0
 14 15  2  0  0  0  0
 13 14  1  0  0  0  0
 16 17  1  0  0  0  0
  5 16  1  1  0  0  0
  4 18  1  6  0  0  0
M  END
>  <cdx:fragmentId>
28798

$$$$
