6385060.cdx
  Mrv1902 05222410252D          

 23 22  0  0  0  0            999 V2000
    0.0113   -8.5631    0.0000 C   0  0  0  0  0  0  0  0  0  0  0  0
    0.7258   -8.1506    0.0000 C   0  0  0  0  0  0  0  0  0  0  0  0
    1.4403   -8.5631    0.0000 C   0  0  0  0  0  0  0  0  0  0  0  0
    2.1547   -8.1506    0.0000 C   0  0  0  0  0  0  0  0  0  0  0  0
    2.8692   -8.5631    0.0000 C   0  0  0  0  0  0  0  0  0  0  0  0
    3.5837   -8.1506    0.0000 C   0  0  0  0  0  0  0  0  0  0  0  0
    4.2981   -8.5631    0.0000 C   0  0  0  0  0  0  0  0  0  0  0  0
    5.0126   -8.1506    0.0000 C   0  0  0  0  0  0  0  0  0  0  0  0
    5.7271   -8.5631    0.0000 C   0  0  0  0  0  0  0  0  0  0  0  0
    6.4416   -8.1506    0.0000 C   0  0  0  0  0  0  0  0  0  0  0  0
    7.1560   -8.5631    0.0000 C   0  0  0  0  0  0  0  0  0  0  0  0
    7.8705   -8.1506    0.0000 C   0  0  0  0  0  0  0  0  0  0  0  0
    8.5850   -8.5631    0.0000 C   0  0  0  0  0  0  0  0  0  0  0  0
    9.2994   -8.1506    0.0000 C   0  0  0  0  0  0  0  0  0  0  0  0
   10.0139   -8.5631    0.0000 C   0  0  0  0  0  0  0  0  0  0  0  0
   10.7284   -8.1506    0.0000 C   0  0  0  0  0  0  0  0  0  0  0  0
   11.4429   -8.5631    0.0000 C   0  0  0  0  0  0  0  0  0  0  0  0
   12.1573   -8.1506    0.0000 C   0  0  0  0  0  0  0  0  0  0  0  0
   12.8718   -8.5631    0.0000 C   0  0  0  0  0  0  0  0  0  0  0  0
   13.5863   -8.1506    0.0000 C   0  0  0  0  0  0  0  0  0  0  0  0
   14.3007   -8.5631    0.0000 C   0  0  0  0  0  0  0  0  0  0  0  0
   15.0152   -8.1506    0.0000 C   0  0  0  0  0  0  0  0  0  0  0  0
   15.7297   -8.5631    0.0000 C   0  0  0  0  0  0  0  0  0  0  0  0
  1  2  1  0  0  0  0
  2  3  1  0  0  0  0
  3  4  1  0  0  0  0
  4  5  1  0  0  0  0
  5  6  1  0  0  0  0
  6  7  1  0  0  0  0
  7  8  1  0  0  0  0
  8  9  1  0  0  0  0
  9 10  2  0  0  0  0
 10 11  1  0  0  0  0
 11 12  1  0  0  0  0
 12 13  1  0  0  0  0
 13 14  1  0  0  0  0
 14 15  1  0  0  0  0
 15 16  1  0  0  0  0
 16 17  1  0  0  0  0
 17 18  1  0  0  0  0
 18 19  1  0  0  0  0
 19 20  1  0  0  0  0
 20 21  1  0  0  0  0
 21 22  1  0  0  0  0
 22 23  1  0  0  0  0
M  END
>  <cdx:groupId>
10538

>  <cdx:fragmentId>
10473

$$$$
