2558.cdx
  Mrv1902 05222410252D          

 16 18  0  0  0  0            999 V2000
   16.8977  -13.3479    0.0000 C   0  0  0  0  0  0  0  0  0  0  0  0
   17.6122  -13.7604    0.0000 C   0  0  0  0  0  0  0  0  0  0  0  0
   17.6122  -14.5854    0.0000 C   0  0  0  0  0  0  0  0  0  0  0  0
   16.8977  -14.9979    0.0000 C   0  0  0  0  0  0  0  0  0  0  0  0
   16.1832  -14.5854    0.0000 C   0  0  0  0  0  0  0  0  0  0  0  0
   15.4688  -14.9979    0.0000 C   0  0  0  0  0  0  0  0  0  0  0  0
   14.7543  -14.5854    0.0000 C   0  0  0  0  0  0  0  0  0  0  0  0
   14.0398  -14.9979    0.0000 C   0  0  0  0  0  0  0  0  0  0  0  0
   13.3253  -14.5854    0.0000 C   0  0  0  0  0  0  0  0  0  0  0  0
   13.3253  -13.7604    0.0000 C   0  0  0  0  0  0  0  0  0  0  0  0
   14.0398  -13.3479    0.0000 C   0  0  0  0  0  0  0  0  0  0  0  0
   14.7543  -13.7604    0.0000 C   0  0  0  0  0  0  0  0  0  0  0  0
   15.4688  -13.3479    0.0000 C   0  0  0  0  0  0  0  0  0  0  0  0
   16.1832  -13.7604    0.0000 C   0  0  0  0  0  0  0  0  0  0  0  0
   15.4688  -12.5229    0.0000 C   0  0  0  0  0  0  0  0  0  0  0  0
   16.1832  -12.1104    0.0000 C   0  0  0  0  0  0  0  0  0  0  0  0
  1  2  1  0  0  0  0
  2  3  1  0  0  0  0
  3  4  1  0  0  0  0
  4  5  1  0  0  0  0
  5  6  1  0  0  0  0
  6  7  2  0  0  0  0
  7  8  1  0  0  0  0
  8  9  1  0  0  0  0
  9 10  1  0  0  0  0
 10 11  1  0  0  0  0
 11 12  1  0  0  0  0
  7 12  1  0  0  0  0
 12 13  2  0  0  0  0
 13 14  1  0  0  0  0
  5 14  2  0  0  0  0
  1 14  1  0  0  0  0
 15 16  1  0  0  0  0
 13 15  1  0  0  0  0
M  END
>  <cdx:fragmentId>
16359

$$$$
