38503.cdx
  Mrv1902 05222410242D          

 41 42  0  0  0  0            999 V2000
    3.2901  -15.7016    0.0000 C   0  0  0  0  0  0  0  0  0  0  0  0
    3.2761  -14.8767    0.0000 C   0  0  0  0  0  0  0  0  0  0  0  0
    3.9835  -14.4522    0.0000 C   0  0  0  0  0  0  0  0  0  0  0  0
    3.9695  -13.6273    0.0000 C   0  0  0  0  0  0  0  0  0  0  0  0
    4.6768  -13.2027    0.0000 C   0  0  0  0  0  0  0  0  0  0  0  0
    4.6628  -12.3778    0.0000 C   0  0  0  0  0  0  0  0  0  0  0  0
    5.3702  -11.9532    0.0000 C   0  0  0  0  0  0  0  0  0  0  0  0
    5.3561  -11.1284    0.0000 C   0  0  0  0  0  0  0  0  0  0  0  0
    6.0635  -10.7038    0.0000 C   0  0  0  0  0  0  0  0  0  0  0  0
    6.0495   -9.8789    0.0000 C   0  0  0  0  0  0  0  0  0  0  0  0
    6.7569   -9.4543    0.0000 C   0  0  0  0  0  0  0  0  0  0  0  0
    6.7428   -8.6294    0.0000 C   0  0  0  0  0  0  0  0  0  0  0  0
    7.4502   -8.2049    0.0000 C   0  0  0  0  0  0  0  0  0  0  0  0
    8.1716   -8.6052    0.0000 C   0  0  0  0  0  0  0  0  0  0  0  0
    8.8789   -8.1806    0.0000 C   0  0  0  0  0  0  0  0  0  0  0  0
    9.6003   -8.5809    0.0000 C   0  0  0  0  0  0  0  0  0  0  0  0
   10.3077   -8.1563    0.0000 C   0  0  0  0  0  0  0  0  0  0  0  0
   11.0290   -8.5566    0.0000 C   0  0  0  0  0  0  0  0  0  0  0  0
   11.7364   -8.1320    0.0000 C   0  0  0  0  0  0  0  0  0  0  0  0
   12.4578   -8.5323    0.0000 C   0  0  0  0  0  0  0  0  0  0  0  0
    2.5834  -16.1272    0.0000 C   0  0  0  0  0  0  0  0  0  0  0  0
    2.5985  -16.9520    0.0000 C   0  0  0  0  0  0  0  0  0  0  0  0
    3.3154  -17.3544    0.0000 C   0  0  1  0  0  0  0  0  0  0  0  0
    4.0239  -16.9317    0.0000 C   0  0  0  0  0  0  0  0  0  0  0  0
    4.0105  -16.1098    0.0000 C   0  0  0  0  0  0  0  0  0  0  0  0
   12.4729   -9.3572    0.0000 C   0  0  0  0  0  0  0  0  0  0  0  0
   13.1949   -9.7565    0.0000 C   0  0  0  0  0  0  0  0  0  0  0  0
   13.9017   -9.3368    0.0000 C   0  0  0  0  0  0  0  0  0  0  0  0
   13.8900   -8.5119    0.0000 C   0  0  0  0  0  0  0  0  0  0  0  0
   13.1714   -8.1126    0.0000 C   0  0  0  0  0  0  0  0  0  0  0  0
    4.7199  -15.6886    0.0000 C   0  0  0  0  0  0  0  0  0  0  0  0
    1.7584  -16.1389    0.0000 C   0  0  0  0  0  0  0  0  0  0  0  0
    2.3585  -15.3334    0.0000 C   0  0  0  0  0  0  0  0  0  0  0  0
    3.2481  -13.2270    0.0000 C   0  0  0  0  0  0  0  0  0  0  0  0
   11.7662   -9.7827    0.0000 C   0  0  0  0  0  0  0  0  0  0  0  0
   12.7488   -7.4040    0.0000 C   0  0  0  0  0  0  0  0  0  0  0  0
   13.5737   -7.3923    0.0000 C   0  0  0  0  0  0  0  0  0  0  0  0
   10.2937   -7.3314    0.0000 C   0  0  0  0  0  0  0  0  0  0  0  0
    4.6348  -10.7281    0.0000 C   0  0  0  0  0  0  0  0  0  0  0  0
    3.3263  -18.1793    0.0000 O   0  0  0  0  0  0  0  0  0  0  0  0
    7.4362   -7.3800    0.0000 C   0  0  0  0  0  0  0  0  0  0  0  0
  1  2  1  0  0  0  0
  2  3  2  0  0  0  0
  3  4  1  0  0  0  0
  4  5  2  0  0  0  0
  5  6  1  0  0  0  0
  6  7  2  0  0  0  0
  7  8  1  0  0  0  0
  8  9  2  0  0  0  0
  9 10  1  0  0  0  0
 10 11  2  0  0  0  0
 11 12  1  0  0  0  0
 12 13  2  0  0  0  0
 13 14  1  0  0  0  0
 14 15  2  0  0  0  0
 15 16  1  0  0  0  0
 16 17  2  0  0  0  0
 17 18  1  0  0  0  0
 18 19  2  0  0  0  0
 19 20  1  0  0  0  0
  1 21  1  0  0  0  0
 21 22  1  0  0  0  0
 22 23  1  0  0  0  0
 23 24  1  0  0  0  0
 24 25  1  0  0  0  0
 25  1  2  0  0  0  0
 20 26  2  0  0  0  0
 26 27  1  0  0  0  0
 27 28  1  0  0  0  0
 28 29  1  0  0  0  0
 29 30  1  0  0  0  0
 30 20  1  0  0  0  0
 25 31  1  0  0  0  0
 21 32  1  0  0  0  0
 21 33  1  0  0  0  0
  4 34  1  0  0  0  0
 26 35  1  0  0  0  0
 30 36  1  0  0  0  0
 30 37  1  0  0  0  0
 17 38  1  0  0  0  0
  8 39  1  0  0  0  0
 23 40  1  1  0  0  0
 13 41  1  0  0  0  0
M  END
>  <cdx:fragmentId>
3

$$$$
