1017.cdx
  Mrv1902 05222410252D          

 25 28  0  0  0  0            999 V2000
   13.4492   -6.3164    0.0000 C   0  0  0  0  0  0  0  0  0  0  0  0
   13.4492   -7.1414    0.0000 C   0  0  0  0  0  0  0  0  0  0  0  0
   14.2338   -7.3963    0.0000 C   0  0  0  0  0  0  0  0  0  0  0  0
   14.7188   -6.7289    0.0000 C   0  0  0  0  0  0  0  0  0  0  0  0
   14.2338   -6.0615    0.0000 C   0  0  0  0  0  0  0  0  0  0  0  0
   14.5694   -8.1500    0.0000 C   0  0  0  0  0  0  0  0  0  0  0  0
   15.3899   -8.2363    0.0000 C   0  0  0  0  0  0  0  0  0  0  0  0
   15.8748   -7.5688    0.0000 C   0  0  0  0  0  0  0  0  0  0  0  0
   15.5392   -6.8151    0.0000 C   0  0  0  0  0  0  0  0  0  0  0  0
   12.7348   -5.9039    0.0000 C   0  0  0  0  0  0  0  0  0  0  0  0
   12.0203   -6.3164    0.0000 C   0  0  0  0  0  0  0  0  0  0  0  0
   12.0203   -7.1414    0.0000 C   0  0  0  0  0  0  0  0  0  0  0  0
   12.7348   -7.5539    0.0000 C   0  0  0  0  0  0  0  0  0  0  0  0
   14.0862   -8.8151    0.0000 C   0  0  0  0  0  0  0  0  0  0  0  0
   14.4206   -9.5662    0.0000 N   0  0  0  0  0  0  0  0  0  0  0  0
   13.2685   -8.7292    0.0000 O   0  0  0  0  0  0  0  0  0  0  0  0
   13.9373  -10.2313    0.0000 C   0  0  0  0  0  0  0  0  0  0  0  0
   13.1168  -10.1451    0.0000 C   0  0  0  0  0  0  0  0  0  0  0  0
   12.6319  -10.8125    0.0000 C   0  0  0  0  0  0  0  0  0  0  0  0
   12.9675  -11.5662    0.0000 C   0  0  0  0  0  0  0  0  0  0  0  0
   13.7880  -11.6524    0.0000 C   0  0  0  0  0  0  0  0  0  0  0  0
   14.2729  -10.9850    0.0000 C   0  0  0  0  0  0  0  0  0  0  0  0
   12.7824   -9.3940    0.0000 C   0  0  0  0  0  0  0  0  0  0  0  0
   15.0905  -11.0709    0.0000 C   0  0  0  0  0  0  0  0  0  0  0  0
   14.4879   -5.2796    0.0000 O   0  0  0  0  0  0  0  0  0  0  0  0
  1  2  2  0  0  0  0
  2  3  1  0  0  0  0
  3  4  2  0  0  0  0
  4  5  1  0  0  0  0
  5  1  1  0  0  0  0
  3  6  1  0  0  0  0
  6  7  2  0  0  0  0
  7  8  1  0  0  0  0
  8  9  2  0  0  0  0
  9  4  1  0  0  0  0
  1 10  1  0  0  0  0
 10 11  2  0  0  0  0
 11 12  1  0  0  0  0
 12 13  2  0  0  0  0
 13  2  1  0  0  0  0
  6 14  1  0  0  0  0
 14 15  1  0  0  0  0
 14 16  2  0  0  0  0
 15 17  1  0  0  0  0
 17 18  2  0  0  0  0
 18 19  1  0  0  0  0
 19 20  2  0  0  0  0
 20 21  1  0  0  0  0
 21 22  2  0  0  0  0
 22 17  1  0  0  0  0
 18 23  1  0  0  0  0
 22 24  1  0  0  0  0
  5 25  2  0  0  0  0
M  END
>  <cdx:fragmentId>
28796

$$$$
