38516.cdx
  Mrv1902 05222410242D          

 36 38  0  0  0  0            999 V2000
   12.9209   -9.1300    0.0000 C   0  0  0  0  0  0  0  0  0  0  0  0
   12.2065   -9.5425    0.0000 C   0  0  0  0  0  0  0  0  0  0  0  0
   11.4920   -9.1300    0.0000 C   0  0  0  0  0  0  0  0  0  0  0  0
   10.7775   -9.5425    0.0000 C   0  0  0  0  0  0  0  0  0  0  0  0
   10.0631   -9.1300    0.0000 C   0  0  0  0  0  0  0  0  0  0  0  0
    9.3486   -9.5425    0.0000 C   0  0  0  0  0  0  0  0  0  0  0  0
    8.6341   -9.1300    0.0000 C   0  0  0  0  0  0  0  0  0  0  0  0
    7.9196   -9.5425    0.0000 C   0  0  0  0  0  0  0  0  0  0  0  0
    7.2052   -9.1300    0.0000 C   0  0  0  0  0  0  0  0  0  0  0  0
    6.4907   -9.5425    0.0000 C   0  0  0  0  0  0  0  0  0  0  0  0
    5.7762   -9.1300    0.0000 C   0  0  0  0  0  0  0  0  0  0  0  0
    5.0618   -9.5425    0.0000 C   0  0  0  0  0  0  0  0  0  0  0  0
    4.3473   -9.1300    0.0000 C   0  0  0  0  0  0  0  0  0  0  0  0
    3.6328   -9.5425    0.0000 C   0  0  0  0  0  0  0  0  0  0  0  0
    2.9183   -9.1300    0.0000 C   0  0  0  0  0  0  0  0  0  0  0  0
    2.2039   -9.5425    0.0000 C   0  0  0  0  0  0  0  0  0  0  0  0
    1.4894   -9.1300    0.0000 O   0  0  0  0  0  0  0  0  0  0  0  0
    6.4907  -10.3675    0.0000 C   0  0  0  0  0  0  0  0  0  0  0  0
    9.3486  -10.3675    0.0000 C   0  0  0  0  0  0  0  0  0  0  0  0
   11.4920   -8.3050    0.0000 C   0  0  0  0  0  0  0  0  0  0  0  0
   12.2065   -7.8925    0.0000 C   0  0  0  0  0  0  0  0  0  0  0  0
   12.9209   -8.3050    0.0000 C   0  0  2  0  0  0  0  0  0  0  0  0
   13.6354   -7.8925    0.0000 O   0  0  0  0  0  0  0  0  0  0  0  0
   11.7940  -10.2570    0.0000 C   0  0  0  0  0  0  0  0  0  0  0  0
   12.6190  -10.2570    0.0000 C   0  0  0  0  0  0  0  0  0  0  0  0
   10.7775   -8.7175    0.0000 O   0  0  0  0  0  0  0  0  0  0  0  0
   11.0795   -7.5905    0.0000 C   0  0  0  0  0  0  0  0  0  0  0  0
    2.2039  -10.3675    0.0000 C   0  0  0  0  0  0  0  0  0  0  0  0
    1.5364  -10.8524    0.0000 C   0  0  0  0  0  0  0  0  0  0  0  0
    1.7914  -11.6370    0.0000 C   0  0  0  0  0  0  0  0  0  0  0  0
    2.6164  -11.6370    0.0000 C   0  0  1  0  0  0  0  0  0  0  0  0
    2.8713  -10.8524    0.0000 C   0  0  0  0  0  0  0  0  0  0  0  0
    0.7518  -10.5975    0.0000 C   0  0  0  0  0  0  0  0  0  0  0  0
    0.8953  -11.3716    0.0000 C   0  0  0  0  0  0  0  0  0  0  0  0
    2.9183   -9.9550    0.0000 C   0  0  0  0  0  0  0  0  0  0  0  0
    3.1013  -12.3045    0.0000 O   0  0  0  0  0  0  0  0  0  0  0  0
  2  1  1  0  0  0  0
  3  2  1  0  0  0  0
  4  3  1  0  0  0  0
  5  4  2  0  0  0  0
  6  5  1  0  0  0  0
  7  6  2  0  0  0  0
  8  7  1  0  0  0  0
  9  8  2  0  0  0  0
 10  9  1  0  0  0  0
 11 10  2  0  0  0  0
 12 11  1  0  0  0  0
 13 12  2  0  0  0  0
 14 13  1  0  0  0  0
 15 14  2  0  0  0  0
 16 15  1  0  0  0  0
 17 16  2  0  0  0  0
 10 18  1  0  0  0  0
  6 19  1  0  0  0  0
  3 20  1  0  0  0  0
 20 21  1  0  0  0  0
 21 22  1  0  0  0  0
 22  1  1  0  0  0  0
 22 23  1  6  0  0  0
  2 24  1  0  0  0  0
  2 25  1  0  0  0  0
 20 26  1  0  0  0  0
  3 26  1  0  0  0  0
 20 27  1  0  0  0  0
 16 28  1  0  0  0  0
 28 29  1  0  0  0  0
 29 30  1  0  0  0  0
 30 31  1  0  0  0  0
 31 32  1  0  0  0  0
 32 28  1  0  0  0  0
 29 33  1  0  0  0  0
 29 34  1  0  0  0  0
 28 35  1  0  0  0  0
 31 36  1  1  0  0  0
M  END
>  <cdx:fragmentId>
3

$$$$
