38518.cdx
  Mrv1902 05222410232D          

 36 37  0  0  0  0            999 V2000
   12.2065   -9.5425    0.0000 O   0  0  0  0  0  0  0  0  0  0  0  0
   11.4920   -9.1300    0.0000 C   0  0  0  0  0  0  0  0  0  0  0  0
   10.7775   -9.5425    0.0000 C   0  0  0  0  0  0  0  0  0  0  0  0
   10.0631   -9.1300    0.0000 C   0  0  0  0  0  0  0  0  0  0  0  0
    9.3486   -9.5425    0.0000 C   0  0  0  0  0  0  0  0  0  0  0  0
    8.6341   -9.1300    0.0000 C   0  0  0  0  0  0  0  0  0  0  0  0
    7.9196   -9.5425    0.0000 C   0  0  0  0  0  0  0  0  0  0  0  0
    7.2052   -9.1300    0.0000 C   0  0  0  0  0  0  0  0  0  0  0  0
    6.4907   -9.5425    0.0000 C   0  0  0  0  0  0  0  0  0  0  0  0
    5.7762   -9.1300    0.0000 C   0  0  0  0  0  0  0  0  0  0  0  0
    5.0618   -9.5425    0.0000 C   0  0  0  0  0  0  0  0  0  0  0  0
    4.3473   -9.1300    0.0000 C   0  0  0  0  0  0  0  0  0  0  0  0
    3.6328   -9.5425    0.0000 C   0  0  0  0  0  0  0  0  0  0  0  0
    2.9183   -9.1300    0.0000 C   0  0  0  0  0  0  0  0  0  0  0  0
    2.2039   -9.5425    0.0000 C   0  0  0  0  0  0  0  0  0  0  0  0
    1.4894   -9.1300    0.0000 O   0  0  0  0  0  0  0  0  0  0  0  0
    6.4907  -10.3675    0.0000 C   0  0  0  0  0  0  0  0  0  0  0  0
    9.3486  -10.3675    0.0000 C   0  0  0  0  0  0  0  0  0  0  0  0
   11.4920   -8.3050    0.0000 C   0  0  1  0  0  0  0  0  0  0  0  0
    2.2039  -10.3675    0.0000 C   0  0  1  0  0  0  0  0  0  0  0  0
    1.5364  -10.8524    0.0000 C   0  0  0  0  0  0  0  0  0  0  0  0
    1.7914  -11.6370    0.0000 C   0  0  0  0  0  0  0  0  0  0  0  0
    2.6164  -11.6370    0.0000 C   0  0  1  0  0  0  0  0  0  0  0  0
    2.8713  -10.8524    0.0000 C   0  0  0  0  0  0  0  0  0  0  0  0
    0.7518  -10.5975    0.0000 C   0  0  0  0  0  0  0  0  0  0  0  0
    0.8953  -11.3716    0.0000 C   0  0  0  0  0  0  0  0  0  0  0  0
    2.9183   -9.9550    0.0000 C   0  0  0  0  0  0  0  0  0  0  0  0
    3.1013  -12.3045    0.0000 O   0  0  0  0  0  0  0  0  0  0  0  0
   12.1594   -7.8201    0.0000 C   0  0  0  0  0  0  0  0  0  0  0  0
   11.9045   -7.0355    0.0000 C   0  0  0  0  0  0  0  0  0  0  0  0
   11.0795   -7.0355    0.0000 C   0  0  1  0  0  0  0  0  0  0  0  0
   10.8246   -7.8201    0.0000 C   0  0  0  0  0  0  0  0  0  0  0  0
   10.5946   -6.3680    0.0000 O   0  0  0  0  0  0  0  0  0  0  0  0
   12.9441   -8.0750    0.0000 C   0  0  0  0  0  0  0  0  0  0  0  0
   12.7428   -7.2367    0.0000 C   0  0  0  0  0  0  0  0  0  0  0  0
   10.7775   -8.7175    0.0000 C   0  0  0  0  0  0  0  0  0  0  0  0
  2  1  2  0  0  0  0
  3  2  1  0  0  0  0
  4  3  2  0  0  0  0
  5  4  1  0  0  0  0
  6  5  2  0  0  0  0
  7  6  1  0  0  0  0
  8  7  2  0  0  0  0
  9  8  1  0  0  0  0
 10  9  2  0  0  0  0
 11 10  1  0  0  0  0
 12 11  2  0  0  0  0
 13 12  1  0  0  0  0
 14 13  2  0  0  0  0
 15 14  1  0  0  0  0
 16 15  2  0  0  0  0
  9 17  1  0  0  0  0
  5 18  1  0  0  0  0
  2 19  1  0  0  0  0
 15 20  1  0  0  0  0
 20 21  1  0  0  0  0
 21 22  1  0  0  0  0
 22 23  1  0  0  0  0
 23 24  1  0  0  0  0
 24 20  1  0  0  0  0
 21 25  1  0  0  0  0
 21 26  1  0  0  0  0
 20 27  1  1  0  0  0
 23 28  1  1  0  0  0
 19 29  1  0  0  0  0
 29 30  1  0  0  0  0
 30 31  1  0  0  0  0
 31 32  1  0  0  0  0
 32 19  1  0  0  0  0
 31 33  1  1  0  0  0
 29 34  1  0  0  0  0
 29 35  1  0  0  0  0
 19 36  1  1  0  0  0
M  END
>  <cdx:fragmentId>
3

$$$$
