38517.cdx
  Mrv1902 05222410242D          

 35 36  0  0  0  0            999 V2000
   13.0198   -7.3534    0.0000 C   0  0  0  0  0  0  0  0  0  0  0  0
   12.3054   -7.7659    0.0000 C   0  0  0  0  0  0  0  0  0  0  0  0
   11.5909   -7.3534    0.0000 C   0  0  0  0  0  0  0  0  0  0  0  0
   10.8764   -7.7659    0.0000 C   0  0  0  0  0  0  0  0  0  0  0  0
   10.1619   -7.3534    0.0000 C   0  0  0  0  0  0  0  0  0  0  0  0
    9.4475   -7.7659    0.0000 C   0  0  0  0  0  0  0  0  0  0  0  0
    8.7330   -7.3534    0.0000 C   0  0  0  0  0  0  0  0  0  0  0  0
    8.0185   -7.7659    0.0000 C   0  0  0  0  0  0  0  0  0  0  0  0
    7.3041   -7.3534    0.0000 C   0  0  0  0  0  0  0  0  0  0  0  0
    6.5896   -7.7659    0.0000 C   0  0  0  0  0  0  0  0  0  0  0  0
    5.8751   -7.3534    0.0000 C   0  0  0  0  0  0  0  0  0  0  0  0
    5.1606   -7.7659    0.0000 C   0  0  0  0  0  0  0  0  0  0  0  0
    4.4462   -7.3534    0.0000 C   0  0  0  0  0  0  0  0  0  0  0  0
    3.7317   -7.7659    0.0000 C   0  0  0  0  0  0  0  0  0  0  0  0
    3.0172   -7.3534    0.0000 C   0  0  0  0  0  0  0  0  0  0  0  0
    2.3028   -7.7659    0.0000 C   0  0  0  0  0  0  0  0  0  0  0  0
    1.5883   -7.3534    0.0000 O   0  0  0  0  0  0  0  0  0  0  0  0
    6.5896   -8.5909    0.0000 C   0  0  0  0  0  0  0  0  0  0  0  0
    9.4475   -8.5909    0.0000 C   0  0  0  0  0  0  0  0  0  0  0  0
   11.5909   -6.5284    0.0000 C   0  0  0  0  0  0  0  0  0  0  0  0
   12.3054   -6.1159    0.0000 C   0  0  0  0  0  0  0  0  0  0  0  0
   13.0198   -6.5284    0.0000 C   0  0  2  0  0  0  0  0  0  0  0  0
   13.7343   -6.1159    0.0000 O   0  0  0  0  0  0  0  0  0  0  0  0
   11.8929   -8.4804    0.0000 C   0  0  0  0  0  0  0  0  0  0  0  0
   12.7179   -8.4804    0.0000 C   0  0  0  0  0  0  0  0  0  0  0  0
    2.3028   -8.5909    0.0000 C   0  0  0  0  0  0  0  0  0  0  0  0
    1.6353   -9.0759    0.0000 C   0  0  0  0  0  0  0  0  0  0  0  0
    1.8903   -9.8605    0.0000 C   0  0  0  0  0  0  0  0  0  0  0  0
    2.7153   -9.8605    0.0000 C   0  0  1  0  0  0  0  0  0  0  0  0
    2.9702   -9.0759    0.0000 C   0  0  0  0  0  0  0  0  0  0  0  0
    0.8507   -8.8209    0.0000 C   0  0  0  0  0  0  0  0  0  0  0  0
    0.9942   -9.5950    0.0000 C   0  0  0  0  0  0  0  0  0  0  0  0
    3.0172   -8.1784    0.0000 C   0  0  0  0  0  0  0  0  0  0  0  0
    3.2002  -10.5279    0.0000 O   0  0  0  0  0  0  0  0  0  0  0  0
   10.8764   -6.1159    0.0000 C   0  0  0  0  0  0  0  0  0  0  0  0
  2  1  1  0  0  0  0
  3  2  1  0  0  0  0
  4  3  1  0  0  0  0
  5  4  2  0  0  0  0
  6  5  1  0  0  0  0
  7  6  2  0  0  0  0
  8  7  1  0  0  0  0
  9  8  2  0  0  0  0
 10  9  1  0  0  0  0
 11 10  2  0  0  0  0
 12 11  1  0  0  0  0
 13 12  2  0  0  0  0
 14 13  1  0  0  0  0
 15 14  2  0  0  0  0
 16 15  1  0  0  0  0
 17 16  2  0  0  0  0
 10 18  1  0  0  0  0
  6 19  1  0  0  0  0
  3 20  1  0  0  0  0
 20 21  1  0  0  0  0
 21 22  1  0  0  0  0
 22  1  1  0  0  0  0
 22 23  1  6  0  0  0
  2 24  1  0  0  0  0
  2 25  1  0  0  0  0
 16 26  1  0  0  0  0
 26 27  1  0  0  0  0
 27 28  1  0  0  0  0
 28 29  1  0  0  0  0
 29 30  1  0  0  0  0
 30 26  1  0  0  0  0
 27 31  1  0  0  0  0
 27 32  1  0  0  0  0
 26 33  1  0  0  0  0
 29 34  1  1  0  0  0
 20 35  1  0  0  0  0
M  END
>  <cdx:fragmentId>
164

$$$$
