38513.cdx
  Mrv1902 05222410242D          

 22 23  0  0  0  0            999 V2000
    7.1487   -6.2304    0.0000 C   0  0  0  0  0  0  0  0  0  0  0  0
    6.4342   -6.6429    0.0000 C   0  0  0  0  0  0  0  0  0  0  0  0
    5.7197   -6.2304    0.0000 C   0  0  0  0  0  0  0  0  0  0  0  0
    7.1487   -5.4054    0.0000 O   0  0  0  0  0  0  0  0  0  0  0  0
    7.8631   -6.6429    0.0000 O   0  0  0  0  0  0  0  0  0  0  0  0
    5.0053   -6.6429    0.0000 C   0  0  0  0  0  0  0  0  0  0  0  0
    5.0053   -7.4679    0.0000 C   0  0  0  0  0  0  0  0  0  0  0  0
    4.2908   -7.8804    0.0000 C   0  0  0  0  0  0  0  0  0  0  0  0
    3.5763   -7.4679    0.0000 C   0  0  0  0  0  0  0  0  0  0  0  0
    3.5763   -6.6429    0.0000 C   0  0  0  0  0  0  0  0  0  0  0  0
    4.2908   -6.2304    0.0000 C   0  0  0  0  0  0  0  0  0  0  0  0
    2.8619   -6.2304    0.0000 O   0  0  0  0  0  0  0  0  0  0  0  0
    2.8619   -7.8804    0.0000 O   0  0  0  0  0  0  0  0  0  0  0  0
    8.5776   -6.2304    0.0000 C   0  0  0  0  0  0  0  0  0  0  0  0
    9.2921   -6.6429    0.0000 C   0  0  0  0  0  0  0  0  0  0  0  0
    9.2921   -7.4679    0.0000 C   0  0  0  0  0  0  0  0  0  0  0  0
   10.0066   -7.8804    0.0000 C   0  0  0  0  0  0  0  0  0  0  0  0
   10.7210   -7.4679    0.0000 C   0  0  0  0  0  0  0  0  0  0  0  0
   10.7210   -6.6429    0.0000 C   0  0  0  0  0  0  0  0  0  0  0  0
   10.0066   -6.2304    0.0000 C   0  0  0  0  0  0  0  0  0  0  0  0
   11.4355   -6.2304    0.0000 O   0  0  0  0  0  0  0  0  0  0  0  0
   11.4355   -7.8804    0.0000 O   0  0  0  0  0  0  0  0  0  0  0  0
  1  2  1  0  0  0  0
  2  3  1  0  0  0  0
  1  4  2  0  0  0  0
  1  5  1  0  0  0  0
  6  7  1  0  0  0  0
  7  8  2  0  0  0  0
  8  9  1  0  0  0  0
  9 10  2  0  0  0  0
 10 11  1  0  0  0  0
  6 11  2  0  0  0  0
 10 12  1  0  0  0  0
  3  6  1  0  0  0  0
  9 13  1  0  0  0  0
  5 14  1  0  0  0  0
 14 15  1  0  0  0  0
 15 16  2  0  0  0  0
 16 17  1  0  0  0  0
 17 18  2  0  0  0  0
 18 19  1  0  0  0  0
 19 20  2  0  0  0  0
 20 15  1  0  0  0  0
 19 21  1  0  0  0  0
 18 22  1  0  0  0  0
M  END
>  <cdx:groupId>
41

>  <cdx:fragmentId>
15

$$$$
