38522.cdx
  Mrv1902 05222410212D          

 42 43  0  0  0  0            999 V2000
    2.4154  -18.2403    0.0000 O   0  0  0  0  0  0  0  0  0  0  0  0
    1.2302  -15.4876    0.0000 C   0  0  0  0  0  0  0  0  0  0  0  0
   11.1563   -4.9787    0.0000 C   0  0  0  0  0  0  0  0  0  0  0  0
   10.2969   -4.9760    0.0000 C   0  0  0  0  0  0  0  0  0  0  0  0
    0.8329  -16.2106    0.0000 C   0  0  0  0  0  0  0  0  0  0  0  0
    3.7919  -15.7357    0.0000 C   0  0  0  0  0  0  0  0  0  0  0  0
    1.6577  -16.1933    0.0000 C   0  0  0  0  0  0  0  0  0  0  0  0
    1.6751  -17.0181    0.0000 C   0  0  0  0  0  0  0  0  0  0  0  0
    2.3981  -17.4154    0.0000 C   0  0  1  0  0  0  0  0  0  0  0  0
    3.1037  -16.9880    0.0000 C   0  0  0  0  0  0  0  0  0  0  0  0
    3.0863  -16.1632    0.0000 C   0  0  0  0  0  0  0  0  0  0  0  0
    2.3112  -13.2914    0.0000 C   0  0  0  0  0  0  0  0  0  0  0  0
    3.6876  -10.7868    0.0000 C   0  0  0  0  0  0  0  0  0  0  0  0
    2.3633  -15.7658    0.0000 C   0  0  0  0  0  0  0  0  0  0  0  0
    2.3459  -14.9410    0.0000 C   0  0  0  0  0  0  0  0  0  0  0  0
    3.0515  -14.5135    0.0000 C   0  0  0  0  0  0  0  0  0  0  0  0
    3.0342  -13.6887    0.0000 C   0  0  0  0  0  0  0  0  0  0  0  0
    3.7398  -13.2613    0.0000 C   0  0  0  0  0  0  0  0  0  0  0  0
    3.7224  -12.4364    0.0000 C   0  0  0  0  0  0  0  0  0  0  0  0
    4.4280  -12.0090    0.0000 C   0  0  0  0  0  0  0  0  0  0  0  0
    4.4106  -11.1842    0.0000 C   0  0  0  0  0  0  0  0  0  0  0  0
    5.1163  -10.7567    0.0000 C   0  0  0  0  0  0  0  0  0  0  0  0
    5.0989   -9.9319    0.0000 C   0  0  0  0  0  0  0  0  0  0  0  0
    5.8045   -9.5044    0.0000 C   0  0  0  0  0  0  0  0  0  0  0  0
    7.8335   -4.8918    0.0000 C   0  0  0  0  0  0  0  0  0  0  0  0
    7.8456   -5.7167    0.0000 C   0  0  0  0  0  0  0  0  0  0  0  0
    5.7449   -8.6354    0.0000 C   0  0  0  0  0  0  0  0  0  0  0  0
    8.5661   -6.1186    0.0000 C   0  0  0  0  0  0  0  0  0  0  0  0
    9.2744   -5.6956    0.0000 C   0  0  0  0  0  0  0  0  0  0  0  0
    9.3305   -7.3613    0.0000 C   0  0  0  0  0  0  0  0  0  0  0  0
   12.1878   -7.3011    0.0000 O   0  0  0  0  0  0  0  0  0  0  0  0
    7.1373   -6.1396    0.0000 C   0  0  0  0  0  0  0  0  0  0  0  0
    7.1494   -6.9645    0.0000 C   0  0  0  0  0  0  0  0  0  0  0  0
    6.4411   -7.3875    0.0000 C   0  0  0  0  0  0  0  0  0  0  0  0
    6.4532   -8.2124    0.0000 C   0  0  0  0  0  0  0  0  0  0  0  0
   10.0188   -6.1090    0.0000 C   0  0  0  0  0  0  0  0  0  0  0  0
   10.0362   -6.9339    0.0000 C   0  0  0  0  0  0  0  0  0  0  0  0
    7.1737   -8.6144    0.0000 C   0  0  0  0  0  0  0  0  0  0  0  0
   10.7592   -7.3312    0.0000 C   0  0  0  0  0  0  0  0  0  0  0  0
   11.4648   -6.9038    0.0000 C   0  0  2  0  0  0  0  0  0  0  0  0
   11.4474   -6.0789    0.0000 C   0  0  0  0  0  0  0  0  0  0  0  0
   10.7244   -5.6816    0.0000 C   0  0  0  0  0  0  0  0  0  0  0  0
  9  1  1  1  0  0  0
  7  2  1  0  0  0  0
 42  3  1  0  0  0  0
 42  4  1  0  0  0  0
  7  5  1  0  0  0  0
 11  6  1  0  0  0  0
  7 14  1  0  0  0  0
  8  7  1  0  0  0  0
  9  8  1  0  0  0  0
 10  9  1  0  0  0  0
 11 10  1  0  0  0  0
 14 11  2  0  0  0  0
 17 12  1  0  0  0  0
 21 13  1  0  0  0  0
 24 27  1  0  0  0  0
 15 14  1  0  0  0  0
 16 15  2  0  0  0  0
 17 16  1  0  0  0  0
 18 17  2  0  0  0  0
 19 18  1  0  0  0  0
 20 19  2  0  0  0  0
 21 20  1  0  0  0  0
 22 21  2  0  0  0  0
 23 22  1  0  0  0  0
 24 23  2  0  0  0  0
 26 25  1  0  0  0  0
 29 36  1  0  0  0  0
 28 26  1  0  0  0  0
 35 27  2  0  0  0  0
 29 28  2  0  0  0  0
 37 30  1  0  0  0  0
 40 31  1  6  0  0  0
 36 42  1  0  0  0  0
 37 36  2  0  0  0  0
 39 37  1  0  0  0  0
 40 39  1  0  0  0  0
 41 40  1  0  0  0  0
 26 32  2  0  0  0  0
 32 33  1  0  0  0  0
 33 34  2  0  0  0  0
 34 35  1  0  0  0  0
 42 41  1  0  0  0  0
 35 38  1  0  0  0  0
M  END
>  <cdx:fragmentId>
5

$$$$
