385250.cdx
  Mrv1902 05222410212D          

 36 41  0  0  0  0            999 V2000
   13.6586  -11.0330    0.0000 C   0  0  1  0  0  0  0  0  0  0  0  0
   14.3730  -10.6205    0.0000 C   0  0  2  0  0  0  0  0  0  0  0  0
   15.1577  -10.8754    0.0000 C   0  0  0  0  0  0  0  0  0  0  0  0
   15.6426  -10.2080    0.0000 C   0  0  2  0  0  0  0  0  0  0  0  0
   16.4272   -9.9530    0.0000 O   0  0  0  0  0  0  0  0  0  0  0  0
   16.4272   -9.1280    0.0000 C   0  0  2  0  0  0  0  0  0  0  0  0
   15.6426   -8.8731    0.0000 C   0  0  2  0  0  0  0  0  0  0  0  0
   15.1577   -9.5405    0.0000 C   0  0  2  0  0  0  0  0  0  0  0  0
   14.3730   -9.7955    0.0000 C   0  0  1  0  0  0  0  0  0  0  0  0
   13.6586   -9.3830    0.0000 C   0  0  1  0  0  0  0  0  0  0  0  0
   12.9441   -9.7955    0.0000 C   0  0  0  0  0  0  0  0  0  0  0  0
   12.9441  -10.6205    0.0000 C   0  0  2  0  0  0  0  0  0  0  0  0
   12.2296  -11.0330    0.0000 C   0  0  1  0  0  0  0  0  0  0  0  0
   11.5152  -10.6205    0.0000 C   0  0  0  0  0  0  0  0  0  0  0  0
   10.8007  -11.0330    0.0000 C   0  0  0  0  0  0  0  0  0  0  0  0
   10.8007  -11.8580    0.0000 C   0  0  0  0  0  0  0  0  0  0  0  0
   11.5152  -12.2705    0.0000 C   0  0  0  0  0  0  0  0  0  0  0  0
   12.2296  -11.8580    0.0000 C   0  0  0  0  0  0  0  0  0  0  0  0
   12.9441  -12.2705    0.0000 C   0  0  0  0  0  0  0  0  0  0  0  0
   13.6586  -11.8580    0.0000 C   0  0  0  0  0  0  0  0  0  0  0  0
   16.3410   -8.3076    0.0000 O   0  0  0  0  0  0  0  0  0  0  0  0
   17.1809   -9.4636    0.0000 C   0  0  0  0  0  0  0  0  0  0  0  0
   17.8483   -8.9787    0.0000 C   0  0  0  0  0  0  0  0  0  0  0  0
   17.7621   -8.1582    0.0000 C   0  0  2  0  0  0  0  0  0  0  0  0
   17.0084   -7.8226    0.0000 C   0  0  0  0  0  0  0  0  0  0  0  0
   10.0862  -12.2705    0.0000 O   0  0  0  0  0  0  0  0  0  0  0  0
   12.2296  -10.2080    0.0000 C   0  0  0  0  0  0  0  0  0  0  0  0
   14.3730   -8.9705    0.0000 C   0  0  0  0  0  0  0  0  0  0  0  0
   15.3877   -8.0885    0.0000 C   0  0  0  0  0  0  0  0  0  0  0  0
   18.4295   -7.6733    0.0000 C   0  0  0  0  0  0  0  0  0  0  0  0
   13.6586   -8.5580    0.0000 O   0  0  0  0  0  0  0  0  0  0  0  0
   14.7452   -8.8261    0.0000 O   0  0  0  0  0  0  0  0  0  0  0  0
   13.6586  -10.2080    0.0000 H   0  0  0  0  0  0  0  0  0  0  0  0
   14.3730  -11.4455    0.0000 H   0  0  0  0  0  0  0  0  0  0  0  0
   16.1275  -10.8754    0.0000 H   0  0  0  0  0  0  0  0  0  0  0  0
   12.9441  -11.4455    0.0000 H   0  0  0  0  0  0  0  0  0  0  0  0
  1  2  1  0  0  0  0
  2  3  1  0  0  0  0
  3  4  1  0  0  0  0
  4  5  1  0  0  0  0
  6  5  1  6  0  0  0
  6  7  1  0  0  0  0
  7  8  1  0  0  0  0
  8  9  1  0  0  0  0
  9 10  1  0  0  0  0
 10 11  1  0  0  0  0
 11 12  1  0  0  0  0
 12 13  1  0  0  0  0
 13 14  1  0  0  0  0
 14 15  1  0  0  0  0
 15 16  1  0  0  0  0
 16 17  1  0  0  0  0
 17 18  2  0  0  0  0
 18 19  1  0  0  0  0
 19 20  1  0  0  0  0
  1 20  1  0  0  0  0
  1 12  1  0  0  0  0
 13 18  1  0  0  0  0
  2  9  1  0  0  0  0
  4  8  1  0  0  0  0
 22 23  1  0  0  0  0
 23 24  1  0  0  0  0
 24 25  1  0  0  0  0
 21 25  1  0  0  0  0
  6 21  1  0  0  0  0
  6 22  1  0  0  0  0
 16 26  2  0  0  0  0
 13 27  1  1  0  0  0
  9 28  1  1  0  0  0
  7 29  1  6  0  0  0
 24 30  1  6  0  0  0
 10 31  1  1  0  0  0
  8 32  1  6  0  0  0
  1 33  1  1  0  0  0
  2 34  1  6  0  0  0
  4 35  1  6  0  0  0
 12 36  1  6  0  0  0
M  END
>  <cdx:groupId>
71294

>  <cdx:fragmentId>
71184

$$$$
