38526.cdx
  Mrv1902 05222410222D          

 41 42  0  0  0  0            999 V2000
    1.8601  -14.6841    0.0000 C   0  0  0  0  0  0  0  0  0  0  0  0
    1.8461  -13.8592    0.0000 C   0  0  0  0  0  0  0  0  0  0  0  0
    2.5535  -13.4347    0.0000 C   0  0  0  0  0  0  0  0  0  0  0  0
    2.5395  -12.6098    0.0000 C   0  0  0  0  0  0  0  0  0  0  0  0
    3.2468  -12.1852    0.0000 C   0  0  0  0  0  0  0  0  0  0  0  0
    3.2328  -11.3603    0.0000 C   0  0  0  0  0  0  0  0  0  0  0  0
    3.9402  -10.9357    0.0000 C   0  0  0  0  0  0  0  0  0  0  0  0
    3.9261  -10.1109    0.0000 C   0  0  0  0  0  0  0  0  0  0  0  0
    4.6335   -9.6863    0.0000 C   0  0  0  0  0  0  0  0  0  0  0  0
    5.3549  -10.0866    0.0000 C   0  0  0  0  0  0  0  0  0  0  0  0
    6.0622   -9.6620    0.0000 C   0  0  0  0  0  0  0  0  0  0  0  0
    6.7836  -10.0623    0.0000 C   0  0  0  0  0  0  0  0  0  0  0  0
    7.4910   -9.6377    0.0000 C   0  0  0  0  0  0  0  0  0  0  0  0
    8.2124  -10.0380    0.0000 C   0  0  0  0  0  0  0  0  0  0  0  0
    8.9197   -9.6135    0.0000 C   0  0  0  0  0  0  0  0  0  0  0  0
    9.6411  -10.0138    0.0000 C   0  0  0  0  0  0  0  0  0  0  0  0
   10.3485   -9.5892    0.0000 C   0  0  0  0  0  0  0  0  0  0  0  0
   11.0698   -9.9895    0.0000 C   0  0  0  0  0  0  0  0  0  0  0  0
   11.7772   -9.5649    0.0000 C   0  0  0  0  0  0  0  0  0  0  0  0
   12.4986   -9.9652    0.0000 C   0  0  0  0  0  0  0  0  0  0  0  0
    1.1534  -15.1097    0.0000 C   0  0  0  0  0  0  0  0  0  0  0  0
    1.1685  -15.9345    0.0000 C   0  0  0  0  0  0  0  0  0  0  0  0
    1.8854  -16.3369    0.0000 C   0  0  1  0  0  0  0  0  0  0  0  0
    2.5939  -15.9142    0.0000 C   0  0  0  0  0  0  0  0  0  0  0  0
    2.5805  -15.0923    0.0000 C   0  0  0  0  0  0  0  0  0  0  0  0
   12.5137  -10.7901    0.0000 C   0  0  0  0  0  0  0  0  0  0  0  0
   13.2356  -11.1894    0.0000 C   0  0  0  0  0  0  0  0  0  0  0  0
   13.9425  -10.7697    0.0000 C   0  0  0  0  0  0  0  0  0  0  0  0
   13.9307   -9.9448    0.0000 C   0  0  0  0  0  0  0  0  0  0  0  0
   13.2122   -9.5454    0.0000 C   0  0  0  0  0  0  0  0  0  0  0  0
    3.2899  -14.6711    0.0000 C   0  0  0  0  0  0  0  0  0  0  0  0
    0.3284  -15.1214    0.0000 C   0  0  0  0  0  0  0  0  0  0  0  0
    0.9285  -14.3159    0.0000 C   0  0  0  0  0  0  0  0  0  0  0  0
    1.8181  -12.2095    0.0000 C   0  0  0  0  0  0  0  0  0  0  0  0
   11.8069  -11.2156    0.0000 C   0  0  0  0  0  0  0  0  0  0  0  0
   12.7896   -8.8369    0.0000 C   0  0  0  0  0  0  0  0  0  0  0  0
   13.6145   -8.8252    0.0000 C   0  0  0  0  0  0  0  0  0  0  0  0
   10.3344   -8.7643    0.0000 C   0  0  0  0  0  0  0  0  0  0  0  0
    7.4770   -8.8129    0.0000 C   0  0  0  0  0  0  0  0  0  0  0  0
    3.2048   -9.7106    0.0000 C   0  0  0  0  0  0  0  0  0  0  0  0
    1.8963  -17.1618    0.0000 O   0  0  0  0  0  0  0  0  0  0  0  0
  1  2  1  0  0  0  0
  2  3  2  0  0  0  0
  3  4  1  0  0  0  0
  4  5  2  0  0  0  0
  5  6  1  0  0  0  0
  6  7  2  0  0  0  0
  7  8  1  0  0  0  0
  8  9  2  0  0  0  0
  9 10  1  0  0  0  0
 10 11  2  0  0  0  0
 11 12  1  0  0  0  0
 12 13  2  0  0  0  0
 13 14  1  0  0  0  0
 14 15  2  0  0  0  0
 15 16  1  0  0  0  0
 16 17  2  0  0  0  0
 17 18  1  0  0  0  0
 18 19  2  0  0  0  0
 19 20  1  0  0  0  0
  1 21  1  0  0  0  0
 21 22  1  0  0  0  0
 22 23  1  0  0  0  0
 23 24  1  0  0  0  0
 24 25  1  0  0  0  0
 25  1  2  0  0  0  0
 20 26  2  0  0  0  0
 26 27  1  0  0  0  0
 27 28  1  0  0  0  0
 28 29  1  0  0  0  0
 29 30  1  0  0  0  0
 30 20  1  0  0  0  0
 25 31  1  0  0  0  0
 21 32  1  0  0  0  0
 21 33  1  0  0  0  0
  4 34  1  0  0  0  0
 26 35  1  0  0  0  0
 30 36  1  0  0  0  0
 30 37  1  0  0  0  0
 17 38  1  0  0  0  0
 13 39  1  0  0  0  0
  8 40  1  0  0  0  0
 23 41  1  1  0  0  0
M  END
>  <cdx:fragmentId>
3

$$$$
