38537.cdx
  Mrv1902 05222410212D          

 32 34  0  0  0  0            999 V2000
    4.1066   -6.2580    0.0000 C   0  0  0  0  0  0  0  0  0  0  0  0
    4.1066   -7.0830    0.0000 C   0  0  0  0  0  0  0  0  0  0  0  0
    4.8211   -7.4955    0.0000 C   0  0  0  0  0  0  0  0  0  0  0  0
    5.5356   -7.0830    0.0000 C   0  0  0  0  0  0  0  0  0  0  0  0
    5.5356   -6.2580    0.0000 C   0  0  0  0  0  0  0  0  0  0  0  0
    4.8211   -5.8455    0.0000 C   0  0  0  0  0  0  0  0  0  0  0  0
    6.2476   -5.8469    0.0000 N   0  0  0  0  0  0  0  0  0  0  0  0
    6.2476   -5.0248    0.0000 C   0  0  0  0  0  0  0  0  0  0  0  0
    5.5356   -4.6137    0.0000 O   0  0  0  0  0  0  0  0  0  0  0  0
    6.9595   -4.6137    0.0000 N   0  0  0  0  0  0  0  0  0  0  0  0
    6.9595   -3.7916    0.0000 C   0  0  0  0  0  0  0  0  0  0  0  0
    6.2476   -3.3805    0.0000 C   0  0  0  0  0  0  0  0  0  0  0  0
    7.6715   -3.3805    0.0000 C   0  0  0  0  0  0  0  0  0  0  0  0
    7.6715   -5.0248    0.0000 C   0  0  0  0  0  0  0  0  0  0  0  0
    7.6715   -5.8469    0.0000 C   0  0  0  0  0  0  0  0  0  0  0  0
    7.0041   -6.3318    0.0000 S   0  0  0  0  0  0  0  0  0  0  0  0
    7.2590   -7.1164    0.0000 C   0  0  0  0  0  0  0  0  0  0  0  0
    8.0840   -7.1164    0.0000 C   0  0  0  0  0  0  0  0  0  0  0  0
    8.3390   -6.3318    0.0000 N   0  0  0  0  0  0  0  0  0  0  0  0
    8.5673   -7.7816    0.0000 C   0  0  0  0  0  0  0  0  0  0  0  0
    9.3849   -7.6956    0.0000 N   0  0  0  0  0  0  0  0  0  0  0  0
    8.2329   -8.5326    0.0000 O   0  0  0  0  0  0  0  0  0  0  0  0
    9.8698   -8.3631    0.0000 C   0  0  0  0  0  0  0  0  0  0  0  0
   10.6903   -8.2768    0.0000 C   0  0  0  0  0  0  0  0  0  0  0  0
   11.0259   -7.5232    0.0000 N   0  0  0  0  0  0  0  0  0  0  0  0
   10.5409   -6.8557    0.0000 C   0  0  0  0  0  0  0  0  0  0  0  0
    9.7205   -6.9420    0.0000 C   0  0  0  0  0  0  0  0  0  0  0  0
   11.8435   -7.4372    0.0000 C   0  0  0  0  0  0  0  0  0  0  0  0
   12.1779   -6.6862    0.0000 O   0  0  0  0  0  0  0  0  0  0  0  0
   12.3267   -8.1023    0.0000 C   0  0  0  0  0  0  0  0  0  0  0  0
    4.8211   -8.3176    0.0000 Cl  0  0  0  0  0  0  0  0  0  0  0  0
    3.3946   -7.4940    0.0000 Cl  0  0  0  0  0  0  0  0  0  0  0  0
  1  2  2  0  0  0  0
  2  3  1  0  0  0  0
  3  4  2  0  0  0  0
  4  5  1  0  0  0  0
  5  6  2  0  0  0  0
  6  1  1  0  0  0  0
  5  7  1  0  0  0  0
  7  8  1  0  0  0  0
  8  9  2  0  0  0  0
  8 10  1  0  0  0  0
 10 11  1  0  0  0  0
 11 12  1  0  0  0  0
 11 13  1  0  0  0  0
 10 14  1  0  0  0  0
 14 15  1  0  0  0  0
 15 16  1  0  0  0  0
 16 17  1  0  0  0  0
 17 18  2  0  0  0  0
 18 19  1  0  0  0  0
 19 15  2  0  0  0  0
 18 20  1  0  0  0  0
 20 21  1  0  0  0  0
 20 22  2  0  0  0  0
 21 23  1  0  0  0  0
 23 24  1  0  0  0  0
 24 25  1  0  0  0  0
 25 26  1  0  0  0  0
 26 27  1  0  0  0  0
 27 21  1  0  0  0  0
 25 28  1  0  0  0  0
 28 29  2  0  0  0  0
 28 30  1  0  0  0  0
  3 31  1  0  0  0  0
  2 32  1  0  0  0  0
M  END
>  <cdx:fragmentId>
30926

$$$$
