38536.cdx
  Mrv1902 05222410212D          

 56 60  0  0  0  0            999 V2000
    7.7401   -5.8048    0.0000 C   0  0  2  0  0  0  0  0  0  0  0  0
    7.7401   -6.6298    0.0000 C   0  0  1  0  0  0  0  0  0  0  0  0
    7.0257   -7.0423    0.0000 C   0  0  2  0  0  0  0  0  0  0  0  0
    6.3112   -6.6298    0.0000 C   0  0  1  0  0  0  0  0  0  0  0  0
    6.3112   -5.8048    0.0000 C   0  0  2  0  0  0  0  0  0  0  0  0
    7.0257   -5.3923    0.0000 O   0  0  0  0  0  0  0  0  0  0  0  0
    5.5967   -5.3923    0.0000 C   0  0  0  0  0  0  0  0  0  0  0  0
    4.8822   -5.8048    0.0000 O   0  0  0  0  0  0  0  0  0  0  0  0
    8.4546   -4.5673    0.0000 C   0  0  0  0  0  0  0  0  0  0  0  0
    9.1691   -4.1548    0.0000 C   0  0  0  0  0  0  0  0  0  0  0  0
    9.8835   -4.5673    0.0000 C   0  0  0  0  0  0  0  0  0  0  0  0
   10.5980   -4.1548    0.0000 C   0  0  0  0  0  0  0  0  0  0  0  0
   10.5980   -3.3298    0.0000 C   0  0  0  0  0  0  0  0  0  0  0  0
    9.8835   -2.9173    0.0000 C   0  0  0  0  0  0  0  0  0  0  0  0
    9.1691   -3.3298    0.0000 C   0  0  0  0  0  0  0  0  0  0  0  0
    7.7401   -4.1548    0.0000 O   0  0  0  0  0  0  0  0  0  0  0  0
    8.4546   -5.3923    0.0000 O   0  0  0  0  0  0  0  0  0  0  0  0
    9.8835   -2.0923    0.0000 O   0  0  0  0  0  0  0  0  0  0  0  0
   11.3125   -2.9173    0.0000 O   0  0  0  0  0  0  0  0  0  0  0  0
   11.3125   -4.5673    0.0000 O   0  0  0  0  0  0  0  0  0  0  0  0
    9.1691   -6.6298    0.0000 C   0  0  0  0  0  0  0  0  0  0  0  0
    9.8835   -7.0423    0.0000 C   0  0  0  0  0  0  0  0  0  0  0  0
    9.8835   -7.8673    0.0000 C   0  0  0  0  0  0  0  0  0  0  0  0
   10.5980   -8.2798    0.0000 C   0  0  0  0  0  0  0  0  0  0  0  0
   11.3125   -7.8673    0.0000 C   0  0  0  0  0  0  0  0  0  0  0  0
   11.3125   -7.0423    0.0000 C   0  0  0  0  0  0  0  0  0  0  0  0
   10.5980   -6.6298    0.0000 C   0  0  0  0  0  0  0  0  0  0  0  0
    9.1691   -5.8048    0.0000 O   0  0  0  0  0  0  0  0  0  0  0  0
    8.4546   -7.0423    0.0000 O   0  0  0  0  0  0  0  0  0  0  0  0
   12.0270   -6.6298    0.0000 O   0  0  0  0  0  0  0  0  0  0  0  0
   12.0270   -8.2798    0.0000 O   0  0  0  0  0  0  0  0  0  0  0  0
   10.5980   -9.1048    0.0000 O   0  0  0  0  0  0  0  0  0  0  0  0
    7.7401   -8.2798    0.0000 C   0  0  0  0  0  0  0  0  0  0  0  0
    7.7401   -9.1048    0.0000 C   0  0  0  0  0  0  0  0  0  0  0  0
    8.4546   -9.5173    0.0000 C   0  0  0  0  0  0  0  0  0  0  0  0
    8.4546  -10.3423    0.0000 C   0  0  0  0  0  0  0  0  0  0  0  0
    7.7401  -10.7548    0.0000 C   0  0  0  0  0  0  0  0  0  0  0  0
    7.0257  -10.3423    0.0000 C   0  0  0  0  0  0  0  0  0  0  0  0
    7.0257   -9.5173    0.0000 C   0  0  0  0  0  0  0  0  0  0  0  0
    8.4546   -7.8673    0.0000 O   0  0  0  0  0  0  0  0  0  0  0  0
    7.0257   -7.8673    0.0000 O   0  0  0  0  0  0  0  0  0  0  0  0
    6.3112  -10.7548    0.0000 O   0  0  0  0  0  0  0  0  0  0  0  0
    7.7401  -11.5798    0.0000 O   0  0  0  0  0  0  0  0  0  0  0  0
    9.1691  -10.7548    0.0000 O   0  0  0  0  0  0  0  0  0  0  0  0
    5.5967   -7.8673    0.0000 C   0  0  0  0  0  0  0  0  0  0  0  0
    4.8822   -8.2798    0.0000 C   0  0  0  0  0  0  0  0  0  0  0  0
    4.1678   -7.8673    0.0000 C   0  0  0  0  0  0  0  0  0  0  0  0
    3.4533   -8.2798    0.0000 C   0  0  0  0  0  0  0  0  0  0  0  0
    3.4533   -9.1048    0.0000 C   0  0  0  0  0  0  0  0  0  0  0  0
    4.1678   -9.5173    0.0000 C   0  0  0  0  0  0  0  0  0  0  0  0
    4.8822   -9.1048    0.0000 C   0  0  0  0  0  0  0  0  0  0  0  0
    6.3112   -8.2798    0.0000 O   0  0  0  0  0  0  0  0  0  0  0  0
    5.5967   -7.0423    0.0000 O   0  0  0  0  0  0  0  0  0  0  0  0
    4.1678  -10.3423    0.0000 O   0  0  0  0  0  0  0  0  0  0  0  0
    2.7388   -9.5173    0.0000 O   0  0  0  0  0  0  0  0  0  0  0  0
    2.7388   -7.8673    0.0000 O   0  0  0  0  0  0  0  0  0  0  0  0
  1  2  1  0  0  0  0
  2  3  1  0  0  0  0
  3  4  1  0  0  0  0
  4  5  1  0  0  0  0
  5  6  1  0  0  0  0
  5  7  1  1  0  0  0
  7  8  1  0  0  0  0
  1  6  1  0  0  0  0
  9 10  1  0  0  0  0
 10 11  1  0  0  0  0
 11 12  2  0  0  0  0
 12 13  1  0  0  0  0
 13 14  2  0  0  0  0
 14 15  1  0  0  0  0
 10 15  2  0  0  0  0
  9 16  2  0  0  0  0
  9 17  1  0  0  0  0
 14 18  1  0  0  0  0
 13 19  1  0  0  0  0
 12 20  1  0  0  0  0
  1 17  1  6  0  0  0
 21 22  1  0  0  0  0
 22 23  1  0  0  0  0
 23 24  2  0  0  0  0
 24 25  1  0  0  0  0
 25 26  2  0  0  0  0
 26 27  1  0  0  0  0
 22 27  2  0  0  0  0
 21 28  2  0  0  0  0
 21 29  1  0  0  0  0
 26 30  1  0  0  0  0
 25 31  1  0  0  0  0
 24 32  1  0  0  0  0
  2 29  1  6  0  0  0
 33 34  1  0  0  0  0
 34 35  1  0  0  0  0
 35 36  2  0  0  0  0
 36 37  1  0  0  0  0
 37 38  2  0  0  0  0
 38 39  1  0  0  0  0
 34 39  2  0  0  0  0
 33 40  2  0  0  0  0
 33 41  1  0  0  0  0
 38 42  1  0  0  0  0
 37 43  1  0  0  0  0
 36 44  1  0  0  0  0
  3 41  1  1  0  0  0
 45 46  1  0  0  0  0
 46 47  1  0  0  0  0
 47 48  2  0  0  0  0
 48 49  1  0  0  0  0
 49 50  2  0  0  0  0
 50 51  1  0  0  0  0
 46 51  2  0  0  0  0
 45 52  2  0  0  0  0
 45 53  1  0  0  0  0
 50 54  1  0  0  0  0
 49 55  1  0  0  0  0
 48 56  1  0  0  0  0
  4 53  1  6  0  0  0
M  END
>  <cdx:fragmentId>
30754

$$$$
