38534.cdx
  Mrv1902 05222410202D          

 34 40  0  0  0  0            999 V2000
    7.9427   -9.9051    0.0000 H   0  0  0  0  0  0  0  0  0  0  0  0
    8.4700  -12.5950    0.0000 O   0  0  0  0  0  0  0  0  0  0  0  0
    7.3975  -12.3475    0.0000 O   0  0  0  0  0  0  0  0  0  0  0  0
   10.1774  -11.8135    0.0000 O   0  0  0  0  0  0  0  0  0  0  0  0
    9.7951  -11.0825    0.0000 C   0  0  0  0  0  0  0  0  0  0  0  0
    8.0764   -8.0979    0.0000 C   0  0  0  0  0  0  0  0  0  0  0  0
    8.7864   -7.6778    0.0000 C   0  0  0  0  0  0  0  0  0  0  0  0
    9.5052   -8.0826    0.0000 C   0  0  0  0  0  0  0  0  0  0  0  0
    9.5141   -8.9076    0.0000 C   0  0  0  0  0  0  0  0  0  0  0  0
    8.8040   -9.3277    0.0000 C   0  0  0  0  0  0  0  0  0  0  0  0
    8.0852   -8.9229    0.0000 C   0  0  0  0  0  0  0  0  0  0  0  0
    7.3034   -9.1862    0.0000 C   0  0  0  0  0  0  0  0  0  0  0  0
    6.8113   -8.5240    0.0000 C   0  0  0  0  0  0  0  0  0  0  0  0
    7.2891   -7.8514    0.0000 N   0  0  0  0  0  0  0  0  0  0  0  0
    6.6767  -12.5680    0.0000 O   0  0  0  0  0  0  0  0  0  0  0  0
    6.6304   -8.9868    0.0000 O   0  0  0  0  0  0  0  0  0  0  0  0
    6.9232  -11.7807    0.0000 C   0  0  0  0  0  0  0  0  0  0  0  0
    7.7050  -11.5174    0.0000 C   0  0  1  0  0  0  0  0  0  0  0  0
    8.4924  -11.7639    0.0000 C   0  0  2  0  0  0  0  0  0  0  0  0
    8.9701  -11.0913    0.0000 C   0  0  1  0  0  0  0  0  0  0  0  0
    8.4781  -10.4291    0.0000 O   0  0  0  0  0  0  0  0  0  0  0  0
    7.6962  -10.6924    0.0000 C   0  0  2  0  0  0  0  0  0  0  0  0
    6.9089  -10.4459    0.0000 C   0  0  1  0  0  0  0  0  0  0  0  0
    6.4169   -9.7837    0.0000 C   0  0  0  0  0  0  0  0  0  0  0  0
    5.6350  -10.0470    0.0000 C   0  0  0  0  0  0  0  0  0  0  0  0
    4.9162   -9.6422    0.0000 C   0  0  0  0  0  0  0  0  0  0  0  0
    4.2062  -10.0623    0.0000 C   0  0  0  0  0  0  0  0  0  0  0  0
    4.2150  -10.8873    0.0000 C   0  0  0  0  0  0  0  0  0  0  0  0
    4.9338  -11.2921    0.0000 C   0  0  0  0  0  0  0  0  0  0  0  0
    5.6439  -10.8720    0.0000 C   0  0  0  0  0  0  0  0  0  0  0  0
    6.4312  -11.1185    0.0000 N   0  0  0  0  0  0  0  0  0  0  0  0
    7.8100  -12.8700    0.0000 C   0  0  0  0  0  0  0  0  0  0  0  0
    7.2266  -13.4534    0.0000 C   0  0  0  0  0  0  0  0  0  0  0  0
    8.0235  -13.6669    0.0000 C   0  0  0  0  0  0  0  0  0  0  0  0
 22  1  1  6  0  0  0
 19  2  1  6  0  0  0
 18  3  1  6  0  0  0
 20  5  1  1  0  0  0
  5  4  1  0  0  0  0
 23 12  1  6  0  0  0
 11  6  2  0  0  0  0
 14  6  1  0  0  0  0
  7  6  1  0  0  0  0
  8  7  2  0  0  0  0
  9  8  1  0  0  0  0
 10  9  2  0  0  0  0
 11 10  1  0  0  0  0
 12 11  1  0  0  0  0
 13 12  2  0  0  0  0
 14 13  1  0  0  0  0
 17 15  2  0  0  0  0
 24 16  2  0  0  0  0
 30 25  1  0  0  0  0
 22 18  1  0  0  0  0
 31 23  1  0  0  0  0
 31 17  1  0  0  0  0
 18 17  1  0  0  0  0
 19 18  1  0  0  0  0
 20 19  1  0  0  0  0
 21 20  1  0  0  0  0
 22 21  1  0  0  0  0
 23 22  1  0  0  0  0
 24 23  1  0  0  0  0
 25 24  1  0  0  0  0
 26 25  2  0  0  0  0
 27 26  1  0  0  0  0
 28 27  2  0  0  0  0
 29 28  1  0  0  0  0
 30 29  2  0  0  0  0
 31 30  1  0  0  0  0
  3 32  1  0  0  0  0
 32  2  1  0  0  0  0
 32 33  1  0  0  0  0
 32 34  1  0  0  0  0
M  END
>  <cdx:fragmentId>
172569

$$$$
