38531.cdx
  Mrv1902 05222410222D          

 21 24  0  0  0  0            999 V2000
    9.4749   -5.2163    0.0000 C   0  0  0  0  0  0  0  0  0  0  0  0
    8.9321   -4.5950    0.0000 C   0  0  0  0  0  0  0  0  0  0  0  0
    8.1735   -4.9192    0.0000 C   0  0  0  0  0  0  0  0  0  0  0  0
    8.2475   -5.7409    0.0000 C   0  0  0  0  0  0  0  0  0  0  0  0
    7.6024   -6.2553    0.0000 C   0  0  0  0  0  0  0  0  0  0  0  0
    7.6024   -7.0803    0.0000 C   0  0  0  0  0  0  0  0  0  0  0  0
    8.2475   -7.5947    0.0000 C   0  0  0  0  0  0  0  0  0  0  0  0
    9.0518   -7.4111    0.0000 C   0  0  0  0  0  0  0  0  0  0  0  0
    9.4097   -6.6678    0.0000 C   0  0  0  0  0  0  0  0  0  0  0  0
    9.0518   -5.9245    0.0000 C   0  0  0  0  0  0  0  0  0  0  0  0
    6.8880   -7.4928    0.0000 C   0  0  0  0  0  0  0  0  0  0  0  0
    6.1735   -7.0803    0.0000 C   0  0  0  0  0  0  0  0  0  0  0  0
    6.1735   -6.2553    0.0000 C   0  0  0  0  0  0  0  0  0  0  0  0
    6.8880   -5.8428    0.0000 C   0  0  0  0  0  0  0  0  0  0  0  0
    6.1735   -7.9053    0.0000 C   0  0  0  0  0  0  0  0  0  0  0  0
    6.3036   -9.6896    0.0000 C   0  0  0  0  0  0  0  0  0  0  0  0
    7.0920   -9.4465    0.0000 C   0  0  0  0  0  0  0  0  0  0  0  0
    7.2755   -8.6422    0.0000 C   0  0  0  0  0  0  0  0  0  0  0  0
    8.0639   -8.3990    0.0000 C   0  0  0  0  0  0  0  0  0  0  0  0
    6.0901  -10.4865    0.0000 O   0  0  0  0  0  0  0  0  0  0  0  0
    5.7202   -9.1063    0.0000 O   0  0  0  0  0  0  0  0  0  0  0  0
  1  2  1  0  0  0  0
  2  3  2  0  0  0  0
  3  4  1  0  0  0  0
  4  5  2  0  0  0  0
  5  6  1  0  0  0  0
  6  7  2  0  0  0  0
  7  8  1  0  0  0  0
  8  9  2  0  0  0  0
  9 10  1  0  0  0  0
  1 10  2  0  0  0  0
  4 10  1  0  0  0  0
 11 12  1  0  0  0  0
 12 13  1  0  0  0  0
 13 14  2  0  0  0  0
 11 15  2  0  0  0  0
 12 15  1  0  0  0  0
  5 14  1  0  0  0  0
  6 11  1  0  0  0  0
 16 17  1  0  0  0  0
 17 18  2  0  0  0  0
 18 19  1  0  0  0  0
 16 20  2  0  0  0  0
 16 21  1  0  0  0  0
  7 19  1  0  0  0  0
M  END
>  <cdx:fragmentId>
30319

$$$$
