1037.cdx
  Mrv1902 05222410232D          

 22 24  0  0  0  0            999 V2000
    7.6037   -7.0969    0.0000 C   0  0  0  0  0  0  0  0  0  0  0  0
    6.8893   -7.5094    0.0000 C   0  0  0  0  0  0  0  0  0  0  0  0
    7.6037   -6.2719    0.0000 O   0  0  0  0  0  0  0  0  0  0  0  0
    8.3182   -7.5094    0.0000 O   0  0  0  0  0  0  0  0  0  0  0  0
   12.6752   -6.0170    0.0000 O   0  0  0  0  0  0  0  0  0  0  0  0
   11.8906   -6.2719    0.0000 C   0  0  0  0  0  0  0  0  0  0  0  0
   11.8906   -7.0969    0.0000 C   0  0  0  0  0  0  0  0  0  0  0  0
   12.6752   -7.3518    0.0000 C   0  0  0  0  0  0  0  0  0  0  0  0
   13.1601   -6.6844    0.0000 C   0  0  0  0  0  0  0  0  0  0  0  0
   11.1761   -5.8594    0.0000 C   0  0  0  0  0  0  0  0  0  0  0  0
   11.1761   -7.5094    0.0000 C   0  0  0  0  0  0  0  0  0  0  0  0
   10.4616   -7.0969    0.0000 C   0  0  0  0  0  0  0  0  0  0  0  0
    9.7471   -7.5094    0.0000 C   0  0  0  0  0  0  0  0  0  0  0  0
    9.0327   -7.0969    0.0000 C   0  0  0  0  0  0  0  0  0  0  0  0
    9.0327   -6.2719    0.0000 C   0  0  0  0  0  0  0  0  0  0  0  0
    9.7471   -5.8594    0.0000 C   0  0  0  0  0  0  0  0  0  0  0  0
   10.4616   -6.2719    0.0000 C   0  0  0  0  0  0  0  0  0  0  0  0
   13.9851   -6.6844    0.0000 O   0  0  0  0  0  0  0  0  0  0  0  0
    9.7471   -8.3344    0.0000 C   0  0  0  0  0  0  0  0  0  0  0  0
   10.4616   -5.4469    0.0000 C   0  0  0  0  0  0  0  0  0  0  0  0
   12.9301   -8.1365    0.0000 C   0  0  0  0  0  0  0  0  0  0  0  0
   11.9768   -5.4514    0.0000 O   0  0  0  0  0  0  0  0  0  0  0  0
  1  2  1  0  0  0  0
  1  3  2  0  0  0  0
  1  4  1  0  0  0  0
  5  6  1  0  0  0  0
  6  7  1  0  0  0  0
  7  8  2  0  0  0  0
  8  9  1  0  0  0  0
  5  9  1  0  0  0  0
 11 12  1  0  0  0  0
 12 13  1  0  0  0  0
 13 14  1  0  0  0  0
 14 15  1  0  0  0  0
 15 16  1  0  0  0  0
 16 17  1  0  0  0  0
 10 17  1  0  0  0  0
 12 17  1  0  0  0  0
  6 10  1  0  0  0  0
  7 11  1  0  0  0  0
  9 18  2  0  0  0  0
 13 19  2  0  0  0  0
 17 20  1  0  0  0  0
  8 21  1  0  0  0  0
  6 22  1  0  0  0  0
  4 14  1  0  0  0  0
M  END
>  <cdx:fragmentId>
30201

$$$$
