7338.cdx
  Mrv1902 05222410272D          

 42 46  0  0  0  0            999 V2000
    6.9116   -6.4123    0.0000 C   0  0  2  0  0  0  0  0  0  0  0  0
    6.1919   -6.0090    0.0000 C   0  0  2  0  0  0  0  0  0  0  0  0
    5.4827   -6.4306    0.0000 C   0  0  1  0  0  0  0  0  0  0  0  0
    5.4933   -7.2555    0.0000 C   0  0  2  0  0  0  0  0  0  0  0  0
    6.2130   -7.6588    0.0000 C   0  0  1  0  0  0  0  0  0  0  0  0
    6.9221   -7.2372    0.0000 O   0  0  0  0  0  0  0  0  0  0  0  0
    4.7842   -7.6771    0.0000 O   0  0  0  0  0  0  0  0  0  0  0  0
    6.9380   -9.7212    0.0000 C   0  0  0  0  0  0  0  0  0  0  0  0
    6.9380   -8.8963    0.0000 C   0  0  0  0  0  0  0  0  0  0  0  0
    6.2236   -8.4838    0.0000 O   0  0  0  0  0  0  0  0  0  0  0  0
    7.6525  -10.1338    0.0000 C   0  0  0  0  0  0  0  0  0  0  0  0
    8.3670   -9.7212    0.0000 C   0  0  0  0  0  0  0  0  0  0  0  0
    8.3670   -8.8963    0.0000 C   0  0  0  0  0  0  0  0  0  0  0  0
    7.6525   -8.4838    0.0000 C   0  0  0  0  0  0  0  0  0  0  0  0
    9.0815  -10.1338    0.0000 C   0  0  0  0  0  0  0  0  0  0  0  0
    9.7959   -9.7212    0.0000 C   0  0  0  0  0  0  0  0  0  0  0  0
    9.7959   -8.8963    0.0000 C   0  0  0  0  0  0  0  0  0  0  0  0
    9.0815   -8.4838    0.0000 O   0  0  0  0  0  0  0  0  0  0  0  0
   10.5104   -8.4838    0.0000 C   0  0  0  0  0  0  0  0  0  0  0  0
   10.5104   -7.6587    0.0000 C   0  0  0  0  0  0  0  0  0  0  0  0
   11.2249   -8.8963    0.0000 C   0  0  0  0  0  0  0  0  0  0  0  0
   11.9393   -8.4838    0.0000 C   0  0  0  0  0  0  0  0  0  0  0  0
   11.9393   -7.6587    0.0000 C   0  0  0  0  0  0  0  0  0  0  0  0
   11.2249   -7.2462    0.0000 C   0  0  0  0  0  0  0  0  0  0  0  0
   12.6538   -7.2462    0.0000 O   0  0  0  0  0  0  0  0  0  0  0  0
   13.3683   -7.6587    0.0000 C   0  0  0  0  0  0  0  0  0  0  0  0
    9.0815  -10.9588    0.0000 O   0  0  0  0  0  0  0  0  0  0  0  0
    7.6525  -10.9588    0.0000 O   0  0  0  0  0  0  0  0  0  0  0  0
    7.6207   -5.9907    0.0000 C   0  0  0  0  0  0  0  0  0  0  0  0
    7.6101   -5.1657    0.0000 O   0  0  0  0  0  0  0  0  0  0  0  0
    4.7631   -6.0272    0.0000 O   0  0  0  0  0  0  0  0  0  0  0  0
    6.1813   -5.1840    0.0000 O   0  0  0  0  0  0  0  0  0  0  0  0
    4.0645   -7.2738    0.0000 C   0  0  2  0  0  0  0  0  0  0  0  0
    4.0486   -6.4489    0.0000 O   0  0  0  0  0  0  0  0  0  0  0  0
    3.3263   -6.0503    0.0000 C   0  0  2  0  0  0  0  0  0  0  0  0
    2.6199   -6.4765    0.0000 C   0  0  1  0  0  0  0  0  0  0  0  0
    2.6199   -7.3013    0.0000 C   0  0  2  0  0  0  0  0  0  0  0  0
    3.3263   -7.7000    0.0000 C   0  0  1  0  0  0  0  0  0  0  0  0
    1.9015   -6.0709    0.0000 O   0  0  0  0  0  0  0  0  0  0  0  0
    3.3104   -5.2254    0.0000 C   0  0  0  0  0  0  0  0  0  0  0  0
    1.9075   -7.7173    0.0000 O   0  0  0  0  0  0  0  0  0  0  0  0
    3.3303   -8.5250    0.0000 O   0  0  0  0  0  0  0  0  0  0  0  0
  1  2  1  0  0  0  0
  2  3  1  0  0  0  0
  3  4  1  0  0  0  0
  4  5  1  0  0  0  0
  5  6  1  0  0  0  0
  6  1  1  0  0  0  0
  4  7  1  6  0  0  0
  8  9  1  0  0  0  0
  9 10  1  0  0  0  0
  5 10  1  1  0  0  0
  8 11  2  0  0  0  0
 11 12  1  0  0  0  0
 12 13  2  0  0  0  0
 13 14  1  0  0  0  0
 14  9  2  0  0  0  0
 12 15  1  0  0  0  0
 15 16  1  0  0  0  0
 16 17  2  0  0  0  0
 17 18  1  0  0  0  0
 18 13  1  0  0  0  0
 17 19  1  0  0  0  0
 19 20  1  0  0  0  0
 19 21  2  0  0  0  0
 21 22  1  0  0  0  0
 22 23  2  0  0  0  0
 23 24  1  0  0  0  0
 24 20  2  0  0  0  0
 23 25  1  0  0  0  0
 25 26  1  0  0  0  0
 15 27  2  0  0  0  0
 11 28  1  0  0  0  0
  1 29  1  1  0  0  0
 29 30  1  0  0  0  0
  3 31  1  1  0  0  0
  2 32  1  6  0  0  0
 33  7  1  1  0  0  0
 33 34  1  0  0  0  0
 34 35  1  0  0  0  0
 35 36  1  0  0  0  0
 36 37  1  0  0  0  0
 37 38  1  0  0  0  0
 38 33  1  0  0  0  0
 36 39  1  1  0  0  0
 35 40  1  6  0  0  0
 37 41  1  6  0  0  0
 38 42  1  6  0  0  0
M  END
>  <cdx:fragmentId>
5

$$$$
