38557.cdx
  Mrv1902 05222410182D          

 56 61  0  0  0  0            999 V2000
    4.7905   -6.1617    0.0000 O   0  0  0  0  0  0  0  0  0  0  0  0
    6.2155   -5.3298    0.0000 O   0  0  0  0  0  0  0  0  0  0  0  0
    7.6604  -11.1047    0.0000 O   0  0  0  0  0  0  0  0  0  0  0  0
   13.3762   -7.8047    0.0000 C   0  0  0  0  0  0  0  0  0  0  0  0
   12.6617   -7.3922    0.0000 O   0  0  0  0  0  0  0  0  0  0  0  0
   10.5183   -7.8047    0.0000 C   0  0  0  0  0  0  0  0  0  0  0  0
   11.2328   -7.3922    0.0000 C   0  0  0  0  0  0  0  0  0  0  0  0
   11.9473   -7.8047    0.0000 C   0  0  0  0  0  0  0  0  0  0  0  0
   11.9473   -8.6297    0.0000 C   0  0  0  0  0  0  0  0  0  0  0  0
   11.2328   -9.0422    0.0000 C   0  0  0  0  0  0  0  0  0  0  0  0
   10.5183   -8.6297    0.0000 C   0  0  0  0  0  0  0  0  0  0  0  0
    9.0894  -11.1047    0.0000 O   0  0  0  0  0  0  0  0  0  0  0  0
    9.0894   -8.6297    0.0000 O   0  0  0  0  0  0  0  0  0  0  0  0
    8.3749   -9.0422    0.0000 C   0  0  0  0  0  0  0  0  0  0  0  0
    7.6604   -8.6297    0.0000 C   0  0  0  0  0  0  0  0  0  0  0  0
    6.9460   -9.0422    0.0000 C   0  0  0  0  0  0  0  0  0  0  0  0
    6.9460   -9.8672    0.0000 C   0  0  0  0  0  0  0  0  0  0  0  0
    7.6604  -10.2797    0.0000 C   0  0  0  0  0  0  0  0  0  0  0  0
    8.3749   -9.8672    0.0000 C   0  0  0  0  0  0  0  0  0  0  0  0
    9.0894  -10.2797    0.0000 C   0  0  0  0  0  0  0  0  0  0  0  0
    9.8039   -9.8672    0.0000 C   0  0  0  0  0  0  0  0  0  0  0  0
    9.8039   -9.0422    0.0000 C   0  0  0  0  0  0  0  0  0  0  0  0
    6.2315   -8.6297    0.0000 O   0  0  0  0  0  0  0  0  0  0  0  0
    9.0773   -6.1409    0.0000 O   0  0  0  0  0  0  0  0  0  0  0  0
   10.5022   -5.3089    0.0000 O   0  0  0  0  0  0  0  0  0  0  0  0
   10.4942   -3.6589    0.0000 O   0  0  0  0  0  0  0  0  0  0  0  0
    9.0613   -2.8409    0.0000 C   0  0  0  0  0  0  0  0  0  0  0  0
    8.3528   -4.0819    0.0000 O   0  0  0  0  0  0  0  0  0  0  0  0
    9.0653   -3.6659    0.0000 C   0  0  2  0  0  0  0  0  0  0  0  0
    9.7818   -4.0749    0.0000 C   0  0  1  0  0  0  0  0  0  0  0  0
    9.7858   -4.8999    0.0000 C   0  0  2  0  0  0  0  0  0  0  0  0
    9.0733   -5.3159    0.0000 C   0  0  2  0  0  0  0  0  0  0  0  0
    8.3568   -4.9069    0.0000 C   0  0  2  0  0  0  0  0  0  0  0  0
    7.6444   -5.3228    0.0000 O   0  0  0  0  0  0  0  0  0  0  0  0
    7.6484   -6.1478    0.0000 C   0  0  0  0  0  0  0  0  0  0  0  0
    6.9399   -7.3888    0.0000 O   0  0  0  0  0  0  0  0  0  0  0  0
    6.9359   -6.5638    0.0000 C   0  0  1  0  0  0  0  0  0  0  0  0
    6.2195   -6.1548    0.0000 C   0  0  2  0  0  0  0  0  0  0  0  0
    5.5070   -6.5707    0.0000 C   0  0  1  0  0  0  0  0  0  0  0  0
    5.5110   -7.3957    0.0000 C   0  0  2  0  0  0  0  0  0  0  0  0
    6.2275   -7.8047    0.0000 C   0  0  2  0  0  0  0  0  0  0  0  0
    4.7986   -7.8117    0.0000 O   0  0  0  0  0  0  0  0  0  0  0  0
    1.3952   -7.6749    0.0000 O   0  0  0  0  0  0  0  0  0  0  0  0
    2.2708   -6.2764    0.0000 O   0  0  0  0  0  0  0  0  0  0  0  0
    3.9198   -6.3355    0.0000 O   0  0  0  0  0  0  0  0  0  0  0  0
    3.4307   -8.4628    0.0000 O   0  0  0  0  0  0  0  0  0  0  0  0
    3.8686   -7.7635    0.0000 C   0  0  1  0  0  0  0  0  0  0  0  0
    3.4819   -7.0347    0.0000 C   0  0  2  0  0  0  0  0  0  0  0  0
    2.6575   -7.0052    0.0000 C   0  0  1  0  0  0  0  0  0  0  0  0
    2.2196   -7.7044    0.0000 C   0  0  2  0  0  0  0  0  0  0  0  0
    2.6063   -8.4332    0.0000 C   0  0  2  0  0  0  0  0  0  0  0  0
    2.1684   -9.1324    0.0000 C   0  0  0  0  0  0  0  0  0  0  0  0
    2.5551   -9.8612    0.0000 O   0  0  0  0  0  0  0  0  0  0  0  0
    1.2928  -10.5309    0.0000 O   0  0  0  0  0  0  0  0  0  0  0  0
    2.5039  -11.2893    0.0000 C   0  0  0  0  0  0  0  0  0  0  0  0
    2.1172  -10.5605    0.0000 C   0  0  0  0  0  0  0  0  0  0  0  0
 53 52  1  0  0  0  0
 51 52  1  1  0  0  0
 47 42  1  1  0  0  0
 40 42  1  6  0  0  0
 39  1  1  1  0  0  0
 38  2  1  6  0  0  0
 41 23  1  1  0  0  0
 23 16  1  0  0  0  0
 18  3  1  0  0  0  0
 22 11  1  0  0  0  0
  8  5  1  0  0  0  0
  5  4  1  0  0  0  0
 11  6  2  0  0  0  0
  7  6  1  0  0  0  0
  8  7  2  0  0  0  0
  9  8  1  0  0  0  0
 10  9  2  0  0  0  0
 11 10  1  0  0  0  0
 20 12  2  0  0  0  0
 22 13  1  0  0  0  0
 14 13  1  0  0  0  0
 19 14  2  0  0  0  0
 15 14  1  0  0  0  0
 16 15  2  0  0  0  0
 17 16  1  0  0  0  0
 18 17  2  0  0  0  0
 19 18  1  0  0  0  0
 20 19  1  0  0  0  0
 21 20  1  0  0  0  0
 22 21  2  0  0  0  0
 37 35  1  1  0  0  0
 35 34  1  0  0  0  0
 33 34  1  6  0  0  0
 32 24  1  1  0  0  0
 31 25  1  1  0  0  0
 30 26  1  6  0  0  0
 29 27  1  1  0  0  0
 33 28  1  0  0  0  0
 29 28  1  0  0  0  0
 30 29  1  0  0  0  0
 31 30  1  0  0  0  0
 32 31  1  0  0  0  0
 33 32  1  0  0  0  0
 41 36  1  0  0  0  0
 37 36  1  0  0  0  0
 38 37  1  0  0  0  0
 39 38  1  0  0  0  0
 40 39  1  0  0  0  0
 41 40  1  0  0  0  0
 50 43  1  6  0  0  0
 49 44  1  1  0  0  0
 48 45  1  6  0  0  0
 51 46  1  0  0  0  0
 47 46  1  0  0  0  0
 48 47  1  0  0  0  0
 49 48  1  0  0  0  0
 50 49  1  0  0  0  0
 51 50  1  0  0  0  0
 56 53  1  0  0  0  0
 56 54  2  0  0  0  0
 56 55  1  0  0  0  0
M  END
>  <cdx:fragmentId>
95

$$$$
