38555.cdx
  Mrv1902 05222410192D          

 41 45  0  0  0  0            999 V2000
    5.4434   -5.6295    0.0000 O   0  0  0  0  0  0  0  0  0  0  0  0
    9.0157   -6.0420    0.0000 C   0  0  0  0  0  0  0  0  0  0  0  0
    9.0157   -6.8670    0.0000 C   0  0  0  0  0  0  0  0  0  0  0  0
    8.3013   -7.2795    0.0000 C   0  0  0  0  0  0  0  0  0  0  0  0
    7.5868   -6.8670    0.0000 C   0  0  0  0  0  0  0  0  0  0  0  0
    6.8723   -7.2795    0.0000 C   0  0  0  0  0  0  0  0  0  0  0  0
    6.1579   -6.8670    0.0000 C   0  0  0  0  0  0  0  0  0  0  0  0
    6.1579   -6.0420    0.0000 C   0  0  0  0  0  0  0  0  0  0  0  0
    6.8723   -5.6295    0.0000 C   0  0  0  0  0  0  0  0  0  0  0  0
    7.5868   -6.0420    0.0000 C   0  0  0  0  0  0  0  0  0  0  0  0
    8.3013   -5.6295    0.0000 O   0  0  0  0  0  0  0  0  0  0  0  0
    8.3013   -8.1045    0.0000 O   0  0  0  0  0  0  0  0  0  0  0  0
    9.7302   -5.6295    0.0000 C   0  0  0  0  0  0  0  0  0  0  0  0
    9.7302   -4.8045    0.0000 C   0  0  0  0  0  0  0  0  0  0  0  0
   10.4447   -4.3920    0.0000 C   0  0  0  0  0  0  0  0  0  0  0  0
   11.1592   -4.8045    0.0000 C   0  0  0  0  0  0  0  0  0  0  0  0
   11.1592   -5.6295    0.0000 C   0  0  0  0  0  0  0  0  0  0  0  0
   10.4447   -6.0420    0.0000 C   0  0  0  0  0  0  0  0  0  0  0  0
   11.8736   -4.3920    0.0000 O   0  0  0  0  0  0  0  0  0  0  0  0
   12.5881   -4.8045    0.0000 C   0  0  0  0  0  0  0  0  0  0  0  0
    6.8723   -8.1045    0.0000 O   0  0  0  0  0  0  0  0  0  0  0  0
    5.4434   -7.2795    0.0000 C   0  0  0  0  0  0  0  0  0  0  0  0
    4.7289   -6.8670    0.0000 O   0  0  0  0  0  0  0  0  0  0  0  0
    4.0144   -7.2795    0.0000 C   0  0  0  0  0  0  0  0  0  0  0  0
    4.0144   -8.1045    0.0000 C   0  0  0  0  0  0  0  0  0  0  0  0
    4.7289   -8.5170    0.0000 C   0  0  0  0  0  0  0  0  0  0  0  0
    5.4434   -8.1045    0.0000 C   0  0  0  0  0  0  0  0  0  0  0  0
    6.8723   -4.8045    0.0000 C   0  0  0  0  0  0  0  0  0  0  0  0
    7.5868   -4.3920    0.0000 O   0  0  0  0  0  0  0  0  0  0  0  0
    7.5868   -3.5670    0.0000 C   0  0  0  0  0  0  0  0  0  0  0  0
    6.8723   -3.1545    0.0000 C   0  0  0  0  0  0  0  0  0  0  0  0
    6.1579   -3.5670    0.0000 C   0  0  0  0  0  0  0  0  0  0  0  0
    6.1579   -4.3920    0.0000 C   0  0  0  0  0  0  0  0  0  0  0  0
    8.3013   -3.1545    0.0000 C   0  0  0  0  0  0  0  0  0  0  0  0
    6.8723   -2.3295    0.0000 O   0  0  0  0  0  0  0  0  0  0  0  0
    5.4434   -3.1545    0.0000 O   0  0  0  0  0  0  0  0  0  0  0  0
    5.4434   -4.8045    0.0000 O   0  0  0  0  0  0  0  0  0  0  0  0
    8.3013   -2.3295    0.0000 O   0  0  0  0  0  0  0  0  0  0  0  0
    3.3000   -8.5170    0.0000 O   0  0  0  0  0  0  0  0  0  0  0  0
    4.7289   -9.3420    0.0000 O   0  0  0  0  0  0  0  0  0  0  0  0
    6.1579   -8.5170    0.0000 O   0  0  0  0  0  0  0  0  0  0  0  0
  2  3  2  0  0  0  0
  3  4  1  0  0  0  0
  4  5  1  0  0  0  0
  5  6  1  0  0  0  0
  6  7  2  0  0  0  0
  7  8  1  0  0  0  0
  8  9  2  0  0  0  0
  9 10  1  0  0  0  0
  5 10  2  0  0  0  0
 10 11  1  0  0  0  0
  2 11  1  0  0  0  0
  4 12  2  0  0  0  0
 13 14  1  0  0  0  0
 14 15  2  0  0  0  0
 15 16  1  0  0  0  0
 16 17  2  0  0  0  0
 17 18  1  0  0  0  0
 13 18  2  0  0  0  0
 19 20  1  0  0  0  0
 16 19  1  0  0  0  0
  2 13  1  0  0  0  0
  6 21  1  0  0  0  0
  1  8  1  0  0  0  0
  7 22  1  0  0  0  0
 22 23  1  0  0  0  0
 23 24  1  0  0  0  0
 24 25  1  0  0  0  0
 25 26  1  0  0  0  0
 26 27  1  0  0  0  0
 27 22  1  0  0  0  0
  9 28  1  0  0  0  0
 28 29  1  0  0  0  0
 29 30  1  0  0  0  0
 30 31  1  0  0  0  0
 31 32  1  0  0  0  0
 32 33  1  0  0  0  0
 33 28  1  0  0  0  0
 30 34  1  0  0  0  0
 31 35  1  0  0  0  0
 32 36  1  0  0  0  0
 33 37  1  0  0  0  0
 34 38  1  0  0  0  0
 25 39  1  0  0  0  0
 26 40  1  0  0  0  0
 27 41  1  0  0  0  0
M  END
>  <cdx:fragmentId>
33078

$$$$
