38561.cdx
  Mrv1902 05222410262D          

 29 31  0  0  0  0            999 V2000
   12.5549   -9.4750    0.0000 C   0  0  0  0  0  0  0  0  0  0  0  0
   13.2706   -9.0646    0.0000 C   0  0  0  0  0  0  0  0  0  0  0  0
   12.5525  -10.3000    0.0000 O   0  0  0  0  0  0  0  0  0  0  0  0
   11.8417   -9.0603    0.0000 O   0  0  0  0  0  0  0  0  0  0  0  0
   11.1260   -9.4707    0.0000 C   0  0  0  0  0  0  0  0  0  0  0  0
   10.4128   -9.0561    0.0000 C   0  0  0  0  0  0  0  0  0  0  0  0
    9.6971   -9.4665    0.0000 C   0  0  0  0  0  0  0  0  0  0  0  0
    8.9863   -8.2269    0.0000 C   0  0  0  0  0  0  0  0  0  0  0  0
    8.9838   -9.0519    0.0000 C   0  0  0  0  0  0  0  0  0  0  0  0
    8.2681   -9.4622    0.0000 C   0  0  0  0  0  0  0  0  0  0  0  0
    7.5549   -9.0476    0.0000 C   0  0  0  0  0  0  0  0  0  0  0  0
    6.8392   -9.4580    0.0000 C   0  0  0  0  0  0  0  0  0  0  0  0
    6.1259   -9.0434    0.0000 C   0  0  0  0  0  0  0  0  0  0  0  0
    6.1284   -8.2184    0.0000 C   0  0  0  0  0  0  0  0  0  0  0  0
    6.8441   -7.8080    0.0000 C   0  0  0  0  0  0  0  0  0  0  0  0
    7.5573   -8.2226    0.0000 C   0  0  0  0  0  0  0  0  0  0  0  0
    8.2730   -7.8123    0.0000 O   0  0  0  0  0  0  0  0  0  0  0  0
    5.4151   -7.8038    0.0000 O   0  0  0  0  0  0  0  0  0  0  0  0
    4.6995   -8.2142    0.0000 C   0  0  0  0  0  0  0  0  0  0  0  0
    3.9862   -7.7995    0.0000 C   0  0  0  0  0  0  0  0  0  0  0  0
    3.2705   -8.2099    0.0000 C   0  0  0  0  0  0  0  0  0  0  0  0
    2.5573   -7.7953    0.0000 C   0  0  0  0  0  0  0  0  0  0  0  0
    1.8416   -8.2057    0.0000 C   0  0  0  0  0  0  0  0  0  0  0  0
    1.1283   -7.7911    0.0000 C   0  0  0  0  0  0  0  0  0  0  0  0
    1.1308   -6.9661    0.0000 C   0  0  0  0  0  0  0  0  0  0  0  0
    1.8465   -6.5557    0.0000 C   0  0  0  0  0  0  0  0  0  0  0  0
    2.5597   -6.9703    0.0000 C   0  0  0  0  0  0  0  0  0  0  0  0
    9.7020   -7.8165    0.0000 O   0  0  0  0  0  0  0  0  0  0  0  0
    8.2657  -10.2872    0.0000 C   0  0  0  0  0  0  0  0  0  0  0  0
  1  2  1  0  0  0  0
  1  3  2  0  0  0  0
  1  4  1  0  0  0  0
  5  6  1  0  0  0  0
  6  7  1  0  0  0  0
  8  9  1  0  0  0  0
  9 10  2  0  0  0  0
 10 11  1  0  0  0  0
 11 12  1  0  0  0  0
 12 13  2  0  0  0  0
 13 14  1  0  0  0  0
 14 15  2  0  0  0  0
 15 16  1  0  0  0  0
 11 16  2  0  0  0  0
 16 17  1  0  0  0  0
  8 17  1  0  0  0  0
 19 20  1  0  0  0  0
 20 21  2  0  0  0  0
 18 19  1  0  0  0  0
 22 23  1  0  0  0  0
 23 24  2  0  0  0  0
 24 25  1  0  0  0  0
 25 26  2  0  0  0  0
 26 27  1  0  0  0  0
 22 27  2  0  0  0  0
 21 22  1  0  0  0  0
 14 18  1  0  0  0  0
  8 28  2  0  0  0  0
 10 29  1  0  0  0  0
  7  9  1  0  0  0  0
  4  5  1  0  0  0  0
M  END
>  <cdx:fragmentId>
19

$$$$
