1067.cdx
  Mrv1902 05222410272D          

 15 15  0  0  0  0            999 V2000
    3.5143   -6.2477    0.0000 C   0  0  0  0  0  0  0  0  0  0  0  0
    3.5143   -7.0727    0.0000 C   0  0  0  0  0  0  0  0  0  0  0  0
    4.2989   -7.3276    0.0000 C   0  0  0  0  0  0  0  0  0  0  0  0
    4.7838   -6.6602    0.0000 C   0  0  0  0  0  0  0  0  0  0  0  0
    4.2989   -5.9927    0.0000 N   0  0  0  0  0  0  0  0  0  0  0  0
    4.5530   -8.1095    0.0000 O   0  0  0  0  0  0  0  0  0  0  0  0
    4.5530   -5.2108    0.0000 C   0  0  0  0  0  0  0  0  0  0  0  0
    5.3571   -5.0399    0.0000 C   0  0  0  0  0  0  0  0  0  0  0  0
    6.1592   -4.8709    0.0000 C   0  0  0  0  0  0  0  0  0  0  0  0
    6.9613   -4.7019    0.0000 C   0  0  0  0  0  0  0  0  0  0  0  0
    7.5103   -5.3138    0.0000 N   0  0  0  0  0  0  0  0  0  0  0  0
    8.3148   -5.1443    0.0000 C   0  0  0  0  0  0  0  0  0  0  0  0
    7.2549   -6.0953    0.0000 C   0  0  0  0  0  0  0  0  0  0  0  0
    8.8638   -5.7562    0.0000 C   0  0  0  0  0  0  0  0  0  0  0  0
    8.5702   -4.3628    0.0000 O   0  0  0  0  0  0  0  0  0  0  0  0
  1  2  1  0  0  0  0
  2  3  1  0  0  0  0
  3  4  1  0  0  0  0
  4  5  1  0  0  0  0
  5  1  1  0  0  0  0
  3  6  1  0  0  0  0
  5  7  1  0  0  0  0
  7  8  1  0  0  0  0
  8  9  3  0  0  0  0
  9 10  1  0  0  0  0
 10 11  1  0  0  0  0
 11 12  1  0  0  0  0
 11 13  1  0  0  0  0
 12 14  1  0  0  0  0
 12 15  2  0  0  0  0
M  END
>  <cdx:fragmentId>
33660

$$$$
