38581.cdx
  Mrv1902 05222410182D          

 26 28  0  0  0  0            999 V2000
    6.8626   -7.0913    0.0000 C   0  0  0  0  0  0  0  0  0  0  0  0
    6.8626   -7.9163    0.0000 C   0  0  0  0  0  0  0  0  0  0  0  0
    7.5770   -8.3288    0.0000 C   0  0  0  0  0  0  0  0  0  0  0  0
    8.2915   -7.9163    0.0000 C   0  0  0  0  0  0  0  0  0  0  0  0
    8.2915   -7.0913    0.0000 C   0  0  0  0  0  0  0  0  0  0  0  0
    7.5770   -6.6788    0.0000 C   0  0  0  0  0  0  0  0  0  0  0  0
    9.0060   -8.3288    0.0000 C   0  0  0  0  0  0  0  0  0  0  0  0
    9.7204   -7.9163    0.0000 O   0  0  0  0  0  0  0  0  0  0  0  0
    6.1481   -6.6788    0.0000 C   0  0  0  0  0  0  0  0  0  0  0  0
    5.4336   -7.0913    0.0000 C   0  0  0  0  0  0  0  0  0  0  0  0
    5.4336   -7.9163    0.0000 C   0  0  0  0  0  0  0  0  0  0  0  0
    6.1481   -8.3288    0.0000 C   0  0  0  0  0  0  0  0  0  0  0  0
    4.7191   -6.6788    0.0000 C   0  0  0  0  0  0  0  0  0  0  0  0
    4.0047   -7.0913    0.0000 C   0  0  0  0  0  0  0  0  0  0  0  0
    4.0047   -7.9163    0.0000 C   0  0  0  0  0  0  0  0  0  0  0  0
    4.7191   -8.3288    0.0000 C   0  0  0  0  0  0  0  0  0  0  0  0
   10.4324   -8.3273    0.0000 C   0  0  0  0  0  0  0  0  0  0  0  0
   10.4324   -9.1495    0.0000 O   0  0  0  0  0  0  0  0  0  0  0  0
   11.1444   -7.9163    0.0000 C   0  0  0  0  0  0  0  0  0  0  0  0
    7.5770   -5.8566    0.0000 O   0  0  0  0  0  0  0  0  0  0  0  0
    8.2890   -4.6234    0.0000 O   0  0  0  0  0  0  0  0  0  0  0  0
    7.5770   -5.0345    0.0000 C   0  0  0  0  0  0  0  0  0  0  0  0
    6.8650   -4.6234    0.0000 C   0  0  0  0  0  0  0  0  0  0  0  0
    4.7191   -5.8566    0.0000 O   0  0  0  0  0  0  0  0  0  0  0  0
    6.1481   -5.8566    0.0000 O   0  0  0  0  0  0  0  0  0  0  0  0
    6.1481   -9.1509    0.0000 O   0  0  0  0  0  0  0  0  0  0  0  0
  1  2  2  0  0  0  0
  2  3  1  0  0  0  0
  3  4  2  0  0  0  0
  4  5  1  0  0  0  0
  5  6  2  0  0  0  0
  6  1  1  0  0  0  0
  4  7  1  0  0  0  0
  7  8  1  0  0  0  0
  1  9  1  0  0  0  0
  9 10  1  0  0  0  0
 10 11  2  0  0  0  0
 11 12  1  0  0  0  0
 12  2  1  0  0  0  0
 10 13  1  0  0  0  0
 13 14  2  0  0  0  0
 14 15  1  0  0  0  0
 15 16  2  0  0  0  0
 16 11  1  0  0  0  0
  8 17  1  0  0  0  0
 17 18  2  0  0  0  0
 17 19  1  0  0  0  0
  6 20  1  0  0  0  0
 13 24  1  0  0  0  0
  9 25  2  0  0  0  0
 12 26  2  0  0  0  0
 20 22  1  0  0  0  0
 21 22  2  0  0  0  0
 22 23  1  0  0  0  0
M  STY  1   1 SUP
M  SAL   1  4  20  21  22  23
M  SBL   1  1  22
M  SMT   1 OH
M  SAP   1  1  20   6  1
M  END
>  <cdx:fragmentId>
16564

$$$$
