1113.cdx
  Mrv1902 05222410282D          

 56 61  0  0  0  0            999 V2000
    7.0514   -4.8612    0.0000 C   0  0  0  0  0  0  0  0  0  0  0  0
    6.3370   -5.2737    0.0000 C   0  0  0  0  0  0  0  0  0  0  0  0
    7.0514   -4.0362    0.0000 O   0  0  0  0  0  0  0  0  0  0  0  0
    7.7659   -5.2737    0.0000 O   0  0  0  0  0  0  0  0  0  0  0  0
    9.1949   -3.6237    0.0000 O   0  0  0  0  0  0  0  0  0  0  0  0
    8.4804   -4.0362    0.0000 C   0  0  2  0  0  0  0  0  0  0  0  0
    8.4804   -4.8612    0.0000 C   0  0  1  0  0  0  0  0  0  0  0  0
    9.1949   -5.2737    0.0000 C   0  0  2  0  0  0  0  0  0  0  0  0
    9.9093   -4.8612    0.0000 C   0  0  2  0  0  0  0  0  0  0  0  0
    9.9093   -4.0362    0.0000 C   0  0  2  0  0  0  0  0  0  0  0  0
    7.7659   -3.6237    0.0000 C   0  0  0  0  0  0  0  0  0  0  0  0
   10.6238   -3.6237    0.0000 O   0  0  0  0  0  0  0  0  0  0  0  0
   14.1962   -4.0362    0.0000 C   0  0  0  0  0  0  0  0  0  0  0  0
   14.1962   -4.8612    0.0000 C   0  0  0  0  0  0  0  0  0  0  0  0
   13.4817   -5.2737    0.0000 C   0  0  0  0  0  0  0  0  0  0  0  0
   12.7672   -4.8612    0.0000 C   0  0  0  0  0  0  0  0  0  0  0  0
   12.0527   -5.2737    0.0000 C   0  0  0  0  0  0  0  0  0  0  0  0
   11.3383   -4.8612    0.0000 C   0  0  0  0  0  0  0  0  0  0  0  0
   11.3383   -4.0362    0.0000 C   0  0  0  0  0  0  0  0  0  0  0  0
   12.0527   -3.6237    0.0000 C   0  0  0  0  0  0  0  0  0  0  0  0
   12.7672   -4.0362    0.0000 C   0  0  0  0  0  0  0  0  0  0  0  0
   13.4817   -3.6237    0.0000 O   0  0  0  0  0  0  0  0  0  0  0  0
   14.9106   -5.2737    0.0000 O   0  0  0  0  0  0  0  0  0  0  0  0
   14.1962   -6.5112    0.0000 O   0  0  0  0  0  0  0  0  0  0  0  0
   14.9106   -6.0987    0.0000 C   0  0  2  0  0  0  0  0  0  0  0  0
   15.6251   -6.5112    0.0000 C   0  0  1  0  0  0  0  0  0  0  0  0
   15.6251   -7.3362    0.0000 C   0  0  2  0  0  0  0  0  0  0  0  0
   14.9106   -7.7487    0.0000 C   0  0  1  0  0  0  0  0  0  0  0  0
   14.1962   -7.3362    0.0000 C   0  0  1  0  0  0  0  0  0  0  0  0
   13.4817   -7.7487    0.0000 C   0  0  0  0  0  0  0  0  0  0  0  0
   12.7672   -7.3362    0.0000 O   0  0  0  0  0  0  0  0  0  0  0  0
   11.3383   -7.3362    0.0000 O   0  0  0  0  0  0  0  0  0  0  0  0
   12.0527   -7.7487    0.0000 C   0  0  2  0  0  0  0  0  0  0  0  0
   12.0527   -8.5737    0.0000 C   0  0  1  0  0  0  0  0  0  0  0  0
   11.3383   -8.9862    0.0000 C   0  0  1  0  0  0  0  0  0  0  0  0
   10.6238   -8.5737    0.0000 C   0  0  2  0  0  0  0  0  0  0  0  0
   10.6238   -7.7487    0.0000 C   0  0  2  0  0  0  0  0  0  0  0  0
    9.9093   -7.3362    0.0000 C   0  0  0  0  0  0  0  0  0  0  0  0
    9.9093   -8.9862    0.0000 O   0  0  0  0  0  0  0  0  0  0  0  0
   11.3383   -9.8112    0.0000 O   0  0  0  0  0  0  0  0  0  0  0  0
   12.7672   -8.9862    0.0000 O   0  0  0  0  0  0  0  0  0  0  0  0
   14.9106   -8.5737    0.0000 O   0  0  0  0  0  0  0  0  0  0  0  0
   16.3396   -7.7487    0.0000 O   0  0  0  0  0  0  0  0  0  0  0  0
   16.3396   -6.0987    0.0000 O   0  0  0  0  0  0  0  0  0  0  0  0
   13.4817   -6.0987    0.0000 O   0  0  0  0  0  0  0  0  0  0  0  0
   14.9106   -3.6237    0.0000 C   0  0  0  0  0  0  0  0  0  0  0  0
   14.9106   -2.7987    0.0000 C   0  0  0  0  0  0  0  0  0  0  0  0
   15.6251   -2.3862    0.0000 C   0  0  0  0  0  0  0  0  0  0  0  0
   16.3396   -2.7987    0.0000 C   0  0  0  0  0  0  0  0  0  0  0  0
   16.3396   -3.6237    0.0000 C   0  0  0  0  0  0  0  0  0  0  0  0
   15.6251   -4.0362    0.0000 C   0  0  0  0  0  0  0  0  0  0  0  0
   17.0540   -2.3862    0.0000 O   0  0  0  0  0  0  0  0  0  0  0  0
   17.7685   -2.7987    0.0000 C   0  0  0  0  0  0  0  0  0  0  0  0
   12.0527   -6.0987    0.0000 O   0  0  0  0  0  0  0  0  0  0  0  0
   10.6238   -5.2737    0.0000 O   0  0  0  0  0  0  0  0  0  0  0  0
    9.1949   -6.0987    0.0000 O   0  0  0  0  0  0  0  0  0  0  0  0
  1  2  1  0  0  0  0
  1  3  2  0  0  0  0
  1  4  1  0  0  0  0
  5  6  1  0  0  0  0
  6  7  1  0  0  0  0
  7  8  1  0  0  0  0
  8  9  1  0  0  0  0
  9 10  1  0  0  0  0
  5 10  1  0  0  0  0
  6 11  1  6  0  0  0
 13 14  2  0  0  0  0
 14 15  1  0  0  0  0
 15 16  1  0  0  0  0
 16 17  1  0  0  0  0
 17 18  2  0  0  0  0
 18 19  1  0  0  0  0
 19 20  2  0  0  0  0
 20 21  1  0  0  0  0
 16 21  2  0  0  0  0
 21 22  1  0  0  0  0
 13 22  1  0  0  0  0
 24 25  1  0  0  0  0
 25 26  1  0  0  0  0
 26 27  1  0  0  0  0
 27 28  1  0  0  0  0
 28 29  1  0  0  0  0
 24 29  1  0  0  0  0
 32 33  1  0  0  0  0
 33 34  1  0  0  0  0
 34 35  1  0  0  0  0
 35 36  1  0  0  0  0
 36 37  1  0  0  0  0
 32 37  1  0  0  0  0
 37 38  1  6  0  0  0
 36 39  1  1  0  0  0
 35 40  1  6  0  0  0
 34 41  1  6  0  0  0
 33 31  1  1  0  0  0
 30 31  1  0  0  0  0
 29 30  1  1  0  0  0
 28 42  1  6  0  0  0
 27 43  1  1  0  0  0
 26 44  1  6  0  0  0
 25 23  1  1  0  0  0
 14 23  1  0  0  0  0
 15 45  2  0  0  0  0
 46 47  1  0  0  0  0
 47 48  2  0  0  0  0
 48 49  1  0  0  0  0
 49 50  2  0  0  0  0
 50 51  1  0  0  0  0
 46 51  2  0  0  0  0
 52 53  1  0  0  0  0
 49 52  1  0  0  0  0
 13 46  1  0  0  0  0
 17 54  1  0  0  0  0
 12 19  1  0  0  0  0
 10 12  1  1  0  0  0
  9 55  1  6  0  0  0
  8 56  1  6  0  0  0
  7  4  1  1  0  0  0
M  END
>  <cdx:fragmentId>
29470

$$$$
