1112.cdx
  Mrv1902 05222410282D          

 28 29  0  0  0  0            999 V2000
   14.4812   -4.8040    0.0000 O   0  0  0  0  0  0  0  0  0  0  0  0
   15.1956   -4.3915    0.0000 C   0  0  1  0  0  0  0  0  0  0  0  0
   15.1956   -3.5665    0.0000 C   0  0  2  0  0  0  0  0  0  0  0  0
   14.4812   -3.1540    0.0000 C   0  0  1  0  0  0  0  0  0  0  0  0
   13.7667   -3.5665    0.0000 C   0  0  2  0  0  0  0  0  0  0  0  0
   13.7667   -4.3915    0.0000 C   0  0  2  0  0  0  0  0  0  0  0  0
   15.9101   -3.1540    0.0000 O   0  0  0  0  0  0  0  0  0  0  0  0
   14.4812   -2.3290    0.0000 O   0  0  0  0  0  0  0  0  0  0  0  0
   13.0522   -3.1540    0.0000 O   0  0  0  0  0  0  0  0  0  0  0  0
   13.0522   -4.8040    0.0000 O   0  0  0  0  0  0  0  0  0  0  0  0
   12.3378   -3.5665    0.0000 C   0  0  0  0  0  0  0  0  0  0  0  0
   12.3378   -4.3915    0.0000 C   0  0  2  0  0  0  0  0  0  0  0  0
   11.6233   -4.8040    0.0000 C   0  0  0  0  0  0  0  0  0  0  0  0
   10.9088   -4.3915    0.0000 C   0  0  0  0  0  0  0  0  0  0  0  0
   10.1944   -4.8040    0.0000 C   0  0  2  0  0  0  0  0  0  0  0  0
   10.1944   -5.6290    0.0000 C   0  0  2  0  0  0  0  0  0  0  0  0
    9.4799   -6.0415    0.0000 C   0  0  0  0  0  0  0  0  0  0  0  0
    8.7654   -5.6290    0.0000 C   0  0  2  0  0  0  0  0  0  0  0  0
    8.7654   -4.8040    0.0000 C   0  0  0  0  0  0  0  0  0  0  0  0
    9.4799   -4.3915    0.0000 C   0  0  0  0  0  0  0  0  0  0  0  0
    9.0674   -3.6771    0.0000 C   0  0  0  0  0  0  0  0  0  0  0  0
    9.8924   -3.6771    0.0000 C   0  0  0  0  0  0  0  0  0  0  0  0
   10.6069   -6.3435    0.0000 C   0  0  0  0  0  0  0  0  0  0  0  0
    8.0509   -6.0415    0.0000 O   0  0  0  0  0  0  0  0  0  0  0  0
   11.0194   -5.6290    0.0000 O   0  0  0  0  0  0  0  0  0  0  0  0
   10.1944   -3.9790    0.0000 O   0  0  0  0  0  0  0  0  0  0  0  0
   15.9101   -4.8040    0.0000 C   0  0  0  0  0  0  0  0  0  0  0  0
   16.6246   -4.3915    0.0000 O   0  0  0  0  0  0  0  0  0  0  0  0
  1  2  1  0  0  0  0
  2  3  1  0  0  0  0
  3  4  1  0  0  0  0
  4  5  1  0  0  0  0
  5  6  1  0  0  0  0
  1  6  1  0  0  0  0
  3  7  1  6  0  0  0
  4  8  1  1  0  0  0
  5  9  1  6  0  0  0
 12 11  1  1  0  0  0
 12 13  1  0  0  0  0
 13 14  2  0  0  0  0
 15 16  1  0  0  0  0
 16 17  1  0  0  0  0
 17 18  1  0  0  0  0
 18 19  1  0  0  0  0
 19 20  1  0  0  0  0
 15 20  1  0  0  0  0
 20 21  1  0  0  0  0
 20 22  1  0  0  0  0
 16 23  1  1  0  0  0
 18 24  1  1  0  0  0
 16 25  1  6  0  0  0
 15 26  1  1  0  0  0
 14 15  1  0  0  0  0
 10 12  1  0  0  0  0
  6 10  1  1  0  0  0
 27 28  1  0  0  0  0
  2 27  1  1  0  0  0
M  END
>  <cdx:fragmentId>
29348

$$$$
