2657.cdx
  Mrv1902 05222410192D          

 14 15  0  0  0  0            999 V2000
   27.8854  -12.6363    0.0000 C   0  0  0  0  0  0  0  0  0  0  0  0
   27.8854  -13.4613    0.0000 C   0  0  0  0  0  0  0  0  0  0  0  0
   28.5999  -13.8738    0.0000 C   0  0  0  0  0  0  0  0  0  0  0  0
   29.3144  -13.4613    0.0000 C   0  0  0  0  0  0  0  0  0  0  0  0
   29.3144  -12.6363    0.0000 C   0  0  0  0  0  0  0  0  0  0  0  0
   28.5999  -12.2238    0.0000 C   0  0  0  0  0  0  0  0  0  0  0  0
   27.1710  -12.2238    0.0000 C   0  0  0  0  0  0  0  0  0  0  0  0
   26.4565  -12.6363    0.0000 C   0  0  0  0  0  0  0  0  0  0  0  0
   26.4565  -13.4613    0.0000 C   0  0  0  0  0  0  0  0  0  0  0  0
   27.1710  -13.8738    0.0000 C   0  0  0  0  0  0  0  0  0  0  0  0
   27.1710  -14.6959    0.0000 O   0  0  0  0  0  0  0  0  0  0  0  0
   25.7445  -13.8724    0.0000 C   0  0  0  0  0  0  0  0  0  0  0  0
   25.7445  -14.6945    0.0000 O   0  0  0  0  0  0  0  0  0  0  0  0
   25.0325  -13.4613    0.0000 C   0  0  0  0  0  0  0  0  0  0  0  0
  1  2  2  0  0  0  0
  2  3  1  0  0  0  0
  3  4  2  0  0  0  0
  4  5  1  0  0  0  0
  5  6  2  0  0  0  0
  6  1  1  0  0  0  0
  1  7  1  0  0  0  0
  7  8  1  0  0  0  0
  8  9  1  0  0  0  0
  9 10  1  0  0  0  0
 10  2  1  0  0  0  0
 10 11  2  0  0  0  0
  9 12  1  0  0  0  0
 12 13  2  0  0  0  0
 12 14  1  0  0  0  0
M  END
>  <cdx:fragmentId>
17151

$$$$
