38601.cdx
  Mrv1902 05222410262D          

 41 44  0  0  0  0            999 V2000
    7.5133  -11.0206    0.0000 O   0  0  0  0  0  0  0  0  0  0  0  0
    7.5133  -10.1956    0.0000 C   0  0  0  0  0  0  0  0  0  0  0  0
    8.2278   -9.7831    0.0000 C   0  0  0  0  0  0  0  0  0  0  0  0
    8.2278   -8.9581    0.0000 C   0  0  0  0  0  0  0  0  0  0  0  0
    7.5133   -8.5456    0.0000 C   0  0  0  0  0  0  0  0  0  0  0  0
    6.7988   -8.9581    0.0000 C   0  0  0  0  0  0  0  0  0  0  0  0
    6.7988   -9.7831    0.0000 C   0  0  0  0  0  0  0  0  0  0  0  0
    7.5133   -7.7206    0.0000 C   0  0  0  0  0  0  0  0  0  0  0  0
    8.0438   -7.3081    0.0000 C   0  0  1  0  0  0  0  0  0  0  0  0
    8.8366   -7.5362    0.0000 C   0  0  0  0  0  0  0  0  0  0  0  0
    9.2985   -6.8526    0.0000 O   0  0  0  0  0  0  0  0  0  0  0  0
    8.7911   -6.2021    0.0000 C   0  0  1  0  0  0  0  0  0  0  0  0
    8.0438   -6.4836    0.0000 C   0  0  1  0  0  0  0  0  0  0  0  0
    7.3653   -6.0142    0.0000 C   0  0  0  0  0  0  0  0  0  0  0  0
    9.0145   -5.4079    0.0000 C   0  0  0  0  0  0  0  0  0  0  0  0
    9.8139   -5.2042    0.0000 C   0  0  0  0  0  0  0  0  0  0  0  0
   10.0372   -4.4100    0.0000 C   0  0  0  0  0  0  0  0  0  0  0  0
    9.4611   -3.8195    0.0000 C   0  0  0  0  0  0  0  0  0  0  0  0
    8.6616   -4.0232    0.0000 C   0  0  0  0  0  0  0  0  0  0  0  0
    8.4383   -4.8174    0.0000 C   0  0  0  0  0  0  0  0  0  0  0  0
    9.6844   -3.0253    0.0000 O   0  0  0  0  0  0  0  0  0  0  0  0
    8.0855   -3.4327    0.0000 O   0  0  0  0  0  0  0  0  0  0  0  0
    7.2860   -3.6364    0.0000 C   0  0  0  0  0  0  0  0  0  0  0  0
   10.8367   -4.2063    0.0000 O   0  0  0  0  0  0  0  0  0  0  0  0
    8.9423  -10.1956    0.0000 O   0  0  0  0  0  0  0  0  0  0  0  0
    6.0844  -10.1956    0.0000 O   0  0  0  0  0  0  0  0  0  0  0  0
    5.3699   -9.7831    0.0000 C   0  0  0  0  0  0  0  0  0  0  0  0
    6.6196   -6.3670    0.0000 O   0  0  0  0  0  0  0  0  0  0  0  0
   11.4128   -4.7968    0.0000 C   0  0  0  0  0  0  0  0  0  0  0  0
    9.6567   -9.7831    0.0000 C   0  0  0  0  0  0  0  0  0  0  0  0
    5.1942   -4.6946    0.0000 C   0  0  2  0  0  0  0  0  0  0  0  0
    4.4759   -5.1003    0.0000 C   0  0  2  0  0  0  0  0  0  0  0  0
    4.4681   -5.9253    0.0000 C   0  0  1  0  0  0  0  0  0  0  0  0
    5.1786   -6.3445    0.0000 C   0  0  2  0  0  0  0  0  0  0  0  0
    5.8969   -5.9388    0.0000 C   0  0  1  0  0  0  0  0  0  0  0  0
    5.9047   -5.1138    0.0000 O   0  0  0  0  0  0  0  0  0  0  0  0
    3.7497   -6.3310    0.0000 O   0  0  0  0  0  0  0  0  0  0  0  0
    5.2020   -3.8696    0.0000 C   0  0  0  0  0  0  0  0  0  0  0  0
    3.7653   -4.6811    0.0000 O   0  0  0  0  0  0  0  0  0  0  0  0
    5.1708   -7.1695    0.0000 O   0  0  0  0  0  0  0  0  0  0  0  0
    4.4915   -3.4504    0.0000 O   0  0  0  0  0  0  0  0  0  0  0  0
  1  2  1  0  0  0  0
  2  3  2  0  0  0  0
  3  4  1  0  0  0  0
  4  5  2  0  0  0  0
  5  6  1  0  0  0  0
  6  7  2  0  0  0  0
  7  2  1  0  0  0  0
  5  8  1  0  0  0  0
  9  8  1  6  0  0  0
  9 10  1  0  0  0  0
 10 11  1  0  0  0  0
 11 12  1  0  0  0  0
 12 13  1  0  0  0  0
 13  9  1  0  0  0  0
 13 14  1  6  0  0  0
 12 15  1  1  0  0  0
 15 16  2  0  0  0  0
 16 17  1  0  0  0  0
 17 18  2  0  0  0  0
 18 19  1  0  0  0  0
 19 20  2  0  0  0  0
 20 15  1  0  0  0  0
 18 21  1  0  0  0  0
 19 22  1  0  0  0  0
 22 23  1  0  0  0  0
 17 24  1  0  0  0  0
  3 25  1  0  0  0  0
  7 26  1  0  0  0  0
 26 27  1  0  0  0  0
 14 28  1  0  0  0  0
 24 29  1  0  0  0  0
 25 30  1  0  0  0  0
 31 32  1  0  0  0  0
 32 33  1  0  0  0  0
 33 34  1  0  0  0  0
 34 35  1  0  0  0  0
 35 36  1  0  0  0  0
 36 31  1  0  0  0  0
 33 37  1  1  0  0  0
 31 38  1  1  0  0  0
 32 39  1  6  0  0  0
 34 40  1  6  0  0  0
 38 41  1  0  0  0  0
 35 28  1  1  0  0  0
M  END
>  <cdx:fragmentId>
28940

$$$$
