38602.cdx
  Mrv1902 05222410272D          

 26 27  0  0  0  0            999 V2000
    9.8956   -5.6392    0.0000 C   0  0  0  0  0  0  0  0  0  0  0  0
    9.4831   -4.9248    0.0000 C   0  0  0  0  0  0  0  0  0  0  0  0
    8.3561   -7.7017    0.0000 C   0  0  0  0  0  0  0  0  0  0  0  0
    6.9272   -6.8767    0.0000 O   0  0  0  0  0  0  0  0  0  0  0  0
    5.4983   -7.7017    0.0000 O   0  0  0  0  0  0  0  0  0  0  0  0
    4.0693   -6.8767    0.0000 O   0  0  0  0  0  0  0  0  0  0  0  0
    3.3548   -5.6392    0.0000 O   0  0  0  0  0  0  0  0  0  0  0  0
    4.0693   -5.2267    0.0000 C   0  0  0  0  0  0  0  0  0  0  0  0
    4.7838   -5.6392    0.0000 C   0  0  2  0  0  0  0  0  0  0  0  0
    4.7838   -6.4642    0.0000 C   0  0  2  0  0  0  0  0  0  0  0  0
    5.4983   -6.8767    0.0000 C   0  0  1  0  0  0  0  0  0  0  0  0
    6.2127   -6.4642    0.0000 C   0  0  2  0  0  0  0  0  0  0  0  0
    6.2127   -5.6392    0.0000 C   0  0  1  0  0  0  0  0  0  0  0  0
    5.4983   -5.2267    0.0000 O   0  0  0  0  0  0  0  0  0  0  0  0
    6.9272   -5.2267    0.0000 O   0  0  0  0  0  0  0  0  0  0  0  0
    8.3561   -6.8767    0.0000 C   0  0  2  0  0  0  0  0  0  0  0  0
    7.6417   -6.4642    0.0000 C   0  0  0  0  0  0  0  0  0  0  0  0
    7.6417   -5.6392    0.0000 C   0  0  1  0  0  0  0  0  0  0  0  0
    8.3561   -5.2267    0.0000 C   0  0  0  0  0  0  0  0  0  0  0  0
    9.0706   -5.6392    0.0000 C   0  0  0  0  0  0  0  0  0  0  0  0
    9.0706   -6.4642    0.0000 C   0  0  1  0  0  0  0  0  0  0  0  0
   11.2140   -7.7017    0.0000 O   0  0  0  0  0  0  0  0  0  0  0  0
    9.7851   -6.8767    0.0000 C   0  0  0  0  0  0  0  0  0  0  0  0
   10.4996   -6.4642    0.0000 C   0  0  0  0  0  0  0  0  0  0  0  0
   11.2140   -6.8767    0.0000 C   0  0  0  0  0  0  0  0  0  0  0  0
   11.9285   -6.4642    0.0000 C   0  0  0  0  0  0  0  0  0  0  0  0
 21 23  1  1  0  0  0
 20  1  1  0  0  0  0
 20  2  1  0  0  0  0
 16  3  1  6  0  0  0
 18 15  1  6  0  0  0
 13 15  1  1  0  0  0
 12  4  1  6  0  0  0
 11  5  1  1  0  0  0
 10  6  1  6  0  0  0
  9  8  1  1  0  0  0
  8  7  1  0  0  0  0
 14  9  1  0  0  0  0
 10  9  1  0  0  0  0
 11 10  1  0  0  0  0
 12 11  1  0  0  0  0
 13 12  1  0  0  0  0
 14 13  1  0  0  0  0
 21 16  1  0  0  0  0
 17 16  1  0  0  0  0
 18 17  1  0  0  0  0
 19 18  1  0  0  0  0
 20 19  1  0  0  0  0
 21 20  1  0  0  0  0
 25 22  2  0  0  0  0
 24 23  1  0  0  0  0
 25 24  1  0  0  0  0
 26 25  1  0  0  0  0
M  END
>  <cdx:fragmentId>
28938

$$$$
