38603.cdx
  Mrv1902 05222410262D          

 43 46  0  0  0  0            999 V2000
    5.1029   -8.6636    0.0000 C   0  0  0  0  0  0  0  0  0  0  0  0
    4.3885   -9.0761    0.0000 C   0  0  0  0  0  0  0  0  0  0  0  0
    3.6740   -8.6636    0.0000 C   0  0  0  0  0  0  0  0  0  0  0  0
    2.9595   -9.0761    0.0000 C   0  0  0  0  0  0  0  0  0  0  0  0
    2.9595   -9.9011    0.0000 C   0  0  0  0  0  0  0  0  0  0  0  0
    3.6740  -10.3136    0.0000 C   0  0  0  0  0  0  0  0  0  0  0  0
    4.3885   -9.9011    0.0000 C   0  0  0  0  0  0  0  0  0  0  0  0
    5.1029   -7.8386    0.0000 O   0  0  0  0  0  0  0  0  0  0  0  0
    5.8174   -9.0761    0.0000 O   0  0  0  0  0  0  0  0  0  0  0  0
    3.6740  -11.1386    0.0000 O   0  0  0  0  0  0  0  0  0  0  0  0
    2.9595  -11.5511    0.0000 C   0  0  0  0  0  0  0  0  0  0  0  0
    2.2450   -8.6636    0.0000 O   0  0  0  0  0  0  0  0  0  0  0  0
    1.5306   -9.0761    0.0000 C   0  0  0  0  0  0  0  0  0  0  0  0
    2.2450  -10.3136    0.0000 O   0  0  0  0  0  0  0  0  0  0  0  0
    6.5319   -8.6636    0.0000 C   0  0  0  0  0  0  0  0  0  0  0  0
    8.5159   -8.6636    0.0000 O   0  0  0  0  0  0  0  0  0  0  0  0
    7.7313   -8.4086    0.0000 C   0  0  0  0  0  0  0  0  0  0  0  0
    7.2463   -9.0761    0.0000 C   0  0  1  0  0  0  0  0  0  0  0  0
    7.7313   -9.7435    0.0000 C   0  0  2  0  0  0  0  0  0  0  0  0
    8.5159   -9.4886    0.0000 C   0  0  2  0  0  0  0  0  0  0  0  0
    7.4763  -10.5281    0.0000 O   0  0  0  0  0  0  0  0  0  0  0  0
    6.5319   -9.4886    0.0000 O   0  0  0  0  0  0  0  0  0  0  0  0
    9.1833   -9.9735    0.0000 O   0  0  0  0  0  0  0  0  0  0  0  0
   10.6036   -8.3160    0.0000 O   0  0  0  0  0  0  0  0  0  0  0  0
    9.8913   -8.7323    0.0000 C   0  0  2  0  0  0  0  0  0  0  0  0
    9.8956   -9.5573    0.0000 C   0  0  1  0  0  0  0  0  0  0  0  0
   10.6122   -9.9660    0.0000 C   0  0  2  0  0  0  0  0  0  0  0  0
   11.3245   -9.5498    0.0000 C   0  0  1  0  0  0  0  0  0  0  0  0
   11.3202   -8.7248    0.0000 C   0  0  1  0  0  0  0  0  0  0  0  0
   12.0325   -8.3085    0.0000 C   0  0  0  0  0  0  0  0  0  0  0  0
   12.7491   -8.7173    0.0000 O   0  0  0  0  0  0  0  0  0  0  0  0
    9.1747   -8.3235    0.0000 O   0  0  0  0  0  0  0  0  0  0  0  0
    9.1704   -7.4985    0.0000 C   0  0  0  0  0  0  0  0  0  0  0  0
    9.8826   -7.0823    0.0000 C   0  0  0  0  0  0  0  0  0  0  0  0
    9.8783   -6.2573    0.0000 C   0  0  0  0  0  0  0  0  0  0  0  0
    9.1617   -5.8486    0.0000 C   0  0  0  0  0  0  0  0  0  0  0  0
    8.4494   -6.2648    0.0000 C   0  0  0  0  0  0  0  0  0  0  0  0
    8.4537   -7.0898    0.0000 C   0  0  0  0  0  0  0  0  0  0  0  0
   10.5906   -5.8411    0.0000 O   0  0  0  0  0  0  0  0  0  0  0  0
    9.1574   -5.0236    0.0000 O   0  0  0  0  0  0  0  0  0  0  0  0
   12.0412   -9.9585    0.0000 O   0  0  0  0  0  0  0  0  0  0  0  0
   10.6166  -10.7910    0.0000 O   0  0  0  0  0  0  0  0  0  0  0  0
   10.5863   -5.0161    0.0000 C   0  0  0  0  0  0  0  0  0  0  0  0
  1  2  1  0  0  0  0
  2  3  1  0  0  0  0
  3  4  2  0  0  0  0
  4  5  1  0  0  0  0
  5  6  2  0  0  0  0
  6  7  1  0  0  0  0
  2  7  2  0  0  0  0
  1  8  2  0  0  0  0
  1  9  1  0  0  0  0
 10 11  1  0  0  0  0
  6 10  1  0  0  0  0
 12 13  1  0  0  0  0
  4 12  1  0  0  0  0
  5 14  1  0  0  0  0
 16 17  1  0  0  0  0
 17 18  1  0  0  0  0
 18 19  1  0  0  0  0
 19 20  1  0  0  0  0
 16 20  1  0  0  0  0
 19 21  1  6  0  0  0
 18 22  1  6  0  0  0
 24 25  1  0  0  0  0
 25 26  1  0  0  0  0
 26 27  1  0  0  0  0
 27 28  1  0  0  0  0
 28 29  1  0  0  0  0
 24 29  1  0  0  0  0
 30 31  1  0  0  0  0
 29 30  1  6  0  0  0
 33 34  1  0  0  0  0
 34 35  2  0  0  0  0
 35 36  1  0  0  0  0
 36 37  2  0  0  0  0
 37 38  1  0  0  0  0
 33 38  2  0  0  0  0
 32 33  1  0  0  0  0
 35 39  1  0  0  0  0
 36 40  1  0  0  0  0
 25 32  1  6  0  0  0
 28 41  1  1  0  0  0
 27 42  1  6  0  0  0
 26 23  1  1  0  0  0
 20 23  1  1  0  0  0
 18 15  1  1  0  0  0
  9 15  1  0  0  0  0
 39 43  1  0  0  0  0
M  END
>  <cdx:fragmentId>
16036

$$$$
