38619.cdx
  Mrv1902 05222410202D          

 38 43  0  0  0  0            999 V2000
    8.8930   -5.9225    0.0000 C   0  0  0  0  0  0  0  0  0  0  0  0
    9.6075   -5.5100    0.0000 C   0  0  0  0  0  0  0  0  0  0  0  0
    9.6075   -4.6850    0.0000 C   0  0  0  0  0  0  0  0  0  0  0  0
    8.8930   -4.2725    0.0000 C   0  0  0  0  0  0  0  0  0  0  0  0
    8.1786   -4.6850    0.0000 C   0  0  0  0  0  0  0  0  0  0  0  0
    7.4641   -4.2725    0.0000 C   0  0  0  0  0  0  0  0  0  0  0  0
    6.7496   -4.6850    0.0000 C   0  0  0  0  0  0  0  0  0  0  0  0
    6.0352   -4.2725    0.0000 C   0  0  0  0  0  0  0  0  0  0  0  0
    5.3207   -4.6850    0.0000 C   0  0  0  0  0  0  0  0  0  0  0  0
    5.3207   -5.5100    0.0000 C   0  0  0  0  0  0  0  0  0  0  0  0
    6.0352   -5.9225    0.0000 C   0  0  0  0  0  0  0  0  0  0  0  0
    6.7496   -5.5100    0.0000 C   0  0  0  0  0  0  0  0  0  0  0  0
    7.4641   -5.9225    0.0000 C   0  0  0  0  0  0  0  0  0  0  0  0
    8.1786   -5.5100    0.0000 C   0  0  0  0  0  0  0  0  0  0  0  0
    8.8930   -6.7475    0.0000 C   0  0  0  0  0  0  0  0  0  0  0  0
    9.6075   -7.1600    0.0000 C   0  0  0  0  0  0  0  0  0  0  0  0
    9.6075   -7.9850    0.0000 C   0  0  0  0  0  0  0  0  0  0  0  0
    8.8930   -8.3975    0.0000 C   0  0  0  0  0  0  0  0  0  0  0  0
    8.1786   -7.9850    0.0000 C   0  0  0  0  0  0  0  0  0  0  0  0
    7.4641   -8.3975    0.0000 C   0  0  0  0  0  0  0  0  0  0  0  0
    6.7496   -7.9850    0.0000 C   0  0  0  0  0  0  0  0  0  0  0  0
    6.0352   -8.3975    0.0000 C   0  0  0  0  0  0  0  0  0  0  0  0
    5.3207   -7.9850    0.0000 C   0  0  0  0  0  0  0  0  0  0  0  0
    5.3207   -7.1600    0.0000 C   0  0  0  0  0  0  0  0  0  0  0  0
    6.0352   -6.7475    0.0000 C   0  0  0  0  0  0  0  0  0  0  0  0
    6.7496   -7.1600    0.0000 C   0  0  0  0  0  0  0  0  0  0  0  0
    7.4641   -6.7475    0.0000 C   0  0  0  0  0  0  0  0  0  0  0  0
    8.1786   -7.1600    0.0000 C   0  0  0  0  0  0  0  0  0  0  0  0
    7.4641   -3.4475    0.0000 O   0  0  0  0  0  0  0  0  0  0  0  0
    7.4641   -9.2225    0.0000 O   0  0  0  0  0  0  0  0  0  0  0  0
   10.3220   -5.9225    0.0000 C   0  0  0  0  0  0  0  0  0  0  0  0
   11.0365   -5.5100    0.0000 O   0  0  0  0  0  0  0  0  0  0  0  0
    6.0352   -9.2225    0.0000 O   0  0  0  0  0  0  0  0  0  0  0  0
    8.8930   -9.2225    0.0000 O   0  0  0  0  0  0  0  0  0  0  0  0
    6.0352   -3.4475    0.0000 O   0  0  0  0  0  0  0  0  0  0  0  0
    8.8930   -3.4475    0.0000 O   0  0  0  0  0  0  0  0  0  0  0  0
    4.6087   -6.7490    0.0000 C   0  0  0  0  0  0  0  0  0  0  0  0
    3.8967   -7.1600    0.0000 O   0  0  0  0  0  0  0  0  0  0  0  0
  1  2  1  0  0  0  0
  2  3  2  0  0  0  0
  3  4  1  0  0  0  0
  4  5  2  0  0  0  0
  5  6  1  0  0  0  0
  6  7  1  0  0  0  0
  7  8  1  0  0  0  0
  8  9  2  0  0  0  0
  9 10  1  0  0  0  0
 10 11  2  0  0  0  0
 11 12  1  0  0  0  0
  7 12  2  0  0  0  0
 12 13  1  0  0  0  0
 13 14  1  0  0  0  0
  5 14  1  0  0  0  0
  1 14  2  0  0  0  0
 15 16  1  0  0  0  0
 16 17  2  0  0  0  0
 17 18  1  0  0  0  0
 18 19  2  0  0  0  0
 19 20  1  0  0  0  0
 20 21  1  0  0  0  0
 21 22  1  0  0  0  0
 22 23  2  0  0  0  0
 23 24  1  0  0  0  0
 24 25  2  0  0  0  0
 25 26  1  0  0  0  0
 21 26  2  0  0  0  0
 26 27  1  0  0  0  0
 27 28  1  0  0  0  0
 19 28  1  0  0  0  0
 15 28  2  0  0  0  0
 13 27  1  0  0  0  0
  6 29  2  0  0  0  0
 20 30  2  0  0  0  0
 31 32  1  0  0  0  0
  2 31  1  0  0  0  0
 22 33  1  0  0  0  0
 18 34  1  0  0  0  0
  8 35  1  0  0  0  0
  4 36  1  0  0  0  0
 24 37  1  0  0  0  0
 37 38  1  0  0  0  0
M  END
>  <cdx:fragmentId>
16456

$$$$
