38615.cdx
  Mrv1902 05222410262D          

  6  5  0  0  0  0            999 V2000
    7.0386   -3.8761    0.0000 S   0  0  0  0  0  0  0  0  0  0  0  0
    7.0386   -3.0511    0.0000 O   0  0  0  0  0  0  0  0  0  0  0  0
    7.7531   -4.2886    0.0000 C   0  0  0  0  0  0  0  0  0  0  0  0
    6.3241   -4.2886    0.0000 C   0  0  0  0  0  0  0  0  0  0  0  0
    5.6097   -3.8761    0.0000 C   0  0  0  0  0  0  0  0  0  0  0  0
    4.8952   -4.2886    0.0000 C   0  0  0  0  0  0  0  0  0  0  0  0
  1  2  2  0  0  0  0
  1  3  1  0  0  0  0
  4  5  1  0  0  0  0
  5  6  2  0  0  0  0
  1  4  1  0  0  0  0
M  END
>  <cdx:fragmentId>
16124

$$$$
