38623.cdx
  Mrv1902 05222410192D          

 20 22  0  0  0  0            999 V2000
    7.5773   -7.7530    0.0000 C   0  0  0  0  0  0  0  0  0  0  0  0
    6.8629   -7.3405    0.0000 C   0  0  0  0  0  0  0  0  0  0  0  0
    6.8629   -6.5155    0.0000 C   0  0  0  0  0  0  0  0  0  0  0  0
    7.5773   -6.1030    0.0000 C   0  0  0  0  0  0  0  0  0  0  0  0
    7.5773   -5.2780    0.0000 C   0  0  0  0  0  0  0  0  0  0  0  0
    8.2918   -4.8655    0.0000 C   0  0  0  0  0  0  0  0  0  0  0  0
    9.0063   -5.2780    0.0000 C   0  0  0  0  0  0  0  0  0  0  0  0
    9.0063   -6.1030    0.0000 C   0  0  0  0  0  0  0  0  0  0  0  0
    8.2918   -6.5155    0.0000 C   0  0  0  0  0  0  0  0  0  0  0  0
    8.2918   -7.3405    0.0000 O   0  0  0  0  0  0  0  0  0  0  0  0
    6.1484   -6.1030    0.0000 C   0  0  0  0  0  0  0  0  0  0  0  0
    5.4339   -6.5155    0.0000 C   0  0  0  0  0  0  0  0  0  0  0  0
    5.4339   -7.3405    0.0000 C   0  0  0  0  0  0  0  0  0  0  0  0
    6.1484   -7.7530    0.0000 C   0  0  0  0  0  0  0  0  0  0  0  0
    7.5773   -8.5780    0.0000 O   0  0  0  0  0  0  0  0  0  0  0  0
    6.8629   -4.8655    0.0000 C   0  0  0  0  0  0  0  0  0  0  0  0
    4.7194   -6.1030    0.0000 O   0  0  0  0  0  0  0  0  0  0  0  0
    4.0050   -6.5155    0.0000 C   0  0  0  0  0  0  0  0  0  0  0  0
    6.1484   -8.5780    0.0000 O   0  0  0  0  0  0  0  0  0  0  0  0
    9.7207   -4.8655    0.0000 O   0  0  0  0  0  0  0  0  0  0  0  0
  1  2  1  0  0  0  0
  2  3  1  0  0  0  0
  3  4  1  0  0  0  0
  4  5  1  0  0  0  0
  5  6  2  0  0  0  0
  6  7  1  0  0  0  0
  7  8  2  0  0  0  0
  8  9  1  0  0  0  0
  4  9  2  0  0  0  0
  9 10  1  0  0  0  0
  1 10  1  0  0  0  0
 11 12  1  0  0  0  0
 12 13  2  0  0  0  0
 13 14  1  0  0  0  0
  2 14  2  0  0  0  0
  3 11  2  0  0  0  0
  1 15  2  0  0  0  0
  5 16  1  0  0  0  0
 17 18  1  0  0  0  0
 12 17  1  0  0  0  0
 14 19  1  0  0  0  0
  7 20  1  0  0  0  0
M  END
>  <cdx:fragmentId>
16874

$$$$
