38620.cdx
  Mrv1902 05222410182D          

 40 43  0  0  0  0            999 V2000
    1.8560   -9.2210    0.0000 O   0  0  0  0  0  0  0  0  0  0  0  0
    3.2850   -7.5710    0.0000 C   0  0  0  0  0  0  0  0  0  0  0  0
    2.5705   -7.9835    0.0000 C   0  0  0  0  0  0  0  0  0  0  0  0
    2.5705   -8.8085    0.0000 C   0  0  0  0  0  0  0  0  0  0  0  0
    3.2850   -9.2210    0.0000 C   0  0  0  0  0  0  0  0  0  0  0  0
    6.8872   -8.8544    0.0000 O   0  0  0  0  0  0  0  0  0  0  0  0
    8.3162  -11.3294    0.0000 C   0  0  0  0  0  0  0  0  0  0  0  0
    9.7451  -11.3294    0.0000 O   0  0  0  0  0  0  0  0  0  0  0  0
   12.6030   -8.8544    0.0000 C   0  0  0  0  0  0  0  0  0  0  0  0
   11.8885   -9.2669    0.0000 C   0  0  0  0  0  0  0  0  0  0  0  0
   11.1741   -8.8544    0.0000 C   0  0  0  0  0  0  0  0  0  0  0  0
    9.7451   -8.8544    0.0000 O   0  0  0  0  0  0  0  0  0  0  0  0
    9.0307   -9.2669    0.0000 C   0  0  0  0  0  0  0  0  0  0  0  0
    8.3162   -8.8544    0.0000 C   0  0  0  0  0  0  0  0  0  0  0  0
    7.6017   -9.2669    0.0000 C   0  0  0  0  0  0  0  0  0  0  0  0
    7.6017  -10.0919    0.0000 C   0  0  0  0  0  0  0  0  0  0  0  0
    8.3162  -10.5044    0.0000 C   0  0  0  0  0  0  0  0  0  0  0  0
    9.0307  -10.0919    0.0000 C   0  0  0  0  0  0  0  0  0  0  0  0
    9.7451  -10.5044    0.0000 C   0  0  0  0  0  0  0  0  0  0  0  0
   10.4596  -10.0919    0.0000 C   0  0  0  0  0  0  0  0  0  0  0  0
   10.4596   -9.2669    0.0000 C   0  0  0  0  0  0  0  0  0  0  0  0
    3.9994   -8.8085    0.0000 C   0  0  0  0  0  0  0  0  0  0  0  0
    3.9994   -7.9835    0.0000 C   0  0  0  0  0  0  0  0  0  0  0  0
    6.1429   -6.7460    0.0000 O   0  0  0  0  0  0  0  0  0  0  0  0
    4.7139   -7.5710    0.0000 C   0  0  0  0  0  0  0  0  0  0  0  0
    5.4284   -7.9835    0.0000 C   0  0  0  0  0  0  0  0  0  0  0  0
    6.1429   -7.5710    0.0000 C   0  0  0  0  0  0  0  0  0  0  0  0
    6.1728   -9.2669    0.0000 C   0  0  0  0  0  0  0  0  0  0  0  0
    9.0307   -8.4419    0.0000 H   0  0  0  0  0  0  0  0  0  0  0  0
    6.8872   -6.3794    0.0000 O   0  0  0  0  0  0  0  0  0  0  0  0
    8.3162   -5.5544    0.0000 O   0  0  0  0  0  0  0  0  0  0  0  0
    9.7451   -5.5544    0.0000 O   0  0  0  0  0  0  0  0  0  0  0  0
    9.7451   -6.3794    0.0000 C   0  0  0  0  0  0  0  0  0  0  0  0
    9.0307   -6.7919    0.0000 C   0  0  2  0  0  0  0  0  0  0  0  0
    8.3162   -6.3794    0.0000 C   0  0  2  0  0  0  0  0  0  0  0  0
    7.6017   -6.7919    0.0000 C   0  0  1  0  0  0  0  0  0  0  0  0
    7.6017   -7.6169    0.0000 C   0  0  2  0  0  0  0  0  0  0  0  0
    8.3162   -8.0294    0.0000 C   0  0  1  0  0  0  0  0  0  0  0  0
    9.0307   -7.6169    0.0000 O   0  0  0  0  0  0  0  0  0  0  0  0
    6.8872   -8.0294    0.0000 O   0  0  0  0  0  0  0  0  0  0  0  0
 27 40  1  0  0  0  0
 25 23  1  0  0  0  0
  4  1  1  0  0  0  0
 23  2  2  0  0  0  0
  3  2  1  0  0  0  0
  4  3  2  0  0  0  0
  5  4  1  0  0  0  0
 38 14  1  0  0  0  0
 15  6  1  0  0  0  0
 17  7  1  0  0  0  0
 19  8  2  0  0  0  0
 21 11  1  0  0  0  0
 10  9  1  0  0  0  0
 11 10  2  0  0  0  0
 21 12  1  0  0  0  0
 13 12  1  0  0  0  0
 18 13  2  0  0  0  0
 14 13  1  0  0  0  0
 15 14  2  0  0  0  0
 16 15  1  0  0  0  0
 17 16  2  0  0  0  0
 18 17  1  0  0  0  0
 19 18  1  0  0  0  0
 20 19  1  0  0  0  0
 21 20  2  0  0  0  0
 22  5  2  0  0  0  0
 23 22  1  0  0  0  0
 27 24  2  0  0  0  0
 26 25  2  0  0  0  0
 27 26  1  0  0  0  0
 38 29  1  6  0  0  0
  6 28  1  0  0  0  0
 37 40  1  6  0  0  0
 36 30  1  1  0  0  0
 35 31  1  6  0  0  0
 34 33  1  1  0  0  0
 33 32  1  0  0  0  0
 39 34  1  0  0  0  0
 35 34  1  0  0  0  0
 36 35  1  0  0  0  0
 37 36  1  0  0  0  0
 38 37  1  0  0  0  0
 39 38  1  0  0  0  0
M  END
>  <cdx:fragmentId>
41

$$$$
