38625.cdx
  Mrv1902 05222410202D          

 37 40  0  0  0  0            999 V2000
    4.1534   -6.6533    0.0000 C   0  0  0  0  0  0  0  0  0  0  0  0
    4.8679   -6.2408    0.0000 O   0  0  0  0  0  0  0  0  0  0  0  0
    5.5823   -5.0033    0.0000 C   0  0  0  0  0  0  0  0  0  0  0  0
    6.2968   -5.4158    0.0000 O   0  0  0  0  0  0  0  0  0  0  0  0
    9.1547   -5.4158    0.0000 C   0  0  0  0  0  0  0  0  0  0  0  0
    9.8692   -5.0033    0.0000 C   0  0  0  0  0  0  0  0  0  0  0  0
   10.5836   -5.4158    0.0000 C   0  0  0  0  0  0  0  0  0  0  0  0
   10.5836   -6.2408    0.0000 C   0  0  0  0  0  0  0  0  0  0  0  0
    9.8692   -6.6533    0.0000 C   0  0  0  0  0  0  0  0  0  0  0  0
    9.1547   -6.2408    0.0000 C   0  0  0  0  0  0  0  0  0  0  0  0
    6.2968  -10.3658    0.0000 O   0  0  0  0  0  0  0  0  0  0  0  0
    4.8679  -11.1908    0.0000 O   0  0  0  0  0  0  0  0  0  0  0  0
    3.4389  -10.3658    0.0000 O   0  0  0  0  0  0  0  0  0  0  0  0
    2.7245   -9.1283    0.0000 O   0  0  0  0  0  0  0  0  0  0  0  0
    3.4389   -8.7158    0.0000 C   0  0  0  0  0  0  0  0  0  0  0  0
    4.1534   -9.1283    0.0000 C   0  0  2  0  0  0  0  0  0  0  0  0
    4.1534   -9.9533    0.0000 C   0  0  2  0  0  0  0  0  0  0  0  0
    4.8679  -10.3658    0.0000 C   0  0  1  0  0  0  0  0  0  0  0  0
    5.5823   -9.9533    0.0000 C   0  0  2  0  0  0  0  0  0  0  0  0
    5.5823   -9.1283    0.0000 C   0  0  1  0  0  0  0  0  0  0  0  0
    4.8679   -8.7158    0.0000 O   0  0  0  0  0  0  0  0  0  0  0  0
    6.2968   -8.7158    0.0000 O   0  0  0  0  0  0  0  0  0  0  0  0
    7.7258   -8.7158    0.0000 O   0  0  0  0  0  0  0  0  0  0  0  0
    7.7258   -6.2408    0.0000 O   0  0  0  0  0  0  0  0  0  0  0  0
    7.0113   -6.6533    0.0000 C   0  0  0  0  0  0  0  0  0  0  0  0
    6.2968   -6.2408    0.0000 C   0  0  0  0  0  0  0  0  0  0  0  0
    5.5823   -6.6533    0.0000 C   0  0  0  0  0  0  0  0  0  0  0  0
    5.5823   -7.4783    0.0000 C   0  0  0  0  0  0  0  0  0  0  0  0
    6.2968   -7.8908    0.0000 C   0  0  0  0  0  0  0  0  0  0  0  0
    7.0113   -7.4783    0.0000 C   0  0  0  0  0  0  0  0  0  0  0  0
    7.7258   -7.8908    0.0000 C   0  0  0  0  0  0  0  0  0  0  0  0
    8.4402   -7.4783    0.0000 C   0  0  0  0  0  0  0  0  0  0  0  0
    8.4402   -6.6533    0.0000 C   0  0  0  0  0  0  0  0  0  0  0  0
    9.8692   -7.4783    0.0000 O   0  0  0  0  0  0  0  0  0  0  0  0
   10.5836   -7.8908    0.0000 C   0  0  0  0  0  0  0  0  0  0  0  0
   11.2981   -6.6533    0.0000 O   0  0  0  0  0  0  0  0  0  0  0  0
   12.0126   -6.2408    0.0000 C   0  0  0  0  0  0  0  0  0  0  0  0
 27  2  1  0  0  0  0
  2  1  1  0  0  0  0
 26  4  1  0  0  0  0
  4  3  1  0  0  0  0
 33 10  1  0  0  0  0
 10  5  2  0  0  0  0
  6  5  1  0  0  0  0
  7  6  2  0  0  0  0
  8  7  1  0  0  0  0
  9  8  2  0  0  0  0
 10  9  1  0  0  0  0
 29 22  1  0  0  0  0
 20 22  1  1  0  0  0
 19 11  1  6  0  0  0
 18 12  1  1  0  0  0
 17 13  1  6  0  0  0
 16 15  1  1  0  0  0
 15 14  1  0  0  0  0
 21 16  1  0  0  0  0
 17 16  1  0  0  0  0
 18 17  1  0  0  0  0
 19 18  1  0  0  0  0
 20 19  1  0  0  0  0
 21 20  1  0  0  0  0
 31 23  2  0  0  0  0
 33 24  1  0  0  0  0
 25 24  1  0  0  0  0
 30 25  2  0  0  0  0
 26 25  1  0  0  0  0
 27 26  2  0  0  0  0
 28 27  1  0  0  0  0
 29 28  2  0  0  0  0
 30 29  1  0  0  0  0
 31 30  1  0  0  0  0
 32 31  1  0  0  0  0
 33 32  2  0  0  0  0
  9 34  1  0  0  0  0
 34 35  1  0  0  0  0
  8 36  1  0  0  0  0
 36 37  1  0  0  0  0
M  END
>  <cdx:fragmentId>
29

$$$$
