38634.cdx
  Mrv1902 05222410182D          

 42 46  0  0  0  0            999 V2000
    6.4743   -6.8613    0.0000 C   0  0  0  0  0  0  0  0  0  0  0  0
    6.4743   -7.6863    0.0000 C   0  0  0  0  0  0  0  0  0  0  0  0
    7.1888   -8.0987    0.0000 C   0  0  0  0  0  0  0  0  0  0  0  0
    7.9032   -7.6863    0.0000 C   0  0  0  0  0  0  0  0  0  0  0  0
    7.9032   -6.8613    0.0000 C   0  0  0  0  0  0  0  0  0  0  0  0
    7.1888   -6.4487    0.0000 C   0  0  0  0  0  0  0  0  0  0  0  0
    8.6177   -8.0987    0.0000 C   0  0  0  0  0  0  0  0  0  0  0  0
    9.3322   -7.6863    0.0000 C   0  0  0  0  0  0  0  0  0  0  0  0
    9.3322   -6.8613    0.0000 C   0  0  0  0  0  0  0  0  0  0  0  0
    8.6177   -6.4487    0.0000 O   0  0  0  0  0  0  0  0  0  0  0  0
   10.7611   -6.8613    0.0000 C   0  0  0  0  0  0  0  0  0  0  0  0
   10.0467   -6.4487    0.0000 C   0  0  0  0  0  0  0  0  0  0  0  0
   11.4756   -6.4487    0.0000 C   0  0  0  0  0  0  0  0  0  0  0  0
   11.4756   -5.6238    0.0000 C   0  0  0  0  0  0  0  0  0  0  0  0
   10.7611   -5.2113    0.0000 C   0  0  0  0  0  0  0  0  0  0  0  0
   10.0467   -5.6238    0.0000 C   0  0  0  0  0  0  0  0  0  0  0  0
    5.7598   -6.4487    0.0000 O   0  0  0  0  0  0  0  0  0  0  0  0
    7.1888   -8.9238    0.0000 O   0  0  0  0  0  0  0  0  0  0  0  0
    8.6177   -8.9238    0.0000 O   0  0  0  0  0  0  0  0  0  0  0  0
   12.1901   -5.2113    0.0000 O   0  0  0  0  0  0  0  0  0  0  0  0
    5.7598   -5.6238    0.0000 C   0  0  2  0  0  0  0  0  0  0  0  0
    6.4743   -5.2112    0.0000 O   0  0  0  0  0  0  0  0  0  0  0  0
    6.4743   -4.3862    0.0000 C   0  0  1  0  0  0  0  0  0  0  0  0
    5.7598   -3.9737    0.0000 C   0  0  2  0  0  0  0  0  0  0  0  0
    5.0454   -4.3862    0.0000 C   0  0  1  0  0  0  0  0  0  0  0  0
    5.0454   -5.2113    0.0000 C   0  0  1  0  0  0  0  0  0  0  0  0
    7.1888   -3.9737    0.0000 C   0  0  0  0  0  0  0  0  0  0  0  0
    4.3309   -3.9738    0.0000 O   0  0  0  0  0  0  0  0  0  0  0  0
    5.7598   -3.1487    0.0000 O   0  0  0  0  0  0  0  0  0  0  0  0
    4.3309   -5.6238    0.0000 O   0  0  0  0  0  0  0  0  0  0  0  0
    7.1888   -3.1488    0.0000 O   0  0  0  0  0  0  0  0  0  0  0  0
    6.4754   -9.3362    0.0000 C   0  0  2  0  0  0  0  0  0  0  0  0
    5.7609   -8.9238    0.0000 O   0  0  0  0  0  0  0  0  0  0  0  0
    5.0464   -9.3362    0.0000 C   0  0  1  0  0  0  0  0  0  0  0  0
    5.0464  -10.1612    0.0000 C   0  0  2  0  0  0  0  0  0  0  0  0
    5.7609  -10.5737    0.0000 C   0  0  1  0  0  0  0  0  0  0  0  0
    6.4754  -10.1612    0.0000 C   0  0  1  0  0  0  0  0  0  0  0  0
    4.3319   -8.9238    0.0000 C   0  0  0  0  0  0  0  0  0  0  0  0
    5.7609  -11.3987    0.0000 O   0  0  0  0  0  0  0  0  0  0  0  0
    4.3319  -10.5737    0.0000 O   0  0  0  0  0  0  0  0  0  0  0  0
    7.1898  -10.5737    0.0000 O   0  0  0  0  0  0  0  0  0  0  0  0
    3.6175   -9.3362    0.0000 O   0  0  0  0  0  0  0  0  0  0  0  0
  1  2  2  0  0  0  0
  2  3  1  0  0  0  0
  3  4  2  0  0  0  0
  4  5  1  0  0  0  0
  5  6  2  0  0  0  0
  6  1  1  0  0  0  0
  4  7  1  0  0  0  0
  7  8  1  0  0  0  0
  8  9  2  0  0  0  0
  9 10  1  0  0  0  0
 10  5  1  0  0  0  0
 11 12  2  0  0  0  0
 12  9  1  0  0  0  0
 11 13  1  0  0  0  0
 13 14  2  0  0  0  0
 14 15  1  0  0  0  0
 15 16  2  0  0  0  0
 16 12  1  0  0  0  0
  1 17  1  0  0  0  0
  3 18  1  0  0  0  0
  7 19  2  0  0  0  0
 14 20  1  0  0  0  0
 21 17  1  1  0  0  0
 21 22  1  0  0  0  0
 22 23  1  0  0  0  0
 23 24  1  0  0  0  0
 24 25  1  0  0  0  0
 25 26  1  0  0  0  0
 26 21  1  0  0  0  0
 23 27  1  1  0  0  0
 25 28  1  1  0  0  0
 24 29  1  6  0  0  0
 26 30  1  6  0  0  0
 27 31  1  0  0  0  0
 32 33  1  0  0  0  0
 33 34  1  0  0  0  0
 34 35  1  0  0  0  0
 35 36  1  0  0  0  0
 36 37  1  0  0  0  0
 37 32  1  0  0  0  0
 34 38  1  1  0  0  0
 36 39  1  1  0  0  0
 35 40  1  6  0  0  0
 37 41  1  6  0  0  0
 38 42  1  0  0  0  0
 32 18  1  1  0  0  0
M  END
>  <cdx:fragmentId>
5

$$$$
