38635.cdx
  Mrv1902 05222410182D          

 36 39  0  0  0  0            999 V2000
    7.4162   -8.2775    0.0000 C   0  0  0  0  0  0  0  0  0  0  0  0
    7.4162   -9.1025    0.0000 C   0  0  0  0  0  0  0  0  0  0  0  0
    8.1306   -9.5150    0.0000 C   0  0  0  0  0  0  0  0  0  0  0  0
    8.8451   -9.1025    0.0000 C   0  0  0  0  0  0  0  0  0  0  0  0
    8.8451   -8.2775    0.0000 C   0  0  0  0  0  0  0  0  0  0  0  0
    8.1306   -7.8650    0.0000 C   0  0  0  0  0  0  0  0  0  0  0  0
    9.5596   -9.5150    0.0000 C   0  0  0  0  0  0  0  0  0  0  0  0
   10.2741   -9.1025    0.0000 C   0  0  0  0  0  0  0  0  0  0  0  0
   10.2741   -8.2775    0.0000 C   0  0  0  0  0  0  0  0  0  0  0  0
    9.5596   -7.8650    0.0000 O   0  0  0  0  0  0  0  0  0  0  0  0
   10.9885   -7.8650    0.0000 C   0  0  0  0  0  0  0  0  0  0  0  0
   11.7030   -8.2775    0.0000 C   0  0  0  0  0  0  0  0  0  0  0  0
   12.4175   -7.8650    0.0000 C   0  0  0  0  0  0  0  0  0  0  0  0
   12.4175   -7.0400    0.0000 C   0  0  0  0  0  0  0  0  0  0  0  0
   11.7030   -6.6275    0.0000 C   0  0  0  0  0  0  0  0  0  0  0  0
   10.9885   -7.0400    0.0000 C   0  0  0  0  0  0  0  0  0  0  0  0
   13.1319   -6.6275    0.0000 O   0  0  0  0  0  0  0  0  0  0  0  0
    9.5596  -10.3400    0.0000 O   0  0  0  0  0  0  0  0  0  0  0  0
    8.1306  -10.3400    0.0000 O   0  0  0  0  0  0  0  0  0  0  0  0
    6.7017   -7.8650    0.0000 O   0  0  0  0  0  0  0  0  0  0  0  0
    5.9872   -8.2775    0.0000 C   0  0  2  0  0  0  0  0  0  0  0  0
    5.2728   -7.8650    0.0000 O   0  0  0  0  0  0  0  0  0  0  0  0
    4.5583   -8.2775    0.0000 C   0  0  1  0  0  0  0  0  0  0  0  0
    4.5583   -9.1025    0.0000 C   0  0  2  0  0  0  0  0  0  0  0  0
    5.2728   -9.5150    0.0000 C   0  0  1  0  0  0  0  0  0  0  0  0
    5.9872   -9.1025    0.0000 C   0  0  1  0  0  0  0  0  0  0  0  0
    3.8438   -7.8650    0.0000 C   0  0  0  0  0  0  0  0  0  0  0  0
    5.2728  -10.3400    0.0000 O   0  0  0  0  0  0  0  0  0  0  0  0
    3.8438   -9.5150    0.0000 O   0  0  0  0  0  0  0  0  0  0  0  0
    6.7017   -9.5150    0.0000 O   0  0  0  0  0  0  0  0  0  0  0  0
    3.1294   -8.2775    0.0000 O   0  0  0  0  0  0  0  0  0  0  0  0
    3.8438   -7.0400    0.0000 O   0  0  0  0  0  0  0  0  0  0  0  0
    2.4149   -7.8650    0.0000 C   0  0  0  0  0  0  0  0  0  0  0  0
    1.7004   -8.2775    0.0000 C   0  0  0  0  0  0  0  0  0  0  0  0
    0.9859   -7.8650    0.0000 C   0  0  0  0  0  0  0  0  0  0  0  0
    0.2715   -8.2775    0.0000 C   0  0  0  0  0  0  0  0  0  0  0  0
  1  2  2  0  0  0  0
  2  3  1  0  0  0  0
  3  4  2  0  0  0  0
  4  5  1  0  0  0  0
  5  6  2  0  0  0  0
  6  1  1  0  0  0  0
  4  7  1  0  0  0  0
  7  8  1  0  0  0  0
  8  9  2  0  0  0  0
  9 10  1  0  0  0  0
 10  5  1  0  0  0  0
  9 11  1  0  0  0  0
 11 12  2  0  0  0  0
 12 13  1  0  0  0  0
 13 14  2  0  0  0  0
 14 15  1  0  0  0  0
 15 16  2  0  0  0  0
 16 11  1  0  0  0  0
 14 17  1  0  0  0  0
  7 18  2  0  0  0  0
  3 19  1  0  0  0  0
  1 20  1  0  0  0  0
 21 20  1  1  0  0  0
 21 22  1  0  0  0  0
 22 23  1  0  0  0  0
 23 24  1  0  0  0  0
 24 25  1  0  0  0  0
 25 26  1  0  0  0  0
 26 21  1  0  0  0  0
 23 27  1  1  0  0  0
 25 28  1  1  0  0  0
 24 29  1  6  0  0  0
 26 30  1  6  0  0  0
 27 31  1  0  0  0  0
 27 32  2  0  0  0  0
 31 33  1  0  0  0  0
 33 34  1  0  0  0  0
 34 35  1  0  0  0  0
 35 36  1  0  0  0  0
M  END
>  <cdx:fragmentId>
5

$$$$
