1206.cdx
  Mrv1902 05222410192D          

 31 34  0  0  0  0            999 V2000
    5.8583   -4.9987    0.0000 C   0  0  0  0  0  0  0  0  0  0  0  0
    5.8583   -5.8237    0.0000 C   0  0  0  0  0  0  0  0  0  0  0  0
    5.1438   -6.2362    0.0000 C   0  0  0  0  0  0  0  0  0  0  0  0
    4.4293   -5.8237    0.0000 C   0  0  0  0  0  0  0  0  0  0  0  0
    3.7148   -6.2362    0.0000 C   0  0  0  0  0  0  0  0  0  0  0  0
    3.0004   -5.8237    0.0000 C   0  0  0  0  0  0  0  0  0  0  0  0
    3.0004   -4.9987    0.0000 C   0  0  0  0  0  0  0  0  0  0  0  0
    3.7148   -4.5862    0.0000 C   0  0  0  0  0  0  0  0  0  0  0  0
    4.4293   -4.9987    0.0000 C   0  0  0  0  0  0  0  0  0  0  0  0
    5.1438   -4.5862    0.0000 O   0  0  0  0  0  0  0  0  0  0  0  0
    5.1438   -7.0612    0.0000 O   0  0  0  0  0  0  0  0  0  0  0  0
    6.5727   -6.2362    0.0000 O   0  0  0  0  0  0  0  0  0  0  0  0
    5.8583   -7.4737    0.0000 O   0  0  0  0  0  0  0  0  0  0  0  0
    6.5727   -7.0612    0.0000 C   0  0  2  0  0  0  0  0  0  0  0  0
    7.2872   -7.4737    0.0000 C   0  0  0  0  0  0  0  0  0  0  0  0
    7.2872   -8.2987    0.0000 C   0  0  2  0  0  0  0  0  0  0  0  0
    6.5727   -8.7112    0.0000 C   0  0  1  0  0  0  0  0  0  0  0  0
    5.8583   -8.2987    0.0000 C   0  0  0  0  0  0  0  0  0  0  0  0
    5.1438   -8.7112    0.0000 C   0  0  0  0  0  0  0  0  0  0  0  0
    4.4293   -8.2987    0.0000 O   0  0  0  0  0  0  0  0  0  0  0  0
    6.5727   -9.5362    0.0000 O   0  0  0  0  0  0  0  0  0  0  0  0
    8.0017   -8.7112    0.0000 O   0  0  0  0  0  0  0  0  0  0  0  0
    8.0017   -7.0612    0.0000 O   0  0  0  0  0  0  0  0  0  0  0  0
    6.5727   -4.5862    0.0000 C   0  0  0  0  0  0  0  0  0  0  0  0
    6.5727   -3.7612    0.0000 C   0  0  0  0  0  0  0  0  0  0  0  0
    7.2872   -3.3487    0.0000 C   0  0  0  0  0  0  0  0  0  0  0  0
    8.0017   -3.7612    0.0000 C   0  0  0  0  0  0  0  0  0  0  0  0
    8.0017   -4.5862    0.0000 C   0  0  0  0  0  0  0  0  0  0  0  0
    7.2872   -4.9987    0.0000 C   0  0  0  0  0  0  0  0  0  0  0  0
    8.7161   -3.3487    0.0000 O   0  0  0  0  0  0  0  0  0  0  0  0
    3.7148   -7.0612    0.0000 O   0  0  0  0  0  0  0  0  0  0  0  0
  1  2  2  0  0  0  0
  2  3  1  0  0  0  0
  3  4  1  0  0  0  0
  4  5  1  0  0  0  0
  5  6  2  0  0  0  0
  6  7  1  0  0  0  0
  7  8  2  0  0  0  0
  8  9  1  0  0  0  0
  4  9  2  0  0  0  0
  9 10  1  0  0  0  0
  1 10  1  0  0  0  0
  3 11  2  0  0  0  0
 13 14  1  0  0  0  0
 14 15  1  0  0  0  0
 15 16  1  0  0  0  0
 16 17  1  0  0  0  0
 17 18  1  0  0  0  0
 13 18  1  0  0  0  0
 19 20  1  0  0  0  0
 18 19  1  0  0  0  0
 17 21  1  6  0  0  0
 16 22  1  1  0  0  0
 15 23  1  0  0  0  0
 14 12  1  1  0  0  0
  2 12  1  0  0  0  0
 24 25  1  0  0  0  0
 25 26  2  0  0  0  0
 26 27  1  0  0  0  0
 27 28  2  0  0  0  0
 28 29  1  0  0  0  0
 24 29  2  0  0  0  0
 27 30  1  0  0  0  0
  1 24  1  0  0  0  0
  5 31  1  0  0  0  0
M  END
>  <cdx:fragmentId>
16103

$$$$
