38642.cdx
  Mrv1902 05222410202D          

 66 74  0  0  0  0            999 V2000
    5.8406  -13.2623    0.0000 O   0  0  0  0  0  0  0  0  0  0  0  0
    5.8560  -14.0872    0.0000 C   0  0  2  0  0  0  0  0  0  0  0  0
    5.1494  -14.5129    0.0000 C   0  0  1  0  0  0  0  0  0  0  0  0
    4.4273  -14.1138    0.0000 C   0  0  2  0  0  0  0  0  0  0  0  0
    4.4120  -13.2889    0.0000 C   0  0  1  0  0  0  0  0  0  0  0  0
    5.1186  -12.8632    0.0000 C   0  0  1  0  0  0  0  0  0  0  0  0
    5.1648  -15.3378    0.0000 O   0  0  0  0  0  0  0  0  0  0  0  0
   14.3904  -10.6943    0.0000 C   0  0  1  0  0  0  0  0  0  0  0  0
   15.1048  -10.2818    0.0000 C   0  0  2  0  0  0  0  0  0  0  0  0
   15.8894  -10.5367    0.0000 C   0  0  0  0  0  0  0  0  0  0  0  0
   16.3744   -9.8693    0.0000 C   0  0  2  0  0  0  0  0  0  0  0  0
   17.1590   -9.6143    0.0000 O   0  0  0  0  0  0  0  0  0  0  0  0
   17.1590   -8.7893    0.0000 C   0  0  2  0  0  0  0  0  0  0  0  0
   16.3744   -8.5344    0.0000 C   0  0  2  0  0  0  0  0  0  0  0  0
   15.8894   -9.2018    0.0000 C   0  0  2  0  0  0  0  0  0  0  0  0
   15.1048   -9.4568    0.0000 C   0  0  1  0  0  0  0  0  0  0  0  0
   14.3904   -9.0443    0.0000 C   0  0  0  0  0  0  0  0  0  0  0  0
   13.6759   -9.4568    0.0000 C   0  0  0  0  0  0  0  0  0  0  0  0
   13.6759  -10.2818    0.0000 C   0  0  2  0  0  0  0  0  0  0  0  0
   12.9614  -10.6943    0.0000 C   0  0  1  0  0  0  0  0  0  0  0  0
   12.2469  -10.2818    0.0000 C   0  0  0  0  0  0  0  0  0  0  0  0
   11.5325  -10.6943    0.0000 C   0  0  0  0  0  0  0  0  0  0  0  0
   11.5325  -11.5193    0.0000 C   0  0  1  0  0  0  0  0  0  0  0  0
   12.2469  -11.9318    0.0000 C   0  0  0  0  0  0  0  0  0  0  0  0
   12.9614  -11.5193    0.0000 C   0  0  1  0  0  0  0  0  0  0  0  0
   13.6759  -11.9318    0.0000 C   0  0  0  0  0  0  0  0  0  0  0  0
   14.3904  -11.5193    0.0000 C   0  0  0  0  0  0  0  0  0  0  0  0
   17.0728   -7.9688    0.0000 O   0  0  0  0  0  0  0  0  0  0  0  0
   17.9127   -9.1249    0.0000 C   0  0  0  0  0  0  0  0  0  0  0  0
   18.5801   -8.6399    0.0000 C   0  0  0  0  0  0  0  0  0  0  0  0
   18.4939   -7.8195    0.0000 C   0  0  1  0  0  0  0  0  0  0  0  0
   17.7402   -7.4839    0.0000 C   0  0  0  0  0  0  0  0  0  0  0  0
   12.9614   -9.8693    0.0000 C   0  0  0  0  0  0  0  0  0  0  0  0
   15.1048   -8.6318    0.0000 C   0  0  0  0  0  0  0  0  0  0  0  0
   16.1194   -7.7498    0.0000 C   0  0  0  0  0  0  0  0  0  0  0  0
   19.1613   -7.3345    0.0000 C   0  0  0  0  0  0  0  0  0  0  0  0
    3.7207  -14.5395    0.0000 O   0  0  0  0  0  0  0  0  0  0  0  0
    3.6899  -12.8898    0.0000 O   0  0  0  0  0  0  0  0  0  0  0  0
    5.1032  -12.0383    0.0000 C   0  0  0  0  0  0  0  0  0  0  0  0
   14.3904   -9.8693    0.0000 H   0  0  0  0  0  0  0  0  0  0  0  0
   15.1048  -11.1068    0.0000 H   0  0  0  0  0  0  0  0  0  0  0  0
   16.8593  -10.5367    0.0000 H   0  0  0  0  0  0  0  0  0  0  0  0
   15.5278   -8.4603    0.0000 H   0  0  0  0  0  0  0  0  0  0  0  0
   13.6759  -11.1068    0.0000 H   0  0  0  0  0  0  0  0  0  0  0  0
   12.9614  -12.3443    0.0000 H   0  0  0  0  0  0  0  0  0  0  0  0
    4.3812  -11.6392    0.0000 O   0  0  0  0  0  0  0  0  0  0  0  0
    6.5781  -14.4863    0.0000 O   0  0  0  0  0  0  0  0  0  0  0  0
    7.9606  -11.9850    0.0000 O   0  0  0  0  0  0  0  0  0  0  0  0
    7.9298  -10.3353    0.0000 O   0  0  0  0  0  0  0  0  0  0  0  0
    9.3432   -9.4838    0.0000 C   0  0  0  0  0  0  0  0  0  0  0  0
   10.8180  -11.9318    0.0000 O   0  0  0  0  0  0  0  0  0  0  0  0
    9.3585  -10.3087    0.0000 C   0  0  1  0  0  0  0  0  0  0  0  0
    8.6519  -10.7344    0.0000 C   0  0  2  0  0  0  0  0  0  0  0  0
    8.6673  -11.5593    0.0000 C   0  0  2  0  0  0  0  0  0  0  0  0
    9.3893  -11.9584    0.0000 C   0  0  2  0  0  0  0  0  0  0  0  0
   10.0960  -11.5326    0.0000 C   0  0  1  0  0  0  0  0  0  0  0  0
   10.0806  -10.7078    0.0000 O   0  0  0  0  0  0  0  0  0  0  0  0
    9.4047  -12.7833    0.0000 O   0  0  0  0  0  0  0  0  0  0  0  0
    8.0221  -15.2845    0.0000 O   0  0  0  0  0  0  0  0  0  0  0  0
    9.4355  -14.4330    0.0000 O   0  0  0  0  0  0  0  0  0  0  0  0
    8.6980  -13.2090    0.0000 C   0  0  1  0  0  0  0  0  0  0  0  0
    8.7134  -14.0339    0.0000 C   0  0  1  0  0  0  0  0  0  0  0  0
    8.0068  -14.4596    0.0000 C   0  0  2  0  0  0  0  0  0  0  0  0
    7.2847  -14.0605    0.0000 C   0  0  2  0  0  0  0  0  0  0  0  0
    7.2693  -13.2356    0.0000 C   0  0  0  0  0  0  0  0  0  0  0  0
    7.9760  -12.8099    0.0000 O   0  0  0  0  0  0  0  0  0  0  0  0
 64 47  1  1  0  0  0
 61 58  1  1  0  0  0
 55 58  1  6  0  0  0
 54 48  1  6  0  0  0
 53 49  1  6  0  0  0
 52 50  1  6  0  0  0
 56 51  1  1  0  0  0
 57 52  1  0  0  0  0
 53 52  1  0  0  0  0
 54 53  1  0  0  0  0
 55 54  1  0  0  0  0
 56 55  1  0  0  0  0
 57 56  1  0  0  0  0
 63 59  1  1  0  0  0
 62 60  1  6  0  0  0
 66 61  1  0  0  0  0
 62 61  1  0  0  0  0
 63 62  1  0  0  0  0
 64 63  1  0  0  0  0
 65 64  1  0  0  0  0
 66 65  1  0  0  0  0
  1  2  1  0  0  0  0
  2  3  1  0  0  0  0
  3  4  1  0  0  0  0
  4  5  1  0  0  0  0
  8  9  1  0  0  0  0
  9 10  1  0  0  0  0
 10 11  1  0  0  0  0
 11 12  1  0  0  0  0
 13 12  1  6  0  0  0
 13 14  1  0  0  0  0
 14 15  1  0  0  0  0
 15 16  1  0  0  0  0
 16 17  1  0  0  0  0
 17 18  1  0  0  0  0
 18 19  1  0  0  0  0
 19 20  1  0  0  0  0
 20 21  1  0  0  0  0
 21 22  1  0  0  0  0
 22 23  1  0  0  0  0
 23 24  1  0  0  0  0
 24 25  1  0  0  0  0
 25 26  1  0  0  0  0
 26 27  1  0  0  0  0
  8 27  1  0  0  0  0
  8 19  1  0  0  0  0
  9 16  1  0  0  0  0
 11 15  1  0  0  0  0
 20 25  1  0  0  0  0
 29 30  1  0  0  0  0
 30 31  1  0  0  0  0
 31 32  1  0  0  0  0
 28 32  1  0  0  0  0
 13 28  1  0  0  0  0
 13 29  1  0  0  0  0
 20 33  1  1  0  0  0
 16 34  1  1  0  0  0
 14 35  1  6  0  0  0
 31 36  1  1  0  0  0
 23 51  1  1  0  0  0
  5  6  1  0  0  0  0
  1  6  1  0  0  0  0
  3  7  1  6  0  0  0
  4 37  1  1  0  0  0
  5 38  1  6  0  0  0
 39 46  1  0  0  0  0
  6 39  1  1  0  0  0
  2 47  1  1  0  0  0
  8 40  1  1  0  0  0
  9 41  1  6  0  0  0
 11 42  1  6  0  0  0
 15 43  1  6  0  0  0
 19 44  1  6  0  0  0
 25 45  1  1  0  0  0
M  END
>  <cdx:fragmentId>
29539

$$$$
