38644.cdx
  Mrv1902 05222410222D          

 79 87  0  0  0  0            999 V2000
   15.8264   -9.6668    0.0000 C   0  0  1  0  0  0  0  0  0  0  0  0
   16.5408   -9.2543    0.0000 C   0  0  2  0  0  0  0  0  0  0  0  0
   17.3255   -9.5093    0.0000 C   0  0  0  0  0  0  0  0  0  0  0  0
   17.8104   -8.8418    0.0000 C   0  0  2  0  0  0  0  0  0  0  0  0
   18.5950   -8.5869    0.0000 O   0  0  0  0  0  0  0  0  0  0  0  0
   18.5950   -7.7619    0.0000 C   0  0  1  0  0  0  0  0  0  0  0  0
   17.8104   -7.5069    0.0000 C   0  0  2  0  0  0  0  0  0  0  0  0
   17.3255   -8.1744    0.0000 C   0  0  2  0  0  0  0  0  0  0  0  0
   16.5408   -8.4293    0.0000 C   0  0  1  0  0  0  0  0  0  0  0  0
   15.8264   -8.0168    0.0000 C   0  0  0  0  0  0  0  0  0  0  0  0
   15.1119   -8.4293    0.0000 C   0  0  0  0  0  0  0  0  0  0  0  0
   15.1119   -9.2543    0.0000 C   0  0  2  0  0  0  0  0  0  0  0  0
   14.3974   -9.6668    0.0000 C   0  0  1  0  0  0  0  0  0  0  0  0
   13.6830   -9.2543    0.0000 C   0  0  0  0  0  0  0  0  0  0  0  0
   12.9685   -9.6668    0.0000 C   0  0  0  0  0  0  0  0  0  0  0  0
   12.9685  -10.4918    0.0000 C   0  0  1  0  0  0  0  0  0  0  0  0
   13.6830  -10.9043    0.0000 C   0  0  0  0  0  0  0  0  0  0  0  0
   14.3974  -10.4918    0.0000 C   0  0  1  0  0  0  0  0  0  0  0  0
   15.1119  -10.9043    0.0000 C   0  0  0  0  0  0  0  0  0  0  0  0
   15.8264  -10.4918    0.0000 C   0  0  0  0  0  0  0  0  0  0  0  0
   19.4155   -7.6757    0.0000 C   0  0  0  0  0  0  0  0  0  0  0  0
   19.9004   -8.3431    0.0000 C   0  0  0  0  0  0  0  0  0  0  0  0
   20.7209   -8.2569    0.0000 C   0  0  1  0  0  0  0  0  0  0  0  0
   21.0565   -7.5032    0.0000 C   0  0  0  0  0  0  0  0  0  0  0  0
   21.2058   -8.9243    0.0000 O   0  0  0  0  0  0  0  0  0  0  0  0
   22.5112   -9.5055    0.0000 O   0  0  0  0  0  0  0  0  0  0  0  0
   22.0263   -8.8381    0.0000 C   0  0  2  0  0  0  0  0  0  0  0  0
   22.3619   -8.0844    0.0000 C   0  0  1  0  0  0  0  0  0  0  0  0
   23.1823   -7.9981    0.0000 C   0  0  2  0  0  0  0  0  0  0  0  0
   23.6673   -8.6656    0.0000 C   0  0  1  0  0  0  0  0  0  0  0  0
   23.3317   -9.4193    0.0000 C   0  0  1  0  0  0  0  0  0  0  0  0
   23.8166  -10.0867    0.0000 C   0  0  0  0  0  0  0  0  0  0  0  0
   24.6371  -10.0005    0.0000 O   0  0  0  0  0  0  0  0  0  0  0  0
   24.4877   -8.5793    0.0000 O   0  0  0  0  0  0  0  0  0  0  0  0
   23.5179   -7.2445    0.0000 O   0  0  0  0  0  0  0  0  0  0  0  0
   21.8769   -7.4169    0.0000 O   0  0  0  0  0  0  0  0  0  0  0  0
   14.3974   -8.8418    0.0000 C   0  0  0  0  0  0  0  0  0  0  0  0
   16.5408   -7.6043    0.0000 C   0  0  0  0  0  0  0  0  0  0  0  0
   17.5555   -6.7223    0.0000 C   0  0  0  0  0  0  0  0  0  0  0  0
   18.9306   -7.0082    0.0000 O   0  0  0  0  0  0  0  0  0  0  0  0
   15.8264   -8.8418    0.0000 H   0  0  0  0  0  0  0  0  0  0  0  0
   16.5408  -10.0793    0.0000 H   0  0  0  0  0  0  0  0  0  0  0  0
   18.2953   -9.5093    0.0000 H   0  0  0  0  0  0  0  0  0  0  0  0
   16.9638   -7.4329    0.0000 H   0  0  0  0  0  0  0  0  0  0  0  0
   15.1119  -10.0793    0.0000 H   0  0  0  0  0  0  0  0  0  0  0  0
   14.3974  -11.3168    0.0000 H   0  0  0  0  0  0  0  0  0  0  0  0
    9.3961  -10.9023    0.0000 O   0  0  0  0  0  0  0  0  0  0  0  0
   10.8245  -11.7283    0.0000 O   0  0  0  0  0  0  0  0  0  0  0  0
   11.5416   -8.0163    0.0000 O   0  0  0  0  0  0  0  0  0  0  0  0
   10.8268   -8.4283    0.0000 C   0  0  0  0  0  0  0  0  0  0  0  0
   12.2540  -10.9043    0.0000 O   0  0  0  0  0  0  0  0  0  0  0  0
   11.5398  -10.4913    0.0000 C   0  0  1  0  0  0  0  0  0  0  0  0
   10.8251  -10.9033    0.0000 C   0  0  1  0  0  0  0  0  0  0  0  0
   10.1109  -10.4903    0.0000 C   0  0  2  0  0  0  0  0  0  0  0  0
   10.1115   -9.6653    0.0000 C   0  0  1  0  0  0  0  0  0  0  0  0
   10.8263   -9.2533    0.0000 C   0  0  2  0  0  0  0  0  0  0  0  0
   11.5404   -9.6663    0.0000 O   0  0  0  0  0  0  0  0  0  0  0  0
    9.3973   -9.2523    0.0000 O   0  0  0  0  0  0  0  0  0  0  0  0
    7.9701   -6.7763    0.0000 O   0  0  0  0  0  0  0  0  0  0  0  0
    9.3997   -5.9523    0.0000 O   0  0  0  0  0  0  0  0  0  0  0  0
   10.8286   -5.9533    0.0000 O   0  0  0  0  0  0  0  0  0  0  0  0
   10.8280   -6.7783    0.0000 C   0  0  0  0  0  0  0  0  0  0  0  0
   10.1133   -7.1903    0.0000 C   0  0  2  0  0  0  0  0  0  0  0  0
    9.3991   -6.7773    0.0000 C   0  0  2  0  0  0  0  0  0  0  0  0
    8.6843   -7.1893    0.0000 C   0  0  1  0  0  0  0  0  0  0  0  0
    8.6837   -8.0143    0.0000 C   0  0  2  0  0  0  0  0  0  0  0  0
    9.3979   -8.4273    0.0000 C   0  0  1  0  0  0  0  0  0  0  0  0
   10.1127   -8.0153    0.0000 O   0  0  0  0  0  0  0  0  0  0  0  0
    7.9690   -8.4263    0.0000 O   0  0  0  0  0  0  0  0  0  0  0  0
    6.5418   -5.9502    0.0000 C   0  0  0  0  0  0  0  0  0  0  0  0
    5.1123   -6.7742    0.0000 O   0  0  0  0  0  0  0  0  0  0  0  0
    5.1111   -8.4242    0.0000 O   0  0  0  0  0  0  0  0  0  0  0  0
    6.5394   -9.2502    0.0000 O   0  0  0  0  0  0  0  0  0  0  0  0
    6.5412   -6.7752    0.0000 C   0  0  1  0  0  0  0  0  0  0  0  0
    5.8264   -7.1872    0.0000 C   0  0  1  0  0  0  0  0  0  0  0  0
    5.8258   -8.0122    0.0000 C   0  0  2  0  0  0  0  0  0  0  0  0
    6.5400   -8.4252    0.0000 C   0  0  2  0  0  0  0  0  0  0  0  0
    7.2548   -8.0133    0.0000 C   0  0  1  0  0  0  0  0  0  0  0  0
    7.2554   -7.1883    0.0000 O   0  0  0  0  0  0  0  0  0  0  0  0
 78 69  1  1  0  0  0
 66 69  1  6  0  0  0
 67 58  1  1  0  0  0
 55 58  1  6  0  0  0
 54 47  1  1  0  0  0
 53 48  1  6  0  0  0
 56 50  1  1  0  0  0
 50 49  1  0  0  0  0
 52 51  1  1  0  0  0
 57 52  1  0  0  0  0
 53 52  1  0  0  0  0
 54 53  1  0  0  0  0
 55 54  1  0  0  0  0
 56 55  1  0  0  0  0
 57 56  1  0  0  0  0
 65 59  1  1  0  0  0
 64 60  1  6  0  0  0
 63 62  1  1  0  0  0
 62 61  1  0  0  0  0
 68 63  1  0  0  0  0
 64 63  1  0  0  0  0
 65 64  1  0  0  0  0
 66 65  1  0  0  0  0
 67 66  1  0  0  0  0
 68 67  1  0  0  0  0
 74 70  1  6  0  0  0
 75 71  1  1  0  0  0
 76 72  1  6  0  0  0
 77 73  1  6  0  0  0
 79 74  1  0  0  0  0
 75 74  1  0  0  0  0
 76 75  1  0  0  0  0
 77 76  1  0  0  0  0
 78 77  1  0  0  0  0
 79 78  1  0  0  0  0
  1  2  1  0  0  0  0
  2  3  1  0  0  0  0
  3  4  1  0  0  0  0
  4  5  1  0  0  0  0
  5  6  1  0  0  0  0
  6  7  1  0  0  0  0
  7  8  1  0  0  0  0
  8  9  1  0  0  0  0
  9 10  1  0  0  0  0
 10 11  1  0  0  0  0
 11 12  1  0  0  0  0
 12 13  1  0  0  0  0
 13 14  1  0  0  0  0
 14 15  1  0  0  0  0
 15 16  1  0  0  0  0
 16 17  1  0  0  0  0
 17 18  1  0  0  0  0
 18 19  1  0  0  0  0
 19 20  1  0  0  0  0
  1 20  1  0  0  0  0
  1 12  1  0  0  0  0
  2  9  1  0  0  0  0
  4  8  1  0  0  0  0
 13 18  1  0  0  0  0
 21 22  1  0  0  0  0
 22 23  1  0  0  0  0
 23 24  1  1  0  0  0
 26 27  1  0  0  0  0
 27 28  1  0  0  0  0
 28 29  1  0  0  0  0
 29 30  1  0  0  0  0
 30 31  1  0  0  0  0
 26 31  1  0  0  0  0
 32 33  1  0  0  0  0
 31 32  1  1  0  0  0
 30 34  1  6  0  0  0
 29 35  1  1  0  0  0
 28 36  1  6  0  0  0
 27 25  1  1  0  0  0
 23 25  1  0  0  0  0
  6 21  1  0  0  0  0
 13 37  1  1  0  0  0
  9 38  1  1  0  0  0
  7 39  1  6  0  0  0
  6 40  1  6  0  0  0
 16 51  1  1  0  0  0
  1 41  1  1  0  0  0
  2 42  1  6  0  0  0
  4 43  1  6  0  0  0
  8 44  1  6  0  0  0
 12 45  1  6  0  0  0
 18 46  1  1  0  0  0
M  END
>  <cdx:fragmentId>
30016

$$$$
