38643.cdx
  Mrv1902 05222410212D          

 77 86  0  0  0  0            999 V2000
   10.9682   -3.7680    0.0000 O   0  0  0  0  0  0  0  0  0  0  0  0
   10.2479   -4.1704    0.0000 C   0  0  2  0  0  0  0  0  0  0  0  0
    9.5394   -3.7479    0.0000 C   0  0  1  0  0  0  0  0  0  0  0  0
    9.5510   -2.9229    0.0000 C   0  0  2  0  0  0  0  0  0  0  0  0
   10.2712   -2.5206    0.0000 C   0  0  1  0  0  0  0  0  0  0  0  0
   10.9798   -2.9431    0.0000 C   0  0  1  0  0  0  0  0  0  0  0  0
    8.8191   -4.1502    0.0000 O   0  0  0  0  0  0  0  0  0  0  0  0
    8.8424   -2.5004    0.0000 O   0  0  0  0  0  0  0  0  0  0  0  0
   10.2829   -1.6956    0.0000 O   0  0  0  0  0  0  0  0  0  0  0  0
   11.7000   -2.5407    0.0000 C   0  0  0  0  0  0  0  0  0  0  0  0
   11.7117   -1.7158    0.0000 O   0  0  0  0  0  0  0  0  0  0  0  0
   10.2363   -4.9953    0.0000 O   0  0  0  0  0  0  0  0  0  0  0  0
   11.6418   -6.6653    0.0000 O   0  0  0  0  0  0  0  0  0  0  0  0
   10.9332   -6.2428    0.0000 C   0  0  2  0  0  0  0  0  0  0  0  0
   10.9449   -5.4179    0.0000 C   0  0  1  0  0  0  0  0  0  0  0  0
   15.8412  -11.6248    0.0000 C   0  0  1  0  0  0  0  0  0  0  0  0
   16.5557  -11.2123    0.0000 C   0  0  2  0  0  0  0  0  0  0  0  0
   17.3403  -11.4672    0.0000 C   0  0  0  0  0  0  0  0  0  0  0  0
   17.8253  -10.7998    0.0000 C   0  0  2  0  0  0  0  0  0  0  0  0
   18.6099  -10.5448    0.0000 O   0  0  0  0  0  0  0  0  0  0  0  0
   18.6099   -9.7198    0.0000 C   0  0  2  0  0  0  0  0  0  0  0  0
   17.8253   -9.4649    0.0000 C   0  0  2  0  0  0  0  0  0  0  0  0
   17.3403  -10.1323    0.0000 C   0  0  2  0  0  0  0  0  0  0  0  0
   16.5557  -10.3873    0.0000 C   0  0  1  0  0  0  0  0  0  0  0  0
   15.8412   -9.9748    0.0000 C   0  0  0  0  0  0  0  0  0  0  0  0
   15.1268  -10.3873    0.0000 C   0  0  0  0  0  0  0  0  0  0  0  0
   15.1268  -11.2123    0.0000 C   0  0  2  0  0  0  0  0  0  0  0  0
   14.4123  -11.6248    0.0000 C   0  0  1  0  0  0  0  0  0  0  0  0
   13.6978  -11.2123    0.0000 C   0  0  0  0  0  0  0  0  0  0  0  0
   12.9834  -11.6248    0.0000 C   0  0  0  0  0  0  0  0  0  0  0  0
   12.9834  -12.4498    0.0000 C   0  0  1  0  0  0  0  0  0  0  0  0
   13.6978  -12.8623    0.0000 C   0  0  0  0  0  0  0  0  0  0  0  0
   14.4123  -12.4498    0.0000 C   0  0  1  0  0  0  0  0  0  0  0  0
   15.1268  -12.8623    0.0000 C   0  0  0  0  0  0  0  0  0  0  0  0
   15.8412  -12.4498    0.0000 C   0  0  0  0  0  0  0  0  0  0  0  0
   18.5236   -8.8994    0.0000 O   0  0  0  0  0  0  0  0  0  0  0  0
   19.3636  -10.0554    0.0000 C   0  0  0  0  0  0  0  0  0  0  0  0
   20.0310   -9.5705    0.0000 C   0  0  0  0  0  0  0  0  0  0  0  0
   19.9448   -8.7500    0.0000 C   0  0  2  0  0  0  0  0  0  0  0  0
   19.1911   -8.4144    0.0000 C   0  0  0  0  0  0  0  0  0  0  0  0
   14.4123  -10.7998    0.0000 C   0  0  0  0  0  0  0  0  0  0  0  0
   16.5557   -9.5623    0.0000 C   0  0  0  0  0  0  0  0  0  0  0  0
   17.5703   -8.6803    0.0000 C   0  0  0  0  0  0  0  0  0  0  0  0
   20.6122   -8.2651    0.0000 C   0  0  0  0  0  0  0  0  0  0  0  0
   11.6651   -5.0155    0.0000 C   0  0  1  0  0  0  0  0  0  0  0  0
   12.3737   -5.4380    0.0000 C   0  0  2  0  0  0  0  0  0  0  0  0
   12.3620   -6.2629    0.0000 C   0  0  2  0  0  0  0  0  0  0  0  0
   13.0706   -6.6855    0.0000 C   0  0  0  0  0  0  0  0  0  0  0  0
   13.0939   -5.0356    0.0000 O   0  0  0  0  0  0  0  0  0  0  0  0
   15.8412  -10.7998    0.0000 H   0  0  0  0  0  0  0  0  0  0  0  0
   16.5557  -12.0373    0.0000 H   0  0  0  0  0  0  0  0  0  0  0  0
   18.3102  -11.4672    0.0000 H   0  0  0  0  0  0  0  0  0  0  0  0
   16.9787   -9.3908    0.0000 H   0  0  0  0  0  0  0  0  0  0  0  0
   15.1268  -12.0373    0.0000 H   0  0  0  0  0  0  0  0  0  0  0  0
   14.4123  -13.2748    0.0000 H   0  0  0  0  0  0  0  0  0  0  0  0
   11.6767   -4.1906    0.0000 O   0  0  0  0  0  0  0  0  0  0  0  0
   10.2130   -6.6452    0.0000 O   0  0  0  0  0  0  0  0  0  0  0  0
    8.7726   -7.4499    0.0000 O   0  0  0  0  0  0  0  0  0  0  0  0
    8.7493   -9.0997    0.0000 O   0  0  0  0  0  0  0  0  0  0  0  0
    9.4346  -11.1721    0.0000 O   0  0  0  0  0  0  0  0  0  0  0  0
    9.4113  -12.8220    0.0000 O   0  0  0  0  0  0  0  0  0  0  0  0
   10.8284  -13.6670    0.0000 O   0  0  0  0  0  0  0  0  0  0  0  0
   12.2689  -12.8623    0.0000 O   0  0  0  0  0  0  0  0  0  0  0  0
   11.5603  -12.4397    0.0000 C   0  0  1  0  0  0  0  0  0  0  0  0
   10.8401  -12.8421    0.0000 C   0  0  1  0  0  0  0  0  0  0  0  0
   10.1315  -12.4196    0.0000 C   0  0  2  0  0  0  0  0  0  0  0  0
   10.1432  -11.5947    0.0000 C   0  0  1  0  0  0  0  0  0  0  0  0
   10.8634  -11.1923    0.0000 C   0  0  2  0  0  0  0  0  0  0  0  0
   11.5720  -11.6148    0.0000 O   0  0  0  0  0  0  0  0  0  0  0  0
   10.8750  -10.3674    0.0000 C   0  0  0  0  0  0  0  0  0  0  0  0
   10.1664   -9.9448    0.0000 O   0  0  0  0  0  0  0  0  0  0  0  0
   10.1781   -9.1199    0.0000 C   0  0  1  0  0  0  0  0  0  0  0  0
    9.4695   -8.6974    0.0000 C   0  0  1  0  0  0  0  0  0  0  0  0
    9.4811   -7.8725    0.0000 C   0  0  2  0  0  0  0  0  0  0  0  0
   10.2014   -7.4701    0.0000 C   0  0  2  0  0  0  0  0  0  0  0  0
   10.9099   -7.8926    0.0000 C   0  0  0  0  0  0  0  0  0  0  0  0
   10.8983   -8.7175    0.0000 O   0  0  0  0  0  0  0  0  0  0  0  0
 75 57  1  1  0  0  0
 74 58  1  1  0  0  0
 73 59  1  6  0  0  0
 72 71  1  1  0  0  0
 68 70  1  1  0  0  0
 67 60  1  6  0  0  0
 66 61  1  1  0  0  0
 65 62  1  6  0  0  0
 64 63  1  1  0  0  0
 69 64  1  0  0  0  0
 65 64  1  0  0  0  0
 66 65  1  0  0  0  0
 67 66  1  0  0  0  0
 68 67  1  0  0  0  0
 69 68  1  0  0  0  0
 71 70  1  0  0  0  0
 77 72  1  0  0  0  0
 73 72  1  0  0  0  0
 74 73  1  0  0  0  0
 75 74  1  0  0  0  0
 76 75  1  0  0  0  0
 77 76  1  0  0  0  0
  1  2  1  0  0  0  0
  2  3  1  0  0  0  0
  3  4  1  0  0  0  0
  4  5  1  0  0  0  0
  5  6  1  0  0  0  0
  1  6  1  0  0  0  0
  3  7  1  6  0  0  0
  4  8  1  1  0  0  0
  5  9  1  6  0  0  0
 10 11  1  0  0  0  0
  6 10  1  1  0  0  0
 16 17  1  0  0  0  0
 17 18  1  0  0  0  0
 18 19  1  0  0  0  0
 19 20  1  0  0  0  0
 21 20  1  6  0  0  0
 21 22  1  0  0  0  0
 22 23  1  0  0  0  0
 23 24  1  0  0  0  0
 24 25  1  0  0  0  0
 25 26  1  0  0  0  0
 26 27  1  0  0  0  0
 27 28  1  0  0  0  0
 28 29  1  0  0  0  0
 29 30  1  0  0  0  0
 30 31  1  0  0  0  0
 31 32  1  0  0  0  0
 32 33  1  0  0  0  0
 33 34  1  0  0  0  0
 34 35  1  0  0  0  0
 16 35  1  0  0  0  0
 16 27  1  0  0  0  0
 17 24  1  0  0  0  0
 19 23  1  0  0  0  0
 28 33  1  0  0  0  0
 37 38  1  0  0  0  0
 38 39  1  0  0  0  0
 39 40  1  0  0  0  0
 36 40  1  0  0  0  0
 21 36  1  0  0  0  0
 21 37  1  0  0  0  0
 28 41  1  1  0  0  0
 24 42  1  1  0  0  0
 22 43  1  6  0  0  0
 39 44  1  6  0  0  0
 31 63  1  1  0  0  0
 13 14  1  0  0  0  0
 14 15  1  0  0  0  0
 15 45  1  0  0  0  0
 45 46  1  0  0  0  0
 46 47  1  0  0  0  0
 13 47  1  0  0  0  0
 47 48  1  6  0  0  0
 46 49  1  1  0  0  0
 45 56  1  6  0  0  0
 14 57  1  1  0  0  0
 15 12  1  6  0  0  0
  2 12  1  1  0  0  0
 16 50  1  1  0  0  0
 17 51  1  6  0  0  0
 19 52  1  6  0  0  0
 23 53  1  6  0  0  0
 27 54  1  6  0  0  0
 33 55  1  1  0  0  0
M  END
>  <cdx:fragmentId>
29777

$$$$
