386591.cdx
  Mrv1902 05222410242D          

 13 12  0  0  0  0            999 V2000
   10.8680   -7.1362    0.0000 C   0  0  0  0  0  0  0  0  0  0  0  0
   10.1535   -6.7237    0.0000 C   0  0  0  0  0  0  0  0  0  0  0  0
    9.4390   -7.1362    0.0000 C   0  0  0  0  0  0  0  0  0  0  0  0
    8.7245   -6.7237    0.0000 S   0  0  0  0  0  0  0  0  0  0  0  0
    8.0101   -7.1362    0.0000 S   0  0  0  0  0  0  0  0  0  0  0  0
    7.2956   -6.7237    0.0000 C   0  0  0  0  0  0  0  0  0  0  0  0
    6.5811   -7.1362    0.0000 C   0  0  0  0  0  0  0  0  0  0  0  0
    5.8667   -6.7237    0.0000 C   0  0  0  0  0  0  0  0  0  0  0  0
    5.1522   -7.1362    0.0000 S   0  0  0  0  0  0  0  0  0  0  0  0
    4.4377   -6.7237    0.0000 C   0  0  0  0  0  0  0  0  0  0  0  0
    3.7232   -7.1362    0.0000 C   0  0  0  0  0  0  0  0  0  0  0  0
    3.0088   -6.7237    0.0000 C   0  0  0  0  0  0  0  0  0  0  0  0
    5.1522   -7.9612    0.0000 O   0  0  0  0  0  0  0  0  0  0  0  0
  2  1  2  0  0  0  0
  3  2  1  0  0  0  0
  4  3  1  0  0  0  0
  5  4  1  0  0  0  0
  6  5  1  0  0  0  0
  7  6  2  0  0  0  0
  8  7  1  0  0  0  0
  9  8  1  0  0  0  0
 10  9  1  0  0  0  0
 11 10  1  0  0  0  0
 12 11  2  0  0  0  0
  9 13  2  0  0  0  0
M  END
>  <cdx:fragmentId>
3

$$$$
