38660.cdx
  Mrv1902 05222410242D          

 25 27  0  0  0  0            999 V2000
    5.9625   -7.9260    0.0000 C   0  0  0  0  0  0  0  0  0  0  0  0
    5.9625   -8.7510    0.0000 C   0  0  0  0  0  0  0  0  0  0  0  0
    6.6769   -9.1635    0.0000 C   0  0  0  0  0  0  0  0  0  0  0  0
    7.3914   -8.7510    0.0000 C   0  0  0  0  0  0  0  0  0  0  0  0
    8.1059   -9.1635    0.0000 C   0  0  0  0  0  0  0  0  0  0  0  0
    8.8203   -8.7510    0.0000 C   0  0  0  0  0  0  0  0  0  0  0  0
    8.8203   -7.9260    0.0000 C   0  0  0  0  0  0  0  0  0  0  0  0
    8.1059   -7.5135    0.0000 C   0  0  0  0  0  0  0  0  0  0  0  0
    7.3914   -7.9260    0.0000 C   0  0  0  0  0  0  0  0  0  0  0  0
    6.6769   -7.5135    0.0000 O   0  0  0  0  0  0  0  0  0  0  0  0
    9.6050   -7.6710    0.0000 O   0  0  0  0  0  0  0  0  0  0  0  0
    9.6050   -9.0059    0.0000 C   0  0  0  0  0  0  0  0  0  0  0  0
   10.0899   -8.3385    0.0000 C   0  0  0  0  0  0  0  0  0  0  0  0
    5.2480   -7.5135    0.0000 O   0  0  0  0  0  0  0  0  0  0  0  0
    5.9625   -4.6260    0.0000 O   0  0  0  0  0  0  0  0  0  0  0  0
    7.3914  -11.2260    0.0000 C   0  0  0  0  0  0  0  0  0  0  0  0
    7.3914  -10.4010    0.0000 C   0  0  0  0  0  0  0  0  0  0  0  0
    8.1059   -9.9885    0.0000 O   0  0  0  0  0  0  0  0  0  0  0  0
    6.6769   -4.2135    0.0000 C   0  0  0  0  0  0  0  0  0  0  0  0
    5.9625   -5.4510    0.0000 C   0  0  0  0  0  0  0  0  0  0  0  0
    8.1059   -5.0385    0.0000 O   0  0  0  0  0  0  0  0  0  0  0  0
    6.6769   -5.0385    0.0000 C   0  0  0  0  0  0  0  0  0  0  0  0
    7.3914   -5.4510    0.0000 C   0  0  1  0  0  0  0  0  0  0  0  0
    7.3914   -6.2760    0.0000 C   0  0  0  0  0  0  0  0  0  0  0  0
    8.1059   -6.6885    0.0000 O   0  0  0  0  0  0  0  0  0  0  0  0
 22 15  1  0  0  0  0
 18 17  1  0  0  0  0
 17 16  1  0  0  0  0
  1  2  1  0  0  0  0
  2  3  2  0  0  0  0
  3  4  1  0  0  0  0
  4  5  2  0  0  0  0
  5  6  1  0  0  0  0
  6  7  2  0  0  0  0
  7  8  1  0  0  0  0
  8  9  2  0  0  0  0
  4  9  1  0  0  0  0
  9 10  1  0  0  0  0
  1 10  1  0  0  0  0
 12 13  2  0  0  0  0
 11 13  1  0  0  0  0
 12  6  1  0  0  0  0
 11  7  1  0  0  0  0
  1 14  2  0  0  0  0
 22 19  1  0  0  0  0
  8 25  1  0  0  0  0
  5 18  1  0  0  0  0
 22 20  1  0  0  0  0
 23 21  1  6  0  0  0
 23 22  1  0  0  0  0
 24 23  1  0  0  0  0
 25 24  1  0  0  0  0
M  END
>  <cdx:fragmentId>
189830

$$$$
