1382.cdx
  Mrv1902 05222410232D          

 42 48  0  0  0  0            999 V2000
   13.4463   -3.7386    0.0000 C   0  0  2  0  0  0  0  0  0  0  0  0
   14.0511   -3.1775    0.0000 C   0  0  0  0  0  0  0  0  0  0  0  0
   14.0387   -2.3526    0.0000 N   0  0  0  0  0  0  0  0  0  0  0  0
   14.8194   -2.0859    0.0000 C   0  0  0  0  0  0  0  0  0  0  0  0
   15.1437   -1.3273    0.0000 C   0  0  0  0  0  0  0  0  0  0  0  0
   15.9628   -1.2288    0.0000 C   0  0  0  0  0  0  0  0  0  0  0  0
   16.4576   -1.8889    0.0000 C   0  0  0  0  0  0  0  0  0  0  0  0
   16.1334   -2.6475    0.0000 C   0  0  0  0  0  0  0  0  0  0  0  0
   15.3143   -2.7460    0.0000 C   0  0  0  0  0  0  0  0  0  0  0  0
   14.8394   -3.4207    0.0000 C   0  0  0  0  0  0  0  0  0  0  0  0
   15.0230   -4.2250    0.0000 C   0  0  0  0  0  0  0  0  0  0  0  0
   14.4182   -4.7861    0.0000 C   0  0  0  0  0  0  0  0  0  0  0  0
   13.6299   -4.5429    0.0000 N   0  0  0  0  0  0  0  0  0  0  0  0
   13.1155   -5.1879    0.0000 C   0  0  0  0  0  0  0  0  0  0  0  0
   12.2905   -5.1879    0.0000 C   0  0  2  0  0  0  0  0  0  0  0  0
   11.7761   -4.5429    0.0000 C   0  0  1  0  0  0  0  0  0  0  0  0
   10.9878   -4.7861    0.0000 C   0  0  1  0  0  0  0  0  0  0  0  0
   10.3830   -4.2250    0.0000 O   0  0  0  0  0  0  0  0  0  0  0  0
   10.5666   -3.4207    0.0000 C   0  0  0  0  0  0  0  0  0  0  0  0
   11.3549   -3.1775    0.0000 C   0  0  0  0  0  0  0  0  0  0  0  0
   11.9597   -3.7386    0.0000 C   0  0  1  0  0  0  0  0  0  0  0  0
   12.7030   -3.3807    0.0000 C   0  0  0  0  0  0  0  0  0  0  0  0
   13.2858   -4.7973    0.0000 O   0  0  0  0  0  0  0  0  0  0  0  0
   11.5385   -2.3732    0.0000 C   0  0  0  0  0  0  0  0  0  0  0  0
   10.9551   -1.7898    0.0000 O   0  0  0  0  0  0  0  0  0  0  0  0
   12.3269   -2.1300    0.0000 O   0  0  0  0  0  0  0  0  0  0  0  0
   10.8042   -5.5904    0.0000 O   0  0  0  0  0  0  0  0  0  0  0  0
    9.4111   -5.2725    0.0000 O   0  0  0  0  0  0  0  0  0  0  0  0
   10.0158   -5.8336    0.0000 C   0  0  2  0  0  0  0  0  0  0  0  0
    9.8323   -6.6379    0.0000 C   0  0  1  0  0  0  0  0  0  0  0  0
    9.0439   -6.8811    0.0000 C   0  0  2  0  0  0  0  0  0  0  0  0
    8.4391   -6.3199    0.0000 C   0  0  1  0  0  0  0  0  0  0  0  0
    8.6227   -5.5156    0.0000 C   0  0  1  0  0  0  0  0  0  0  0  0
    8.0180   -4.9545    0.0000 C   0  0  0  0  0  0  0  0  0  0  0  0
    7.2296   -5.1977    0.0000 O   0  0  0  0  0  0  0  0  0  0  0  0
    7.6508   -6.5631    0.0000 O   0  0  0  0  0  0  0  0  0  0  0  0
    8.8603   -7.6854    0.0000 O   0  0  0  0  0  0  0  0  0  0  0  0
   10.4370   -7.1991    0.0000 C   0  0  0  0  0  0  0  0  0  0  0  0
   11.8780   -5.9024    0.0000 H   0  0  0  0  0  0  0  0  0  0  0  0
   11.5329   -5.3313    0.0000 H   0  0  0  0  0  0  0  0  0  0  0  0
   12.0827   -2.9228    0.0000 H   0  0  0  0  0  0  0  0  0  0  0  0
   12.5104   -1.3257    0.0000 C   0  0  0  0  0  0  0  0  0  0  0  0
  1  2  1  0  0  0  0
  2  3  1  0  0  0  0
  3  4  1  0  0  0  0
  4  5  2  0  0  0  0
  5  6  1  0  0  0  0
  6  7  2  0  0  0  0
  7  8  1  0  0  0  0
  8  9  2  0  0  0  0
  9 10  1  0  0  0  0
 10 11  1  0  0  0  0
 11 12  1  0  0  0  0
 12 13  1  0  0  0  0
 13 14  1  0  0  0  0
 14 15  1  0  0  0  0
 15 16  1  0  0  0  0
 16 17  1  0  0  0  0
 17 18  1  0  0  0  0
 18 19  1  0  0  0  0
 19 20  2  0  0  0  0
 20 21  1  0  0  0  0
 21 22  1  0  0  0  0
  1 22  1  0  0  0  0
  1 23  1  1  0  0  0
 15 23  1  1  0  0  0
  1 13  1  0  0  0  0
  2 10  2  0  0  0  0
  4  9  1  0  0  0  0
 16 21  1  0  0  0  0
 24 25  2  0  0  0  0
 24 26  1  0  0  0  0
 20 24  1  0  0  0  0
 28 29  1  0  0  0  0
 29 30  1  0  0  0  0
 30 31  1  0  0  0  0
 31 32  1  0  0  0  0
 32 33  1  0  0  0  0
 28 33  1  0  0  0  0
 34 35  1  0  0  0  0
 33 34  1  1  0  0  0
 32 36  1  6  0  0  0
 31 37  1  1  0  0  0
 30 38  1  6  0  0  0
 29 27  1  1  0  0  0
 17 27  1  6  0  0  0
 15 39  1  0  0  0  0
 16 40  1  6  0  0  0
 21 41  1  6  0  0  0
 26 42  1  0  0  0  0
M  END
>  <cdx:fragmentId>
30443

$$$$
