38661.cdx
  Mrv1902 05222410242D          

 32 34  0  0  0  0            999 V2000
    8.1345   -6.2329    0.0000 C   0  0  0  0  0  0  0  0  0  0  0  0
    8.1427   -7.0579    0.0000 C   0  0  2  0  0  0  0  0  0  0  0  0
    8.8613   -7.4632    0.0000 C   0  0  0  0  0  0  0  0  0  0  0  0
    7.4159   -5.8276    0.0000 O   0  0  0  0  0  0  0  0  0  0  0  0
    8.8448   -5.8133    0.0000 O   0  0  0  0  0  0  0  0  0  0  0  0
    9.5716   -7.0436    0.0000 C   0  0  0  0  0  0  0  0  0  0  0  0
    9.5634   -6.2186    0.0000 C   0  0  0  0  0  0  0  0  0  0  0  0
   10.2737   -5.7990    0.0000 C   0  0  0  0  0  0  0  0  0  0  0  0
   10.9922   -6.2043    0.0000 C   0  0  0  0  0  0  0  0  0  0  0  0
   11.0005   -7.0293    0.0000 C   0  0  0  0  0  0  0  0  0  0  0  0
    6.0036   -7.4918    0.0000 C   0  0  2  0  0  0  0  0  0  0  0  0
    5.2850   -7.0865    0.0000 C   0  0  0  0  0  0  0  0  0  0  0  0
   10.2902   -7.4489    0.0000 C   0  0  0  0  0  0  0  0  0  0  0  0
    5.2768   -6.2615    0.0000 C   0  0  0  0  0  0  0  0  0  0  0  0
    4.5582   -5.8562    0.0000 C   0  0  0  0  0  0  0  0  0  0  0  0
    4.5499   -5.0312    0.0000 C   0  0  0  0  0  0  0  0  0  0  0  0
    5.2602   -4.6116    0.0000 C   0  0  0  0  0  0  0  0  0  0  0  0
    5.9788   -5.0169    0.0000 C   0  0  0  0  0  0  0  0  0  0  0  0
    5.9871   -5.8419    0.0000 C   0  0  0  0  0  0  0  0  0  0  0  0
    5.3015   -8.7364    0.0000 C   0  0  0  0  0  0  0  0  0  0  0  0
    5.3098   -9.5613    0.0000 C   0  0  0  0  0  0  0  0  0  0  0  0
    6.0283   -9.9667    0.0000 C   0  0  0  0  0  0  0  0  0  0  0  0
    6.0366  -10.7916    0.0000 C   0  0  0  0  0  0  0  0  0  0  0  0
    5.3263  -11.2113    0.0000 C   0  0  0  0  0  0  0  0  0  0  0  0
    4.6077  -10.8059    0.0000 C   0  0  0  0  0  0  0  0  0  0  0  0
    4.5994   -9.9810    0.0000 C   0  0  0  0  0  0  0  0  0  0  0  0
    4.5829   -8.3310    0.0000 O   0  0  0  0  0  0  0  0  0  0  0  0
    6.0118   -8.3168    0.0000 N   0  0  0  0  0  0  0  0  0  0  0  0
    8.8366   -4.9883    0.0000 C   0  0  0  0  0  0  0  0  0  0  0  0
    6.7056   -6.2472    0.0000 O   0  0  0  0  0  0  0  0  0  0  0  0
    6.7139   -7.0722    0.0000 C   0  0  0  0  0  0  0  0  0  0  0  0
    7.4324   -7.4775    0.0000 N   0  0  0  0  0  0  0  0  0  0  0  0
  2 32  1  6  0  0  0
 32 31  1  0  0  0  0
 31 30  2  0  0  0  0
  1  2  1  0  0  0  0
  2  3  1  0  0  0  0
  1  4  2  0  0  0  0
  1  5  1  0  0  0  0
  6  7  1  0  0  0  0
  7  8  2  0  0  0  0
  8  9  1  0  0  0  0
  9 10  2  0  0  0  0
 31 11  1  0  0  0  0
 11 12  1  0  0  0  0
 10 13  1  0  0  0  0
 14 15  1  0  0  0  0
 15 16  2  0  0  0  0
 16 17  1  0  0  0  0
 17 18  2  0  0  0  0
 18 19  1  0  0  0  0
 14 19  2  0  0  0  0
 12 14  1  0  0  0  0
 20 21  1  0  0  0  0
 21 22  1  0  0  0  0
 22 23  2  0  0  0  0
 23 24  1  0  0  0  0
 24 25  2  0  0  0  0
 25 26  1  0  0  0  0
 21 26  2  0  0  0  0
 20 27  2  0  0  0  0
 20 28  1  0  0  0  0
 11 28  1  1  0  0  0
  6 13  2  0  0  0  0
  3  6  1  0  0  0  0
  5 29  1  0  0  0  0
M  END
>  <cdx:fragmentId>
30644

$$$$
