3867.cdx
  Mrv1902 05222410192D          

 10 10  0  0  0  0            999 V2000
    6.0052   -5.4863    0.0000 O   0  0  0  0  0  0  0  0  0  0  0  0
    6.7196   -5.8988    0.0000 C   0  0  0  0  0  0  0  0  0  0  0  0
    7.4341   -5.4863    0.0000 C   0  0  0  0  0  0  0  0  0  0  0  0
    7.4341   -4.6612    0.0000 C   0  0  0  0  0  0  0  0  0  0  0  0
    6.7196   -4.2488    0.0000 C   0  0  0  0  0  0  0  0  0  0  0  0
    8.1486   -5.8988    0.0000 N   0  0  0  0  0  0  0  0  0  0  0  0
    8.8630   -5.4863    0.0000 C   0  0  0  0  0  0  0  0  0  0  0  0
    8.8630   -4.6612    0.0000 C   0  0  0  0  0  0  0  0  0  0  0  0
    8.1486   -4.2488    0.0000 N   0  0  0  0  0  0  0  0  0  0  0  0
    6.7196   -6.7237    0.0000 C   0  0  0  0  0  0  0  0  0  0  0  0
  1  2  2  0  0  0  0
  2  3  1  0  0  0  0
  3  4  1  0  0  0  0
  4  5  1  0  0  0  0
  3  6  2  0  0  0  0
  6  7  1  0  0  0  0
  7  8  2  0  0  0  0
  8  9  1  0  0  0  0
  9  4  2  0  0  0  0
  2 10  1  0  0  0  0
M  END
>  <cdx:fragmentId>
5

$$$$
