38675.cdx
  Mrv1902 05222410242D          

 69 76  0  0  0  0            999 V2000
    6.7872   -3.5581    0.0000 C   0  0  0  0  0  0  0  0  0  0  0  0
    7.5017   -3.1456    0.0000 C   0  0  0  0  0  0  0  0  0  0  0  0
    8.2161   -3.5581    0.0000 C   0  0  0  0  0  0  0  0  0  0  0  0
    8.2161   -4.3831    0.0000 C   0  0  0  0  0  0  0  0  0  0  0  0
    7.5017   -4.7956    0.0000 C   0  0  2  0  0  0  0  0  0  0  0  0
    7.5017   -5.6206    0.0000 C   0  0  0  0  0  0  0  0  0  0  0  0
    6.7872   -6.0331    0.0000 C   0  0  0  0  0  0  0  0  0  0  0  0
    6.0727   -5.6206    0.0000 C   0  0  1  0  0  0  0  0  0  0  0  0
    5.3583   -6.0331    0.0000 C   0  0  2  0  0  0  0  0  0  0  0  0
    5.3583   -6.8581    0.0000 C   0  0  0  0  0  0  0  0  0  0  0  0
    4.6438   -7.2706    0.0000 C   0  0  0  0  0  0  0  0  0  0  0  0
    3.9293   -6.8581    0.0000 C   0  0  1  0  0  0  0  0  0  0  0  0
    3.2148   -7.2706    0.0000 C   0  0  2  0  0  0  0  0  0  0  0  0
    2.5004   -6.8581    0.0000 C   0  0  2  0  0  0  0  0  0  0  0  0
    2.5004   -6.0331    0.0000 C   0  0  1  0  0  0  0  0  0  0  0  0
    3.2148   -5.6206    0.0000 C   0  0  0  0  0  0  0  0  0  0  0  0
    3.9293   -6.0331    0.0000 C   0  0  2  0  0  0  0  0  0  0  0  0
    4.6438   -5.6206    0.0000 C   0  0  1  0  0  0  0  0  0  0  0  0
    4.6438   -4.7956    0.0000 C   0  0  0  0  0  0  0  0  0  0  0  0
    5.3583   -4.3831    0.0000 C   0  0  0  0  0  0  0  0  0  0  0  0
    6.0727   -4.7956    0.0000 C   0  0  0  0  0  0  0  0  0  0  0  0
    6.7872   -4.3831    0.0000 C   0  0  0  0  0  0  0  0  0  0  0  0
    8.2161   -5.2081    0.0000 C   0  0  0  0  0  0  0  0  0  0  0  0
    8.2161   -6.0331    0.0000 O   0  0  0  0  0  0  0  0  0  0  0  0
    3.9293   -5.2081    0.0000 C   0  0  0  0  0  0  0  0  0  0  0  0
    2.8023   -7.9851    0.0000 C   0  0  0  0  0  0  0  0  0  0  0  0
    7.0892   -2.4311    0.0000 C   0  0  0  0  0  0  0  0  0  0  0  0
    7.9142   -2.4311    0.0000 C   0  0  0  0  0  0  0  0  0  0  0  0
    3.6273   -7.9851    0.0000 C   0  0  0  0  0  0  0  0  0  0  0  0
    3.2148   -8.6996    0.0000 O   0  0  0  0  0  0  0  0  0  0  0  0
    1.7859   -5.6206    0.0000 O   0  0  0  0  0  0  0  0  0  0  0  0
    1.7859   -7.2706    0.0000 O   0  0  0  0  0  0  0  0  0  0  0  0
    3.9293   -7.6831    0.0000 H   0  0  0  0  0  0  0  0  0  0  0  0
   11.0789   -7.6795    0.0000 O   0  0  0  0  0  0  0  0  0  0  0  0
   10.3662   -8.9179    0.0000 O   0  0  0  0  0  0  0  0  0  0  0  0
   11.0801   -8.5045    0.0000 C   0  0  2  0  0  0  0  0  0  0  0  0
   11.7951   -8.9160    0.0000 C   0  0  1  0  0  0  0  0  0  0  0  0
   11.7963   -9.7410    0.0000 C   0  0  2  0  0  0  0  0  0  0  0  0
   11.0824  -10.1545    0.0000 C   0  0  1  0  0  0  0  0  0  0  0  0
   10.3673   -9.7429    0.0000 C   0  0  1  0  0  0  0  0  0  0  0  0
    8.9384   -9.7449    0.0000 O   0  0  0  0  0  0  0  0  0  0  0  0
   12.5113  -10.1525    0.0000 O   0  0  0  0  0  0  0  0  0  0  0  0
   12.5090   -8.5025    0.0000 O   0  0  0  0  0  0  0  0  0  0  0  0
   11.0858  -12.6295    0.0000 O   0  0  0  0  0  0  0  0  0  0  0  0
    9.6580  -13.4564    0.0000 O   0  0  0  0  0  0  0  0  0  0  0  0
    8.2279  -12.6334    0.0000 O   0  0  0  0  0  0  0  0  0  0  0  0
    8.2256  -10.9834    0.0000 C   0  0  0  0  0  0  0  0  0  0  0  0
    8.9406  -11.3949    0.0000 C   0  0  1  0  0  0  0  0  0  0  0  0
    8.9418  -12.2199    0.0000 C   0  0  1  0  0  0  0  0  0  0  0  0
    9.6568  -12.6314    0.0000 C   0  0  2  0  0  0  0  0  0  0  0  0
   10.3707  -12.2179    0.0000 C   0  0  2  0  0  0  0  0  0  0  0  0
   10.3696  -11.3929    0.0000 C   0  0  1  0  0  0  0  0  0  0  0  0
    9.6546  -10.9814    0.0000 O   0  0  0  0  0  0  0  0  0  0  0  0
   11.0835  -10.9795    0.0000 O   0  0  0  0  0  0  0  0  0  0  0  0
    9.6534  -10.1564    0.0000 C   0  0  0  0  0  0  0  0  0  0  0  0
   10.3638   -7.2682    0.0000 C   0  0  0  0  0  0  0  0  0  0  0  0
   10.3581   -3.9682    0.0000 O   0  0  0  0  0  0  0  0  0  0  0  0
   11.7885   -4.7908    0.0000 O   0  0  0  0  0  0  0  0  0  0  0  0
   11.7913   -6.4407    0.0000 O   0  0  0  0  0  0  0  0  0  0  0  0
   10.3624   -6.4432    0.0000 C   0  0  2  0  0  0  0  0  0  0  0  0
   11.0761   -6.0295    0.0000 C   0  0  2  0  0  0  0  0  0  0  0  0
   11.0747   -5.2045    0.0000 C   0  0  1  0  0  0  0  0  0  0  0  0
   10.3596   -4.7932    0.0000 C   0  0  2  0  0  0  0  0  0  0  0  0
    9.6458   -5.2069    0.0000 C   0  0  1  0  0  0  0  0  0  0  0  0
    9.6472   -6.0319    0.0000 O   0  0  0  0  0  0  0  0  0  0  0  0
    8.9306   -4.7956    0.0000 O   0  0  0  0  0  0  0  0  0  0  0  0
    4.6438   -6.4456    0.0000 H   0  0  0  0  0  0  0  0  0  0  0  0
    5.3583   -5.2081    0.0000 C   0  0  0  0  0  0  0  0  0  0  0  0
    6.0727   -6.4456    0.0000 C   0  0  0  0  0  0  0  0  0  0  0  0
 64 66  1  1  0  0  0
 60 56  1  1  0  0  0
 56 34  1  0  0  0  0
 52 54  1  1  0  0  0
 51 44  1  6  0  0  0
 50 45  1  6  0  0  0
 49 46  1  1  0  0  0
 48 47  1  6  0  0  0
 53 48  1  0  0  0  0
 49 48  1  0  0  0  0
 50 49  1  0  0  0  0
 51 50  1  0  0  0  0
 52 51  1  0  0  0  0
 53 52  1  0  0  0  0
 55 41  1  0  0  0  0
 35 36  1  0  0  0  0
 63 57  1  6  0  0  0
 62 58  1  1  0  0  0
 61 59  1  6  0  0  0
 65 60  1  0  0  0  0
 61 60  1  0  0  0  0
 62 61  1  0  0  0  0
 63 62  1  0  0  0  0
  1  2  1  0  0  0  0
  2  3  1  0  0  0  0
  3  4  1  0  0  0  0
  4  5  1  0  0  0  0
  5  6  1  0  0  0  0
  6  7  1  0  0  0  0
  7  8  1  0  0  0  0
  8  9  1  0  0  0  0
  9 10  1  0  0  0  0
 10 11  1  0  0  0  0
 11 12  1  0  0  0  0
 12 13  1  0  0  0  0
 13 14  1  0  0  0  0
 14 15  1  0  0  0  0
 15 16  1  0  0  0  0
 16 17  1  0  0  0  0
 12 17  1  0  0  0  0
 17 18  1  0  0  0  0
  9 18  1  0  0  0  0
 18 19  1  0  0  0  0
 19 20  1  0  0  0  0
 20 21  1  0  0  0  0
  8 21  1  0  0  0  0
 21 22  2  0  0  0  0
  5 22  1  0  0  0  0
  1 22  1  0  0  0  0
 23 24  2  0  0  0  0
 23 66  1  0  0  0  0
  5 23  1  1  0  0  0
 17 25  1  1  0  0  0
 13 26  1  1  0  0  0
  2 27  1  0  0  0  0
  2 28  1  0  0  0  0
 29 30  1  0  0  0  0
 13 29  1  6  0  0  0
 15 31  1  6  0  0  0
 14 32  1  1  0  0  0
 12 33  1  6  0  0  0
 64 63  1  0  0  0  0
 65 64  1  0  0  0  0
 36 37  1  0  0  0  0
 37 38  1  0  0  0  0
 38 39  1  0  0  0  0
 39 40  1  0  0  0  0
 35 40  1  0  0  0  0
 39 54  1  6  0  0  0
 40 55  1  1  0  0  0
 38 42  1  1  0  0  0
 37 43  1  6  0  0  0
 36 34  1  1  0  0  0
 18 67  1  6  0  0  0
  9 68  1  1  0  0  0
  8 69  1  6  0  0  0
M  END
>  <cdx:fragmentId>
5

$$$$
