38684.cdx
  Mrv1902 05222410222D          

 34 38  0  0  0  0            999 V2000
    4.6697   -8.6213    0.0000 C   0  0  1  0  0  0  0  0  0  0  0  0
    4.4246   -7.8335    0.0000 O   0  0  0  0  0  0  0  0  0  0  0  0
    5.0981   -7.3570    0.0000 C   0  0  0  0  0  0  0  0  0  0  0  0
    5.7594   -7.8502    0.0000 C   0  0  0  0  0  0  0  0  0  0  0  0
    5.4946   -8.6316    0.0000 C   0  0  0  0  0  0  0  0  0  0  0  0
    6.0009   -9.2830    0.0000 C   0  0  0  0  0  0  0  0  0  0  0  0
    5.8073  -10.0850    0.0000 C   0  0  0  0  0  0  0  0  0  0  0  0
    5.0595  -10.4336    0.0000 C   0  0  1  0  0  0  0  0  0  0  0  0
    4.3208  -10.0663    0.0000 C   0  0  1  0  0  0  0  0  0  0  0  0
    3.6073  -10.4806    0.0000 C   0  0  0  0  0  0  0  0  0  0  0  0
    2.9929   -9.9301    0.0000 C   0  0  0  0  0  0  0  0  0  0  0  0
    3.3266   -9.1756    0.0000 C   0  0  0  0  0  0  0  0  0  0  0  0
    4.1473   -9.2598    0.0000 C   0  0  1  0  0  0  0  0  0  0  0  0
    5.2689   -9.0614    0.0000 O   0  0  0  0  0  0  0  0  0  0  0  0
    5.4250   -9.7873    0.0000 C   0  0  0  0  0  0  0  0  0  0  0  0
    5.1084   -6.5321    0.0000 O   0  0  0  0  0  0  0  0  0  0  0  0
    6.5471   -7.6051    0.0000 C   0  0  0  0  0  0  0  0  0  0  0  0
    7.1533   -8.1648    0.0000 C   0  0  0  0  0  0  0  0  0  0  0  0
    2.9124   -8.4621    0.0000 C   0  0  0  0  0  0  0  0  0  0  0  0
    5.0492  -11.2585    0.0000 O   0  0  0  0  0  0  0  0  0  0  0  0
    4.3475  -10.8909    0.0000 H   0  0  0  0  0  0  0  0  0  0  0  0
    3.8326   -8.4972    0.0000 H   0  0  0  0  0  0  0  0  0  0  0  0
    9.5242   -7.4548    0.0000 O   0  0  0  0  0  0  0  0  0  0  0  0
   10.7184   -8.5933    0.0000 O   0  0  0  0  0  0  0  0  0  0  0  0
   10.3295  -10.1968    0.0000 O   0  0  0  0  0  0  0  0  0  0  0  0
    9.3434  -11.2311    0.0000 O   0  0  0  0  0  0  0  0  0  0  0  0
    8.7463  -10.6618    0.0000 C   0  0  0  0  0  0  0  0  0  0  0  0
    8.9408   -9.8600    0.0000 C   0  0  2  0  0  0  0  0  0  0  0  0
    9.7324   -9.6276    0.0000 C   0  0  2  0  0  0  0  0  0  0  0  0
    9.9268   -8.8258    0.0000 C   0  0  1  0  0  0  0  0  0  0  0  0
    9.3297   -8.2565    0.0000 C   0  0  2  0  0  0  0  0  0  0  0  0
    8.5381   -8.4890    0.0000 C   0  0  1  0  0  0  0  0  0  0  0  0
    8.3437   -9.2908    0.0000 O   0  0  0  0  0  0  0  0  0  0  0  0
    7.9410   -7.9197    0.0000 O   0  0  0  0  0  0  0  0  0  0  0  0
 32 34  1  1  0  0  0
 31 23  1  6  0  0  0
 30 24  1  1  0  0  0
 29 25  1  6  0  0  0
 28 27  1  1  0  0  0
 27 26  1  0  0  0  0
 33 28  1  0  0  0  0
 29 28  1  0  0  0  0
 30 29  1  0  0  0  0
 31 30  1  0  0  0  0
 32 31  1  0  0  0  0
 33 32  1  0  0  0  0
  1  2  1  0  0  0  0
  2  3  1  0  0  0  0
  3  4  1  0  0  0  0
  4  5  2  0  0  0  0
  5  6  1  0  0  0  0
  6  7  2  0  0  0  0
  7  8  1  0  0  0  0
  8  9  1  0  0  0  0
  9 10  1  0  0  0  0
 10 11  1  0  0  0  0
 11 12  1  0  0  0  0
 12 13  1  0  0  0  0
 14 15  1  0  0  0  0
  1 13  1  0  0  0  0
  1 14  1  6  0  0  0
  8 15  1  6  0  0  0
  9 13  1  0  0  0  0
  1  5  1  0  0  0  0
  3 16  2  0  0  0  0
 17 18  1  0  0  0  0
 18 34  1  0  0  0  0
  4 17  1  0  0  0  0
 12 19  2  0  0  0  0
  8 20  1  0  0  0  0
  9 21  1  6  0  0  0
 13 22  1  6  0  0  0
M  END
>  <cdx:fragmentId>
5

$$$$
