38685.cdx
  Mrv1902 05222410232D          

 63 72  0  0  0  0            999 V2000
    5.2299   -6.1854    0.0000 C   0  0  2  0  0  0  0  0  0  0  0  0
    5.2254   -6.8454    0.0000 C   0  0  1  0  0  0  0  0  0  0  0  0
    4.6515   -7.1715    0.0000 C   0  0  2  0  0  0  0  0  0  0  0  0
    4.0822   -6.8375    0.0000 C   0  0  0  0  0  0  0  0  0  0  0  0
    3.5084   -7.1636    0.0000 C   0  0  0  0  0  0  0  0  0  0  0  0
    2.9391   -6.8297    0.0000 C   0  0  0  0  0  0  0  0  0  0  0  0
    2.9436   -6.1697    0.0000 C   0  0  0  0  0  0  0  0  0  0  0  0
    3.5175   -5.8436    0.0000 C   0  0  0  0  0  0  0  0  0  0  0  0
    4.0868   -6.1776    0.0000 C   0  0  0  0  0  0  0  0  0  0  0  0
    4.6606   -5.8515    0.0000 O   0  0  0  0  0  0  0  0  0  0  0  0
    5.7946   -7.1793    0.0000 O   0  0  0  0  0  0  0  0  0  0  0  0
    3.5039   -7.8236    0.0000 O   0  0  0  0  0  0  0  0  0  0  0  0
    2.3743   -5.8358    0.0000 O   0  0  0  0  0  0  0  0  0  0  0  0
    5.8037   -5.8594    0.0000 C   0  0  0  0  0  0  0  0  0  0  0  0
    6.3730   -6.1933    0.0000 C   0  0  0  0  0  0  0  0  0  0  0  0
    6.9469   -5.8672    0.0000 C   0  0  0  0  0  0  0  0  0  0  0  0
    6.9514   -5.2072    0.0000 C   0  0  0  0  0  0  0  0  0  0  0  0
    6.3821   -4.8733    0.0000 C   0  0  0  0  0  0  0  0  0  0  0  0
    5.8083   -5.1994    0.0000 C   0  0  0  0  0  0  0  0  0  0  0  0
    7.5252   -4.8812    0.0000 O   0  0  0  0  0  0  0  0  0  0  0  0
    5.2276   -9.4570    0.0000 C   0  0  2  0  0  0  0  0  0  0  0  0
    5.7904   -9.8018    0.0000 C   0  0  1  0  0  0  0  0  0  0  0  0
    6.3704   -9.4868    0.0000 C   0  0  2  0  0  0  0  0  0  0  0  0
    6.3876   -8.8270    0.0000 C   0  0  0  0  0  0  0  0  0  0  0  0
    6.9675   -8.5120    0.0000 C   0  0  0  0  0  0  0  0  0  0  0  0
    6.9847   -7.8523    0.0000 C   0  0  0  0  0  0  0  0  0  0  0  0
    6.4220   -7.5075    0.0000 C   0  0  0  0  0  0  0  0  0  0  0  0
    5.8420   -7.8225    0.0000 C   0  0  0  0  0  0  0  0  0  0  0  0
    5.8248   -8.4822    0.0000 C   0  0  0  0  0  0  0  0  0  0  0  0
    5.2448   -8.7972    0.0000 O   0  0  0  0  0  0  0  0  0  0  0  0
    5.7732  -10.4616    0.0000 O   0  0  0  0  0  0  0  0  0  0  0  0
    7.5303   -8.8568    0.0000 O   0  0  0  0  0  0  0  0  0  0  0  0
    4.6476   -9.7720    0.0000 C   0  0  0  0  0  0  0  0  0  0  0  0
    4.6304  -10.4318    0.0000 C   0  0  0  0  0  0  0  0  0  0  0  0
    4.0504  -10.7468    0.0000 C   0  0  0  0  0  0  0  0  0  0  0  0
    3.4876  -10.4020    0.0000 C   0  0  0  0  0  0  0  0  0  0  0  0
    3.5048   -9.7422    0.0000 C   0  0  0  0  0  0  0  0  0  0  0  0
    4.0848   -9.4272    0.0000 C   0  0  0  0  0  0  0  0  0  0  0  0
    2.9077  -10.7170    0.0000 O   0  0  0  0  0  0  0  0  0  0  0  0
    8.6195   -8.7630    0.0000 C   0  0  2  0  0  0  0  0  0  0  0  0
    9.1779   -9.1148    0.0000 C   0  0  2  0  0  0  0  0  0  0  0  0
    9.1524   -9.7743    0.0000 C   0  0  0  0  0  0  0  0  0  0  0  0
    8.5685  -10.0820    0.0000 C   0  0  0  0  0  0  0  0  0  0  0  0
    8.5430  -10.7415    0.0000 C   0  0  0  0  0  0  0  0  0  0  0  0
    7.9591  -11.0491    0.0000 C   0  0  0  0  0  0  0  0  0  0  0  0
    7.4007  -10.6973    0.0000 C   0  0  0  0  0  0  0  0  0  0  0  0
    7.4262  -10.0378    0.0000 C   0  0  0  0  0  0  0  0  0  0  0  0
    8.0101   -9.7301    0.0000 C   0  0  0  0  0  0  0  0  0  0  0  0
    8.0356   -9.0706    0.0000 O   0  0  0  0  0  0  0  0  0  0  0  0
    9.7618   -8.8071    0.0000 O   0  0  0  0  0  0  0  0  0  0  0  0
    9.1014  -11.0933    0.0000 O   0  0  0  0  0  0  0  0  0  0  0  0
    6.8168  -11.0050    0.0000 O   0  0  0  0  0  0  0  0  0  0  0  0
    8.6450   -8.1034    0.0000 C   0  0  0  0  0  0  0  0  0  0  0  0
    9.2289   -7.7958    0.0000 C   0  0  0  0  0  0  0  0  0  0  0  0
    9.2544   -7.1363    0.0000 C   0  0  0  0  0  0  0  0  0  0  0  0
    8.6960   -6.7844    0.0000 C   0  0  0  0  0  0  0  0  0  0  0  0
    8.1121   -7.0921    0.0000 C   0  0  0  0  0  0  0  0  0  0  0  0
    8.0866   -7.7516    0.0000 C   0  0  0  0  0  0  0  0  0  0  0  0
    8.7215   -6.1249    0.0000 O   0  0  0  0  0  0  0  0  0  0  0  0
    6.4297   -6.9028    0.0000 O   0  0  0  0  0  0  0  0  0  0  0  0
    6.3740   -4.1721    0.0000 O   0  0  0  0  0  0  0  0  0  0  0  0
    7.5140   -6.7240    0.0000 O   0  0  0  0  0  0  0  0  0  0  0  0
    2.8701   -9.4350    0.0000 O   0  0  0  0  0  0  0  0  0  0  0  0
  1  2  1  0  0  0  0
  2  3  1  0  0  0  0
  3  4  1  0  0  0  0
  4  5  1  0  0  0  0
  5  6  2  0  0  0  0
  6  7  1  0  0  0  0
  7  8  2  0  0  0  0
  8  9  1  0  0  0  0
  4  9  2  0  0  0  0
  9 10  1  0  0  0  0
  1 10  1  0  0  0  0
  2 11  1  6  0  0  0
  5 12  1  0  0  0  0
  7 13  1  0  0  0  0
 14 15  1  0  0  0  0
 15 16  2  0  0  0  0
 16 17  1  0  0  0  0
 17 18  2  0  0  0  0
 18 19  1  0  0  0  0
 14 19  2  0  0  0  0
 17 20  1  0  0  0  0
  1 14  1  6  0  0  0
 21 22  1  0  0  0  0
 22 23  1  0  0  0  0
 23 24  1  0  0  0  0
 24 25  1  0  0  0  0
 25 26  2  0  0  0  0
 26 27  1  0  0  0  0
 27 28  2  0  0  0  0
 28 29  1  0  0  0  0
 24 29  2  0  0  0  0
 29 30  1  0  0  0  0
 21 30  1  0  0  0  0
 22 31  1  1  0  0  0
 25 32  1  0  0  0  0
 33 34  1  0  0  0  0
 34 35  2  0  0  0  0
 35 36  1  0  0  0  0
 36 37  2  0  0  0  0
 37 38  1  0  0  0  0
 33 38  2  0  0  0  0
 36 39  1  0  0  0  0
 21 33  1  1  0  0  0
 40 41  1  0  0  0  0
 41 42  1  0  0  0  0
 42 43  1  0  0  0  0
 43 44  1  0  0  0  0
 44 45  2  0  0  0  0
 45 46  1  0  0  0  0
 46 47  2  0  0  0  0
 47 48  1  0  0  0  0
 43 48  2  0  0  0  0
 48 49  1  0  0  0  0
 40 49  1  0  0  0  0
 41 50  1  1  0  0  0
 44 51  1  0  0  0  0
 46 52  1  0  0  0  0
 53 54  1  0  0  0  0
 54 55  2  0  0  0  0
 55 56  1  0  0  0  0
 56 57  2  0  0  0  0
 57 58  1  0  0  0  0
 53 58  2  0  0  0  0
 56 59  1  0  0  0  0
 40 53  1  6  0  0  0
 27 60  1  0  0  0  0
  1 60  1  1  0  0  0
  3 28  1  1  0  0  0
 18 61  1  0  0  0  0
 57 62  1  0  0  0  0
 37 63  1  0  0  0  0
 23 47  1  6  0  0  0
M  END
>  <cdx:fragmentId>
113

$$$$
