38683.cdx
  Mrv1902 05222410212D          

 29 32  0  0  0  0            999 V2000
    6.1478   -7.5554    0.0000 O   0  0  0  0  0  0  0  0  0  0  0  0
    5.4311   -7.9640    0.0000 C   0  0  2  0  0  0  0  0  0  0  0  0
    4.7189   -7.5475    0.0000 O   0  0  0  0  0  0  0  0  0  0  0  0
    4.0022   -7.9561    0.0000 C   0  0  1  0  0  0  0  0  0  0  0  0
    3.9976   -8.7811    0.0000 C   0  0  2  0  0  0  0  0  0  0  0  0
    4.7098   -9.1975    0.0000 C   0  0  1  0  0  0  0  0  0  0  0  0
    5.4265   -8.7889    0.0000 C   0  0  1  0  0  0  0  0  0  0  0  0
    3.2900   -7.5397    0.0000 C   0  0  0  0  0  0  0  0  0  0  0  0
    4.7053  -10.0225    0.0000 O   0  0  0  0  0  0  0  0  0  0  0  0
    3.2809   -9.1896    0.0000 O   0  0  0  0  0  0  0  0  0  0  0  0
    6.1387   -9.2054    0.0000 O   0  0  0  0  0  0  0  0  0  0  0  0
    2.5732   -7.9482    0.0000 O   0  0  0  0  0  0  0  0  0  0  0  0
    6.8611   -7.9699    0.0000 C   0  0  1  0  0  0  0  0  0  0  0  0
    6.8588   -8.7949    0.0000 C   0  0  0  0  0  0  0  0  0  0  0  0
    7.5721   -9.2094    0.0000 C   0  0  0  0  0  0  0  0  0  0  0  0
    8.2878   -8.7989    0.0000 C   0  0  1  0  0  0  0  0  0  0  0  0
    8.2901   -7.9739    0.0000 C   0  0  0  0  0  0  0  0  0  0  0  0
    7.5767   -7.5594    0.0000 C   0  0  0  0  0  0  0  0  0  0  0  0
    9.0011   -9.2134    0.0000 C   0  0  0  0  0  0  0  0  0  0  0  0
    9.7167   -8.8029    0.0000 C   0  0  0  0  0  0  0  0  0  0  0  0
    9.7190   -7.9779    0.0000 C   0  0  2  0  0  0  0  0  0  0  0  0
    9.0057   -7.5634    0.0000 C   0  0  2  0  0  0  0  0  0  0  0  0
   10.3336   -7.4276    0.0000 C   0  0  0  0  0  0  0  0  0  0  0  0
   10.0002   -6.6730    0.0000 C   0  0  0  0  0  0  0  0  0  0  0  0
    9.1795   -6.7569    0.0000 O   0  0  0  0  0  0  0  0  0  0  0  0
    7.5791   -6.7344    0.0000 C   0  0  0  0  0  0  0  0  0  0  0  0
    8.2854   -9.6239    0.0000 C   0  0  0  0  0  0  0  0  0  0  0  0
   10.4147   -5.9597    0.0000 O   0  0  0  0  0  0  0  0  0  0  0  0
   11.1299   -7.6433    0.0000 C   0  0  0  0  0  0  0  0  0  0  0  0
  2  1  1  1  0  0  0
  2  3  1  0  0  0  0
  3  4  1  0  0  0  0
  4  5  1  0  0  0  0
  5  6  1  0  0  0  0
  6  7  1  0  0  0  0
  7  2  1  0  0  0  0
  4  8  1  1  0  0  0
  6  9  1  1  0  0  0
  5 10  1  6  0  0  0
  7 11  1  6  0  0  0
 13 14  1  0  0  0  0
 14 15  1  0  0  0  0
 15 16  1  0  0  0  0
 16 17  1  0  0  0  0
 17 18  2  0  0  0  0
 18 13  1  0  0  0  0
 16 19  1  0  0  0  0
 19 20  1  0  0  0  0
 20 21  1  0  0  0  0
 21 22  1  0  0  0  0
 22 17  1  0  0  0  0
 21 23  1  6  0  0  0
 23 24  1  0  0  0  0
 24 25  1  0  0  0  0
 22 25  1  1  0  0  0
  8 12  1  0  0  0  0
 13  1  1  6  0  0  0
 18 26  1  0  0  0  0
 16 27  1  6  0  0  0
 24 28  2  0  0  0  0
 23 29  2  0  0  0  0
M  END
>  <cdx:fragmentId>
5

$$$$
