38686.cdx
  Mrv1902 05222410222D          

 85 97  0  0  0  0            999 V2000
    5.9405   -6.8475    0.0000 C   0  0  0  0  0  0  0  0  0  0  0  0
    5.9405   -7.6725    0.0000 C   0  0  0  0  0  0  0  0  0  0  0  0
    6.6550   -8.0850    0.0000 C   0  0  1  0  0  0  0  0  0  0  0  0
    7.3695   -7.6725    0.0000 C   0  0  2  0  0  0  0  0  0  0  0  0
    7.3695   -6.8475    0.0000 C   0  0  1  0  0  0  0  0  0  0  0  0
    6.6550   -6.4350    0.0000 O   0  0  0  0  0  0  0  0  0  0  0  0
    5.2261   -6.4350    0.0000 C   0  0  0  0  0  0  0  0  0  0  0  0
    4.5116   -6.8475    0.0000 C   0  0  0  0  0  0  0  0  0  0  0  0
    4.5116   -7.6725    0.0000 C   0  0  0  0  0  0  0  0  0  0  0  0
    5.2261   -8.0850    0.0000 C   0  0  0  0  0  0  0  0  0  0  0  0
    7.8655   -8.7450    0.0000 C   0  0  0  0  0  0  0  0  0  0  0  0
    7.8655   -9.5700    0.0000 C   0  0  0  0  0  0  0  0  0  0  0  0
    8.5800   -9.9825    0.0000 C   0  0  0  0  0  0  0  0  0  0  0  0
    9.2945   -9.5700    0.0000 C   0  0  0  0  0  0  0  0  0  0  0  0
    9.2945   -8.7450    0.0000 C   0  0  0  0  0  0  0  0  0  0  0  0
    8.5800   -8.3325    0.0000 C   0  0  0  0  0  0  0  0  0  0  0  0
    7.1511   -9.9825    0.0000 O   0  0  0  0  0  0  0  0  0  0  0  0
    7.1511  -10.8075    0.0000 C   0  0  1  0  0  0  0  0  0  0  0  0
    7.8655  -11.2200    0.0000 C   0  0  1  0  0  0  0  0  0  0  0  0
    8.5800  -10.8075    0.0000 C   0  0  1  0  0  0  0  0  0  0  0  0
    8.5800   -7.5075    0.0000 O   0  0  0  0  0  0  0  0  0  0  0  0
    8.0839   -8.0850    0.0000 O   0  0  0  0  0  0  0  0  0  0  0  0
   10.0089   -9.9825    0.0000 O   0  0  0  0  0  0  0  0  0  0  0  0
    7.8655  -12.0450    0.0000 O   0  0  0  0  0  0  0  0  0  0  0  0
    6.4366  -11.2200    0.0000 C   0  0  0  0  0  0  0  0  0  0  0  0
    5.7221  -10.8075    0.0000 C   0  0  0  0  0  0  0  0  0  0  0  0
    5.0076  -11.2200    0.0000 C   0  0  0  0  0  0  0  0  0  0  0  0
    5.0076  -12.0450    0.0000 C   0  0  0  0  0  0  0  0  0  0  0  0
    5.7221  -12.4575    0.0000 C   0  0  0  0  0  0  0  0  0  0  0  0
    6.4366  -12.0450    0.0000 C   0  0  0  0  0  0  0  0  0  0  0  0
    4.2932  -10.8075    0.0000 O   0  0  0  0  0  0  0  0  0  0  0  0
    4.2932  -12.4575    0.0000 O   0  0  0  0  0  0  0  0  0  0  0  0
    5.2261   -8.9100    0.0000 O   0  0  0  0  0  0  0  0  0  0  0  0
    3.7971   -6.4350    0.0000 O   0  0  0  0  0  0  0  0  0  0  0  0
    8.0839   -6.4350    0.0000 C   0  0  0  0  0  0  0  0  0  0  0  0
    8.7984   -6.8475    0.0000 C   0  0  0  0  0  0  0  0  0  0  0  0
    9.5129   -6.4350    0.0000 C   0  0  0  0  0  0  0  0  0  0  0  0
    9.5129   -5.6100    0.0000 C   0  0  0  0  0  0  0  0  0  0  0  0
    8.7984   -5.1975    0.0000 C   0  0  0  0  0  0  0  0  0  0  0  0
    8.0839   -5.6100    0.0000 C   0  0  0  0  0  0  0  0  0  0  0  0
    8.7984   -4.3725    0.0000 O   0  0  0  0  0  0  0  0  0  0  0  0
   10.2274   -5.1975    0.0000 O   0  0  0  0  0  0  0  0  0  0  0  0
    9.8170  -11.4950    0.0000 C   0  0  0  0  0  0  0  0  0  0  0  0
    9.8170  -12.3200    0.0000 C   0  0  0  0  0  0  0  0  0  0  0  0
   10.5314  -12.7325    0.0000 C   0  0  0  0  0  0  0  0  0  0  0  0
   11.2459  -12.3200    0.0000 C   0  0  0  0  0  0  0  0  0  0  0  0
   11.2459  -11.4950    0.0000 C   0  0  0  0  0  0  0  0  0  0  0  0
   10.5314  -11.0825    0.0000 C   0  0  0  0  0  0  0  0  0  0  0  0
   11.9604  -11.0825    0.0000 C   0  0  0  0  0  0  0  0  0  0  0  0
   11.9604  -10.2575    0.0000 C   0  0  1  0  0  0  0  0  0  0  0  0
   11.2459   -9.8450    0.0000 C   0  0  2  0  0  0  0  0  0  0  0  0
   10.5314  -10.2575    0.0000 O   0  0  0  0  0  0  0  0  0  0  0  0
   11.2459   -9.0200    0.0000 C   0  0  0  0  0  0  0  0  0  0  0  0
   11.9604   -8.6075    0.0000 C   0  0  0  0  0  0  0  0  0  0  0  0
   11.9604   -7.7825    0.0000 C   0  0  0  0  0  0  0  0  0  0  0  0
   11.2459   -7.3700    0.0000 C   0  0  0  0  0  0  0  0  0  0  0  0
   10.5314   -7.7825    0.0000 C   0  0  0  0  0  0  0  0  0  0  0  0
   10.5314   -8.6075    0.0000 C   0  0  0  0  0  0  0  0  0  0  0  0
   11.2459   -6.5450    0.0000 O   0  0  0  0  0  0  0  0  0  0  0  0
    9.8170   -7.3700    0.0000 O   0  0  0  0  0  0  0  0  0  0  0  0
    9.1025  -12.7325    0.0000 O   0  0  0  0  0  0  0  0  0  0  0  0
   11.9604  -12.7325    0.0000 O   0  0  0  0  0  0  0  0  0  0  0  0
   12.6749   -9.8450    0.0000 O   0  0  0  0  0  0  0  0  0  0  0  0
    8.7984   -4.0700    0.0000 O   0  0  0  0  0  0  0  0  0  0  0  0
    8.7984   -2.4200    0.0000 O   0  0  0  0  0  0  0  0  0  0  0  0
    7.3695   -4.0700    0.0000 C   0  0  0  0  0  0  0  0  0  0  0  0
    8.0839   -3.6575    0.0000 C   0  0  0  0  0  0  0  0  0  0  0  0
    8.0839   -2.8325    0.0000 C   0  0  0  0  0  0  0  0  0  0  0  0
    7.3695   -2.4200    0.0000 C   0  0  0  0  0  0  0  0  0  0  0  0
    6.6550   -2.8325    0.0000 C   0  0  0  0  0  0  0  0  0  0  0  0
    6.6550   -3.6575    0.0000 C   0  0  0  0  0  0  0  0  0  0  0  0
    6.6550   -5.3075    0.0000 O   0  0  0  0  0  0  0  0  0  0  0  0
    3.7971   -6.1325    0.0000 O   0  0  0  0  0  0  0  0  0  0  0  0
    2.3682   -3.6575    0.0000 O   0  0  0  0  0  0  0  0  0  0  0  0
    3.7971   -3.6575    0.0000 C   0  0  0  0  0  0  0  0  0  0  0  0
    3.0826   -4.0700    0.0000 C   0  0  0  0  0  0  0  0  0  0  0  0
    3.0826   -4.8950    0.0000 C   0  0  0  0  0  0  0  0  0  0  0  0
    3.7971   -5.3075    0.0000 C   0  0  0  0  0  0  0  0  0  0  0  0
    5.9405   -4.8950    0.0000 C   0  0  1  0  0  0  0  0  0  0  0  0
    5.9405   -4.0700    0.0000 C   0  0  2  0  0  0  0  0  0  0  0  0
    5.2261   -3.6575    0.0000 O   0  0  0  0  0  0  0  0  0  0  0  0
    4.5116   -4.0700    0.0000 C   0  0  0  0  0  0  0  0  0  0  0  0
    4.5116   -4.8950    0.0000 C   0  0  0  0  0  0  0  0  0  0  0  0
    5.2261   -5.3075    0.0000 C   0  0  2  0  0  0  0  0  0  0  0  0
    5.8094   -5.8909    0.0000 H   0  0  0  0  0  0  0  0  0  0  0  0
  1  2  2  0  0  0  0
  2  3  1  0  0  0  0
  3  4  1  0  0  0  0
  4  5  1  0  0  0  0
  5  6  1  0  0  0  0
  6  1  1  0  0  0  0
  1  7  1  0  0  0  0
  7  8  2  0  0  0  0
  8  9  1  0  0  0  0
  9 10  2  0  0  0  0
 10  2  1  0  0  0  0
 11 12  1  0  0  0  0
 12 13  2  0  0  0  0
 13 14  1  0  0  0  0
 14 15  2  0  0  0  0
 15 16  1  0  0  0  0
 16 11  2  0  0  0  0
 12 17  1  0  0  0  0
 17 18  1  0  0  0  0
 18 19  1  0  0  0  0
 19 20  1  0  0  0  0
 20 13  1  0  0  0  0
 16 21  1  0  0  0  0
  3 11  1  1  0  0  0
  5 21  1  1  0  0  0
  4 22  1  6  0  0  0
 14 23  1  0  0  0  0
 19 24  1  1  0  0  0
 18 25  1  1  0  0  0
 25 26  2  0  0  0  0
 26 27  1  0  0  0  0
 27 28  2  0  0  0  0
 28 29  1  0  0  0  0
 29 30  2  0  0  0  0
 30 25  1  0  0  0  0
 27 31  1  0  0  0  0
 28 32  1  0  0  0  0
 10 33  1  0  0  0  0
  8 34  1  0  0  0  0
  5 35  1  6  0  0  0
 35 36  2  0  0  0  0
 36 37  1  0  0  0  0
 37 38  2  0  0  0  0
 38 39  1  0  0  0  0
 39 40  2  0  0  0  0
 40 35  1  0  0  0  0
 39 41  1  0  0  0  0
 38 42  1  0  0  0  0
 20 43  1  6  0  0  0
 43 44  2  0  0  0  0
 44 45  1  0  0  0  0
 45 46  2  0  0  0  0
 46 47  1  0  0  0  0
 47 48  2  0  0  0  0
 48 43  1  0  0  0  0
 47 49  1  0  0  0  0
 49 50  1  0  0  0  0
 50 51  1  0  0  0  0
 51 52  1  0  0  0  0
 52 48  1  0  0  0  0
 51 53  1  6  0  0  0
 53 54  2  0  0  0  0
 54 55  1  0  0  0  0
 55 56  2  0  0  0  0
 56 57  1  0  0  0  0
 57 58  2  0  0  0  0
 58 53  1  0  0  0  0
 56 59  1  0  0  0  0
 57 60  1  0  0  0  0
 44 61  1  0  0  0  0
 46 62  1  0  0  0  0
 50 63  1  1  0  0  0
 67 64  1  0  0  0  0
  7 84  1  0  0  0  0
 68 65  1  0  0  0  0
 66 71  1  0  0  0  0
 67 66  2  0  0  0  0
 68 67  1  0  0  0  0
 69 68  2  0  0  0  0
 70 69  1  0  0  0  0
 71 70  2  0  0  0  0
 80 71  1  6  0  0  0
 79 72  1  6  0  0  0
 78 73  1  0  0  0  0
 76 74  1  0  0  0  0
 75 82  1  0  0  0  0
 76 75  2  0  0  0  0
 77 76  1  0  0  0  0
 78 77  2  0  0  0  0
 83 78  1  0  0  0  0
 79 84  1  0  0  0  0
 80 79  1  0  0  0  0
 81 80  1  0  0  0  0
 82 81  1  0  0  0  0
 83 82  2  0  0  0  0
 84 83  1  0  0  0  0
 84 85  1  6  0  0  0
M  END
>  <cdx:fragmentId>
32783

$$$$
