1481.cdx
  Mrv1902 05222410202D          

 52 57  0  0  0  0            999 V2000
    6.1371   -5.3510    0.0000 C   0  0  0  0  0  0  0  0  0  0  0  0
    6.8516   -5.7635    0.0000 C   0  0  0  0  0  0  0  0  0  0  0  0
    6.8516   -6.5885    0.0000 C   0  0  0  0  0  0  0  0  0  0  0  0
    6.1371   -7.0010    0.0000 C   0  0  0  0  0  0  0  0  0  0  0  0
    5.4226   -6.5885    0.0000 C   0  0  0  0  0  0  0  0  0  0  0  0
    4.7081   -7.0010    0.0000 C   0  0  0  0  0  0  0  0  0  0  0  0
    3.9937   -6.5885    0.0000 C   0  0  0  0  0  0  0  0  0  0  0  0
    3.2792   -7.0010    0.0000 C   0  0  0  0  0  0  0  0  0  0  0  0
    2.5647   -6.5885    0.0000 C   0  0  0  0  0  0  0  0  0  0  0  0
    2.5647   -5.7635    0.0000 C   0  0  0  0  0  0  0  0  0  0  0  0
    3.2792   -5.3510    0.0000 C   0  0  0  0  0  0  0  0  0  0  0  0
    3.9937   -5.7635    0.0000 C   0  0  0  0  0  0  0  0  0  0  0  0
    4.7081   -5.3510    0.0000 C   0  0  0  0  0  0  0  0  0  0  0  0
    5.4226   -5.7635    0.0000 C   0  0  0  0  0  0  0  0  0  0  0  0
    4.7081   -4.5260    0.0000 O   0  0  0  0  0  0  0  0  0  0  0  0
    4.7081   -7.8260    0.0000 O   0  0  0  0  0  0  0  0  0  0  0  0
    7.5660   -7.0010    0.0000 C   0  0  0  0  0  0  0  0  0  0  0  0
    3.2792   -4.5260    0.0000 O   0  0  0  0  0  0  0  0  0  0  0  0
    6.1371   -4.5260    0.0000 O   0  0  0  0  0  0  0  0  0  0  0  0
    7.5660   -4.5260    0.0000 O   0  0  0  0  0  0  0  0  0  0  0  0
    6.8516   -4.1135    0.0000 C   0  0  2  0  0  0  0  0  0  0  0  0
    6.8516   -3.2885    0.0000 C   0  0  1  0  0  0  0  0  0  0  0  0
    7.5660   -2.8760    0.0000 C   0  0  2  0  0  0  0  0  0  0  0  0
    8.2805   -3.2885    0.0000 C   0  0  1  0  0  0  0  0  0  0  0  0
    8.2805   -4.1135    0.0000 C   0  0  1  0  0  0  0  0  0  0  0  0
    8.9950   -2.8760    0.0000 O   0  0  0  0  0  0  0  0  0  0  0  0
    7.5660   -2.0510    0.0000 O   0  0  0  0  0  0  0  0  0  0  0  0
    6.1371   -2.8760    0.0000 O   0  0  0  0  0  0  0  0  0  0  0  0
    8.9950   -4.5260    0.0000 C   0  0  0  0  0  0  0  0  0  0  0  0
    9.7094   -4.1135    0.0000 O   0  0  0  0  0  0  0  0  0  0  0  0
   10.4239   -5.3510    0.0000 O   0  0  0  0  0  0  0  0  0  0  0  0
   10.4239   -4.5260    0.0000 C   0  0  2  0  0  0  0  0  0  0  0  0
   11.1384   -4.1135    0.0000 C   0  0  1  0  0  0  0  0  0  0  0  0
   11.8529   -4.5260    0.0000 C   0  0  2  0  0  0  0  0  0  0  0  0
   11.8529   -5.3510    0.0000 C   0  0  1  0  0  0  0  0  0  0  0  0
   11.1384   -5.7635    0.0000 C   0  0  1  0  0  0  0  0  0  0  0  0
   12.5673   -4.1135    0.0000 O   0  0  0  0  0  0  0  0  0  0  0  0
   13.2818   -5.3510    0.0000 O   0  0  0  0  0  0  0  0  0  0  0  0
   13.2818   -4.5260    0.0000 C   0  0  2  0  0  0  0  0  0  0  0  0
   13.9963   -4.1135    0.0000 C   0  0  1  0  0  0  0  0  0  0  0  0
   14.7107   -4.5260    0.0000 C   0  0  2  0  0  0  0  0  0  0  0  0
   14.7107   -5.3510    0.0000 C   0  0  1  0  0  0  0  0  0  0  0  0
   13.9963   -5.7635    0.0000 C   0  0  1  0  0  0  0  0  0  0  0  0
   13.9963   -6.5885    0.0000 C   0  0  0  0  0  0  0  0  0  0  0  0
   14.7107   -7.0010    0.0000 O   0  0  0  0  0  0  0  0  0  0  0  0
   15.4252   -5.7635    0.0000 O   0  0  0  0  0  0  0  0  0  0  0  0
   15.4252   -4.1135    0.0000 O   0  0  0  0  0  0  0  0  0  0  0  0
   13.9963   -3.2885    0.0000 O   0  0  0  0  0  0  0  0  0  0  0  0
   11.1384   -6.5885    0.0000 C   0  0  0  0  0  0  0  0  0  0  0  0
   11.8529   -7.0010    0.0000 O   0  0  0  0  0  0  0  0  0  0  0  0
   12.5673   -5.7635    0.0000 O   0  0  0  0  0  0  0  0  0  0  0  0
   11.1384   -3.2885    0.0000 O   0  0  0  0  0  0  0  0  0  0  0  0
  1  2  1  0  0  0  0
  2  3  2  0  0  0  0
  3  4  1  0  0  0  0
  4  5  2  0  0  0  0
  5  6  1  0  0  0  0
  6  7  1  0  0  0  0
  7  8  1  0  0  0  0
  8  9  2  0  0  0  0
  9 10  1  0  0  0  0
 10 11  2  0  0  0  0
 11 12  1  0  0  0  0
  7 12  2  0  0  0  0
 12 13  1  0  0  0  0
 13 14  1  0  0  0  0
  5 14  1  0  0  0  0
  1 14  2  0  0  0  0
 13 15  2  0  0  0  0
  6 16  2  0  0  0  0
  3 17  1  0  0  0  0
 11 18  1  0  0  0  0
 20 21  1  0  0  0  0
 21 22  1  0  0  0  0
 22 23  1  0  0  0  0
 23 24  1  0  0  0  0
 24 25  1  0  0  0  0
 20 25  1  0  0  0  0
 24 26  1  6  0  0  0
 23 27  1  1  0  0  0
 22 28  1  6  0  0  0
 31 32  1  0  0  0  0
 32 33  1  0  0  0  0
 33 34  1  0  0  0  0
 34 35  1  0  0  0  0
 35 36  1  0  0  0  0
 31 36  1  0  0  0  0
 38 39  1  0  0  0  0
 39 40  1  0  0  0  0
 40 41  1  0  0  0  0
 41 42  1  0  0  0  0
 42 43  1  0  0  0  0
 38 43  1  0  0  0  0
 44 45  1  0  0  0  0
 43 44  1  1  0  0  0
 42 46  1  6  0  0  0
 41 47  1  1  0  0  0
 40 48  1  6  0  0  0
 39 37  1  1  0  0  0
 34 37  1  1  0  0  0
 49 50  1  0  0  0  0
 36 49  1  1  0  0  0
 35 51  1  6  0  0  0
 33 52  1  6  0  0  0
 32 30  1  1  0  0  0
 29 30  1  0  0  0  0
 25 29  1  1  0  0  0
 21 19  1  1  0  0  0
  1 19  1  0  0  0  0
M  END
>  <cdx:fragmentId>
31767

$$$$
