38698.cdx
  Mrv1902 05222410262D          

 42 46  0  0  0  0            999 V2000
    7.7959   -7.0751    0.0000 C   0  0  0  0  0  0  0  0  0  0  0  0
    7.0948   -6.6404    0.0000 C   0  0  0  0  0  0  0  0  0  0  0  0
    7.1207   -5.8158    0.0000 C   0  0  0  0  0  0  0  0  0  0  0  0
    8.5230   -6.6853    0.0000 O   0  0  0  0  0  0  0  0  0  0  0  0
    7.7700   -7.8997    0.0000 O   0  0  0  0  0  0  0  0  0  0  0  0
    6.4196   -5.3810    0.0000 C   0  0  0  0  0  0  0  0  0  0  0  0
    6.4455   -4.5564    0.0000 C   0  0  0  0  0  0  0  0  0  0  0  0
    5.7444   -4.1217    0.0000 C   0  0  0  0  0  0  0  0  0  0  0  0
    5.0173   -4.5115    0.0000 C   0  0  0  0  0  0  0  0  0  0  0  0
    4.9913   -5.3361    0.0000 C   0  0  0  0  0  0  0  0  0  0  0  0
    5.6925   -5.7708    0.0000 C   0  0  0  0  0  0  0  0  0  0  0  0
    5.6266   -9.9622    0.0000 C   0  0  0  0  0  0  0  0  0  0  0  0
    4.9121  -10.3747    0.0000 C   0  0  0  0  0  0  0  0  0  0  0  0
    4.9121  -11.1997    0.0000 C   0  0  1  0  0  0  0  0  0  0  0  0
    5.6266  -11.6122    0.0000 C   0  0  0  0  0  0  0  0  0  0  0  0
    6.3411  -11.1997    0.0000 C   0  0  0  0  0  0  0  0  0  0  0  0
    7.0555  -11.6122    0.0000 C   0  0  0  0  0  0  0  0  0  0  0  0
    7.7700  -11.1997    0.0000 C   0  0  0  0  0  0  0  0  0  0  0  0
    7.7700  -10.3747    0.0000 C   0  0  1  0  0  0  0  0  0  0  0  0
    8.4845   -9.9622    0.0000 C   0  0  1  0  0  0  0  0  0  0  0  0
    9.2691  -10.2171    0.0000 C   0  0  0  0  0  0  0  0  0  0  0  0
    9.7540   -9.5497    0.0000 C   0  0  0  0  0  0  0  0  0  0  0  0
    9.2691   -8.8823    0.0000 C   0  0  1  0  0  0  0  0  0  0  0  0
    8.4845   -9.1372    0.0000 C   0  0  1  0  0  0  0  0  0  0  0  0
    7.7700   -8.7247    0.0000 C   0  0  1  0  0  0  0  0  0  0  0  0
    7.0555   -9.1372    0.0000 C   0  0  2  0  0  0  0  0  0  0  0  0
    7.0555   -9.9622    0.0000 C   0  0  2  0  0  0  0  0  0  0  0  0
    6.3411  -10.3747    0.0000 C   0  0  1  0  0  0  0  0  0  0  0  0
    8.4845   -8.3122    0.0000 C   0  0  0  0  0  0  0  0  0  0  0  0
    6.3411   -9.5497    0.0000 C   0  0  0  0  0  0  0  0  0  0  0  0
    8.4845  -10.7872    0.0000 O   0  0  0  0  0  0  0  0  0  0  0  0
    4.1977  -11.6122    0.0000 O   0  0  0  0  0  0  0  0  0  0  0  0
    9.5240   -8.0976    0.0000 C   0  0  0  0  0  0  0  0  0  0  0  0
    8.9720   -7.4845    0.0000 C   0  0  0  0  0  0  0  0  0  0  0  0
   10.3310   -7.9261    0.0000 O   0  0  0  0  0  0  0  0  0  0  0  0
    7.7700   -9.5497    0.0000 O   0  0  0  0  0  0  0  0  0  0  0  0
    7.0555  -10.7872    0.0000 H   0  0  0  0  0  0  0  0  0  0  0  0
    6.3411   -8.7247    0.0000 O   0  0  0  0  0  0  0  0  0  0  0  0
    5.5161   -8.7247    0.0000 C   0  0  0  0  0  0  0  0  0  0  0  0
    5.1036   -8.0102    0.0000 O   0  0  0  0  0  0  0  0  0  0  0  0
    5.1036   -9.4392    0.0000 C   0  0  0  0  0  0  0  0  0  0  0  0
   10.0839   -8.7532    0.0000 H   0  0  0  0  0  0  0  0  0  0  0  0
  1  2  1  0  0  0  0
  2  3  2  0  0  0  0
  1  4  2  0  0  0  0
  1  5  1  0  0  0  0
  6  7  1  0  0  0  0
  7  8  2  0  0  0  0
  8  9  1  0  0  0  0
  9 10  2  0  0  0  0
 10 11  1  0  0  0  0
  6 11  2  0  0  0  0
  3  6  1  0  0  0  0
 12 13  1  0  0  0  0
 13 14  1  0  0  0  0
 14 15  1  0  0  0  0
 15 16  1  0  0  0  0
 16 17  2  0  0  0  0
 17 18  1  0  0  0  0
 18 19  1  0  0  0  0
 19 20  1  0  0  0  0
 20 21  1  0  0  0  0
 21 22  1  0  0  0  0
 22 23  1  0  0  0  0
 23 24  1  0  0  0  0
 20 24  1  0  0  0  0
 24 25  1  0  0  0  0
 25 26  1  0  0  0  0
 26 27  1  0  0  0  0
 19 27  1  0  0  0  0
 27 28  1  0  0  0  0
 16 28  1  0  0  0  0
 12 28  1  0  0  0  0
 24 29  1  1  0  0  0
 28 30  1  1  0  0  0
 20 31  1  1  0  0  0
 14 32  1  1  0  0  0
 33 34  1  0  0  0  0
 33 35  2  0  0  0  0
 23 33  1  0  0  0  0
 25  5  1  1  0  0  0
 19 36  1  1  0  0  0
 27 37  1  6  0  0  0
 26 38  1  6  0  0  0
 38 39  1  0  0  0  0
 39 40  2  0  0  0  0
 39 41  1  0  0  0  0
 23 42  1  6  0  0  0
M  END
>  <cdx:fragmentId>
28818

$$$$
