12.cdx
  Mrv1902 05222410212D          

 83 91  0  0  0  0            999 V2000
    8.3787   -8.5663    0.0000 C   0  0  0  0  0  0  0  0  0  0  0  0
    8.3787   -9.3913    0.0000 C   0  0  1  0  0  0  0  0  0  0  0  0
    9.0931   -9.8038    0.0000 C   0  0  0  0  0  0  0  0  0  0  0  0
    9.8076   -9.3913    0.0000 C   0  0  0  0  0  0  0  0  0  0  0  0
    9.8076   -8.5663    0.0000 C   0  0  2  0  0  0  0  0  0  0  0  0
    9.0931   -8.1538    0.0000 C   0  0  0  0  0  0  0  0  0  0  0  0
   10.5221   -9.8038    0.0000 C   0  0  0  0  0  0  0  0  0  0  0  0
   11.2366   -9.3913    0.0000 C   0  0  0  0  0  0  0  0  0  0  0  0
   11.2366   -8.5663    0.0000 C   0  0  2  0  0  0  0  0  0  0  0  0
   10.5221   -8.1538    0.0000 C   0  0  2  0  0  0  0  0  0  0  0  0
   11.9510   -8.1538    0.0000 C   0  0  1  0  0  0  0  0  0  0  0  0
   11.9510   -7.3287    0.0000 C   0  0  1  0  0  0  0  0  0  0  0  0
   11.2366   -6.9162    0.0000 C   0  0  1  0  0  0  0  0  0  0  0  0
   10.5221   -7.3287    0.0000 C   0  0  1  0  0  0  0  0  0  0  0  0
    7.6642   -9.8038    0.0000 O   0  0  0  0  0  0  0  0  0  0  0  0
    9.8076   -7.7413    0.0000 C   0  0  0  0  0  0  0  0  0  0  0  0
   11.2366   -7.7413    0.0000 O   0  0  0  0  0  0  0  0  0  0  0  0
   11.9510   -8.9788    0.0000 O   0  0  0  0  0  0  0  0  0  0  0  0
   11.9510   -6.5038    0.0000 C   0  0  0  0  0  0  0  0  0  0  0  0
   11.2366   -6.0912    0.0000 O   0  0  0  0  0  0  0  0  0  0  0  0
   10.5221   -8.9788    0.0000 H   0  0  0  0  0  0  0  0  0  0  0  0
    9.8076   -6.9162    0.0000 O   0  0  0  0  0  0  0  0  0  0  0  0
    6.9379  -11.8728    0.0000 C   0  0  2  0  0  0  0  0  0  0  0  0
    7.6506  -12.2882    0.0000 C   0  0  2  0  0  0  0  0  0  0  0  0
    8.3668  -11.8787    0.0000 C   0  0  2  0  0  0  0  0  0  0  0  0
    8.3702  -11.0537    0.0000 C   0  0  0  0  0  0  0  0  0  0  0  0
    7.6575  -10.6383    0.0000 C   0  0  1  0  0  0  0  0  0  0  0  0
    6.9413  -11.0478    0.0000 O   0  0  0  0  0  0  0  0  0  0  0  0
    6.2217  -12.2823    0.0000 C   0  0  0  0  0  0  0  0  0  0  0  0
    7.6472  -13.1132    0.0000 O   0  0  0  0  0  0  0  0  0  0  0  0
    9.0795  -12.2942    0.0000 O   0  0  0  0  0  0  0  0  0  0  0  0
    6.9310  -13.5228    0.0000 C   0  0  2  0  0  0  0  0  0  0  0  0
    6.2183  -13.1073    0.0000 O   0  0  0  0  0  0  0  0  0  0  0  0
    5.5021  -13.5168    0.0000 C   0  0  1  0  0  0  0  0  0  0  0  0
    5.4987  -14.3418    0.0000 C   0  0  2  0  0  0  0  0  0  0  0  0
    6.2114  -14.7573    0.0000 C   0  0  2  0  0  0  0  0  0  0  0  0
    6.9276  -14.3478    0.0000 C   0  0  0  0  0  0  0  0  0  0  0  0
    4.7893  -13.1014    0.0000 C   0  0  0  0  0  0  0  0  0  0  0  0
    6.2080  -15.5823    0.0000 O   0  0  0  0  0  0  0  0  0  0  0  0
    4.7825  -14.7514    0.0000 O   0  0  0  0  0  0  0  0  0  0  0  0
    4.0687  -14.3377    0.0000 C   0  0  2  0  0  0  0  0  0  0  0  0
    4.0700  -13.5127    0.0000 O   0  0  0  0  0  0  0  0  0  0  0  0
    3.3562  -13.0990    0.0000 C   0  0  1  0  0  0  0  0  0  0  0  0
    2.6411  -13.5104    0.0000 C   0  0  2  0  0  0  0  0  0  0  0  0
    2.6397  -14.3354    0.0000 C   0  0  1  0  0  0  0  0  0  0  0  0
    3.3535  -14.7490    0.0000 C   0  0  0  0  0  0  0  0  0  0  0  0
    3.3576  -12.2740    0.0000 C   0  0  0  0  0  0  0  0  0  0  0  0
    1.9273  -13.0967    0.0000 O   0  0  0  0  0  0  0  0  0  0  0  0
    1.9246  -14.7467    0.0000 O   0  0  0  0  0  0  0  0  0  0  0  0
    9.7957  -11.8846    0.0000 C   0  0  0  0  0  0  0  0  0  0  0  0
    1.2108  -14.3330    0.0000 C   0  0  0  0  0  0  0  0  0  0  0  0
   12.7357   -8.4087    0.0000 C   0  0  0  0  0  0  0  0  0  0  0  0
   13.2206   -7.7413    0.0000 C   0  0  0  0  0  0  0  0  0  0  0  0
   12.7357   -7.0738    0.0000 C   0  0  2  0  0  0  0  0  0  0  0  0
   12.9906   -6.2892    0.0000 C   0  0  0  0  0  0  0  0  0  0  0  0
   13.5203   -6.8189    0.0000 H   0  0  0  0  0  0  0  0  0  0  0  0
   12.4386   -5.6761    0.0000 C   0  0  0  0  0  0  0  0  0  0  0  0
   13.7976   -6.1177    0.0000 O   0  0  0  0  0  0  0  0  0  0  0  0
    1.9287  -12.2717    0.0000 C   0  0  2  0  0  0  0  0  0  0  0  0
    2.6440  -11.8606    0.0000 O   0  0  0  0  0  0  0  0  0  0  0  0
    2.6456  -11.0356    0.0000 C   0  0  1  0  0  0  0  0  0  0  0  0
    1.9305  -10.6225    0.0000 C   0  0  2  0  0  0  0  0  0  0  0  0
    1.2157  -11.0344    0.0000 C   0  0  2  0  0  0  0  0  0  0  0  0
    1.2145  -11.8603    0.0000 C   0  0  1  0  0  0  0  0  0  0  0  0
    3.3606  -10.6240    0.0000 C   0  0  0  0  0  0  0  0  0  0  0  0
    0.5017  -10.6211    0.0000 O   0  0  0  0  0  0  0  0  0  0  0  0
    1.9310   -9.7975    0.0000 O   0  0  0  0  0  0  0  0  0  0  0  0
    0.5000  -12.2726    0.0000 O   0  0  0  0  0  0  0  0  0  0  0  0
    0.5027   -9.7961    0.0000 C   0  0  0  0  0  0  0  0  0  0  0  0
   10.8218   -5.3781    0.0000 C   0  0  0  0  0  0  0  0  0  0  0  0
   11.2321   -4.6623    0.0000 O   0  0  0  0  0  0  0  0  0  0  0  0
    9.9968   -5.3807    0.0000 C   0  0  0  0  0  0  0  0  0  0  0  0
    9.5821   -4.6675    0.0000 C   0  0  0  0  0  0  0  0  0  0  0  0
    8.7571   -4.6701    0.0000 C   0  0  0  0  0  0  0  0  0  0  0  0
    8.3424   -3.9569    0.0000 C   0  0  0  0  0  0  0  0  0  0  0  0
    7.5174   -3.9595    0.0000 C   0  0  0  0  0  0  0  0  0  0  0  0
    7.1071   -4.6752    0.0000 C   0  0  0  0  0  0  0  0  0  0  0  0
    7.5218   -5.3884    0.0000 C   0  0  0  0  0  0  0  0  0  0  0  0
    8.3468   -5.3858    0.0000 C   0  0  0  0  0  0  0  0  0  0  0  0
    8.9826   -6.9218    0.0000 C   0  0  0  0  0  0  0  0  0  0  0  0
    8.5653   -6.2101    0.0000 O   0  0  0  0  0  0  0  0  0  0  0  0
    8.5750   -7.6390    0.0000 C   0  0  0  0  0  0  0  0  0  0  0  0
    6.9207  -15.9977    0.0000 C   0  0  0  0  0  0  0  0  0  0  0  0
  1  2  1  0  0  0  0
  2  3  1  0  0  0  0
  3  4  1  0  0  0  0
  4  5  1  0  0  0  0
  5  6  1  0  0  0  0
  6  1  1  0  0  0  0
  4  7  2  0  0  0  0
  7  8  1  0  0  0  0
  8  9  1  0  0  0  0
  9 10  1  0  0  0  0
 10  5  1  0  0  0  0
  9 11  1  0  0  0  0
 11 12  1  0  0  0  0
 12 13  1  0  0  0  0
 13 14  1  0  0  0  0
 14 10  1  0  0  0  0
  2 15  1  1  0  0  0
  5 16  1  1  0  0  0
  9 17  1  1  0  0  0
 11 18  1  1  0  0  0
 12 19  1  1  0  0  0
 13 20  1  1  0  0  0
 10 21  1  6  0  0  0
 14 22  1  6  0  0  0
 23 24  1  0  0  0  0
 24 25  1  0  0  0  0
 25 26  1  0  0  0  0
 26 27  1  0  0  0  0
 27 28  1  0  0  0  0
 28 23  1  0  0  0  0
 23 29  1  1  0  0  0
 24 30  1  6  0  0  0
 25 31  1  6  0  0  0
 32 30  1  1  0  0  0
 32 33  1  0  0  0  0
 33 34  1  0  0  0  0
 34 35  1  0  0  0  0
 35 36  1  0  0  0  0
 36 37  1  0  0  0  0
 37 32  1  0  0  0  0
 34 38  1  1  0  0  0
 36 39  1  6  0  0  0
 35 40  1  6  0  0  0
 41 40  1  1  0  0  0
 41 42  1  0  0  0  0
 42 43  1  0  0  0  0
 43 44  1  0  0  0  0
 44 45  1  0  0  0  0
 45 46  1  0  0  0  0
 46 41  1  0  0  0  0
 43 47  1  1  0  0  0
 44 48  1  6  0  0  0
 45 49  1  1  0  0  0
 31 50  1  0  0  0  0
 49 51  1  0  0  0  0
 27 15  1  1  0  0  0
 11 52  1  0  0  0  0
 52 53  1  0  0  0  0
 53 54  1  0  0  0  0
 54 12  1  0  0  0  0
 54 55  1  0  0  0  0
 54 56  1  6  0  0  0
 55 57  1  0  0  0  0
 55 58  2  0  0  0  0
 59 48  1  1  0  0  0
 59 60  1  0  0  0  0
 60 61  1  0  0  0  0
 61 62  1  0  0  0  0
 62 63  1  0  0  0  0
 63 64  1  0  0  0  0
 64 59  1  0  0  0  0
 61 65  1  1  0  0  0
 63 66  1  6  0  0  0
 62 67  1  6  0  0  0
 64 68  1  6  0  0  0
 66 69  1  0  0  0  0
 20 70  1  0  0  0  0
 70 71  2  0  0  0  0
 70 72  1  0  0  0  0
 72 73  2  0  0  0  0
 73 74  1  0  0  0  0
 74 75  2  0  0  0  0
 75 76  1  0  0  0  0
 76 77  2  0  0  0  0
 77 78  1  0  0  0  0
 78 79  2  0  0  0  0
 79 74  1  0  0  0  0
 22 80  1  0  0  0  0
 80 81  2  0  0  0  0
 80 82  1  0  0  0  0
 39 83  1  0  0  0  0
M  END
>  <cdx:fragmentId>
92

$$$$
