38696.cdx
  Mrv1902 05222410212D          

 26 28  0  0  0  0            999 V2000
    6.0778   -5.7877    0.0000 C   0  0  0  0  0  0  0  0  0  0  0  0
    6.7922   -5.3752    0.0000 N   0  3  0  0  0  0  0  0  0  0  0  0
    6.7922   -4.5502    0.0000 C   0  0  0  0  0  0  0  0  0  0  0  0
    6.0778   -4.1377    0.0000 C   0  0  0  0  0  0  0  0  0  0  0  0
    5.3633   -4.5502    0.0000 C   0  0  0  0  0  0  0  0  0  0  0  0
    4.6488   -4.1377    0.0000 C   0  0  0  0  0  0  0  0  0  0  0  0
    3.9344   -4.5502    0.0000 C   0  0  0  0  0  0  0  0  0  0  0  0
    3.9344   -5.3752    0.0000 C   0  0  0  0  0  0  0  0  0  0  0  0
    4.6488   -5.7877    0.0000 C   0  0  0  0  0  0  0  0  0  0  0  0
    5.3633   -5.3752    0.0000 C   0  0  0  0  0  0  0  0  0  0  0  0
    7.5067   -5.7877    0.0000 C   0  0  0  0  0  0  0  0  0  0  0  0
    8.2212   -5.3752    0.0000 C   0  0  0  0  0  0  0  0  0  0  0  0
    8.2212   -4.5502    0.0000 C   0  0  0  0  0  0  0  0  0  0  0  0
    8.9356   -4.1377    0.0000 C   0  0  0  0  0  0  0  0  0  0  0  0
    8.9356   -3.3127    0.0000 C   0  0  0  0  0  0  0  0  0  0  0  0
    8.2212   -2.9002    0.0000 C   0  0  0  0  0  0  0  0  0  0  0  0
    7.5067   -3.3127    0.0000 C   0  0  0  0  0  0  0  0  0  0  0  0
    7.5067   -4.1377    0.0000 C   0  0  0  0  0  0  0  0  0  0  0  0
    8.2212   -2.0752    0.0000 O   0  0  0  0  0  0  0  0  0  0  0  0
    3.2199   -5.7877    0.0000 O   0  0  0  0  0  0  0  0  0  0  0  0
    2.5054   -5.3752    0.0000 C   0  0  0  0  0  0  0  0  0  0  0  0
    4.6488   -6.6127    0.0000 O   0  0  0  0  0  0  0  0  0  0  0  0
    3.9344   -7.0252    0.0000 C   0  0  0  0  0  0  0  0  0  0  0  0
    9.6501   -2.9002    0.0000 O   0  0  0  0  0  0  0  0  0  0  0  0
   10.3646   -3.3127    0.0000 C   0  0  0  0  0  0  0  0  0  0  0  0
    6.7708   -6.1126    0.0000 Cl  0  5  0  0  0  0  0  0  0  0  0  0
  1  2  1  0  0  0  0
  2  3  2  0  0  0  0
  3  4  1  0  0  0  0
  4  5  2  0  0  0  0
  5  6  1  0  0  0  0
  6  7  2  0  0  0  0
  7  8  1  0  0  0  0
  8  9  2  0  0  0  0
  9 10  1  0  0  0  0
  1 10  2  0  0  0  0
  5 10  1  0  0  0  0
 11 12  1  0  0  0  0
 12 13  1  0  0  0  0
 13 14  2  0  0  0  0
 14 15  1  0  0  0  0
 15 16  2  0  0  0  0
 16 17  1  0  0  0  0
 17 18  2  0  0  0  0
 13 18  1  0  0  0  0
 11  2  1  0  0  0  0
 18  3  1  0  0  0  0
 16 19  1  0  0  0  0
 20 21  1  0  0  0  0
  8 20  1  0  0  0  0
 22 23  1  0  0  0  0
  9 22  1  0  0  0  0
 24 25  1  0  0  0  0
 15 24  1  0  0  0  0
M  CHG  2   2   1  26  -1
M  END
>  <cdx:fragmentId>
33151

$$$$
