38700.cdx
  Mrv1902 05222410242D          

 84 92  0  0  0  0            999 V2000
    8.5987   -8.9513    0.0000 C   0  0  0  0  0  0  0  0  0  0  0  0
    8.5987   -9.7763    0.0000 C   0  0  1  0  0  0  0  0  0  0  0  0
    9.3131  -10.1888    0.0000 C   0  0  0  0  0  0  0  0  0  0  0  0
   10.0276   -9.7763    0.0000 C   0  0  0  0  0  0  0  0  0  0  0  0
   10.0276   -8.9513    0.0000 C   0  0  2  0  0  0  0  0  0  0  0  0
    9.3131   -8.5388    0.0000 C   0  0  0  0  0  0  0  0  0  0  0  0
   10.7421  -10.1888    0.0000 C   0  0  0  0  0  0  0  0  0  0  0  0
   11.4566   -9.7763    0.0000 C   0  0  0  0  0  0  0  0  0  0  0  0
   11.4566   -8.9513    0.0000 C   0  0  2  0  0  0  0  0  0  0  0  0
   10.7421   -8.5388    0.0000 C   0  0  2  0  0  0  0  0  0  0  0  0
   12.1710   -8.5388    0.0000 C   0  0  1  0  0  0  0  0  0  0  0  0
   12.1710   -7.7138    0.0000 C   0  0  1  0  0  0  0  0  0  0  0  0
   11.4566   -7.3012    0.0000 C   0  0  1  0  0  0  0  0  0  0  0  0
   10.7421   -7.7138    0.0000 C   0  0  1  0  0  0  0  0  0  0  0  0
    7.8842  -10.1887    0.0000 O   0  0  0  0  0  0  0  0  0  0  0  0
   10.0276   -8.1263    0.0000 C   0  0  0  0  0  0  0  0  0  0  0  0
   11.4566   -8.1263    0.0000 O   0  0  0  0  0  0  0  0  0  0  0  0
   12.1710   -9.3637    0.0000 O   0  0  0  0  0  0  0  0  0  0  0  0
   12.1710   -6.8888    0.0000 C   0  0  0  0  0  0  0  0  0  0  0  0
   11.4566   -6.4763    0.0000 O   0  0  0  0  0  0  0  0  0  0  0  0
   10.7421   -9.3637    0.0000 H   0  0  0  0  0  0  0  0  0  0  0  0
   10.0276   -7.3012    0.0000 O   0  0  0  0  0  0  0  0  0  0  0  0
    7.1630  -12.2596    0.0000 C   0  0  2  0  0  0  0  0  0  0  0  0
    7.8768  -12.6733    0.0000 C   0  0  2  0  0  0  0  0  0  0  0  0
    8.5920  -12.2619    0.0000 C   0  0  2  0  0  0  0  0  0  0  0  0
    8.5933  -11.4369    0.0000 C   0  0  0  0  0  0  0  0  0  0  0  0
    7.8795  -11.0233    0.0000 C   0  0  1  0  0  0  0  0  0  0  0  0
    7.1644  -11.4346    0.0000 O   0  0  0  0  0  0  0  0  0  0  0  0
    6.4479  -12.6709    0.0000 C   0  0  0  0  0  0  0  0  0  0  0  0
    7.8755  -13.4983    0.0000 O   0  0  0  0  0  0  0  0  0  0  0  0
    9.3058  -12.6756    0.0000 O   0  0  0  0  0  0  0  0  0  0  0  0
    7.1603  -13.9096    0.0000 C   0  0  2  0  0  0  0  0  0  0  0  0
    6.4465  -13.4959    0.0000 O   0  0  0  0  0  0  0  0  0  0  0  0
    5.7314  -13.9072    0.0000 C   0  0  1  0  0  0  0  0  0  0  0  0
    5.7300  -14.7322    0.0000 C   0  0  2  0  0  0  0  0  0  0  0  0
    6.4438  -15.1459    0.0000 C   0  0  1  0  0  0  0  0  0  0  0  0
    7.1590  -14.7346    0.0000 C   0  0  0  0  0  0  0  0  0  0  0  0
    5.0176  -13.4936    0.0000 C   0  0  0  0  0  0  0  0  0  0  0  0
    6.4425  -15.9709    0.0000 O   0  0  0  0  0  0  0  0  0  0  0  0
    5.0149  -15.1436    0.0000 O   0  0  0  0  0  0  0  0  0  0  0  0
    4.3001  -14.7317    0.0000 C   0  0  2  0  0  0  0  0  0  0  0  0
    4.2993  -13.9067    0.0000 O   0  0  0  0  0  0  0  0  0  0  0  0
    3.5845  -13.4948    0.0000 C   0  0  1  0  0  0  0  0  0  0  0  0
    2.8704  -13.9079    0.0000 C   0  0  2  0  0  0  0  0  0  0  0  0
    2.8711  -14.7329    0.0000 C   0  0  2  0  0  0  0  0  0  0  0  0
    3.5859  -15.1448    0.0000 C   0  0  1  0  0  0  0  0  0  0  0  0
    3.5838  -12.6698    0.0000 C   0  0  0  0  0  0  0  0  0  0  0  0
    2.1556  -13.4960    0.0000 O   0  0  0  0  0  0  0  0  0  0  0  0
    2.1570  -15.1460    0.0000 O   0  0  0  0  0  0  0  0  0  0  0  0
    3.5873  -15.9698    0.0000 O   0  0  0  0  0  0  0  0  0  0  0  0
   10.0209  -12.2643    0.0000 C   0  0  0  0  0  0  0  0  0  0  0  0
    7.1563  -16.3846    0.0000 C   0  0  0  0  0  0  0  0  0  0  0  0
    1.4422  -14.7342    0.0000 C   0  0  0  0  0  0  0  0  0  0  0  0
   12.9557   -8.7937    0.0000 C   0  0  0  0  0  0  0  0  0  0  0  0
   13.4406   -8.1263    0.0000 C   0  0  0  0  0  0  0  0  0  0  0  0
   12.9557   -7.4588    0.0000 C   0  0  2  0  0  0  0  0  0  0  0  0
   13.2106   -6.6742    0.0000 C   0  0  0  0  0  0  0  0  0  0  0  0
   13.7403   -7.2039    0.0000 H   0  0  0  0  0  0  0  0  0  0  0  0
   12.6586   -6.0611    0.0000 C   0  0  0  0  0  0  0  0  0  0  0  0
   14.0176   -6.5027    0.0000 O   0  0  0  0  0  0  0  0  0  0  0  0
    9.2034   -7.3377    0.0000 C   0  0  0  0  0  0  0  0  0  0  0  0
    8.7598   -6.6421    0.0000 O   0  0  0  0  0  0  0  0  0  0  0  0
    8.8229   -8.0697    0.0000 C   0  0  0  0  0  0  0  0  0  0  0  0
   11.4463   -5.6513    0.0000 C   0  0  0  0  0  0  0  0  0  0  0  0
   12.1556   -5.2300    0.0000 O   0  0  0  0  0  0  0  0  0  0  0  0
   10.7268   -5.2477    0.0000 C   0  0  0  0  0  0  0  0  0  0  0  0
   10.7165   -4.4228    0.0000 C   0  0  0  0  0  0  0  0  0  0  0  0
    9.9970   -4.0192    0.0000 C   0  0  0  0  0  0  0  0  0  0  0  0
    9.9816   -3.1943    0.0000 C   0  0  0  0  0  0  0  0  0  0  0  0
    9.2595   -2.7953    0.0000 C   0  0  0  0  0  0  0  0  0  0  0  0
    8.5529   -3.1943    0.0000 C   0  0  0  0  0  0  0  0  0  0  0  0
    8.5529   -4.0192    0.0000 C   0  0  0  0  0  0  0  0  0  0  0  0
    9.2595   -4.4183    0.0000 C   0  0  0  0  0  0  0  0  0  0  0  0
    2.1549  -12.6710    0.0000 C   0  0  2  0  0  0  0  0  0  0  0  0
    2.8695  -12.2589    0.0000 O   0  0  0  0  0  0  0  0  0  0  0  0
    2.8695  -11.4339    0.0000 C   0  0  1  0  0  0  0  0  0  0  0  0
    2.1549  -11.0210    0.0000 C   0  0  2  0  0  0  0  0  0  0  0  0
    1.4402  -11.4339    0.0000 C   0  0  1  0  0  0  0  0  0  0  0  0
    1.4402  -12.2589    0.0000 C   0  0  1  0  0  0  0  0  0  0  0  0
    3.5840  -11.0214    0.0000 C   0  0  0  0  0  0  0  0  0  0  0  0
    0.7257  -11.0214    0.0000 O   0  0  0  0  0  0  0  0  0  0  0  0
    2.1549  -10.1960    0.0000 O   0  0  0  0  0  0  0  0  0  0  0  0
    0.7258  -12.6715    0.0000 O   0  0  0  0  0  0  0  0  0  0  0  0
    3.5841  -10.1964    0.0000 O   0  0  0  0  0  0  0  0  0  0  0  0
  1  2  1  0  0  0  0
  2  3  1  0  0  0  0
  3  4  1  0  0  0  0
  4  5  1  0  0  0  0
  5  6  1  0  0  0  0
  6  1  1  0  0  0  0
  4  7  2  0  0  0  0
  7  8  1  0  0  0  0
  8  9  1  0  0  0  0
  9 10  1  0  0  0  0
 10  5  1  0  0  0  0
  9 11  1  0  0  0  0
 11 12  1  0  0  0  0
 12 13  1  0  0  0  0
 13 14  1  0  0  0  0
 14 10  1  0  0  0  0
  2 15  1  1  0  0  0
  5 16  1  1  0  0  0
  9 17  1  1  0  0  0
 11 18  1  1  0  0  0
 12 19  1  1  0  0  0
 13 20  1  1  0  0  0
 10 21  1  6  0  0  0
 14 22  1  6  0  0  0
 23 24  1  0  0  0  0
 24 25  1  0  0  0  0
 25 26  1  0  0  0  0
 26 27  1  0  0  0  0
 27 28  1  0  0  0  0
 28 23  1  0  0  0  0
 23 29  1  1  0  0  0
 24 30  1  6  0  0  0
 25 31  1  6  0  0  0
 32 30  1  1  0  0  0
 32 33  1  0  0  0  0
 33 34  1  0  0  0  0
 34 35  1  0  0  0  0
 35 36  1  0  0  0  0
 36 37  1  0  0  0  0
 37 32  1  0  0  0  0
 34 38  1  1  0  0  0
 36 39  1  1  0  0  0
 35 40  1  6  0  0  0
 41 40  1  1  0  0  0
 41 42  1  0  0  0  0
 42 43  1  0  0  0  0
 43 44  1  0  0  0  0
 44 45  1  0  0  0  0
 45 46  1  0  0  0  0
 46 41  1  0  0  0  0
 43 47  1  1  0  0  0
 44 48  1  6  0  0  0
 45 49  1  6  0  0  0
 46 50  1  6  0  0  0
 31 51  1  0  0  0  0
 39 52  1  0  0  0  0
 49 53  1  0  0  0  0
 27 15  1  1  0  0  0
 11 54  1  0  0  0  0
 54 55  1  0  0  0  0
 55 56  1  0  0  0  0
 56 12  1  0  0  0  0
 56 57  1  0  0  0  0
 56 58  1  6  0  0  0
 57 59  1  0  0  0  0
 57 60  2  0  0  0  0
 22 61  1  0  0  0  0
 61 62  2  0  0  0  0
 61 63  1  0  0  0  0
 20 64  1  0  0  0  0
 64 65  2  0  0  0  0
 64 66  1  0  0  0  0
 66 67  2  0  0  0  0
 67 68  1  0  0  0  0
 68 69  2  0  0  0  0
 69 70  1  0  0  0  0
 70 71  2  0  0  0  0
 71 72  1  0  0  0  0
 72 73  2  0  0  0  0
 73 68  1  0  0  0  0
 74 48  1  1  0  0  0
 74 75  1  0  0  0  0
 75 76  1  0  0  0  0
 76 77  1  0  0  0  0
 77 78  1  0  0  0  0
 78 79  1  0  0  0  0
 79 74  1  0  0  0  0
 76 80  1  1  0  0  0
 78 81  1  1  0  0  0
 77 82  1  6  0  0  0
 79 83  1  6  0  0  0
 80 84  1  0  0  0  0
M  END
>  <cdx:fragmentId>
92

$$$$
