3159.cdx
  Mrv1902 05222410252D          

 54 58  0  0  0  0            999 V2000
   27.5337  -13.7593    0.0000 C   0  0  2  0  0  0  0  0  0  0  0  0
   27.5337  -14.5815    0.0000 C   0  0  1  0  0  0  0  0  0  0  0  0
   28.2457  -14.9925    0.0000 C   0  0  1  0  0  0  0  0  0  0  0  0
   28.9577  -14.5815    0.0000 C   0  0  2  0  0  0  0  0  0  0  0  0
   28.9577  -13.7593    0.0000 C   0  0  2  0  0  0  0  0  0  0  0  0
   28.2457  -13.3482    0.0000 O   0  0  0  0  0  0  0  0  0  0  0  0
   29.6697  -14.9925    0.0000 O   0  0  0  0  0  0  0  0  0  0  0  0
   29.6697  -13.3482    0.0000 O   0  0  0  0  0  0  0  0  0  0  0  0
   30.3817  -12.1150    0.0000 C   0  0  0  0  0  0  0  0  0  0  0  0
   29.6697  -12.5261    0.0000 C   0  0  0  0  0  0  0  0  0  0  0  0
   26.8217  -13.3482    0.0000 C   0  0  0  0  0  0  0  0  0  0  0  0
   26.8217  -14.9925    0.0000 O   0  0  0  0  0  0  0  0  0  0  0  0
   26.1098  -14.5815    0.0000 C   0  0  0  0  0  0  0  0  0  0  0  0
   25.3978  -14.9925    0.0000 C   0  0  0  0  0  0  0  0  0  0  0  0
   26.1098  -13.7593    0.0000 O   0  0  0  0  0  0  0  0  0  0  0  0
   24.6858  -14.5815    0.0000 C   0  0  0  0  0  0  0  0  0  0  0  0
   23.9738  -14.9925    0.0000 C   0  0  0  0  0  0  0  0  0  0  0  0
   23.9738  -15.8147    0.0000 C   0  0  0  0  0  0  0  0  0  0  0  0
   23.2618  -16.2257    0.0000 C   0  0  0  0  0  0  0  0  0  0  0  0
   22.5498  -15.8147    0.0000 C   0  0  0  0  0  0  0  0  0  0  0  0
   22.5498  -14.9925    0.0000 C   0  0  0  0  0  0  0  0  0  0  0  0
   23.2618  -14.5815    0.0000 C   0  0  0  0  0  0  0  0  0  0  0  0
   21.8378  -16.2257    0.0000 O   0  0  0  0  0  0  0  0  0  0  0  0
   30.3817  -11.2929    0.0000 C   0  0  0  0  0  0  0  0  0  0  0  0
   31.0937  -10.8818    0.0000 C   0  0  0  0  0  0  0  0  0  0  0  0
   31.0937  -10.0597    0.0000 C   0  0  0  0  0  0  0  0  0  0  0  0
   30.3817   -9.6486    0.0000 C   0  0  0  0  0  0  0  0  0  0  0  0
   29.6697  -10.0597    0.0000 C   0  0  0  0  0  0  0  0  0  0  0  0
   29.6697  -10.8818    0.0000 C   0  0  0  0  0  0  0  0  0  0  0  0
   30.3817   -8.8265    0.0000 O   0  0  0  0  0  0  0  0  0  0  0  0
   31.8057   -9.6486    0.0000 O   0  0  0  0  0  0  0  0  0  0  0  0
   21.8378  -14.5815    0.0000 O   0  0  0  0  0  0  0  0  0  0  0  0
   27.5337  -16.2257    0.0000 C   0  0  1  0  0  0  0  0  0  0  0  0
   26.8217  -15.8147    0.0000 O   0  0  0  0  0  0  0  0  0  0  0  0
   26.1098  -16.2257    0.0000 C   0  0  2  0  0  0  0  0  0  0  0  0
   26.1098  -17.0479    0.0000 C   0  0  1  0  0  0  0  0  0  0  0  0
   26.8217  -17.4589    0.0000 C   0  0  2  0  0  0  0  0  0  0  0  0
   27.5337  -17.0479    0.0000 C   0  0  1  0  0  0  0  0  0  0  0  0
   25.3978  -15.8147    0.0000 C   0  0  0  0  0  0  0  0  0  0  0  0
   26.8217  -18.2811    0.0000 O   0  0  0  0  0  0  0  0  0  0  0  0
   28.2457  -17.4589    0.0000 O   0  0  0  0  0  0  0  0  0  0  0  0
   25.3978  -17.4589    0.0000 O   0  0  0  0  0  0  0  0  0  0  0  0
   26.8217  -12.5261    0.0000 O   0  0  0  0  0  0  0  0  0  0  0  0
   28.2457  -15.8147    0.0000 O   0  0  0  0  0  0  0  0  0  0  0  0
   30.3817  -14.5815    0.0000 C   0  0  1  0  0  0  0  0  0  0  0  0
   30.3817  -13.7593    0.0000 O   0  0  0  0  0  0  0  0  0  0  0  0
   31.0937  -13.3482    0.0000 C   0  0  1  0  0  0  0  0  0  0  0  0
   31.8057  -13.7593    0.0000 C   0  0  2  0  0  0  0  0  0  0  0  0
   31.8057  -14.5815    0.0000 C   0  0  1  0  0  0  0  0  0  0  0  0
   31.0937  -14.9925    0.0000 C   0  0  2  0  0  0  0  0  0  0  0  0
   32.5177  -13.3482    0.0000 O   0  0  0  0  0  0  0  0  0  0  0  0
   31.0937  -12.5261    0.0000 O   0  0  0  0  0  0  0  0  0  0  0  0
   32.5177  -14.9925    0.0000 O   0  0  0  0  0  0  0  0  0  0  0  0
   31.0937  -15.8147    0.0000 C   0  0  0  0  0  0  0  0  0  0  0  0
  1  2  1  0  0  0  0
  2  3  1  0  0  0  0
  3  4  1  0  0  0  0
  4  5  1  0  0  0  0
  5  6  1  0  0  0  0
  6  1  1  0  0  0  0
  4  7  1  6  0  0  0
  5  8  1  6  0  0  0
  9 10  1  0  0  0  0
 10  8  1  0  0  0  0
  1 11  1  1  0  0  0
  2 12  1  1  0  0  0
 12 13  1  0  0  0  0
 13 14  1  0  0  0  0
 13 15  2  0  0  0  0
 14 16  2  0  0  0  0
 16 17  1  0  0  0  0
 17 18  2  0  0  0  0
 18 19  1  0  0  0  0
 19 20  2  0  0  0  0
 20 21  1  0  0  0  0
 21 22  2  0  0  0  0
 22 17  1  0  0  0  0
 20 23  1  0  0  0  0
 24  9  1  0  0  0  0
 24 25  2  0  0  0  0
 25 26  1  0  0  0  0
 26 27  2  0  0  0  0
 27 28  1  0  0  0  0
 28 29  2  0  0  0  0
 29 24  1  0  0  0  0
 27 30  1  0  0  0  0
 26 31  1  0  0  0  0
 21 32  1  0  0  0  0
 33 34  1  0  0  0  0
 34 35  1  0  0  0  0
 35 36  1  0  0  0  0
 36 37  1  0  0  0  0
 37 38  1  0  0  0  0
 38 33  1  0  0  0  0
 35 39  1  6  0  0  0
 37 40  1  6  0  0  0
 38 41  1  6  0  0  0
 36 42  1  1  0  0  0
 11 43  1  0  0  0  0
  3 44  1  1  0  0  0
 33 44  1  6  0  0  0
 45  7  1  1  0  0  0
 45 46  1  0  0  0  0
 46 47  1  0  0  0  0
 47 48  1  0  0  0  0
 48 49  1  0  0  0  0
 49 50  1  0  0  0  0
 50 45  1  0  0  0  0
 48 51  1  1  0  0  0
 47 52  1  6  0  0  0
 49 53  1  6  0  0  0
 50 54  1  6  0  0  0
M  END
>  <cdx:fragmentId>
19754

$$$$
