38715.cdx
  Mrv1902 05222410242D          

 30 33  0  0  0  0            999 V2000
    7.7823   -9.1361    0.0000 C   0  0  0  0  0  0  0  0  0  0  0  0
    7.7823   -9.9611    0.0000 C   0  0  0  0  0  0  0  0  0  0  0  0
    7.0678  -10.3736    0.0000 C   0  0  0  0  0  0  0  0  0  0  0  0
    6.3534   -9.9611    0.0000 C   0  0  0  0  0  0  0  0  0  0  0  0
    5.6389  -10.3736    0.0000 C   0  0  0  0  0  0  0  0  0  0  0  0
    5.6389  -11.1986    0.0000 O   0  0  0  0  0  0  0  0  0  0  0  0
    4.9244   -9.9611    0.0000 C   0  0  0  0  0  0  0  0  0  0  0  0
    4.9244   -9.1361    0.0000 C   0  0  0  0  0  0  0  0  0  0  0  0
    4.2099   -8.7236    0.0000 O   0  0  0  0  0  0  0  0  0  0  0  0
    5.6389   -8.7236    0.0000 C   0  0  0  0  0  0  0  0  0  0  0  0
    6.3534   -9.1361    0.0000 C   0  0  0  0  0  0  0  0  0  0  0  0
    7.0678   -8.7236    0.0000 O   0  3  0  0  0  0  0  0  0  0  0  0
    8.4968   -8.7236    0.0000 C   0  0  0  0  0  0  0  0  0  0  0  0
    8.4968   -7.8986    0.0000 C   0  0  0  0  0  0  0  0  0  0  0  0
    9.2112   -7.4861    0.0000 C   0  0  0  0  0  0  0  0  0  0  0  0
    9.2112   -6.6611    0.0000 O   0  0  0  0  0  0  0  0  0  0  0  0
    9.9257   -7.8986    0.0000 C   0  0  0  0  0  0  0  0  0  0  0  0
   10.6402   -7.4861    0.0000 O   0  0  0  0  0  0  0  0  0  0  0  0
    9.9257   -8.7236    0.0000 C   0  0  0  0  0  0  0  0  0  0  0  0
    9.2112   -9.1361    0.0000 C   0  0  0  0  0  0  0  0  0  0  0  0
    8.4968  -10.3736    0.0000 O   0  0  0  0  0  0  0  0  0  0  0  0
    8.4968  -11.1986    0.0000 C   0  0  0  0  0  0  0  0  0  0  0  0
    9.1642  -11.6835    0.0000 C   0  0  0  0  0  0  0  0  0  0  0  0
    9.9488  -11.4286    0.0000 O   0  0  0  0  0  0  0  0  0  0  0  0
    8.9093  -12.4681    0.0000 C   0  0  0  0  0  0  0  0  0  0  0  0
    9.3942  -13.1356    0.0000 O   0  0  0  0  0  0  0  0  0  0  0  0
    8.0843  -12.4681    0.0000 C   0  0  0  0  0  0  0  0  0  0  0  0
    7.8293  -11.6835    0.0000 O   0  0  0  0  0  0  0  0  0  0  0  0
    7.5994  -13.1356    0.0000 C   0  0  0  0  0  0  0  0  0  0  0  0
    8.0119  -13.8500    0.0000 O   0  0  0  0  0  0  0  0  0  0  0  0
  1  2  1  0  0  0  0
  2  3  2  0  0  0  0
  3  4  1  0  0  0  0
  4  5  1  0  0  0  0
  5  6  1  0  0  0  0
  5  7  2  0  0  0  0
  7  8  1  0  0  0  0
  8  9  1  0  0  0  0
  8 10  2  0  0  0  0
 10 11  1  0  0  0  0
  4 11  2  0  0  0  0
 11 12  1  0  0  0  0
  1 12  2  0  0  0  0
  1 13  1  0  0  0  0
 13 14  1  0  0  0  0
 14 15  2  0  0  0  0
 15 16  1  0  0  0  0
 15 17  1  0  0  0  0
 17 18  1  0  0  0  0
 17 19  2  0  0  0  0
 19 20  1  0  0  0  0
 13 20  2  0  0  0  0
 21 22  1  0  0  0  0
 23 24  1  0  0  0  0
 22 23  1  0  0  0  0
 25 26  1  0  0  0  0
 23 25  1  0  0  0  0
 27 28  1  0  0  0  0
 25 27  1  0  0  0  0
 29 30  1  0  0  0  0
 27 29  1  0  0  0  0
 22 28  1  0  0  0  0
  2 21  1  0  0  0  0
M  CHG  1  12   1
M  END
>  <cdx:fragmentId>
20190

$$$$
