5387194.cdx
  Mrv1902 05222410182D          

 22 25  0  0  0  0            999 V2000
    6.2004   -7.5399    0.0000 C   0  0  0  0  0  0  0  0  0  0  0  0
    6.2004   -6.7149    0.0000 C   0  0  0  0  0  0  0  0  0  0  0  0
    6.9148   -6.3024    0.0000 C   0  0  0  0  0  0  0  0  0  0  0  0
    7.6293   -6.7149    0.0000 C   0  0  0  0  0  0  0  0  0  0  0  0
    8.3438   -6.3024    0.0000 C   0  0  0  0  0  0  0  0  0  0  0  0
    9.0583   -6.7149    0.0000 C   0  0  0  0  0  0  0  0  0  0  0  0
    9.0583   -7.5399    0.0000 C   0  0  0  0  0  0  0  0  0  0  0  0
    8.3438   -7.9524    0.0000 C   0  0  0  0  0  0  0  0  0  0  0  0
    7.6293   -7.5399    0.0000 C   0  0  0  0  0  0  0  0  0  0  0  0
    6.9148   -7.9524    0.0000 O   0  0  0  0  0  0  0  0  0  0  0  0
    9.8429   -7.7949    0.0000 O   0  0  0  0  0  0  0  0  0  0  0  0
   10.3278   -7.1274    0.0000 C   0  0  0  0  0  0  0  0  0  0  0  0
    9.8429   -6.4600    0.0000 O   0  0  0  0  0  0  0  0  0  0  0  0
    6.9148   -5.4774    0.0000 O   0  0  0  0  0  0  0  0  0  0  0  0
    5.4859   -6.3024    0.0000 C   0  0  0  0  0  0  0  0  0  0  0  0
    5.4859   -5.4774    0.0000 C   0  0  0  0  0  0  0  0  0  0  0  0
    4.7714   -5.0649    0.0000 C   0  0  0  0  0  0  0  0  0  0  0  0
    4.0570   -5.4774    0.0000 C   0  0  0  0  0  0  0  0  0  0  0  0
    4.0570   -6.3024    0.0000 C   0  0  0  0  0  0  0  0  0  0  0  0
    4.7714   -6.7149    0.0000 C   0  0  0  0  0  0  0  0  0  0  0  0
    6.2004   -5.0649    0.0000 O   0  0  0  0  0  0  0  0  0  0  0  0
    8.3438   -5.4774    0.0000 O   0  0  0  0  0  0  0  0  0  0  0  0
  1  2  2  0  0  0  0
  2  3  1  0  0  0  0
  3  4  1  0  0  0  0
  4  5  2  0  0  0  0
  5  6  1  0  0  0  0
  6  7  2  0  0  0  0
  7  8  1  0  0  0  0
  8  9  2  0  0  0  0
  4  9  1  0  0  0  0
  9 10  1  0  0  0  0
  1 10  1  0  0  0  0
 11 12  1  0  0  0  0
 12 13  1  0  0  0  0
 13  6  1  0  0  0  0
 11  7  1  0  0  0  0
  3 14  2  0  0  0  0
 15 16  1  0  0  0  0
 16 17  2  0  0  0  0
 17 18  1  0  0  0  0
 18 19  2  0  0  0  0
 19 20  1  0  0  0  0
 15 20  2  0  0  0  0
 16 21  1  0  0  0  0
  2 15  1  0  0  0  0
  5 22  1  0  0  0  0
M  END
>  <cdx:groupId>
71

>  <cdx:fragmentId>
5

$$$$
