38719.cdx
  Mrv1902 05222410222D          

  8  7  0  0  0  0            999 V2000
    4.5471   -7.9888    0.0000 O   0  0  0  0  0  0  0  0  0  0  0  0
    5.2616   -7.5762    0.0000 C   0  0  0  0  0  0  0  0  0  0  0  0
    5.9761   -7.9888    0.0000 C   0  0  2  0  0  0  0  0  0  0  0  0
    6.6905   -7.5762    0.0000 C   0  0  0  0  0  0  0  0  0  0  0  0
    7.4050   -7.9888    0.0000 S   0  0  0  0  0  0  0  0  0  0  0  0
    5.2616   -6.7512    0.0000 O   0  0  0  0  0  0  0  0  0  0  0  0
    5.9761   -8.8138    0.0000 N   0  0  0  0  0  0  0  0  0  0  0  0
    8.1195   -7.5762    0.0000 O   0  0  0  0  0  0  0  0  0  0  0  0
  1  2  1  0  0  0  0
  2  3  1  0  0  0  0
  3  4  1  0  0  0  0
  4  5  1  0  0  0  0
  2  6  2  0  0  0  0
  3  7  1  6  0  0  0
  5  8  2  0  0  0  0
M  STY  1   1 DAT
M  SAL   1  1   5
M  SDT   1 MRV_IMPLICIT_H                                        
M  SDD   1     0.0000    0.0000    DR    ALL  0       0  
M  SED   1 IMPL_H1
M  END
>  <cdx:fragmentId>
3

$$$$
