38714.cdx
  Mrv1902 05222410242D          

 43 47  0  0  0  0            999 V2000
    6.4458   -6.8886    0.0000 C   0  0  0  0  0  0  0  0  0  0  0  0
    6.4458   -7.7107    0.0000 C   0  0  0  0  0  0  0  0  0  0  0  0
    5.7338   -8.1218    0.0000 C   0  0  0  0  0  0  0  0  0  0  0  0
    5.0218   -7.7107    0.0000 C   0  0  0  0  0  0  0  0  0  0  0  0
    4.3098   -8.1218    0.0000 C   0  0  0  0  0  0  0  0  0  0  0  0
    4.3098   -8.9440    0.0000 O   0  0  0  0  0  0  0  0  0  0  0  0
    3.5978   -7.7107    0.0000 C   0  0  0  0  0  0  0  0  0  0  0  0
    3.5978   -6.8886    0.0000 C   0  0  0  0  0  0  0  0  0  0  0  0
    2.8858   -6.4775    0.0000 O   0  0  0  0  0  0  0  0  0  0  0  0
    4.3098   -6.4775    0.0000 C   0  0  0  0  0  0  0  0  0  0  0  0
    5.0218   -6.8886    0.0000 C   0  0  0  0  0  0  0  0  0  0  0  0
    5.7338   -6.4775    0.0000 O   0  3  0  0  0  0  0  0  0  0  0  0
    7.1577   -6.4775    0.0000 C   0  0  0  0  0  0  0  0  0  0  0  0
    7.1577   -5.6554    0.0000 C   0  0  0  0  0  0  0  0  0  0  0  0
    7.8697   -5.2443    0.0000 C   0  0  0  0  0  0  0  0  0  0  0  0
    7.8697   -4.4222    0.0000 O   0  0  0  0  0  0  0  0  0  0  0  0
    8.5817   -5.6554    0.0000 C   0  0  0  0  0  0  0  0  0  0  0  0
    9.2937   -5.2443    0.0000 O   0  0  0  0  0  0  0  0  0  0  0  0
    8.5817   -6.4775    0.0000 C   0  0  0  0  0  0  0  0  0  0  0  0
    7.8697   -6.8886    0.0000 C   0  0  0  0  0  0  0  0  0  0  0  0
    7.1577   -8.1218    0.0000 O   0  0  0  0  0  0  0  0  0  0  0  0
    7.1577   -8.9440    0.0000 C   0  0  1  0  0  0  0  0  0  0  0  0
    7.8697   -9.3550    0.0000 C   0  0  2  0  0  0  0  0  0  0  0  0
    8.5817   -8.9440    0.0000 O   0  0  0  0  0  0  0  0  0  0  0  0
    9.2937   -9.3550    0.0000 C   0  0  1  0  0  0  0  0  0  0  0  0
   10.0057   -8.9440    0.0000 C   0  0  1  0  0  0  0  0  0  0  0  0
   10.7177   -9.3550    0.0000 C   0  0  2  0  0  0  0  0  0  0  0  0
   10.7177  -10.1772    0.0000 C   0  0  1  0  0  0  0  0  0  0  0  0
   10.0057  -10.5882    0.0000 C   0  0  2  0  0  0  0  0  0  0  0  0
    9.2937  -10.1772    0.0000 O   0  0  0  0  0  0  0  0  0  0  0  0
    6.4458   -9.3550    0.0000 O   0  0  0  0  0  0  0  0  0  0  0  0
    6.4458  -10.1772    0.0000 C   0  0  1  0  0  0  0  0  0  0  0  0
    7.1577  -10.5882    0.0000 C   0  0  2  0  0  0  0  0  0  0  0  0
    7.8697  -10.1772    0.0000 C   0  0  2  0  0  0  0  0  0  0  0  0
    8.5817  -10.5882    0.0000 O   0  0  0  0  0  0  0  0  0  0  0  0
    5.7338  -10.5882    0.0000 C   0  0  0  0  0  0  0  0  0  0  0  0
    5.7338  -11.4132    0.0000 O   0  0  0  0  0  0  0  0  0  0  0  0
    7.1577  -11.4104    0.0000 O   0  0  0  0  0  0  0  0  0  0  0  0
   10.0057   -8.1218    0.0000 O   0  0  0  0  0  0  0  0  0  0  0  0
   11.4297  -10.5882    0.0000 O   0  0  0  0  0  0  0  0  0  0  0  0
   11.4297   -8.9440    0.0000 O   0  0  0  0  0  0  0  0  0  0  0  0
   10.0057  -11.4132    0.0000 C   0  0  0  0  0  0  0  0  0  0  0  0
   10.7202  -11.8257    0.0000 O   0  0  0  0  0  0  0  0  0  0  0  0
  1  2  1  0  0  0  0
  2  3  2  0  0  0  0
  3  4  1  0  0  0  0
  4  5  2  0  0  0  0
  5  6  1  0  0  0  0
  5  7  1  0  0  0  0
  7  8  2  0  0  0  0
  8  9  1  0  0  0  0
  8 10  1  0  0  0  0
 10 11  2  0  0  0  0
  4 11  1  0  0  0  0
 11 12  1  0  0  0  0
  1 12  2  0  0  0  0
  1 13  1  0  0  0  0
 13 14  1  0  0  0  0
 14 15  2  0  0  0  0
 15 16  1  0  0  0  0
 15 17  1  0  0  0  0
 17 18  1  0  0  0  0
 17 19  2  0  0  0  0
 19 20  1  0  0  0  0
 13 20  2  0  0  0  0
 22 21  1  1  0  0  0
 23 24  1  6  0  0  0
 22 23  1  0  0  0  0
  2 21  1  0  0  0  0
 25 24  1  1  0  0  0
 25 26  1  0  0  0  0
 26 27  1  0  0  0  0
 27 28  1  0  0  0  0
 28 29  1  0  0  0  0
 29 30  1  0  0  0  0
 30 25  1  0  0  0  0
 22 31  1  0  0  0  0
 31 32  1  0  0  0  0
 32 33  1  0  0  0  0
 33 34  1  0  0  0  0
 34 23  1  0  0  0  0
 34 35  1  1  0  0  0
 32 36  1  1  0  0  0
 36 37  1  0  0  0  0
 33 38  1  6  0  0  0
 26 39  1  6  0  0  0
 28 40  1  6  0  0  0
 27 41  1  1  0  0  0
 29 42  1  1  0  0  0
 42 43  1  0  0  0  0
M  CHG  1  12   1
M  END
>  <cdx:fragmentId>
28712

$$$$
