38722.cdx
  Mrv1902 05222410202D          

 37 40  0  0  0  0            999 V2000
    3.0647  -12.8217    0.0000 C   0  0  0  0  0  0  0  0  0  0  0  0
    2.3502  -13.2342    0.0000 C   0  0  0  0  0  0  0  0  0  0  0  0
    3.0647  -11.9967    0.0000 O   0  0  0  0  0  0  0  0  0  0  0  0
    3.7791  -13.2342    0.0000 O   0  0  0  0  0  0  0  0  0  0  0  0
    4.4936  -12.8217    0.0000 C   0  0  0  0  0  0  0  0  0  0  0  0
    4.4936  -11.9967    0.0000 C   0  0  0  0  0  0  0  0  0  0  0  0
    5.2081  -11.5842    0.0000 C   0  0  0  0  0  0  0  0  0  0  0  0
    5.2081  -13.2342    0.0000 C   0  0  2  0  0  0  0  0  0  0  0  0
    5.6206  -13.9487    0.0000 C   0  0  0  0  0  0  0  0  0  0  0  0
    4.7956  -13.9487    0.0000 C   0  0  0  0  0  0  0  0  0  0  0  0
    5.9226  -12.8217    0.0000 C   0  0  0  0  0  0  0  0  0  0  0  0
    6.6370  -13.2342    0.0000 C   0  0  0  0  0  0  0  0  0  0  0  0
    7.3515  -12.8217    0.0000 C   0  0  0  0  0  0  0  0  0  0  0  0
    7.3515  -11.9967    0.0000 C   0  0  1  0  0  0  0  0  0  0  0  0
    7.3515  -11.1717    0.0000 C   0  0  0  0  0  0  0  0  0  0  0  0
    8.0660  -11.5842    0.0000 C   0  0  2  0  0  0  0  0  0  0  0  0
    8.0660  -12.4092    0.0000 C   0  0  0  0  0  0  0  0  0  0  0  0
    8.8506  -11.8392    0.0000 C   0  0  0  0  0  0  0  0  0  0  0  0
    9.3355  -11.1717    0.0000 C   0  0  0  0  0  0  0  0  0  0  0  0
    8.8506  -10.5043    0.0000 C   0  0  2  0  0  0  0  0  0  0  0  0
    9.1055   -9.7197    0.0000 C   0  0  1  0  0  0  0  0  0  0  0  0
    9.9125   -9.5481    0.0000 C   0  0  0  0  0  0  0  0  0  0  0  0
   10.1674   -8.7635    0.0000 C   0  0  0  0  0  0  0  0  0  0  0  0
   10.9744   -8.5920    0.0000 C   0  0  0  0  0  0  0  0  0  0  0  0
   11.2293   -7.8074    0.0000 C   0  0  0  0  0  0  0  0  0  0  0  0
   10.6773   -7.1943    0.0000 C   0  0  0  0  0  0  0  0  0  0  0  0
   12.0363   -7.6358    0.0000 C   0  0  0  0  0  0  0  0  0  0  0  0
    8.5535   -9.1066    0.0000 C   0  0  0  0  0  0  0  0  0  0  0  0
    8.0660  -10.7592    0.0000 C   0  0  1  0  0  0  0  0  0  0  0  0
    8.1522   -9.9387    0.0000 H   0  0  0  0  0  0  0  0  0  0  0  0
    7.3515  -10.3467    0.0000 C   0  0  0  0  0  0  0  0  0  0  0  0
    6.6370  -10.7592    0.0000 C   0  0  0  0  0  0  0  0  0  0  0  0
    6.6370  -11.5842    0.0000 C   0  0  2  0  0  0  0  0  0  0  0  0
    5.9226  -11.9967    0.0000 C   0  0  1  0  0  0  0  0  0  0  0  0
    5.9226  -11.1717    0.0000 C   0  0  0  0  0  0  0  0  0  0  0  0
    6.6370  -12.4092    0.0000 H   0  0  0  0  0  0  0  0  0  0  0  0
    9.6352  -10.2493    0.0000 H   0  0  0  0  0  0  0  0  0  0  0  0
  1  2  1  0  0  0  0
  1  3  2  0  0  0  0
  1  4  1  0  0  0  0
  5  6  2  0  0  0  0
  6  7  1  0  0  0  0
  5  8  1  0  0  0  0
  8  9  1  6  0  0  0
  8 10  1  1  0  0  0
  8 11  1  0  0  0  0
 11 12  2  0  0  0  0
 12 13  1  0  0  0  0
 13 14  1  0  0  0  0
 14 15  1  1  0  0  0
 14 16  1  0  0  0  0
 16 17  1  6  0  0  0
 16 18  1  0  0  0  0
 18 19  1  0  0  0  0
 20 19  1  0  0  0  0
 20 21  1  0  0  0  0
 21 22  1  0  0  0  0
 22 23  1  0  0  0  0
 23 24  1  0  0  0  0
 24 25  1  0  0  0  0
 25 26  1  0  0  0  0
 25 27  1  0  0  0  0
 21 28  1  6  0  0  0
 20 29  1  0  0  0  0
 16 29  1  0  0  0  0
 29 30  1  1  0  0  0
 29 31  1  0  0  0  0
 31 32  1  0  0  0  0
 32 33  1  0  0  0  0
 14 33  1  0  0  0  0
 33 34  1  0  0  0  0
  7 34  1  0  0  0  0
 11 34  1  0  0  0  0
 34 35  1  1  0  0  0
 33 36  1  6  0  0  0
  4  5  1  0  0  0  0
 20 37  1  6  0  0  0
M  END
>  <cdx:fragmentId>
120

$$$$
