38721.cdx
  Mrv1902 05222410212D          

 29 28  0  0  0  0            999 V2000
    6.4371   -8.3700    0.0000 O   0  0  0  0  0  0  0  0  0  0  0  0
    7.1516   -7.1325    0.0000 O   0  0  0  0  0  0  0  0  0  0  0  0
   17.8687   -8.3700    0.0000 C   0  0  0  0  0  0  0  0  0  0  0  0
   17.1542   -7.9575    0.0000 C   0  0  0  0  0  0  0  0  0  0  0  0
   16.4397   -8.3700    0.0000 C   0  0  0  0  0  0  0  0  0  0  0  0
   15.7253   -7.9575    0.0000 C   0  0  0  0  0  0  0  0  0  0  0  0
   15.0108   -8.3700    0.0000 C   0  0  0  0  0  0  0  0  0  0  0  0
   14.2963   -7.9575    0.0000 C   0  0  0  0  0  0  0  0  0  0  0  0
   13.5819   -8.3700    0.0000 C   0  0  0  0  0  0  0  0  0  0  0  0
   12.8674   -7.9575    0.0000 C   0  0  0  0  0  0  0  0  0  0  0  0
   12.1529   -8.3700    0.0000 C   0  0  0  0  0  0  0  0  0  0  0  0
   11.4384   -7.9575    0.0000 C   0  0  0  0  0  0  0  0  0  0  0  0
   10.7240   -8.3700    0.0000 C   0  0  0  0  0  0  0  0  0  0  0  0
   10.0095   -7.9575    0.0000 C   0  0  0  0  0  0  0  0  0  0  0  0
    9.2950   -8.3700    0.0000 C   0  0  0  0  0  0  0  0  0  0  0  0
    8.5806   -7.9575    0.0000 C   0  0  0  0  0  0  0  0  0  0  0  0
    7.8661   -8.3700    0.0000 C   0  0  0  0  0  0  0  0  0  0  0  0
    7.1516   -7.9575    0.0000 C   0  0  0  0  0  0  0  0  0  0  0  0
    1.4359   -7.9575    0.0000 O   0  0  0  0  0  0  0  0  0  0  0  0
    2.1503   -8.3700    0.0000 C   0  0  0  0  0  0  0  0  0  0  0  0
    2.8648   -7.1325    0.0000 O   0  0  0  0  0  0  0  0  0  0  0  0
    2.8648   -7.9575    0.0000 C   0  0  1  0  0  0  0  0  0  0  0  0
    3.5793   -9.1950    0.0000 O   0  0  0  0  0  0  0  0  0  0  0  0
    3.5793   -8.3700    0.0000 C   0  0  1  0  0  0  0  0  0  0  0  0
    4.2937   -7.1325    0.0000 O   0  0  0  0  0  0  0  0  0  0  0  0
    4.2937   -7.9575    0.0000 C   0  0  2  0  0  0  0  0  0  0  0  0
    5.0082   -9.1950    0.0000 O   0  0  0  0  0  0  0  0  0  0  0  0
    5.0082   -8.3700    0.0000 C   0  0  2  0  0  0  0  0  0  0  0  0
    5.7227   -7.9575    0.0000 C   0  0  0  0  0  0  0  0  0  0  0  0
 29  1  1  0  0  0  0
 18  1  1  0  0  0  0
 18  2  2  0  0  0  0
  4  3  1  0  0  0  0
  5  4  1  0  0  0  0
  6  5  1  0  0  0  0
  7  6  1  0  0  0  0
  8  7  1  0  0  0  0
  9  8  1  0  0  0  0
 10  9  1  0  0  0  0
 11 10  1  0  0  0  0
 12 11  1  0  0  0  0
 13 12  1  0  0  0  0
 14 13  1  0  0  0  0
 15 14  1  0  0  0  0
 16 15  1  0  0  0  0
 17 16  1  0  0  0  0
 18 17  1  0  0  0  0
 20 19  1  0  0  0  0
 22 20  1  0  0  0  0
 22 21  1  1  0  0  0
 24 22  1  0  0  0  0
 24 23  1  6  0  0  0
 26 24  1  0  0  0  0
 26 25  1  6  0  0  0
 28 26  1  0  0  0  0
 28 27  1  1  0  0  0
 29 28  1  0  0  0  0
M  END
>  <cdx:fragmentId>
18186

$$$$
