38732.cdx
  Mrv1902 05222410232D          

 44 48  0  0  0  0            999 V2000
    6.2191   -9.7160    0.0000 O   0  0  0  0  0  0  0  0  0  0  0  0
    4.7901   -7.2410    0.0000 O   0  0  0  0  0  0  0  0  0  0  0  0
   11.2204   -7.6535    0.0000 O   0  0  0  0  0  0  0  0  0  0  0  0
   11.9348   -6.4160    0.0000 C   0  0  0  0  0  0  0  0  0  0  0  0
   11.2204   -6.0035    0.0000 O   0  0  0  0  0  0  0  0  0  0  0  0
    9.0770   -6.4160    0.0000 C   0  0  0  0  0  0  0  0  0  0  0  0
    9.7914   -6.0035    0.0000 C   0  0  0  0  0  0  0  0  0  0  0  0
   10.5059   -6.4160    0.0000 C   0  0  0  0  0  0  0  0  0  0  0  0
   10.5059   -7.2410    0.0000 C   0  0  0  0  0  0  0  0  0  0  0  0
    9.7914   -7.6535    0.0000 C   0  0  0  0  0  0  0  0  0  0  0  0
    9.0770   -7.2410    0.0000 C   0  0  0  0  0  0  0  0  0  0  0  0
    7.6480   -9.7160    0.0000 O   0  0  0  0  0  0  0  0  0  0  0  0
    7.6480   -7.2410    0.0000 O   0  0  0  0  0  0  0  0  0  0  0  0
    6.9335   -7.6535    0.0000 C   0  0  0  0  0  0  0  0  0  0  0  0
    6.2191   -7.2410    0.0000 C   0  0  0  0  0  0  0  0  0  0  0  0
    5.5046   -7.6535    0.0000 C   0  0  0  0  0  0  0  0  0  0  0  0
    5.5046   -8.4785    0.0000 C   0  0  0  0  0  0  0  0  0  0  0  0
    6.2191   -8.8910    0.0000 C   0  0  0  0  0  0  0  0  0  0  0  0
    6.9335   -8.4785    0.0000 C   0  0  0  0  0  0  0  0  0  0  0  0
    7.6480   -8.8910    0.0000 C   0  0  0  0  0  0  0  0  0  0  0  0
    8.3625   -8.4785    0.0000 C   0  0  0  0  0  0  0  0  0  0  0  0
    8.3625   -7.6535    0.0000 C   0  0  0  0  0  0  0  0  0  0  0  0
    4.7901   -8.8910    0.0000 C   0  0  0  0  0  0  0  0  0  0  0  0
    4.0757   -8.4785    0.0000 O   0  0  0  0  0  0  0  0  0  0  0  0
    3.3612   -8.8910    0.0000 C   0  0  0  0  0  0  0  0  0  0  0  0
    3.3612   -9.7160    0.0000 C   0  0  0  0  0  0  0  0  0  0  0  0
    4.0757  -10.1285    0.0000 C   0  0  0  0  0  0  0  0  0  0  0  0
    4.7901   -9.7160    0.0000 C   0  0  0  0  0  0  0  0  0  0  0  0
    2.6467  -10.1285    0.0000 O   0  0  0  0  0  0  0  0  0  0  0  0
    4.0757  -10.9535    0.0000 O   0  0  0  0  0  0  0  0  0  0  0  0
    5.5046  -10.1285    0.0000 O   0  0  0  0  0  0  0  0  0  0  0  0
    6.2191   -6.4160    0.0000 C   0  0  0  0  0  0  0  0  0  0  0  0
    6.9335   -6.0035    0.0000 O   0  0  0  0  0  0  0  0  0  0  0  0
    6.9335   -5.1785    0.0000 C   0  0  0  0  0  0  0  0  0  0  0  0
    6.2191   -4.7660    0.0000 C   0  0  0  0  0  0  0  0  0  0  0  0
    5.5046   -5.1785    0.0000 C   0  0  0  0  0  0  0  0  0  0  0  0
    5.5046   -6.0035    0.0000 C   0  0  0  0  0  0  0  0  0  0  0  0
    4.7901   -6.4160    0.0000 O   0  0  0  0  0  0  0  0  0  0  0  0
    4.7901   -4.7660    0.0000 O   0  0  0  0  0  0  0  0  0  0  0  0
    6.2191   -3.9410    0.0000 O   0  0  0  0  0  0  0  0  0  0  0  0
    7.6480   -4.7660    0.0000 C   0  0  0  0  0  0  0  0  0  0  0  0
    7.6480   -3.9410    0.0000 O   0  0  0  0  0  0  0  0  0  0  0  0
    2.6467   -8.4785    0.0000 C   0  0  0  0  0  0  0  0  0  0  0  0
    1.9322   -8.8910    0.0000 O   0  0  0  0  0  0  0  0  0  0  0  0
 18  1  1  0  0  0  0
 16  2  1  0  0  0  0
 22 11  1  0  0  0  0
  9  3  1  0  0  0  0
  8  5  1  0  0  0  0
  5  4  1  0  0  0  0
 11  6  2  0  0  0  0
  7  6  1  0  0  0  0
  8  7  2  0  0  0  0
  9  8  1  0  0  0  0
 10  9  2  0  0  0  0
 11 10  1  0  0  0  0
 20 12  2  0  0  0  0
 22 13  1  0  0  0  0
 14 13  1  0  0  0  0
 19 14  2  0  0  0  0
 15 14  1  0  0  0  0
 16 15  2  0  0  0  0
 17 16  1  0  0  0  0
 18 17  2  0  0  0  0
 19 18  1  0  0  0  0
 20 19  1  0  0  0  0
 21 20  1  0  0  0  0
 22 21  2  0  0  0  0
 17 23  1  0  0  0  0
 23 24  1  0  0  0  0
 24 25  1  0  0  0  0
 25 26  1  0  0  0  0
 26 27  1  0  0  0  0
 27 28  1  0  0  0  0
 28 23  1  0  0  0  0
 26 29  1  0  0  0  0
 27 30  1  0  0  0  0
 28 31  1  0  0  0  0
 15 32  1  0  0  0  0
 32 33  1  0  0  0  0
 33 34  1  0  0  0  0
 34 35  1  0  0  0  0
 35 36  1  0  0  0  0
 36 37  1  0  0  0  0
 37 32  1  0  0  0  0
 37 38  1  0  0  0  0
 36 39  1  0  0  0  0
 35 40  1  0  0  0  0
 34 41  1  0  0  0  0
 41 42  1  0  0  0  0
 25 43  1  0  0  0  0
 43 44  1  0  0  0  0
M  END
>  <cdx:fragmentId>
5

$$$$
