38738.cdx
  Mrv1902 05222410252D          

 28 29  0  0  0  0            999 V2000
    9.6355   -7.1433    0.0000 C   0  0  0  0  0  0  0  0  0  0  0  0
    8.9164   -6.7447    0.0000 C   0  0  0  0  0  0  0  0  0  0  0  0
    8.2117   -7.1681    0.0000 C   0  0  0  0  0  0  0  0  0  0  0  0
    8.2261   -7.9901    0.0000 C   0  0  0  0  0  0  0  0  0  0  0  0
    8.9451   -8.3887    0.0000 C   0  0  0  0  0  0  0  0  0  0  0  0
    9.6498   -7.9653    0.0000 C   0  0  0  0  0  0  0  0  0  0  0  0
    5.2517   -9.2326    0.0000 O   0  0  0  0  0  0  0  0  0  0  0  0
    3.8107   -6.7760    0.0000 O   0  0  0  0  0  0  0  0  0  0  0  0
    4.5142   -5.5380    0.0000 C   0  0  0  0  0  0  0  0  0  0  0  0
    5.9381   -5.5281    0.0000 O   0  0  0  0  0  0  0  0  0  0  0  0
   10.3402   -6.7199    0.0000 O   0  0  0  0  0  0  0  0  0  0  0  0
    7.4927   -6.7696    0.0000 O   0  0  0  0  0  0  0  0  0  0  0  0
    8.9595   -9.2107    0.0000 O   0  0  0  0  0  0  0  0  0  0  0  0
    5.2290   -5.9441    0.0000 C   0  0  0  0  0  0  0  0  0  0  0  0
    6.6586   -6.7564    0.0000 O   0  0  0  0  0  0  0  0  0  0  0  0
    5.9495   -7.1724    0.0000 C   0  0  0  0  0  0  0  0  0  0  0  0
    5.2347   -6.7662    0.0000 C   0  0  0  0  0  0  0  0  0  0  0  0
    4.5256   -7.1822    0.0000 C   0  0  0  0  0  0  0  0  0  0  0  0
    4.5312   -8.0043    0.0000 C   0  0  0  0  0  0  0  0  0  0  0  0
    5.2460   -8.4104    0.0000 C   0  0  0  0  0  0  0  0  0  0  0  0
    5.9552   -7.9945    0.0000 C   0  0  0  0  0  0  0  0  0  0  0  0
   11.0592   -7.1184    0.0000 C   0  0  0  0  0  0  0  0  0  0  0  0
    7.0675   -8.4150    0.0000 C   0  0  0  0  0  0  0  0  0  0  0  0
    6.6529   -5.9314    0.0000 C   0  0  0  0  0  0  0  0  0  0  0  0
    8.9020   -5.9198    0.0000 C   0  0  0  0  0  0  0  0  0  0  0  0
    9.6092   -5.4949    0.0000 O   0  0  0  0  0  0  0  0  0  0  0  0
    8.1805   -5.5199    0.0000 C   0  0  0  0  0  0  0  0  0  0  0  0
   10.3714   -8.3653    0.0000 C   0  0  0  0  0  0  0  0  0  0  0  0
  1  2  2  0  0  0  0
  2  3  1  0  0  0  0
  3  4  2  0  0  0  0
  4  5  1  0  0  0  0
  5  6  2  0  0  0  0
  6  1  1  0  0  0  0
 20  7  1  0  0  0  0
 18  8  1  0  0  0  0
 14  9  1  0  0  0  0
 14 10  2  0  0  0  0
  1 11  1  0  0  0  0
  3 12  1  0  0  0  0
  5 13  1  0  0  0  0
 17 14  1  0  0  0  0
 16 15  1  0  0  0  0
 16 21  1  0  0  0  0
 17 16  2  0  0  0  0
 18 17  1  0  0  0  0
 19 18  2  0  0  0  0
 20 19  1  0  0  0  0
 21 20  2  0  0  0  0
 11 22  1  0  0  0  0
  4 23  1  0  0  0  0
 23 21  1  0  0  0  0
 15 24  1  0  0  0  0
  2 25  1  0  0  0  0
 25 26  2  0  0  0  0
 25 27  1  0  0  0  0
  6 28  1  0  0  0  0
M  END
>  <cdx:fragmentId>
28865

$$$$
