3339.cdx
  Mrv1902 05222410202D          

 46 50  0  0  0  0            999 V2000
   28.6079  -12.7316    0.0000 C   0  0  0  0  0  0  0  0  0  0  0  0
   28.6079  -13.5566    0.0000 C   0  0  0  0  0  0  0  0  0  0  0  0
   27.8935  -13.9691    0.0000 C   0  0  0  0  0  0  0  0  0  0  0  0
   27.1790  -13.5566    0.0000 C   0  0  0  0  0  0  0  0  0  0  0  0
   27.1790  -12.7316    0.0000 C   0  0  0  0  0  0  0  0  0  0  0  0
   27.8935  -12.3191    0.0000 O   0  0  0  0  0  0  0  0  0  0  0  0
   26.4645  -12.3191    0.0000 C   0  0  0  0  0  0  0  0  0  0  0  0
   25.7500  -12.7316    0.0000 C   0  0  0  0  0  0  0  0  0  0  0  0
   25.7500  -13.5566    0.0000 C   0  0  0  0  0  0  0  0  0  0  0  0
   26.4645  -13.9691    0.0000 C   0  0  0  0  0  0  0  0  0  0  0  0
   27.8935  -14.7941    0.0000 O   0  0  0  0  0  0  0  0  0  0  0  0
   29.3224  -12.3191    0.0000 C   0  0  0  0  0  0  0  0  0  0  0  0
   30.0369  -12.7316    0.0000 C   0  0  0  0  0  0  0  0  0  0  0  0
   30.7513  -12.3191    0.0000 C   0  0  0  0  0  0  0  0  0  0  0  0
   30.7513  -11.4941    0.0000 C   0  0  0  0  0  0  0  0  0  0  0  0
   30.0369  -11.0816    0.0000 C   0  0  0  0  0  0  0  0  0  0  0  0
   29.3224  -11.4941    0.0000 C   0  0  0  0  0  0  0  0  0  0  0  0
   31.4658  -11.0816    0.0000 O   0  0  0  0  0  0  0  0  0  0  0  0
   32.1803  -11.4941    0.0000 C   0  0  0  0  0  0  0  0  0  0  0  0
   31.4658  -12.7316    0.0000 O   0  0  0  0  0  0  0  0  0  0  0  0
   26.4645  -14.7941    0.0000 O   0  0  0  0  0  0  0  0  0  0  0  0
   25.0356  -12.3191    0.0000 O   0  0  0  0  0  0  0  0  0  0  0  0
   24.3211  -12.7316    0.0000 C   0  0  1  0  0  0  0  0  0  0  0  0
   24.3211  -13.5566    0.0000 C   0  0  2  0  0  0  0  0  0  0  0  0
   25.0356  -13.9691    0.0000 O   0  0  0  0  0  0  0  0  0  0  0  0
   23.6066  -13.9691    0.0000 C   0  0  1  0  0  0  0  0  0  0  0  0
   23.6066  -14.7941    0.0000 O   0  0  0  0  0  0  0  0  0  0  0  0
   22.8922  -13.5566    0.0000 C   0  0  2  0  0  0  0  0  0  0  0  0
   22.1777  -13.9691    0.0000 O   0  0  0  0  0  0  0  0  0  0  0  0
   22.8922  -12.7316    0.0000 C   0  0  2  0  0  0  0  0  0  0  0  0
   23.6066  -12.3191    0.0000 O   0  0  0  0  0  0  0  0  0  0  0  0
   22.1777  -12.3191    0.0000 C   0  0  0  0  0  0  0  0  0  0  0  0
   21.4632  -12.7316    0.0000 O   0  0  0  0  0  0  0  0  0  0  0  0
   31.4658  -13.5538    0.0000 C   0  0  1  0  0  0  0  0  0  0  0  0
   30.7513  -13.9663    0.0000 O   0  0  0  0  0  0  0  0  0  0  0  0
   30.7513  -14.7913    0.0000 C   0  0  1  0  0  0  0  0  0  0  0  0
   31.4658  -15.2038    0.0000 C   0  0  2  0  0  0  0  0  0  0  0  0
   32.1803  -14.7913    0.0000 C   0  0  1  0  0  0  0  0  0  0  0  0
   32.1803  -13.9663    0.0000 C   0  0  1  0  0  0  0  0  0  0  0  0
   31.4658  -16.0259    0.0000 O   0  0  0  0  0  0  0  0  0  0  0  0
   30.0393  -15.2023    0.0000 C   0  0  0  0  0  0  0  0  0  0  0  0
   32.8923  -15.2023    0.0000 O   0  0  0  0  0  0  0  0  0  0  0  0
   32.8923  -13.5552    0.0000 O   0  0  0  0  0  0  0  0  0  0  0  0
   22.1777  -11.4970    0.0000 O   0  0  0  0  0  0  0  0  0  0  0  0
   29.3274  -14.7913    0.0000 O   0  0  0  0  0  0  0  0  0  0  0  0
   30.0393  -16.0245    0.0000 O   0  0  0  0  0  0  0  0  0  0  0  0
  1  2  2  0  0  0  0
  2  3  1  0  0  0  0
  3  4  1  0  0  0  0
  4  5  1  0  0  0  0
  5  6  1  0  0  0  0
  1  6  1  0  0  0  0
  7  8  1  0  0  0  0
  8  9  2  0  0  0  0
  9 10  1  0  0  0  0
  4 10  2  0  0  0  0
  5  7  2  0  0  0  0
  3 11  2  0  0  0  0
 12 13  1  0  0  0  0
 13 14  2  0  0  0  0
 14 15  1  0  0  0  0
 15 16  2  0  0  0  0
 16 17  1  0  0  0  0
 12 17  2  0  0  0  0
 18 19  1  0  0  0  0
 15 18  1  0  0  0  0
 14 20  1  0  0  0  0
  1 12  1  0  0  0  0
 10 21  1  0  0  0  0
 23 24  1  0  0  0  0
 24 25  1  6  0  0  0
 24 26  1  0  0  0  0
 26 27  1  1  0  0  0
 26 28  1  0  0  0  0
 28 29  1  6  0  0  0
 28 30  1  0  0  0  0
 30 31  1  0  0  0  0
 30 32  1  1  0  0  0
 32 33  1  0  0  0  0
 23 31  1  0  0  0  0
 23 22  1  1  0  0  0
  8 22  1  0  0  0  0
 34 20  1  6  0  0  0
 34 35  1  0  0  0  0
 35 36  1  0  0  0  0
 36 37  1  0  0  0  0
 37 38  1  0  0  0  0
 38 39  1  0  0  0  0
 39 34  1  0  0  0  0
 37 40  1  6  0  0  0
 36 41  1  1  0  0  0
 38 42  1  1  0  0  0
 39 43  1  6  0  0  0
 32 44  2  0  0  0  0
 41 45  2  0  0  0  0
 41 46  1  0  0  0  0
M  END
>  <cdx:fragmentId>
18636

$$$$
