38735.cdx
  Mrv1902 05222410212D          

 34 37  0  0  0  0            999 V2000
    6.5755  -10.2066    0.0000 O   0  0  0  0  0  0  0  0  0  0  0  0
    5.1466   -7.7316    0.0000 O   0  0  0  0  0  0  0  0  0  0  0  0
   11.5768   -8.1441    0.0000 O   0  0  0  0  0  0  0  0  0  0  0  0
   12.2913   -6.9066    0.0000 C   0  0  0  0  0  0  0  0  0  0  0  0
   11.5768   -6.4941    0.0000 O   0  0  0  0  0  0  0  0  0  0  0  0
    9.4334   -6.9066    0.0000 C   0  0  0  0  0  0  0  0  0  0  0  0
   10.1479   -6.4941    0.0000 C   0  0  0  0  0  0  0  0  0  0  0  0
   10.8623   -6.9066    0.0000 C   0  0  0  0  0  0  0  0  0  0  0  0
   10.8623   -7.7316    0.0000 C   0  0  0  0  0  0  0  0  0  0  0  0
   10.1479   -8.1441    0.0000 C   0  0  0  0  0  0  0  0  0  0  0  0
    9.4334   -7.7316    0.0000 C   0  0  0  0  0  0  0  0  0  0  0  0
    5.8610  -10.6191    0.0000 O   0  0  0  0  0  0  0  0  0  0  0  0
    4.4321  -11.4441    0.0000 O   0  0  0  0  0  0  0  0  0  0  0  0
    3.0032  -10.6191    0.0000 O   0  0  0  0  0  0  0  0  0  0  0  0
    2.2887   -9.3816    0.0000 O   0  0  0  0  0  0  0  0  0  0  0  0
    3.0032   -8.9691    0.0000 C   0  0  0  0  0  0  0  0  0  0  0  0
    3.7176   -9.3816    0.0000 C   0  0  2  0  0  0  0  0  0  0  0  0
    3.7176  -10.2066    0.0000 C   0  0  2  0  0  0  0  0  0  0  0  0
    4.4321  -10.6191    0.0000 C   0  0  1  0  0  0  0  0  0  0  0  0
    5.1466  -10.2066    0.0000 C   0  0  2  0  0  0  0  0  0  0  0  0
    5.1466   -9.3816    0.0000 C   0  0  1  0  0  0  0  0  0  0  0  0
    4.4321   -8.9691    0.0000 O   0  0  0  0  0  0  0  0  0  0  0  0
    8.0045  -10.2066    0.0000 O   0  0  0  0  0  0  0  0  0  0  0  0
    8.0045   -7.7316    0.0000 O   0  0  0  0  0  0  0  0  0  0  0  0
    7.2900   -8.1441    0.0000 C   0  0  0  0  0  0  0  0  0  0  0  0
    6.5755   -7.7316    0.0000 C   0  0  0  0  0  0  0  0  0  0  0  0
    5.8610   -8.1441    0.0000 C   0  0  0  0  0  0  0  0  0  0  0  0
    5.8610   -8.9691    0.0000 C   0  0  0  0  0  0  0  0  0  0  0  0
    6.5755   -9.3816    0.0000 C   0  0  0  0  0  0  0  0  0  0  0  0
    7.2900   -8.9691    0.0000 C   0  0  0  0  0  0  0  0  0  0  0  0
    8.0045   -9.3816    0.0000 C   0  0  0  0  0  0  0  0  0  0  0  0
    8.7189   -8.9691    0.0000 C   0  0  0  0  0  0  0  0  0  0  0  0
    8.7189   -8.1441    0.0000 C   0  0  0  0  0  0  0  0  0  0  0  0
    5.1466   -8.5566    0.0000 H   0  0  0  0  0  0  0  0  0  0  0  0
 29  1  1  0  0  0  0
 27  2  1  0  0  0  0
 33 11  1  0  0  0  0
  9  3  1  0  0  0  0
  8  5  1  0  0  0  0
  5  4  1  0  0  0  0
 11  6  2  0  0  0  0
  7  6  1  0  0  0  0
  8  7  2  0  0  0  0
  9  8  1  0  0  0  0
 10  9  2  0  0  0  0
 11 10  1  0  0  0  0
 21 28  1  0  0  0  0
 20 12  1  6  0  0  0
 19 13  1  1  0  0  0
 18 14  1  6  0  0  0
 17 16  1  1  0  0  0
 16 15  1  0  0  0  0
 22 17  1  0  0  0  0
 18 17  1  0  0  0  0
 19 18  1  0  0  0  0
 20 19  1  0  0  0  0
 21 20  1  0  0  0  0
 22 21  1  0  0  0  0
 31 23  2  0  0  0  0
 33 24  1  0  0  0  0
 25 24  1  0  0  0  0
 30 25  2  0  0  0  0
 26 25  1  0  0  0  0
 27 26  2  0  0  0  0
 28 27  1  0  0  0  0
 29 28  2  0  0  0  0
 30 29  1  0  0  0  0
 31 30  1  0  0  0  0
 32 31  1  0  0  0  0
 33 32  2  0  0  0  0
 21 34  1  6  0  0  0
M  END
>  <cdx:fragmentId>
5

$$$$
