38745.cdx
  Mrv1902 05222410202D          

 22 21  0  0  0  0            999 V2000
    1.3610   -8.3732    0.0000 C   0  0  0  0  0  0  0  0  0  0  0  0
    2.0755   -7.9607    0.0000 C   0  0  0  0  0  0  0  0  0  0  0  0
    2.7900   -8.3732    0.0000 C   0  0  0  0  0  0  0  0  0  0  0  0
    3.5045   -7.9607    0.0000 C   0  0  0  0  0  0  0  0  0  0  0  0
    4.2189   -8.3732    0.0000 C   0  0  0  0  0  0  0  0  0  0  0  0
    4.9334   -7.9607    0.0000 C   0  0  0  0  0  0  0  0  0  0  0  0
    5.6479   -8.3732    0.0000 C   0  0  0  0  0  0  0  0  0  0  0  0
    6.3623   -7.9607    0.0000 C   0  0  0  0  0  0  0  0  0  0  0  0
    7.0768   -8.3732    0.0000 C   0  0  0  0  0  0  0  0  0  0  0  0
    7.7913   -7.9607    0.0000 C   0  0  0  0  0  0  0  0  0  0  0  0
    8.5058   -8.3732    0.0000 C   0  0  0  0  0  0  0  0  0  0  0  0
    9.2202   -7.9607    0.0000 C   0  0  0  0  0  0  0  0  0  0  0  0
    9.9347   -8.3732    0.0000 C   0  0  0  0  0  0  0  0  0  0  0  0
   10.6492   -7.9607    0.0000 C   0  0  0  0  0  0  0  0  0  0  0  0
   11.3636   -8.3732    0.0000 C   0  0  0  0  0  0  0  0  0  0  0  0
   12.0781   -7.9607    0.0000 C   0  0  0  0  0  0  0  0  0  0  0  0
   12.7926   -8.3732    0.0000 C   0  0  0  0  0  0  0  0  0  0  0  0
   13.5071   -7.9607    0.0000 C   0  0  0  0  0  0  0  0  0  0  0  0
   14.2215   -8.3732    0.0000 C   0  0  0  0  0  0  0  0  0  0  0  0
   14.9360   -7.9607    0.0000 C   0  0  0  0  0  0  0  0  0  0  0  0
    1.3610   -9.1982    0.0000 O   0  0  0  0  0  0  0  0  0  0  0  0
    0.6466   -7.9607    0.0000 O   0  0  0  0  0  0  0  0  0  0  0  0
  1  2  1  0  0  0  0
  2  3  2  0  0  0  0
  3  4  1  0  0  0  0
  4  5  1  0  0  0  0
  5  6  1  0  0  0  0
  6  7  1  0  0  0  0
  7  8  1  0  0  0  0
  8  9  1  0  0  0  0
  9 10  1  0  0  0  0
 10 11  1  0  0  0  0
 11 12  1  0  0  0  0
 12 13  1  0  0  0  0
 13 14  1  0  0  0  0
 14 15  1  0  0  0  0
 15 16  1  0  0  0  0
 16 17  1  0  0  0  0
 17 18  1  0  0  0  0
 18 19  1  0  0  0  0
 19 20  1  0  0  0  0
  1 21  2  0  0  0  0
  1 22  1  0  0  0  0
M  END
>  <cdx:fragmentId>
5

$$$$
