38743.cdx
  Mrv1902 05222410192D          

 22 21  0  0  0  0            999 V2000
    1.3246   -8.8811    0.0000 C   0  0  0  0  0  0  0  0  0  0  0  0
    2.0390   -8.4686    0.0000 C   0  0  0  0  0  0  0  0  0  0  0  0
    2.7535   -8.8811    0.0000 C   0  0  0  0  0  0  0  0  0  0  0  0
    3.4680   -8.4686    0.0000 C   0  0  0  0  0  0  0  0  0  0  0  0
    4.1824   -8.8811    0.0000 C   0  0  0  0  0  0  0  0  0  0  0  0
    4.8969   -8.4686    0.0000 C   0  0  0  0  0  0  0  0  0  0  0  0
    5.6114   -8.8811    0.0000 C   0  0  0  0  0  0  0  0  0  0  0  0
    6.3258   -8.4686    0.0000 C   0  0  0  0  0  0  0  0  0  0  0  0
    7.0403   -8.8811    0.0000 C   0  0  0  0  0  0  0  0  0  0  0  0
    7.7548   -8.4686    0.0000 C   0  0  0  0  0  0  0  0  0  0  0  0
    8.4693   -8.8811    0.0000 C   0  0  0  0  0  0  0  0  0  0  0  0
    9.1837   -8.4686    0.0000 C   0  0  0  0  0  0  0  0  0  0  0  0
    9.8982   -8.8811    0.0000 C   0  0  0  0  0  0  0  0  0  0  0  0
   10.6127   -8.4686    0.0000 C   0  0  0  0  0  0  0  0  0  0  0  0
   11.3271   -8.8811    0.0000 C   0  0  0  0  0  0  0  0  0  0  0  0
   12.0416   -8.4686    0.0000 C   0  0  0  0  0  0  0  0  0  0  0  0
   12.7561   -8.8811    0.0000 C   0  0  0  0  0  0  0  0  0  0  0  0
   13.4706   -8.4686    0.0000 C   0  0  0  0  0  0  0  0  0  0  0  0
   14.1850   -8.8811    0.0000 C   0  0  0  0  0  0  0  0  0  0  0  0
   14.8995   -8.4686    0.0000 C   0  0  0  0  0  0  0  0  0  0  0  0
    1.3246   -9.7061    0.0000 O   0  0  0  0  0  0  0  0  0  0  0  0
    0.6101   -8.4686    0.0000 O   0  0  0  0  0  0  0  0  0  0  0  0
  1  2  1  0  0  0  0
  2  3  2  0  0  0  0
  3  4  1  0  0  0  0
  4  5  2  0  0  0  0
  5  6  1  0  0  0  0
  6  7  1  0  0  0  0
  7  8  1  0  0  0  0
  8  9  1  0  0  0  0
  9 10  1  0  0  0  0
 10 11  1  0  0  0  0
 11 12  1  0  0  0  0
 12 13  1  0  0  0  0
 13 14  1  0  0  0  0
 14 15  1  0  0  0  0
 15 16  1  0  0  0  0
 16 17  1  0  0  0  0
 17 18  1  0  0  0  0
 18 19  1  0  0  0  0
 19 20  1  0  0  0  0
  1 21  2  0  0  0  0
  1 22  1  0  0  0  0
M  END
>  <cdx:fragmentId>
5

$$$$
