1849.cdx
  Mrv1902 05222410282D          

 19 21  0  0  0  0            999 V2000
    2.2010   -2.4744    0.0000 O   0  0  0  0  0  0  0  0  0  0  0  0
    2.5638   -1.7334    0.0000 C   0  0  0  0  0  0  0  0  0  0  0  0
    3.3707   -1.9049    0.0000 C   0  0  0  0  0  0  0  0  0  0  0  0
    3.4004   -2.7294    0.0000 C   0  0  1  0  0  0  0  0  0  0  0  0
    2.6860   -3.1419    0.0000 C   0  0  2  0  0  0  0  0  0  0  0  0
    2.6860   -3.9669    0.0000 C   0  0  2  0  0  0  0  0  0  0  0  0
    3.4004   -4.3794    0.0000 C   0  0  1  0  0  0  0  0  0  0  0  0
    4.1149   -3.9669    0.0000 C   0  0  0  0  0  0  0  0  0  0  0  0
    4.1149   -3.1419    0.0000 C   0  0  0  0  0  0  0  0  0  0  0  0
    1.9715   -2.7294    0.0000 C   0  0  0  0  0  0  0  0  0  0  0  0
    1.2570   -3.1419    0.0000 C   0  0  0  0  0  0  0  0  0  0  0  0
    1.2570   -3.9669    0.0000 C   0  0  0  0  0  0  0  0  0  0  0  0
    1.9715   -4.3794    0.0000 C   0  0  0  0  0  0  0  0  0  0  0  0
    2.1513   -1.0189    0.0000 O   0  0  0  0  0  0  0  0  0  0  0  0
    4.0024   -1.3743    0.0000 C   0  0  0  0  0  0  0  0  0  0  0  0
    0.5426   -2.7294    0.0000 C   0  0  0  0  0  0  0  0  0  0  0  0
    3.4004   -5.2044    0.0000 C   0  0  0  0  0  0  0  0  0  0  0  0
    4.1149   -2.3169    0.0000 H   0  0  0  0  0  0  0  0  0  0  0  0
    2.6860   -4.7919    0.0000 H   0  0  0  0  0  0  0  0  0  0  0  0
  1  2  1  0  0  0  0
  2  3  1  0  0  0  0
  3  4  1  0  0  0  0
  4  5  1  0  0  0  0
  5  1  1  6  0  0  0
  6  7  1  0  0  0  0
  7  8  1  0  0  0  0
  8  9  1  0  0  0  0
  4  9  1  0  0  0  0
  5  6  1  0  0  0  0
 10 11  2  0  0  0  0
 11 12  1  0  0  0  0
 12 13  1  0  0  0  0
  6 13  1  0  0  0  0
  5 10  1  1  0  0  0
  2 14  2  0  0  0  0
  3 15  2  0  0  0  0
 11 16  1  0  0  0  0
  7 17  1  1  0  0  0
  4 18  1  1  0  0  0
  6 19  1  1  0  0  0
M  END
>  <cdx:fragmentId>
34000

$$$$
