1851.cdx
  Mrv1902 05222410262D          

 19 20  0  0  0  0            999 V2000
    5.0359   -7.3967    0.0000 C   0  0  1  0  0  0  0  0  0  0  0  0
    5.5209   -8.0641    0.0000 C   0  0  0  0  0  0  0  0  0  0  0  0
    5.0359   -8.7316    0.0000 C   0  0  0  0  0  0  0  0  0  0  0  0
    4.2513   -8.4766    0.0000 C   0  0  2  0  0  0  0  0  0  0  0  0
    3.6063   -8.9910    0.0000 C   0  0  1  0  0  0  0  0  0  0  0  0
    2.8020   -8.8074    0.0000 C   0  0  0  0  0  0  0  0  0  0  0  0
    2.4440   -8.0641    0.0000 C   0  0  0  0  0  0  0  0  0  0  0  0
    2.8020   -7.3208    0.0000 C   0  0  1  0  0  0  0  0  0  0  0  0
    3.6063   -7.1372    0.0000 C   0  0  0  0  0  0  0  0  0  0  0  0
    4.2513   -7.6516    0.0000 C   0  0  2  0  0  0  0  0  0  0  0  0
    4.8644   -6.5897    0.0000 O   0  0  0  0  0  0  0  0  0  0  0  0
    4.1674   -9.5958    0.0000 O   0  0  0  0  0  0  0  0  0  0  0  0
    2.5890   -5.9078    0.0000 C   0  0  0  0  0  0  0  0  0  0  0  0
    2.2876   -6.6758    0.0000 C   0  0  0  0  0  0  0  0  0  0  0  0
    1.4718   -6.7988    0.0000 C   0  0  0  0  0  0  0  0  0  0  0  0
    3.3631   -9.7793    0.0000 C   0  0  0  0  0  0  0  0  0  0  0  0
    5.6490   -6.8446    0.0000 C   0  0  0  0  0  0  0  0  0  0  0  0
    4.5373   -9.2504    0.0000 H   0  0  0  0  0  0  0  0  0  0  0  0
    4.3986   -6.8399    0.0000 H   0  0  0  0  0  0  0  0  0  0  0  0
  1  2  1  0  0  0  0
  2  3  1  0  0  0  0
  3  4  1  0  0  0  0
  4  5  1  0  0  0  0
  5  6  1  0  0  0  0
  6  7  1  0  0  0  0
  7  8  1  0  0  0  0
  8  9  1  0  0  0  0
  9 10  1  0  0  0  0
  1 10  1  0  0  0  0
  4 10  1  0  0  0  0
  1 11  1  1  0  0  0
  5 12  1  6  0  0  0
 13 14  2  0  0  0  0
 14 15  1  0  0  0  0
  8 14  1  6  0  0  0
  5 16  1  1  0  0  0
  1 17  1  6  0  0  0
  4 18  1  1  0  0  0
 10 19  1  1  0  0  0
M  END
>  <cdx:fragmentId>
29752

$$$$
