38764.cdx
  Mrv1902 05222410282D          

 28 31  0  0  0  0            999 V2000
    7.4445   -7.6521    0.0000 C   0  0  1  0  0  0  0  0  0  0  0  0
    7.4445   -8.4771    0.0000 C   0  0  2  0  0  0  0  0  0  0  0  0
    6.7300   -8.8896    0.0000 C   0  0  0  0  0  0  0  0  0  0  0  0
    6.0156   -8.4771    0.0000 C   0  0  0  0  0  0  0  0  0  0  0  0
    5.3011   -8.8896    0.0000 C   0  0  0  0  0  0  0  0  0  0  0  0
    4.5866   -8.4771    0.0000 C   0  0  0  0  0  0  0  0  0  0  0  0
    4.5866   -7.6521    0.0000 C   0  0  0  0  0  0  0  0  0  0  0  0
    5.3011   -7.2396    0.0000 C   0  0  0  0  0  0  0  0  0  0  0  0
    6.0156   -7.6521    0.0000 C   0  0  0  0  0  0  0  0  0  0  0  0
    6.7300   -7.2396    0.0000 O   0  0  0  0  0  0  0  0  0  0  0  0
    8.1590   -8.8896    0.0000 O   0  0  0  0  0  0  0  0  0  0  0  0
    5.3011   -9.7146    0.0000 O   0  0  0  0  0  0  0  0  0  0  0  0
    3.8721   -7.2396    0.0000 O   0  0  0  0  0  0  0  0  0  0  0  0
    8.1590   -7.2396    0.0000 C   0  0  0  0  0  0  0  0  0  0  0  0
    8.8734   -7.6521    0.0000 C   0  0  0  0  0  0  0  0  0  0  0  0
    9.5879   -7.2396    0.0000 C   0  0  0  0  0  0  0  0  0  0  0  0
    9.5879   -6.4146    0.0000 C   0  0  0  0  0  0  0  0  0  0  0  0
    8.8734   -6.0021    0.0000 C   0  0  0  0  0  0  0  0  0  0  0  0
    8.1590   -6.4146    0.0000 C   0  0  0  0  0  0  0  0  0  0  0  0
   10.3024   -6.0021    0.0000 O   0  0  0  0  0  0  0  0  0  0  0  0
   10.3024   -7.6521    0.0000 O   0  0  0  0  0  0  0  0  0  0  0  0
    6.7300   -9.7146    0.0000 S   0  0  0  0  0  0  0  0  0  0  0  0
    7.4445  -10.1271    0.0000 C   0  0  0  0  0  0  0  0  0  0  0  0
    7.4445  -10.9521    0.0000 C   0  0  0  0  0  0  0  0  0  0  0  0
    8.1590  -11.3646    0.0000 C   0  0  0  0  0  0  0  0  0  0  0  0
    8.8734  -10.9521    0.0000 C   0  0  0  0  0  0  0  0  0  0  0  0
    8.8734  -10.1271    0.0000 C   0  0  0  0  0  0  0  0  0  0  0  0
    8.1590   -9.7146    0.0000 C   0  0  0  0  0  0  0  0  0  0  0  0
  1  2  1  0  0  0  0
  2  3  1  0  0  0  0
  3  4  1  0  0  0  0
  4  5  1  0  0  0  0
  5  6  2  0  0  0  0
  6  7  1  0  0  0  0
  7  8  2  0  0  0  0
  8  9  1  0  0  0  0
  4  9  2  0  0  0  0
  9 10  1  0  0  0  0
  1 10  1  0  0  0  0
  2 11  1  1  0  0  0
  5 12  1  0  0  0  0
  7 13  1  0  0  0  0
 14 15  1  0  0  0  0
 15 16  2  0  0  0  0
 16 17  1  0  0  0  0
 17 18  2  0  0  0  0
 18 19  1  0  0  0  0
 14 19  2  0  0  0  0
 17 20  1  0  0  0  0
 16 21  1  0  0  0  0
  1 14  1  1  0  0  0
 22 23  1  0  0  0  0
 23 24  1  0  0  0  0
 24 25  2  0  0  0  0
 25 26  1  0  0  0  0
 26 27  2  0  0  0  0
 27 28  1  0  0  0  0
 23 28  2  0  0  0  0
  3 22  1  0  0  0  0
M  END
>  <cdx:fragmentId>
29896

$$$$
