1852.cdx
  Mrv1902 05222410272D          

 32 35  0  0  0  0            999 V2000
    5.1521   -4.8872    0.0000 O   0  0  0  0  0  0  0  0  0  0  0  0
    4.6672   -4.2198    0.0000 C   0  0  2  0  0  0  0  0  0  0  0  0
    3.8825   -4.4747    0.0000 C   0  0  1  0  0  0  0  0  0  0  0  0
    3.8825   -5.2997    0.0000 C   0  0  1  0  0  0  0  0  0  0  0  0
    4.6672   -5.5547    0.0000 C   0  0  0  0  0  0  0  0  0  0  0  0
    2.6130   -4.8872    0.0000 O   0  0  0  0  0  0  0  0  0  0  0  0
    3.0979   -4.2198    0.0000 C   0  0  0  0  0  0  0  0  0  0  0  0
    3.0979   -5.5547    0.0000 C   0  0  2  0  0  0  0  0  0  0  0  0
    2.8430   -6.3393    0.0000 C   0  0  0  0  0  0  0  0  0  0  0  0
    2.0360   -6.5108    0.0000 C   0  0  0  0  0  0  0  0  0  0  0  0
    1.7811   -7.2954    0.0000 C   0  0  0  0  0  0  0  0  0  0  0  0
    2.3331   -7.9085    0.0000 C   0  0  0  0  0  0  0  0  0  0  0  0
    3.1401   -7.7370    0.0000 C   0  0  0  0  0  0  0  0  0  0  0  0
    3.3950   -6.9524    0.0000 C   0  0  0  0  0  0  0  0  0  0  0  0
    3.6921   -8.3501    0.0000 O   0  0  0  0  0  0  0  0  0  0  0  0
    4.4991   -8.1786    0.0000 C   0  0  0  0  0  0  0  0  0  0  0  0
    2.0782   -8.6931    0.0000 O   0  0  0  0  0  0  0  0  0  0  0  0
    1.2712   -8.8647    0.0000 C   0  0  0  0  0  0  0  0  0  0  0  0
    0.9741   -7.4670    0.0000 O   0  0  0  0  0  0  0  0  0  0  0  0
    0.3907   -6.8836    0.0000 C   0  0  0  0  0  0  0  0  0  0  0  0
    4.9221   -3.4352    0.0000 C   0  0  0  0  0  0  0  0  0  0  0  0
    5.7291   -3.2636    0.0000 C   0  0  0  0  0  0  0  0  0  0  0  0
    5.9840   -2.4790    0.0000 C   0  0  0  0  0  0  0  0  0  0  0  0
    5.4320   -1.8659    0.0000 C   0  0  0  0  0  0  0  0  0  0  0  0
    4.6250   -2.0374    0.0000 C   0  0  0  0  0  0  0  0  0  0  0  0
    4.3701   -2.8221    0.0000 C   0  0  0  0  0  0  0  0  0  0  0  0
    5.6869   -1.0813    0.0000 O   0  0  0  0  0  0  0  0  0  0  0  0
    6.4939   -0.9098    0.0000 C   0  0  0  0  0  0  0  0  0  0  0  0
    6.7910   -2.3075    0.0000 O   0  0  0  0  0  0  0  0  0  0  0  0
    7.3430   -2.9206    0.0000 C   0  0  0  0  0  0  0  0  0  0  0  0
    3.8825   -6.1247    0.0000 H   0  0  0  0  0  0  0  0  0  0  0  0
    3.8825   -3.6497    0.0000 H   0  0  0  0  0  0  0  0  0  0  0  0
  1  2  1  0  0  0  0
  2  3  1  0  0  0  0
  3  4  1  0  0  0  0
  4  5  1  0  0  0  0
  1  5  1  0  0  0  0
  6  7  1  0  0  0  0
  6  8  1  0  0  0  0
  3  7  1  0  0  0  0
  4  8  1  0  0  0  0
  9 10  1  0  0  0  0
 10 11  2  0  0  0  0
 11 12  1  0  0  0  0
 12 13  2  0  0  0  0
 13 14  1  0  0  0  0
  9 14  2  0  0  0  0
 15 16  1  0  0  0  0
 13 15  1  0  0  0  0
 17 18  1  0  0  0  0
 12 17  1  0  0  0  0
 19 20  1  0  0  0  0
 11 19  1  0  0  0  0
  8  9  1  1  0  0  0
 21 22  1  0  0  0  0
 22 23  2  0  0  0  0
 23 24  1  0  0  0  0
 24 25  2  0  0  0  0
 25 26  1  0  0  0  0
 21 26  2  0  0  0  0
 27 28  1  0  0  0  0
 24 27  1  0  0  0  0
 29 30  1  0  0  0  0
 23 29  1  0  0  0  0
  2 21  1  6  0  0  0
  4 31  1  6  0  0  0
  3 32  1  6  0  0  0
M  END
>  <cdx:fragmentId>
18492

$$$$
