1869.cdx
  Mrv1902 05222410272D          

 43 48  0  0  0  0            999 V2000
    8.0541   -7.7900    0.0000 C   0  0  0  0  0  0  0  0  0  0  0  0
    8.0541   -8.6150    0.0000 C   0  0  0  0  0  0  0  0  0  0  0  0
    7.3397   -9.0275    0.0000 C   0  0  0  0  0  0  0  0  0  0  0  0
    6.6252   -8.6150    0.0000 C   0  0  0  0  0  0  0  0  0  0  0  0
    5.9107   -9.0275    0.0000 C   0  0  0  0  0  0  0  0  0  0  0  0
    5.1962   -8.6150    0.0000 C   0  0  0  0  0  0  0  0  0  0  0  0
    5.1962   -7.7900    0.0000 C   0  0  0  0  0  0  0  0  0  0  0  0
    5.9107   -7.3775    0.0000 C   0  0  0  0  0  0  0  0  0  0  0  0
    6.6252   -7.7900    0.0000 C   0  0  0  0  0  0  0  0  0  0  0  0
    7.3397   -7.3775    0.0000 O   0  0  0  0  0  0  0  0  0  0  0  0
    8.7686   -9.0275    0.0000 O   0  0  0  0  0  0  0  0  0  0  0  0
    5.9107   -9.8525    0.0000 O   0  0  0  0  0  0  0  0  0  0  0  0
    4.4818   -7.3775    0.0000 O   0  0  0  0  0  0  0  0  0  0  0  0
    8.7686   -7.3775    0.0000 C   0  0  0  0  0  0  0  0  0  0  0  0
    9.4831   -7.7900    0.0000 C   0  0  0  0  0  0  0  0  0  0  0  0
   10.1975   -7.3775    0.0000 C   0  0  0  0  0  0  0  0  0  0  0  0
   10.1975   -6.5525    0.0000 C   0  0  0  0  0  0  0  0  0  0  0  0
    9.4831   -6.1400    0.0000 C   0  0  0  0  0  0  0  0  0  0  0  0
    8.7686   -6.5525    0.0000 C   0  0  0  0  0  0  0  0  0  0  0  0
    9.4831   -5.3150    0.0000 O   0  0  0  0  0  0  0  0  0  0  0  0
   10.9120   -6.1400    0.0000 O   0  0  0  0  0  0  0  0  0  0  0  0
   10.9120   -7.7900    0.0000 O   0  0  0  0  0  0  0  0  0  0  0  0
    6.6252   -4.8200    0.0000 C   0  0  0  0  0  0  0  0  0  0  0  0
    6.6252   -5.6450    0.0000 C   0  0  0  0  0  0  0  0  0  0  0  0
    5.9107   -6.0575    0.0000 C   0  0  0  0  0  0  0  0  0  0  0  0
    5.1962   -5.6450    0.0000 C   0  0  0  0  0  0  0  0  0  0  0  0
    4.4818   -6.0575    0.0000 C   0  0  0  0  0  0  0  0  0  0  0  0
    3.7673   -5.6450    0.0000 C   0  0  0  0  0  0  0  0  0  0  0  0
    3.7673   -4.8200    0.0000 C   0  0  0  0  0  0  0  0  0  0  0  0
    4.4818   -4.4075    0.0000 C   0  0  0  0  0  0  0  0  0  0  0  0
    5.1962   -4.8200    0.0000 C   0  0  0  0  0  0  0  0  0  0  0  0
    5.9107   -4.4075    0.0000 O   0  0  0  0  0  0  0  0  0  0  0  0
    3.0528   -4.4075    0.0000 O   0  0  0  0  0  0  0  0  0  0  0  0
    4.4818   -6.8825    0.0000 O   0  0  0  0  0  0  0  0  0  0  0  0
    7.3397   -6.0575    0.0000 O   0  0  0  0  0  0  0  0  0  0  0  0
    7.3397   -4.4075    0.0000 C   0  0  0  0  0  0  0  0  0  0  0  0
    7.3397   -3.5825    0.0000 C   0  0  0  0  0  0  0  0  0  0  0  0
    8.0541   -3.1700    0.0000 C   0  0  0  0  0  0  0  0  0  0  0  0
    8.7686   -3.5825    0.0000 C   0  0  0  0  0  0  0  0  0  0  0  0
    8.7686   -4.4075    0.0000 C   0  0  0  0  0  0  0  0  0  0  0  0
    8.0541   -4.8200    0.0000 C   0  0  0  0  0  0  0  0  0  0  0  0
    9.4831   -3.1700    0.0000 O   0  0  0  0  0  0  0  0  0  0  0  0
    8.0541   -2.3450    0.0000 O   0  0  0  0  0  0  0  0  0  0  0  0
  1  2  1  0  0  0  0
  2  3  1  0  0  0  0
  3  4  1  0  0  0  0
  4  5  1  0  0  0  0
  5  6  2  0  0  0  0
  6  7  1  0  0  0  0
  7  8  2  0  0  0  0
  8  9  1  0  0  0  0
  4  9  2  0  0  0  0
  9 10  1  0  0  0  0
  1 10  1  0  0  0  0
  2 11  1  0  0  0  0
  5 12  1  0  0  0  0
  7 13  1  0  0  0  0
 14 15  1  0  0  0  0
 15 16  2  0  0  0  0
 16 17  1  0  0  0  0
 17 18  2  0  0  0  0
 18 19  1  0  0  0  0
 14 19  2  0  0  0  0
 18 20  1  0  0  0  0
 17 21  1  0  0  0  0
 16 22  1  0  0  0  0
  1 14  1  0  0  0  0
 23 24  1  0  0  0  0
 24 25  1  0  0  0  0
 25 26  1  0  0  0  0
 26 27  1  0  0  0  0
 27 28  2  0  0  0  0
 28 29  1  0  0  0  0
 29 30  2  0  0  0  0
 30 31  1  0  0  0  0
 26 31  2  0  0  0  0
 31 32  1  0  0  0  0
 23 32  1  0  0  0  0
 29 33  1  0  0  0  0
 27 34  1  0  0  0  0
 24 35  1  0  0  0  0
 36 37  1  0  0  0  0
 37 38  2  0  0  0  0
 38 39  1  0  0  0  0
 39 40  2  0  0  0  0
 40 41  1  0  0  0  0
 36 41  2  0  0  0  0
 39 42  1  0  0  0  0
 38 43  1  0  0  0  0
 23 36  1  0  0  0  0
  8 25  1  0  0  0  0
M  END
>  <cdx:fragmentId>
29419

$$$$
