38785.cdx
  Mrv1902 05222410192D          

 36 39  0  0  0  0            999 V2000
    3.8206   -7.7126    0.0000 C   0  0  0  0  0  0  0  0  0  0  0  0
    3.8206   -8.5376    0.0000 C   0  0  0  0  0  0  0  0  0  0  0  0
    4.5350   -8.9501    0.0000 C   0  0  0  0  0  0  0  0  0  0  0  0
    5.2495   -8.5376    0.0000 C   0  0  0  0  0  0  0  0  0  0  0  0
    5.2495   -7.7126    0.0000 C   0  0  0  0  0  0  0  0  0  0  0  0
    4.5350   -7.3001    0.0000 C   0  0  0  0  0  0  0  0  0  0  0  0
    5.9640   -8.9501    0.0000 C   0  0  0  0  0  0  0  0  0  0  0  0
    6.6784   -8.5376    0.0000 C   0  0  0  0  0  0  0  0  0  0  0  0
    6.6784   -7.7126    0.0000 C   0  0  0  0  0  0  0  0  0  0  0  0
    5.9640   -7.3001    0.0000 O   0  0  0  0  0  0  0  0  0  0  0  0
    4.5350   -9.7751    0.0000 O   0  0  0  0  0  0  0  0  0  0  0  0
    5.9640   -9.7751    0.0000 O   0  0  0  0  0  0  0  0  0  0  0  0
    7.3929   -8.9501    0.0000 O   0  0  0  0  0  0  0  0  0  0  0  0
    8.1074   -7.7126    0.0000 C   0  0  0  0  0  0  0  0  0  0  0  0
    7.3929   -7.3001    0.0000 C   0  0  0  0  0  0  0  0  0  0  0  0
    8.8219   -7.3001    0.0000 C   0  0  0  0  0  0  0  0  0  0  0  0
    8.8219   -6.4751    0.0000 C   0  0  0  0  0  0  0  0  0  0  0  0
    8.1074   -6.0626    0.0000 C   0  0  0  0  0  0  0  0  0  0  0  0
    7.3929   -6.4751    0.0000 C   0  0  0  0  0  0  0  0  0  0  0  0
    4.5350   -6.4751    0.0000 C   0  0  0  0  0  0  0  0  0  0  0  0
    3.1061   -7.3001    0.0000 O   0  0  0  0  0  0  0  0  0  0  0  0
    9.5363   -6.0626    0.0000 O   0  0  0  0  0  0  0  0  0  0  0  0
    3.8206   -6.0626    0.0000 C   0  0  0  0  0  0  0  0  0  0  0  0
    3.8206   -5.2376    0.0000 C   0  0  0  0  0  0  0  0  0  0  0  0
    3.1061   -4.8251    0.0000 C   0  0  0  0  0  0  0  0  0  0  0  0
    4.5350   -4.8251    0.0000 C   0  0  0  0  0  0  0  0  0  0  0  0
   10.2508   -6.4751    0.0000 C   0  0  2  0  0  0  0  0  0  0  0  0
   10.2508   -7.3001    0.0000 O   0  0  0  0  0  0  0  0  0  0  0  0
   10.9653   -7.7126    0.0000 C   0  0  2  0  0  0  0  0  0  0  0  0
   11.6797   -7.3001    0.0000 C   0  0  1  0  0  0  0  0  0  0  0  0
   11.6797   -6.4751    0.0000 C   0  0  2  0  0  0  0  0  0  0  0  0
   10.9653   -6.0626    0.0000 C   0  0  1  0  0  0  0  0  0  0  0  0
   12.3942   -7.7126    0.0000 O   0  0  0  0  0  0  0  0  0  0  0  0
   12.3942   -6.0626    0.0000 O   0  0  0  0  0  0  0  0  0  0  0  0
   10.9653   -5.2376    0.0000 O   0  0  0  0  0  0  0  0  0  0  0  0
   10.9653   -8.5376    0.0000 C   0  0  0  0  0  0  0  0  0  0  0  0
  1  2  2  0  0  0  0
  2  3  1  0  0  0  0
  3  4  2  0  0  0  0
  4  5  1  0  0  0  0
  5  6  2  0  0  0  0
  6  1  1  0  0  0  0
  4  7  1  0  0  0  0
  7  8  1  0  0  0  0
  8  9  2  0  0  0  0
  9 10  1  0  0  0  0
 10  5  1  0  0  0  0
  3 11  1  0  0  0  0
 12  7  2  0  0  0  0
  8 13  1  0  0  0  0
 14 15  2  0  0  0  0
 15  9  1  0  0  0  0
 14 16  1  0  0  0  0
 16 17  2  0  0  0  0
 17 18  1  0  0  0  0
 18 19  2  0  0  0  0
 19 15  1  0  0  0  0
  6 20  1  0  0  0  0
 21  1  1  0  0  0  0
 17 22  1  0  0  0  0
 20 23  1  0  0  0  0
 23 24  2  0  0  0  0
 24 25  1  0  0  0  0
 24 26  1  0  0  0  0
 27 22  1  1  0  0  0
 27 28  1  0  0  0  0
 28 29  1  0  0  0  0
 29 30  1  0  0  0  0
 30 31  1  0  0  0  0
 31 32  1  0  0  0  0
 32 27  1  0  0  0  0
 30 33  1  1  0  0  0
 31 34  1  6  0  0  0
 32 35  1  6  0  0  0
 29 36  1  6  0  0  0
M  END
>  <cdx:fragmentId>
5

$$$$
