38784.cdx
  Mrv1902 05222410192D          

 38 44  0  0  0  0            999 V2000
    3.8738   -6.3556    0.0000 C   0  0  0  0  0  0  0  0  0  0  0  0
    3.5860   -7.1682    0.0000 C   0  0  0  0  0  0  0  0  0  0  0  0
    5.5490   -6.3293    0.0000 C   0  0  1  0  0  0  0  0  0  0  0  0
    4.7285   -6.2430    0.0000 O   0  0  0  0  0  0  0  0  0  0  0  0
    4.3930   -6.9967    0.0000 C   0  0  0  0  0  0  0  0  0  0  0  0
    8.5784   -7.9612    0.0000 C   0  0  0  0  0  0  0  0  0  0  0  0
    7.1495   -7.9612    0.0000 H   0  0  0  0  0  0  0  0  0  0  0  0
    4.2916   -7.9612    0.0000 H   0  0  0  0  0  0  0  0  0  0  0  0
    5.4048   -5.5490    0.0000 H   0  0  0  0  0  0  0  0  0  0  0  0
    6.4350   -9.1987    0.0000 O   0  0  0  0  0  0  0  0  0  0  0  0
    5.7205   -7.9612    0.0000 C   0  0  0  0  0  0  0  0  0  0  0  0
    7.6841   -5.3580    0.0000 O   0  0  0  0  0  0  0  0  0  0  0  0
    6.4075   -7.2050    0.0000 C   0  0  0  0  0  0  0  0  0  0  0  0
    7.1533   -6.7375    0.0000 O   0  0  0  0  0  0  0  0  0  0  0  0
    7.1008   -5.9414    0.0000 C   0  0  0  0  0  0  0  0  0  0  0  0
    6.3039   -5.7279    0.0000 C   0  0  0  0  0  0  0  0  0  0  0  0
    5.7205   -9.6112    0.0000 O   0  0  0  0  0  0  0  0  0  0  0  0
   10.0465   -8.7093    0.0000 C   0  0  0  0  0  0  0  0  0  0  0  0
   10.5986   -8.0962    0.0000 O   0  0  0  0  0  0  0  0  0  0  0  0
   10.1861   -7.3817    0.0000 C   0  0  0  0  0  0  0  0  0  0  0  0
    9.3791   -7.5533    0.0000 C   0  0  0  0  0  0  0  0  0  0  0  0
    9.2929   -8.3737    0.0000 C   0  0  0  0  0  0  0  0  0  0  0  0
    7.8639  -10.8488    0.0000 O   0  0  0  0  0  0  0  0  0  0  0  0
    5.7205   -7.1362    0.0000 C   0  0  1  0  0  0  0  0  0  0  0  0
    5.0060   -7.5488    0.0000 C   0  0  1  0  0  0  0  0  0  0  0  0
    5.0060   -8.3737    0.0000 C   0  0  0  0  0  0  0  0  0  0  0  0
    5.7205   -8.7862    0.0000 C   0  0  0  0  0  0  0  0  0  0  0  0
    7.8639   -7.5488    0.0000 C   0  0  0  0  0  0  0  0  0  0  0  0
    7.1495   -7.1362    0.0000 C   0  0  0  0  0  0  0  0  0  0  0  0
    6.4350   -7.5488    0.0000 C   0  0  1  0  0  0  0  0  0  0  0  0
    6.4350   -8.3737    0.0000 C   0  0  1  0  0  0  0  0  0  0  0  0
    7.8639   -8.3737    0.0000 C   0  0  1  0  0  0  0  0  0  0  0  0
    7.1495   -8.7862    0.0000 C   0  0  1  0  0  0  0  0  0  0  0  0
    7.1495   -9.6112    0.0000 C   0  0  1  0  0  0  0  0  0  0  0  0
    7.8639  -10.0238    0.0000 C   0  0  0  0  0  0  0  0  0  0  0  0
    8.5784   -9.6112    0.0000 O   0  0  0  0  0  0  0  0  0  0  0  0
    8.5784   -8.7862    0.0000 C   0  0  2  0  0  0  0  0  0  0  0  0
    6.7370  -10.3257    0.0000 H   0  0  0  0  0  0  0  0  0  0  0  0
  3  9  1  6  0  0  0
  3 16  1  0  0  0  0
  5  1  1  0  0  0  0
  5  2  1  0  0  0  0
  3 24  1  0  0  0  0
  4  3  1  0  0  0  0
  5  4  1  0  0  0  0
 25  5  1  0  0  0  0
 32  6  1  6  0  0  0
 30  7  1  6  0  0  0
 25  8  1  6  0  0  0
 34 10  1  0  0  0  0
 33 10  1  1  0  0  0
 31 11  1  1  0  0  0
 15 12  2  0  0  0  0
 24 13  1  1  0  0  0
 14 13  1  0  0  0  0
 15 14  1  0  0  0  0
 16 15  1  0  0  0  0
 27 17  2  0  0  0  0
 18 22  2  0  0  0  0
 19 18  1  0  0  0  0
 20 19  1  0  0  0  0
 21 20  2  0  0  0  0
 22 21  1  0  0  0  0
 37 22  1  1  0  0  0
 35 23  2  0  0  0  0
 24 30  1  0  0  0  0
 25 24  1  0  0  0  0
 26 25  1  0  0  0  0
 27 26  1  0  0  0  0
 31 27  1  0  0  0  0
 28 32  1  0  0  0  0
 29 28  1  0  0  0  0
 30 29  1  0  0  0  0
 31 30  1  0  0  0  0
 33 31  1  0  0  0  0
 32 37  1  0  0  0  0
 33 32  1  0  0  0  0
 34 33  1  0  0  0  0
 35 34  1  0  0  0  0
 36 35  1  0  0  0  0
 37 36  1  0  0  0  0
 34 38  1  6  0  0  0
M  END
>  <cdx:fragmentId>
5

$$$$
