1875.cdx
  Mrv1902 05222410182D          

 14 14  0  0  0  0            999 V2000
    2.2086   -4.9034    0.0000 C   0  0  0  0  0  0  0  0  0  0  0  0
    2.3796   -5.7076    0.0000 C   0  0  0  0  0  0  0  0  0  0  0  0
    3.1972   -5.7935    0.0000 C   0  0  0  0  0  0  0  0  0  0  0  0
    3.5316   -5.0425    0.0000 C   0  0  0  0  0  0  0  0  0  0  0  0
    2.9206   -4.4924    0.0000 C   0  0  0  0  0  0  0  0  0  0  0  0
    3.0066   -3.6747    0.0000 C   0  0  0  0  0  0  0  0  0  0  0  0
    4.3358   -4.8716    0.0000 C   0  0  0  0  0  0  0  0  0  0  0  0
    3.6083   -6.5055    0.0000 C   0  0  0  0  0  0  0  0  0  0  0  0
    4.5485   -4.0774    0.0000 H   0  0  0  0  0  0  0  0  0  0  0  0
    4.9171   -5.4529    0.0000 O   0  0  0  0  0  0  0  0  0  0  0  0
    4.4304   -6.5055    0.0000 C   0  0  0  0  0  0  0  0  0  0  0  0
    3.1972   -7.2175    0.0000 C   0  0  0  0  0  0  0  0  0  0  0  0
    2.3751   -7.2175    0.0000 O   0  0  0  0  0  0  0  0  0  0  0  0
    3.6083   -7.9295    0.0000 H   0  0  0  0  0  0  0  0  0  0  0  0
  1  2  1  0  0  0  0
  2  3  1  0  0  0  0
  3  4  1  0  0  0  0
  4  5  1  0  0  0  0
  5  1  1  0  0  0  0
  5  6  1  0  0  0  0
  4  7  1  0  0  0  0
  3  8  1  0  0  0  0
  7  9  1  0  0  0  0
  7 10  2  0  0  0  0
  8 11  2  0  0  0  0
  8 12  1  0  0  0  0
 12 13  2  0  0  0  0
 12 14  1  0  0  0  0
M  END
>  <cdx:fragmentId>
34083

$$$$
