38797.cdx
  Mrv1902 05222410182D          

 45 49  0  0  0  0            999 V2000
    5.0486   -5.3356    0.0000 C   0  0  2  0  0  0  0  0  0  0  0  0
    5.0486   -6.1606    0.0000 C   0  0  0  0  0  0  0  0  0  0  0  0
    4.3341   -6.5731    0.0000 C   0  0  0  0  0  0  0  0  0  0  0  0
    3.6196   -6.1606    0.0000 C   0  0  0  0  0  0  0  0  0  0  0  0
    2.9052   -6.5731    0.0000 C   0  0  0  0  0  0  0  0  0  0  0  0
    2.1907   -6.1606    0.0000 C   0  0  0  0  0  0  0  0  0  0  0  0
    2.1907   -5.3356    0.0000 C   0  0  0  0  0  0  0  0  0  0  0  0
    2.9052   -4.9231    0.0000 C   0  0  0  0  0  0  0  0  0  0  0  0
    3.6196   -5.3356    0.0000 C   0  0  0  0  0  0  0  0  0  0  0  0
    4.3341   -4.9231    0.0000 O   0  0  0  0  0  0  0  0  0  0  0  0
    4.3341   -7.3981    0.0000 O   0  0  0  0  0  0  0  0  0  0  0  0
    1.4762   -4.9231    0.0000 O   0  0  0  0  0  0  0  0  0  0  0  0
    2.9052   -7.3981    0.0000 O   0  0  0  0  0  0  0  0  0  0  0  0
    5.7630   -4.9231    0.0000 C   0  0  0  0  0  0  0  0  0  0  0  0
    6.4775   -5.3356    0.0000 C   0  0  0  0  0  0  0  0  0  0  0  0
    7.1920   -4.9231    0.0000 C   0  0  0  0  0  0  0  0  0  0  0  0
    7.1920   -4.0981    0.0000 C   0  0  0  0  0  0  0  0  0  0  0  0
    6.4775   -3.6856    0.0000 C   0  0  0  0  0  0  0  0  0  0  0  0
    5.7630   -4.0981    0.0000 C   0  0  0  0  0  0  0  0  0  0  0  0
    7.9064   -3.6856    0.0000 O   0  0  0  0  0  0  0  0  0  0  0  0
    7.9064   -5.3356    0.0000 O   0  0  0  0  0  0  0  0  0  0  0  0
    5.7630   -6.5731    0.0000 O   0  0  0  0  0  0  0  0  0  0  0  0
    5.7630   -7.3981    0.0000 C   0  0  2  0  0  0  0  0  0  0  0  0
    5.0486   -7.8106    0.0000 O   0  0  0  0  0  0  0  0  0  0  0  0
    5.0486   -8.6356    0.0000 C   0  0  1  0  0  0  0  0  0  0  0  0
    5.7630   -9.0481    0.0000 C   0  0  2  0  0  0  0  0  0  0  0  0
    6.4775   -8.6356    0.0000 C   0  0  1  0  0  0  0  0  0  0  0  0
    6.4775   -7.8106    0.0000 C   0  0  1  0  0  0  0  0  0  0  0  0
    4.3341   -9.0481    0.0000 C   0  0  0  0  0  0  0  0  0  0  0  0
    7.1920   -9.0481    0.0000 O   0  0  0  0  0  0  0  0  0  0  0  0
    5.7630   -9.8731    0.0000 O   0  0  0  0  0  0  0  0  0  0  0  0
    7.1920   -7.3981    0.0000 O   0  0  0  0  0  0  0  0  0  0  0  0
    4.3341   -9.8731    0.0000 O   0  0  0  0  0  0  0  0  0  0  0  0
    7.9064   -7.8106    0.0000 C   0  0  0  0  0  0  0  0  0  0  0  0
    8.6209   -7.3981    0.0000 C   0  0  0  0  0  0  0  0  0  0  0  0
    7.9064   -8.6356    0.0000 O   0  0  0  0  0  0  0  0  0  0  0  0
    9.3354   -7.8106    0.0000 C   0  0  0  0  0  0  0  0  0  0  0  0
   10.0499   -7.3981    0.0000 C   0  0  0  0  0  0  0  0  0  0  0  0
   10.7643   -7.8106    0.0000 C   0  0  0  0  0  0  0  0  0  0  0  0
   11.4788   -7.3981    0.0000 C   0  0  0  0  0  0  0  0  0  0  0  0
   11.4788   -6.5731    0.0000 C   0  0  0  0  0  0  0  0  0  0  0  0
   10.7643   -6.1606    0.0000 C   0  0  0  0  0  0  0  0  0  0  0  0
   10.0499   -6.5731    0.0000 C   0  0  0  0  0  0  0  0  0  0  0  0
   12.1933   -6.1606    0.0000 O   0  0  0  0  0  0  0  0  0  0  0  0
   12.1933   -7.8106    0.0000 O   0  0  0  0  0  0  0  0  0  0  0  0
  1  2  1  0  0  0  0
  2  3  1  0  0  0  0
  3  4  1  0  0  0  0
  4  5  1  0  0  0  0
  5  6  2  0  0  0  0
  6  7  1  0  0  0  0
  7  8  2  0  0  0  0
  8  9  1  0  0  0  0
  4  9  2  0  0  0  0
  9 10  1  0  0  0  0
  1 10  1  0  0  0  0
  3 11  2  0  0  0  0
  7 12  1  0  0  0  0
  5 13  1  0  0  0  0
 14 15  1  0  0  0  0
 15 16  2  0  0  0  0
 16 17  1  0  0  0  0
 17 18  2  0  0  0  0
 18 19  1  0  0  0  0
 14 19  2  0  0  0  0
 17 20  1  0  0  0  0
 16 21  1  0  0  0  0
  1 14  1  6  0  0  0
  2 22  1  0  0  0  0
 23 22  1  1  0  0  0
 23 24  1  0  0  0  0
 24 25  1  0  0  0  0
 25 26  1  0  0  0  0
 26 27  1  0  0  0  0
 27 28  1  0  0  0  0
 28 23  1  0  0  0  0
 25 29  1  1  0  0  0
 27 30  1  1  0  0  0
 26 31  1  6  0  0  0
 28 32  1  6  0  0  0
 29 33  1  0  0  0  0
 32 34  1  0  0  0  0
 34 35  1  0  0  0  0
 34 36  2  0  0  0  0
 35 37  1  0  0  0  0
 37 38  1  0  0  0  0
 38 39  2  0  0  0  0
 39 40  1  0  0  0  0
 40 41  2  0  0  0  0
 41 42  1  0  0  0  0
 42 43  2  0  0  0  0
 43 38  1  0  0  0  0
 41 44  1  0  0  0  0
 40 45  1  0  0  0  0
M  END
>  <cdx:fragmentId>
29998

$$$$
