388.cdx
  Mrv1902 05222410222D          

 26 27  0  0  0  0            999 V2000
    7.1789   -9.1759    0.0000 C   0  0  2  0  0  0  0  0  0  0  0  0
    7.8932   -9.5888    0.0000 C   0  0  0  0  0  0  0  0  0  0  0  0
    7.1793   -8.4540    0.0000 O   0  0  0  0  0  0  0  0  0  0  0  0
    8.5593   -6.8010    0.0000 C   0  0  2  0  0  0  0  0  0  0  0  0
    7.8447   -7.2131    0.0000 C   0  0  2  0  0  0  0  0  0  0  0  0
    7.8442   -8.0381    0.0000 C   0  0  1  0  0  0  0  0  0  0  0  0
    8.5585   -8.4510    0.0000 O   0  0  0  0  0  0  0  0  0  0  0  0
    9.2732   -8.0389    0.0000 C   0  0  1  0  0  0  0  0  0  0  0  0
    9.2736   -7.2139    0.0000 C   0  0  1  0  0  0  0  0  0  0  0  0
    9.9874   -8.4518    0.0000 C   0  0  0  0  0  0  0  0  0  0  0  0
    8.5598   -5.9760    0.0000 O   0  0  0  0  0  0  0  0  0  0  0  0
    9.9883   -6.8018    0.0000 O   0  0  0  0  0  0  0  0  0  0  0  0
    7.1304   -6.8002    0.0000 O   0  0  0  0  0  0  0  0  0  0  0  0
   10.7021   -8.0397    0.0000 O   0  0  0  0  0  0  0  0  0  0  0  0
    6.4642   -9.5880    0.0000 C   0  0  0  0  0  0  0  0  0  0  0  0
    5.7500   -9.1751    0.0000 C   0  0  0  0  0  0  0  0  0  0  0  0
    3.9000   -8.4829    0.0000 C   0  0  0  0  0  0  0  0  0  0  0  0
    4.7250   -8.4730    0.0000 C   0  0  0  0  0  0  0  0  0  0  0  0
    3.0357  -10.8374    0.0000 O   0  0  0  0  0  0  0  0  0  0  0  0
    5.7699  -10.8250    0.0000 C   0  0  0  0  0  0  0  0  0  0  0  0
    4.3211   -9.1924    0.0000 C   0  0  0  0  0  0  0  0  0  0  0  0
    5.0405   -9.5962    0.0000 C   0  0  2  0  0  0  0  0  0  0  0  0
    5.0505  -10.4212    0.0000 C   0  0  0  0  0  0  0  0  0  0  0  0
    4.3411  -10.8423    0.0000 C   0  0  0  0  0  0  0  0  0  0  0  0
    3.6217  -10.4384    0.0000 C   0  0  0  0  0  0  0  0  0  0  0  0
    3.6117   -9.6135    0.0000 C   0  0  0  0  0  0  0  0  0  0  0  0
  1  2  1  0  0  0  0
  1  3  1  1  0  0  0
  4  5  1  0  0  0  0
  5  6  1  0  0  0  0
  6  7  1  0  0  0  0
  7  8  1  0  0  0  0
  8  9  1  0  0  0  0
  9  4  1  0  0  0  0
  6  3  1  1  0  0  0
  8 10  1  1  0  0  0
  4 11  1  1  0  0  0
  9 12  1  6  0  0  0
  5 13  1  6  0  0  0
 15  1  1  0  0  0  0
 10 14  1  0  0  0  0
 16 15  1  0  0  0  0
 22 16  1  1  0  0  0
 21 17  1  0  0  0  0
 21 18  1  0  0  0  0
 25 19  2  0  0  0  0
 23 20  1  0  0  0  0
 21 26  1  0  0  0  0
 22 21  1  0  0  0  0
 23 22  1  0  0  0  0
 24 23  2  0  0  0  0
 25 24  1  0  0  0  0
 26 25  1  0  0  0  0
M  END
>  <cdx:fragmentId>
210

$$$$
