3880.cdx
  Mrv1902 05222410272D          

 48 51  0  0  0  0            999 V2000
    6.9470   -6.3800    0.0000 C   0  0  2  0  0  0  0  0  0  0  0  0
    6.9470   -7.2050    0.0000 C   0  0  2  0  0  0  0  0  0  0  0  0
    7.6615   -7.6175    0.0000 C   0  0  1  0  0  0  0  0  0  0  0  0
    8.3760   -7.2050    0.0000 C   0  0  2  0  0  0  0  0  0  0  0  0
    8.3760   -6.3800    0.0000 C   0  0  1  0  0  0  0  0  0  0  0  0
    7.6615   -5.9675    0.0000 O   0  0  0  0  0  0  0  0  0  0  0  0
    7.6615   -8.4425    0.0000 O   0  0  0  0  0  0  0  0  0  0  0  0
    6.2326   -5.9675    0.0000 C   0  0  0  0  0  0  0  0  0  0  0  0
    9.0904   -7.6175    0.0000 O   0  0  0  0  0  0  0  0  0  0  0  0
   13.3773   -5.9601    0.0000 O   0  0  0  0  0  0  0  0  0  0  0  0
   13.3801   -7.6101    0.0000 O   0  0  0  0  0  0  0  0  0  0  0  0
   10.5179   -5.1400    0.0000 O   0  0  0  0  0  0  0  0  0  0  0  0
   11.2360   -7.2013    0.0000 C   0  0  0  0  0  0  0  0  0  0  0  0
   11.9512   -7.6125    0.0000 C   0  0  0  0  0  0  0  0  0  0  0  0
   12.6649   -7.1988    0.0000 C   0  0  0  0  0  0  0  0  0  0  0  0
   12.6635   -6.3738    0.0000 C   0  0  0  0  0  0  0  0  0  0  0  0
   11.9483   -5.9625    0.0000 C   0  0  0  0  0  0  0  0  0  0  0  0
   11.2346   -6.3763    0.0000 C   0  0  0  0  0  0  0  0  0  0  0  0
   10.5194   -5.9650    0.0000 C   0  0  0  0  0  0  0  0  0  0  0  0
    9.8056   -6.3788    0.0000 C   0  0  0  0  0  0  0  0  0  0  0  0
    9.0904   -5.9675    0.0000 O   0  0  0  0  0  0  0  0  0  0  0  0
    1.2317   -7.2002    0.0000 O   0  0  0  0  0  0  0  0  0  0  0  0
    1.2301   -8.8502    0.0000 O   0  0  0  0  0  0  0  0  0  0  0  0
    2.6606   -7.2016    0.0000 C   0  0  0  0  0  0  0  0  0  0  0  0
    1.9457   -7.6134    0.0000 C   0  0  0  0  0  0  0  0  0  0  0  0
    1.9449   -8.4384    0.0000 C   0  0  0  0  0  0  0  0  0  0  0  0
    2.6590   -8.8516    0.0000 C   0  0  0  0  0  0  0  0  0  0  0  0
    3.3739   -8.4398    0.0000 C   0  0  0  0  0  0  0  0  0  0  0  0
    3.3747   -7.6148    0.0000 C   0  0  0  0  0  0  0  0  0  0  0  0
    4.0895   -7.2029    0.0000 C   0  0  0  0  0  0  0  0  0  0  0  0
    5.5193   -6.3793    0.0000 O   0  0  0  0  0  0  0  0  0  0  0  0
    4.8036   -7.6161    0.0000 C   0  0  0  0  0  0  0  0  0  0  0  0
    5.5185   -7.2043    0.0000 C   0  0  0  0  0  0  0  0  0  0  0  0
    6.2326   -7.6175    0.0000 O   0  0  0  0  0  0  0  0  0  0  0  0
    5.5128   -8.8448    0.0000 C   0  0  1  0  0  0  0  0  0  0  0  0
    5.5131   -9.6698    0.0000 C   0  0  1  0  0  0  0  0  0  0  0  0
    6.2277  -10.0821    0.0000 C   0  0  2  0  0  0  0  0  0  0  0  0
    6.9420   -9.6693    0.0000 C   0  0  2  0  0  0  0  0  0  0  0  0
    6.9418   -8.8443    0.0000 C   0  0  1  0  0  0  0  0  0  0  0  0
    6.2272   -8.4321    0.0000 O   0  0  0  0  0  0  0  0  0  0  0  0
    4.7988  -10.0825    0.0000 O   0  0  0  0  0  0  0  0  0  0  0  0
    4.7982   -8.4325    0.0000 C   0  0  0  0  0  0  0  0  0  0  0  0
    6.2280  -10.9071    0.0000 O   0  0  0  0  0  0  0  0  0  0  0  0
    7.6566  -10.0816    0.0000 O   0  0  0  0  0  0  0  0  0  0  0  0
    6.2326   -5.1425    0.0000 O   0  0  0  0  0  0  0  0  0  0  0  0
    9.0904   -8.4425    0.0000 C   0  0  0  0  0  0  0  0  0  0  0  0
    9.8049   -8.8550    0.0000 C   0  0  0  0  0  0  0  0  0  0  0  0
    8.3760   -8.8550    0.0000 O   0  0  0  0  0  0  0  0  0  0  0  0
  1  2  1  0  0  0  0
  2  3  1  0  0  0  0
  3  4  1  0  0  0  0
  4  5  1  0  0  0  0
  5  6  1  0  0  0  0
  6  1  1  0  0  0  0
 16 10  1  0  0  0  0
  5 21  1  1  0  0  0
  3  7  1  1  0  0  0
  1  8  1  1  0  0  0
  4  9  1  6  0  0  0
 25 22  1  0  0  0  0
  2 34  1  6  0  0  0
 15 11  1  0  0  0  0
 19 12  1  0  0  0  0
 13 18  1  0  0  0  0
 14 13  2  0  0  0  0
 15 14  1  0  0  0  0
 16 15  2  0  0  0  0
 17 16  1  0  0  0  0
 18 17  2  0  0  0  0
 19 18  1  0  0  0  0
 20 19  1  0  0  0  0
 21 20  1  0  0  0  0
 26 23  1  0  0  0  0
 24 29  1  0  0  0  0
 25 24  2  0  0  0  0
 26 25  1  0  0  0  0
 27 26  2  0  0  0  0
 28 27  1  0  0  0  0
 29 28  2  0  0  0  0
 30 29  1  0  0  0  0
 32 30  2  0  0  0  0
 33 31  2  0  0  0  0
 33 32  1  0  0  0  0
 34 33  1  0  0  0  0
 35 36  1  0  0  0  0
 36 37  1  0  0  0  0
 37 38  1  0  0  0  0
 38 39  1  0  0  0  0
 39 40  1  0  0  0  0
 40 35  1  0  0  0  0
 36 41  1  1  0  0  0
 35 42  1  6  0  0  0
 37 43  1  6  0  0  0
 38 44  1  6  0  0  0
 39  7  1  1  0  0  0
  8 45  1  0  0  0  0
  9 46  1  0  0  0  0
 46 47  1  0  0  0  0
 46 48  2  0  0  0  0
M  END
>  <cdx:fragmentId>
5

$$$$
