38804.cdx
  Mrv1902 05222410192D          

 27 28  0  0  0  0            999 V2000
    6.0791   -8.0817    0.0000 C   0  0  0  0  0  0  0  0  0  0  0  0
   11.7800   -8.0817    0.0000 O   0  0  0  0  0  0  0  0  0  0  0  0
   11.0680   -8.4928    0.0000 C   0  0  0  0  0  0  0  0  0  0  0  0
   10.3560   -8.0817    0.0000 C   0  0  0  0  0  0  0  0  0  0  0  0
    9.6440   -8.4928    0.0000 C   0  0  0  0  0  0  0  0  0  0  0  0
    6.7911   -8.4928    0.0000 O   0  0  0  0  0  0  0  0  0  0  0  0
    7.5031   -8.0817    0.0000 C   0  0  0  0  0  0  0  0  0  0  0  0
    8.2176   -8.4942    0.0000 C   0  0  0  0  0  0  0  0  0  0  0  0
    8.9320   -8.0817    0.0000 C   0  0  0  0  0  0  0  0  0  0  0  0
    8.9320   -7.2567    0.0000 C   0  0  0  0  0  0  0  0  0  0  0  0
    8.2176   -6.8442    0.0000 C   0  0  0  0  0  0  0  0  0  0  0  0
    7.5031   -7.2567    0.0000 C   0  0  0  0  0  0  0  0  0  0  0  0
    8.2151   -6.0235    0.0000 O   0  0  0  0  0  0  0  0  0  0  0  0
    7.5031   -5.6124    0.0000 C   0  0  0  0  0  0  0  0  0  0  0  0
    6.7911   -6.8456    0.0000 O   0  0  0  0  0  0  0  0  0  0  0  0
    6.7911   -6.0235    0.0000 C   0  0  1  0  0  0  0  0  0  0  0  0
    6.0791   -4.7903    0.0000 O   0  0  0  0  0  0  0  0  0  0  0  0
    6.0791   -5.6124    0.0000 C   0  0  1  0  0  0  0  0  0  0  0  0
    3.2262   -5.6124    0.0000 O   0  0  0  0  0  0  0  0  0  0  0  0
    3.2262   -7.2596    0.0000 O   0  0  0  0  0  0  0  0  0  0  0  0
    4.6527   -7.2610    0.0000 C   0  0  0  0  0  0  0  0  0  0  0  0
    5.3671   -6.8485    0.0000 C   0  0  0  0  0  0  0  0  0  0  0  0
    5.3671   -6.0235    0.0000 C   0  0  0  0  0  0  0  0  0  0  0  0
    4.6527   -5.6110    0.0000 C   0  0  0  0  0  0  0  0  0  0  0  0
    3.9382   -6.0235    0.0000 C   0  0  0  0  0  0  0  0  0  0  0  0
    3.9382   -6.8485    0.0000 C   0  0  0  0  0  0  0  0  0  0  0  0
    2.5117   -6.8471    0.0000 C   0  0  0  0  0  0  0  0  0  0  0  0
  6  1  1  0  0  0  0
  3  2  1  0  0  0  0
  4  3  1  0  0  0  0
  5  4  1  0  0  0  0
  9  5  1  0  0  0  0
  7  6  1  0  0  0  0
  7 12  1  0  0  0  0
  8  7  2  0  0  0  0
  9  8  1  0  0  0  0
 10  9  2  0  0  0  0
 11 10  1  0  0  0  0
 12 11  2  0  0  0  0
 15 12  1  0  0  0  0
 14 13  1  0  0  0  0
 16 14  1  0  0  0  0
 16 15  1  1  0  0  0
 18 16  1  0  0  0  0
 18 17  1  6  0  0  0
 23 18  1  0  0  0  0
 25 19  1  0  0  0  0
 26 20  1  0  0  0  0
 21 26  1  0  0  0  0
 22 21  2  0  0  0  0
 23 22  1  0  0  0  0
 24 23  2  0  0  0  0
 25 24  1  0  0  0  0
 26 25  2  0  0  0  0
 20 27  1  0  0  0  0
M  END
>  <cdx:fragmentId>
17363

$$$$
