1902.cdx
  Mrv1902 05222410202D          

 28 29  0  0  0  0            999 V2000
    3.2926   -7.4844    0.0000 C   0  0  0  0  0  0  0  0  0  0  0  0
    4.0046   -7.0734    0.0000 C   0  0  0  0  0  0  0  0  0  0  0  0
    4.0046   -6.2512    0.0000 C   0  0  0  0  0  0  0  0  0  0  0  0
    3.2926   -5.8402    0.0000 C   0  0  0  0  0  0  0  0  0  0  0  0
    2.5806   -6.2512    0.0000 C   0  0  0  0  0  0  0  0  0  0  0  0
    2.5806   -7.0734    0.0000 C   0  0  0  0  0  0  0  0  0  0  0  0
    3.2926   -8.3066    0.0000 O   0  0  0  0  0  0  0  0  0  0  0  0
    4.7166   -7.4844    0.0000 O   0  0  0  0  0  0  0  0  0  0  0  0
    4.7166   -8.3066    0.0000 C   0  0  0  0  0  0  0  0  0  0  0  0
    3.2926   -5.0180    0.0000 C   0  0  2  0  0  0  0  0  0  0  0  0
    2.5806   -4.6070    0.0000 O   0  0  0  0  0  0  0  0  0  0  0  0
    4.0046   -4.6070    0.0000 C   0  0  1  0  0  0  0  0  0  0  0  0
    4.0046   -3.7848    0.0000 O   0  0  0  0  0  0  0  0  0  0  0  0
    4.7166   -5.0180    0.0000 C   0  0  0  0  0  0  0  0  0  0  0  0
    4.7166   -3.3738    0.0000 C   0  0  0  0  0  0  0  0  0  0  0  0
    5.4286   -3.7848    0.0000 C   0  0  0  0  0  0  0  0  0  0  0  0
    6.1406   -3.3738    0.0000 C   0  0  0  0  0  0  0  0  0  0  0  0
    6.1406   -2.5516    0.0000 C   0  0  0  0  0  0  0  0  0  0  0  0
    5.4286   -2.1406    0.0000 C   0  0  0  0  0  0  0  0  0  0  0  0
    4.7166   -2.5516    0.0000 C   0  0  0  0  0  0  0  0  0  0  0  0
    4.0046   -2.1406    0.0000 O   0  0  0  0  0  0  0  0  0  0  0  0
    6.8525   -2.1406    0.0000 C   0  0  0  0  0  0  0  0  0  0  0  0
    6.8525   -1.3184    0.0000 C   0  0  0  0  0  0  0  0  0  0  0  0
    7.5645   -0.9074    0.0000 C   0  0  0  0  0  0  0  0  0  0  0  0
    4.0046   -1.3184    0.0000 C   0  0  0  0  0  0  0  0  0  0  0  0
    1.8686   -7.4844    0.0000 O   0  0  0  0  0  0  0  0  0  0  0  0
    1.1566   -7.0734    0.0000 C   0  0  0  0  0  0  0  0  0  0  0  0
    4.0046   -8.7176    0.0000 C   0  0  0  0  0  0  0  0  0  0  0  0
  1  2  2  0  0  0  0
  2  3  1  0  0  0  0
  3  4  2  0  0  0  0
  4  5  1  0  0  0  0
  5  6  2  0  0  0  0
  6  1  1  0  0  0  0
  1  7  1  0  0  0  0
  2  8  1  0  0  0  0
  8  9  1  0  0  0  0
  4 10  1  0  0  0  0
 10 11  1  6  0  0  0
 10 12  1  0  0  0  0
 12 13  1  0  0  0  0
 12 14  1  1  0  0  0
 13 15  1  0  0  0  0
 15 16  2  0  0  0  0
 16 17  1  0  0  0  0
 17 18  2  0  0  0  0
 18 19  1  0  0  0  0
 19 20  2  0  0  0  0
 20 15  1  0  0  0  0
 20 21  1  0  0  0  0
 18 22  1  0  0  0  0
 22 23  1  0  0  0  0
 23 24  2  0  0  0  0
 21 25  1  0  0  0  0
  6 26  1  0  0  0  0
 26 27  1  0  0  0  0
  7 28  1  0  0  0  0
M  END
>  <cdx:fragmentId>
17363

$$$$
