1900.cdx
  Mrv1902 05222410192D          

 33 36  0  0  0  0            999 V2000
    6.3754   -3.4977    0.0000 C   0  0  0  0  0  0  0  0  0  0  0  0
    6.3754   -4.3227    0.0000 C   0  0  0  0  0  0  0  0  0  0  0  0
    7.0898   -4.7352    0.0000 C   0  0  0  0  0  0  0  0  0  0  0  0
    7.8043   -4.3227    0.0000 C   0  0  0  0  0  0  0  0  0  0  0  0
    7.8043   -3.4977    0.0000 C   0  0  0  0  0  0  0  0  0  0  0  0
    7.0898   -3.0852    0.0000 C   0  0  0  0  0  0  0  0  0  0  0  0
    8.5188   -4.7352    0.0000 C   0  0  0  0  0  0  0  0  0  0  0  0
    9.2333   -4.3227    0.0000 C   0  0  0  0  0  0  0  0  0  0  0  0
    9.2333   -3.4977    0.0000 C   0  0  0  0  0  0  0  0  0  0  0  0
    8.5188   -3.0852    0.0000 O   0  0  0  0  0  0  0  0  0  0  0  0
    9.9452   -3.0866    0.0000 C   0  0  0  0  0  0  0  0  0  0  0  0
   10.6597   -3.4991    0.0000 C   0  0  0  0  0  0  0  0  0  0  0  0
   11.3742   -3.0866    0.0000 C   0  0  0  0  0  0  0  0  0  0  0  0
   11.3742   -2.2616    0.0000 C   0  0  0  0  0  0  0  0  0  0  0  0
   10.6597   -1.8491    0.0000 C   0  0  0  0  0  0  0  0  0  0  0  0
    9.9452   -2.2616    0.0000 C   0  0  0  0  0  0  0  0  0  0  0  0
   12.0862   -1.8505    0.0000 O   0  0  0  0  0  0  0  0  0  0  0  0
   12.0862   -3.4977    0.0000 O   0  0  0  0  0  0  0  0  0  0  0  0
    8.5188   -5.5573    0.0000 O   0  0  0  0  0  0  0  0  0  0  0  0
    7.0898   -5.5573    0.0000 O   0  0  0  0  0  0  0  0  0  0  0  0
    5.6634   -3.0866    0.0000 O   0  0  0  0  0  0  0  0  0  0  0  0
    4.9514   -3.4977    0.0000 C   0  0  2  0  0  0  0  0  0  0  0  0
    4.2369   -3.0852    0.0000 O   0  0  0  0  0  0  0  0  0  0  0  0
    3.5225   -3.4977    0.0000 C   0  0  1  0  0  0  0  0  0  0  0  0
    3.5225   -4.3227    0.0000 C   0  0  2  0  0  0  0  0  0  0  0  0
    4.2369   -4.7352    0.0000 C   0  0  1  0  0  0  0  0  0  0  0  0
    4.9514   -4.3227    0.0000 C   0  0  1  0  0  0  0  0  0  0  0  0
    2.8105   -3.0866    0.0000 C   0  0  0  0  0  0  0  0  0  0  0  0
    2.0985   -3.4977    0.0000 O   0  0  0  0  0  0  0  0  0  0  0  0
    2.8105   -2.2645    0.0000 O   0  0  0  0  0  0  0  0  0  0  0  0
    4.2369   -5.5573    0.0000 O   0  0  0  0  0  0  0  0  0  0  0  0
    5.6634   -4.7337    0.0000 O   0  0  0  0  0  0  0  0  0  0  0  0
    2.8105   -4.7337    0.0000 O   0  0  0  0  0  0  0  0  0  0  0  0
  1  2  2  0  0  0  0
  2  3  1  0  0  0  0
  3  4  2  0  0  0  0
  4  5  1  0  0  0  0
  5  6  2  0  0  0  0
  6  1  1  0  0  0  0
  4  7  1  0  0  0  0
  7  8  1  0  0  0  0
  8  9  1  0  0  0  0
  9 10  1  0  0  0  0
 10  5  1  0  0  0  0
  9 11  1  0  0  0  0
 11 12  2  0  0  0  0
 12 13  1  0  0  0  0
 13 14  2  0  0  0  0
 14 15  1  0  0  0  0
 15 16  2  0  0  0  0
 16 11  1  0  0  0  0
 14 17  1  0  0  0  0
 13 18  1  0  0  0  0
  7 19  2  0  0  0  0
  3 20  1  0  0  0  0
  1 21  1  0  0  0  0
 22 21  1  1  0  0  0
 22 23  1  0  0  0  0
 23 24  1  0  0  0  0
 24 25  1  0  0  0  0
 25 26  1  0  0  0  0
 26 27  1  0  0  0  0
 27 22  1  0  0  0  0
 24 28  1  1  0  0  0
 26 31  1  1  0  0  0
 27 32  1  6  0  0  0
 25 33  1  6  0  0  0
 28 29  2  0  0  0  0
 28 30  1  0  0  0  0
M  STY  1   1 SUP
M  SAL   1  3  28  29  30
M  SBL   1  1  31
M  SMT   1 COOH
M  SAP   1  1  28  24  1
M  END
>  <cdx:fragmentId>
17506

$$$$
