1913.cdx
  Mrv1902 05222410192D          

 21 21  0  0  0  0            999 V2000
    1.7777   -2.7242    0.0000 C   0  0  0  0  0  0  0  0  0  0  0  0
    1.7777   -3.5492    0.0000 C   0  0  0  0  0  0  0  0  0  0  0  0
    2.4922   -3.9617    0.0000 C   0  0  0  0  0  0  0  0  0  0  0  0
    3.2067   -3.5492    0.0000 C   0  0  0  0  0  0  0  0  0  0  0  0
    3.2067   -2.7242    0.0000 C   0  0  0  0  0  0  0  0  0  0  0  0
    2.4922   -2.3117    0.0000 C   0  0  0  0  0  0  0  0  0  0  0  0
    1.0657   -3.9603    0.0000 O   0  0  0  0  0  0  0  0  0  0  0  0
    3.9186   -2.3132    0.0000 C   0  0  0  0  0  0  0  0  0  0  0  0
    0.3537   -3.5492    0.0000 C   0  0  0  0  0  0  0  0  0  0  0  0
    4.6306   -2.7242    0.0000 C   0  0  0  0  0  0  0  0  0  0  0  0
    5.3426   -2.3132    0.0000 C   0  0  0  0  0  0  0  0  0  0  0  0
    5.3426   -1.4910    0.0000 O   0  0  0  0  0  0  0  0  0  0  0  0
    6.0546   -2.7242    0.0000 O   0  0  0  0  0  0  0  0  0  0  0  0
    6.7666   -2.3132    0.0000 C   0  0  0  0  0  0  0  0  0  0  0  0
    7.4786   -2.7242    0.0000 C   0  0  0  0  0  0  0  0  0  0  0  0
    7.4786   -3.5464    0.0000 C   0  0  0  0  0  0  0  0  0  0  0  0
    8.1906   -2.3132    0.0000 C   0  0  0  0  0  0  0  0  0  0  0  0
    8.1906   -3.9574    0.0000 C   0  0  0  0  0  0  0  0  0  0  0  0
    8.9026   -2.7242    0.0000 C   0  0  0  0  0  0  0  0  0  0  0  0
    9.6146   -2.3132    0.0000 C   0  0  0  0  0  0  0  0  0  0  0  0
   10.3266   -2.7242    0.0000 C   0  0  0  0  0  0  0  0  0  0  0  0
  1  2  2  0  0  0  0
  2  3  1  0  0  0  0
  3  4  2  0  0  0  0
  4  5  1  0  0  0  0
  5  6  2  0  0  0  0
  6  1  1  0  0  0  0
  2  7  1  0  0  0  0
  5  8  1  0  0  0  0
  7  9  1  0  0  0  0
  8 10  2  0  0  0  0
 10 11  1  0  0  0  0
 11 12  2  0  0  0  0
 11 13  1  0  0  0  0
 13 14  1  0  0  0  0
 14 15  1  0  0  0  0
 15 16  1  0  0  0  0
 15 17  1  0  0  0  0
 16 18  1  0  0  0  0
 17 19  1  0  0  0  0
 19 20  1  0  0  0  0
 20 21  1  0  0  0  0
M  END
>  <cdx:fragmentId>
16499

$$$$
