1909.cdx
  Mrv1902 05222410192D          

 14 14  0  0  0  0            999 V2000
    6.5505   -5.9182    0.0000 O   0  0  0  0  0  0  0  0  0  0  0  0
    7.2650   -5.5057    0.0000 C   0  0  2  0  0  0  0  0  0  0  0  0
    7.2650   -4.6807    0.0000 C   0  0  1  0  0  0  0  0  0  0  0  0
    6.5505   -4.2682    0.0000 C   0  0  2  0  0  0  0  0  0  0  0  0
    5.8361   -4.6807    0.0000 C   0  0  2  0  0  0  0  0  0  0  0  0
    5.8361   -5.5057    0.0000 C   0  0  1  0  0  0  0  0  0  0  0  0
    7.9795   -4.2682    0.0000 O   0  0  0  0  0  0  0  0  0  0  0  0
    6.5505   -3.4432    0.0000 O   0  0  0  0  0  0  0  0  0  0  0  0
    5.1216   -4.2682    0.0000 O   0  0  0  0  0  0  0  0  0  0  0  0
    5.1216   -5.9182    0.0000 C   0  0  0  0  0  0  0  0  0  0  0  0
    4.4071   -5.5057    0.0000 O   0  0  0  0  0  0  0  0  0  0  0  0
    7.9795   -5.9182    0.0000 O   0  0  0  0  0  0  0  0  0  0  0  0
    8.6939   -5.5057    0.0000 C   0  0  0  0  0  0  0  0  0  0  0  0
    9.4084   -5.9182    0.0000 C   0  0  0  0  0  0  0  0  0  0  0  0
  1  2  1  0  0  0  0
  2  3  1  0  0  0  0
  3  4  1  0  0  0  0
  4  5  1  0  0  0  0
  5  6  1  0  0  0  0
  1  6  1  0  0  0  0
  3  7  1  1  0  0  0
  4  8  1  6  0  0  0
  5  9  1  6  0  0  0
 10 11  1  0  0  0  0
  6 10  1  6  0  0  0
 13 14  1  0  0  0  0
 12 13  1  0  0  0  0
  2 12  1  6  0  0  0
M  END
>  <cdx:fragmentId>
30373

$$$$
