1911.cdx
  Mrv1902 05222410182D          

 34 36  0  0  0  0            999 V2000
    8.9786   -3.9159    0.0000 C   0  0  0  0  0  0  0  0  0  0  0  0
    8.9786   -4.7409    0.0000 C   0  0  0  0  0  0  0  0  0  0  0  0
    8.2641   -5.1534    0.0000 C   0  0  0  0  0  0  0  0  0  0  0  0
    8.2641   -5.9784    0.0000 O   0  0  0  0  0  0  0  0  0  0  0  0
    7.5497   -4.7409    0.0000 C   0  0  0  0  0  0  0  0  0  0  0  0
    6.8352   -5.1534    0.0000 C   0  0  0  0  0  0  0  0  0  0  0  0
    6.8352   -5.9784    0.0000 O   0  0  0  0  0  0  0  0  0  0  0  0
    6.1207   -4.7409    0.0000 C   0  0  0  0  0  0  0  0  0  0  0  0
    6.1207   -3.9159    0.0000 C   0  0  0  0  0  0  0  0  0  0  0  0
    6.8352   -3.5034    0.0000 C   0  0  0  0  0  0  0  0  0  0  0  0
    7.5497   -3.9159    0.0000 C   0  0  0  0  0  0  0  0  0  0  0  0
    8.2641   -3.5034    0.0000 O   0  0  0  0  0  0  0  0  0  0  0  0
    9.6931   -3.5034    0.0000 C   0  0  0  0  0  0  0  0  0  0  0  0
    9.6931   -2.6784    0.0000 C   0  0  0  0  0  0  0  0  0  0  0  0
   10.4075   -2.2659    0.0000 C   0  0  0  0  0  0  0  0  0  0  0  0
   11.1220   -2.6784    0.0000 C   0  0  0  0  0  0  0  0  0  0  0  0
   11.8365   -2.2659    0.0000 O   0  0  0  0  0  0  0  0  0  0  0  0
   11.1220   -3.5034    0.0000 C   0  0  0  0  0  0  0  0  0  0  0  0
   10.4075   -3.9159    0.0000 C   0  0  0  0  0  0  0  0  0  0  0  0
    0.4049   -3.9159    0.0000 O   0  0  0  0  0  0  0  0  0  0  0  0
    1.1194   -3.5034    0.0000 C   0  0  0  0  0  0  0  0  0  0  0  0
    1.8339   -3.9159    0.0000 C   0  0  2  0  0  0  0  0  0  0  0  0
    1.8339   -4.7409    0.0000 O   0  0  0  0  0  0  0  0  0  0  0  0
    2.5484   -3.5034    0.0000 C   0  0  1  0  0  0  0  0  0  0  0  0
    2.5484   -2.6784    0.0000 O   0  0  0  0  0  0  0  0  0  0  0  0
    3.2628   -3.9159    0.0000 C   0  0  2  0  0  0  0  0  0  0  0  0
    3.2628   -4.7409    0.0000 O   0  0  0  0  0  0  0  0  0  0  0  0
    3.9773   -3.5034    0.0000 C   0  0  2  0  0  0  0  0  0  0  0  0
    3.9773   -2.6784    0.0000 O   0  0  0  0  0  0  0  0  0  0  0  0
    4.6918   -3.9159    0.0000 C   0  0  0  0  0  0  0  0  0  0  0  0
    4.6918   -4.7409    0.0000 O   0  0  0  0  0  0  0  0  0  0  0  0
    5.4062   -3.5034    0.0000 O   0  0  0  0  0  0  0  0  0  0  0  0
    9.6931   -5.1534    0.0000 C   0  0  0  0  0  0  0  0  0  0  0  0
   10.4075   -4.7409    0.0000 C   0  0  0  0  0  0  0  0  0  0  0  0
  1  2  2  0  0  0  0
  2  3  1  0  0  0  0
  3  4  2  0  0  0  0
  3  5  1  0  0  0  0
  5  6  1  0  0  0  0
  6  7  1  0  0  0  0
  6  8  2  0  0  0  0
  8  9  1  0  0  0  0
  9 10  2  0  0  0  0
 10 11  1  0  0  0  0
  5 11  2  0  0  0  0
 11 12  1  0  0  0  0
  1 12  1  0  0  0  0
  1 13  1  0  0  0  0
 13 14  1  0  0  0  0
 14 15  2  0  0  0  0
 15 16  1  0  0  0  0
 16 17  1  0  0  0  0
 16 18  2  0  0  0  0
 18 19  1  0  0  0  0
 13 19  2  0  0  0  0
 20 21  2  0  0  0  0
 21 22  1  0  0  0  0
 22 23  1  1  0  0  0
 22 24  1  0  0  0  0
 24 25  1  1  0  0  0
 24 26  1  0  0  0  0
 26 27  1  1  0  0  0
 26 28  1  0  0  0  0
 28 29  1  6  0  0  0
 28 30  1  0  0  0  0
 30 31  2  0  0  0  0
 30 32  1  0  0  0  0
  9 32  1  0  0  0  0
 33 34  1  0  0  0  0
  2 33  1  0  0  0  0
M  END
>  <cdx:fragmentId>
16568

$$$$
