38818.cdx
  Mrv1902 05222410262D          

 24 25  0  0  0  0            999 V2000
    4.6043   -8.9100    0.0000 C   0  0  2  0  0  0  0  0  0  0  0  0
    4.6043   -9.7350    0.0000 C   0  0  2  0  0  0  0  0  0  0  0  0
    5.3188  -10.1475    0.0000 C   0  0  1  0  0  0  0  0  0  0  0  0
    6.0332   -9.7350    0.0000 C   0  0  2  0  0  0  0  0  0  0  0  0
    6.0332   -8.9100    0.0000 C   0  0  1  0  0  0  0  0  0  0  0  0
    5.3188   -8.4975    0.0000 O   0  0  0  0  0  0  0  0  0  0  0  0
    6.7477   -8.4975    0.0000 O   0  0  0  0  0  0  0  0  0  0  0  0
    3.8898   -8.4975    0.0000 C   0  0  0  0  0  0  0  0  0  0  0  0
    3.1754   -8.9100    0.0000 O   0  0  0  0  0  0  0  0  0  0  0  0
    5.3188  -10.9725    0.0000 O   0  0  0  0  0  0  0  0  0  0  0  0
    3.8898  -10.1475    0.0000 O   0  0  0  0  0  0  0  0  0  0  0  0
    6.7477  -10.1475    0.0000 O   0  0  0  0  0  0  0  0  0  0  0  0
    6.7477   -7.6725    0.0000 C   0  0  0  0  0  0  0  0  0  0  0  0
    7.4622   -7.2600    0.0000 C   0  0  0  0  0  0  0  0  0  0  0  0
    7.4622   -6.4350    0.0000 C   0  0  1  0  0  0  0  0  0  0  0  0
    8.1296   -5.9501    0.0000 C   0  0  1  0  0  0  0  0  0  0  0  0
    7.8747   -5.1655    0.0000 C   0  0  0  0  0  0  0  0  0  0  0  0
    7.0497   -5.1655    0.0000 C   0  0  0  0  0  0  0  0  0  0  0  0
    6.7947   -5.9501    0.0000 C   0  0  0  0  0  0  0  0  0  0  0  0
    6.0101   -6.2050    0.0000 C   0  0  0  0  0  0  0  0  0  0  0  0
    5.3970   -5.6530    0.0000 O   0  0  0  0  0  0  0  0  0  0  0  0
    6.5648   -4.4980    0.0000 C   0  0  0  0  0  0  0  0  0  0  0  0
    6.9003   -3.7443    0.0000 O   0  0  0  0  0  0  0  0  0  0  0  0
    8.9142   -6.2050    0.0000 O   0  0  0  0  0  0  0  0  0  0  0  0
  1  2  1  0  0  0  0
  2  3  1  0  0  0  0
  3  4  1  0  0  0  0
  4  5  1  0  0  0  0
  5  6  1  0  0  0  0
  6  1  1  0  0  0  0
  5  7  1  1  0  0  0
  1  8  1  1  0  0  0
  8  9  1  0  0  0  0
  3 10  1  1  0  0  0
  2 11  1  6  0  0  0
  4 12  1  6  0  0  0
  7 13  1  0  0  0  0
 13 14  1  0  0  0  0
 15 14  1  6  0  0  0
 15 16  1  0  0  0  0
 16 17  1  0  0  0  0
 17 18  1  0  0  0  0
 18 19  2  0  0  0  0
 19 15  1  0  0  0  0
 19 20  1  0  0  0  0
 20 21  1  0  0  0  0
 18 22  1  0  0  0  0
 22 23  1  0  0  0  0
 16 24  1  1  0  0  0
M  END
>  <cdx:fragmentId>
5

$$$$
