38815.cdx
  Mrv1902 05222410192D          

 14 15  0  0  0  0            999 V2000
    7.7372   -6.4075    0.0000 C   0  0  1  0  0  0  0  0  0  0  0  0
    7.7372   -7.2325    0.0000 C   0  0  2  0  0  0  0  0  0  0  0  0
    8.5219   -7.4874    0.0000 O   0  0  0  0  0  0  0  0  0  0  0  0
    9.0068   -6.8200    0.0000 C   0  0  0  0  0  0  0  0  0  0  0  0
    8.5219   -6.1526    0.0000 C   0  0  0  0  0  0  0  0  0  0  0  0
    6.9526   -6.1526    0.0000 C   0  0  0  0  0  0  0  0  0  0  0  0
    6.4677   -6.8200    0.0000 C   0  0  0  0  0  0  0  0  0  0  0  0
    6.9526   -7.4874    0.0000 C   0  0  0  0  0  0  0  0  0  0  0  0
    7.7372   -5.5825    0.0000 H   0  0  0  0  0  0  0  0  0  0  0  0
    7.7372   -8.0575    0.0000 C   0  0  0  0  0  0  0  0  0  0  0  0
    8.4517   -8.4700    0.0000 O   0  0  0  0  0  0  0  0  0  0  0  0
    9.8318   -6.8200    0.0000 O   0  0  0  0  0  0  0  0  0  0  0  0
    6.6977   -8.2721    0.0000 C   0  0  0  0  0  0  0  0  0  0  0  0
    5.9008   -8.4856    0.0000 O   0  0  0  0  0  0  0  0  0  0  0  0
  1  2  1  0  0  0  0
  2  3  1  0  0  0  0
  3  4  1  0  0  0  0
  4  5  1  0  0  0  0
  5  1  1  0  0  0  0
  1  6  1  0  0  0  0
  6  7  1  0  0  0  0
  7  8  2  0  0  0  0
  8  2  1  0  0  0  0
  1  9  1  1  0  0  0
  2 10  1  1  0  0  0
 10 11  1  0  0  0  0
  4 12  2  0  0  0  0
  8 13  1  0  0  0  0
 13 14  1  0  0  0  0
M  END
>  <cdx:fragmentId>
16466

$$$$
