38824.cdx
  Mrv1902 05222410262D          

 15 14  0  0  0  0            999 V2000
   11.3064   -7.9894    0.0000 C   0  0  0  0  0  0  0  0  0  0  0  0
   10.5904   -7.5796    0.0000 C   0  0  0  0  0  0  0  0  0  0  0  0
    9.8774   -7.9947    0.0000 C   0  0  0  0  0  0  0  0  0  0  0  0
    9.1614   -7.5849    0.0000 C   0  0  0  0  0  0  0  0  0  0  0  0
    8.4485   -8.0001    0.0000 C   0  0  0  0  0  0  0  0  0  0  0  0
    7.7325   -7.5902    0.0000 C   0  0  0  0  0  0  0  0  0  0  0  0
    7.0196   -8.0054    0.0000 C   0  0  0  0  0  0  0  0  0  0  0  0
    7.0227   -8.8304    0.0000 C   0  0  0  0  0  0  0  0  0  0  0  0
    6.3036   -7.5956    0.0000 C   0  0  0  0  0  0  0  0  0  0  0  0
    5.5906   -8.0108    0.0000 C   0  0  0  0  0  0  0  0  0  0  0  0
    4.8746   -7.6009    0.0000 C   0  0  0  0  0  0  0  0  0  0  0  0
    4.1617   -8.0161    0.0000 C   0  0  0  0  0  0  0  0  0  0  0  0
    3.4457   -7.6063    0.0000 C   0  0  0  0  0  0  0  0  0  0  0  0
    4.1648   -8.8411    0.0000 C   0  0  0  0  0  0  0  0  0  0  0  0
    9.8805   -8.8197    0.0000 O   0  0  0  0  0  0  0  0  0  0  0  0
  1  2  2  0  0  0  0
  2  3  1  0  0  0  0
  3  4  2  0  0  0  0
  4  5  1  0  0  0  0
  5  6  1  0  0  0  0
  6  7  2  0  0  0  0
  7  8  1  0  0  0  0
  7  9  1  0  0  0  0
  9 10  1  0  0  0  0
 10 11  1  0  0  0  0
 11 12  2  0  0  0  0
 12 13  1  0  0  0  0
 12 14  1  0  0  0  0
  3 15  1  0  0  0  0
M  END
>  <cdx:fragmentId>
17318

$$$$
