38820.cdx
  Mrv1902 05222410272D          

 24 25  0  0  0  0            999 V2000
    4.6043   -8.9100    0.0000 C   0  0  2  0  0  0  0  0  0  0  0  0
    4.6043   -9.7350    0.0000 C   0  0  2  0  0  0  0  0  0  0  0  0
    5.3188  -10.1475    0.0000 C   0  0  1  0  0  0  0  0  0  0  0  0
    6.0332   -9.7350    0.0000 C   0  0  2  0  0  0  0  0  0  0  0  0
    6.0332   -8.9100    0.0000 C   0  0  1  0  0  0  0  0  0  0  0  0
    5.3188   -8.4975    0.0000 O   0  0  0  0  0  0  0  0  0  0  0  0
    6.7477   -8.4975    0.0000 O   0  0  0  0  0  0  0  0  0  0  0  0
    3.8898   -8.4975    0.0000 C   0  0  0  0  0  0  0  0  0  0  0  0
    3.1754   -8.9100    0.0000 O   0  0  0  0  0  0  0  0  0  0  0  0
    5.3188  -10.9725    0.0000 O   0  0  0  0  0  0  0  0  0  0  0  0
    3.8898  -10.1475    0.0000 O   0  0  0  0  0  0  0  0  0  0  0  0
    6.7477  -10.1475    0.0000 O   0  0  0  0  0  0  0  0  0  0  0  0
    6.7477   -7.6725    0.0000 C   0  0  1  0  0  0  0  0  0  0  0  0
    7.4152   -7.1876    0.0000 C   0  0  1  0  0  0  0  0  0  0  0  0
    7.1602   -6.4030    0.0000 C   0  0  0  0  0  0  0  0  0  0  0  0
    6.3352   -6.4030    0.0000 C   0  0  0  0  0  0  0  0  0  0  0  0
    6.0803   -7.1876    0.0000 C   0  0  0  0  0  0  0  0  0  0  0  0
    8.1998   -7.4425    0.0000 C   0  0  0  0  0  0  0  0  0  0  0  0
    8.8129   -6.8905    0.0000 C   0  0  0  0  0  0  0  0  0  0  0  0
    9.5975   -7.1454    0.0000 O   0  0  0  0  0  0  0  0  0  0  0  0
    5.8503   -5.7355    0.0000 C   0  0  0  0  0  0  0  0  0  0  0  0
    5.0253   -5.7355    0.0000 O   0  0  0  0  0  0  0  0  0  0  0  0
    7.6451   -5.7355    0.0000 C   0  0  0  0  0  0  0  0  0  0  0  0
    7.3096   -4.9818    0.0000 O   0  0  0  0  0  0  0  0  0  0  0  0
  1  2  1  0  0  0  0
  2  3  1  0  0  0  0
  3  4  1  0  0  0  0
  4  5  1  0  0  0  0
  5  6  1  0  0  0  0
  6  1  1  0  0  0  0
  5  7  1  1  0  0  0
  1  8  1  1  0  0  0
  8  9  1  0  0  0  0
  3 10  1  1  0  0  0
  2 11  1  6  0  0  0
  4 12  1  6  0  0  0
 13  7  1  6  0  0  0
 13 14  1  0  0  0  0
 14 15  1  0  0  0  0
 15 16  2  0  0  0  0
 16 17  1  0  0  0  0
 17 13  1  0  0  0  0
 14 18  1  1  0  0  0
 18 19  1  0  0  0  0
 19 20  1  0  0  0  0
 16 21  1  0  0  0  0
 21 22  1  0  0  0  0
 15 23  1  0  0  0  0
 23 24  1  0  0  0  0
M  END
>  <cdx:fragmentId>
5

$$$$
