38838.cdx
  Mrv1902 05222410192D          

 37 40  0  0  0  0            999 V2000
    3.7559   -6.6539    0.0000 C   0  0  0  0  0  0  0  0  0  0  0  0
    3.7559   -7.4760    0.0000 C   0  0  0  0  0  0  0  0  0  0  0  0
    4.4679   -7.8871    0.0000 C   0  0  0  0  0  0  0  0  0  0  0  0
    5.1799   -7.4760    0.0000 C   0  0  0  0  0  0  0  0  0  0  0  0
    5.1799   -6.6539    0.0000 C   0  0  0  0  0  0  0  0  0  0  0  0
    4.4679   -6.2428    0.0000 C   0  0  0  0  0  0  0  0  0  0  0  0
    3.0440   -6.2428    0.0000 O   0  0  0  0  0  0  0  0  0  0  0  0
    4.4679   -8.7092    0.0000 O   0  0  0  0  0  0  0  0  0  0  0  0
    5.8919   -6.2428    0.0000 O   0  0  0  0  0  0  0  0  0  0  0  0
    6.6039   -6.6539    0.0000 C   0  0  0  0  0  0  0  0  0  0  0  0
    6.6039   -7.4760    0.0000 C   0  0  0  0  0  0  0  0  0  0  0  0
    7.3159   -7.8871    0.0000 C   0  0  0  0  0  0  0  0  0  0  0  0
    8.0279   -7.4760    0.0000 C   0  0  0  0  0  0  0  0  0  0  0  0
    8.0279   -6.6539    0.0000 C   0  0  0  0  0  0  0  0  0  0  0  0
    7.3159   -6.2428    0.0000 C   0  0  0  0  0  0  0  0  0  0  0  0
    7.3159   -5.4207    0.0000 O   0  0  0  0  0  0  0  0  0  0  0  0
    5.8919   -7.8871    0.0000 O   0  0  0  0  0  0  0  0  0  0  0  0
    8.7399   -7.8871    0.0000 O   0  0  0  0  0  0  0  0  0  0  0  0
    9.4519   -7.4760    0.0000 C   0  0  0  0  0  0  0  0  0  0  0  0
   10.1639   -7.8871    0.0000 C   0  0  0  0  0  0  0  0  0  0  0  0
   10.8758   -7.4760    0.0000 C   0  0  0  0  0  0  0  0  0  0  0  0
   10.8758   -6.6539    0.0000 C   0  0  0  0  0  0  0  0  0  0  0  0
   10.1639   -6.2428    0.0000 C   0  0  0  0  0  0  0  0  0  0  0  0
    9.4519   -6.6539    0.0000 C   0  0  0  0  0  0  0  0  0  0  0  0
   10.1639   -8.7092    0.0000 O   0  0  0  0  0  0  0  0  0  0  0  0
    8.7399   -6.2428    0.0000 O   0  0  0  0  0  0  0  0  0  0  0  0
   10.1639   -5.4207    0.0000 O   0  0  0  0  0  0  0  0  0  0  0  0
   11.5878   -6.2428    0.0000 O   0  0  0  0  0  0  0  0  0  0  0  0
   10.8758   -9.1203    0.0000 C   0  0  0  0  0  0  0  0  0  0  0  0
   11.5878   -8.7092    0.0000 C   0  0  0  0  0  0  0  0  0  0  0  0
   12.2998   -9.1203    0.0000 C   0  0  0  0  0  0  0  0  0  0  0  0
   12.2998   -9.9424    0.0000 C   0  0  0  0  0  0  0  0  0  0  0  0
   11.5878  -10.3535    0.0000 C   0  0  0  0  0  0  0  0  0  0  0  0
   10.8758   -9.9424    0.0000 C   0  0  0  0  0  0  0  0  0  0  0  0
   11.5878   -7.8871    0.0000 O   0  0  0  0  0  0  0  0  0  0  0  0
   10.1639  -10.3535    0.0000 O   0  0  0  0  0  0  0  0  0  0  0  0
   13.0118  -10.3535    0.0000 O   0  0  0  0  0  0  0  0  0  0  0  0
  1  2  2  0  0  0  0
  2  3  1  0  0  0  0
  3  4  2  0  0  0  0
  4  5  1  0  0  0  0
  5  6  2  0  0  0  0
  6  1  1  0  0  0  0
  1  7  1  0  0  0  0
  3  8  1  0  0  0  0
  5  9  1  0  0  0  0
  9 10  1  0  0  0  0
 10 11  2  0  0  0  0
 11 12  1  0  0  0  0
 12 13  2  0  0  0  0
 13 14  1  0  0  0  0
 14 15  2  0  0  0  0
 15 10  1  0  0  0  0
 15 16  1  0  0  0  0
 11 17  1  0  0  0  0
 13 18  1  0  0  0  0
 18 19  1  0  0  0  0
 19 20  2  0  0  0  0
 20 21  1  0  0  0  0
 21 22  2  0  0  0  0
 22 23  1  0  0  0  0
 23 24  2  0  0  0  0
 24 19  1  0  0  0  0
 20 25  1  0  0  0  0
 24 26  1  0  0  0  0
 23 27  1  0  0  0  0
 22 28  1  0  0  0  0
 25 29  1  0  0  0  0
 29 30  2  0  0  0  0
 30 31  1  0  0  0  0
 31 32  2  0  0  0  0
 32 33  1  0  0  0  0
 33 34  2  0  0  0  0
 34 29  1  0  0  0  0
 30 35  1  0  0  0  0
 34 36  1  0  0  0  0
 32 37  1  0  0  0  0
M  END
>  <cdx:fragmentId>
28716

$$$$
