38847.cdx
  Mrv1902 05222410242D          

 20 21  0  0  0  0            999 V2000
    7.5351   -6.4608    0.0000 C   0  0  0  0  0  0  0  0  0  0  0  0
    8.2495   -6.8733    0.0000 C   0  0  0  0  0  0  0  0  0  0  0  0
    8.2495   -7.6983    0.0000 C   0  0  0  0  0  0  0  0  0  0  0  0
    8.9640   -8.1108    0.0000 C   0  0  0  0  0  0  0  0  0  0  0  0
    8.9640   -8.9358    0.0000 O   0  0  0  0  0  0  0  0  0  0  0  0
    9.6785   -7.6983    0.0000 C   0  0  0  0  0  0  0  0  0  0  0  0
   10.3930   -8.1108    0.0000 O   0  0  0  0  0  0  0  0  0  0  0  0
    9.6785   -6.8733    0.0000 C   0  0  0  0  0  0  0  0  0  0  0  0
   10.3930   -6.4608    0.0000 O   0  0  0  0  0  0  0  0  0  0  0  0
    8.9640   -6.4608    0.0000 C   0  0  0  0  0  0  0  0  0  0  0  0
    7.5351   -5.6358    0.0000 O   0  0  0  0  0  0  0  0  0  0  0  0
    6.1061   -8.1108    0.0000 C   0  0  0  0  0  0  0  0  0  0  0  0
    6.8206   -7.6983    0.0000 C   0  0  0  0  0  0  0  0  0  0  0  0
    6.8206   -6.8733    0.0000 C   0  0  0  0  0  0  0  0  0  0  0  0
    6.1061   -5.6358    0.0000 O   0  0  0  0  0  0  0  0  0  0  0  0
    6.1061   -6.4608    0.0000 C   0  0  0  0  0  0  0  0  0  0  0  0
    4.6772   -6.4608    0.0000 O   0  0  0  0  0  0  0  0  0  0  0  0
    5.3917   -6.8733    0.0000 C   0  0  0  0  0  0  0  0  0  0  0  0
    5.3917   -7.6983    0.0000 C   0  0  0  0  0  0  0  0  0  0  0  0
    4.6772   -8.1108    0.0000 O   0  0  0  0  0  0  0  0  0  0  0  0
 19 12  2  0  0  0  0
 13 12  1  0  0  0  0
 14 13  2  0  0  0  0
 16 14  1  0  0  0  0
 16 15  1  0  0  0  0
 18 16  2  0  0  0  0
 18 17  1  0  0  0  0
 19 18  1  0  0  0  0
 20 19  1  0  0  0  0
  1  2  1  0  0  0  0
  2  3  1  0  0  0  0
  3  4  2  0  0  0  0
  4  5  1  0  0  0  0
  4  6  1  0  0  0  0
  6  7  1  0  0  0  0
  6  8  2  0  0  0  0
  8  9  1  0  0  0  0
  8 10  1  0  0  0  0
  2 10  2  0  0  0  0
  1 11  2  0  0  0  0
 14  1  1  0  0  0  0
M  END
>  <cdx:fragmentId>
18885

$$$$
