38844.cdx
  Mrv1902 05222410232D          

 23 24  0  0  0  0            999 V2000
    8.8892  -11.5463    0.0000 O   0  0  0  0  0  0  0  0  0  0  0  0
    9.6037   -9.4838    0.0000 C   0  0  0  0  0  0  0  0  0  0  0  0
   10.3181   -8.2463    0.0000 O   0  0  0  0  0  0  0  0  0  0  0  0
   10.3181   -9.0713    0.0000 C   0  0  0  0  0  0  0  0  0  0  0  0
   11.7471   -9.0713    0.0000 O   0  0  0  0  0  0  0  0  0  0  0  0
   11.0326   -9.4838    0.0000 C   0  0  0  0  0  0  0  0  0  0  0  0
   11.7471  -10.7213    0.0000 O   0  0  0  0  0  0  0  0  0  0  0  0
   11.0326  -10.3088    0.0000 C   0  0  0  0  0  0  0  0  0  0  0  0
   10.3181  -10.7213    0.0000 C   0  0  0  0  0  0  0  0  0  0  0  0
    9.6037  -10.3088    0.0000 C   0  0  0  0  0  0  0  0  0  0  0  0
    8.8892  -10.7213    0.0000 C   0  0  0  0  0  0  0  0  0  0  0  0
    7.4602  -10.7213    0.0000 C   0  0  0  0  0  0  0  0  0  0  0  0
    8.1747  -10.3088    0.0000 O   0  0  0  0  0  0  0  0  0  0  0  0
    6.7458  -10.3088    0.0000 O   0  0  0  0  0  0  0  0  0  0  0  0
    6.0313  -10.7213    0.0000 C   0  0  0  0  0  0  0  0  0  0  0  0
    6.0313  -11.5463    0.0000 C   0  0  0  0  0  0  0  0  0  0  0  0
    6.7458  -11.9588    0.0000 C   0  0  0  0  0  0  0  0  0  0  0  0
    7.4602  -11.5463    0.0000 C   0  0  0  0  0  0  0  0  0  0  0  0
    5.3168  -10.3088    0.0000 C   0  0  0  0  0  0  0  0  0  0  0  0
    4.6024  -10.7213    0.0000 O   0  0  0  0  0  0  0  0  0  0  0  0
    5.3168  -11.9588    0.0000 O   0  0  0  0  0  0  0  0  0  0  0  0
    6.7458  -12.7838    0.0000 O   0  0  0  0  0  0  0  0  0  0  0  0
    8.1747  -11.9588    0.0000 O   0  0  0  0  0  0  0  0  0  0  0  0
 13 11  1  0  0  0  0
 11  1  2  0  0  0  0
 10  2  2  0  0  0  0
  4  2  1  0  0  0  0
  4  3  1  0  0  0  0
  6  4  2  0  0  0  0
  6  5  1  0  0  0  0
  8  6  1  0  0  0  0
  8  7  1  0  0  0  0
  9  8  2  0  0  0  0
 10  9  1  0  0  0  0
 11 10  1  0  0  0  0
 13 12  1  0  0  0  0
 12 14  1  0  0  0  0
 14 15  1  0  0  0  0
 15 16  1  0  0  0  0
 16 17  1  0  0  0  0
 17 18  1  0  0  0  0
 18 12  1  0  0  0  0
 15 19  1  0  0  0  0
 19 20  1  0  0  0  0
 16 21  1  0  0  0  0
 17 22  1  0  0  0  0
 18 23  1  0  0  0  0
M  END
>  <cdx:fragmentId>
17107

$$$$
