38846.cdx
  Mrv1902 05222410242D          

 45 49  0  0  0  0            999 V2000
    5.5456   -9.3780    0.0000 C   0  0  0  0  0  0  0  0  0  0  0  0
    5.1331  -10.0925    0.0000 C   0  0  0  0  0  0  0  0  0  0  0  0
    5.5456  -10.8070    0.0000 C   0  0  0  0  0  0  0  0  0  0  0  0
    6.3706  -10.8070    0.0000 C   0  0  0  0  0  0  0  0  0  0  0  0
    6.7831  -10.0925    0.0000 C   0  0  0  0  0  0  0  0  0  0  0  0
    6.3706   -9.3780    0.0000 C   0  0  0  0  0  0  0  0  0  0  0  0
    4.3081  -10.0925    0.0000 O   0  0  0  0  0  0  0  0  0  0  0  0
    5.1331  -11.5214    0.0000 O   0  0  0  0  0  0  0  0  0  0  0  0
    6.7831  -11.5214    0.0000 O   0  0  0  0  0  0  0  0  0  0  0  0
    7.6081  -10.0925    0.0000 C   0  0  0  0  0  0  0  0  0  0  0  0
    8.0206  -10.8070    0.0000 C   0  0  0  0  0  0  0  0  0  0  0  0
    8.8456  -10.8070    0.0000 C   0  0  0  0  0  0  0  0  0  0  0  0
    9.2581  -10.0925    0.0000 C   0  0  0  0  0  0  0  0  0  0  0  0
    8.8456   -9.3780    0.0000 C   0  0  0  0  0  0  0  0  0  0  0  0
    8.0206   -9.3780    0.0000 C   0  0  0  0  0  0  0  0  0  0  0  0
    7.6081  -11.5214    0.0000 O   0  0  0  0  0  0  0  0  0  0  0  0
    9.2581  -11.5214    0.0000 O   0  0  0  0  0  0  0  0  0  0  0  0
   10.0831  -10.0925    0.0000 O   0  0  0  0  0  0  0  0  0  0  0  0
    6.7831   -8.6636    0.0000 C   0  0  0  0  0  0  0  0  0  0  0  0
    7.6081   -8.6636    0.0000 C   0  0  0  0  0  0  0  0  0  0  0  0
    5.9581   -8.6636    0.0000 O   0  0  0  0  0  0  0  0  0  0  0  0
    8.4331   -8.6636    0.0000 O   0  0  0  0  0  0  0  0  0  0  0  0
    6.7860   -5.8020    0.0000 C   0  0  2  0  0  0  0  0  0  0  0  0
    6.3735   -6.5165    0.0000 C   0  0  2  0  0  0  0  0  0  0  0  0
    6.7860   -7.2310    0.0000 C   0  0  1  0  0  0  0  0  0  0  0  0
    7.6110   -7.2310    0.0000 C   0  0  2  0  0  0  0  0  0  0  0  0
    8.0235   -6.5165    0.0000 C   0  0  1  0  0  0  0  0  0  0  0  0
    7.6110   -5.8020    0.0000 O   0  0  0  0  0  0  0  0  0  0  0  0
    8.8485   -6.5165    0.0000 O   0  0  0  0  0  0  0  0  0  0  0  0
    6.3735   -5.0876    0.0000 C   0  0  0  0  0  0  0  0  0  0  0  0
    6.3735   -7.9454    0.0000 O   0  0  0  0  0  0  0  0  0  0  0  0
    5.5485   -6.5165    0.0000 O   0  0  0  0  0  0  0  0  0  0  0  0
    8.0235   -7.9454    0.0000 O   0  0  0  0  0  0  0  0  0  0  0  0
    5.5485   -5.0876    0.0000 O   0  0  0  0  0  0  0  0  0  0  0  0
    5.1360   -4.3731    0.0000 C   0  0  0  0  0  0  0  0  0  0  0  0
    4.3110   -4.3731    0.0000 C   0  0  0  0  0  0  0  0  0  0  0  0
    5.5485   -3.6586    0.0000 O   0  0  0  0  0  0  0  0  0  0  0  0
    3.8985   -3.6586    0.0000 C   0  0  0  0  0  0  0  0  0  0  0  0
    3.0735   -3.6586    0.0000 C   0  0  0  0  0  0  0  0  0  0  0  0
    2.6610   -4.3731    0.0000 C   0  0  0  0  0  0  0  0  0  0  0  0
    3.0735   -5.0876    0.0000 C   0  0  0  0  0  0  0  0  0  0  0  0
    3.8985   -5.0876    0.0000 C   0  0  0  0  0  0  0  0  0  0  0  0
    2.6610   -2.9441    0.0000 O   0  0  0  0  0  0  0  0  0  0  0  0
    1.8360   -4.3731    0.0000 O   0  0  0  0  0  0  0  0  0  0  0  0
    2.6610   -5.8020    0.0000 O   0  0  0  0  0  0  0  0  0  0  0  0
  1  2  2  0  0  0  0
  2  3  1  0  0  0  0
  3  4  2  0  0  0  0
  4  5  1  0  0  0  0
  5  6  2  0  0  0  0
  6  1  1  0  0  0  0
  2  7  1  0  0  0  0
  3  8  1  0  0  0  0
  4  9  1  0  0  0  0
  5 10  1  0  0  0  0
 10 11  2  0  0  0  0
 11 12  1  0  0  0  0
 12 13  2  0  0  0  0
 13 14  1  0  0  0  0
 14 15  2  0  0  0  0
 15 10  1  0  0  0  0
 11 16  1  0  0  0  0
 12 17  1  0  0  0  0
 13 18  1  0  0  0  0
  6 19  1  0  0  0  0
 15 20  1  0  0  0  0
 19 21  2  0  0  0  0
 20 22  2  0  0  0  0
 23 24  1  0  0  0  0
 24 25  1  0  0  0  0
 25 26  1  0  0  0  0
 26 27  1  0  0  0  0
 27 28  1  0  0  0  0
 28 23  1  0  0  0  0
 27 29  1  1  0  0  0
 23 30  1  1  0  0  0
 25 31  1  1  0  0  0
 24 32  1  6  0  0  0
 26 33  1  6  0  0  0
 30 34  1  0  0  0  0
 19 31  1  0  0  0  0
 20 33  1  0  0  0  0
 34 35  1  0  0  0  0
 35 36  1  0  0  0  0
 35 37  2  0  0  0  0
 36 38  2  0  0  0  0
 38 39  1  0  0  0  0
 39 40  2  0  0  0  0
 40 41  1  0  0  0  0
 41 42  2  0  0  0  0
 42 36  1  0  0  0  0
 39 43  1  0  0  0  0
 40 44  1  0  0  0  0
 41 45  1  0  0  0  0
M  END
>  <cdx:fragmentId>
5

$$$$
