38855.cdx
  Mrv1902 05222410252D          

 49 54  0  0  0  0            999 V2000
    3.7747   -7.7825    0.0000 C   0  0  2  0  0  0  0  0  0  0  0  0
    3.7747   -8.6075    0.0000 C   0  0  2  0  0  0  0  0  0  0  0  0
    4.4197   -9.1219    0.0000 C   0  0  1  0  0  0  0  0  0  0  0  0
    5.2240   -8.9383    0.0000 C   0  0  1  0  0  0  0  0  0  0  0  0
    5.5820   -8.1950    0.0000 C   0  0  2  0  0  0  0  0  0  0  0  0
    5.2240   -7.4517    0.0000 C   0  0  2  0  0  0  0  0  0  0  0  0
    4.4197   -7.2681    0.0000 C   0  0  2  0  0  0  0  0  0  0  0  0
    5.7852   -6.8469    0.0000 C   0  0  2  0  0  0  0  0  0  0  0  0
    5.5420   -6.0586    0.0000 C   0  0  2  0  0  0  0  0  0  0  0  0
    4.7377   -5.8750    0.0000 C   0  0  0  0  0  0  0  0  0  0  0  0
    4.1765   -6.4798    0.0000 C   0  0  1  0  0  0  0  0  0  0  0  0
    6.6101   -6.8469    0.0000 O   0  0  0  0  0  0  0  0  0  0  0  0
    6.8767   -6.0586    0.0000 C   0  0  0  0  0  0  0  0  0  0  0  0
    6.2166   -5.5637    0.0000 O   0  0  0  0  0  0  0  0  0  0  0  0
    2.9901   -7.5276    0.0000 C   0  0  0  0  0  0  0  0  0  0  0  0
    2.5052   -8.1950    0.0000 C   0  0  1  0  0  0  0  0  0  0  0  0
    2.9901   -8.8624    0.0000 C   0  0  2  0  0  0  0  0  0  0  0  0
    1.6802   -8.1950    0.0000 C   0  0  0  0  0  0  0  0  0  0  0  0
    2.7351   -9.6471    0.0000 O   0  0  0  0  0  0  0  0  0  0  0  0
    3.5612   -9.4044    0.0000 O   0  0  0  0  0  0  0  0  0  0  0  0
    4.2361   -9.9262    0.0000 O   0  0  0  0  0  0  0  0  0  0  0  0
    5.4376   -9.7352    0.0000 O   0  0  0  0  0  0  0  0  0  0  0  0
    6.0209   -7.6652    0.0000 H   0  0  0  0  0  0  0  0  0  0  0  0
    3.5612   -6.9856    0.0000 H   0  0  0  0  0  0  0  0  0  0  0  0
    5.0031   -6.6848    0.0000 O   0  0  0  0  0  0  0  0  0  0  0  0
    3.3722   -6.2962    0.0000 C   0  0  0  0  0  0  0  0  0  0  0  0
    6.4070   -8.1950    0.0000 O   0  0  0  0  0  0  0  0  0  0  0  0
    6.0209   -9.1518    0.0000 C   0  0  0  0  0  0  0  0  0  0  0  0
    7.6647   -5.8142    0.0000 C   0  0  0  0  0  0  0  0  0  0  0  0
    8.2703   -6.3745    0.0000 C   0  0  0  0  0  0  0  0  0  0  0  0
    9.0583   -6.1302    0.0000 C   0  0  0  0  0  0  0  0  0  0  0  0
    9.2407   -5.3256    0.0000 C   0  0  0  0  0  0  0  0  0  0  0  0
    8.6351   -4.7653    0.0000 C   0  0  0  0  0  0  0  0  0  0  0  0
    7.8471   -5.0097    0.0000 C   0  0  0  0  0  0  0  0  0  0  0  0
    6.4334   -9.8663    0.0000 O   0  0  0  0  0  0  0  0  0  0  0  0
    7.2584   -9.8663    0.0000 C   0  0  0  0  0  0  0  0  0  0  0  0
    7.6709  -10.5808    0.0000 C   0  0  0  0  0  0  0  0  0  0  0  0
    7.6709   -9.1518    0.0000 O   0  0  0  0  0  0  0  0  0  0  0  0
    8.4959  -10.5808    0.0000 C   0  0  0  0  0  0  0  0  0  0  0  0
    8.9084  -11.2952    0.0000 C   0  0  0  0  0  0  0  0  0  0  0  0
    9.7334  -11.2952    0.0000 C   0  0  0  0  0  0  0  0  0  0  0  0
   10.1459  -12.0097    0.0000 C   0  0  0  0  0  0  0  0  0  0  0  0
   10.9709  -12.0097    0.0000 C   0  0  0  0  0  0  0  0  0  0  0  0
   11.3834  -12.7242    0.0000 C   0  0  0  0  0  0  0  0  0  0  0  0
   12.2084  -12.7242    0.0000 C   0  0  0  0  0  0  0  0  0  0  0  0
   12.6209  -13.4387    0.0000 C   0  0  0  0  0  0  0  0  0  0  0  0
    5.5420   -5.2336    0.0000 C   0  0  0  0  0  0  0  0  0  0  0  0
    4.8275   -4.8211    0.0000 C   0  0  0  0  0  0  0  0  0  0  0  0
    6.2565   -4.8211    0.0000 C   0  0  0  0  0  0  0  0  0  0  0  0
  1  2  1  0  0  0  0
  2  3  1  0  0  0  0
  3  4  1  0  0  0  0
  4  5  1  0  0  0  0
  5  6  1  0  0  0  0
  6  7  1  0  0  0  0
  7  1  1  0  0  0  0
  6  8  1  0  0  0  0
  8  9  1  0  0  0  0
  9 10  1  0  0  0  0
 10 11  1  0  0  0  0
 11  7  1  0  0  0  0
  8 12  1  6  0  0  0
 12 13  1  0  0  0  0
 13 14  1  0  0  0  0
  9 14  1  6  0  0  0
  1 15  1  0  0  0  0
 15 16  1  0  0  0  0
 16 17  1  0  0  0  0
 17  2  1  0  0  0  0
 16 18  1  1  0  0  0
 17 19  1  1  0  0  0
  2 20  1  1  0  0  0
  3 21  1  1  0  0  0
  4 22  1  1  0  0  0
  6 23  1  1  0  0  0
  1 24  1  6  0  0  0
  7 25  1  6  0  0  0
 11 26  1  6  0  0  0
  5 27  1  6  0  0  0
  4 28  1  6  0  0  0
 25 13  1  0  0  0  0
 13 29  1  0  0  0  0
 29 30  2  0  0  0  0
 30 31  1  0  0  0  0
 31 32  2  0  0  0  0
 32 33  1  0  0  0  0
 33 34  2  0  0  0  0
 34 29  1  0  0  0  0
 28 35  1  0  0  0  0
 35 36  1  0  0  0  0
 36 37  1  0  0  0  0
 36 38  2  0  0  0  0
 37 39  2  0  0  0  0
 39 40  1  0  0  0  0
 40 41  2  0  0  0  0
 41 42  1  0  0  0  0
 42 43  1  0  0  0  0
 43 44  1  0  0  0  0
 44 45  1  0  0  0  0
 45 46  1  0  0  0  0
  9 47  1  0  0  0  0
 47 48  1  0  0  0  0
 47 49  2  0  0  0  0
M  END
>  <cdx:fragmentId>
5

$$$$
