38858.cdx
  Mrv1902 05222410212D          

 17 18  0  0  0  0            999 V2000
   28.6490  -14.1884    0.0000 C   0  0  0  0  0  0  0  0  0  0  0  0
   27.9345  -13.7759    0.0000 C   0  0  0  0  0  0  0  0  0  0  0  0
   27.2200  -14.1884    0.0000 C   0  0  0  0  0  0  0  0  0  0  0  0
   26.5055  -13.7759    0.0000 C   0  0  0  0  0  0  0  0  0  0  0  0
   25.7911  -14.1884    0.0000 C   0  0  0  0  0  0  0  0  0  0  0  0
   25.0766  -13.7759    0.0000 C   0  0  0  0  0  0  0  0  0  0  0  0
   25.7911  -15.0105    0.0000 C   0  0  0  0  0  0  0  0  0  0  0  0
   27.2200  -15.0105    0.0000 O   0  0  0  0  0  0  0  0  0  0  0  0
   25.0766  -12.9537    0.0000 C   0  0  0  0  0  0  0  0  0  0  0  0
   29.3610  -13.7773    0.0000 C   0  0  0  0  0  0  0  0  0  0  0  0
   28.6490  -15.0105    0.0000 C   0  0  0  0  0  0  0  0  0  0  0  0
   25.2097  -15.5918    0.0000 O   0  0  0  0  0  0  0  0  0  0  0  0
   27.9345  -12.9537    0.0000 C   0  0  0  0  0  0  0  0  0  0  0  0
   27.5000  -12.4395    0.0000 C   0  0  0  0  0  0  0  0  0  0  0  0
   26.5080  -12.1302    0.0000 C   0  0  0  0  0  0  0  0  0  0  0  0
   25.7960  -12.5412    0.0000 C   0  0  0  0  0  0  0  0  0  0  0  0
   26.5080  -11.3080    0.0000 C   0  0  0  0  0  0  0  0  0  0  0  0
  1  2  1  0  0  0  0
  2  3  1  0  0  0  0
  3  4  1  0  0  0  0
  4  5  2  0  0  0  0
  5  6  1  0  0  0  0
  5  7  1  0  0  0  0
  3  8  1  0  0  0  0
  7  8  1  0  0  0  0
  6  9  1  0  0  0  0
  1 10  1  0  0  0  0
  1 11  2  0  0  0  0
  7 12  2  0  0  0  0
  2 13  1  0  0  0  0
 13 14  1  0  0  0  0
 14 15  1  0  0  0  0
 15 16  2  0  0  0  0
 15 17  1  0  0  0  0
  9 16  1  0  0  0  0
M  END
>  <cdx:fragmentId>
19238

$$$$
