38889.cdx
  Mrv1902 05222410222D          

 78 87  0  0  0  0            999 V2000
   21.8647   -6.8449    0.0000 O   0  0  0  0  0  0  0  0  0  0  0  0
   21.3798   -7.5124    0.0000 C   0  0  0  0  0  0  0  0  0  0  0  0
   21.8647   -8.1798    0.0000 C   0  0  0  0  0  0  0  0  0  0  0  0
   22.6494   -7.9249    0.0000 C   0  0  0  0  0  0  0  0  0  0  0  0
   22.6494   -7.0999    0.0000 C   0  0  0  0  0  0  0  0  0  0  0  0
   23.3168   -6.6149    0.0000 O   0  0  0  0  0  0  0  0  0  0  0  0
   17.9673  -10.0444    0.0000 C   0  0  0  0  0  0  0  0  0  0  0  0
   17.2528  -10.4569    0.0000 C   0  0  0  0  0  0  0  0  0  0  0  0
   17.2528  -11.2819    0.0000 C   0  0  1  0  0  0  0  0  0  0  0  0
   17.9673  -11.6944    0.0000 C   0  0  0  0  0  0  0  0  0  0  0  0
   18.6818  -11.2819    0.0000 C   0  0  1  0  0  0  0  0  0  0  0  0
   19.3962  -11.6944    0.0000 C   0  0  0  0  0  0  0  0  0  0  0  0
   20.1107  -11.2819    0.0000 C   0  0  0  0  0  0  0  0  0  0  0  0
   20.1107  -10.4569    0.0000 C   0  0  1  0  0  0  0  0  0  0  0  0
   20.8252  -10.0444    0.0000 C   0  0  1  0  0  0  0  0  0  0  0  0
   21.6098  -10.2993    0.0000 C   0  0  0  0  0  0  0  0  0  0  0  0
   22.0947   -9.6319    0.0000 C   0  0  0  0  0  0  0  0  0  0  0  0
   21.6098   -8.9644    0.0000 C   0  0  1  0  0  0  0  0  0  0  0  0
   20.8252   -9.2194    0.0000 C   0  0  1  0  0  0  0  0  0  0  0  0
   20.1107   -8.8069    0.0000 C   0  0  1  0  0  0  0  0  0  0  0  0
   19.3962   -9.2194    0.0000 C   0  0  0  0  0  0  0  0  0  0  0  0
   19.3962  -10.0444    0.0000 C   0  0  2  0  0  0  0  0  0  0  0  0
   18.6818  -10.4569    0.0000 C   0  0  1  0  0  0  0  0  0  0  0  0
   20.9114   -8.3989    0.0000 C   0  0  0  0  0  0  0  0  0  0  0  0
   18.6818   -9.6319    0.0000 C   0  0  0  0  0  0  0  0  0  0  0  0
   20.8252  -10.8694    0.0000 O   0  0  0  0  0  0  0  0  0  0  0  0
   20.1107   -7.9819    0.0000 O   0  0  0  0  0  0  0  0  0  0  0  0
   16.5383  -11.6944    0.0000 O   0  0  0  0  0  0  0  0  0  0  0  0
   18.6818  -12.1069    0.0000 H   0  0  0  0  0  0  0  0  0  0  0  0
   20.1107   -9.6319    0.0000 H   0  0  0  0  0  0  0  0  0  0  0  0
   19.3962  -10.8694    0.0000 H   0  0  0  0  0  0  0  0  0  0  0  0
    9.4010  -10.0496    0.0000 C   0  0  2  0  0  0  0  0  0  0  0  0
    8.6863  -10.4617    0.0000 C   0  0  2  0  0  0  0  0  0  0  0  0
    8.6858  -11.2867    0.0000 C   0  0  2  0  0  0  0  0  0  0  0  0
    9.4000  -11.6996    0.0000 C   0  0  0  0  0  0  0  0  0  0  0  0
   10.1147  -11.2876    0.0000 C   0  0  1  0  0  0  0  0  0  0  0  0
   10.1152  -10.4626    0.0000 O   0  0  0  0  0  0  0  0  0  0  0  0
    9.4015   -9.2246    0.0000 C   0  0  0  0  0  0  0  0  0  0  0  0
    7.9721  -10.0487    0.0000 O   0  0  0  0  0  0  0  0  0  0  0  0
    7.9711  -11.6987    0.0000 O   0  0  0  0  0  0  0  0  0  0  0  0
    5.8207  -10.4473    0.0000 C   0  0  2  0  0  0  0  0  0  0  0  0
    5.8207  -11.2723    0.0000 C   0  0  2  0  0  0  0  0  0  0  0  0
    6.5352  -11.6848    0.0000 C   0  0  2  0  0  0  0  0  0  0  0  0
    7.2496  -11.2723    0.0000 C   0  0  0  0  0  0  0  0  0  0  0  0
    7.2496  -10.4473    0.0000 C   0  0  1  0  0  0  0  0  0  0  0  0
    6.5352  -10.0348    0.0000 O   0  0  0  0  0  0  0  0  0  0  0  0
    5.1062  -10.0348    0.0000 C   0  0  0  0  0  0  0  0  0  0  0  0
    5.1062  -11.6848    0.0000 O   0  0  0  0  0  0  0  0  0  0  0  0
    6.5352  -12.5098    0.0000 O   0  0  0  0  0  0  0  0  0  0  0  0
   11.5431  -10.4722    0.0000 C   0  0  2  0  0  0  0  0  0  0  0  0
   11.5431  -11.2972    0.0000 C   0  0  2  0  0  0  0  0  0  0  0  0
   12.2576  -11.7097    0.0000 C   0  0  2  0  0  0  0  0  0  0  0  0
   12.9720  -11.2972    0.0000 C   0  0  0  0  0  0  0  0  0  0  0  0
   12.9720  -10.4722    0.0000 C   0  0  1  0  0  0  0  0  0  0  0  0
   12.2576  -10.0597    0.0000 O   0  0  0  0  0  0  0  0  0  0  0  0
   10.8286  -10.0597    0.0000 C   0  0  0  0  0  0  0  0  0  0  0  0
   10.8286  -11.7097    0.0000 O   0  0  0  0  0  0  0  0  0  0  0  0
   12.2576  -12.5347    0.0000 O   0  0  0  0  0  0  0  0  0  0  0  0
   15.1088  -10.0413    0.0000 C   0  0  2  0  0  0  0  0  0  0  0  0
   14.3948  -10.4546    0.0000 C   0  0  2  0  0  0  0  0  0  0  0  0
   14.3957  -11.2796    0.0000 C   0  0  2  0  0  0  0  0  0  0  0  0
   15.1107  -11.6913    0.0000 C   0  0  0  0  0  0  0  0  0  0  0  0
   15.8247  -11.2780    0.0000 C   0  0  1  0  0  0  0  0  0  0  0  0
   15.8237  -10.4530    0.0000 O   0  0  0  0  0  0  0  0  0  0  0  0
   15.1078   -9.2163    0.0000 C   0  0  0  0  0  0  0  0  0  0  0  0
   13.6798  -10.0429    0.0000 O   0  0  0  0  0  0  0  0  0  0  0  0
   13.6817  -11.6929    0.0000 O   0  0  0  0  0  0  0  0  0  0  0  0
    3.6788  -10.0424    0.0000 C   0  0  2  0  0  0  0  0  0  0  0  0
    2.9642  -10.4548    0.0000 C   0  0  2  0  0  0  0  0  0  0  0  0
    2.9640  -11.2798    0.0000 C   0  0  1  0  0  0  0  0  0  0  0  0
    3.6784  -11.6924    0.0000 C   0  0  2  0  0  0  0  0  0  0  0  0
    4.3930  -11.2801    0.0000 C   0  0  1  0  0  0  0  0  0  0  0  0
    4.3932  -10.4551    0.0000 O   0  0  0  0  0  0  0  0  0  0  0  0
    3.6790   -9.2174    0.0000 C   0  0  0  0  0  0  0  0  0  0  0  0
    2.2495  -11.6921    0.0000 O   0  0  0  0  0  0  0  0  0  0  0  0
    2.2498  -10.0421    0.0000 O   0  0  0  0  0  0  0  0  0  0  0  0
    3.6783  -12.5174    0.0000 O   0  0  0  0  0  0  0  0  0  0  0  0
    2.9646   -8.8048    0.0000 O   0  0  0  0  0  0  0  0  0  0  0  0
  1  2  1  0  0  0  0
  2  3  1  0  0  0  0
  3  4  2  0  0  0  0
  4  5  1  0  0  0  0
  1  5  1  0  0  0  0
  5  6  2  0  0  0  0
  7  8  1  0  0  0  0
  8  9  1  0  0  0  0
  9 10  1  0  0  0  0
 10 11  1  0  0  0  0
 11 12  1  0  0  0  0
 12 13  1  0  0  0  0
 13 14  1  0  0  0  0
 14 15  1  0  0  0  0
 15 16  1  0  0  0  0
 16 17  1  0  0  0  0
 17 18  1  0  0  0  0
 18 19  1  0  0  0  0
 15 19  1  0  0  0  0
 19 20  1  0  0  0  0
 20 21  1  0  0  0  0
 21 22  1  0  0  0  0
 14 22  1  0  0  0  0
 22 23  1  0  0  0  0
 11 23  1  0  0  0  0
  7 23  1  0  0  0  0
 19 24  1  1  0  0  0
 23 25  1  1  0  0  0
 15 26  1  1  0  0  0
 20 27  1  1  0  0  0
  9 28  1  1  0  0  0
 18  3  1  1  0  0  0
 11 29  1  1  0  0  0
 14 30  1  1  0  0  0
 22 31  1  6  0  0  0
 32 33  1  0  0  0  0
 33 34  1  0  0  0  0
 34 35  1  0  0  0  0
 35 36  1  0  0  0  0
 36 37  1  0  0  0  0
 37 32  1  0  0  0  0
 32 38  1  1  0  0  0
 33 39  1  6  0  0  0
 34 40  1  6  0  0  0
 41 42  1  0  0  0  0
 42 43  1  0  0  0  0
 43 44  1  0  0  0  0
 44 45  1  0  0  0  0
 45 46  1  0  0  0  0
 46 41  1  0  0  0  0
 41 47  1  1  0  0  0
 42 48  1  6  0  0  0
 43 49  1  6  0  0  0
 50 51  1  0  0  0  0
 51 52  1  0  0  0  0
 52 53  1  0  0  0  0
 53 54  1  0  0  0  0
 54 55  1  0  0  0  0
 55 50  1  0  0  0  0
 50 56  1  1  0  0  0
 51 57  1  6  0  0  0
 52 58  1  6  0  0  0
 59 60  1  0  0  0  0
 60 61  1  0  0  0  0
 61 62  1  0  0  0  0
 62 63  1  0  0  0  0
 63 64  1  0  0  0  0
 64 59  1  0  0  0  0
 59 65  1  1  0  0  0
 60 66  1  6  0  0  0
 61 67  1  6  0  0  0
 63 28  1  1  0  0  0
 54 66  1  1  0  0  0
 36 57  1  1  0  0  0
 45 39  1  1  0  0  0
 68 69  1  0  0  0  0
 69 70  1  0  0  0  0
 70 71  1  0  0  0  0
 71 72  1  0  0  0  0
 72 73  1  0  0  0  0
 73 68  1  0  0  0  0
 68 74  1  1  0  0  0
 70 75  1  1  0  0  0
 69 76  1  6  0  0  0
 71 77  1  6  0  0  0
 74 78  1  0  0  0  0
 72 48  1  1  0  0  0
M  END
>  <cdx:fragmentId>
17

$$$$
