3775.cdx
  Mrv1902 05222410252D          

 27 30  0  0  0  0            999 V2000
   30.3800  -12.9409    0.0000 C   0  0  0  0  0  0  0  0  0  0  0  0
   30.3800  -13.7659    0.0000 C   0  0  0  0  0  0  0  0  0  0  0  0
   29.6655  -14.1784    0.0000 C   0  0  0  0  0  0  0  0  0  0  0  0
   28.9511  -13.7659    0.0000 C   0  0  0  0  0  0  0  0  0  0  0  0
   28.2366  -14.1784    0.0000 C   0  0  0  0  0  0  0  0  0  0  0  0
   27.5221  -13.7659    0.0000 C   0  0  0  0  0  0  0  0  0  0  0  0
   27.5221  -12.9409    0.0000 C   0  0  0  0  0  0  0  0  0  0  0  0
   28.2366  -12.5284    0.0000 C   0  0  0  0  0  0  0  0  0  0  0  0
   28.9511  -12.9409    0.0000 C   0  0  0  0  0  0  0  0  0  0  0  0
   29.6655  -12.5284    0.0000 O   0  0  0  0  0  0  0  0  0  0  0  0
   26.8077  -12.5284    0.0000 O   0  0  0  0  0  0  0  0  0  0  0  0
   30.7925  -12.2264    0.0000 C   0  0  0  0  0  0  0  0  0  0  0  0
   31.2050  -12.9409    0.0000 C   0  0  0  0  0  0  0  0  0  0  0  0
   28.2366  -15.0034    0.0000 O   0  0  0  0  0  0  0  0  0  0  0  0
   28.9511  -15.4159    0.0000 C   0  0  0  0  0  0  0  0  0  0  0  0
   26.0540  -13.8428    0.0000 O   0  0  0  0  0  0  0  0  0  0  0  0
   26.8077  -14.1784    0.0000 C   0  0  0  0  0  0  0  0  0  0  0  0
   26.7214  -14.9989    0.0000 C   0  0  0  0  0  0  0  0  0  0  0  0
   25.9144  -15.1704    0.0000 C   0  0  0  0  0  0  0  0  0  0  0  0
   25.5019  -14.4559    0.0000 C   0  0  0  0  0  0  0  0  0  0  0  0
   24.6769  -14.4559    0.0000 C   0  0  0  0  0  0  0  0  0  0  0  0
   24.2644  -15.1704    0.0000 C   0  0  0  0  0  0  0  0  0  0  0  0
   24.6769  -15.8848    0.0000 C   0  0  0  0  0  0  0  0  0  0  0  0
   25.5019  -15.8848    0.0000 C   0  0  0  0  0  0  0  0  0  0  0  0
   27.3345  -15.5509    0.0000 C   0  0  0  0  0  0  0  0  0  0  0  0
   27.1630  -16.3579    0.0000 O   0  0  0  0  0  0  0  0  0  0  0  0
   23.4394  -15.1704    0.0000 O   0  0  0  0  0  0  0  0  0  0  0  0
  1  2  1  0  0  0  0
  2  3  1  0  0  0  0
  3  4  1  0  0  0  0
  4  5  1  0  0  0  0
  5  6  2  0  0  0  0
  6  7  1  0  0  0  0
  7  8  2  0  0  0  0
  8  9  1  0  0  0  0
  4  9  2  0  0  0  0
  9 10  1  0  0  0  0
  1 10  1  0  0  0  0
  7 11  1  0  0  0  0
  1 12  1  0  0  0  0
  1 13  1  0  0  0  0
 14 15  1  0  0  0  0
  5 14  1  0  0  0  0
 16 17  1  0  0  0  0
 17 18  2  0  0  0  0
 18 19  1  0  0  0  0
 19 20  1  0  0  0  0
 16 20  1  0  0  0  0
 21 22  1  0  0  0  0
 22 23  2  0  0  0  0
 23 24  1  0  0  0  0
 19 24  2  0  0  0  0
 20 21  2  0  0  0  0
 25 26  1  0  0  0  0
 18 25  1  0  0  0  0
 22 27  1  0  0  0  0
  6 17  1  0  0  0  0
M  END
>  <cdx:fragmentId>
29597

$$$$
