389.cdx
  Mrv1902 05222410232D          

 42 43  0  0  0  0            999 V2000
    4.3045  -17.9335    0.0000 C   0  0  1  0  0  0  0  0  0  0  0  0
    5.0190  -17.5210    0.0000 C   0  0  0  0  0  0  0  0  0  0  0  0
    5.0190  -16.6960    0.0000 C   0  0  0  0  0  0  0  0  0  0  0  0
    4.3045  -16.2835    0.0000 C   0  0  1  0  0  0  0  0  0  0  0  0
    3.5900  -16.6960    0.0000 C   0  0  0  0  0  0  0  0  0  0  0  0
    3.5900  -17.5210    0.0000 C   0  0  0  0  0  0  0  0  0  0  0  0
    4.3045  -18.7585    0.0000 O   0  0  0  0  0  0  0  0  0  0  0  0
    3.1775  -15.9815    0.0000 C   0  0  0  0  0  0  0  0  0  0  0  0
    2.7650  -16.6960    0.0000 C   0  0  0  0  0  0  0  0  0  0  0  0
    5.7335  -16.2835    0.0000 C   0  0  0  0  0  0  0  0  0  0  0  0
    4.3045  -15.4585    0.0000 C   0  0  0  0  0  0  0  0  0  0  0  0
    5.0190  -15.0460    0.0000 C   0  0  0  0  0  0  0  0  0  0  0  0
    5.0190  -14.2210    0.0000 C   0  0  0  0  0  0  0  0  0  0  0  0
    5.7335  -13.8085    0.0000 C   0  0  0  0  0  0  0  0  0  0  0  0
    5.7335  -12.9835    0.0000 C   0  0  0  0  0  0  0  0  0  0  0  0
    6.4479  -12.5710    0.0000 C   0  0  0  0  0  0  0  0  0  0  0  0
    6.4479  -11.7460    0.0000 C   0  0  0  0  0  0  0  0  0  0  0  0
    7.1624  -11.3335    0.0000 C   0  0  0  0  0  0  0  0  0  0  0  0
    7.1624  -10.5085    0.0000 C   0  0  0  0  0  0  0  0  0  0  0  0
    7.8769  -10.0960    0.0000 C   0  0  0  0  0  0  0  0  0  0  0  0
    7.8769   -9.2710    0.0000 C   0  0  0  0  0  0  0  0  0  0  0  0
    8.5913   -8.8585    0.0000 C   0  0  0  0  0  0  0  0  0  0  0  0
    8.5913   -8.0335    0.0000 C   0  0  0  0  0  0  0  0  0  0  0  0
    9.3058   -7.6210    0.0000 C   0  0  0  0  0  0  0  0  0  0  0  0
    9.3058   -6.7960    0.0000 C   0  0  0  0  0  0  0  0  0  0  0  0
   10.0203   -6.3835    0.0000 C   0  0  0  0  0  0  0  0  0  0  0  0
   10.0203   -5.5585    0.0000 C   0  0  0  0  0  0  0  0  0  0  0  0
   10.7348   -5.1460    0.0000 C   0  0  0  0  0  0  0  0  0  0  0  0
   10.7348   -6.7960    0.0000 C   0  0  0  0  0  0  0  0  0  0  0  0
    9.3058   -9.2710    0.0000 C   0  0  0  0  0  0  0  0  0  0  0  0
    5.7335  -11.3335    0.0000 C   0  0  0  0  0  0  0  0  0  0  0  0
    4.3045  -13.8085    0.0000 C   0  0  0  0  0  0  0  0  0  0  0  0
   10.7348   -4.3210    0.0000 C   0  0  0  0  0  0  0  0  0  0  0  0
   10.0203   -3.9085    0.0000 C   0  0  0  0  0  0  0  0  0  0  0  0
   10.0203   -3.0835    0.0000 C   0  0  0  0  0  0  0  0  0  0  0  0
   10.7348   -2.6710    0.0000 C   0  0  2  0  0  0  0  0  0  0  0  0
   11.4492   -3.0835    0.0000 C   0  0  0  0  0  0  0  0  0  0  0  0
   11.4492   -3.9085    0.0000 C   0  0  0  0  0  0  0  0  0  0  0  0
   11.8617   -4.6229    0.0000 C   0  0  0  0  0  0  0  0  0  0  0  0
   12.2742   -3.9085    0.0000 C   0  0  0  0  0  0  0  0  0  0  0  0
    9.3058   -4.3210    0.0000 C   0  0  0  0  0  0  0  0  0  0  0  0
   10.7348   -1.8460    0.0000 O   0  0  0  0  0  0  0  0  0  0  0  0
  1  2  1  0  0  0  0
  2  3  2  0  0  0  0
  3  4  1  0  0  0  0
  4  5  1  0  0  0  0
  5  6  1  0  0  0  0
  1  6  1  0  0  0  0
  1  7  1  6  0  0  0
  5  8  1  0  0  0  0
  5  9  1  0  0  0  0
  3 10  1  0  0  0  0
 11 12  2  0  0  0  0
 12 13  1  0  0  0  0
 13 14  2  0  0  0  0
 14 15  1  0  0  0  0
 15 16  2  0  0  0  0
 16 17  1  0  0  0  0
 17 18  2  0  0  0  0
 18 19  1  0  0  0  0
 19 20  2  0  0  0  0
 20 21  1  0  0  0  0
 21 22  2  0  0  0  0
 22 23  1  0  0  0  0
 23 24  2  0  0  0  0
 24 25  1  0  0  0  0
 25 26  2  0  0  0  0
 26 27  1  0  0  0  0
 27 28  2  0  0  0  0
 26 29  1  0  0  0  0
 22 30  1  0  0  0  0
 17 31  1  0  0  0  0
 13 32  1  0  0  0  0
 33 34  2  0  0  0  0
 34 35  1  0  0  0  0
 35 36  1  0  0  0  0
 36 37  1  0  0  0  0
 37 38  1  0  0  0  0
 33 38  1  0  0  0  0
 38 39  1  0  0  0  0
 38 40  1  0  0  0  0
 34 41  1  0  0  0  0
 36 42  1  1  0  0  0
 33 28  1  0  0  0  0
  4 11  1  1  0  0  0
M  END
>  <cdx:fragmentId>
13528

$$$$
