38900.cdx
  Mrv1902 05222410232D          

 36 39  0  0  0  0            999 V2000
    8.7660   -9.2322    0.0000 C   0  0  0  0  0  0  0  0  0  0  0  0
    8.0515   -8.8197    0.0000 C   0  0  0  0  0  0  0  0  0  0  0  0
    7.3370   -9.2322    0.0000 C   0  0  0  0  0  0  0  0  0  0  0  0
    8.7660  -10.0572    0.0000 O   0  0  0  0  0  0  0  0  0  0  0  0
    9.4804   -8.8197    0.0000 N   0  0  0  0  0  0  0  0  0  0  0  0
   10.1949   -9.2322    0.0000 C   0  0  0  0  0  0  0  0  0  0  0  0
   10.9094   -8.8197    0.0000 C   0  0  0  0  0  0  0  0  0  0  0  0
   11.6238   -9.2322    0.0000 C   0  0  0  0  0  0  0  0  0  0  0  0
   12.3383   -8.8197    0.0000 C   0  0  0  0  0  0  0  0  0  0  0  0
   13.0528   -9.2322    0.0000 C   0  0  0  0  0  0  0  0  0  0  0  0
   13.0528  -10.0572    0.0000 C   0  0  0  0  0  0  0  0  0  0  0  0
   12.3383  -10.4697    0.0000 C   0  0  0  0  0  0  0  0  0  0  0  0
   11.6238  -10.0572    0.0000 C   0  0  0  0  0  0  0  0  0  0  0  0
   13.7672  -10.4697    0.0000 O   0  0  0  0  0  0  0  0  0  0  0  0
    4.4090   -7.7398    0.0000 O   0  0  0  0  0  0  0  0  0  0  0  0
    3.9241   -8.4072    0.0000 C   0  0  2  0  0  0  0  0  0  0  0  0
    4.4090   -9.0746    0.0000 C   0  0  2  0  0  0  0  0  0  0  0  0
    5.1936   -8.8197    0.0000 C   0  0  0  0  0  0  0  0  0  0  0  0
    5.9081   -9.2322    0.0000 C   0  0  0  0  0  0  0  0  0  0  0  0
    6.6225   -8.8197    0.0000 C   0  0  0  0  0  0  0  0  0  0  0  0
    6.6225   -7.9947    0.0000 C   0  0  0  0  0  0  0  0  0  0  0  0
    5.9081   -7.5822    0.0000 C   0  0  0  0  0  0  0  0  0  0  0  0
    5.1936   -7.9947    0.0000 C   0  0  0  0  0  0  0  0  0  0  0  0
    5.9081   -6.7572    0.0000 O   0  0  0  0  0  0  0  0  0  0  0  0
    5.1936   -6.3447    0.0000 C   0  0  0  0  0  0  0  0  0  0  0  0
    4.1540   -9.8593    0.0000 C   0  0  0  0  0  0  0  0  0  0  0  0
    3.3471  -10.0308    0.0000 O   0  0  0  0  0  0  0  0  0  0  0  0
    3.0991   -8.4072    0.0000 C   0  0  0  0  0  0  0  0  0  0  0  0
    2.6866   -9.1217    0.0000 C   0  0  0  0  0  0  0  0  0  0  0  0
    1.8616   -9.1217    0.0000 C   0  0  0  0  0  0  0  0  0  0  0  0
    1.4491   -8.4072    0.0000 C   0  0  0  0  0  0  0  0  0  0  0  0
    1.8616   -7.6927    0.0000 C   0  0  0  0  0  0  0  0  0  0  0  0
    2.6866   -7.6927    0.0000 C   0  0  0  0  0  0  0  0  0  0  0  0
    1.4491   -9.8361    0.0000 O   0  0  0  0  0  0  0  0  0  0  0  0
    0.6241   -9.8361    0.0000 C   0  0  0  0  0  0  0  0  0  0  0  0
    0.6241   -8.4072    0.0000 O   0  0  0  0  0  0  0  0  0  0  0  0
  1  2  1  0  0  0  0
  2  3  2  0  0  0  0
  1  4  2  0  0  0  0
  1  5  1  0  0  0  0
  6  7  1  0  0  0  0
  8  9  1  0  0  0  0
  9 10  2  0  0  0  0
 10 11  1  0  0  0  0
 11 12  2  0  0  0  0
 12 13  1  0  0  0  0
  8 13  2  0  0  0  0
 11 14  1  0  0  0  0
  7  8  1  0  0  0  0
  5  6  1  0  0  0  0
 15 16  1  0  0  0  0
 16 17  1  0  0  0  0
 17 18  1  0  0  0  0
 18 19  1  0  0  0  0
 19 20  2  0  0  0  0
 20 21  1  0  0  0  0
 21 22  2  0  0  0  0
 22 23  1  0  0  0  0
 18 23  2  0  0  0  0
 15 23  1  0  0  0  0
 24 25  1  0  0  0  0
 22 24  1  0  0  0  0
 26 27  1  0  0  0  0
 17 26  1  6  0  0  0
 28 29  1  0  0  0  0
 29 30  2  0  0  0  0
 30 31  1  0  0  0  0
 31 32  2  0  0  0  0
 32 33  1  0  0  0  0
 28 33  2  0  0  0  0
 34 35  1  0  0  0  0
 30 34  1  0  0  0  0
 31 36  1  0  0  0  0
 16 28  1  6  0  0  0
  3 20  1  0  0  0  0
M  END
>  <cdx:fragmentId>
33

$$$$
