38905.cdx
  Mrv1902 05222410212D          

 45 51  0  0  0  0            999 V2000
    7.9652   -1.7789    0.0000 C   0  0  0  0  0  0  0  0  0  0  0  0
    7.9652   -2.6039    0.0000 C   0  0  0  0  0  0  0  0  0  0  0  0
    8.6797   -3.0164    0.0000 C   0  0  0  0  0  0  0  0  0  0  0  0
    9.3942   -2.6039    0.0000 C   0  0  0  0  0  0  0  0  0  0  0  0
    9.3942   -1.7789    0.0000 C   0  0  0  0  0  0  0  0  0  0  0  0
    8.6797   -1.3664    0.0000 C   0  0  0  0  0  0  0  0  0  0  0  0
   10.1086   -3.0164    0.0000 C   0  0  0  0  0  0  0  0  0  0  0  0
   10.8231   -2.6039    0.0000 N   0  0  0  0  0  0  0  0  0  0  0  0
   10.8231   -1.7789    0.0000 C   0  0  0  0  0  0  0  0  0  0  0  0
   10.1086   -1.3664    0.0000 C   0  0  0  0  0  0  0  0  0  0  0  0
    7.2532   -1.3678    0.0000 O   0  0  0  0  0  0  0  0  0  0  0  0
    6.5412   -1.7789    0.0000 C   0  0  0  0  0  0  0  0  0  0  0  0
    7.2532   -3.0150    0.0000 O   0  0  0  0  0  0  0  0  0  0  0  0
   11.5351   -3.0150    0.0000 C   0  0  0  0  0  0  0  0  0  0  0  0
   10.7422   -3.6738    0.0000 C   0  0  0  0  0  0  0  0  0  0  0  0
    8.4808   -8.4391    0.0000 C   0  0  0  0  0  0  0  0  0  0  0  0
    8.4808   -9.2641    0.0000 C   0  0  0  0  0  0  0  0  0  0  0  0
    9.1953   -9.6766    0.0000 C   0  0  0  0  0  0  0  0  0  0  0  0
    9.9098   -9.2641    0.0000 C   0  0  0  0  0  0  0  0  0  0  0  0
    9.9098   -8.4391    0.0000 C   0  0  0  0  0  0  0  0  0  0  0  0
    9.1953   -8.0266    0.0000 C   0  0  0  0  0  0  0  0  0  0  0  0
    7.7664   -8.0266    0.0000 C   0  0  0  0  0  0  0  0  0  0  0  0
    7.0519   -8.4391    0.0000 N   0  0  0  0  0  0  0  0  0  0  0  0
    7.0519   -9.2641    0.0000 C   0  0  0  0  0  0  0  0  0  0  0  0
    7.7664   -9.6766    0.0000 C   0  0  0  0  0  0  0  0  0  0  0  0
   10.6218   -9.6751    0.0000 O   0  0  0  0  0  0  0  0  0  0  0  0
   11.3338   -9.2641    0.0000 C   0  0  0  0  0  0  0  0  0  0  0  0
    5.9027   -5.1305    0.0000 C   0  0  0  0  0  0  0  0  0  0  0  0
    5.9027   -5.9555    0.0000 C   0  0  0  0  0  0  0  0  0  0  0  0
    6.6172   -6.3680    0.0000 C   0  0  0  0  0  0  0  0  0  0  0  0
    7.3317   -5.9555    0.0000 C   0  0  0  0  0  0  0  0  0  0  0  0
    7.3317   -5.1305    0.0000 C   0  0  0  0  0  0  0  0  0  0  0  0
    6.6172   -4.7180    0.0000 C   0  0  0  0  0  0  0  0  0  0  0  0
   10.0707   -4.9586    0.0000 C   0  0  0  0  0  0  0  0  0  0  0  0
   10.0707   -5.7836    0.0000 C   0  0  0  0  0  0  0  0  0  0  0  0
   10.7852   -6.1961    0.0000 C   0  0  0  0  0  0  0  0  0  0  0  0
   11.4996   -5.7836    0.0000 C   0  0  0  0  0  0  0  0  0  0  0  0
   11.4996   -4.9586    0.0000 C   0  0  0  0  0  0  0  0  0  0  0  0
   10.7852   -4.5461    0.0000 C   0  0  0  0  0  0  0  0  0  0  0  0
    6.6172   -7.1901    0.0000 C   0  0  0  0  0  0  0  0  0  0  0  0
    6.3399   -8.0280    0.0000 C   0  0  0  0  0  0  0  0  0  0  0  0
   10.9226   -7.8132    0.0000 O   0  0  0  0  0  0  0  0  0  0  0  0
   12.2116   -6.1947    0.0000 O   0  0  0  0  0  0  0  0  0  0  0  0
   12.2116   -7.0168    0.0000 C   0  0  0  0  0  0  0  0  0  0  0  0
    7.7526   -3.9006    0.0000 O   0  0  0  0  0  0  0  0  0  0  0  0
  1  2  2  0  0  0  0
  2  3  1  0  0  0  0
  3  4  2  0  0  0  0
  4  5  1  0  0  0  0
  5  6  2  0  0  0  0
  6  1  1  0  0  0  0
  4  7  1  0  0  0  0
  7  8  1  0  0  0  0
  8  9  1  0  0  0  0
  9 10  1  0  0  0  0
 10  5  1  0  0  0  0
  1 11  1  0  0  0  0
 11 12  1  0  0  0  0
  2 13  1  0  0  0  0
  8 14  1  0  0  0  0
  7 15  1  0  0  0  0
 16 17  2  0  0  0  0
 17 18  1  0  0  0  0
 18 19  2  0  0  0  0
 19 20  1  0  0  0  0
 20 21  2  0  0  0  0
 21 16  1  0  0  0  0
 16 22  1  0  0  0  0
 23 24  1  0  0  0  0
 24 25  1  0  0  0  0
 25 17  1  0  0  0  0
 19 26  1  0  0  0  0
 26 27  1  0  0  0  0
 28 29  2  0  0  0  0
 29 30  1  0  0  0  0
 30 31  2  0  0  0  0
 31 32  1  0  0  0  0
 32 33  2  0  0  0  0
 33 28  1  0  0  0  0
 34 35  2  0  0  0  0
 35 36  1  0  0  0  0
 36 37  2  0  0  0  0
 37 38  1  0  0  0  0
 38 39  2  0  0  0  0
 39 34  1  0  0  0  0
 15 39  1  0  0  0  0
 23 22  1  0  0  0  0
 30 40  1  0  0  0  0
 40 22  1  0  0  0  0
 23 41  1  0  0  0  0
 20 42  1  0  0  0  0
 37 43  1  0  0  0  0
 43 44  1  0  0  0  0
  3 45  1  0  0  0  0
 33 45  1  0  0  0  0
 36 42  1  0  0  0  0
M  END
>  <cdx:fragmentId>
16845

$$$$
