3817.cdx
  Mrv1902 05222410252D          

  8  7  0  0  0  0            999 V2000
   29.3212  -13.8568    0.0000 C   0  0  0  0  0  0  0  0  0  0  0  0
   28.6067  -14.2693    0.0000 C   0  0  0  0  0  0  0  0  0  0  0  0
   27.8922  -13.8568    0.0000 C   0  0  0  0  0  0  0  0  0  0  0  0
   27.1777  -14.2693    0.0000 C   0  0  0  0  0  0  0  0  0  0  0  0
   26.4633  -13.8568    0.0000 C   0  0  0  0  0  0  0  0  0  0  0  0
   25.7488  -14.2693    0.0000 C   0  0  0  0  0  0  0  0  0  0  0  0
   25.0343  -13.8568    0.0000 C   0  0  0  0  0  0  0  0  0  0  0  0
   27.8922  -13.0318    0.0000 O   0  0  0  0  0  0  0  0  0  0  0  0
  1  2  2  0  0  0  0
  2  3  1  0  0  0  0
  3  4  1  0  0  0  0
  4  5  1  0  0  0  0
  5  6  1  0  0  0  0
  6  7  1  0  0  0  0
  3  8  2  0  0  0  0
M  END
>  <cdx:fragmentId>
17882

$$$$
