38908.cdx
  Mrv1902 05222410252D          

 89 95  0  0  0  0            999 V2000
    9.5065   -9.4465    0.0000 C   0  0  0  0  0  0  0  0  0  0  0  0
    9.5065   -8.6215    0.0000 C   0  0  2  0  0  0  0  0  0  0  0  0
    8.7920   -8.2090    0.0000 C   0  0  1  0  0  0  0  0  0  0  0  0
    8.0775   -8.6215    0.0000 C   0  0  2  0  0  0  0  0  0  0  0  0
    6.6772   -7.8130    0.0000 C   0  0  2  0  0  0  0  0  0  0  0  0
    5.2768   -8.6215    0.0000 C   0  0  0  0  0  0  0  0  0  0  0  0
    4.5623   -8.2090    0.0000 C   0  0  0  0  0  0  0  0  0  0  0  0
    8.7920   -9.8590    0.0000 O   0  0  0  0  0  0  0  0  0  0  0  0
    3.7499   -8.3522    0.0000 C   0  0  0  0  0  0  0  0  0  0  0  0
    3.2196   -7.7203    0.0000 C   0  0  0  0  0  0  0  0  0  0  0  0
    2.4071   -7.8635    0.0000 C   0  0  0  0  0  0  0  0  0  0  0  0
    2.1249   -8.6388    0.0000 C   0  0  0  0  0  0  0  0  0  0  0  0
    2.6552   -9.2707    0.0000 C   0  0  0  0  0  0  0  0  0  0  0  0
    3.4677   -9.1275    0.0000 C   0  0  0  0  0  0  0  0  0  0  0  0
    2.3731  -10.0460    0.0000 O   0  0  0  0  0  0  0  0  0  0  0  0
    1.3125   -8.7820    0.0000 O   0  0  0  0  0  0  0  0  0  0  0  0
    1.8768   -7.2315    0.0000 O   0  0  0  0  0  0  0  0  0  0  0  0
    5.2768   -9.4465    0.0000 C   0  0  0  0  0  0  0  0  0  0  0  0
    4.7465  -10.0785    0.0000 C   0  0  0  0  0  0  0  0  0  0  0  0
    3.9340   -9.9352    0.0000 C   0  0  0  0  0  0  0  0  0  0  0  0
    3.4037  -10.5672    0.0000 C   0  0  0  0  0  0  0  0  0  0  0  0
    3.6859  -11.3424    0.0000 C   0  0  0  0  0  0  0  0  0  0  0  0
    4.4984  -11.4857    0.0000 C   0  0  0  0  0  0  0  0  0  0  0  0
    5.0287  -10.8537    0.0000 C   0  0  0  0  0  0  0  0  0  0  0  0
    6.0521   -9.7286    0.0000 O   0  0  0  0  0  0  0  0  0  0  0  0
    4.7805  -12.2609    0.0000 O   0  0  0  0  0  0  0  0  0  0  0  0
    3.1556  -11.9744    0.0000 O   0  0  0  0  0  0  0  0  0  0  0  0
    2.5913  -10.4239    0.0000 O   0  0  0  0  0  0  0  0  0  0  0  0
    6.6772   -6.9880    0.0000 C   0  0  0  0  0  0  0  0  0  0  0  0
    5.9627   -6.5755    0.0000 C   0  0  0  0  0  0  0  0  0  0  0  0
    5.9627   -5.7505    0.0000 C   0  0  0  0  0  0  0  0  0  0  0  0
    5.2482   -5.3380    0.0000 C   0  0  0  0  0  0  0  0  0  0  0  0
    4.5338   -5.7505    0.0000 C   0  0  0  0  0  0  0  0  0  0  0  0
    4.5338   -6.5755    0.0000 C   0  0  0  0  0  0  0  0  0  0  0  0
    5.2482   -6.9880    0.0000 C   0  0  0  0  0  0  0  0  0  0  0  0
    7.3916   -6.5755    0.0000 O   0  0  0  0  0  0  0  0  0  0  0  0
    3.8193   -6.9880    0.0000 O   0  0  0  0  0  0  0  0  0  0  0  0
    3.8193   -5.3380    0.0000 O   0  0  0  0  0  0  0  0  0  0  0  0
    5.2482   -4.5130    0.0000 O   0  0  0  0  0  0  0  0  0  0  0  0
    7.3350   -9.6390    0.0000 C   0  0  0  0  0  0  0  0  0  0  0  0
    7.3229  -10.4639    0.0000 C   0  0  0  0  0  0  0  0  0  0  0  0
    6.6024  -10.8658    0.0000 C   0  0  0  0  0  0  0  0  0  0  0  0
    6.5903  -11.6907    0.0000 C   0  0  0  0  0  0  0  0  0  0  0  0
    7.2986  -12.1137    0.0000 C   0  0  0  0  0  0  0  0  0  0  0  0
    8.0191  -11.7118    0.0000 C   0  0  0  0  0  0  0  0  0  0  0  0
    8.0312  -10.8869    0.0000 C   0  0  0  0  0  0  0  0  0  0  0  0
    6.6267   -9.2160    0.0000 O   0  0  0  0  0  0  0  0  0  0  0  0
    8.7274  -12.1347    0.0000 O   0  0  0  0  0  0  0  0  0  0  0  0
    7.2865  -12.9386    0.0000 O   0  0  0  0  0  0  0  0  0  0  0  0
    5.8698  -12.0927    0.0000 O   0  0  0  0  0  0  0  0  0  0  0  0
    8.7920   -7.1365    0.0000 C   0  0  0  0  0  0  0  0  0  0  0  0
    9.5065   -6.7240    0.0000 C   0  0  0  0  0  0  0  0  0  0  0  0
   10.2209   -7.1365    0.0000 C   0  0  0  0  0  0  0  0  0  0  0  0
   10.9354   -6.7240    0.0000 C   0  0  0  0  0  0  0  0  0  0  0  0
   10.9354   -5.8990    0.0000 C   0  0  0  0  0  0  0  0  0  0  0  0
   10.2209   -5.4865    0.0000 C   0  0  0  0  0  0  0  0  0  0  0  0
    9.5065   -5.8990    0.0000 C   0  0  0  0  0  0  0  0  0  0  0  0
    8.0775   -6.7240    0.0000 O   0  0  0  0  0  0  0  0  0  0  0  0
   10.2209   -4.6615    0.0000 O   0  0  0  0  0  0  0  0  0  0  0  0
   11.6499   -5.4865    0.0000 O   0  0  0  0  0  0  0  0  0  0  0  0
   11.6499   -7.1365    0.0000 O   0  0  0  0  0  0  0  0  0  0  0  0
   10.2209   -8.2090    0.0000 C   0  0  0  0  0  0  0  0  0  0  0  0
   10.9354   -8.6215    0.0000 C   0  0  0  0  0  0  0  0  0  0  0  0
   10.9354   -9.4465    0.0000 C   0  0  0  0  0  0  0  0  0  0  0  0
   11.6499   -9.8590    0.0000 C   0  0  0  0  0  0  0  0  0  0  0  0
   12.3644   -9.4465    0.0000 C   0  0  0  0  0  0  0  0  0  0  0  0
   12.3644   -8.6215    0.0000 C   0  0  0  0  0  0  0  0  0  0  0  0
   11.6499   -8.2090    0.0000 C   0  0  0  0  0  0  0  0  0  0  0  0
   10.2209   -7.3840    0.0000 O   0  0  0  0  0  0  0  0  0  0  0  0
   13.0788   -8.2090    0.0000 O   0  0  0  0  0  0  0  0  0  0  0  0
   13.0788   -9.8590    0.0000 O   0  0  0  0  0  0  0  0  0  0  0  0
   11.6499  -10.6840    0.0000 O   0  0  0  0  0  0  0  0  0  0  0  0
    4.7056   -7.3965    0.0000 O   0  0  0  0  0  0  0  0  0  0  0  0
    5.2768   -7.7965    0.0000 O   0  0  0  0  0  0  0  0  0  0  0  0
    6.6772   -8.6380    0.0000 O   0  0  0  0  0  0  0  0  0  0  0  0
    8.0775   -7.7965    0.0000 O   0  0  0  0  0  0  0  0  0  0  0  0
    8.7920   -9.0340    0.0000 O   0  0  0  0  0  0  0  0  0  0  0  0
    9.5065   -7.7965    0.0000 O   0  0  0  0  0  0  0  0  0  0  0  0
   10.2527  -10.1094    0.0000 C   0  0  0  0  0  0  0  0  0  0  0  0
   11.0496   -9.8959    0.0000 O   0  0  0  0  0  0  0  0  0  0  0  0
   10.2636  -10.9343    0.0000 C   0  0  0  0  0  0  0  0  0  0  0  0
    9.5547  -11.3563    0.0000 C   0  0  0  0  0  0  0  0  0  0  0  0
    9.5656  -12.1812    0.0000 C   0  0  0  0  0  0  0  0  0  0  0  0
   10.2855  -12.5842    0.0000 C   0  0  0  0  0  0  0  0  0  0  0  0
   10.9944  -12.1622    0.0000 C   0  0  0  0  0  0  0  0  0  0  0  0
   10.9835  -11.3373    0.0000 C   0  0  0  0  0  0  0  0  0  0  0  0
    8.8567  -12.6031    0.0000 O   0  0  0  0  0  0  0  0  0  0  0  0
   10.2965  -13.4091    0.0000 O   0  0  0  0  0  0  0  0  0  0  0  0
   11.7143  -12.5652    0.0000 O   0  0  0  0  0  0  0  0  0  0  0  0
  1  2  1  0  0  0  0
  2  3  1  0  0  0  0
  3  4  1  0  0  0  0
  4  5  1  0  0  0  0
  5  6  1  0  0  0  0
  6  7  1  0  0  0  0
  1  8  2  0  0  0  0
  9 10  1  0  0  0  0
 10 11  2  0  0  0  0
 11 12  1  0  0  0  0
 12 13  2  0  0  0  0
 13 14  1  0  0  0  0
  9 14  2  0  0  0  0
 13 15  1  0  0  0  0
 12 16  1  0  0  0  0
 11 17  1  0  0  0  0
  7  9  1  0  0  0  0
 18 19  1  0  0  0  0
 19 20  1  0  0  0  0
 20 21  2  0  0  0  0
 21 22  1  0  0  0  0
 22 23  2  0  0  0  0
 23 24  1  0  0  0  0
 19 24  2  0  0  0  0
 18 25  2  0  0  0  0
 23 26  1  0  0  0  0
 22 27  1  0  0  0  0
 21 28  1  0  0  0  0
  6 18  1  0  0  0  0
 29 30  1  0  0  0  0
 30 31  1  0  0  0  0
 31 32  2  0  0  0  0
 32 33  1  0  0  0  0
 33 34  2  0  0  0  0
 34 35  1  0  0  0  0
 30 35  2  0  0  0  0
 29 36  2  0  0  0  0
 34 37  1  0  0  0  0
 33 38  1  0  0  0  0
 32 39  1  0  0  0  0
  5 29  1  0  0  0  0
 40 41  1  0  0  0  0
 41 42  1  0  0  0  0
 42 43  2  0  0  0  0
 43 44  1  0  0  0  0
 44 45  2  0  0  0  0
 45 46  1  0  0  0  0
 41 46  2  0  0  0  0
 40 47  2  0  0  0  0
 45 48  1  0  0  0  0
 44 49  1  0  0  0  0
 43 50  1  0  0  0  0
  4 40  1  0  0  0  0
 51 52  1  0  0  0  0
 52 53  1  0  0  0  0
 53 54  2  0  0  0  0
 54 55  1  0  0  0  0
 55 56  2  0  0  0  0
 56 57  1  0  0  0  0
 52 57  2  0  0  0  0
 51 58  2  0  0  0  0
 56 59  1  0  0  0  0
 55 60  1  0  0  0  0
 54 61  1  0  0  0  0
  3 51  1  0  0  0  0
 62 63  1  0  0  0  0
 63 64  1  0  0  0  0
 64 65  2  0  0  0  0
 65 66  1  0  0  0  0
 66 67  2  0  0  0  0
 67 68  1  0  0  0  0
 63 68  2  0  0  0  0
 62 69  2  0  0  0  0
 67 70  1  0  0  0  0
 66 71  1  0  0  0  0
 65 72  1  0  0  0  0
  2 62  1  0  0  0  0
  7 73  2  0  0  0  0
  6 74  1  0  0  0  0
  5 75  1  1  0  0  0
  4 76  1  6  0  0  0
  3 77  1  6  0  0  0
  2 78  1  1  0  0  0
 79 80  2  0  0  0  0
 79 81  1  0  0  0  0
 81 82  2  0  0  0  0
 82 83  1  0  0  0  0
 83 84  2  0  0  0  0
 84 85  1  0  0  0  0
 85 86  2  0  0  0  0
 86 81  1  0  0  0  0
 83 87  1  0  0  0  0
 84 88  1  0  0  0  0
 85 89  1  0  0  0  0
 79  1  1  0  0  0  0
M  END
>  <cdx:groupId>
391

>  <cdx:fragmentId>
18429

$$$$
