38916.cdx
  Mrv1902 05222410222D          

 43 46  0  0  0  0            999 V2000
    9.8841   -8.4785    0.0000 O   0  0  0  0  0  0  0  0  0  0  0  0
    8.4552  -10.9535    0.0000 O   0  0  0  0  0  0  0  0  0  0  0  0
    7.0262  -10.1285    0.0000 O   0  0  0  0  0  0  0  0  0  0  0  0
    5.5973  -10.9535    0.0000 O   0  0  0  0  0  0  0  0  0  0  0  0
    4.1683  -10.1285    0.0000 O   0  0  0  0  0  0  0  0  0  0  0  0
    3.4539   -7.2410    0.0000 O   0  0  0  0  0  0  0  0  0  0  0  0
    2.0249   -6.4160    0.0000 O   0  0  0  0  0  0  0  0  0  0  0  0
    0.5960   -7.2410    0.0000 O   0  0  0  0  0  0  0  0  0  0  0  0
    0.5960   -8.8910    0.0000 C   0  0  0  0  0  0  0  0  0  0  0  0
    1.3104   -8.4785    0.0000 C   0  0  1  0  0  0  0  0  0  0  0  0
    1.3104   -7.6535    0.0000 C   0  0  1  0  0  0  0  0  0  0  0  0
    2.0249   -7.2410    0.0000 C   0  0  2  0  0  0  0  0  0  0  0  0
    2.7394   -7.6535    0.0000 C   0  0  2  0  0  0  0  0  0  0  0  0
    2.7394   -8.4785    0.0000 C   0  0  1  0  0  0  0  0  0  0  0  0
    2.0249   -8.8910    0.0000 O   0  0  0  0  0  0  0  0  0  0  0  0
    3.4539   -8.8910    0.0000 O   0  0  0  0  0  0  0  0  0  0  0  0
    4.1683   -8.4785    0.0000 C   0  0  0  0  0  0  0  0  0  0  0  0
    4.8828   -8.8910    0.0000 C   0  0  2  0  0  0  0  0  0  0  0  0
    4.8828   -9.7160    0.0000 C   0  0  2  0  0  0  0  0  0  0  0  0
    5.5973  -10.1285    0.0000 C   0  0  1  0  0  0  0  0  0  0  0  0
    6.3117   -9.7160    0.0000 C   0  0  2  0  0  0  0  0  0  0  0  0
    6.3117   -8.8910    0.0000 C   0  0  1  0  0  0  0  0  0  0  0  0
    5.5973   -8.4785    0.0000 O   0  0  0  0  0  0  0  0  0  0  0  0
    7.0262   -8.4785    0.0000 O   0  0  0  0  0  0  0  0  0  0  0  0
    8.4552  -10.1285    0.0000 C   0  0  0  0  0  0  0  0  0  0  0  0
    7.7407   -9.7160    0.0000 C   0  0  0  0  0  0  0  0  0  0  0  0
    7.7407   -8.8910    0.0000 C   0  0  0  0  0  0  0  0  0  0  0  0
    8.4552   -8.4785    0.0000 C   0  0  0  0  0  0  0  0  0  0  0  0
    9.1696   -8.8910    0.0000 C   0  0  0  0  0  0  0  0  0  0  0  0
    9.1696   -9.7160    0.0000 C   0  0  0  0  0  0  0  0  0  0  0  0
   14.1709  -10.1285    0.0000 O   0  0  0  0  0  0  0  0  0  0  0  0
   14.8854   -8.8910    0.0000 C   0  0  0  0  0  0  0  0  0  0  0  0
   14.1709   -8.4785    0.0000 O   0  0  0  0  0  0  0  0  0  0  0  0
   12.0275   -8.8910    0.0000 C   0  0  0  0  0  0  0  0  0  0  0  0
   12.7420   -8.4785    0.0000 C   0  0  0  0  0  0  0  0  0  0  0  0
   13.4565   -8.8910    0.0000 C   0  0  0  0  0  0  0  0  0  0  0  0
   13.4565   -9.7160    0.0000 C   0  0  0  0  0  0  0  0  0  0  0  0
   12.7420  -10.1285    0.0000 C   0  0  0  0  0  0  0  0  0  0  0  0
   12.0275   -9.7160    0.0000 C   0  0  0  0  0  0  0  0  0  0  0  0
    9.8841  -10.9535    0.0000 O   0  0  0  0  0  0  0  0  0  0  0  0
   11.3130  -10.1285    0.0000 C   0  0  0  0  0  0  0  0  0  0  0  0
   10.5986   -9.7160    0.0000 C   0  0  0  0  0  0  0  0  0  0  0  0
    9.8841  -10.1285    0.0000 C   0  0  0  0  0  0  0  0  0  0  0  0
 43 30  1  0  0  0  0
 29  1  1  0  0  0  0
 25  2  1  0  0  0  0
 27 24  1  0  0  0  0
 22 24  1  1  0  0  0
 21  3  1  6  0  0  0
 20  4  1  1  0  0  0
 19  5  1  6  0  0  0
 18 17  1  1  0  0  0
 17 16  1  0  0  0  0
 14 16  1  6  0  0  0
 13  6  1  1  0  0  0
 12  7  1  1  0  0  0
 11  8  1  6  0  0  0
 10  9  1  1  0  0  0
 15 10  1  0  0  0  0
 11 10  1  0  0  0  0
 12 11  1  0  0  0  0
 13 12  1  0  0  0  0
 14 13  1  0  0  0  0
 15 14  1  0  0  0  0
 23 18  1  0  0  0  0
 19 18  1  0  0  0  0
 20 19  1  0  0  0  0
 21 20  1  0  0  0  0
 22 21  1  0  0  0  0
 23 22  1  0  0  0  0
 30 25  2  0  0  0  0
 26 25  1  0  0  0  0
 27 26  2  0  0  0  0
 28 27  1  0  0  0  0
 29 28  2  0  0  0  0
 30 29  1  0  0  0  0
 41 39  1  0  0  0  0
 37 31  1  0  0  0  0
 36 33  1  0  0  0  0
 33 32  1  0  0  0  0
 39 34  2  0  0  0  0
 35 34  1  0  0  0  0
 36 35  2  0  0  0  0
 37 36  1  0  0  0  0
 38 37  2  0  0  0  0
 39 38  1  0  0  0  0
 43 40  2  0  0  0  0
 42 41  2  0  0  0  0
 43 42  1  0  0  0  0
M  END
>  <cdx:fragmentId>
61

$$$$
