38912.cdx
  Mrv1902 05222410212D          

 28 30  0  0  0  0            999 V2000
    5.2703   -9.3967    0.0000 O   0  0  0  0  0  0  0  0  0  0  0  0
    3.8414   -6.9217    0.0000 O   0  0  0  0  0  0  0  0  0  0  0  0
   10.2716   -7.3342    0.0000 O   0  0  0  0  0  0  0  0  0  0  0  0
   10.9861   -6.0967    0.0000 C   0  0  0  0  0  0  0  0  0  0  0  0
   10.2716   -5.6842    0.0000 O   0  0  0  0  0  0  0  0  0  0  0  0
    8.1282   -6.0967    0.0000 C   0  0  0  0  0  0  0  0  0  0  0  0
    8.8427   -5.6842    0.0000 C   0  0  0  0  0  0  0  0  0  0  0  0
    9.5571   -6.0967    0.0000 C   0  0  0  0  0  0  0  0  0  0  0  0
    9.5571   -6.9217    0.0000 C   0  0  0  0  0  0  0  0  0  0  0  0
    8.8427   -7.3342    0.0000 C   0  0  0  0  0  0  0  0  0  0  0  0
    8.1282   -6.9217    0.0000 C   0  0  0  0  0  0  0  0  0  0  0  0
    6.6993   -9.3967    0.0000 O   0  0  0  0  0  0  0  0  0  0  0  0
    6.6993   -6.9217    0.0000 O   0  0  0  0  0  0  0  0  0  0  0  0
    5.9848   -7.3342    0.0000 C   0  0  0  0  0  0  0  0  0  0  0  0
    5.2703   -6.9217    0.0000 C   0  0  0  0  0  0  0  0  0  0  0  0
    4.5559   -7.3342    0.0000 C   0  0  0  0  0  0  0  0  0  0  0  0
    4.5559   -8.1592    0.0000 C   0  0  0  0  0  0  0  0  0  0  0  0
    5.2703   -8.5717    0.0000 C   0  0  0  0  0  0  0  0  0  0  0  0
    5.9848   -8.1592    0.0000 C   0  0  0  0  0  0  0  0  0  0  0  0
    6.6993   -8.5717    0.0000 C   0  0  0  0  0  0  0  0  0  0  0  0
    7.4137   -8.1592    0.0000 C   0  0  0  0  0  0  0  0  0  0  0  0
    7.4137   -7.3342    0.0000 C   0  0  1  0  0  0  0  0  0  0  0  0
    4.5559   -9.8092    0.0000 C   0  0  0  0  0  0  0  0  0  0  0  0
    3.8414   -9.3967    0.0000 C   0  0  0  0  0  0  0  0  0  0  0  0
    4.5559  -10.6342    0.0000 O   0  0  0  0  0  0  0  0  0  0  0  0
   10.2716   -8.1592    0.0000 C   0  0  0  0  0  0  0  0  0  0  0  0
    9.5571   -8.5717    0.0000 O   0  0  0  0  0  0  0  0  0  0  0  0
   10.9861   -8.5717    0.0000 C   0  0  0  0  0  0  0  0  0  0  0  0
 18  1  1  0  0  0  0
 16  2  1  0  0  0  0
 22 11  1  6  0  0  0
  9  3  1  0  0  0  0
  8  5  1  0  0  0  0
  5  4  1  0  0  0  0
 11  6  2  0  0  0  0
  7  6  1  0  0  0  0
  8  7  2  0  0  0  0
  9  8  1  0  0  0  0
 10  9  2  0  0  0  0
 11 10  1  0  0  0  0
 20 12  2  0  0  0  0
 22 13  1  0  0  0  0
 14 13  1  0  0  0  0
 19 14  2  0  0  0  0
 15 14  1  0  0  0  0
 16 15  2  0  0  0  0
 17 16  1  0  0  0  0
 18 17  2  0  0  0  0
 19 18  1  0  0  0  0
 20 19  1  0  0  0  0
 21 20  1  0  0  0  0
 22 21  1  0  0  0  0
  1 23  1  0  0  0  0
 23 24  1  0  0  0  0
 23 25  2  0  0  0  0
  3 26  1  0  0  0  0
 26 27  2  0  0  0  0
 26 28  1  0  0  0  0
M  END
>  <cdx:fragmentId>
5

$$$$
