38914.cdx
  Mrv1902 05222410232D          

 46 50  0  0  0  0            999 V2000
   11.9915   -6.6454    0.0000 O   0  0  0  0  0  0  0  0  0  0  0  0
   12.7060   -5.4079    0.0000 C   0  0  0  0  0  0  0  0  0  0  0  0
   11.9915   -4.9954    0.0000 O   0  0  0  0  0  0  0  0  0  0  0  0
    9.8481   -5.4079    0.0000 C   0  0  0  0  0  0  0  0  0  0  0  0
   10.5625   -4.9954    0.0000 C   0  0  0  0  0  0  0  0  0  0  0  0
   11.2770   -5.4079    0.0000 C   0  0  0  0  0  0  0  0  0  0  0  0
   11.2770   -6.2329    0.0000 C   0  0  0  0  0  0  0  0  0  0  0  0
   10.5625   -6.6454    0.0000 C   0  0  0  0  0  0  0  0  0  0  0  0
    9.8481   -6.2329    0.0000 C   0  0  0  0  0  0  0  0  0  0  0  0
    6.9902   -8.7079    0.0000 O   0  0  0  0  0  0  0  0  0  0  0  0
    8.4191   -8.7079    0.0000 O   0  0  0  0  0  0  0  0  0  0  0  0
    8.4191   -6.2329    0.0000 O   0  0  0  0  0  0  0  0  0  0  0  0
    7.7047   -6.6454    0.0000 C   0  0  0  0  0  0  0  0  0  0  0  0
    6.9902   -6.2329    0.0000 C   0  0  0  0  0  0  0  0  0  0  0  0
    6.2757   -6.6454    0.0000 C   0  0  0  0  0  0  0  0  0  0  0  0
    6.2757   -7.4704    0.0000 C   0  0  0  0  0  0  0  0  0  0  0  0
    6.9902   -7.8829    0.0000 C   0  0  0  0  0  0  0  0  0  0  0  0
    7.7047   -7.4704    0.0000 C   0  0  0  0  0  0  0  0  0  0  0  0
    8.4191   -7.8829    0.0000 C   0  0  0  0  0  0  0  0  0  0  0  0
    9.1336   -7.4704    0.0000 C   0  0  0  0  0  0  0  0  0  0  0  0
    9.1336   -6.6454    0.0000 C   0  0  1  0  0  0  0  0  0  0  0  0
    5.5613   -6.2329    0.0000 O   0  0  0  0  0  0  0  0  0  0  0  0
    2.7034   -7.8829    0.0000 O   0  0  0  0  0  0  0  0  0  0  0  0
    4.1323   -8.7079    0.0000 O   0  0  0  0  0  0  0  0  0  0  0  0
    5.5613   -7.8829    0.0000 O   0  0  0  0  0  0  0  0  0  0  0  0
    1.9889   -6.6454    0.0000 O   0  0  0  0  0  0  0  0  0  0  0  0
    2.7034   -5.4079    0.0000 O   0  0  0  0  0  0  0  0  0  0  0  0
    2.7034   -6.2329    0.0000 C   0  0  0  0  0  0  0  0  0  0  0  0
    4.8468   -6.6454    0.0000 C   0  0  1  0  0  0  0  0  0  0  0  0
    4.8468   -7.4704    0.0000 C   0  0  1  0  0  0  0  0  0  0  0  0
    4.1323   -7.8829    0.0000 C   0  0  2  0  0  0  0  0  0  0  0  0
    3.4178   -7.4704    0.0000 C   0  0  1  0  0  0  0  0  0  0  0  0
    3.4178   -6.6454    0.0000 C   0  0  2  0  0  0  0  0  0  0  0  0
    4.1323   -6.2329    0.0000 O   0  0  0  0  0  0  0  0  0  0  0  0
    5.7368   -9.4253    0.0000 O   0  0  0  0  0  0  0  0  0  0  0  0
    6.5618   -9.4273    0.0000 C   0  0  2  0  0  0  0  0  0  0  0  0
    6.9726  -10.1428    0.0000 C   0  0  1  0  0  0  0  0  0  0  0  0
    6.5584  -10.8563    0.0000 C   0  0  2  0  0  0  0  0  0  0  0  0
    5.7334  -10.8543    0.0000 C   0  0  1  0  0  0  0  0  0  0  0  0
    5.3226  -10.1388    0.0000 C   0  0  1  0  0  0  0  0  0  0  0  0
    5.3191  -11.5677    0.0000 O   0  0  0  0  0  0  0  0  0  0  0  0
    6.9691  -11.5717    0.0000 O   0  0  0  0  0  0  0  0  0  0  0  0
    7.7976  -10.1448    0.0000 O   0  0  0  0  0  0  0  0  0  0  0  0
    4.4976  -10.1368    0.0000 C   0  0  0  0  0  0  0  0  0  0  0  0
    4.0834  -10.8503    0.0000 O   0  0  0  0  0  0  0  0  0  0  0  0
    4.0868   -9.4213    0.0000 O   0  0  0  0  0  0  0  0  0  0  0  0
 29 22  1  1  0  0  0
 22 15  1  0  0  0  0
 21  9  1  6  0  0  0
  7  1  1  0  0  0  0
  6  3  1  0  0  0  0
  3  2  1  0  0  0  0
  9  4  2  0  0  0  0
  5  4  1  0  0  0  0
  6  5  2  0  0  0  0
  7  6  1  0  0  0  0
  8  7  2  0  0  0  0
  9  8  1  0  0  0  0
 17 10  1  0  0  0  0
 19 11  2  0  0  0  0
 21 12  1  0  0  0  0
 13 12  1  0  0  0  0
 18 13  2  0  0  0  0
 14 13  1  0  0  0  0
 15 14  2  0  0  0  0
 16 15  1  0  0  0  0
 17 16  2  0  0  0  0
 18 17  1  0  0  0  0
 19 18  1  0  0  0  0
 20 19  1  0  0  0  0
 21 20  1  0  0  0  0
 32 23  1  6  0  0  0
 31 24  1  1  0  0  0
 30 25  1  6  0  0  0
 33 28  1  1  0  0  0
 28 26  1  0  0  0  0
 28 27  2  0  0  0  0
 34 29  1  0  0  0  0
 30 29  1  0  0  0  0
 31 30  1  0  0  0  0
 32 31  1  0  0  0  0
 33 32  1  0  0  0  0
 34 33  1  0  0  0  0
 35 36  1  0  0  0  0
 36 37  1  0  0  0  0
 37 38  1  0  0  0  0
 38 39  1  0  0  0  0
 39 40  1  0  0  0  0
 35 40  1  0  0  0  0
 39 41  1  6  0  0  0
 38 42  1  1  0  0  0
 37 43  1  6  0  0  0
 44 45  2  0  0  0  0
 44 46  1  0  0  0  0
 40 44  1  1  0  0  0
 36 10  1  1  0  0  0
M  END
>  <cdx:fragmentId>
73

$$$$
