38915.cdx
  Mrv1902 05222410232D          

 35 37  0  0  0  0            999 V2000
   10.3978  -10.3760    0.0000 O   0  0  0  0  0  0  0  0  0  0  0  0
   15.3991   -8.3135    0.0000 O   0  0  0  0  0  0  0  0  0  0  0  0
   16.1136   -7.0760    0.0000 C   0  0  0  0  0  0  0  0  0  0  0  0
   15.3991   -6.6635    0.0000 O   0  0  0  0  0  0  0  0  0  0  0  0
   13.2557   -7.0760    0.0000 C   0  0  0  0  0  0  0  0  0  0  0  0
   13.9702   -6.6635    0.0000 C   0  0  0  0  0  0  0  0  0  0  0  0
   14.6846   -7.0760    0.0000 C   0  0  0  0  0  0  0  0  0  0  0  0
   14.6846   -7.9010    0.0000 C   0  0  0  0  0  0  0  0  0  0  0  0
   13.9702   -8.3135    0.0000 C   0  0  0  0  0  0  0  0  0  0  0  0
   13.2557   -7.9010    0.0000 C   0  0  0  0  0  0  0  0  0  0  0  0
   11.8268  -10.3760    0.0000 O   0  0  0  0  0  0  0  0  0  0  0  0
   11.8268   -7.9010    0.0000 O   0  0  0  0  0  0  0  0  0  0  0  0
   11.1123   -8.3135    0.0000 C   0  0  0  0  0  0  0  0  0  0  0  0
   10.3978   -7.9010    0.0000 C   0  0  0  0  0  0  0  0  0  0  0  0
    9.6833   -8.3135    0.0000 C   0  0  0  0  0  0  0  0  0  0  0  0
    9.6833   -9.1385    0.0000 C   0  0  0  0  0  0  0  0  0  0  0  0
   10.3978   -9.5510    0.0000 C   0  0  0  0  0  0  0  0  0  0  0  0
   11.1123   -9.1385    0.0000 C   0  0  0  0  0  0  0  0  0  0  0  0
   11.8268   -9.5510    0.0000 C   0  0  0  0  0  0  0  0  0  0  0  0
   12.5412   -9.1385    0.0000 C   0  0  0  0  0  0  0  0  0  0  0  0
   12.5412   -8.3135    0.0000 C   0  0  1  0  0  0  0  0  0  0  0  0
    8.9689   -7.9010    0.0000 O   0  0  0  0  0  0  0  0  0  0  0  0
    8.2544   -9.1385    0.0000 O   0  0  0  0  0  0  0  0  0  0  0  0
    0.3952   -7.9010    0.0000 C   0  0  0  0  0  0  0  0  0  0  0  0
    1.1097   -8.3135    0.0000 C   0  0  0  0  0  0  0  0  0  0  0  0
    1.8242   -7.9010    0.0000 C   0  0  0  0  0  0  0  0  0  0  0  0
    2.5386   -8.3135    0.0000 C   0  0  0  0  0  0  0  0  0  0  0  0
    3.2531   -7.9010    0.0000 C   0  0  0  0  0  0  0  0  0  0  0  0
    3.9676   -8.3135    0.0000 C   0  0  0  0  0  0  0  0  0  0  0  0
    4.6820   -7.9010    0.0000 C   0  0  0  0  0  0  0  0  0  0  0  0
    5.3965   -8.3135    0.0000 C   0  0  0  0  0  0  0  0  0  0  0  0
    6.1110   -7.9010    0.0000 C   0  0  0  0  0  0  0  0  0  0  0  0
    6.8255   -8.3135    0.0000 C   0  0  0  0  0  0  0  0  0  0  0  0
    7.5399   -7.9010    0.0000 C   0  0  0  0  0  0  0  0  0  0  0  0
    8.2544   -8.3135    0.0000 C   0  0  0  0  0  0  0  0  0  0  0  0
 22 15  1  0  0  0  0
 17  1  1  0  0  0  0
 21 10  1  6  0  0  0
  8  2  1  0  0  0  0
  7  4  1  0  0  0  0
  4  3  1  0  0  0  0
 10  5  2  0  0  0  0
  6  5  1  0  0  0  0
  7  6  2  0  0  0  0
  8  7  1  0  0  0  0
  9  8  2  0  0  0  0
 10  9  1  0  0  0  0
 19 11  2  0  0  0  0
 21 12  1  0  0  0  0
 13 12  1  0  0  0  0
 18 13  2  0  0  0  0
 14 13  1  0  0  0  0
 15 14  2  0  0  0  0
 16 15  1  0  0  0  0
 17 16  2  0  0  0  0
 18 17  1  0  0  0  0
 19 18  1  0  0  0  0
 20 19  1  0  0  0  0
 21 20  1  0  0  0  0
 35 22  1  0  0  0  0
 35 23  2  0  0  0  0
 25 24  1  0  0  0  0
 26 25  1  0  0  0  0
 27 26  1  0  0  0  0
 28 27  1  0  0  0  0
 29 28  1  0  0  0  0
 30 29  1  0  0  0  0
 31 30  1  0  0  0  0
 32 31  1  0  0  0  0
 33 32  1  0  0  0  0
 34 33  1  0  0  0  0
 35 34  1  0  0  0  0
M  END
>  <cdx:fragmentId>
33

$$$$
