38910.cdx
  Mrv1902 05222410212D          

 34 37  0  0  0  0            999 V2000
    5.5324   -5.6512    0.0000 C   0  0  0  0  0  0  0  0  0  0  0  0
    5.5324   -6.4763    0.0000 C   0  0  0  0  0  0  0  0  0  0  0  0
    6.2469   -6.8888    0.0000 C   0  0  0  0  0  0  0  0  0  0  0  0
    6.9614   -6.4763    0.0000 C   0  0  0  0  0  0  0  0  0  0  0  0
    6.9614   -5.6512    0.0000 C   0  0  0  0  0  0  0  0  0  0  0  0
    6.2469   -5.2387    0.0000 C   0  0  0  0  0  0  0  0  0  0  0  0
    7.6758   -6.8888    0.0000 C   0  0  0  0  0  0  0  0  0  0  0  0
    8.3903   -6.4763    0.0000 C   0  0  0  0  0  0  0  0  0  0  0  0
    8.3903   -5.6512    0.0000 C   0  0  0  0  0  0  0  0  0  0  0  0
    7.6758   -5.2387    0.0000 O   0  0  0  0  0  0  0  0  0  0  0  0
    9.1048   -6.8888    0.0000 O   0  0  0  0  0  0  0  0  0  0  0  0
    9.8193   -5.6512    0.0000 C   0  0  0  0  0  0  0  0  0  0  0  0
    9.1048   -5.2387    0.0000 C   0  0  0  0  0  0  0  0  0  0  0  0
   10.5337   -5.2387    0.0000 C   0  0  0  0  0  0  0  0  0  0  0  0
   10.5337   -4.4138    0.0000 C   0  0  0  0  0  0  0  0  0  0  0  0
    9.8193   -4.0012    0.0000 C   0  0  0  0  0  0  0  0  0  0  0  0
    9.1048   -4.4138    0.0000 C   0  0  0  0  0  0  0  0  0  0  0  0
    7.6758   -7.7138    0.0000 O   0  0  0  0  0  0  0  0  0  0  0  0
    8.3903   -8.1262    0.0000 O   0  0  0  0  0  0  0  0  0  0  0  0
    9.1048   -7.7138    0.0000 C   0  0  2  0  0  0  0  0  0  0  0  0
    8.3903   -8.9512    0.0000 C   0  0  1  0  0  0  0  0  0  0  0  0
    9.1048   -9.3637    0.0000 C   0  0  2  0  0  0  0  0  0  0  0  0
    9.8193   -8.9512    0.0000 C   0  0  1  0  0  0  0  0  0  0  0  0
    9.8193   -8.1262    0.0000 C   0  0  1  0  0  0  0  0  0  0  0  0
    7.6758  -10.1887    0.0000 O   0  0  0  0  0  0  0  0  0  0  0  0
    7.6758   -9.3637    0.0000 C   0  0  0  0  0  0  0  0  0  0  0  0
    6.2469   -4.4138    0.0000 O   0  0  0  0  0  0  0  0  0  0  0  0
    6.2469   -7.7138    0.0000 O   0  0  0  0  0  0  0  0  0  0  0  0
   11.2482   -4.0012    0.0000 O   0  0  0  0  0  0  0  0  0  0  0  0
   10.5337   -9.3637    0.0000 O   0  0  0  0  0  0  0  0  0  0  0  0
    9.1048  -10.1887    0.0000 O   0  0  0  0  0  0  0  0  0  0  0  0
   10.5337   -7.7137    0.0000 O   0  0  0  0  0  0  0  0  0  0  0  0
    5.5324   -4.0012    0.0000 C   0  0  0  0  0  0  0  0  0  0  0  0
    4.8180   -5.2387    0.0000 O   0  0  0  0  0  0  0  0  0  0  0  0
  1  2  2  0  0  0  0
  2  3  1  0  0  0  0
  3  4  2  0  0  0  0
  4  5  1  0  0  0  0
  5  6  2  0  0  0  0
  6  1  1  0  0  0  0
  4  7  1  0  0  0  0
  7  8  1  0  0  0  0
  8  9  2  0  0  0  0
  9 10  1  0  0  0  0
 10  5  1  0  0  0  0
  8 11  1  0  0  0  0
 12 13  2  0  0  0  0
 13  9  1  0  0  0  0
 12 14  1  0  0  0  0
 14 15  2  0  0  0  0
 15 16  1  0  0  0  0
 16 17  2  0  0  0  0
 17 13  1  0  0  0  0
  7 18  2  0  0  0  0
 19 20  1  0  0  0  0
 20 11  1  1  0  0  0
 19 21  1  0  0  0  0
 21 22  1  0  0  0  0
 22 23  1  0  0  0  0
 23 24  1  0  0  0  0
 24 20  1  0  0  0  0
 25 26  1  0  0  0  0
 21 26  1  1  0  0  0
  6 27  1  0  0  0  0
  3 28  1  0  0  0  0
 15 29  1  0  0  0  0
 23 30  1  1  0  0  0
 22 31  1  6  0  0  0
 24 32  1  6  0  0  0
 27 33  1  0  0  0  0
  1 34  1  0  0  0  0
M  END
>  <cdx:fragmentId>
5

$$$$
