38928.cdx
  Mrv1902 05222410232D          

119131  0  0  0  0            999 V2000
   11.5230   -5.8850    0.0000 C   0  0  0  0  0  0  0  0  0  0  0  0
   11.5230   -6.7100    0.0000 C   0  0  1  0  0  0  0  0  0  0  0  0
   12.2375   -7.1225    0.0000 C   0  0  1  0  0  0  0  0  0  0  0  0
   12.9519   -6.7100    0.0000 C   0  0  1  0  0  0  0  0  0  0  0  0
   12.9519   -5.8850    0.0000 C   0  0  2  0  0  0  0  0  0  0  0  0
   12.2375   -5.4725    0.0000 C   0  0  0  0  0  0  0  0  0  0  0  0
   13.6664   -7.1225    0.0000 C   0  0  0  0  0  0  0  0  0  0  0  0
   14.3808   -6.7100    0.0000 C   0  0  0  0  0  0  0  0  0  0  0  0
   14.3808   -5.8850    0.0000 C   0  0  2  0  0  0  0  0  0  0  0  0
   13.6664   -5.4725    0.0000 C   0  0  2  0  0  0  0  0  0  0  0  0
   15.0953   -5.4725    0.0000 C   0  0  1  0  0  0  0  0  0  0  0  0
   15.0953   -4.6475    0.0000 C   0  0  0  0  0  0  0  0  0  0  0  0
   14.3808   -4.2350    0.0000 C   0  0  0  0  0  0  0  0  0  0  0  0
   13.6664   -4.6475    0.0000 C   0  0  0  0  0  0  0  0  0  0  0  0
   15.8097   -5.8850    0.0000 C   0  0  0  0  0  0  0  0  0  0  0  0
   16.5242   -5.4725    0.0000 C   0  0  0  0  0  0  0  0  0  0  0  0
   16.5242   -4.6475    0.0000 C   0  0  2  0  0  0  0  0  0  0  0  0
   15.8097   -4.2350    0.0000 C   0  0  1  0  0  0  0  0  0  0  0  0
   17.2389   -4.2350    0.0000 C   0  0  0  0  0  0  0  0  0  0  0  0
   17.2389   -3.4100    0.0000 C   0  0  0  0  0  0  0  0  0  0  0  0
   16.5242   -2.9975    0.0000 C   0  0  0  0  0  0  0  0  0  0  0  0
   15.8097   -3.4100    0.0000 C   0  0  0  0  0  0  0  0  0  0  0  0
   16.1117   -2.2830    0.0000 C   0  0  0  0  0  0  0  0  0  0  0  0
   16.9367   -2.2830    0.0000 C   0  0  0  0  0  0  0  0  0  0  0  0
   15.8097   -5.0600    0.0000 H   0  0  0  0  0  0  0  0  0  0  0  0
   15.0953   -6.2975    0.0000 C   0  0  0  0  0  0  0  0  0  0  0  0
   14.3808   -5.0600    0.0000 C   0  0  0  0  0  0  0  0  0  0  0  0
   13.6664   -6.2975    0.0000 H   0  0  0  0  0  0  0  0  0  0  0  0
   12.9519   -5.0600    0.0000 C   0  0  0  0  0  0  0  0  0  0  0  0
   12.9519   -7.5350    0.0000 H   0  0  0  0  0  0  0  0  0  0  0  0
   11.8250   -7.8369    0.0000 C   0  0  0  0  0  0  0  0  0  0  0  0
   12.6500   -7.8369    0.0000 C   0  0  0  0  0  0  0  0  0  0  0  0
   10.8086   -7.1225    0.0000 O   0  0  0  0  0  0  0  0  0  0  0  0
   17.2389   -5.0600    0.0000 C   0  0  0  0  0  0  0  0  0  0  0  0
   12.2375   -8.5514    0.0000 O   0  0  0  0  0  0  0  0  0  0  0  0
   17.9534   -4.6475    0.0000 O   0  0  0  0  0  0  0  0  0  0  0  0
   17.2389   -5.8850    0.0000 O   0  0  0  0  0  0  0  0  0  0  0  0
   18.6678   -5.0600    0.0000 C   0  0  2  0  0  0  0  0  0  0  0  0
   18.6678   -5.8850    0.0000 O   0  0  0  0  0  0  0  0  0  0  0  0
   19.3823   -6.2975    0.0000 C   0  0  1  0  0  0  0  0  0  0  0  0
   20.0967   -5.8850    0.0000 C   0  0  2  0  0  0  0  0  0  0  0  0
   20.0967   -5.0600    0.0000 C   0  0  1  0  0  0  0  0  0  0  0  0
   19.3823   -4.6475    0.0000 C   0  0  1  0  0  0  0  0  0  0  0  0
   19.3823   -7.1225    0.0000 C   0  0  0  0  0  0  0  0  0  0  0  0
   20.8112   -4.6475    0.0000 O   0  0  0  0  0  0  0  0  0  0  0  0
   19.3823   -3.8225    0.0000 O   0  0  0  0  0  0  0  0  0  0  0  0
   20.8112   -6.2975    0.0000 O   0  0  0  0  0  0  0  0  0  0  0  0
   20.0967   -7.5350    0.0000 O   0  0  0  0  0  0  0  0  0  0  0  0
   10.0941   -6.7100    0.0000 C   0  0  2  0  0  0  0  0  0  0  0  0
   10.0941   -5.8850    0.0000 O   0  0  0  0  0  0  0  0  0  0  0  0
    9.3797   -5.4725    0.0000 C   0  0  0  0  0  0  0  0  0  0  0  0
    8.6652   -5.8850    0.0000 C   0  0  1  0  0  0  0  0  0  0  0  0
    8.6652   -6.7100    0.0000 C   0  0  1  0  0  0  0  0  0  0  0  0
    9.3797   -7.1225    0.0000 C   0  0  1  0  0  0  0  0  0  0  0  0
    9.3797   -7.9475    0.0000 O   0  0  0  0  0  0  0  0  0  0  0  0
    7.9508   -7.1225    0.0000 O   0  0  0  0  0  0  0  0  0  0  0  0
    7.9508   -5.4725    0.0000 O   0  0  0  0  0  0  0  0  0  0  0  0
    8.6652   -8.3600    0.0000 C   0  0  2  0  0  0  0  0  0  0  0  0
    7.9508   -7.9475    0.0000 O   0  0  0  0  0  0  0  0  0  0  0  0
    7.2363   -8.3600    0.0000 C   0  0  2  0  0  0  0  0  0  0  0  0
    7.2363   -9.1850    0.0000 C   0  0  1  0  0  0  0  0  0  0  0  0
    7.9508   -9.5975    0.0000 C   0  0  2  0  0  0  0  0  0  0  0  0
    8.6652   -9.1850    0.0000 C   0  0  1  0  0  0  0  0  0  0  0  0
    6.5218   -9.5975    0.0000 O   0  0  0  0  0  0  0  0  0  0  0  0
    7.9508  -10.4225    0.0000 O   0  0  0  0  0  0  0  0  0  0  0  0
    9.3797   -9.5975    0.0000 O   0  0  0  0  0  0  0  0  0  0  0  0
    6.5218   -7.9475    0.0000 C   0  0  0  0  0  0  0  0  0  0  0  0
    7.2363  -10.8350    0.0000 C   0  0  2  0  0  0  0  0  0  0  0  0
    6.5218  -10.4225    0.0000 O   0  0  0  0  0  0  0  0  0  0  0  0
    5.8073  -10.8350    0.0000 C   0  0  1  0  0  0  0  0  0  0  0  0
    5.8073  -11.6600    0.0000 C   0  0  2  0  0  0  0  0  0  0  0  0
    6.5218  -12.0725    0.0000 C   0  0  1  0  0  0  0  0  0  0  0  0
    7.2363  -11.6600    0.0000 C   0  0  1  0  0  0  0  0  0  0  0  0
    5.0929  -10.4225    0.0000 C   0  0  0  0  0  0  0  0  0  0  0  0
    6.5218  -12.8975    0.0000 O   0  0  0  0  0  0  0  0  0  0  0  0
    7.9508  -12.0725    0.0000 O   0  0  0  0  0  0  0  0  0  0  0  0
    5.0929  -12.0725    0.0000 O   0  0  0  0  0  0  0  0  0  0  0  0
    4.3784  -10.8350    0.0000 O   0  0  0  0  0  0  0  0  0  0  0  0
    6.9262  -13.6166    0.0000 C   0  0  2  0  0  0  0  0  0  0  0  0
    6.5056  -14.3263    0.0000 O   0  0  0  0  0  0  0  0  0  0  0  0
    6.9099  -15.0455    0.0000 C   0  0  2  0  0  0  0  0  0  0  0  0
    7.7349  -15.0548    0.0000 C   0  0  1  0  0  0  0  0  0  0  0  0
    8.1555  -14.3451    0.0000 C   0  0  2  0  0  0  0  0  0  0  0  0
    7.7511  -13.6260    0.0000 C   0  0  1  0  0  0  0  0  0  0  0  0
    8.1392  -15.7740    0.0000 O   0  0  0  0  0  0  0  0  0  0  0  0
    8.9804  -14.3545    0.0000 O   0  0  0  0  0  0  0  0  0  0  0  0
    6.4893  -15.7552    0.0000 C   0  0  0  0  0  0  0  0  0  0  0  0
    4.6666  -12.7789    0.0000 C   0  0  2  0  0  0  0  0  0  0  0  0
    3.8418  -12.7629    0.0000 O   0  0  0  0  0  0  0  0  0  0  0  0
    3.4155  -13.4692    0.0000 C   0  0  1  0  0  0  0  0  0  0  0  0
    3.8141  -14.1916    0.0000 C   0  0  2  0  0  0  0  0  0  0  0  0
    4.6390  -14.2075    0.0000 C   0  0  1  0  0  0  0  0  0  0  0  0
    5.0652  -13.5012    0.0000 C   0  0  1  0  0  0  0  0  0  0  0  0
    2.5907  -13.4533    0.0000 C   0  0  0  0  0  0  0  0  0  0  0  0
    5.0376  -14.9298    0.0000 O   0  0  0  0  0  0  0  0  0  0  0  0
    3.3879  -14.8979    0.0000 O   0  0  0  0  0  0  0  0  0  0  0  0
    2.1644  -14.1596    0.0000 O   0  0  0  0  0  0  0  0  0  0  0  0
    8.1717  -12.9163    0.0000 O   0  0  0  0  0  0  0  0  0  0  0  0
    5.8901  -13.5171    0.0000 O   0  0  0  0  0  0  0  0  0  0  0  0
   20.0967   -8.3600    0.0000 C   0  0  2  0  0  0  0  0  0  0  0  0
   19.3822   -8.7725    0.0000 O   0  0  0  0  0  0  0  0  0  0  0  0
   19.3822   -9.5975    0.0000 C   0  0  1  0  0  0  0  0  0  0  0  0
   20.0967  -10.0100    0.0000 C   0  0  2  0  0  0  0  0  0  0  0  0
   20.8112   -9.5975    0.0000 C   0  0  1  0  0  0  0  0  0  0  0  0
   20.8112   -8.7725    0.0000 C   0  0  1  0  0  0  0  0  0  0  0  0
   18.6678  -10.0100    0.0000 C   0  0  0  0  0  0  0  0  0  0  0  0
   18.6678  -10.8350    0.0000 O   0  0  0  0  0  0  0  0  0  0  0  0
   21.5257  -10.0100    0.0000 O   0  0  0  0  0  0  0  0  0  0  0  0
   20.0967  -10.8350    0.0000 O   0  0  0  0  0  0  0  0  0  0  0  0
   21.5257   -8.3600    0.0000 O   0  0  0  0  0  0  0  0  0  0  0  0
    3.3991  -15.7228    0.0000 C   0  0  2  0  0  0  0  0  0  0  0  0
    2.6903  -16.1450    0.0000 O   0  0  0  0  0  0  0  0  0  0  0  0
    2.7015  -16.9699    0.0000 C   0  0  0  0  0  0  0  0  0  0  0  0
    3.4215  -17.3727    0.0000 C   0  0  2  0  0  0  0  0  0  0  0  0
    4.1303  -16.9505    0.0000 C   0  0  1  0  0  0  0  0  0  0  0  0
    4.1191  -16.1256    0.0000 C   0  0  1  0  0  0  0  0  0  0  0  0
    4.8279  -15.7034    0.0000 O   0  0  0  0  0  0  0  0  0  0  0  0
    4.8503  -17.3533    0.0000 O   0  0  0  0  0  0  0  0  0  0  0  0
    3.4327  -18.1976    0.0000 O   0  0  0  0  0  0  0  0  0  0  0  0
  1  2  1  0  0  0  0
  2  3  1  0  0  0  0
  3  4  1  0  0  0  0
  4  5  1  0  0  0  0
  5  6  1  0  0  0  0
  6  1  1  0  0  0  0
  4  7  1  0  0  0  0
  7  8  1  0  0  0  0
  8  9  1  0  0  0  0
  9 10  1  0  0  0  0
 10  5  1  0  0  0  0
  9 11  1  0  0  0  0
 11 12  1  0  0  0  0
 12 13  2  0  0  0  0
 13 14  1  0  0  0  0
 14 10  1  0  0  0  0
 11 15  1  0  0  0  0
 15 16  1  0  0  0  0
 16 17  1  0  0  0  0
 17 18  1  0  0  0  0
 18 12  1  0  0  0  0
 17 19  1  0  0  0  0
 19 20  1  0  0  0  0
 20 21  1  0  0  0  0
 21 22  1  0  0  0  0
 22 18  1  0  0  0  0
 21 23  1  0  0  0  0
 21 24  1  0  0  0  0
 18 25  1  1  0  0  0
 11 26  1  6  0  0  0
  9 27  1  1  0  0  0
 10 28  1  6  0  0  0
  5 29  1  1  0  0  0
  4 30  1  6  0  0  0
  3 31  1  1  0  0  0
  3 32  1  6  0  0  0
  2 33  1  1  0  0  0
 17 34  1  1  0  0  0
 32 35  1  0  0  0  0
 34 36  1  0  0  0  0
 34 37  2  0  0  0  0
 38 36  1  1  0  0  0
 38 39  1  0  0  0  0
 39 40  1  0  0  0  0
 40 41  1  0  0  0  0
 41 42  1  0  0  0  0
 42 43  1  0  0  0  0
 43 38  1  0  0  0  0
 40 44  1  1  0  0  0
 42 45  1  1  0  0  0
 43 46  1  6  0  0  0
 41 47  1  6  0  0  0
 44 48  1  0  0  0  0
 49 33  1  1  0  0  0
 49 50  1  0  0  0  0
 50 51  1  0  0  0  0
 51 52  1  0  0  0  0
 52 53  1  0  0  0  0
 53 54  1  0  0  0  0
 54 49  1  0  0  0  0
 54 55  1  6  0  0  0
 53 56  1  1  0  0  0
 52 57  1  1  0  0  0
 58 55  1  1  0  0  0
 58 59  1  0  0  0  0
 59 60  1  0  0  0  0
 60 61  1  0  0  0  0
 61 62  1  0  0  0  0
 62 63  1  0  0  0  0
 63 58  1  0  0  0  0
 61 64  1  1  0  0  0
 62 65  1  6  0  0  0
 63 66  1  6  0  0  0
 60 67  1  6  0  0  0
 68 65  1  1  0  0  0
 68 69  1  0  0  0  0
 69 70  1  0  0  0  0
 70 71  1  0  0  0  0
 71 72  1  0  0  0  0
 72 73  1  0  0  0  0
 73 68  1  0  0  0  0
 70 74  1  1  0  0  0
 72 75  1  1  0  0  0
 73 76  1  6  0  0  0
 71 77  1  6  0  0  0
 74 78  1  0  0  0  0
 79 75  1  1  0  0  0
 79 80  1  0  0  0  0
 80 81  1  0  0  0  0
 81 82  1  0  0  0  0
 82 83  1  0  0  0  0
 83 84  1  0  0  0  0
 84 79  1  0  0  0  0
 82 85  1  1  0  0  0
 83 86  1  6  0  0  0
 81 87  1  6  0  0  0
 88 77  1  1  0  0  0
 88 89  1  0  0  0  0
 89 90  1  0  0  0  0
 90 91  1  0  0  0  0
 91 92  1  0  0  0  0
 92 93  1  0  0  0  0
 93 88  1  0  0  0  0
 90 94  1  1  0  0  0
 92 95  1  1  0  0  0
 91 96  1  6  0  0  0
 94 97  1  0  0  0  0
 84 98  1  6  0  0  0
 93 99  1  6  0  0  0
100 48  1  1  0  0  0
100101  1  0  0  0  0
101102  1  0  0  0  0
102103  1  0  0  0  0
103104  1  0  0  0  0
104105  1  0  0  0  0
105100  1  0  0  0  0
102106  1  1  0  0  0
106107  1  0  0  0  0
104108  1  1  0  0  0
103109  1  6  0  0  0
105110  1  6  0  0  0
111 96  1  1  0  0  0
111112  1  0  0  0  0
112113  1  0  0  0  0
113114  1  0  0  0  0
114115  1  0  0  0  0
115116  1  0  0  0  0
116111  1  0  0  0  0
116117  1  6  0  0  0
115118  1  1  0  0  0
114119  1  6  0  0  0
M  END
>  <cdx:fragmentId>
5

$$$$
