3892.cdx
  Mrv1902 05222410262D          

 12 11  0  0  0  0            999 V2000
    9.5837   -5.7543    0.0000 C   0  0  0  0  0  0  0  0  0  0  0  0
    8.8692   -6.9918    0.0000 N   0  0  0  0  0  0  0  0  0  0  0  0
    8.8692   -6.1668    0.0000 C   0  0  1  0  0  0  0  0  0  0  0  0
    8.1547   -5.7543    0.0000 C   0  0  0  0  0  0  0  0  0  0  0  0
    7.4403   -6.1668    0.0000 C   0  0  0  0  0  0  0  0  0  0  0  0
    6.7258   -5.7543    0.0000 O   0  0  0  0  0  0  0  0  0  0  0  0
    6.0113   -6.1668    0.0000 N   0  0  0  0  0  0  0  0  0  0  0  0
    5.2969   -5.7543    0.0000 C   0  0  0  0  0  0  0  0  0  0  0  0
    5.2969   -4.9293    0.0000 N   0  0  0  0  0  0  0  0  0  0  0  0
    4.5824   -6.1668    0.0000 N   0  0  0  0  0  0  0  0  0  0  0  0
    9.5837   -4.9293    0.0000 O   0  0  0  0  0  0  0  0  0  0  0  0
   10.2982   -6.1668    0.0000 O   0  0  0  0  0  0  0  0  0  0  0  0
  3  2  1  1  0  0  0
  1  3  1  0  0  0  0
  3  4  1  0  0  0  0
  4  5  1  0  0  0  0
  5  6  1  0  0  0  0
  6  7  1  0  0  0  0
  7  8  1  0  0  0  0
  8  9  2  0  0  0  0
  8 10  1  0  0  0  0
  1 11  2  0  0  0  0
  1 12  1  0  0  0  0
M  END
>  <cdx:fragmentId>
3414

$$$$
