3893.cdx
  Mrv1902 05222410262D          

 14 13  0  0  0  0            999 V2000
    9.1772   -2.5652    0.0000 C   0  0  0  0  0  0  0  0  0  0  0  0
    8.4628   -2.9777    0.0000 C   0  0  0  0  0  0  0  0  0  0  0  0
    7.7483   -2.5652    0.0000 C   0  0  0  0  0  0  0  0  0  0  0  0
    7.0338   -2.9777    0.0000 C   0  0  0  0  0  0  0  0  0  0  0  0
    6.3194   -2.5652    0.0000 C   0  0  0  0  0  0  0  0  0  0  0  0
    5.6049   -2.9777    0.0000 C   0  0  0  0  0  0  0  0  0  0  0  0
    4.8904   -2.5652    0.0000 C   0  0  0  0  0  0  0  0  0  0  0  0
    4.1759   -2.9777    0.0000 C   0  0  0  0  0  0  0  0  0  0  0  0
    3.4615   -2.5652    0.0000 C   0  0  0  0  0  0  0  0  0  0  0  0
    2.7470   -2.9777    0.0000 C   0  0  0  0  0  0  0  0  0  0  0  0
    2.0325   -2.5652    0.0000 C   0  0  0  0  0  0  0  0  0  0  0  0
    1.3181   -2.9777    0.0000 C   0  0  0  0  0  0  0  0  0  0  0  0
    9.1772   -1.7402    0.0000 O   0  0  0  0  0  0  0  0  0  0  0  0
    9.8917   -2.9777    0.0000 O   0  0  0  0  0  0  0  0  0  0  0  0
  1  2  1  0  0  0  0
  2  3  1  0  0  0  0
  3  4  1  0  0  0  0
  4  5  1  0  0  0  0
  5  6  1  0  0  0  0
  6  7  1  0  0  0  0
  7  8  1  0  0  0  0
  8  9  1  0  0  0  0
  9 10  1  0  0  0  0
 10 11  1  0  0  0  0
 11 12  1  0  0  0  0
  1 13  2  0  0  0  0
  1 14  1  0  0  0  0
M  END
>  <cdx:groupId>
43

>  <cdx:fragmentId>
5

$$$$
