389907.cdx
  Mrv1902 05222410212D          

 43 48  0  0  0  0            999 V2000
    8.5547   -7.8507    0.0000 C   0  0  2  0  0  0  0  0  0  0  0  0
    7.8402   -7.4382    0.0000 O   0  0  0  0  0  0  0  0  0  0  0  0
    7.1258   -7.8507    0.0000 C   0  0  0  0  0  0  0  0  0  0  0  0
    6.4113   -7.4382    0.0000 C   0  0  0  0  0  0  0  0  0  0  0  0
    5.6968   -7.8507    0.0000 C   0  0  0  0  0  0  0  0  0  0  0  0
    4.9823   -7.4382    0.0000 O   0  0  0  0  0  0  0  0  0  0  0  0
    4.2679   -7.8507    0.0000 C   0  0  0  0  0  0  0  0  0  0  0  0
    4.2679   -8.6757    0.0000 C   0  0  0  0  0  0  0  0  0  0  0  0
    4.9823   -9.0882    0.0000 C   0  0  0  0  0  0  0  0  0  0  0  0
    5.6968   -8.6757    0.0000 C   0  0  0  0  0  0  0  0  0  0  0  0
    6.4113   -9.0882    0.0000 C   0  0  0  0  0  0  0  0  0  0  0  0
    7.1258   -8.6757    0.0000 C   0  0  0  0  0  0  0  0  0  0  0  0
    7.8402   -9.0882    0.0000 C   0  0  0  0  0  0  0  0  0  0  0  0
    8.5547   -8.6757    0.0000 C   0  0  0  0  0  0  0  0  0  0  0  0
    9.2692   -9.0882    0.0000 C   0  0  0  0  0  0  0  0  0  0  0  0
    9.9836   -8.6757    0.0000 C   0  0  2  0  0  0  0  0  0  0  0  0
    9.9836   -7.8507    0.0000 C   0  0  0  0  0  0  0  0  0  0  0  0
    9.2692   -7.4382    0.0000 C   0  0  1  0  0  0  0  0  0  0  0  0
    7.8402   -9.9132    0.0000 O   0  0  0  0  0  0  0  0  0  0  0  0
    6.4113   -6.6132    0.0000 C   0  0  0  0  0  0  0  0  0  0  0  0
    5.6968   -6.2007    0.0000 C   0  0  0  0  0  0  0  0  0  0  0  0
    5.6968   -5.3757    0.0000 C   0  0  0  0  0  0  0  0  0  0  0  0
    6.4113   -4.9632    0.0000 C   0  0  0  0  0  0  0  0  0  0  0  0
    4.9823   -4.9632    0.0000 C   0  0  0  0  0  0  0  0  0  0  0  0
    3.4429   -7.8507    0.0000 C   0  0  0  0  0  0  0  0  0  0  0  0
    3.6845   -7.2673    0.0000 C   0  0  0  0  0  0  0  0  0  0  0  0
    6.4113   -9.9132    0.0000 O   0  0  0  0  0  0  0  0  0  0  0  0
   10.6981   -9.0882    0.0000 H   0  0  0  0  0  0  0  0  0  0  0  0
    9.2950   -6.8200    0.0000 C   0  0  2  0  0  0  0  0  0  0  0  0
   10.5875   -7.5350    0.0000 C   0  0  0  0  0  0  0  0  0  0  0  0
   11.3808   -7.3087    0.0000 O   0  0  0  0  0  0  0  0  0  0  0  0
    9.7900   -6.1875    0.0000 O   0  0  0  0  0  0  0  0  0  0  0  0
   10.3125   -6.7925    0.0000 C   0  0  0  0  0  0  0  0  0  0  0  0
   11.1375   -6.7925    0.0000 C   0  0  0  0  0  0  0  0  0  0  0  0
   10.8959   -6.2091    0.0000 C   0  0  0  0  0  0  0  0  0  0  0  0
    8.7116   -6.2366    0.0000 C   0  0  0  0  0  0  0  0  0  0  0  0
    9.2692   -8.2632    0.0000 H   0  0  0  0  0  0  0  0  0  0  0  0
    9.1241   -5.5222    0.0000 C   0  0  0  0  0  0  0  0  0  0  0  0
    9.1241   -4.6972    0.0000 C   0  0  0  0  0  0  0  0  0  0  0  0
    9.8386   -4.2847    0.0000 C   0  0  0  0  0  0  0  0  0  0  0  0
    8.4097   -4.2847    0.0000 C   0  0  0  0  0  0  0  0  0  0  0  0
    7.6952   -4.6972    0.0000 O   0  0  0  0  0  0  0  0  0  0  0  0
    8.4097   -3.4597    0.0000 O   0  0  0  0  0  0  0  0  0  0  0  0
  1  2  1  1  0  0  0
  2  3  1  0  0  0  0
  3  4  1  0  0  0  0
  4  5  2  0  0  0  0
  5  6  1  0  0  0  0
  6  7  1  0  0  0  0
  7  8  1  0  0  0  0
  8  9  2  0  0  0  0
  9 10  1  0  0  0  0
 10 11  2  0  0  0  0
 11 12  1  0  0  0  0
 12 13  1  0  0  0  0
 13 14  1  0  0  0  0
 14 15  2  0  0  0  0
 15 16  1  0  0  0  0
 16 17  1  0  0  0  0
 17 18  1  0  0  0  0
  1 18  1  0  0  0  0
  1 14  1  0  0  0  0
  3 12  2  0  0  0  0
  5 10  1  0  0  0  0
 13 19  2  0  0  0  0
 20 21  1  0  0  0  0
 21 22  2  0  0  0  0
 22 23  1  0  0  0  0
 22 24  1  0  0  0  0
  4 20  1  0  0  0  0
  7 25  1  0  0  0  0
  7 26  1  0  0  0  0
 11 27  1  0  0  0  0
 16 28  1  1  0  0  0
  1 29  1  0  0  0  0
 16 30  1  0  0  0  0
 29 30  1  0  0  0  0
 30 31  2  0  0  0  0
 29 32  1  0  0  0  0
 32 33  1  0  0  0  0
 33 34  1  0  0  0  0
 33 35  1  0  0  0  0
 18 33  1  0  0  0  0
 29 36  1  6  0  0  0
 18 37  1  1  0  0  0
 36 38  1  0  0  0  0
 38 39  2  0  0  0  0
 39 40  1  0  0  0  0
 39 41  1  0  0  0  0
 41 42  1  0  0  0  0
 41 43  2  0  0  0  0
M  END
>  <cdx:groupId>
500

>  <cdx:fragmentId>
501

$$$$
