3899.cdx
  Mrv1902 05222410192D          

 42 43  0  0  0  0            999 V2000
    2.4620  -17.1085    0.0000 C   0  0  1  0  0  0  0  0  0  0  0  0
    3.1765  -16.6960    0.0000 C   0  0  0  0  0  0  0  0  0  0  0  0
    3.1765  -15.8710    0.0000 C   0  0  0  0  0  0  0  0  0  0  0  0
    2.4620  -15.4585    0.0000 C   0  0  1  0  0  0  0  0  0  0  0  0
    1.7475  -15.8710    0.0000 C   0  0  0  0  0  0  0  0  0  0  0  0
    1.7475  -16.6960    0.0000 C   0  0  0  0  0  0  0  0  0  0  0  0
    2.4620  -17.9335    0.0000 O   0  0  0  0  0  0  0  0  0  0  0  0
    1.3350  -15.1565    0.0000 C   0  0  0  0  0  0  0  0  0  0  0  0
    0.9225  -15.8710    0.0000 C   0  0  0  0  0  0  0  0  0  0  0  0
    3.8910  -15.4585    0.0000 C   0  0  0  0  0  0  0  0  0  0  0  0
    2.4620  -14.6335    0.0000 C   0  0  0  0  0  0  0  0  0  0  0  0
    3.1765  -14.2210    0.0000 C   0  0  0  0  0  0  0  0  0  0  0  0
    3.1765  -13.3960    0.0000 C   0  0  0  0  0  0  0  0  0  0  0  0
    3.8910  -12.9835    0.0000 C   0  0  0  0  0  0  0  0  0  0  0  0
    3.8910  -12.1585    0.0000 C   0  0  0  0  0  0  0  0  0  0  0  0
    4.6054  -11.7460    0.0000 C   0  0  0  0  0  0  0  0  0  0  0  0
    4.6054  -10.9210    0.0000 C   0  0  0  0  0  0  0  0  0  0  0  0
    5.3199  -10.5085    0.0000 C   0  0  0  0  0  0  0  0  0  0  0  0
    5.3199   -9.6835    0.0000 C   0  0  0  0  0  0  0  0  0  0  0  0
    6.0344   -9.2710    0.0000 C   0  0  0  0  0  0  0  0  0  0  0  0
    6.0344   -8.4460    0.0000 C   0  0  0  0  0  0  0  0  0  0  0  0
    6.7488   -8.0335    0.0000 C   0  0  0  0  0  0  0  0  0  0  0  0
    6.7488   -7.2085    0.0000 C   0  0  0  0  0  0  0  0  0  0  0  0
    7.4633   -6.7960    0.0000 C   0  0  0  0  0  0  0  0  0  0  0  0
    7.4633   -5.9710    0.0000 C   0  0  0  0  0  0  0  0  0  0  0  0
    7.4633   -8.4460    0.0000 C   0  0  0  0  0  0  0  0  0  0  0  0
    3.8910  -10.5085    0.0000 C   0  0  0  0  0  0  0  0  0  0  0  0
    2.4620  -12.9835    0.0000 C   0  0  0  0  0  0  0  0  0  0  0  0
   12.4646   -7.2085    0.0000 O   0  0  0  0  0  0  0  0  0  0  0  0
    9.6067   -7.2085    0.0000 C   0  0  0  0  0  0  0  0  0  0  0  0
   11.4482   -4.8440    0.0000 C   0  0  0  0  0  0  0  0  0  0  0  0
   10.6232   -4.8440    0.0000 C   0  0  0  0  0  0  0  0  0  0  0  0
   11.0357   -5.5585    0.0000 C   0  0  0  0  0  0  0  0  0  0  0  0
   11.7501   -5.9710    0.0000 C   0  0  0  0  0  0  0  0  0  0  0  0
   11.7501   -6.7960    0.0000 C   0  0  1  0  0  0  0  0  0  0  0  0
   11.0357   -7.2085    0.0000 C   0  0  0  0  0  0  0  0  0  0  0  0
   10.3212   -6.7960    0.0000 C   0  0  0  0  0  0  0  0  0  0  0  0
   10.3212   -5.9710    0.0000 C   0  0  0  0  0  0  0  0  0  0  0  0
    8.1778   -4.7335    0.0000 C   0  0  0  0  0  0  0  0  0  0  0  0
    9.6067   -5.5585    0.0000 C   0  0  0  0  0  0  0  0  0  0  0  0
    8.8923   -5.9710    0.0000 C   0  0  0  0  0  0  0  0  0  0  0  0
    8.1778   -5.5585    0.0000 C   0  0  0  0  0  0  0  0  0  0  0  0
 38 40  1  0  0  0  0
 35 29  1  6  0  0  0
 37 30  1  0  0  0  0
 33 31  1  0  0  0  0
 33 32  1  0  0  0  0
 38 33  1  0  0  0  0
 34 33  1  0  0  0  0
 35 34  1  0  0  0  0
 36 35  1  0  0  0  0
 37 36  1  0  0  0  0
 38 37  2  0  0  0  0
 42 39  1  0  0  0  0
 41 40  2  0  0  0  0
 42 41  1  0  0  0  0
  1  2  1  0  0  0  0
  2  3  2  0  0  0  0
  3  4  1  0  0  0  0
  4  5  1  0  0  0  0
  5  6  1  0  0  0  0
  1  6  1  0  0  0  0
  1  7  1  6  0  0  0
  5  8  1  0  0  0  0
  5  9  1  0  0  0  0
  3 10  1  0  0  0  0
 11 12  2  0  0  0  0
 12 13  1  0  0  0  0
 13 14  2  0  0  0  0
 14 15  1  0  0  0  0
 15 16  2  0  0  0  0
 16 17  1  0  0  0  0
 17 18  2  0  0  0  0
 18 19  1  0  0  0  0
 19 20  2  0  0  0  0
 20 21  1  0  0  0  0
 21 22  2  0  0  0  0
 22 23  1  0  0  0  0
 23 24  2  0  0  0  0
 24 25  1  0  0  0  0
 25 42  2  0  0  0  0
 22 26  1  0  0  0  0
 17 27  1  0  0  0  0
 13 28  1  0  0  0  0
  4 11  1  1  0  0  0
M  END
>  <cdx:fragmentId>
13683

$$$$
