390.cdx
  Mrv1902 05222410232D          

 11 11  0  0  0  0            999 V2000
    8.0563   -8.6704    0.0000 C   0  0  1  0  0  0  0  0  0  0  0  0
    8.0563   -7.8454    0.0000 C   0  0  0  0  0  0  0  0  0  0  0  0
    7.3418   -7.4329    0.0000 N   0  0  0  0  0  0  0  0  0  0  0  0
    6.6274   -7.8454    0.0000 C   0  0  1  0  0  0  0  0  0  0  0  0
    6.6274   -8.6704    0.0000 C   0  0  2  0  0  0  0  0  0  0  0  0
    7.3418   -9.0829    0.0000 C   0  0  2  0  0  0  0  0  0  0  0  0
    5.9129   -7.4329    0.0000 C   0  0  0  0  0  0  0  0  0  0  0  0
    5.9129   -9.0829    0.0000 O   0  0  0  0  0  0  0  0  0  0  0  0
    7.3418   -9.9079    0.0000 O   0  0  0  0  0  0  0  0  0  0  0  0
    8.7708   -9.0829    0.0000 O   0  0  0  0  0  0  0  0  0  0  0  0
    5.1984   -7.8454    0.0000 O   0  0  0  0  0  0  0  0  0  0  0  0
  1  2  1  0  0  0  0
  2  3  1  0  0  0  0
  3  4  1  0  0  0  0
  4  5  1  0  0  0  0
  5  6  1  0  0  0  0
  6  1  1  0  0  0  0
  4  7  1  1  0  0  0
  5  8  1  6  0  0  0
  6  9  1  1  0  0  0
  1 10  1  6  0  0  0
  7 11  1  0  0  0  0
M  END
>  <cdx:fragmentId>
2195

$$$$
