39004.cdx
  Mrv1902 05222410202D          

 15 16  0  0  0  0            999 V2000
    6.8999   -5.3904    0.0000 C   0  0  0  0  0  0  0  0  0  0  0  0
    9.7577   -7.8654    0.0000 C   0  0  0  0  0  0  0  0  0  0  0  0
    6.1854   -9.1029    0.0000 C   0  0  0  0  0  0  0  0  0  0  0  0
    7.6143   -9.1029    0.0000 C   0  0  0  0  0  0  0  0  0  0  0  0
    6.8999   -8.6904    0.0000 C   0  0  0  0  0  0  0  0  0  0  0  0
    7.6143   -7.4529    0.0000 C   0  0  0  0  0  0  0  0  0  0  0  0
    8.3288   -7.8654    0.0000 C   0  0  0  0  0  0  0  0  0  0  0  0
    9.0433   -7.4529    0.0000 C   0  0  0  0  0  0  0  0  0  0  0  0
    9.0433   -6.6279    0.0000 C   0  0  0  0  0  0  0  0  0  0  0  0
    8.3288   -6.2154    0.0000 C   0  0  0  0  0  0  0  0  0  0  0  0
    7.6143   -6.6279    0.0000 C   0  0  0  0  0  0  0  0  0  0  0  0
    6.8999   -6.2154    0.0000 C   0  0  0  0  0  0  0  0  0  0  0  0
    6.1854   -6.6279    0.0000 C   0  0  0  0  0  0  0  0  0  0  0  0
    6.1854   -7.4529    0.0000 C   0  0  0  0  0  0  0  0  0  0  0  0
    6.8999   -7.8654    0.0000 C   0  0  0  0  0  0  0  0  0  0  0  0
 12  1  1  0  0  0  0
  8  2  1  0  0  0  0
 15  5  1  0  0  0  0
  5  3  1  0  0  0  0
  5  4  1  0  0  0  0
 11  6  1  0  0  0  0
 15  6  1  0  0  0  0
  7  6  1  0  0  0  0
  8  7  2  0  0  0  0
  9  8  1  0  0  0  0
 10  9  1  0  0  0  0
 11 10  1  0  0  0  0
 12 11  2  0  0  0  0
 13 12  1  0  0  0  0
 14 13  1  0  0  0  0
 15 14  1  0  0  0  0
M  END
>  <cdx:fragmentId>
82

$$$$
