39003.cdx
  Mrv1902 05222410222D          

 33 32  0  0  0  0            999 V2000
    4.2577  -13.8651    0.0000 C   0  0  0  0  0  0  0  0  0  0  0  0
    3.5432  -14.2776    0.0000 C   0  0  0  0  0  0  0  0  0  0  0  0
    4.2577  -13.0401    0.0000 O   0  0  0  0  0  0  0  0  0  0  0  0
    4.9721  -14.2776    0.0000 O   0  0  0  0  0  0  0  0  0  0  0  0
    2.8287  -14.6901    0.0000 F   0  0  0  0  0  0  0  0  0  0  0  0
    3.5432  -15.1026    0.0000 F   0  0  0  0  0  0  0  0  0  0  0  0
    2.8287  -13.8651    0.0000 F   0  0  0  0  0  0  0  0  0  0  0  0
    5.6866  -13.8651    0.0000 C   0  0  0  0  0  0  0  0  0  0  0  0
    6.4011  -14.2776    0.0000 C   0  0  0  0  0  0  0  0  0  0  0  0
    7.1155  -13.8651    0.0000 C   0  0  0  0  0  0  0  0  0  0  0  0
    7.8300  -14.2776    0.0000 C   0  0  0  0  0  0  0  0  0  0  0  0
    8.5445  -13.8651    0.0000 C   0  0  0  0  0  0  0  0  0  0  0  0
    9.2590  -14.2776    0.0000 C   0  0  0  0  0  0  0  0  0  0  0  0
    9.9734  -13.8651    0.0000 C   0  0  0  0  0  0  0  0  0  0  0  0
   10.6879  -14.2776    0.0000 C   0  0  0  0  0  0  0  0  0  0  0  0
   11.4024  -13.8651    0.0000 C   0  0  0  0  0  0  0  0  0  0  0  0
   12.1168  -14.2776    0.0000 C   0  0  0  0  0  0  0  0  0  0  0  0
   12.8313  -13.8651    0.0000 C   0  0  0  0  0  0  0  0  0  0  0  0
   13.5458  -14.2776    0.0000 C   0  0  0  0  0  0  0  0  0  0  0  0
   14.2603  -13.8651    0.0000 C   0  0  0  0  0  0  0  0  0  0  0  0
   14.9747  -14.2776    0.0000 C   0  0  0  0  0  0  0  0  0  0  0  0
   15.6892  -13.8651    0.0000 C   0  0  0  0  0  0  0  0  0  0  0  0
   16.4037  -14.2776    0.0000 C   0  0  0  0  0  0  0  0  0  0  0  0
   17.1181  -13.8651    0.0000 C   0  0  0  0  0  0  0  0  0  0  0  0
   17.8326  -14.2776    0.0000 C   0  0  0  0  0  0  0  0  0  0  0  0
   18.5471  -13.8651    0.0000 C   0  0  0  0  0  0  0  0  0  0  0  0
   19.2616  -14.2776    0.0000 C   0  0  0  0  0  0  0  0  0  0  0  0
   19.9760  -13.8651    0.0000 C   0  0  0  0  0  0  0  0  0  0  0  0
   20.6905  -14.2776    0.0000 C   0  0  0  0  0  0  0  0  0  0  0  0
   21.4050  -13.8651    0.0000 C   0  0  0  0  0  0  0  0  0  0  0  0
   22.1194  -14.2776    0.0000 C   0  0  0  0  0  0  0  0  0  0  0  0
   22.8339  -13.8651    0.0000 C   0  0  0  0  0  0  0  0  0  0  0  0
   23.5484  -14.2776    0.0000 C   0  0  0  0  0  0  0  0  0  0  0  0
  1  2  1  0  0  0  0
  1  3  2  0  0  0  0
  1  4  1  0  0  0  0
  2  5  1  0  0  0  0
  2  6  1  0  0  0  0
  2  7  1  0  0  0  0
  8  9  1  0  0  0  0
  9 10  1  0  0  0  0
 10 11  1  0  0  0  0
 11 12  1  0  0  0  0
 12 13  1  0  0  0  0
 13 14  1  0  0  0  0
 14 15  1  0  0  0  0
 15 16  1  0  0  0  0
 16 17  1  0  0  0  0
 17 18  1  0  0  0  0
 18 19  1  0  0  0  0
 19 20  1  0  0  0  0
 21 22  1  0  0  0  0
 22 23  1  0  0  0  0
 23 24  1  0  0  0  0
 24 25  1  0  0  0  0
 25 26  1  0  0  0  0
 26 27  1  0  0  0  0
 27 28  1  0  0  0  0
 28 29  1  0  0  0  0
 29 30  1  0  0  0  0
 30 31  1  0  0  0  0
 31 32  1  0  0  0  0
 32 33  1  0  0  0  0
  4  8  1  0  0  0  0
 20 21  1  0  0  0  0
M  END
>  <cdx:groupId>
455

>  <cdx:fragmentId>
374

$$$$
