39002.cdx
  Mrv1902 05222410222D          

 48 50  0  0  0  0            999 V2000
    6.8809  -11.3750    0.0000 C   0  0  0  0  0  0  0  0  0  0  0  0
    6.8809  -10.5528    0.0000 C   0  0  0  0  0  0  0  0  0  0  0  0
    6.1689  -11.7860    0.0000 C   0  0  0  0  0  0  0  0  0  0  0  0
    7.5929  -10.1418    0.0000 N   0  0  0  0  0  0  0  0  0  0  0  0
    6.1689  -10.1418    0.0000 C   0  0  0  0  0  0  0  0  0  0  0  0
    5.4569  -10.5528    0.0000 O   0  0  0  0  0  0  0  0  0  0  0  0
    6.1689   -9.3196    0.0000 N   0  0  0  0  0  0  0  0  0  0  0  0
    5.4569   -8.9086    0.0000 C   0  0  0  0  0  0  0  0  0  0  0  0
    5.4569   -8.0864    0.0000 C   0  0  0  0  0  0  0  0  0  0  0  0
    4.7449   -7.6754    0.0000 O   0  0  0  0  0  0  0  0  0  0  0  0
    6.1689   -7.6754    0.0000 N   0  0  0  0  0  0  0  0  0  0  0  0
    6.1689   -6.8532    0.0000 C   0  0  0  0  0  0  0  0  0  0  0  0
    6.8809   -6.4422    0.0000 C   0  0  0  0  0  0  0  0  0  0  0  0
    5.4569   -6.4422    0.0000 C   0  0  0  0  0  0  0  0  0  0  0  0
    5.4569   -5.6200    0.0000 C   0  0  0  0  0  0  0  0  0  0  0  0
    5.4569  -11.3750    0.0000 C   0  0  0  0  0  0  0  0  0  0  0  0
    4.7449  -11.7860    0.0000 C   0  0  0  0  0  0  0  0  0  0  0  0
    4.7449  -12.6082    0.0000 C   0  0  0  0  0  0  0  0  0  0  0  0
    5.4569  -13.0192    0.0000 C   0  0  0  0  0  0  0  0  0  0  0  0
    6.1689  -12.6082    0.0000 C   0  0  0  0  0  0  0  0  0  0  0  0
    6.1689   -5.2090    0.0000 C   0  0  0  0  0  0  0  0  0  0  0  0
    6.1689   -4.3868    0.0000 C   0  0  0  0  0  0  0  0  0  0  0  0
    5.4569   -3.9758    0.0000 C   0  0  0  0  0  0  0  0  0  0  0  0
    4.7449   -4.3868    0.0000 C   0  0  0  0  0  0  0  0  0  0  0  0
    4.7449   -5.2090    0.0000 C   0  0  0  0  0  0  0  0  0  0  0  0
    6.8809   -5.6200    0.0000 O   0  0  0  0  0  0  0  0  0  0  0  0
    7.5929   -6.8532    0.0000 N   0  0  0  0  0  0  0  0  0  0  0  0
    8.3049   -6.4422    0.0000 C   0  0  0  0  0  0  0  0  0  0  0  0
    9.0169   -6.8532    0.0000 C   0  0  0  0  0  0  0  0  0  0  0  0
    8.3049   -5.6200    0.0000 C   0  0  0  0  0  0  0  0  0  0  0  0
    9.0169   -5.2090    0.0000 C   0  0  0  0  0  0  0  0  0  0  0  0
    9.0169   -4.3868    0.0000 C   0  0  0  0  0  0  0  0  0  0  0  0
    7.5929   -5.2090    0.0000 C   0  0  0  0  0  0  0  0  0  0  0  0
    9.7289   -6.4422    0.0000 O   0  0  0  0  0  0  0  0  0  0  0  0
    9.0169   -7.6754    0.0000 N   0  0  0  0  0  0  0  0  0  0  0  0
    9.7289   -8.0864    0.0000 C   0  0  0  0  0  0  0  0  0  0  0  0
    9.7289   -8.9086    0.0000 C   0  0  0  0  0  0  0  0  0  0  0  0
   10.4408   -7.6754    0.0000 C   0  0  0  0  0  0  0  0  0  0  0  0
   11.1528   -8.0864    0.0000 O   0  0  0  0  0  0  0  0  0  0  0  0
   10.4408   -6.8532    0.0000 C   0  0  0  0  0  0  0  0  0  0  0  0
   10.4408   -9.3196    0.0000 O   0  0  0  0  0  0  0  0  0  0  0  0
    9.0169   -9.3196    0.0000 N   0  0  0  0  0  0  0  0  0  0  0  0
    9.0169  -10.1418    0.0000 C   0  0  0  0  0  0  0  0  0  0  0  0
    9.7289  -10.5528    0.0000 C   0  0  0  0  0  0  0  0  0  0  0  0
   10.4408  -10.1418    0.0000 C   0  0  0  0  0  0  0  0  0  0  0  0
    9.7289  -11.3750    0.0000 C   0  0  0  0  0  0  0  0  0  0  0  0
    8.3049  -10.5528    0.0000 C   0  0  0  0  0  0  0  0  0  0  0  0
    8.3049  -11.3750    0.0000 O   0  0  0  0  0  0  0  0  0  0  0  0
  1  2  1  0  0  0  0
  1  3  1  0  0  0  0
  2  4  1  0  0  0  0
  2  5  1  0  0  0  0
  5  6  2  0  0  0  0
  5  7  1  0  0  0  0
  7  8  1  0  0  0  0
  8  9  1  0  0  0  0
  9 10  2  0  0  0  0
  9 11  1  0  0  0  0
 11 12  1  0  0  0  0
 12 13  1  0  0  0  0
 12 14  1  0  0  0  0
 14 15  1  0  0  0  0
  3 16  2  0  0  0  0
 16 17  1  0  0  0  0
 17 18  2  0  0  0  0
 18 19  1  0  0  0  0
 19 20  2  0  0  0  0
 20  3  1  0  0  0  0
 15 21  2  0  0  0  0
 21 22  1  0  0  0  0
 22 23  2  0  0  0  0
 23 24  1  0  0  0  0
 24 25  2  0  0  0  0
 25 15  1  0  0  0  0
 13 26  2  0  0  0  0
 13 27  1  0  0  0  0
 27 28  1  0  0  0  0
 28 29  1  0  0  0  0
 28 30  1  0  0  0  0
 30 31  1  0  0  0  0
 31 32  1  0  0  0  0
 30 33  1  0  0  0  0
 29 34  2  0  0  0  0
 29 35  1  0  0  0  0
 35 36  1  0  0  0  0
 36 37  1  0  0  0  0
 36 38  1  0  0  0  0
 38 39  1  0  0  0  0
 38 40  1  0  0  0  0
 37 41  2  0  0  0  0
 37 42  1  0  0  0  0
 42 43  1  0  0  0  0
 43 44  1  0  0  0  0
 44 45  1  0  0  0  0
 44 46  1  0  0  0  0
 43 47  1  0  0  0  0
 47 48  2  0  0  0  0
 47  4  1  0  0  0  0
M  END
>  <cdx:fragmentId>
225

$$$$
