390048.cdx
  Mrv1902 05222410232D          

 23 23  0  0  0  0            999 V2000
    8.2448   -8.5504    0.0000 C   0  0  0  0  0  0  0  0  0  0  0  0
    7.5303   -8.1379    0.0000 C   0  0  0  0  0  0  0  0  0  0  0  0
    6.8159   -8.5504    0.0000 C   0  0  0  0  0  0  0  0  0  0  0  0
    6.1014   -8.1379    0.0000 C   0  0  0  0  0  0  0  0  0  0  0  0
    5.3869   -8.5504    0.0000 C   0  0  0  0  0  0  0  0  0  0  0  0
    8.9593   -8.1379    0.0000 N   0  0  0  0  0  0  0  0  0  0  0  0
    8.9593   -7.3129    0.0000 O   0  0  0  0  0  0  0  0  0  0  0  0
    9.6737   -6.9004    0.0000 S   0  0  0  0  0  0  0  0  0  0  0  0
    9.2612   -6.1860    0.0000 O   0  0  0  0  0  0  0  0  0  0  0  0
   10.0862   -7.6149    0.0000 O   0  0  0  0  0  0  0  0  0  0  0  0
    8.2448  -11.0254    0.0000 O   0  0  0  0  0  0  0  0  0  0  0  0
    6.8159  -11.8504    0.0000 O   0  0  0  0  0  0  0  0  0  0  0  0
    5.3869  -11.0254    0.0000 O   0  0  0  0  0  0  0  0  0  0  0  0
    4.6725   -9.7879    0.0000 O   0  0  0  0  0  0  0  0  0  0  0  0
    5.3869   -9.3754    0.0000 C   0  0  0  0  0  0  0  0  0  0  0  0
    6.1014   -9.7879    0.0000 C   0  0  2  0  0  0  0  0  0  0  0  0
    6.1014  -10.6129    0.0000 C   0  0  2  0  0  0  0  0  0  0  0  0
    6.8159  -11.0254    0.0000 C   0  0  1  0  0  0  0  0  0  0  0  0
    7.5303  -10.6129    0.0000 C   0  0  2  0  0  0  0  0  0  0  0  0
    7.5303   -9.7879    0.0000 C   0  0  1  0  0  0  0  0  0  0  0  0
    6.8159   -9.3754    0.0000 O   0  0  0  0  0  0  0  0  0  0  0  0
   10.3882   -6.4879    0.0000 O   0  0  0  0  0  0  0  0  0  0  0  0
    8.2448   -9.3754    0.0000 S   0  0  0  0  0  0  0  0  0  0  0  0
 20 23  1  1  0  0  0
 19 11  1  6  0  0  0
 18 12  1  1  0  0  0
 17 13  1  6  0  0  0
 16 15  1  1  0  0  0
 15 14  1  0  0  0  0
 21 16  1  0  0  0  0
 17 16  1  0  0  0  0
 18 17  1  0  0  0  0
 19 18  1  0  0  0  0
 20 19  1  0  0  0  0
 21 20  1  0  0  0  0
  1 23  1  0  0  0  0
  1  2  1  0  0  0  0
  2  3  1  0  0  0  0
  3  4  1  0  0  0  0
  4  5  2  0  0  0  0
  1  6  2  0  0  0  0
  8  9  2  0  0  0  0
  8 10  2  0  0  0  0
  8 22  1  0  0  0  0
  7  8  1  0  0  0  0
  6  7  1  0  0  0  0
M  END
>  <cdx:fragmentId>
763

$$$$
