39001.cdx
  Mrv1902 05222410222D          

 52 54  0  0  0  0            999 V2000
    9.0306   -9.6751    0.0000 C   0  0  0  0  0  0  0  0  0  0  0  0
    8.3200  -10.0887    0.0000 C   0  0  0  0  0  0  0  0  0  0  0  0
    9.7440  -10.0837    0.0000 C   0  0  0  0  0  0  0  0  0  0  0  0
    9.0277   -8.8530    0.0000 N   0  0  0  0  0  0  0  0  0  0  0  0
    7.6066   -9.6801    0.0000 N   0  0  0  0  0  0  0  0  0  0  0  0
    8.3229  -10.9108    0.0000 O   0  0  0  0  0  0  0  0  0  0  0  0
    6.8960  -10.0937    0.0000 C   0  0  0  0  0  0  0  0  0  0  0  0
    6.1826   -9.6851    0.0000 C   0  0  0  0  0  0  0  0  0  0  0  0
    5.4721  -10.0986    0.0000 O   0  0  0  0  0  0  0  0  0  0  0  0
    6.1797   -8.8629    0.0000 N   0  0  0  0  0  0  0  0  0  0  0  0
    5.4663   -8.4543    0.0000 C   0  0  0  0  0  0  0  0  0  0  0  0
    5.4635   -7.6322    0.0000 C   0  0  0  0  0  0  0  0  0  0  0  0
    4.7558   -8.8679    0.0000 C   0  0  0  0  0  0  0  0  0  0  0  0
    4.0424   -8.4593    0.0000 C   0  0  0  0  0  0  0  0  0  0  0  0
    4.7586   -9.6900    0.0000 C   0  0  0  0  0  0  0  0  0  0  0  0
    4.0481  -10.1036    0.0000 C   0  0  0  0  0  0  0  0  0  0  0  0
    4.7626   -7.2236    0.0000 N   0  0  0  0  0  0  0  0  0  0  0  0
    6.1740   -7.2187    0.0000 O   0  0  0  0  0  0  0  0  0  0  0  0
    9.7468  -10.9059    0.0000 C   0  0  0  0  0  0  0  0  0  0  0  0
   10.4603  -11.3145    0.0000 C   0  0  0  0  0  0  0  0  0  0  0  0
   10.4631  -12.1366    0.0000 C   0  0  0  0  0  0  0  0  0  0  0  0
    9.7526  -12.5501    0.0000 C   0  0  0  0  0  0  0  0  0  0  0  0
    9.0391  -12.1415    0.0000 C   0  0  0  0  0  0  0  0  0  0  0  0
    9.0363  -11.3194    0.0000 C   0  0  0  0  0  0  0  0  0  0  0  0
    4.7598   -6.4015    0.0000 C   0  0  0  0  0  0  0  0  0  0  0  0
    4.0464   -5.9929    0.0000 C   0  0  0  0  0  0  0  0  0  0  0  0
    5.4703   -5.9879    0.0000 C   0  0  0  0  0  0  0  0  0  0  0  0
    3.3358   -6.4064    0.0000 O   0  0  0  0  0  0  0  0  0  0  0  0
    4.0435   -5.1707    0.0000 C   0  0  0  0  0  0  0  0  0  0  0  0
    6.0557   -6.5692    0.0000 O   0  0  0  0  0  0  0  0  0  0  0  0
    5.7623   -5.2194    0.0000 N   0  0  0  0  0  0  0  0  0  0  0  0
    6.5844   -5.2165    0.0000 C   0  0  0  0  0  0  0  0  0  0  0  0
    6.8357   -4.4337    0.0000 C   0  0  0  0  0  0  0  0  0  0  0  0
    6.1689   -3.9528    0.0000 C   0  0  0  0  0  0  0  0  0  0  0  0
    5.5055   -4.4384    0.0000 C   0  0  0  0  0  0  0  0  0  0  0  0
    6.8817   -5.9830    0.0000 C   0  0  0  0  0  0  0  0  0  0  0  0
    6.2983   -6.5664    0.0000 O   0  0  0  0  0  0  0  0  0  0  0  0
    7.5951   -6.3916    0.0000 N   0  0  0  0  0  0  0  0  0  0  0  0
    9.0220   -7.2088    0.0000 N   0  0  0  0  0  0  0  0  0  0  0  0
    9.7354   -7.6173    0.0000 C   0  0  0  0  0  0  0  0  0  0  0  0
    9.7382   -8.4395    0.0000 C   0  0  0  0  0  0  0  0  0  0  0  0
   10.4459   -7.2038    0.0000 C   0  0  0  0  0  0  0  0  0  0  0  0
   10.4517   -8.8481    0.0000 O   0  0  0  0  0  0  0  0  0  0  0  0
   11.1594   -7.6124    0.0000 C   0  0  0  0  0  0  0  0  0  0  0  0
   10.4431   -6.3817    0.0000 C   0  0  0  0  0  0  0  0  0  0  0  0
   11.1536   -5.9681    0.0000 C   0  0  0  0  0  0  0  0  0  0  0  0
    9.0191   -6.3866    0.0000 C   0  0  0  0  0  0  0  0  0  0  0  0
    9.7297   -5.9731    0.0000 O   0  0  0  0  0  0  0  0  0  0  0  0
    8.3057   -5.9780    0.0000 C   0  0  0  0  0  0  0  0  0  0  0  0
    8.3028   -5.1559    0.0000 C   0  0  0  0  0  0  0  0  0  0  0  0
    9.0134   -4.7424    0.0000 C   0  0  0  0  0  0  0  0  0  0  0  0
    7.5894   -4.7473    0.0000 C   0  0  0  0  0  0  0  0  0  0  0  0
  1  2  1  0  0  0  0
  1  3  1  0  0  0  0
  1  4  1  0  0  0  0
  2  5  1  0  0  0  0
  2  6  2  0  0  0  0
  5  7  1  0  0  0  0
  7  8  1  0  0  0  0
  8  9  2  0  0  0  0
  8 10  1  0  0  0  0
 10 11  1  0  0  0  0
 11 12  1  0  0  0  0
 11 13  1  0  0  0  0
 13 14  1  0  0  0  0
 13 15  1  0  0  0  0
 15 16  1  0  0  0  0
 12 17  1  0  0  0  0
 12 18  2  0  0  0  0
  3 19  1  0  0  0  0
 19 20  2  0  0  0  0
 20 21  1  0  0  0  0
 21 22  2  0  0  0  0
 22 23  1  0  0  0  0
 23 24  2  0  0  0  0
 24 19  1  0  0  0  0
 17 25  1  0  0  0  0
 25 26  1  0  0  0  0
 25 27  1  0  0  0  0
 26 28  1  0  0  0  0
 26 29  1  0  0  0  0
 27 30  2  0  0  0  0
 27 31  1  0  0  0  0
 31 32  1  0  0  0  0
 32 33  1  0  0  0  0
 33 34  1  0  0  0  0
 34 35  1  0  0  0  0
 35 31  1  0  0  0  0
 32 36  1  0  0  0  0
 36 37  2  0  0  0  0
 36 38  1  0  0  0  0
 39 40  1  0  0  0  0
 40 41  1  0  0  0  0
 40 42  1  0  0  0  0
 41 43  2  0  0  0  0
 41  4  1  0  0  0  0
 42 44  1  0  0  0  0
 42 45  1  0  0  0  0
 45 46  1  0  0  0  0
 39 47  1  0  0  0  0
 47 48  2  0  0  0  0
 49 38  1  0  0  0  0
 49 50  1  0  0  0  0
 50 51  1  0  0  0  0
 50 52  1  0  0  0  0
 47 49  1  0  0  0  0
M  END
>  <cdx:fragmentId>
69

$$$$
