7.cdx
  Mrv1902 05222410212D          

 25 29  0  0  0  0            999 V2000
    2.9307  -13.2847    0.0000 C   0  0  0  0  0  0  0  0  0  0  0  0
    3.7126  -13.5388    0.0000 C   0  0  0  0  0  0  0  0  0  0  0  0
    4.3235  -12.9887    0.0000 C   0  0  0  0  0  0  0  0  0  0  0  0
    4.1526  -12.1845    0.0000 C   0  0  0  0  0  0  0  0  0  0  0  0
    3.3707  -11.9304    0.0000 C   0  0  0  0  0  0  0  0  0  0  0  0
    2.7597  -12.4806    0.0000 C   0  0  0  0  0  0  0  0  0  0  0  0
    5.1412  -13.0746    0.0000 N   0  0  0  0  0  0  0  0  0  0  0  0
    5.4756  -12.3235    0.0000 C   0  0  0  0  0  0  0  0  0  0  0  0
    6.2866  -12.1889    0.0000 C   0  0  0  0  0  0  0  0  0  0  0  0
    6.6870  -11.4708    0.0000 N   0  0  0  0  0  0  0  0  0  0  0  0
    5.9256  -11.6761    0.0000 C   0  0  0  0  0  0  0  0  0  0  0  0
    6.3752  -10.7101    0.0000 C   0  0  0  0  0  0  0  0  0  0  0  0
    4.8646  -11.7734    0.0000 C   0  0  0  0  0  0  0  0  0  0  0  0
    6.7083  -12.8946    0.0000 C   0  0  0  0  0  0  0  0  0  0  0  0
    7.5303  -12.8823    0.0000 C   0  0  0  0  0  0  0  0  0  0  0  0
    7.9307  -12.1643    0.0000 C   0  0  0  0  0  0  0  0  0  0  0  0
    7.5090  -11.4585    0.0000 C   0  0  2  0  0  0  0  0  0  0  0  0
    4.9138  -10.9528    0.0000 C   0  0  0  0  0  0  0  0  0  0  0  0
    5.5860  -10.4795    0.0000 C   0  0  0  0  0  0  0  0  0  0  0  0
    7.9201  -10.7465    0.0000 O   0  0  0  0  0  0  0  0  0  0  0  0
    8.7528  -12.1643    0.0000 C   0  0  0  0  0  0  0  0  0  0  0  0
    9.1639  -12.8763    0.0000 C   0  0  0  0  0  0  0  0  0  0  0  0
    3.8835  -14.3429    0.0000 O   0  0  0  0  0  0  0  0  0  0  0  0
    4.0544  -15.1471    0.0000 C   0  0  0  0  0  0  0  0  0  0  0  0
    4.2018  -10.5417    0.0000 O   0  0  0  0  0  0  0  0  0  0  0  0
  1  2  2  0  0  0  0
  2  3  1  0  0  0  0
  3  4  2  0  0  0  0
  4  5  1  0  0  0  0
  5  6  2  0  0  0  0
  6  1  1  0  0  0  0
 11 13  1  0  0  0  0
  3  7  1  0  0  0  0
  7  8  1  0  0  0  0
  8 13  1  0  0  0  0
 13  4  1  0  0  0  0
 12 11  1  0  0  0  0
  8  9  1  0  0  0  0
  9 10  1  0  0  0  0
 10 12  1  0  0  0  0
  9 14  1  0  0  0  0
 14 15  1  0  0  0  0
 15 16  1  0  0  0  0
 17 16  1  0  0  0  0
 10 17  1  0  0  0  0
 13 18  1  0  0  0  0
 12 19  1  0  0  0  0
 18 19  1  0  0  0  0
 17 20  1  1  0  0  0
 16 21  2  0  0  0  0
 21 22  1  0  0  0  0
  2 23  1  0  0  0  0
 18 25  1  0  0  0  0
 23 24  1  0  0  0  0
M  STY  1   1 SUP
M  SAL   1  2  23  24
M  SBL   1  1  27
M  SMT   1 OCH3
M  SAP   1  1  23   2  1
M  END
>  <cdx:fragmentId>
328

$$$$
