39022.cdx
  Mrv1902 05222410252D          

 46 51  0  0  0  0            999 V2000
   16.1234   -7.7456    0.0000 C   0  0  1  0  0  0  0  0  0  0  0  0
   16.8353   -8.1566    0.0000 C   0  0  1  0  0  0  0  0  0  0  0  0
   17.5473   -7.7456    0.0000 O   0  0  0  0  0  0  0  0  0  0  0  0
   17.5473   -6.9234    0.0000 C   0  0  0  0  0  0  0  0  0  0  0  0
   16.8353   -6.5124    0.0000 C   0  0  1  0  0  0  0  0  0  0  0  0
   16.1234   -6.9234    0.0000 C   0  0  2  0  0  0  0  0  0  0  0  0
   16.8353   -5.6902    0.0000 O   0  0  0  0  0  0  0  0  0  0  0  0
   15.4114   -6.5124    0.0000 O   0  0  0  0  0  0  0  0  0  0  0  0
   16.8353   -8.9788    0.0000 O   0  0  0  0  0  0  0  0  0  0  0  0
   15.4114   -8.1566    0.0000 O   0  0  0  0  0  0  0  0  0  0  0  0
   16.1234   -9.3898    0.0000 C   0  0  1  0  0  0  0  0  0  0  0  0
   15.4114   -8.9788    0.0000 C   0  0  0  0  0  0  0  0  0  0  0  0
   14.6994   -9.3898    0.0000 C   0  0  0  0  0  0  0  0  0  0  0  0
   14.6994  -10.2120    0.0000 C   0  0  1  0  0  0  0  0  0  0  0  0
   15.4114  -10.6230    0.0000 C   0  0  2  0  0  0  0  0  0  0  0  0
   16.1234  -10.2120    0.0000 C   0  0  0  0  0  0  0  0  0  0  0  0
   13.9874  -10.6230    0.0000 C   0  0  2  0  0  0  0  0  0  0  0  0
   13.9874  -11.4452    0.0000 C   0  0  1  0  0  0  0  0  0  0  0  0
   14.6994  -11.8562    0.0000 C   0  0  0  0  0  0  0  0  0  0  0  0
   15.4114  -11.4452    0.0000 C   0  0  0  0  0  0  0  0  0  0  0  0
   13.2754  -10.2120    0.0000 C   0  0  0  0  0  0  0  0  0  0  0  0
   12.5634  -10.6230    0.0000 C   0  0  0  0  0  0  0  0  0  0  0  0
   12.5634  -11.4452    0.0000 C   0  0  0  0  0  0  0  0  0  0  0  0
   13.2754  -11.8562    0.0000 C   0  0  1  0  0  0  0  0  0  0  0  0
   11.8514  -11.8562    0.0000 C   0  0  1  0  0  0  0  0  0  0  0  0
   11.8514  -12.6784    0.0000 C   0  0  0  0  0  0  0  0  0  0  0  0
   12.5634  -13.0894    0.0000 C   0  0  0  0  0  0  0  0  0  0  0  0
   13.2754  -12.6784    0.0000 C   0  0  0  0  0  0  0  0  0  0  0  0
   11.1394  -11.4452    0.0000 C   0  0  1  0  0  0  0  0  0  0  0  0
   10.4274  -11.8562    0.0000 C   0  0  2  0  0  0  0  0  0  0  0  0
   10.4274  -12.6784    0.0000 C   0  0  0  0  0  0  0  0  0  0  0  0
   11.1394  -13.0894    0.0000 C   0  0  1  0  0  0  0  0  0  0  0  0
   14.1709   -9.5822    0.0000 C   0  0  0  0  0  0  0  0  0  0  0  0
   14.2686  -12.2177    0.0000 C   0  0  0  0  0  0  0  0  0  0  0  0
    9.7154  -11.4452    0.0000 C   0  0  0  0  0  0  0  0  0  0  0  0
   11.1394  -13.9116    0.0000 C   0  0  0  0  0  0  0  0  0  0  0  0
   11.8514  -14.3227    0.0000 O   0  0  0  0  0  0  0  0  0  0  0  0
   10.4274  -14.3227    0.0000 O   0  0  0  0  0  0  0  0  0  0  0  0
   16.5344  -10.9240    0.0000 C   0  0  0  0  0  0  0  0  0  0  0  0
   16.9455  -10.2120    0.0000 C   0  0  0  0  0  0  0  0  0  0  0  0
   16.1234  -11.0341    0.0000 H   0  0  0  0  0  0  0  0  0  0  0  0
   13.7062   -9.8505    0.0000 H   0  0  0  0  0  0  0  0  0  0  0  0
   13.8038  -12.4860    0.0000 C   0  0  0  0  0  0  0  0  0  0  0  0
   10.7283  -10.7332    0.0000 O   0  0  0  0  0  0  0  0  0  0  0  0
   11.8514  -11.0341    0.0000 H   0  0  0  0  0  0  0  0  0  0  0  0
   11.5505  -10.7332    0.0000 C   0  0  0  0  0  0  0  0  0  0  0  0
  1  2  1  0  0  0  0
  2  3  1  0  0  0  0
  3  4  1  0  0  0  0
  4  5  1  0  0  0  0
  5  6  1  0  0  0  0
  6  1  1  0  0  0  0
  5  7  1  1  0  0  0
  6  8  1  1  0  0  0
  2  9  1  1  0  0  0
  1 10  1  6  0  0  0
 11  9  1  6  0  0  0
 11 12  1  0  0  0  0
 12 13  1  0  0  0  0
 13 14  1  0  0  0  0
 14 15  1  0  0  0  0
 15 16  1  0  0  0  0
 16 11  1  0  0  0  0
 14 17  1  0  0  0  0
 17 18  1  0  0  0  0
 18 19  1  0  0  0  0
 19 20  1  0  0  0  0
 20 15  1  0  0  0  0
 17 21  1  0  0  0  0
 21 22  1  0  0  0  0
 22 23  2  0  0  0  0
 23 24  1  0  0  0  0
 24 18  1  0  0  0  0
 23 25  1  0  0  0  0
 25 26  1  0  0  0  0
 26 27  1  0  0  0  0
 27 28  1  0  0  0  0
 28 24  1  0  0  0  0
 25 29  1  0  0  0  0
 29 30  1  0  0  0  0
 30 31  1  0  0  0  0
 31 32  1  0  0  0  0
 32 26  1  0  0  0  0
 14 33  1  6  0  0  0
 18 34  1  6  0  0  0
 30 35  1  6  0  0  0
 32 36  1  6  0  0  0
 36 37  2  0  0  0  0
 36 38  1  0  0  0  0
 16 39  1  0  0  0  0
 16 40  1  0  0  0  0
 15 41  1  1  0  0  0
 17 42  1  1  0  0  0
 24 43  1  1  0  0  0
 29 44  1  1  0  0  0
 25 45  1  6  0  0  0
 29 46  1  6  0  0  0
M  END
>  <cdx:fragmentId>
130

$$$$
