39023.cdx
  Mrv1902 05222410242D          

 31 33  0  0  0  0            999 V2000
    3.6918  -13.0263    0.0000 O   0  0  0  0  0  0  0  0  0  0  0  0
    4.8390  -13.2152    0.0000 O   0  0  0  0  0  0  0  0  0  0  0  0
    3.8807  -11.8791    0.0000 O   0  0  0  0  0  0  0  0  0  0  0  0
    4.3599  -12.5471    0.0000 P   0  0  0  0  0  0  0  0  0  0  0  0
    5.7652  -11.1689    0.0000 O   0  0  0  0  0  0  0  0  0  0  0  0
    4.1289  -11.3308    0.0000 O   0  0  0  0  0  0  0  0  0  0  0  0
    5.0279  -12.0680    0.0000 O   0  0  0  0  0  0  0  0  0  0  0  0
    4.9470  -11.2498    0.0000 P   0  0  0  0  0  0  0  0  0  0  0  0
    5.0550   -9.2845    0.0000 O   0  0  0  0  0  0  0  0  0  0  0  0
    6.0133  -10.6206    0.0000 O   0  0  0  0  0  0  0  0  0  0  0  0
    4.8661  -10.4317    0.0000 O   0  0  0  0  0  0  0  0  0  0  0  0
    5.5342   -9.9525    0.0000 P   0  0  0  0  0  0  0  0  0  0  0  0
    6.2022   -9.4734    0.0000 O   0  0  0  0  0  0  0  0  0  0  0  0
   10.0441   -6.0838    0.0000 C   0  0  0  0  0  0  0  0  0  0  0  0
   10.0491   -5.2617    0.0000 N   0  0  0  0  0  0  0  0  0  0  0  0
    8.8791   -7.7778    0.0000 O   0  0  0  0  0  0  0  0  0  0  0  0
    7.8189   -9.2183    0.0000 O   0  0  0  0  0  0  0  0  0  0  0  0
    6.1213   -8.6552    0.0000 C   0  0  0  0  0  0  0  0  0  0  0  0
    6.7944   -7.3539    0.0000 O   0  0  0  0  0  0  0  0  0  0  0  0
    6.7894   -8.1761    0.0000 C   0  0  1  0  0  0  0  0  0  0  0  0
    7.5697   -8.4349    0.0000 C   0  0  2  0  0  0  0  0  0  0  0  0
    8.0570   -7.7728    0.0000 C   0  0  2  0  0  0  0  0  0  0  0  0
    7.5778   -7.1047    0.0000 C   0  0  2  0  0  0  0  0  0  0  0  0
    9.3396   -4.8463    0.0000 C   0  0  0  0  0  0  0  0  0  0  0  0
    8.6251   -5.2530    0.0000 C   0  0  0  0  0  0  0  0  0  0  0  0
    8.6201   -6.0751    0.0000 C   0  0  0  0  0  0  0  0  0  0  0  0
    9.3296   -6.4905    0.0000 N   0  0  0  0  0  0  0  0  0  0  0  0
    7.8448   -4.9941    0.0000 N   0  0  0  0  0  0  0  0  0  0  0  0
    7.3575   -5.6563    0.0000 C   0  0  0  0  0  0  0  0  0  0  0  0
    7.8367   -6.3244    0.0000 N   0  0  0  0  0  0  0  0  0  0  0  0
    9.3447   -4.0242    0.0000 O   0  0  0  0  0  0  0  0  0  0  0  0
  4  1  1  0  0  0  0
  4  2  1  0  0  0  0
  4  3  2  0  0  0  0
  7  4  1  0  0  0  0
  8  5  2  0  0  0  0
  8  6  1  0  0  0  0
  8  7  1  0  0  0  0
 11  8  1  0  0  0  0
 12  9  1  0  0  0  0
 12 10  2  0  0  0  0
 12 11  1  0  0  0  0
 13 12  1  0  0  0  0
 18 13  1  0  0  0  0
 22 16  1  6  0  0  0
 21 17  1  6  0  0  0
 20 18  1  1  0  0  0
 19 23  1  0  0  0  0
 20 19  1  0  0  0  0
 21 20  1  0  0  0  0
 22 21  1  0  0  0  0
 23 22  1  0  0  0  0
 23 30  1  1  0  0  0
 14 15  1  0  0  0  0
 15 24  1  0  0  0  0
 24 25  1  0  0  0  0
 25 26  2  0  0  0  0
 26 27  1  0  0  0  0
 27 14  2  0  0  0  0
 25 28  1  0  0  0  0
 28 29  2  0  0  0  0
 29 30  1  0  0  0  0
 30 26  1  0  0  0  0
 24 31  2  0  0  0  0
M  END
>  <cdx:fragmentId>
14686

$$$$
