39028.cdx
  Mrv1902 05222410232D          

  3  2  0  0  0  0            999 V2000
    6.1417   -6.7291    0.0000 S   0  0  0  0  0  0  0  0  0  0  0  0
    6.9667   -6.7291    0.0000 C   0  0  0  0  0  0  0  0  0  0  0  0
    7.7917   -6.7291    0.0000 N   0  0  0  0  0  0  0  0  0  0  0  0
  2  3  2  0  0  0  0
  1  2  2  0  0  0  0
M  END
>  <cdx:fragmentId>
97

$$$$
