39026.cdx
  Mrv1902 05222410242D          

 35 39  0  0  0  0            999 V2000
    5.4181  -10.2793    0.0000 C   0  0  0  0  0  0  0  0  0  0  0  0
    5.4181  -11.1043    0.0000 C   0  0  0  0  0  0  0  0  0  0  0  0
    6.1325  -11.5168    0.0000 C   0  0  0  0  0  0  0  0  0  0  0  0
    6.8470  -11.1043    0.0000 C   0  0  0  0  0  0  0  0  0  0  0  0
    6.8470  -10.2793    0.0000 C   0  0  0  0  0  0  0  0  0  0  0  0
    6.1325   -9.8668    0.0000 C   0  0  0  0  0  0  0  0  0  0  0  0
    7.5615  -11.5168    0.0000 O   0  0  0  0  0  0  0  0  0  0  0  0
    8.2760  -11.1043    0.0000 C   0  0  1  0  0  0  0  0  0  0  0  0
    8.2760  -10.2793    0.0000 C   0  0  2  0  0  0  0  0  0  0  0  0
    7.5615   -9.8668    0.0000 C   0  0  0  0  0  0  0  0  0  0  0  0
    8.9904  -11.5168    0.0000 C   0  0  0  0  0  0  0  0  0  0  0  0
    8.9904  -12.3418    0.0000 C   0  0  0  0  0  0  0  0  0  0  0  0
    9.7049  -12.7543    0.0000 C   0  0  0  0  0  0  0  0  0  0  0  0
   10.4194  -12.3418    0.0000 C   0  0  0  0  0  0  0  0  0  0  0  0
   10.4194  -11.5168    0.0000 C   0  0  0  0  0  0  0  0  0  0  0  0
    9.7049  -11.1043    0.0000 C   0  0  0  0  0  0  0  0  0  0  0  0
   11.1338  -12.7543    0.0000 O   0  0  0  0  0  0  0  0  0  0  0  0
   11.8483  -12.3418    0.0000 C   0  0  0  0  0  0  0  0  0  0  0  0
   11.8483  -11.5168    0.0000 C   0  0  0  0  0  0  0  0  0  0  0  0
   11.1338  -11.1043    0.0000 O   0  0  0  0  0  0  0  0  0  0  0  0
   12.5628  -12.7543    0.0000 C   0  0  0  0  0  0  0  0  0  0  0  0
   12.5628  -13.5793    0.0000 C   0  0  0  0  0  0  0  0  0  0  0  0
   13.2773  -13.9918    0.0000 C   0  0  0  0  0  0  0  0  0  0  0  0
   13.9917  -13.5793    0.0000 C   0  0  0  0  0  0  0  0  0  0  0  0
   13.9917  -12.7543    0.0000 C   0  0  0  0  0  0  0  0  0  0  0  0
   13.2773  -12.3418    0.0000 C   0  0  0  0  0  0  0  0  0  0  0  0
    6.1325   -9.0418    0.0000 O   0  0  0  0  0  0  0  0  0  0  0  0
    4.7036  -11.5168    0.0000 O   0  0  0  0  0  0  0  0  0  0  0  0
    7.5615   -9.0418    0.0000 O   0  0  0  0  0  0  0  0  0  0  0  0
   12.5628  -11.1043    0.0000 C   0  0  0  0  0  0  0  0  0  0  0  0
   12.5628  -10.2793    0.0000 O   0  0  0  0  0  0  0  0  0  0  0  0
   13.2773  -14.8168    0.0000 O   0  0  0  0  0  0  0  0  0  0  0  0
   12.5628  -15.2293    0.0000 C   0  0  0  0  0  0  0  0  0  0  0  0
   14.7062  -13.9918    0.0000 O   0  0  0  0  0  0  0  0  0  0  0  0
    8.9904   -9.8668    0.0000 O   0  0  0  0  0  0  0  0  0  0  0  0
  1  2  2  0  0  0  0
  2  3  1  0  0  0  0
  3  4  2  0  0  0  0
  4  5  1  0  0  0  0
  5  6  2  0  0  0  0
  6  1  1  0  0  0  0
  4  7  1  0  0  0  0
  7  8  1  0  0  0  0
  8  9  1  0  0  0  0
  9 10  1  0  0  0  0
 10  5  1  0  0  0  0
  8 11  1  1  0  0  0
 11 12  2  0  0  0  0
 12 13  1  0  0  0  0
 13 14  2  0  0  0  0
 14 15  1  0  0  0  0
 15 16  2  0  0  0  0
 16 11  1  0  0  0  0
 14 17  1  0  0  0  0
 17 18  1  0  0  0  0
 18 19  1  0  0  0  0
 19 20  1  0  0  0  0
 20 15  1  0  0  0  0
 18 21  1  0  0  0  0
 21 22  2  0  0  0  0
 22 23  1  0  0  0  0
 23 24  2  0  0  0  0
 24 25  1  0  0  0  0
 25 26  2  0  0  0  0
 26 21  1  0  0  0  0
  6 27  1  0  0  0  0
  2 28  1  0  0  0  0
 10 29  2  0  0  0  0
 19 30  1  0  0  0  0
 30 31  1  0  0  0  0
 23 32  1  0  0  0  0
 32 33  1  0  0  0  0
 24 34  1  0  0  0  0
  9 35  1  6  0  0  0
M  END
>  <cdx:fragmentId>
565

$$$$
