39021.cdx
  Mrv1902 05222410262D          

 37 39  0  0  0  0            999 V2000
    3.2132   -4.4250    0.0000 C   0  0  2  0  0  0  0  0  0  0  0  0
    2.4971   -4.8347    0.0000 C   0  0  2  0  0  0  0  0  0  0  0  0
    2.4939   -5.6597    0.0000 C   0  0  1  0  0  0  0  0  0  0  0  0
    3.2068   -6.0749    0.0000 C   0  0  2  0  0  0  0  0  0  0  0  0
    3.9228   -5.6652    0.0000 C   0  0  1  0  0  0  0  0  0  0  0  0
    3.9260   -4.8402    0.0000 O   0  0  0  0  0  0  0  0  0  0  0  0
    3.2163   -3.6000    0.0000 C   0  0  0  0  0  0  0  0  0  0  0  0
    4.6357   -6.0805    0.0000 O   0  0  0  0  0  0  0  0  0  0  0  0
    1.7779   -6.0694    0.0000 O   0  0  0  0  0  0  0  0  0  0  0  0
    1.7842   -4.4194    0.0000 O   0  0  0  0  0  0  0  0  0  0  0  0
    3.2036   -6.8999    0.0000 O   0  0  0  0  0  0  0  0  0  0  0  0
    5.0597   -6.7882    0.0000 C   0  0  0  0  0  0  0  0  0  0  0  0
    5.8846   -6.7749    0.0000 C   0  0  0  0  0  0  0  0  0  0  0  0
    6.3085   -7.4827    0.0000 C   0  0  0  0  0  0  0  0  0  0  0  0
    5.9076   -8.2037    0.0000 C   0  0  0  0  0  0  0  0  0  0  0  0
    5.0827   -8.2169    0.0000 C   0  0  0  0  0  0  0  0  0  0  0  0
    4.6587   -7.5092    0.0000 C   0  0  0  0  0  0  0  0  0  0  0  0
    3.8338   -7.5225    0.0000 O   0  0  0  0  0  0  0  0  0  0  0  0
    3.4329   -8.2435    0.0000 C   0  0  0  0  0  0  0  0  0  0  0  0
    6.3315   -8.9114    0.0000 C   0  0  0  0  0  0  0  0  0  0  0  0
    5.9306   -9.6324    0.0000 C   0  0  0  0  0  0  0  0  0  0  0  0
    6.3545  -10.3402    0.0000 C   0  0  0  0  0  0  0  0  0  0  0  0
    5.9536  -11.0612    0.0000 O   0  0  0  0  0  0  0  0  0  0  0  0
    6.2855   -6.0539    0.0000 C   0  0  1  0  0  0  0  0  0  0  0  0
    7.1104   -6.0406    0.0000 C   0  0  0  0  0  0  0  0  0  0  0  0
    7.5113   -5.3196    0.0000 C   0  0  0  0  0  0  0  0  0  0  0  0
    7.0874   -4.6119    0.0000 C   0  0  0  0  0  0  0  0  0  0  0  0
    7.4883   -3.8908    0.0000 C   0  0  0  0  0  0  0  0  0  0  0  0
    8.3132   -3.8776    0.0000 C   0  0  0  0  0  0  0  0  0  0  0  0
    8.7372   -4.5853    0.0000 C   0  0  0  0  0  0  0  0  0  0  0  0
    8.3362   -5.3063    0.0000 C   0  0  0  0  0  0  0  0  0  0  0  0
    7.0644   -3.1831    0.0000 O   0  0  0  0  0  0  0  0  0  0  0  0
    7.4653   -2.4621    0.0000 C   0  0  0  0  0  0  0  0  0  0  0  0
    8.7142   -3.1565    0.0000 O   0  0  0  0  0  0  0  0  0  0  0  0
    5.8616   -5.3462    0.0000 C   0  0  0  0  0  0  0  0  0  0  0  0
    6.2625   -4.6251    0.0000 O   0  0  0  0  0  0  0  0  0  0  0  0
    2.5035   -3.1847    0.0000 O   0  0  0  0  0  0  0  0  0  0  0  0
  1  2  1  0  0  0  0
  2  3  1  0  0  0  0
  3  4  1  0  0  0  0
  4  5  1  0  0  0  0
  5  6  1  0  0  0  0
  6  1  1  0  0  0  0
  1  7  1  1  0  0  0
  5  8  1  1  0  0  0
  3  9  1  1  0  0  0
  2 10  1  6  0  0  0
  4 11  1  6  0  0  0
  8 12  1  0  0  0  0
 12 13  2  0  0  0  0
 13 14  1  0  0  0  0
 14 15  2  0  0  0  0
 15 16  1  0  0  0  0
 16 17  2  0  0  0  0
 17 12  1  0  0  0  0
 17 18  1  0  0  0  0
 18 19  1  0  0  0  0
 15 20  1  0  0  0  0
 20 21  2  0  0  0  0
 21 22  1  0  0  0  0
 22 23  1  0  0  0  0
 13 24  1  0  0  0  0
 24 25  1  0  0  0  0
 25 26  1  0  0  0  0
 26 27  2  0  0  0  0
 27 28  1  0  0  0  0
 28 29  2  0  0  0  0
 29 30  1  0  0  0  0
 30 31  2  0  0  0  0
 31 26  1  0  0  0  0
 28 32  1  0  0  0  0
 32 33  1  0  0  0  0
 29 34  1  0  0  0  0
 24 35  1  6  0  0  0
 35 36  1  0  0  0  0
  7 37  1  0  0  0  0
M  END
>  <cdx:fragmentId>
5

$$$$
