39033.cdx
  Mrv1902 05222410242D          

 29 31  0  0  0  0            999 V2000
    8.7980  -11.2843    0.0000 C   0  0  2  0  0  0  0  0  0  0  0  0
    8.7980  -12.1065    0.0000 C   0  0  2  0  0  0  0  0  0  0  0  0
    9.5100  -12.5175    0.0000 C   0  0  1  0  0  0  0  0  0  0  0  0
   10.2220  -12.1065    0.0000 C   0  0  2  0  0  0  0  0  0  0  0  0
   10.2220  -11.2843    0.0000 C   0  0  1  0  0  0  0  0  0  0  0  0
    9.5100  -10.8733    0.0000 O   0  0  0  0  0  0  0  0  0  0  0  0
    9.5100  -13.3397    0.0000 O   0  0  0  0  0  0  0  0  0  0  0  0
    8.0860  -10.8733    0.0000 C   0  0  0  0  0  0  0  0  0  0  0  0
   10.9340  -10.8733    0.0000 O   0  0  0  0  0  0  0  0  0  0  0  0
   10.9340  -10.0511    0.0000 C   0  0  1  0  0  0  0  0  0  0  0  0
   11.6460   -9.6401    0.0000 C   0  0  0  0  0  0  0  0  0  0  0  0
   11.6460   -8.8179    0.0000 C   0  0  0  0  0  0  0  0  0  0  0  0
   10.9340   -8.4069    0.0000 C   0  0  0  0  0  0  0  0  0  0  0  0
   10.2220   -8.8179    0.0000 C   0  0  0  0  0  0  0  0  0  0  0  0
   10.2220   -9.6401    0.0000 O   0  0  0  0  0  0  0  0  0  0  0  0
   12.4279   -9.8941    0.0000 C   0  0  2  0  0  0  0  0  0  0  0  0
   12.9111   -9.2290    0.0000 C   0  0  2  0  0  0  0  0  0  0  0  0
   12.4279   -8.5639    0.0000 C   0  0  1  0  0  0  0  0  0  0  0  0
   10.9340   -7.5847    0.0000 C   0  0  0  0  0  0  0  0  0  0  0  0
   10.2220   -7.1737    0.0000 O   0  0  0  0  0  0  0  0  0  0  0  0
   11.6460   -7.1737    0.0000 O   0  0  0  0  0  0  0  0  0  0  0  0
   10.2220   -6.3515    0.0000 C   0  0  0  0  0  0  0  0  0  0  0  0
   13.0388  -10.4442    0.0000 O   0  0  0  0  0  0  0  0  0  0  0  0
   13.7332   -9.2290    0.0000 O   0  0  0  0  0  0  0  0  0  0  0  0
   12.6819   -7.7820    0.0000 O   0  0  0  0  0  0  0  0  0  0  0  0
    8.0860  -12.5175    0.0000 O   0  0  0  0  0  0  0  0  0  0  0  0
   10.9340  -12.5175    0.0000 O   0  0  0  0  0  0  0  0  0  0  0  0
    8.0860  -10.0511    0.0000 O   0  0  0  0  0  0  0  0  0  0  0  0
   12.0168  -10.6061    0.0000 C   0  0  0  0  0  0  0  0  0  0  0  0
  1  2  1  0  0  0  0
  2  3  1  0  0  0  0
  3  4  1  0  0  0  0
  4  5  1  0  0  0  0
  5  6  1  0  0  0  0
  6  1  1  0  0  0  0
  3  7  1  1  0  0  0
  1  8  1  1  0  0  0
  5  9  1  1  0  0  0
 10  9  1  6  0  0  0
 10 11  1  0  0  0  0
 11 12  1  0  0  0  0
 12 13  1  0  0  0  0
 13 14  2  0  0  0  0
 14 15  1  0  0  0  0
 15 10  1  0  0  0  0
 11 16  1  0  0  0  0
 16 17  1  0  0  0  0
 17 18  1  0  0  0  0
 18 12  1  0  0  0  0
 13 19  1  0  0  0  0
 19 20  1  0  0  0  0
 19 21  2  0  0  0  0
 20 22  1  0  0  0  0
 16 23  1  6  0  0  0
 17 24  1  6  0  0  0
 18 25  1  6  0  0  0
  2 26  1  6  0  0  0
  4 27  1  6  0  0  0
  8 28  1  0  0  0  0
 16 29  1  0  0  0  0
M  END
>  <cdx:fragmentId>
1202

$$$$
