39035.cdx
  Mrv1902 05222410262D          

 16 15  0  0  0  0            999 V2000
   13.6826  -11.0020    0.0000 C   0  0  0  0  0  0  0  0  0  0  0  0
   12.9681  -11.4145    0.0000 C   0  0  0  0  0  0  0  0  0  0  0  0
   12.9681  -12.2395    0.0000 C   0  0  0  0  0  0  0  0  0  0  0  0
   12.2536  -11.0020    0.0000 C   0  0  0  0  0  0  0  0  0  0  0  0
   13.6826  -10.1770    0.0000 O   0  0  0  0  0  0  0  0  0  0  0  0
   14.3970  -11.4145    0.0000 O   0  0  0  0  0  0  0  0  0  0  0  0
   15.1115  -11.0020    0.0000 C   0  0  0  0  0  0  0  0  0  0  0  0
   15.8260  -11.4145    0.0000 C   0  0  0  0  0  0  0  0  0  0  0  0
   15.8260  -12.2395    0.0000 C   0  0  0  0  0  0  0  0  0  0  0  0
   16.5405  -12.6520    0.0000 C   0  0  0  0  0  0  0  0  0  0  0  0
   15.1115  -12.6520    0.0000 C   0  0  0  0  0  0  0  0  0  0  0  0
   16.5405  -11.0020    0.0000 C   0  0  0  0  0  0  0  0  0  0  0  0
   17.2549  -11.4145    0.0000 C   0  0  0  0  0  0  0  0  0  0  0  0
   17.9694  -11.0020    0.0000 C   0  0  0  0  0  0  0  0  0  0  0  0
   17.9694  -10.1770    0.0000 C   0  0  0  0  0  0  0  0  0  0  0  0
   18.6839  -11.4145    0.0000 C   0  0  0  0  0  0  0  0  0  0  0  0
  1  2  1  0  0  0  0
  2  3  1  0  0  0  0
  4  2  1  0  0  0  0
  1  5  2  0  0  0  0
  1  6  1  0  0  0  0
  7  8  1  0  0  0  0
  8  9  1  0  0  0  0
  9 10  2  0  0  0  0
  9 11  1  0  0  0  0
  8 12  1  0  0  0  0
 12 13  1  0  0  0  0
 13 14  2  0  0  0  0
 14 15  1  0  0  0  0
 14 16  1  0  0  0  0
  6  7  1  0  0  0  0
M  END
>  <cdx:fragmentId>
1344

$$$$
