390361.cdx
  Mrv1902 05222410202D          

 42 47  0  0  0  0            999 V2000
    7.9966   -6.1457    0.0000 H   0  0  0  0  0  0  0  0  0  0  0  0
    6.8534   -7.1357    0.0000 H   0  0  0  0  0  0  0  0  0  0  0  0
    4.7100   -7.5482    0.0000 O   0  0  0  0  0  0  0  0  0  0  0  0
    3.2811   -5.0732    0.0000 O   0  0  0  0  0  0  0  0  0  0  0  0
    9.7113   -3.8357    0.0000 O   0  0  0  0  0  0  0  0  0  0  0  0
    8.2824   -5.4857    0.0000 C   0  0  0  0  0  0  0  0  0  0  0  0
    8.9968   -5.0732    0.0000 C   0  0  0  0  0  0  0  0  0  0  0  0
    8.9968   -4.2482    0.0000 C   0  0  0  0  0  0  0  0  0  0  0  0
    8.2824   -3.8357    0.0000 C   0  0  0  0  0  0  0  0  0  0  0  0
    7.5679   -4.2482    0.0000 C   0  0  0  0  0  0  0  0  0  0  0  0
    7.5679   -5.0732    0.0000 C   0  0  0  0  0  0  0  0  0  0  0  0
    6.1390   -7.5482    0.0000 O   0  0  0  0  0  0  0  0  0  0  0  0
    6.1390   -5.0732    0.0000 O   0  0  0  0  0  0  0  0  0  0  0  0
    5.4245   -5.4857    0.0000 C   0  0  0  0  0  0  0  0  0  0  0  0
    4.7100   -5.0732    0.0000 C   0  0  0  0  0  0  0  0  0  0  0  0
    3.9955   -5.4857    0.0000 C   0  0  0  0  0  0  0  0  0  0  0  0
    3.9955   -6.3107    0.0000 C   0  0  0  0  0  0  0  0  0  0  0  0
    4.7100   -6.7232    0.0000 C   0  0  0  0  0  0  0  0  0  0  0  0
    5.4245   -6.3107    0.0000 C   0  0  0  0  0  0  0  0  0  0  0  0
    6.1390   -6.7232    0.0000 C   0  0  0  0  0  0  0  0  0  0  0  0
    6.8534   -6.3107    0.0000 C   0  0  2  0  0  0  0  0  0  0  0  0
    6.8534   -5.4857    0.0000 C   0  0  2  0  0  0  0  0  0  0  0  0
   10.1400   -5.7332    0.0000 O   0  0  0  0  0  0  0  0  0  0  0  0
   11.5689   -8.2082    0.0000 O   0  0  0  0  0  0  0  0  0  0  0  0
    5.1387   -9.4457    0.0000 O   0  0  0  0  0  0  0  0  0  0  0  0
    7.2821   -9.0332    0.0000 C   0  0  0  0  0  0  0  0  0  0  0  0
    6.5676   -9.4457    0.0000 C   0  0  0  0  0  0  0  0  0  0  0  0
    5.8532   -9.0332    0.0000 C   0  0  0  0  0  0  0  0  0  0  0  0
    5.8532   -8.2082    0.0000 C   0  0  0  0  0  0  0  0  0  0  0  0
    6.5676   -7.7957    0.0000 C   0  0  0  0  0  0  0  0  0  0  0  0
    7.2821   -8.2082    0.0000 C   0  0  0  0  0  0  0  0  0  0  0  0
    8.7110   -5.7332    0.0000 O   0  0  0  0  0  0  0  0  0  0  0  0
    8.7110   -8.2082    0.0000 O   0  0  0  0  0  0  0  0  0  0  0  0
    9.4255   -7.7957    0.0000 C   0  0  0  0  0  0  0  0  0  0  0  0
   10.1400   -8.2082    0.0000 C   0  0  0  0  0  0  0  0  0  0  0  0
   10.8545   -7.7957    0.0000 C   0  0  0  0  0  0  0  0  0  0  0  0
   10.8545   -6.9707    0.0000 C   0  0  0  0  0  0  0  0  0  0  0  0
   10.1400   -6.5582    0.0000 C   0  0  0  0  0  0  0  0  0  0  0  0
    9.4255   -6.9707    0.0000 C   0  0  0  0  0  0  0  0  0  0  0  0
    8.7110   -6.5582    0.0000 C   0  0  0  0  0  0  0  0  0  0  0  0
    7.9966   -6.9707    0.0000 C   0  0  1  0  0  0  0  0  0  0  0  0
    7.9966   -7.7957    0.0000 C   0  0  1  0  0  0  0  0  0  0  0  0
 41  1  1  6  0  0  0
 21  2  1  1  0  0  0
 41 21  1  0  0  0  0
 18  3  1  0  0  0  0
 16  4  1  0  0  0  0
 22 11  1  1  0  0  0
  8  5  1  0  0  0  0
 11  6  2  0  0  0  0
  7  6  1  0  0  0  0
  8  7  2  0  0  0  0
  9  8  1  0  0  0  0
 10  9  2  0  0  0  0
 11 10  1  0  0  0  0
 20 12  2  0  0  0  0
 22 13  1  0  0  0  0
 14 13  1  0  0  0  0
 19 14  2  0  0  0  0
 15 14  1  0  0  0  0
 16 15  2  0  0  0  0
 17 16  1  0  0  0  0
 18 17  2  0  0  0  0
 19 18  1  0  0  0  0
 20 19  1  0  0  0  0
 21 20  1  0  0  0  0
 22 21  1  0  0  0  0
 38 23  1  0  0  0  0
 36 24  1  0  0  0  0
 42 31  1  6  0  0  0
 28 25  1  0  0  0  0
 31 26  2  0  0  0  0
 27 26  1  0  0  0  0
 28 27  2  0  0  0  0
 29 28  1  0  0  0  0
 30 29  2  0  0  0  0
 31 30  1  0  0  0  0
 40 32  2  0  0  0  0
 42 33  1  0  0  0  0
 34 33  1  0  0  0  0
 39 34  2  0  0  0  0
 35 34  1  0  0  0  0
 36 35  2  0  0  0  0
 37 36  1  0  0  0  0
 38 37  2  0  0  0  0
 39 38  1  0  0  0  0
 40 39  1  0  0  0  0
 41 40  1  0  0  0  0
 42 41  1  0  0  0  0
M  END
>  <cdx:groupId>
127

>  <cdx:fragmentId>
45

$$$$
