39032.cdx
  Mrv1902 05222410242D          

 28 29  0  0  0  0            999 V2000
    7.5220  -12.8397    0.0000 C   0  0  0  0  0  0  0  0  0  0  0  0
    7.5220  -13.6618    0.0000 C   0  0  0  0  0  0  0  0  0  0  0  0
    8.2340  -14.0729    0.0000 C   0  0  0  0  0  0  0  0  0  0  0  0
    8.9459  -13.6618    0.0000 C   0  0  0  0  0  0  0  0  0  0  0  0
    8.9459  -12.8397    0.0000 C   0  0  0  0  0  0  0  0  0  0  0  0
    8.2340  -12.4286    0.0000 O   0  0  0  0  0  0  0  0  0  0  0  0
    8.2340  -14.8950    0.0000 O   0  0  0  0  0  0  0  0  0  0  0  0
    6.8100  -14.0729    0.0000 O   0  0  0  0  0  0  0  0  0  0  0  0
    9.6579  -14.0729    0.0000 O   0  0  0  0  0  0  0  0  0  0  0  0
    6.8100  -12.4286    0.0000 C   0  0  0  0  0  0  0  0  0  0  0  0
    6.0980  -12.8397    0.0000 O   0  0  0  0  0  0  0  0  0  0  0  0
    9.6579  -12.4286    0.0000 O   0  0  0  0  0  0  0  0  0  0  0  0
    9.6579  -11.6065    0.0000 C   0  0  0  0  0  0  0  0  0  0  0  0
   10.3699  -11.1954    0.0000 C   0  0  0  0  0  0  0  0  0  0  0  0
   10.3699  -10.3733    0.0000 C   0  0  0  0  0  0  0  0  0  0  0  0
    9.6579   -9.9622    0.0000 C   0  0  0  0  0  0  0  0  0  0  0  0
    8.9459  -10.3733    0.0000 C   0  0  0  0  0  0  0  0  0  0  0  0
    8.9459  -11.1954    0.0000 C   0  0  0  0  0  0  0  0  0  0  0  0
    8.1238  -10.3733    0.0000 O   0  0  0  0  0  0  0  0  0  0  0  0
    8.5349   -9.6613    0.0000 C   0  0  0  0  0  0  0  0  0  0  0  0
   10.7810   -9.6613    0.0000 C   0  0  0  0  0  0  0  0  0  0  0  0
   11.1921  -10.3733    0.0000 C   0  0  0  0  0  0  0  0  0  0  0  0
    8.9459   -7.9068    0.0000 C   0  0  0  0  0  0  0  0  0  0  0  0
    8.2340   -7.4958    0.0000 O   0  0  0  0  0  0  0  0  0  0  0  0
    9.6579   -7.4958    0.0000 C   0  0  0  0  0  0  0  0  0  0  0  0
    8.9459   -8.7290    0.0000 C   0  0  0  0  0  0  0  0  0  0  0  0
    9.6579   -9.1401    0.0000 C   0  0  0  0  0  0  0  0  0  0  0  0
    8.9459   -9.5511    0.0000 O   0  0  0  0  0  0  0  0  0  0  0  0
  1  2  1  0  0  0  0
  2  3  1  0  0  0  0
  3  4  1  0  0  0  0
  4  5  1  0  0  0  0
  5  6  1  0  0  0  0
  6  1  1  0  0  0  0
  3  7  1  0  0  0  0
  2  8  1  0  0  0  0
  4  9  1  0  0  0  0
  1 10  1  0  0  0  0
 10 11  1  0  0  0  0
  5 12  1  0  0  0  0
 12 13  1  0  0  0  0
 13 14  1  0  0  0  0
 14 15  1  0  0  0  0
 15 16  1  0  0  0  0
 16 17  1  0  0  0  0
 17 18  1  0  0  0  0
 18 13  1  0  0  0  0
 17 19  1  0  0  0  0
 17 20  1  0  0  0  0
 15 21  1  0  0  0  0
 15 22  1  0  0  0  0
 16 27  1  0  0  0  0
 23 24  1  0  0  0  0
 26 23  1  0  0  0  0
 23 25  1  0  0  0  0
 27 26  2  0  0  0  0
 16 28  1  0  0  0  0
M  END
>  <cdx:fragmentId>
1119

$$$$
