39036.cdx
  Mrv1902 05222410252D          

 23 24  0  0  0  0            999 V2000
    5.8583   -8.1141    0.0000 C   0  0  0  0  0  0  0  0  0  0  0  0
    5.8583   -8.9391    0.0000 C   0  0  0  0  0  0  0  0  0  0  0  0
    6.5728   -9.3516    0.0000 C   0  0  0  0  0  0  0  0  0  0  0  0
    7.2873   -8.9391    0.0000 C   0  0  0  0  0  0  0  0  0  0  0  0
    7.2873   -8.1141    0.0000 C   0  0  0  0  0  0  0  0  0  0  0  0
    6.5728   -7.7016    0.0000 O   0  0  0  0  0  0  0  0  0  0  0  0
    5.1438   -7.7016    0.0000 C   0  0  0  0  0  0  0  0  0  0  0  0
    4.4294   -8.1141    0.0000 O   0  0  0  0  0  0  0  0  0  0  0  0
    5.1438   -9.3516    0.0000 O   0  0  0  0  0  0  0  0  0  0  0  0
    6.5728  -10.1766    0.0000 O   0  0  0  0  0  0  0  0  0  0  0  0
    8.0017   -9.3516    0.0000 O   0  0  0  0  0  0  0  0  0  0  0  0
    8.0017   -7.7016    0.0000 O   0  0  0  0  0  0  0  0  0  0  0  0
    8.0017   -6.8766    0.0000 C   0  0  0  0  0  0  0  0  0  0  0  0
    8.7162   -6.4641    0.0000 C   0  0  0  0  0  0  0  0  0  0  0  0
    8.7162   -5.6391    0.0000 C   0  0  0  0  0  0  0  0  0  0  0  0
    8.0017   -5.2266    0.0000 C   0  0  0  0  0  0  0  0  0  0  0  0
    7.2873   -5.6391    0.0000 C   0  0  0  0  0  0  0  0  0  0  0  0
    7.2873   -6.4641    0.0000 C   0  0  0  0  0  0  0  0  0  0  0  0
    6.5728   -6.8766    0.0000 O   0  0  0  0  0  0  0  0  0  0  0  0
    5.8583   -6.4641    0.0000 C   0  0  0  0  0  0  0  0  0  0  0  0
    9.4307   -6.8766    0.0000 O   0  0  0  0  0  0  0  0  0  0  0  0
   10.1451   -6.4641    0.0000 C   0  0  0  0  0  0  0  0  0  0  0  0
    8.0017   -4.4016    0.0000 O   0  0  0  0  0  0  0  0  0  0  0  0
  1  2  1  0  0  0  0
  2  3  1  0  0  0  0
  3  4  1  0  0  0  0
  4  5  1  0  0  0  0
  5  6  1  0  0  0  0
  6  1  1  0  0  0  0
  1  7  1  0  0  0  0
  7  8  1  0  0  0  0
  2  9  1  0  0  0  0
  3 10  1  0  0  0  0
  4 11  1  0  0  0  0
  5 12  1  0  0  0  0
 12 13  1  0  0  0  0
 13 14  2  0  0  0  0
 14 15  1  0  0  0  0
 15 16  2  0  0  0  0
 16 17  1  0  0  0  0
 17 18  2  0  0  0  0
 18 13  1  0  0  0  0
 18 19  1  0  0  0  0
 19 20  1  0  0  0  0
 14 21  1  0  0  0  0
 21 22  1  0  0  0  0
 16 23  1  0  0  0  0
M  END
>  <cdx:fragmentId>
9

$$$$
