44.cdx
  Mrv1902 05222410272D          

 40 44  0  0  0  0            999 V2000
    7.3158   -5.3785    0.0000 C   0  0  0  0  0  0  0  0  0  0  0  0
    8.0302   -4.9660    0.0000 C   0  0  1  0  0  0  0  0  0  0  0  0
    8.7447   -5.3785    0.0000 C   0  0  2  0  0  0  0  0  0  0  0  0
    8.7447   -6.2035    0.0000 C   0  0  0  0  0  0  0  0  0  0  0  0
    8.0302   -6.6160    0.0000 C   0  0  2  0  0  0  0  0  0  0  0  0
    7.3158   -6.2035    0.0000 O   0  0  0  0  0  0  0  0  0  0  0  0
    8.0302   -7.4410    0.0000 C   0  0  0  0  0  0  0  0  0  0  0  0
    7.3158   -7.8535    0.0000 C   0  0  0  0  0  0  0  0  0  0  0  0
    7.3158   -8.6785    0.0000 C   0  0  0  0  0  0  0  0  0  0  0  0
    8.0302   -9.0910    0.0000 C   0  0  0  0  0  0  0  0  0  0  0  0
    8.7447   -8.6785    0.0000 C   0  0  0  0  0  0  0  0  0  0  0  0
    8.7447   -7.8535    0.0000 C   0  0  0  0  0  0  0  0  0  0  0  0
    9.4592   -7.4410    0.0000 O   0  0  0  0  0  0  0  0  0  0  0  0
   10.1737   -7.8535    0.0000 C   0  0  0  0  0  0  0  0  0  0  0  0
   10.1737   -8.6785    0.0000 C   0  0  0  0  0  0  0  0  0  0  0  0
    9.4592   -9.0910    0.0000 C   0  0  0  0  0  0  0  0  0  0  0  0
    9.4592   -9.9160    0.0000 O   0  0  0  0  0  0  0  0  0  0  0  0
   10.8882   -7.4410    0.0000 C   0  0  0  0  0  0  0  0  0  0  0  0
   10.8882   -6.6160    0.0000 C   0  0  0  0  0  0  0  0  0  0  0  0
   11.6026   -6.2035    0.0000 C   0  0  0  0  0  0  0  0  0  0  0  0
   12.3171   -6.6160    0.0000 C   0  0  0  0  0  0  0  0  0  0  0  0
   12.3171   -7.4410    0.0000 C   0  0  0  0  0  0  0  0  0  0  0  0
   11.6026   -7.8535    0.0000 C   0  0  0  0  0  0  0  0  0  0  0  0
   13.0316   -6.2035    0.0000 O   0  0  0  0  0  0  0  0  0  0  0  0
    8.0302   -9.9160    0.0000 O   0  0  0  0  0  0  0  0  0  0  0  0
    6.6013   -9.0910    0.0000 C   0  0  1  0  0  0  0  0  0  0  0  0
    6.6013   -9.9160    0.0000 C   0  0  0  0  0  0  0  0  0  0  0  0
    5.8868  -10.3285    0.0000 C   0  0  2  0  0  0  0  0  0  0  0  0
    5.1724   -9.9160    0.0000 C   0  0  1  0  0  0  0  0  0  0  0  0
    5.1724   -9.0910    0.0000 C   0  0  0  0  0  0  0  0  0  0  0  0
    5.8868   -8.6785    0.0000 O   0  0  0  0  0  0  0  0  0  0  0  0
    4.4579   -8.6785    0.0000 C   0  0  0  0  0  0  0  0  0  0  0  0
    3.7434   -9.0910    0.0000 O   0  0  0  0  0  0  0  0  0  0  0  0
    4.4579  -10.3285    0.0000 O   0  0  0  0  0  0  0  0  0  0  0  0
    5.8868  -11.1535    0.0000 O   0  0  0  0  0  0  0  0  0  0  0  0
    7.3158  -10.3285    0.0000 O   0  0  0  0  0  0  0  0  0  0  0  0
    6.6013   -7.4410    0.0000 O   0  0  0  0  0  0  0  0  0  0  0  0
    9.4592   -6.6160    0.0000 O   0  0  0  0  0  0  0  0  0  0  0  0
    9.4592   -4.9660    0.0000 O   0  0  0  0  0  0  0  0  0  0  0  0
    8.0302   -4.1410    0.0000 O   0  0  0  0  0  0  0  0  0  0  0  0
  1  2  1  0  0  0  0
  2  3  1  0  0  0  0
  3  4  1  0  0  0  0
  4  5  1  0  0  0  0
  5  6  1  0  0  0  0
  1  6  1  0  0  0  0
  5  7  1  1  0  0  0
  7  8  2  0  0  0  0
  8  9  1  0  0  0  0
  9 10  2  0  0  0  0
 10 11  1  0  0  0  0
 11 12  2  0  0  0  0
  7 12  1  0  0  0  0
 12 13  1  0  0  0  0
 13 14  1  0  0  0  0
 14 15  2  0  0  0  0
 15 16  1  0  0  0  0
 11 16  1  0  0  0  0
 16 17  2  0  0  0  0
 14 18  1  0  0  0  0
 18 19  2  0  0  0  0
 19 20  1  0  0  0  0
 20 21  2  0  0  0  0
 21 22  1  0  0  0  0
 22 23  2  0  0  0  0
 18 23  1  0  0  0  0
 21 24  1  0  0  0  0
 10 25  1  0  0  0  0
 26  9  1  1  0  0  0
 26 27  1  0  0  0  0
 27 28  1  0  0  0  0
 28 29  1  0  0  0  0
 29 30  1  0  0  0  0
 30 31  1  0  0  0  0
 26 31  1  0  0  0  0
 30 32  1  0  0  0  0
 32 33  1  0  0  0  0
 29 34  1  6  0  0  0
 28 35  1  1  0  0  0
 27 36  1  0  0  0  0
  8 37  1  0  0  0  0
  4 38  1  0  0  0  0
  3 39  1  1  0  0  0
  2 40  1  6  0  0  0
M  END
>  <cdx:fragmentId>
762

$$$$
