39049.cdx
  Mrv1902 05222410192D          

 18 17  0  0  0  0            999 V2000
   12.0845   -8.4791    0.0000 C   0  0  0  0  0  0  0  0  0  0  0  0
   11.3700   -8.8916    0.0000 C   0  0  0  0  0  0  0  0  0  0  0  0
   10.6556   -8.4791    0.0000 C   0  0  0  0  0  0  0  0  0  0  0  0
    9.9411   -8.8916    0.0000 C   0  0  0  0  0  0  0  0  0  0  0  0
    9.2266   -8.4791    0.0000 C   0  0  0  0  0  0  0  0  0  0  0  0
    8.5122   -8.8916    0.0000 C   0  0  0  0  0  0  0  0  0  0  0  0
    7.7977   -8.4791    0.0000 C   0  0  0  0  0  0  0  0  0  0  0  0
    7.0832   -8.8916    0.0000 C   0  0  0  0  0  0  0  0  0  0  0  0
    6.3687   -8.4791    0.0000 C   0  0  0  0  0  0  0  0  0  0  0  0
    5.6543   -8.8916    0.0000 C   0  0  0  0  0  0  0  0  0  0  0  0
    4.9398   -8.4791    0.0000 C   0  0  0  0  0  0  0  0  0  0  0  0
    4.2253   -8.8916    0.0000 C   0  0  0  0  0  0  0  0  0  0  0  0
    3.5109   -8.4791    0.0000 C   0  0  0  0  0  0  0  0  0  0  0  0
    2.7964   -8.8916    0.0000 C   0  0  0  0  0  0  0  0  0  0  0  0
    2.0819   -8.4791    0.0000 C   0  0  0  0  0  0  0  0  0  0  0  0
    1.3674   -8.8916    0.0000 C   0  0  0  0  0  0  0  0  0  0  0  0
   12.0845   -7.6541    0.0000 O   0  0  0  0  0  0  0  0  0  0  0  0
   12.7990   -8.8916    0.0000 O   0  0  0  0  0  0  0  0  0  0  0  0
  1  2  1  0  0  0  0
  2  3  2  0  0  0  0
  3  4  1  0  0  0  0
  4  5  2  0  0  0  0
  5  6  1  0  0  0  0
  6  7  1  0  0  0  0
  7  8  1  0  0  0  0
  8  9  1  0  0  0  0
  9 10  1  0  0  0  0
 10 11  1  0  0  0  0
 11 12  1  0  0  0  0
 12 13  1  0  0  0  0
 13 14  1  0  0  0  0
 14 15  1  0  0  0  0
 15 16  1  0  0  0  0
  1 17  2  0  0  0  0
  1 18  1  0  0  0  0
M  END
>  <cdx:fragmentId>
325

$$$$
