39046.cdx
  Mrv1902 05222410262D          

 38 41  0  0  0  0            999 V2000
    8.9351   -4.9599    0.0000 O   0  0  0  0  0  0  0  0  0  0  0  0
    7.3091   -8.1204    0.0000 C   0  0  0  0  0  0  0  0  0  0  0  0
    8.0215   -8.5307    0.0000 C   0  0  0  0  0  0  0  0  0  0  0  0
    8.0225   -9.3528    0.0000 C   0  0  0  0  0  0  0  0  0  0  0  0
    7.3110   -9.7647    0.0000 C   0  0  0  0  0  0  0  0  0  0  0  0
    6.5985   -9.3544    0.0000 C   0  0  0  0  0  0  0  0  0  0  0  0
    6.5976   -8.5323    0.0000 C   0  0  0  0  0  0  0  0  0  0  0  0
    8.7473   -7.0789    0.0000 C   0  0  0  0  0  0  0  0  0  0  0  0
    9.2095   -6.3990    0.0000 O   0  0  0  0  0  0  0  0  0  0  0  0
    8.7056   -5.7493    0.0000 C   0  0  0  0  0  0  0  0  0  0  0  0
    7.9321   -6.0277    0.0000 C   0  0  2  0  0  0  0  0  0  0  0  0
    7.9578   -6.8495    0.0000 C   0  0  1  0  0  0  0  0  0  0  0  0
    7.3081   -7.2983    0.0000 C   0  0  0  0  0  0  0  0  0  0  0  0
    7.3119  -10.5868    0.0000 O   0  0  0  0  0  0  0  0  0  0  0  0
    8.7349   -9.7630    0.0000 O   0  0  0  0  0  0  0  0  0  0  0  0
    9.4597   -9.3688    0.0000 C   0  0  0  0  0  0  0  0  0  0  0  0
    7.9044   -5.2325    0.0000 O   0  0  0  0  0  0  0  0  0  0  0  0
    7.0251   -3.8431    0.0000 O   0  0  0  0  0  0  0  0  0  0  0  0
   10.6927   -2.9815    0.0000 O   0  0  0  0  0  0  0  0  0  0  0  0
    9.4316   -2.3201    0.0000 O   0  0  0  0  0  0  0  0  0  0  0  0
    7.7887   -2.3869    0.0000 O   0  0  0  0  0  0  0  0  0  0  0  0
   10.3109   -3.7096    0.0000 C   0  0  0  0  0  0  0  0  0  0  0  0
    7.8465   -3.8097    0.0000 C   0  0  2  0  0  0  0  0  0  0  0  0
    8.2284   -3.0816    0.0000 C   0  0  2  0  0  0  0  0  0  0  0  0
    9.0498   -3.0482    0.0000 C   0  0  1  0  0  0  0  0  0  0  0  0
    9.4895   -3.7429    0.0000 C   0  0  2  0  0  0  0  0  0  0  0  0
    9.1076   -4.4710    0.0000 O   0  0  0  0  0  0  0  0  0  0  0  0
    8.2862   -4.5044    0.0000 C   0  0  1  0  0  0  0  0  0  0  0  0
    7.2235   -5.5916    0.0000 C   0  0  0  0  0  0  0  0  0  0  0  0
    6.5062   -5.9933    0.0000 C   0  0  0  0  0  0  0  0  0  0  0  0
    6.4954   -6.8153    0.0000 C   0  0  0  0  0  0  0  0  0  0  0  0
    5.7781   -7.2170    0.0000 C   0  0  0  0  0  0  0  0  0  0  0  0
    5.0715   -6.7967    0.0000 C   0  0  0  0  0  0  0  0  0  0  0  0
    5.0823   -5.9746    0.0000 C   0  0  0  0  0  0  0  0  0  0  0  0
    5.7996   -5.5729    0.0000 C   0  0  0  0  0  0  0  0  0  0  0  0
    4.3542   -7.1983    0.0000 O   0  0  0  0  0  0  0  0  0  0  0  0
    4.3758   -5.5542    0.0000 O   0  0  0  0  0  0  0  0  0  0  0  0
    3.6585   -5.9559    0.0000 C   0  0  0  0  0  0  0  0  0  0  0  0
 11 29  1  1  0  0  0
 11 17  1  6  0  0  0
 12 13  1  6  0  0  0
 10  1  2  0  0  0  0
  8 12  1  0  0  0  0
  9  8  1  0  0  0  0
 10  9  1  0  0  0  0
 11 10  1  0  0  0  0
 12 11  1  0  0  0  0
  2 13  1  0  0  0  0
  2  3  2  0  0  0  0
  3  4  1  0  0  0  0
  4  5  2  0  0  0  0
  5  6  1  0  0  0  0
  6  7  2  0  0  0  0
  7  2  1  0  0  0  0
  5 14  1  0  0  0  0
  4 15  1  0  0  0  0
 15 16  1  0  0  0  0
 28 17  1  1  0  0  0
 23 18  1  6  0  0  0
 22 19  1  0  0  0  0
 25 20  1  6  0  0  0
 24 21  1  1  0  0  0
 26 22  1  1  0  0  0
 23 28  1  0  0  0  0
 24 23  1  0  0  0  0
 25 24  1  0  0  0  0
 26 25  1  0  0  0  0
 27 26  1  0  0  0  0
 28 27  1  0  0  0  0
 29 30  1  0  0  0  0
 30 31  2  0  0  0  0
 31 32  1  0  0  0  0
 32 33  2  0  0  0  0
 33 34  1  0  0  0  0
 34 35  2  0  0  0  0
 35 30  1  0  0  0  0
 33 36  1  0  0  0  0
 34 37  1  0  0  0  0
 37 38  1  0  0  0  0
M  END
>  <cdx:fragmentId>
11210

$$$$
