39047.cdx
  Mrv1902 05222410262D          

 43 47  0  0  0  0            999 V2000
   16.1179   -8.8072    0.0000 C   0  0  0  0  0  0  0  0  0  0  0  0
   12.2204  -10.6718    0.0000 C   0  0  0  0  0  0  0  0  0  0  0  0
   11.5060  -11.0843    0.0000 C   0  0  0  0  0  0  0  0  0  0  0  0
   11.5060  -11.9093    0.0000 C   0  0  1  0  0  0  0  0  0  0  0  0
   12.2204  -12.3218    0.0000 C   0  0  0  0  0  0  0  0  0  0  0  0
   12.9349  -11.9093    0.0000 C   0  0  2  0  0  0  0  0  0  0  0  0
   13.6494  -12.3218    0.0000 C   0  0  2  0  0  0  0  0  0  0  0  0
   14.3638  -11.9093    0.0000 C   0  0  0  0  0  0  0  0  0  0  0  0
   14.3638  -11.0843    0.0000 C   0  0  1  0  0  0  0  0  0  0  0  0
   15.0783  -10.6718    0.0000 C   0  0  2  0  0  0  0  0  0  0  0  0
   15.8629  -10.9267    0.0000 C   0  0  0  0  0  0  0  0  0  0  0  0
   16.3479  -10.2593    0.0000 C   0  0  0  0  0  0  0  0  0  0  0  0
   15.8629   -9.5919    0.0000 C   0  0  1  0  0  0  0  0  0  0  0  0
   15.0783   -9.8468    0.0000 C   0  0  1  0  0  0  0  0  0  0  0  0
   14.3638   -9.4343    0.0000 C   0  0  1  0  0  0  0  0  0  0  0  0
   13.6494   -9.8468    0.0000 C   0  0  0  0  0  0  0  0  0  0  0  0
   13.6494  -10.6718    0.0000 C   0  0  2  0  0  0  0  0  0  0  0  0
   12.9349  -11.0843    0.0000 C   0  0  1  0  0  0  0  0  0  0  0  0
   15.0783  -11.4968    0.0000 C   0  0  0  0  0  0  0  0  0  0  0  0
   12.9349  -10.2593    0.0000 C   0  0  0  0  0  0  0  0  0  0  0  0
   14.3638  -10.2593    0.0000 C   0  0  0  0  0  0  0  0  0  0  0  0
   12.6329  -13.0363    0.0000 C   0  0  0  0  0  0  0  0  0  0  0  0
   11.8079  -13.0363    0.0000 C   0  0  0  0  0  0  0  0  0  0  0  0
   14.3638   -8.6093    0.0000 O   0  0  0  0  0  0  0  0  0  0  0  0
   10.7915  -12.3218    0.0000 O   0  0  0  0  0  0  0  0  0  0  0  0
   12.9349  -12.7343    0.0000 H   0  0  0  0  0  0  0  0  0  0  0  0
   13.6494  -11.4968    0.0000 H   0  0  0  0  0  0  0  0  0  0  0  0
   15.1646   -9.0263    0.0000 H   0  0  0  0  0  0  0  0  0  0  0  0
   16.6778   -9.4628    0.0000 H   0  0  0  0  0  0  0  0  0  0  0  0
   13.6494  -13.1468    0.0000 O   0  0  0  0  0  0  0  0  0  0  0  0
   13.2368  -13.8613    0.0000 C   0  0  2  0  0  0  0  0  0  0  0  0
   12.4118  -13.8612    0.0000 O   0  0  0  0  0  0  0  0  0  0  0  0
   11.9993  -14.5756    0.0000 C   0  0  1  0  0  0  0  0  0  0  0  0
   12.4117  -15.2901    0.0000 C   0  0  2  0  0  0  0  0  0  0  0  0
   13.2367  -15.2902    0.0000 C   0  0  1  0  0  0  0  0  0  0  0  0
   13.6493  -14.5758    0.0000 C   0  0  1  0  0  0  0  0  0  0  0  0
   11.1743  -14.5756    0.0000 C   0  0  0  0  0  0  0  0  0  0  0  0
   13.6492  -16.0047    0.0000 O   0  0  0  0  0  0  0  0  0  0  0  0
   11.9992  -16.0046    0.0000 O   0  0  0  0  0  0  0  0  0  0  0  0
   14.4743  -14.5758    0.0000 O   0  0  0  0  0  0  0  0  0  0  0  0
   10.7617  -15.2900    0.0000 O   0  0  0  0  0  0  0  0  0  0  0  0
   15.5658   -8.1942    0.0000 O   0  0  0  0  0  0  0  0  0  0  0  0
   16.9249   -8.6357    0.0000 C   0  0  0  0  0  0  0  0  0  0  0  0
  2  3  1  0  0  0  0
  3  4  1  0  0  0  0
  4  5  1  0  0  0  0
  5  6  1  0  0  0  0
  6  7  1  0  0  0  0
  7  8  1  0  0  0  0
  8  9  1  0  0  0  0
  9 10  1  0  0  0  0
 10 11  1  0  0  0  0
 11 12  1  0  0  0  0
 13 12  1  0  0  0  0
 13 14  1  0  0  0  0
 10 14  1  0  0  0  0
 14 15  1  0  0  0  0
 15 16  1  0  0  0  0
 16 17  1  0  0  0  0
  9 17  1  0  0  0  0
 17 18  1  0  0  0  0
  6 18  1  0  0  0  0
  2 18  1  0  0  0  0
 10 19  1  6  0  0  0
 18 20  1  1  0  0  0
  9 21  1  1  0  0  0
  5 22  1  0  0  0  0
  5 23  1  0  0  0  0
 15 24  1  1  0  0  0
  4 25  1  1  0  0  0
  1 13  1  0  0  0  0
  6 26  1  6  0  0  0
 17 27  1  6  0  0  0
 14 28  1  1  0  0  0
 13 29  1  6  0  0  0
  7 30  1  6  0  0  0
 31 30  1  1  0  0  0
 31 32  1  0  0  0  0
 32 33  1  0  0  0  0
 33 34  1  0  0  0  0
 34 35  1  0  0  0  0
 35 36  1  0  0  0  0
 36 31  1  0  0  0  0
 33 37  1  1  0  0  0
 35 38  1  1  0  0  0
 34 39  1  6  0  0  0
 36 40  1  6  0  0  0
 37 41  1  0  0  0  0
  1 42  2  0  0  0  0
  1 43  1  0  0  0  0
M  END
>  <cdx:fragmentId>
31943

$$$$
