39048.cdx
  Mrv1902 05222410192D          

 67 73  0  0  0  0            999 V2000
   18.3575   -4.8849    0.0000 O   0  0  0  0  0  0  0  0  0  0  0  0
   17.6371   -4.4830    0.0000 C   0  0  2  0  0  0  0  0  0  0  0  0
   17.6249   -3.6581    0.0000 C   0  0  1  0  0  0  0  0  0  0  0  0
   18.3332   -3.2351    0.0000 C   0  0  2  0  0  0  0  0  0  0  0  0
   19.0537   -3.6370    0.0000 C   0  0  1  0  0  0  0  0  0  0  0  0
   19.0659   -4.4619    0.0000 C   0  0  0  0  0  0  0  0  0  0  0  0
   16.9045   -3.2561    0.0000 O   0  0  0  0  0  0  0  0  0  0  0  0
   18.3211   -2.4102    0.0000 O   0  0  0  0  0  0  0  0  0  0  0  0
   19.7620   -3.2140    0.0000 O   0  0  0  0  0  0  0  0  0  0  0  0
   16.9288   -4.9060    0.0000 O   0  0  0  0  0  0  0  0  0  0  0  0
   16.9278   -5.7278    0.0000 C   0  0  0  0  0  0  0  0  0  0  0  0
   16.2317   -6.9757    0.0000 O   0  0  0  0  0  0  0  0  0  0  0  0
   16.2195   -6.1508    0.0000 C   0  0  1  0  0  0  0  0  0  0  0  0
   15.4991   -5.7489    0.0000 C   0  0  2  0  0  0  0  0  0  0  0  0
   14.7907   -6.1718    0.0000 C   0  0  1  0  0  0  0  0  0  0  0  0
   14.8029   -6.9968    0.0000 C   0  0  2  0  0  0  0  0  0  0  0  0
   15.5234   -7.3987    0.0000 C   0  0  2  0  0  0  0  0  0  0  0  0
   14.0946   -7.4197    0.0000 O   0  0  0  0  0  0  0  0  0  0  0  0
   14.0703   -5.7699    0.0000 O   0  0  0  0  0  0  0  0  0  0  0  0
   15.4869   -4.9240    0.0000 O   0  0  0  0  0  0  0  0  0  0  0  0
   15.5511   -8.2232    0.0000 O   0  0  0  0  0  0  0  0  0  0  0  0
   16.1179   -8.8072    0.0000 C   0  0  2  0  0  0  0  0  0  0  0  0
   12.2204  -10.6718    0.0000 C   0  0  0  0  0  0  0  0  0  0  0  0
   11.5060  -11.0843    0.0000 C   0  0  0  0  0  0  0  0  0  0  0  0
   11.5060  -11.9093    0.0000 C   0  0  1  0  0  0  0  0  0  0  0  0
   12.2204  -12.3218    0.0000 C   0  0  0  0  0  0  0  0  0  0  0  0
   12.9349  -11.9093    0.0000 C   0  0  2  0  0  0  0  0  0  0  0  0
   13.6494  -12.3218    0.0000 C   0  0  2  0  0  0  0  0  0  0  0  0
   14.3638  -11.9093    0.0000 C   0  0  0  0  0  0  0  0  0  0  0  0
   14.3638  -11.0843    0.0000 C   0  0  1  0  0  0  0  0  0  0  0  0
   15.0783  -10.6718    0.0000 C   0  0  2  0  0  0  0  0  0  0  0  0
   15.8629  -10.9267    0.0000 C   0  0  0  0  0  0  0  0  0  0  0  0
   16.3479  -10.2593    0.0000 C   0  0  0  0  0  0  0  0  0  0  0  0
   15.8629   -9.5919    0.0000 C   0  0  1  0  0  0  0  0  0  0  0  0
   15.0783   -9.8468    0.0000 C   0  0  1  0  0  0  0  0  0  0  0  0
   14.3638   -9.4343    0.0000 C   0  0  1  0  0  0  0  0  0  0  0  0
   13.6494   -9.8468    0.0000 C   0  0  0  0  0  0  0  0  0  0  0  0
   13.6494  -10.6718    0.0000 C   0  0  2  0  0  0  0  0  0  0  0  0
   12.9349  -11.0843    0.0000 C   0  0  1  0  0  0  0  0  0  0  0  0
   15.0783  -11.4968    0.0000 C   0  0  0  0  0  0  0  0  0  0  0  0
   12.9349  -10.2593    0.0000 C   0  0  0  0  0  0  0  0  0  0  0  0
   14.3638  -10.2593    0.0000 C   0  0  0  0  0  0  0  0  0  0  0  0
   12.6329  -13.0363    0.0000 C   0  0  0  0  0  0  0  0  0  0  0  0
   11.8079  -13.0363    0.0000 C   0  0  0  0  0  0  0  0  0  0  0  0
   14.3638   -8.6093    0.0000 O   0  0  0  0  0  0  0  0  0  0  0  0
   10.7915  -12.3218    0.0000 O   0  0  0  0  0  0  0  0  0  0  0  0
   12.9349  -12.7343    0.0000 H   0  0  0  0  0  0  0  0  0  0  0  0
   13.6494  -11.4968    0.0000 H   0  0  0  0  0  0  0  0  0  0  0  0
   15.1646   -9.0263    0.0000 H   0  0  0  0  0  0  0  0  0  0  0  0
   16.6778   -9.4628    0.0000 H   0  0  0  0  0  0  0  0  0  0  0  0
   16.9249   -8.6357    0.0000 C   0  0  0  0  0  0  0  0  0  0  0  0
   17.4769   -9.2488    0.0000 C   0  0  0  0  0  0  0  0  0  0  0  0
   18.2839   -9.0773    0.0000 C   0  0  0  0  0  0  0  0  0  0  0  0
   18.8359   -9.6904    0.0000 C   0  0  0  0  0  0  0  0  0  0  0  0
   19.6429   -9.5189    0.0000 C   0  0  0  0  0  0  0  0  0  0  0  0
   18.5810  -10.4750    0.0000 C   0  0  0  0  0  0  0  0  0  0  0  0
   16.3728   -8.0226    0.0000 C   0  0  0  0  0  0  0  0  0  0  0  0
   13.6494  -13.1468    0.0000 O   0  0  0  0  0  0  0  0  0  0  0  0
   13.2621  -13.8753    0.0000 C   0  0  2  0  0  0  0  0  0  0  0  0
   12.4376  -13.9041    0.0000 O   0  0  0  0  0  0  0  0  0  0  0  0
   12.0504  -14.6326    0.0000 C   0  0  0  0  0  0  0  0  0  0  0  0
   12.4876  -15.3322    0.0000 C   0  0  2  0  0  0  0  0  0  0  0  0
   13.3121  -15.3033    0.0000 C   0  0  1  0  0  0  0  0  0  0  0  0
   13.6994  -14.5749    0.0000 C   0  0  1  0  0  0  0  0  0  0  0  0
   13.7494  -16.0029    0.0000 O   0  0  0  0  0  0  0  0  0  0  0  0
   14.5239  -14.5460    0.0000 O   0  0  0  0  0  0  0  0  0  0  0  0
   12.1004  -16.0607    0.0000 O   0  0  0  0  0  0  0  0  0  0  0  0
  1  2  1  0  0  0  0
  2  3  1  0  0  0  0
  3  4  1  0  0  0  0
  4  5  1  0  0  0  0
  5  6  1  0  0  0  0
  1  6  1  0  0  0  0
  3  7  1  6  0  0  0
  4  8  1  1  0  0  0
  5  9  1  6  0  0  0
 12 13  1  0  0  0  0
 13 14  1  0  0  0  0
 14 15  1  0  0  0  0
 15 16  1  0  0  0  0
 16 17  1  0  0  0  0
 12 17  1  0  0  0  0
 16 18  1  6  0  0  0
 15 19  1  1  0  0  0
 14 20  1  6  0  0  0
 23 24  1  0  0  0  0
 24 25  1  0  0  0  0
 25 26  1  0  0  0  0
 26 27  1  0  0  0  0
 27 28  1  0  0  0  0
 28 29  1  0  0  0  0
 29 30  1  0  0  0  0
 30 31  1  0  0  0  0
 31 32  1  0  0  0  0
 32 33  1  0  0  0  0
 34 33  1  0  0  0  0
 34 35  1  0  0  0  0
 31 35  1  0  0  0  0
 35 36  1  0  0  0  0
 36 37  1  0  0  0  0
 37 38  1  0  0  0  0
 30 38  1  0  0  0  0
 38 39  1  0  0  0  0
 27 39  1  0  0  0  0
 23 39  1  0  0  0  0
 31 40  1  6  0  0  0
 39 41  1  1  0  0  0
 30 42  1  1  0  0  0
 26 43  1  0  0  0  0
 26 44  1  0  0  0  0
 36 45  1  1  0  0  0
 25 46  1  1  0  0  0
 22 34  1  0  0  0  0
 17 21  1  1  0  0  0
 13 11  1  1  0  0  0
  2 10  1  1  0  0  0
 27 47  1  6  0  0  0
 38 48  1  6  0  0  0
 35 49  1  1  0  0  0
 34 50  1  6  0  0  0
 10 11  1  0  0  0  0
 22 51  1  0  0  0  0
 51 52  1  0  0  0  0
 52 53  1  0  0  0  0
 53 54  2  0  0  0  0
 54 55  1  0  0  0  0
 54 56  1  0  0  0  0
 22 57  1  6  0  0  0
 22 21  1  1  0  0  0
 28 58  1  6  0  0  0
 59 58  1  1  0  0  0
 59 60  1  0  0  0  0
 60 61  1  0  0  0  0
 61 62  1  0  0  0  0
 62 63  1  0  0  0  0
 63 64  1  0  0  0  0
 64 59  1  0  0  0  0
 63 65  1  1  0  0  0
 64 66  1  6  0  0  0
 62 67  1  6  0  0  0
M  END
>  <cdx:fragmentId>
31989

$$$$
