43.cdx
  Mrv1902 05222410282D          

 12 13  0  0  0  0            999 V2000
    8.1732   -6.9269    0.0000 C   0  0  0  0  0  0  0  0  0  0  0  0
    8.8877   -7.3394    0.0000 C   0  0  0  0  0  0  0  0  0  0  0  0
    8.8877   -8.1644    0.0000 C   0  0  0  0  0  0  0  0  0  0  0  0
    8.1732   -8.5769    0.0000 C   0  0  0  0  0  0  0  0  0  0  0  0
    7.4588   -8.1644    0.0000 C   0  0  0  0  0  0  0  0  0  0  0  0
    6.7443   -8.5769    0.0000 C   0  0  0  0  0  0  0  0  0  0  0  0
    6.0298   -8.1644    0.0000 C   0  0  0  0  0  0  0  0  0  0  0  0
    6.0298   -7.3394    0.0000 C   0  0  0  0  0  0  0  0  0  0  0  0
    6.7443   -6.9269    0.0000 C   0  0  0  0  0  0  0  0  0  0  0  0
    7.4588   -7.3394    0.0000 C   0  0  0  0  0  0  0  0  0  0  0  0
    8.1732   -6.1019    0.0000 C   0  0  0  0  0  0  0  0  0  0  0  0
    8.8877   -5.6894    0.0000 O   0  0  0  0  0  0  0  0  0  0  0  0
  1  2  1  0  0  0  0
  2  3  2  0  0  0  0
  3  4  1  0  0  0  0
  4  5  2  0  0  0  0
  5  6  1  0  0  0  0
  6  7  2  0  0  0  0
  7  8  1  0  0  0  0
  8  9  2  0  0  0  0
  9 10  1  0  0  0  0
  1 10  2  0  0  0  0
  5 10  1  0  0  0  0
 11 12  1  0  0  0  0
  1 11  1  0  0  0  0
M  END
>  <cdx:groupId>
757

>  <cdx:fragmentId>
723

$$$$
