39045.cdx
  Mrv1902 05222410262D          

 39 42  0  0  0  0            999 V2000
    9.2334   -5.0088    0.0000 O   0  0  0  0  0  0  0  0  0  0  0  0
    7.5809   -8.1383    0.0000 C   0  0  0  0  0  0  0  0  0  0  0  0
    8.2975   -8.5414    0.0000 C   0  0  0  0  0  0  0  0  0  0  0  0
    8.3066   -9.3635    0.0000 C   0  0  0  0  0  0  0  0  0  0  0  0
    7.5992   -9.7825    0.0000 C   0  0  0  0  0  0  0  0  0  0  0  0
    6.8827   -9.3794    0.0000 C   0  0  0  0  0  0  0  0  0  0  0  0
    6.8736   -8.5573    0.0000 C   0  0  0  0  0  0  0  0  0  0  0  0
    9.0412   -7.1274    0.0000 C   0  0  0  0  0  0  0  0  0  0  0  0
    9.5048   -6.4485    0.0000 O   0  0  0  0  0  0  0  0  0  0  0  0
    9.0023   -5.7978    0.0000 C   0  0  0  0  0  0  0  0  0  0  0  0
    8.2282   -6.0746    0.0000 C   0  0  2  0  0  0  0  0  0  0  0  0
    8.2522   -6.8963    0.0000 C   0  0  1  0  0  0  0  0  0  0  0  0
    7.5718   -7.3162    0.0000 C   0  0  0  0  0  0  0  0  0  0  0  0
    7.6084  -10.6046    0.0000 O   0  0  0  0  0  0  0  0  0  0  0  0
    9.0231   -9.7666    0.0000 O   0  0  0  0  0  0  0  0  0  0  0  0
    9.7439   -9.3652    0.0000 C   0  0  0  0  0  0  0  0  0  0  0  0
    8.2282   -5.2518    0.0000 O   0  0  0  0  0  0  0  0  0  0  0  0
    7.4651   -5.6641    0.0000 C   0  0  0  0  0  0  0  0  0  0  0  0
    6.7593   -6.0857    0.0000 C   0  0  0  0  0  0  0  0  0  0  0  0
    6.7715   -6.9078    0.0000 C   0  0  0  0  0  0  0  0  0  0  0  0
    6.0657   -7.3293    0.0000 C   0  0  0  0  0  0  0  0  0  0  0  0
    5.3477   -6.9289    0.0000 C   0  0  0  0  0  0  0  0  0  0  0  0
    5.3354   -6.1068    0.0000 C   0  0  0  0  0  0  0  0  0  0  0  0
    6.0413   -5.6853    0.0000 C   0  0  0  0  0  0  0  0  0  0  0  0
    4.6418   -7.3505    0.0000 O   0  0  0  0  0  0  0  0  0  0  0  0
    4.6174   -5.7064    0.0000 O   0  0  0  0  0  0  0  0  0  0  0  0
    3.9116   -6.1280    0.0000 C   0  0  0  0  0  0  0  0  0  0  0  0
    7.0486   -8.1008    0.0000 O   0  0  0  0  0  0  0  0  0  0  0  0
    4.2087  -10.5765    0.0000 O   0  0  0  0  0  0  0  0  0  0  0  0
    5.6327  -10.5718    0.0000 O   0  0  0  0  0  0  0  0  0  0  0  0
    7.0540   -9.7450    0.0000 O   0  0  0  0  0  0  0  0  0  0  0  0
    4.2060   -9.7544    0.0000 C   0  0  0  0  0  0  0  0  0  0  0  0
    6.3379   -8.5142    0.0000 C   0  0  2  0  0  0  0  0  0  0  0  0
    6.3406   -9.3363    0.0000 C   0  0  2  0  0  0  0  0  0  0  0  0
    5.6300   -9.7497    0.0000 C   0  0  1  0  0  0  0  0  0  0  0  0
    4.9167   -9.3410    0.0000 C   0  0  2  0  0  0  0  0  0  0  0  0
    4.9140   -8.5188    0.0000 O   0  0  0  0  0  0  0  0  0  0  0  0
    5.6246   -8.1054    0.0000 C   0  0  1  0  0  0  0  0  0  0  0  0
    5.1361   -7.6170    0.0000 H   0  0  0  0  0  0  0  0  0  0  0  0
 11 18  1  1  0  0  0
 11 17  1  6  0  0  0
 12 13  1  6  0  0  0
 10  1  2  0  0  0  0
  8 12  1  0  0  0  0
  9  8  1  0  0  0  0
 10  9  1  0  0  0  0
 11 10  1  0  0  0  0
 12 11  1  0  0  0  0
  2 13  1  0  0  0  0
  2  3  2  0  0  0  0
  3  4  1  0  0  0  0
  4  5  2  0  0  0  0
  5  6  1  0  0  0  0
  6  7  2  0  0  0  0
  7  2  1  0  0  0  0
  5 14  1  0  0  0  0
  4 15  1  0  0  0  0
 15 16  1  0  0  0  0
 18 19  1  0  0  0  0
 19 20  2  0  0  0  0
 20 21  1  0  0  0  0
 21 22  2  0  0  0  0
 22 23  1  0  0  0  0
 23 24  2  0  0  0  0
 24 19  1  0  0  0  0
 22 25  1  0  0  0  0
 23 26  1  0  0  0  0
 26 27  1  0  0  0  0
 33 28  1  6  0  0  0
 32 29  1  0  0  0  0
 35 30  1  6  0  0  0
 34 31  1  1  0  0  0
 36 32  1  1  0  0  0
 33 38  1  0  0  0  0
 34 33  1  0  0  0  0
 35 34  1  0  0  0  0
 36 35  1  0  0  0  0
 37 36  1  0  0  0  0
 38 37  1  0  0  0  0
 38 21  1  0  0  0  0
 38 39  1  6  0  0  0
M  END
>  <cdx:fragmentId>
11210

$$$$
