39040.cdx
  Mrv1902 05222410272D          

 41 44  0  0  0  0            999 V2000
    5.6174  -11.4331    0.0000 C   0  0  2  0  0  0  0  0  0  0  0  0
    5.6174  -12.2581    0.0000 C   0  0  2  0  0  0  0  0  0  0  0  0
    6.3319  -12.6706    0.0000 C   0  0  1  0  0  0  0  0  0  0  0  0
    7.0463  -12.2581    0.0000 C   0  0  2  0  0  0  0  0  0  0  0  0
    7.0463  -11.4331    0.0000 C   0  0  1  0  0  0  0  0  0  0  0  0
    6.3319  -11.0206    0.0000 O   0  0  0  0  0  0  0  0  0  0  0  0
    7.7608  -11.0206    0.0000 O   0  0  0  0  0  0  0  0  0  0  0  0
    6.3319  -13.4956    0.0000 O   0  0  0  0  0  0  0  0  0  0  0  0
    4.9029  -11.0206    0.0000 C   0  0  0  0  0  0  0  0  0  0  0  0
    4.9029  -12.6706    0.0000 O   0  0  0  0  0  0  0  0  0  0  0  0
    7.7608  -12.6706    0.0000 O   0  0  0  0  0  0  0  0  0  0  0  0
    7.7608  -10.1956    0.0000 C   0  0  0  0  0  0  0  0  0  0  0  0
    8.4753   -9.7831    0.0000 C   0  0  0  0  0  0  0  0  0  0  0  0
    8.4753   -8.9581    0.0000 C   0  0  0  0  0  0  0  0  0  0  0  0
    7.7608   -8.5456    0.0000 C   0  0  0  0  0  0  0  0  0  0  0  0
    7.0463   -8.9581    0.0000 C   0  0  0  0  0  0  0  0  0  0  0  0
    7.0463   -9.7831    0.0000 C   0  0  0  0  0  0  0  0  0  0  0  0
    7.7608   -7.7206    0.0000 C   0  0  0  0  0  0  0  0  0  0  0  0
    8.2913   -7.3081    0.0000 C   0  0  1  0  0  0  0  0  0  0  0  0
    9.0841   -7.5362    0.0000 C   0  0  0  0  0  0  0  0  0  0  0  0
    9.5460   -6.8526    0.0000 O   0  0  0  0  0  0  0  0  0  0  0  0
    9.0386   -6.2021    0.0000 C   0  0  1  0  0  0  0  0  0  0  0  0
    8.2913   -6.4836    0.0000 C   0  0  1  0  0  0  0  0  0  0  0  0
    7.6128   -6.0142    0.0000 C   0  0  0  0  0  0  0  0  0  0  0  0
    9.2620   -5.4079    0.0000 C   0  0  0  0  0  0  0  0  0  0  0  0
   10.0614   -5.2042    0.0000 C   0  0  0  0  0  0  0  0  0  0  0  0
   10.2847   -4.4100    0.0000 C   0  0  0  0  0  0  0  0  0  0  0  0
    9.7086   -3.8195    0.0000 C   0  0  0  0  0  0  0  0  0  0  0  0
    8.9091   -4.0232    0.0000 C   0  0  0  0  0  0  0  0  0  0  0  0
    8.6858   -4.8174    0.0000 C   0  0  0  0  0  0  0  0  0  0  0  0
    9.9319   -3.0253    0.0000 O   0  0  0  0  0  0  0  0  0  0  0  0
    8.3330   -3.4327    0.0000 O   0  0  0  0  0  0  0  0  0  0  0  0
    7.5335   -3.6364    0.0000 C   0  0  0  0  0  0  0  0  0  0  0  0
   11.0842   -4.2063    0.0000 O   0  0  0  0  0  0  0  0  0  0  0  0
    9.1898  -10.1956    0.0000 O   0  0  0  0  0  0  0  0  0  0  0  0
    6.3319  -10.1956    0.0000 O   0  0  0  0  0  0  0  0  0  0  0  0
    5.6174   -9.7831    0.0000 C   0  0  0  0  0  0  0  0  0  0  0  0
    4.1885  -11.4331    0.0000 O   0  0  0  0  0  0  0  0  0  0  0  0
    6.8671   -6.3670    0.0000 O   0  0  0  0  0  0  0  0  0  0  0  0
   11.6603   -4.7968    0.0000 C   0  0  0  0  0  0  0  0  0  0  0  0
    9.9042   -9.7831    0.0000 C   0  0  0  0  0  0  0  0  0  0  0  0
  1  2  1  0  0  0  0
  2  3  1  0  0  0  0
  3  4  1  0  0  0  0
  4  5  1  0  0  0  0
  5  6  1  0  0  0  0
  6  1  1  0  0  0  0
  5  7  1  1  0  0  0
  3  8  1  1  0  0  0
  1  9  1  1  0  0  0
  2 10  1  6  0  0  0
  4 11  1  6  0  0  0
  7 12  1  0  0  0  0
 12 13  2  0  0  0  0
 13 14  1  0  0  0  0
 14 15  2  0  0  0  0
 15 16  1  0  0  0  0
 16 17  2  0  0  0  0
 17 12  1  0  0  0  0
 15 18  1  0  0  0  0
 19 18  1  6  0  0  0
 19 20  1  0  0  0  0
 20 21  1  0  0  0  0
 21 22  1  0  0  0  0
 22 23  1  0  0  0  0
 23 19  1  0  0  0  0
 23 24  1  6  0  0  0
 22 25  1  1  0  0  0
 25 26  2  0  0  0  0
 26 27  1  0  0  0  0
 27 28  2  0  0  0  0
 28 29  1  0  0  0  0
 29 30  2  0  0  0  0
 30 25  1  0  0  0  0
 28 31  1  0  0  0  0
 29 32  1  0  0  0  0
 32 33  1  0  0  0  0
 27 34  1  0  0  0  0
 13 35  1  0  0  0  0
 17 36  1  0  0  0  0
 36 37  1  0  0  0  0
  9 38  1  0  0  0  0
 24 39  1  0  0  0  0
 34 40  1  0  0  0  0
 35 41  1  0  0  0  0
M  END
>  <cdx:fragmentId>
472

$$$$
