39059.cdx
  Mrv1902 05222410192D          

  7  6  0  0  0  0            999 V2000
    8.1826   -6.7117    0.0000 C   0  0  0  0  0  0  0  0  0  0  0  0
    8.8970   -7.1242    0.0000 C   0  0  0  0  0  0  0  0  0  0  0  0
    9.6115   -6.7117    0.0000 C   0  0  0  0  0  0  0  0  0  0  0  0
    8.1826   -5.8867    0.0000 C   0  0  0  0  0  0  0  0  0  0  0  0
    7.4681   -7.1242    0.0000 N   0  0  0  0  0  0  0  0  0  0  0  0
    6.7536   -6.7117    0.0000 C   0  0  0  0  0  0  0  0  0  0  0  0
    6.0392   -6.2992    0.0000 S   0  0  0  0  0  0  0  0  0  0  0  0
  1  2  1  0  0  0  0
  2  3  1  0  0  0  0
  1  4  1  0  0  0  0
  5  6  2  0  0  0  0
  6  7  2  0  0  0  0
  1  5  1  0  0  0  0
M  END
>  <cdx:fragmentId>
2100

$$$$
