390566.cdx
  Mrv1902 05222410202D          

 43 51  0  0  0  0            999 V2000
   14.3211  -13.1551    0.0000 C   0  0  1  0  0  0  0  0  0  0  0  0
   14.0075  -12.3925    0.0000 O   0  0  0  0  0  0  0  0  0  0  0  0
   14.4253  -11.6812    0.0000 C   0  0  0  0  0  0  0  0  0  0  0  0
   15.2443  -11.5818    0.0000 C   0  0  1  0  0  0  0  0  0  0  0  0
   15.9976  -10.8203    0.0000 C   0  0  0  0  0  0  0  0  0  0  0  0
   17.0264  -11.1235    0.0000 O   0  0  0  0  0  0  0  0  0  0  0  0
   17.2491  -12.1726    0.0000 C   0  0  2  0  0  0  0  0  0  0  0  0
   16.5347  -11.7601    0.0000 C   0  0  0  0  0  0  0  0  0  0  0  0
   15.8202  -12.1726    0.0000 C   0  0  1  0  0  0  0  0  0  0  0  0
   15.8202  -12.9976    0.0000 C   0  0  1  0  0  0  0  0  0  0  0  0
   16.5347  -13.4101    0.0000 C   0  0  2  0  0  0  0  0  0  0  0  0
   17.2491  -12.9976    0.0000 C   0  0  1  0  0  0  0  0  0  0  0  0
   17.7628  -13.6443    0.0000 O   0  0  0  0  0  0  0  0  0  0  0  0
   17.3503  -14.3588    0.0000 C   0  0  0  0  0  0  0  0  0  0  0  0
   16.5347  -14.2351    0.0000 C   0  0  0  0  0  0  0  0  0  0  0  0
   15.8202  -14.6476    0.0000 C   0  0  0  0  0  0  0  0  0  0  0  0
   15.1057  -14.2351    0.0000 C   0  0  2  0  0  0  0  0  0  0  0  0
   14.3211  -14.4900    0.0000 C   0  0  2  0  0  0  0  0  0  0  0  0
   13.9855  -15.2437    0.0000 C   0  0  1  0  0  0  0  0  0  0  0  0
   14.4705  -15.9111    0.0000 C   0  0  0  0  0  0  0  0  0  0  0  0
   14.1349  -16.6648    0.0000 C   0  0  0  0  0  0  0  0  0  0  0  0
   13.3144  -16.7510    0.0000 C   0  0  0  0  0  0  0  0  0  0  0  0
   12.8295  -16.0836    0.0000 C   0  0  0  0  0  0  0  0  0  0  0  0
   13.1651  -15.3299    0.0000 C   0  0  0  0  0  0  0  0  0  0  0  0
   12.6801  -14.6625    0.0000 C   0  0  0  0  0  0  0  0  0  0  0  0
   13.0157  -13.9088    0.0000 C   0  0  0  0  0  0  0  0  0  0  0  0
   13.8362  -13.8226    0.0000 C   0  0  1  0  0  0  0  0  0  0  0  0
   15.1057  -13.4101    0.0000 C   0  0  2  0  0  0  0  0  0  0  0  0
   15.6668  -12.6738    0.0000 O   0  0  0  0  0  0  0  0  0  0  0  0
   15.7918  -10.0214    0.0000 O   0  0  0  0  0  0  0  0  0  0  0  0
   17.7628  -15.0733    0.0000 O   0  0  0  0  0  0  0  0  0  0  0  0
   15.2909  -15.8249    0.0000 O   0  0  0  0  0  0  0  0  0  0  0  0
   14.7860  -15.4433    0.0000 C   0  0  0  0  0  0  0  0  0  0  0  0
   18.0281  -12.7259    0.0000 C   0  0  0  0  0  0  0  0  0  0  0  0
   15.9331  -11.3553    0.0000 C   0  0  0  0  0  0  0  0  0  0  0  0
   14.4383  -13.8950    0.0000 O   0  0  0  0  0  0  0  0  0  0  0  0
   16.6877  -15.0458    0.0000 O   0  0  0  0  0  0  0  0  0  0  0  0
   14.8318  -10.8673    0.0000 H   0  0  0  0  0  0  0  0  0  0  0  0
   18.0696  -12.0864    0.0000 H   0  0  0  0  0  0  0  0  0  0  0  0
   15.8202  -13.8226    0.0000 H   0  0  0  0  0  0  0  0  0  0  0  0
   15.3879  -15.0103    0.0000 H   0  0  0  0  0  0  0  0  0  0  0  0
   14.9712  -14.9979    0.0000 H   0  0  0  0  0  0  0  0  0  0  0  0
   13.4237  -13.1081    0.0000 H   0  0  0  0  0  0  0  0  0  0  0  0
  1  2  1  0  0  0  0
  2  3  1  0  0  0  0
  3  4  1  0  0  0  0
  4  5  1  0  0  0  0
  5  6  1  0  0  0  0
  6  7  1  0  0  0  0
  7  8  1  6  0  0  0
  8  9  1  0  0  0  0
  9 10  1  0  0  0  0
 10 11  1  0  0  0  0
 11 12  1  0  0  0  0
 12 13  1  0  0  0  0
 13 14  1  0  0  0  0
 14 15  1  0  0  0  0
 15 16  1  0  0  0  0
 16 17  1  0  0  0  0
 17 18  1  0  0  0  0
 18 19  1  0  0  0  0
 19 20  1  0  0  0  0
 20 21  1  0  0  0  0
 21 22  2  0  0  0  0
 22 23  1  0  0  0  0
 23 24  1  0  0  0  0
 24 25  2  0  0  0  0
 25 26  1  0  0  0  0
 26 27  1  0  0  0  0
  1 27  1  0  0  0  0
  1 28  1  0  0  0  0
 28 17  1  0  0  0  0
 18 27  1  0  0  0  0
 19 24  1  0  0  0  0
 11 15  1  0  0  0  0
  7 12  1  0  0  0  0
 11 29  1  1  0  0  0
  1 29  1  1  0  0  0
  4  9  1  0  0  0  0
 10 28  1  0  0  0  0
  5 30  2  0  0  0  0
 14 31  2  0  0  0  0
 20 32  2  0  0  0  0
 19 33  1  6  0  0  0
 12 34  1  1  0  0  0
  9 35  1  6  0  0  0
 28 36  1  1  0  0  0
 15 37  1  0  0  0  0
  4 38  1  6  0  0  0
  7 39  1  0  0  0  0
 10 40  1  6  0  0  0
 17 41  1  1  0  0  0
 18 42  1  1  0  0  0
 27 43  1  6  0  0  0
M  END
>  <cdx:groupId>
3184

>  <cdx:fragmentId>
3050

$$$$
