39061.cdx
  Mrv1902 05222410192D          

 39 44  0  0  0  0            999 V2000
    5.7828  -13.0153    0.0000 O   0  0  0  0  0  0  0  0  0  0  0  0
    6.0320  -12.2288    0.0000 C   0  0  2  0  0  0  0  0  0  0  0  0
    6.8377  -12.0514    0.0000 C   0  0  1  0  0  0  0  0  0  0  0  0
    7.3942  -12.6604    0.0000 C   0  0  2  0  0  0  0  0  0  0  0  0
    7.1450  -13.4469    0.0000 C   0  0  1  0  0  0  0  0  0  0  0  0
    6.3393  -13.6243    0.0000 C   0  0  1  0  0  0  0  0  0  0  0  0
    7.0869  -11.2649    0.0000 O   0  0  0  0  0  0  0  0  0  0  0  0
    8.1999  -12.4830    0.0000 O   0  0  0  0  0  0  0  0  0  0  0  0
    7.7015  -14.0559    0.0000 O   0  0  0  0  0  0  0  0  0  0  0  0
    6.0901  -14.4108    0.0000 C   0  0  0  0  0  0  0  0  0  0  0  0
    6.6466  -15.0198    0.0000 O   0  0  0  0  0  0  0  0  0  0  0  0
    5.4755  -11.6198    0.0000 O   0  0  0  0  0  0  0  0  0  0  0  0
    5.7247  -10.8333    0.0000 C   0  0  0  0  0  0  0  0  0  0  0  0
    5.1681  -10.2243    0.0000 C   0  0  0  0  0  0  0  0  0  0  0  0
    5.4173   -9.4378    0.0000 C   0  0  0  0  0  0  0  0  0  0  0  0
    6.2230   -9.2604    0.0000 C   0  0  0  0  0  0  0  0  0  0  0  0
    6.7795   -9.8694    0.0000 C   0  0  0  0  0  0  0  0  0  0  0  0
    6.5303  -10.6559    0.0000 C   0  0  0  0  0  0  0  0  0  0  0  0
    4.3625  -10.4017    0.0000 O   0  0  0  0  0  0  0  0  0  0  0  0
    4.1133  -11.1882    0.0000 C   0  0  0  0  0  0  0  0  0  0  0  0
    8.5214   -7.7915    0.0000 O   0  0  0  0  0  0  0  0  0  0  0  0
    8.0414   -8.4624    0.0000 C   0  0  0  0  0  0  0  0  0  0  0  0
    7.2550   -8.2132    0.0000 C   0  0  1  0  0  0  0  0  0  0  0  0
    7.2489   -7.3883    0.0000 C   0  0  1  0  0  0  0  0  0  0  0  0
    8.0317   -7.1276    0.0000 C   0  0  1  0  0  0  0  0  0  0  0  0
    5.9824   -7.8100    0.0000 O   0  0  0  0  0  0  0  0  0  0  0  0
    6.4722   -8.4739    0.0000 C   0  0  2  0  0  0  0  0  0  0  0  0
    6.4625   -7.1391    0.0000 C   0  0  0  0  0  0  0  0  0  0  0  0
    9.1865   -4.0507    0.0000 O   0  0  0  0  0  0  0  0  0  0  0  0
    9.9947   -4.2163    0.0000 C   0  0  0  0  0  0  0  0  0  0  0  0
   10.0869   -5.0362    0.0000 O   0  0  0  0  0  0  0  0  0  0  0  0
    9.3357   -5.3772    0.0000 C   0  0  0  0  0  0  0  0  0  0  0  0
    8.7792   -4.7682    0.0000 C   0  0  0  0  0  0  0  0  0  0  0  0
    9.0865   -6.1637    0.0000 C   0  0  0  0  0  0  0  0  0  0  0  0
    8.2808   -6.3411    0.0000 C   0  0  0  0  0  0  0  0  0  0  0  0
    7.7243   -5.7321    0.0000 C   0  0  0  0  0  0  0  0  0  0  0  0
    7.9735   -4.9456    0.0000 C   0  0  0  0  0  0  0  0  0  0  0  0
    7.2429   -6.5633    0.0000 H   0  0  0  0  0  0  0  0  0  0  0  0
    7.2610   -9.0382    0.0000 H   0  0  0  0  0  0  0  0  0  0  0  0
  1  2  1  0  0  0  0
  2  3  1  0  0  0  0
  3  4  1  0  0  0  0
  4  5  1  0  0  0  0
  5  6  1  0  0  0  0
  1  6  1  0  0  0  0
  3  7  1  6  0  0  0
  4  8  1  1  0  0  0
  5  9  1  6  0  0  0
 10 11  1  0  0  0  0
  6 10  1  1  0  0  0
 13 14  1  0  0  0  0
 14 15  2  0  0  0  0
 15 16  1  0  0  0  0
 16 17  2  0  0  0  0
 17 18  1  0  0  0  0
 13 18  2  0  0  0  0
 12 13  1  0  0  0  0
 19 20  1  0  0  0  0
 14 19  1  0  0  0  0
 21 22  1  0  0  0  0
 22 23  1  0  0  0  0
 23 24  1  0  0  0  0
 24 25  1  0  0  0  0
 21 25  1  0  0  0  0
 26 27  1  0  0  0  0
 26 28  1  0  0  0  0
 27 23  1  0  0  0  0
 28 24  1  0  0  0  0
 29 30  1  0  0  0  0
 30 31  1  0  0  0  0
 31 32  1  0  0  0  0
 32 33  1  0  0  0  0
 29 33  1  0  0  0  0
 34 35  1  0  0  0  0
 35 36  2  0  0  0  0
 36 37  1  0  0  0  0
 37 33  2  0  0  0  0
 34 32  2  0  0  0  0
 25 35  1  1  0  0  0
 27 16  1  1  0  0  0
  2 12  1  1  0  0  0
 24 38  1  1  0  0  0
 23 39  1  1  0  0  0
M  END
>  <cdx:fragmentId>
2241

$$$$
