390666.cdx
  Mrv1902 05222410232D          

 18 20  0  0  0  0            999 V2000
    6.9855   -4.1250    0.0000 C   0  0  0  0  0  0  0  0  0  0  0  0
    6.9855   -4.9500    0.0000 C   0  0  2  0  0  0  0  0  0  0  0  0
    7.7000   -5.3625    0.0000 C   0  0  2  0  0  0  0  0  0  0  0  0
    8.4145   -4.9500    0.0000 C   0  0  2  0  0  0  0  0  0  0  0  0
    8.4145   -4.1250    0.0000 O   0  0  0  0  0  0  0  0  0  0  0  0
    7.7000   -3.7125    0.0000 C   0  0  2  0  0  0  0  0  0  0  0  0
    6.3724   -5.5020    0.0000 C   0  0  1  0  0  0  0  0  0  0  0  0
    6.7080   -6.2557    0.0000 C   0  0  2  0  0  0  0  0  0  0  0  0
    7.5285   -6.1695    0.0000 C   0  0  1  0  0  0  0  0  0  0  0  0
    8.3254   -6.3830    0.0000 C   0  0  0  0  0  0  0  0  0  0  0  0
    8.8270   -5.6645    0.0000 O   0  0  0  0  0  0  0  0  0  0  0  0
    5.5655   -5.3305    0.0000 O   0  0  0  0  0  0  0  0  0  0  0  0
    6.2955   -6.9702    0.0000 Cl  0  0  0  0  0  0  0  0  0  0  0  0
    7.7420   -6.9664    0.0000 O   0  0  0  0  0  0  0  0  0  0  0  0
    6.2711   -4.5375    0.0000 H   0  0  0  0  0  0  0  0  0  0  0  0
    6.9855   -5.7750    0.0000 H   0  0  0  0  0  0  0  0  0  0  0  0
    9.1289   -4.5375    0.0000 H   0  0  0  0  0  0  0  0  0  0  0  0
    7.7000   -2.8875    0.0000 O   0  0  0  0  0  0  0  0  0  0  0  0
  1  2  1  0  0  0  0
  2  3  1  0  0  0  0
  3  4  1  0  0  0  0
  4  5  1  0  0  0  0
  5  6  1  0  0  0  0
  6  1  1  0  0  0  0
  2  7  1  0  0  0  0
  7  8  1  0  0  0  0
  8  9  1  0  0  0  0
  9  3  1  0  0  0  0
  9 10  1  0  0  0  0
  4 11  1  0  0  0  0
 11 10  1  0  0  0  0
  7 12  1  1  0  0  0
  8 13  1  6  0  0  0
  9 14  1  1  0  0  0
  2 15  1  1  0  0  0
  3 16  1  1  0  0  0
  4 17  1  1  0  0  0
  6 18  1  1  0  0  0
M  END
>  <cdx:fragmentId>
3230

$$$$
