39062.cdx
  Mrv1902 05222410202D          

 27 27  0  0  0  0            999 V2000
    5.3041   -8.5216    0.0000 C   0  0  0  0  0  0  0  0  0  0  0  0
    6.0185   -8.9342    0.0000 C   0  0  0  0  0  0  0  0  0  0  0  0
    6.7331   -8.5219    0.0000 C   0  0  0  0  0  0  0  0  0  0  0  0
    7.4474   -8.9346    0.0000 C   0  0  0  0  0  0  0  0  0  0  0  0
    8.1620   -8.5223    0.0000 C   0  0  1  0  0  0  0  0  0  0  0  0
    8.8764   -8.9349    0.0000 C   0  0  2  0  0  0  0  0  0  0  0  0
    9.5909   -8.5226    0.0000 C   0  0  1  0  0  0  0  0  0  0  0  0
   10.3053   -8.9353    0.0000 C   0  0  1  0  0  0  0  0  0  0  0  0
   11.0199   -8.5229    0.0000 C   0  0  0  0  0  0  0  0  0  0  0  0
    6.7332   -7.6969    0.0000 O   0  0  0  0  0  0  0  0  0  0  0  0
    7.4472   -9.7596    0.0000 O   0  0  0  0  0  0  0  0  0  0  0  0
    4.5895   -8.9339    0.0000 C   0  0  0  0  0  0  0  0  0  0  0  0
    3.8752   -8.5212    0.0000 C   0  0  0  0  0  0  0  0  0  0  0  0
    3.1606   -8.9336    0.0000 C   0  0  0  0  0  0  0  0  0  0  0  0
    3.1604   -9.7586    0.0000 C   0  0  0  0  0  0  0  0  0  0  0  0
    3.8748  -10.1712    0.0000 C   0  0  0  0  0  0  0  0  0  0  0  0
    4.5893   -9.7589    0.0000 C   0  0  0  0  0  0  0  0  0  0  0  0
    3.8746  -10.9962    0.0000 O   0  0  0  0  0  0  0  0  0  0  0  0
    2.4462   -8.5209    0.0000 O   0  0  0  0  0  0  0  0  0  0  0  0
    2.4458  -10.1709    0.0000 O   0  0  0  0  0  0  0  0  0  0  0  0
   11.7343   -8.9356    0.0000 O   0  0  0  0  0  0  0  0  0  0  0  0
   10.3051   -9.7603    0.0000 O   0  0  0  0  0  0  0  0  0  0  0  0
    9.5911   -7.6976    0.0000 O   0  0  0  0  0  0  0  0  0  0  0  0
    8.8762   -9.7599    0.0000 O   0  0  0  0  0  0  0  0  0  0  0  0
    8.1622   -7.6973    0.0000 O   0  0  0  0  0  0  0  0  0  0  0  0
    2.4465   -7.6959    0.0000 C   0  0  0  0  0  0  0  0  0  0  0  0
    4.5889  -11.4090    0.0000 C   0  0  0  0  0  0  0  0  0  0  0  0
  1  2  2  0  0  0  0
  2  3  1  0  0  0  0
  3  4  1  0  0  0  0
  4  5  1  0  0  0  0
  5  6  1  0  0  0  0
  6  7  1  0  0  0  0
  7  8  1  0  0  0  0
  8  9  1  0  0  0  0
  3 10  2  0  0  0  0
  4 11  2  0  0  0  0
 12 13  1  0  0  0  0
 13 14  2  0  0  0  0
 14 15  1  0  0  0  0
 15 16  2  0  0  0  0
 16 17  1  0  0  0  0
 12 17  2  0  0  0  0
 16 18  1  0  0  0  0
 14 19  1  0  0  0  0
 15 20  1  0  0  0  0
  1 12  1  0  0  0  0
  9 21  1  0  0  0  0
  8 22  1  1  0  0  0
  7 23  1  6  0  0  0
  6 24  1  6  0  0  0
  5 25  1  6  0  0  0
 19 26  1  0  0  0  0
 18 27  1  0  0  0  0
M  END
>  <cdx:fragmentId>
27

$$$$
