390664.cdx
  Mrv1902 05222410222D          

 11 12  0  0  0  0            999 V2000
    6.3977   -7.2091    0.0000 C   0  0  0  0  0  0  0  0  0  0  0  0
    7.1122   -6.7966    0.0000 C   0  0  0  0  0  0  0  0  0  0  0  0
    7.1122   -5.9715    0.0000 C   0  0  0  0  0  0  0  0  0  0  0  0
    6.3977   -5.5590    0.0000 C   0  0  0  0  0  0  0  0  0  0  0  0
    5.6833   -5.9715    0.0000 C   0  0  0  0  0  0  0  0  0  0  0  0
    5.6833   -6.7966    0.0000 O   0  0  0  0  0  0  0  0  0  0  0  0
    7.8968   -5.7166    0.0000 C   0  0  0  0  0  0  0  0  0  0  0  0
    8.3818   -6.3841    0.0000 C   0  0  0  0  0  0  0  0  0  0  0  0
    7.8968   -7.0515    0.0000 C   0  0  0  0  0  0  0  0  0  0  0  0
    8.1518   -7.8361    0.0000 C   0  0  0  0  0  0  0  0  0  0  0  0
    8.9588   -8.0077    0.0000 O   0  0  0  0  0  0  0  0  0  0  0  0
  1  2  2  0  0  0  0
  2  3  1  0  0  0  0
  3  4  1  0  0  0  0
  4  5  2  0  0  0  0
  5  6  1  0  0  0  0
  1  6  1  0  0  0  0
  7  8  1  0  0  0  0
  8  9  2  0  0  0  0
  2  9  1  0  0  0  0
  3  7  2  0  0  0  0
 10 11  2  0  0  0  0
  9 10  1  0  0  0  0
M  END
>  <cdx:fragmentId>
3191

$$$$
