390667.cdx
  Mrv1902 05222410222D          

 15 16  0  0  0  0            999 V2000
    7.6822   -5.1150    0.0000 C   0  0  1  0  0  0  0  0  0  0  0  0
    7.6822   -5.9400    0.0000 C   0  0  2  0  0  0  0  0  0  0  0  0
    8.4669   -6.1949    0.0000 O   0  0  0  0  0  0  0  0  0  0  0  0
    8.9518   -5.5275    0.0000 C   0  0  0  0  0  0  0  0  0  0  0  0
    8.4669   -4.8601    0.0000 C   0  0  0  0  0  0  0  0  0  0  0  0
    6.8976   -4.8601    0.0000 C   0  0  1  0  0  0  0  0  0  0  0  0
    6.4127   -5.5275    0.0000 C   0  0  0  0  0  0  0  0  0  0  0  0
    6.8976   -6.1949    0.0000 C   0  0  0  0  0  0  0  0  0  0  0  0
    9.7768   -5.5275    0.0000 O   0  0  0  0  0  0  0  0  0  0  0  0
    7.6822   -6.7650    0.0000 C   0  0  0  0  0  0  0  0  0  0  0  0
    7.6822   -4.2900    0.0000 H   0  0  0  0  0  0  0  0  0  0  0  0
    8.3967   -7.1775    0.0000 O   0  0  0  0  0  0  0  0  0  0  0  0
    6.6427   -4.0754    0.0000 O   0  0  0  0  0  0  0  0  0  0  0  0
    6.6427   -6.9796    0.0000 C   0  0  0  0  0  0  0  0  0  0  0  0
    5.8458   -7.1931    0.0000 O   0  0  0  0  0  0  0  0  0  0  0  0
  1  2  1  0  0  0  0
  2  3  1  0  0  0  0
  3  4  1  0  0  0  0
  4  5  1  0  0  0  0
  5  1  1  0  0  0  0
  1  6  1  0  0  0  0
  6  7  1  0  0  0  0
  7  8  2  0  0  0  0
  8  2  1  0  0  0  0
  4  9  2  0  0  0  0
  2 10  1  1  0  0  0
  1 11  1  1  0  0  0
 10 12  1  0  0  0  0
  6 13  1  1  0  0  0
  8 14  1  0  0  0  0
 14 15  1  0  0  0  0
M  END
>  <cdx:fragmentId>
3317

$$$$
