39079.cdx
  Mrv1902 05222410262D          

 52 56  0  0  0  0            999 V2000
    6.2023   -6.9081    0.0000 O   0  0  0  0  0  0  0  0  0  0  0  0
    7.2618   -5.9493    0.0000 O   0  0  0  0  0  0  0  0  0  0  0  0
    6.4553   -6.1229    0.0000 C   0  0  2  0  0  0  0  0  0  0  0  0
    5.9017   -5.5112    0.0000 C   0  0  1  0  0  0  0  0  0  0  0  0
    6.1547   -4.7259    0.0000 C   0  0  2  0  0  0  0  0  0  0  0  0
    6.9613   -4.5524    0.0000 C   0  0  1  0  0  0  0  0  0  0  0  0
    7.5148   -5.1641    0.0000 C   0  0  1  0  0  0  0  0  0  0  0  0
    8.3214   -4.9906    0.0000 C   0  0  0  0  0  0  0  0  0  0  0  0
    8.5744   -4.2053    0.0000 O   0  0  0  0  0  0  0  0  0  0  0  0
    7.2143   -3.7671    0.0000 O   0  0  0  0  0  0  0  0  0  0  0  0
    5.6012   -4.1142    0.0000 O   0  0  0  0  0  0  0  0  0  0  0  0
    5.0952   -5.6847    0.0000 O   0  0  0  0  0  0  0  0  0  0  0  0
    4.7946   -4.2877    0.0000 O   0  0  0  0  0  0  0  0  0  0  0  0
    4.5416   -5.0730    0.0000 C   0  0  2  0  0  0  0  0  0  0  0  0
    3.7351   -5.2465    0.0000 C   0  0  1  0  0  0  0  0  0  0  0  0
    3.1815   -4.6348    0.0000 C   0  0  2  0  0  0  0  0  0  0  0  0
    3.4345   -3.8495    0.0000 C   0  0  1  0  0  0  0  0  0  0  0  0
    4.2411   -3.6760    0.0000 C   0  0  1  0  0  0  0  0  0  0  0  0
    2.8810   -3.2378    0.0000 O   0  0  0  0  0  0  0  0  0  0  0  0
    2.3750   -4.8083    0.0000 O   0  0  0  0  0  0  0  0  0  0  0  0
    3.4821   -6.0318    0.0000 O   0  0  0  0  0  0  0  0  0  0  0  0
    4.4941   -2.8907    0.0000 C   0  0  0  0  0  0  0  0  0  0  0  0
    5.3006   -2.7172    0.0000 O   0  0  0  0  0  0  0  0  0  0  0  0
    3.9405   -2.2790    0.0000 O   0  0  0  0  0  0  0  0  0  0  0  0
    7.1109  -12.5301    0.0000 O   0  0  0  0  0  0  0  0  0  0  0  0
    7.8284  -13.7658    0.0000 O   0  0  0  0  0  0  0  0  0  0  0  0
    7.8264  -12.9408    0.0000 C   0  0  0  0  0  0  0  0  0  0  0  0
   11.3977  -12.5194    0.0000 O   0  0  0  0  0  0  0  0  0  0  0  0
   10.6863  -13.7587    0.0000 O   0  0  0  0  0  0  0  0  0  0  0  0
   10.6842  -12.9337    0.0000 C   0  0  0  0  0  0  0  0  0  0  0  0
    9.2553  -12.9373    0.0000 N   0  0  0  0  0  0  0  0  0  0  0  0
    9.9688  -12.5230    0.0000 C   0  0  0  0  0  0  0  0  0  0  0  0
    9.9667  -11.6980    0.0000 C   0  0  0  0  0  0  0  0  0  0  0  0
    9.2512  -11.2873    0.0000 C   0  0  0  0  0  0  0  0  0  0  0  0
    8.5378  -11.7015    0.0000 C   0  0  0  0  0  0  0  0  0  0  0  0
    8.5398  -12.5265    0.0000 C   0  0  3  0  0  0  0  0  0  0  0  0
    9.2492  -10.4623    0.0000 C   0  0  0  0  0  0  0  0  0  0  0  0
    8.5337  -10.0515    0.0000 C   0  0  0  0  0  0  0  0  0  0  0  0
    5.6963   -8.4786    0.0000 O   0  0  0  0  0  0  0  0  0  0  0  0
   10.1566   -9.7995    0.0000 O   0  5  0  0  0  0  0  0  0  0  0  0
   10.5948   -8.4394    0.0000 O   0  0  0  0  0  0  0  0  0  0  0  0
    9.9831   -8.9930    0.0000 C   0  0  0  0  0  0  0  0  0  0  0  0
    7.8630   -8.7433    0.0000 C   0  0  0  0  0  0  0  0  0  0  0  0
    7.0564   -8.9168    0.0000 C   0  0  0  0  0  0  0  0  0  0  0  0
    6.5029   -8.3051    0.0000 C   0  0  0  0  0  0  0  0  0  0  0  0
    6.7559   -7.5198    0.0000 C   0  0  0  0  0  0  0  0  0  0  0  0
    7.5624   -7.3463    0.0000 C   0  0  0  0  0  0  0  0  0  0  0  0
    8.1160   -7.9580    0.0000 C   0  0  0  0  0  0  0  0  0  0  0  0
    8.9410   -7.9560    0.0000 C   0  0  0  0  0  0  0  0  0  0  0  0
    9.1978   -8.7400    0.0000 C   0  0  2  0  0  0  0  0  0  0  0  0
    8.5316   -9.2266    0.0000 N   0  3  0  0  0  0  0  0  0  0  0  0
    9.7812   -8.1566    0.0000 H   0  0  0  0  0  0  0  0  0  0  0  0
 46  1  1  0  0  0  0
  2  3  1  0  0  0  0
 51 38  2  0  0  0  0
 37 34  2  0  0  0  0
 36 27  1  4  0  0  0
 27 25  1  0  0  0  0
 27 26  2  0  0  0  0
 32 30  1  0  0  0  0
 30 28  1  0  0  0  0
 30 29  2  0  0  0  0
 36 31  1  0  0  0  0
 32 31  1  0  0  0  0
 33 32  2  0  0  0  0
 34 33  1  0  0  0  0
 35 34  1  0  0  0  0
 36 35  1  0  0  0  0
 38 37  1  0  0  0  0
 45 39  1  0  0  0  0
 50 42  1  1  0  0  0
 42 40  1  0  0  0  0
 42 41  2  0  0  0  0
 48 43  2  0  0  0  0
 51 43  1  0  0  0  0
 44 43  1  0  0  0  0
 45 44  2  0  0  0  0
 46 45  1  0  0  0  0
 47 46  2  0  0  0  0
 48 47  1  0  0  0  0
 49 48  1  0  0  0  0
 50 49  1  0  0  0  0
 51 50  1  0  0  0  0
  3  4  1  0  0  0  0
  4  5  1  0  0  0  0
  5  6  1  0  0  0  0
  6  7  1  0  0  0  0
  2  7  1  0  0  0  0
  8  9  1  0  0  0  0
  7  8  1  1  0  0  0
  6 10  1  6  0  0  0
  5 11  1  1  0  0  0
 13 14  1  0  0  0  0
 14 15  1  0  0  0  0
 15 16  1  0  0  0  0
 16 17  1  0  0  0  0
 17 18  1  0  0  0  0
 13 18  1  0  0  0  0
 17 19  1  6  0  0  0
 16 20  1  1  0  0  0
 15 21  1  6  0  0  0
 22 23  2  0  0  0  0
 22 24  1  0  0  0  0
 18 22  1  1  0  0  0
 14 12  1  1  0  0  0
  4 12  1  6  0  0  0
  3  1  1  1  0  0  0
 50 52  1  6  0  0  0
M  CHG  2  40  -1  51   1
M  END
>  <cdx:fragmentId>
35

$$$$
