1575.cdx
  Mrv1902 05222410192D          

 33 35  0  0  0  0            999 V2000
   15.1391   -8.8160    0.0000 C   0  0  0  0  0  0  0  0  0  0  0  0
   14.4246   -9.2285    0.0000 C   0  0  0  0  0  0  0  0  0  0  0  0
   13.7102   -8.8160    0.0000 C   0  0  0  0  0  0  0  0  0  0  0  0
   13.7102   -7.9910    0.0000 C   0  0  0  0  0  0  0  0  0  0  0  0
   14.4246   -7.5785    0.0000 C   0  0  0  0  0  0  0  0  0  0  0  0
   15.1391   -7.9910    0.0000 C   0  0  0  0  0  0  0  0  0  0  0  0
   15.8536   -9.2285    0.0000 C   0  0  0  0  0  0  0  0  0  0  0  0
   15.8536  -10.0535    0.0000 O   0  0  0  0  0  0  0  0  0  0  0  0
   17.2825   -9.2285    0.0000 C   0  0  0  0  0  0  0  0  0  0  0  0
   17.2825  -10.0535    0.0000 C   0  0  0  0  0  0  0  0  0  0  0  0
   17.9970  -10.4660    0.0000 C   0  0  0  0  0  0  0  0  0  0  0  0
   18.7115  -10.0535    0.0000 C   0  0  0  0  0  0  0  0  0  0  0  0
   18.7115   -9.2285    0.0000 C   0  0  0  0  0  0  0  0  0  0  0  0
   17.9970   -8.8160    0.0000 C   0  0  0  0  0  0  0  0  0  0  0  0
   16.5681   -8.8160    0.0000 C   0  0  0  0  0  0  0  0  0  0  0  0
   16.5681   -7.9910    0.0000 O   0  0  0  0  0  0  0  0  0  0  0  0
   12.9957   -9.2285    0.0000 O   0  0  0  0  0  0  0  0  0  0  0  0
   12.9957   -7.5785    0.0000 O   0  0  0  0  0  0  0  0  0  0  0  0
   14.4246   -6.7535    0.0000 O   0  0  0  0  0  0  0  0  0  0  0  0
   15.8536   -7.5785    0.0000 O   0  0  0  0  0  0  0  0  0  0  0  0
   16.5681  -10.4660    0.0000 O   0  0  0  0  0  0  0  0  0  0  0  0
   14.4246  -10.0535    0.0000 O   0  0  0  0  0  0  0  0  0  0  0  0
   13.7102  -10.4660    0.0000 C   0  0  0  0  0  0  0  0  0  0  0  0
   13.7102  -11.2910    0.0000 C   0  0  0  0  0  0  0  0  0  0  0  0
   14.4246  -11.7035    0.0000 O   0  0  0  0  0  0  0  0  0  0  0  0
   12.9957  -11.7035    0.0000 C   0  0  0  0  0  0  0  0  0  0  0  0
   12.9957  -12.5285    0.0000 O   0  0  0  0  0  0  0  0  0  0  0  0
   12.2812  -11.2910    0.0000 C   0  0  0  0  0  0  0  0  0  0  0  0
   11.5668  -11.7035    0.0000 O   0  0  0  0  0  0  0  0  0  0  0  0
   12.2812  -10.4660    0.0000 C   0  0  0  0  0  0  0  0  0  0  0  0
   12.9957  -10.0535    0.0000 O   0  0  0  0  0  0  0  0  0  0  0  0
   11.5668  -10.0535    0.0000 C   0  0  0  0  0  0  0  0  0  0  0  0
   10.8523  -10.4660    0.0000 O   0  0  0  0  0  0  0  0  0  0  0  0
  1  2  1  0  0  0  0
  2  3  2  0  0  0  0
  3  4  1  0  0  0  0
  4  5  2  0  0  0  0
  5  6  1  0  0  0  0
  1  6  2  0  0  0  0
  1  7  1  0  0  0  0
  7  8  2  0  0  0  0
  9 10  1  0  0  0  0
 10 11  2  0  0  0  0
 11 12  1  0  0  0  0
 12 13  2  0  0  0  0
 13 14  1  0  0  0  0
  9 14  2  0  0  0  0
  9 15  1  0  0  0  0
 15 16  2  0  0  0  0
  7 15  1  0  0  0  0
  3 17  1  0  0  0  0
  4 18  1  0  0  0  0
  5 19  1  0  0  0  0
  6 20  1  0  0  0  0
 10 21  1  0  0  0  0
 22 23  1  0  0  0  0
 24 25  1  0  0  0  0
 24 23  1  0  0  0  0
 26 27  1  0  0  0  0
 26 24  1  0  0  0  0
 28 29  1  0  0  0  0
 28 26  1  0  0  0  0
 30 31  1  0  0  0  0
 30 28  1  0  0  0  0
 32 33  1  0  0  0  0
 32 30  1  0  0  0  0
 23 31  1  0  0  0  0
  2 22  1  0  0  0  0
M  END
>  <cdx:groupId>
445

>  <cdx:fragmentId>
363

$$$$
