39070.cdx
  Mrv1902 05222410182D          

 27 29  0  0  0  0            999 V2000
    7.8083   -8.6837    0.0000 O   0  0  0  0  0  0  0  0  0  0  0  0
    7.8945   -7.8632    0.0000 C   0  0  1  0  0  0  0  0  0  0  0  0
    7.1409   -7.5276    0.0000 C   0  0  1  0  0  0  0  0  0  0  0  0
    6.5888   -8.1407    0.0000 C   0  0  2  0  0  0  0  0  0  0  0  0
    7.0013   -8.8552    0.0000 C   0  0  0  0  0  0  0  0  0  0  0  0
    7.3958   -6.7430    0.0000 O   0  0  0  0  0  0  0  0  0  0  0  0
    6.5888   -6.9145    0.0000 C   0  0  0  0  0  0  0  0  0  0  0  0
    6.8438   -6.1299    0.0000 O   0  0  0  0  0  0  0  0  0  0  0  0
    5.7683   -8.0545    0.0000 C   0  0  0  0  0  0  0  0  0  0  0  0
    5.4328   -7.3008    0.0000 C   0  0  0  0  0  0  0  0  0  0  0  0
    4.6123   -7.2146    0.0000 C   0  0  0  0  0  0  0  0  0  0  0  0
    4.2767   -6.4609    0.0000 C   0  0  0  0  0  0  0  0  0  0  0  0
    4.7617   -5.7935    0.0000 C   0  0  0  0  0  0  0  0  0  0  0  0
    5.5822   -5.8797    0.0000 C   0  0  0  0  0  0  0  0  0  0  0  0
    5.9177   -6.6334    0.0000 C   0  0  0  0  0  0  0  0  0  0  0  0
    3.4563   -6.3747    0.0000 O   0  0  0  0  0  0  0  0  0  0  0  0
    2.9713   -7.0421    0.0000 C   0  0  0  0  0  0  0  0  0  0  0  0
    4.4261   -5.0398    0.0000 O   0  0  0  0  0  0  0  0  0  0  0  0
    8.6090   -7.4507    0.0000 C   0  0  0  0  0  0  0  0  0  0  0  0
    9.3235   -7.8632    0.0000 C   0  0  0  0  0  0  0  0  0  0  0  0
   10.0379   -7.4507    0.0000 C   0  0  0  0  0  0  0  0  0  0  0  0
   10.0379   -6.6257    0.0000 C   0  0  0  0  0  0  0  0  0  0  0  0
    9.3235   -6.2132    0.0000 C   0  0  0  0  0  0  0  0  0  0  0  0
    8.6090   -6.6257    0.0000 C   0  0  0  0  0  0  0  0  0  0  0  0
   10.7524   -7.8632    0.0000 O   0  0  0  0  0  0  0  0  0  0  0  0
   11.4669   -7.4507    0.0000 C   0  0  0  0  0  0  0  0  0  0  0  0
   10.7524   -6.2132    0.0000 O   0  0  0  0  0  0  0  0  0  0  0  0
  1  2  1  0  0  0  0
  2  3  1  0  0  0  0
  3  4  1  0  0  0  0
  4  5  1  0  0  0  0
  1  5  1  0  0  0  0
  3  6  1  1  0  0  0
  7  8  1  0  0  0  0
  3  7  1  6  0  0  0
 10 11  1  0  0  0  0
 11 12  2  0  0  0  0
 12 13  1  0  0  0  0
 13 14  2  0  0  0  0
 14 15  1  0  0  0  0
 10 15  2  0  0  0  0
 16 17  1  0  0  0  0
 12 16  1  0  0  0  0
 13 18  1  0  0  0  0
  9 10  1  0  0  0  0
  4  9  1  6  0  0  0
 19 20  1  0  0  0  0
 20 21  2  0  0  0  0
 21 22  1  0  0  0  0
 22 23  2  0  0  0  0
 23 24  1  0  0  0  0
 19 24  2  0  0  0  0
 25 26  1  0  0  0  0
 21 25  1  0  0  0  0
 22 27  1  0  0  0  0
  2 19  1  1  0  0  0
M  END
>  <cdx:fragmentId>
3214

$$$$
