3907.cdx
  Mrv1902 05222410182D          

 15 16  0  0  0  0            999 V2000
    6.5964   -4.9156    0.0000 C   0  0  0  0  0  0  0  0  0  0  0  0
    6.5964   -5.7406    0.0000 C   0  0  0  0  0  0  0  0  0  0  0  0
    7.3109   -6.1531    0.0000 C   0  0  0  0  0  0  0  0  0  0  0  0
    8.0253   -5.7406    0.0000 C   0  0  0  0  0  0  0  0  0  0  0  0
    8.0253   -4.9156    0.0000 C   0  0  0  0  0  0  0  0  0  0  0  0
    7.3109   -4.5031    0.0000 C   0  0  0  0  0  0  0  0  0  0  0  0
    7.3109   -6.9781    0.0000 C   0  0  0  0  0  0  0  0  0  0  0  0
    6.4859   -6.9781    0.0000 C   0  0  0  0  0  0  0  0  0  0  0  0
    8.1359   -6.9781    0.0000 C   0  0  0  0  0  0  0  0  0  0  0  0
    7.3109   -7.8031    0.0000 C   0  0  0  0  0  0  0  0  0  0  0  0
    6.5964   -8.2156    0.0000 C   0  0  0  0  0  0  0  0  0  0  0  0
    6.5964   -9.0406    0.0000 C   0  0  0  0  0  0  0  0  0  0  0  0
    7.3109   -9.4531    0.0000 C   0  0  0  0  0  0  0  0  0  0  0  0
    8.0253   -9.0406    0.0000 C   0  0  0  0  0  0  0  0  0  0  0  0
    8.0253   -8.2156    0.0000 C   0  0  0  0  0  0  0  0  0  0  0  0
  1  2  2  0  0  0  0
  2  3  1  0  0  0  0
  3  4  2  0  0  0  0
  4  5  1  0  0  0  0
  5  6  2  0  0  0  0
  6  1  1  0  0  0  0
  3  7  1  0  0  0  0
  7  8  1  0  0  0  0
  7  9  1  0  0  0  0
  7 10  1  0  0  0  0
 10 11  1  0  0  0  0
 11 12  1  0  0  0  0
 12 13  1  0  0  0  0
 13 14  1  0  0  0  0
 14 15  1  0  0  0  0
 15 10  1  0  0  0  0
M  END
>  <cdx:fragmentId>
5

$$$$
