1576.cdx
  Mrv1902 05222410202D          

 43 46  0  0  0  0            999 V2000
   14.1146  -10.5707    0.0000 O   0  0  0  0  0  0  0  0  0  0  0  0
   13.4002  -10.9832    0.0000 C   0  0  0  0  0  0  0  0  0  0  0  0
   13.4002  -11.8082    0.0000 C   0  0  2  0  0  0  0  0  0  0  0  0
   14.1146  -12.2207    0.0000 O   0  0  0  0  0  0  0  0  0  0  0  0
   12.6857  -12.2207    0.0000 C   0  0  1  0  0  0  0  0  0  0  0  0
   12.6857  -13.0457    0.0000 O   0  0  0  0  0  0  0  0  0  0  0  0
   11.9712  -11.8082    0.0000 C   0  0  2  0  0  0  0  0  0  0  0  0
   11.2568  -12.2207    0.0000 O   0  0  0  0  0  0  0  0  0  0  0  0
   11.9712  -10.9832    0.0000 C   0  0  2  0  0  0  0  0  0  0  0  0
   12.6857  -10.5707    0.0000 O   0  0  0  0  0  0  0  0  0  0  0  0
   11.2568  -10.5707    0.0000 C   0  0  0  0  0  0  0  0  0  0  0  0
   10.5423  -10.9832    0.0000 O   0  0  0  0  0  0  0  0  0  0  0  0
   14.8291  -10.9832    0.0000 C   0  0  0  0  0  0  0  0  0  0  0  0
   15.5436  -10.5707    0.0000 C   0  0  0  0  0  0  0  0  0  0  0  0
   15.5436   -9.7457    0.0000 C   0  0  0  0  0  0  0  0  0  0  0  0
   16.2581   -9.3332    0.0000 C   0  0  0  0  0  0  0  0  0  0  0  0
   16.2581   -8.5082    0.0000 O   0  0  0  0  0  0  0  0  0  0  0  0
   16.9725   -9.7457    0.0000 C   0  0  0  0  0  0  0  0  0  0  0  0
   17.6870   -9.3332    0.0000 O   0  0  0  0  0  0  0  0  0  0  0  0
   16.9725  -10.5707    0.0000 C   0  0  0  0  0  0  0  0  0  0  0  0
   17.6870  -10.9832    0.0000 O   0  0  0  0  0  0  0  0  0  0  0  0
   16.2581  -10.9832    0.0000 C   0  0  0  0  0  0  0  0  0  0  0  0
   14.8291  -11.8082    0.0000 O   0  0  0  0  0  0  0  0  0  0  0  0
   14.8291   -9.3332    0.0000 O   0  0  0  0  0  0  0  0  0  0  0  0
   14.8291   -8.5082    0.0000 C   0  0  0  0  0  0  0  0  0  0  0  0
   14.1146   -8.0957    0.0000 C   0  0  0  0  0  0  0  0  0  0  0  0
   14.1146   -7.2707    0.0000 C   0  0  0  0  0  0  0  0  0  0  0  0
   14.8291   -6.8582    0.0000 C   0  0  0  0  0  0  0  0  0  0  0  0
   15.5436   -7.2707    0.0000 C   0  0  0  0  0  0  0  0  0  0  0  0
   15.5436   -8.0957    0.0000 C   0  0  0  0  0  0  0  0  0  0  0  0
   16.2581  -11.8082    0.0000 O   0  0  0  0  0  0  0  0  0  0  0  0
   16.9725  -12.2207    0.0000 C   0  0  0  0  0  0  0  0  0  0  0  0
   16.9725  -13.0457    0.0000 C   0  0  0  0  0  0  0  0  0  0  0  0
   17.6870  -13.4582    0.0000 C   0  0  0  0  0  0  0  0  0  0  0  0
   18.4015  -13.0457    0.0000 C   0  0  0  0  0  0  0  0  0  0  0  0
   18.4015  -12.2207    0.0000 C   0  0  0  0  0  0  0  0  0  0  0  0
   17.6870  -11.8082    0.0000 C   0  0  0  0  0  0  0  0  0  0  0  0
   16.9725   -8.0957    0.0000 O   0  0  0  0  0  0  0  0  0  0  0  0
   18.4015   -9.7457    0.0000 O   0  0  0  0  0  0  0  0  0  0  0  0
   18.4015  -10.5707    0.0000 O   0  0  0  0  0  0  0  0  0  0  0  0
   13.4002   -8.5082    0.0000 O   0  0  0  0  0  0  0  0  0  0  0  0
   13.4002   -6.8582    0.0000 O   0  0  0  0  0  0  0  0  0  0  0  0
   14.8291   -6.0332    0.0000 O   0  0  0  0  0  0  0  0  0  0  0  0
  1  2  1  0  0  0  0
  2  3  1  0  0  0  0
  3  4  1  6  0  0  0
  3  5  1  0  0  0  0
  5  6  1  1  0  0  0
  5  7  1  0  0  0  0
  7  8  1  6  0  0  0
  7  9  1  0  0  0  0
  9 10  1  0  0  0  0
  9 11  1  1  0  0  0
 11 12  1  0  0  0  0
  2 10  1  0  0  0  0
 13 14  1  0  0  0  0
 14 15  1  0  0  0  0
 15 16  2  0  0  0  0
 16 17  1  0  0  0  0
 16 18  1  0  0  0  0
 18 19  1  0  0  0  0
 18 20  2  0  0  0  0
 20 21  1  0  0  0  0
 20 22  1  0  0  0  0
 14 22  2  0  0  0  0
 13 23  2  0  0  0  0
 25 26  1  0  0  0  0
 26 27  2  0  0  0  0
 27 28  1  0  0  0  0
 28 29  2  0  0  0  0
 29 30  1  0  0  0  0
 25 30  2  0  0  0  0
 24 25  1  0  0  0  0
 15 24  1  0  0  0  0
 32 33  1  0  0  0  0
 33 34  2  0  0  0  0
 34 35  1  0  0  0  0
 35 36  2  0  0  0  0
 36 37  1  0  0  0  0
 32 37  2  0  0  0  0
 31 32  1  0  0  0  0
 22 31  1  0  0  0  0
 17 38  1  0  0  0  0
 19 39  1  0  0  0  0
 21 40  1  0  0  0  0
 26 41  1  0  0  0  0
 27 42  1  0  0  0  0
 28 43  1  0  0  0  0
  1 13  1  0  0  0  0
M  END
>  <cdx:groupId>
589

>  <cdx:fragmentId>
484

$$$$
