1584.cdx
  Mrv1902 05222410262D          

 35 37  0  0  0  0            999 V2000
   17.1019  -10.7056    0.0000 C   0  0  0  0  0  0  0  0  0  0  0  0
   17.1019  -11.5277    0.0000 C   0  0  0  0  0  0  0  0  0  0  0  0
   17.8139  -11.9388    0.0000 C   0  0  0  0  0  0  0  0  0  0  0  0
   18.5259  -11.5277    0.0000 C   0  0  0  0  0  0  0  0  0  0  0  0
   18.5259  -10.7056    0.0000 C   0  0  0  0  0  0  0  0  0  0  0  0
   17.8139  -10.2945    0.0000 C   0  0  0  0  0  0  0  0  0  0  0  0
   19.2379  -10.2945    0.0000 O   0  0  0  0  0  0  0  0  0  0  0  0
   19.2379  -11.9388    0.0000 O   0  0  0  0  0  0  0  0  0  0  0  0
   19.9499  -10.7056    0.0000 C   0  0  0  0  0  0  0  0  0  0  0  0
   16.3899  -10.2945    0.0000 C   0  0  0  0  0  0  0  0  0  0  0  0
   15.6780  -10.7056    0.0000 C   0  0  0  0  0  0  0  0  0  0  0  0
   14.9660  -10.2945    0.0000 C   0  0  0  0  0  0  0  0  0  0  0  0
   14.2540  -10.7056    0.0000 O   0  0  0  0  0  0  0  0  0  0  0  0
   14.3034  -11.8740    0.0000 C   0  0  0  0  0  0  0  0  0  0  0  0
   13.6671  -11.3534    0.0000 O   0  0  0  0  0  0  0  0  0  0  0  0
   12.9969  -11.8296    0.0000 C   0  0  0  0  0  0  0  0  0  0  0  0
   12.1776  -11.8740    0.0000 C   0  0  0  0  0  0  0  0  0  0  0  0
   12.8138  -12.3947    0.0000 C   0  0  0  0  0  0  0  0  0  0  0  0
   13.4841  -11.9186    0.0000 C   0  0  0  0  0  0  0  0  0  0  0  0
   13.8985  -12.7706    0.0000 O   0  0  0  0  0  0  0  0  0  0  0  0
   11.8739  -12.3368    0.0000 O   0  0  0  0  0  0  0  0  0  0  0  0
   12.3078  -12.5681    0.0000 O   0  0  0  0  0  0  0  0  0  0  0  0
   12.5391  -10.9196    0.0000 C   0  0  0  0  0  0  0  0  0  0  0  0
   11.7184  -10.8723    0.0000 O   0  0  0  0  0  0  0  0  0  0  0  0
   11.2611  -11.5684    0.0000 C   0  0  0  0  0  0  0  0  0  0  0  0
   10.7223  -10.9475    0.0000 O   0  0  0  0  0  0  0  0  0  0  0  0
    9.9810  -11.3032    0.0000 C   0  0  0  0  0  0  0  0  0  0  0  0
    9.1611  -11.2452    0.0000 C   0  0  0  0  0  0  0  0  0  0  0  0
    9.6999  -11.8662    0.0000 C   0  0  0  0  0  0  0  0  0  0  0  0
   10.4412  -11.5104    0.0000 C   0  0  0  0  0  0  0  0  0  0  0  0
    9.8088  -10.6789    0.0000 C   0  0  0  0  0  0  0  0  0  0  0  0
    9.0132  -10.4720    0.0000 O   0  0  0  0  0  0  0  0  0  0  0  0
    8.4987  -11.8975    0.0000 O   0  0  0  0  0  0  0  0  0  0  0  0
    9.1738  -11.8287    0.0000 O   0  0  0  0  0  0  0  0  0  0  0  0
   10.5324  -11.9831    0.0000 O   0  0  0  0  0  0  0  0  0  0  0  0
  1  2  2  0  0  0  0
  2  3  1  0  0  0  0
  3  4  2  0  0  0  0
  4  5  1  0  0  0  0
  5  6  2  0  0  0  0
  6  1  1  0  0  0  0
  5  7  1  0  0  0  0
  4  8  1  0  0  0  0
  7  9  1  0  0  0  0
  1 10  1  0  0  0  0
 10 11  2  0  0  0  0
 11 12  1  0  0  0  0
 12 13  1  0  0  0  0
 13 14  1  0  0  0  0
 14 15  1  0  0  0  0
 15 16  1  0  0  0  0
 16 17  1  0  0  0  0
 17 18  1  0  0  0  0
 18 19  1  0  0  0  0
 19 14  1  0  0  0  0
 19 20  1  0  0  0  0
 17 21  1  0  0  0  0
 18 22  1  0  0  0  0
 16 23  1  0  0  0  0
 23 24  1  0  0  0  0
 24 25  1  0  0  0  0
 25 26  1  0  0  0  0
 26 27  1  0  0  0  0
 27 28  1  0  0  0  0
 28 29  1  0  0  0  0
 29 30  1  0  0  0  0
 30 25  1  0  0  0  0
 27 31  1  0  0  0  0
 31 32  1  0  0  0  0
 28 33  1  0  0  0  0
 29 34  1  0  0  0  0
 30 35  1  0  0  0  0
M  END
>  <cdx:fragmentId>
389

$$$$
