39098.cdx
  Mrv1902 05222410182D          

 70 76  0  0  0  0            999 V2000
   17.9801  -11.4949    0.0000 C   0  0  0  0  0  0  0  0  0  0  0  0
   17.9801  -12.3170    0.0000 C   0  0  0  0  0  0  0  0  0  0  0  0
   18.6921  -12.7281    0.0000 C   0  0  0  0  0  0  0  0  0  0  0  0
   19.4041  -12.3170    0.0000 C   0  0  0  0  0  0  0  0  0  0  0  0
   19.4041  -11.4949    0.0000 C   0  0  0  0  0  0  0  0  0  0  0  0
   18.6921  -11.0838    0.0000 C   0  0  0  0  0  0  0  0  0  0  0  0
   20.1161  -11.0838    0.0000 O   0  0  0  0  0  0  0  0  0  0  0  0
   20.1161  -12.7281    0.0000 O   0  0  0  0  0  0  0  0  0  0  0  0
   20.8280  -11.4949    0.0000 C   0  0  0  0  0  0  0  0  0  0  0  0
   17.2681  -11.0838    0.0000 C   0  0  0  0  0  0  0  0  0  0  0  0
   16.5561  -11.4949    0.0000 C   0  0  0  0  0  0  0  0  0  0  0  0
   15.8441  -11.0838    0.0000 C   0  0  0  0  0  0  0  0  0  0  0  0
   15.1321  -11.4949    0.0000 O   0  0  0  0  0  0  0  0  0  0  0  0
   15.8441  -10.2617    0.0000 O   0  0  0  0  0  0  0  0  0  0  0  0
   14.4201  -11.0838    0.0000 C   0  0  0  0  0  0  0  0  0  0  0  0
   12.9961  -11.0838    0.0000 O   0  0  0  0  0  0  0  0  0  0  0  0
   12.2842  -11.4949    0.0000 C   0  0  2  0  0  0  0  0  0  0  0  0
   12.2842  -12.3170    0.0000 C   0  0  1  0  0  0  0  0  0  0  0  0
   12.9961  -12.7281    0.0000 C   0  0  2  0  0  0  0  0  0  0  0  0
   13.7081  -12.3170    0.0000 C   0  0  1  0  0  0  0  0  0  0  0  0
   13.7081  -11.4949    0.0000 C   0  0  0  0  0  0  0  0  0  0  0  0
   11.5722  -12.7281    0.0000 O   0  0  0  0  0  0  0  0  0  0  0  0
   14.4201  -12.7281    0.0000 O   0  0  0  0  0  0  0  0  0  0  0  0
   12.9961  -13.5502    0.0000 O   0  0  0  0  0  0  0  0  0  0  0  0
   11.5722  -11.0838    0.0000 C   0  0  0  0  0  0  0  0  0  0  0  0
   11.5722  -10.2617    0.0000 C   0  0  0  0  0  0  0  0  0  0  0  0
   10.8602   -9.8506    0.0000 C   0  0  1  0  0  0  0  0  0  0  0  0
   10.8602   -9.0285    0.0000 O   0  0  0  0  0  0  0  0  0  0  0  0
   11.5722   -8.6174    0.0000 C   0  0  0  0  0  0  0  0  0  0  0  0
   12.2842   -9.0285    0.0000 C   0  0  2  0  0  0  0  0  0  0  0  0
   12.2842   -9.8506    0.0000 C   0  0  2  0  0  0  0  0  0  0  0  0
   12.9961  -10.2617    0.0000 O   0  0  0  0  0  0  0  0  0  0  0  0
   12.9961   -8.6174    0.0000 O   0  0  0  0  0  0  0  0  0  0  0  0
   11.5722   -7.7953    0.0000 O   0  0  0  0  0  0  0  0  0  0  0  0
   10.8602   -7.3842    0.0000 C   0  0  0  0  0  0  0  0  0  0  0  0
   10.1482  -10.2617    0.0000 C   0  0  0  0  0  0  0  0  0  0  0  0
    9.4362   -9.8506    0.0000 C   0  0  0  0  0  0  0  0  0  0  0  0
    8.7242  -10.2617    0.0000 C   0  0  0  0  0  0  0  0  0  0  0  0
    8.0122   -9.8506    0.0000 O   0  0  0  0  0  0  0  0  0  0  0  0
    8.0122   -9.0285    0.0000 C   0  0  0  0  0  0  0  0  0  0  0  0
    8.7242   -8.6174    0.0000 C   0  0  0  0  0  0  0  0  0  0  0  0
    9.4362   -9.0285    0.0000 C   0  0  0  0  0  0  0  0  0  0  0  0
    7.3002   -8.6174    0.0000 C   0  0  0  0  0  0  0  0  0  0  0  0
    7.3002   -7.7953    0.0000 C   0  0  0  0  0  0  0  0  0  0  0  0
    8.0122   -7.3842    0.0000 C   0  0  0  0  0  0  0  0  0  0  0  0
    8.7242   -7.7953    0.0000 C   0  0  0  0  0  0  0  0  0  0  0  0
   10.1482   -8.6174    0.0000 O   0  0  0  0  0  0  0  0  0  0  0  0
    8.7242  -11.0838    0.0000 C   0  0  0  0  0  0  0  0  0  0  0  0
    9.4362  -11.4949    0.0000 C   0  0  0  0  0  0  0  0  0  0  0  0
    9.4362  -12.3170    0.0000 C   0  0  0  0  0  0  0  0  0  0  0  0
    8.7242  -12.7281    0.0000 C   0  0  0  0  0  0  0  0  0  0  0  0
    8.0122  -12.3170    0.0000 C   0  0  0  0  0  0  0  0  0  0  0  0
    8.0122  -11.4949    0.0000 C   0  0  0  0  0  0  0  0  0  0  0  0
    8.7242  -13.5502    0.0000 O   0  0  0  0  0  0  0  0  0  0  0  0
    7.3002  -12.7281    0.0000 O   0  0  0  0  0  0  0  0  0  0  0  0
    7.3002  -13.5502    0.0000 C   0  0  0  0  0  0  0  0  0  0  0  0
    6.5882   -7.3842    0.0000 O   0  0  0  0  0  0  0  0  0  0  0  0
    5.8762   -6.1510    0.0000 O   0  0  0  0  0  0  0  0  0  0  0  0
    5.8762   -5.3288    0.0000 C   0  0  2  0  0  0  0  0  0  0  0  0
    6.5882   -4.9178    0.0000 C   0  0  1  0  0  0  0  0  0  0  0  0
    7.3002   -5.3288    0.0000 C   0  0  2  0  0  0  0  0  0  0  0  0
    7.3002   -6.1510    0.0000 C   0  0  2  0  0  0  0  0  0  0  0  0
    6.5882   -6.5620    0.0000 C   0  0  0  0  0  0  0  0  0  0  0  0
    5.1643   -4.9178    0.0000 C   0  0  0  0  0  0  0  0  0  0  0  0
    8.0122   -4.9178    0.0000 O   0  0  0  0  0  0  0  0  0  0  0  0
    8.0122   -6.5620    0.0000 O   0  0  0  0  0  0  0  0  0  0  0  0
    6.5882   -4.0956    0.0000 O   0  0  0  0  0  0  0  0  0  0  0  0
    9.4362   -7.3842    0.0000 O   0  0  0  0  0  0  0  0  0  0  0  0
   18.6921  -13.5502    0.0000 O   0  0  0  0  0  0  0  0  0  0  0  0
   19.4041  -13.9613    0.0000 C   0  0  0  0  0  0  0  0  0  0  0  0
  1  2  2  0  0  0  0
  2  3  1  0  0  0  0
  3  4  2  0  0  0  0
  4  5  1  0  0  0  0
  5  6  2  0  0  0  0
  6  1  1  0  0  0  0
  5  7  1  0  0  0  0
  4  8  1  0  0  0  0
  7  9  1  0  0  0  0
  1 10  1  0  0  0  0
 10 11  2  0  0  0  0
 11 12  1  0  0  0  0
 12 13  1  0  0  0  0
 12 14  2  0  0  0  0
 13 15  1  0  0  0  0
 16 21  1  0  0  0  0
 15 21  1  0  0  0  0
 17 16  1  0  0  0  0
 18 17  1  0  0  0  0
 19 18  1  0  0  0  0
 20 19  1  0  0  0  0
 21 20  1  0  0  0  0
 18 22  1  1  0  0  0
 20 23  1  1  0  0  0
 19 24  1  6  0  0  0
 17 25  1  6  0  0  0
 25 26  1  0  0  0  0
 26 27  1  0  0  0  0
 27 28  1  0  0  0  0
 28 29  1  0  0  0  0
 29 30  1  0  0  0  0
 30 31  1  0  0  0  0
 31 26  1  0  0  0  0
 31 32  1  6  0  0  0
 30 33  1  1  0  0  0
 29 34  1  0  0  0  0
 34 35  1  0  0  0  0
 27 36  1  6  0  0  0
 36 37  1  0  0  0  0
 37 38  2  0  0  0  0
 38 39  1  0  0  0  0
 39 40  1  0  0  0  0
 40 41  2  0  0  0  0
 41 42  1  0  0  0  0
 42 37  1  0  0  0  0
 40 43  1  0  0  0  0
 43 44  2  0  0  0  0
 44 45  1  0  0  0  0
 45 46  2  0  0  0  0
 46 41  1  0  0  0  0
 42 47  2  0  0  0  0
 38 48  1  0  0  0  0
 48 49  2  0  0  0  0
 49 50  1  0  0  0  0
 50 51  2  0  0  0  0
 51 52  1  0  0  0  0
 52 53  2  0  0  0  0
 53 48  1  0  0  0  0
 51 54  1  0  0  0  0
 52 55  1  0  0  0  0
 55 56  1  0  0  0  0
 44 57  1  0  0  0  0
 58 63  1  0  0  0  0
 57 63  1  0  0  0  0
 59 58  1  0  0  0  0
 60 59  1  0  0  0  0
 61 60  1  0  0  0  0
 62 61  1  0  0  0  0
 63 62  1  0  0  0  0
 59 64  1  1  0  0  0
 61 65  1  1  0  0  0
 62 66  1  1  0  0  0
 60 67  1  6  0  0  0
 46 68  1  0  0  0  0
  3 69  1  0  0  0  0
 69 70  1  0  0  0  0
M  END
>  <cdx:fragmentId>
5

$$$$
