39096.cdx
  Mrv1902 05222410272D          

 54 58  0  0  0  0            999 V2000
    6.3533   -7.0554    0.0000 O   0  0  0  0  0  0  0  0  0  0  0  0
    7.7822   -5.4054    0.0000 O   0  0  0  0  0  0  0  0  0  0  0  0
    7.0678   -5.8179    0.0000 C   0  0  1  0  0  0  0  0  0  0  0  0
    7.0678   -6.6429    0.0000 C   0  0  2  0  0  0  0  0  0  0  0  0
    7.7822   -7.0554    0.0000 C   0  0  1  0  0  0  0  0  0  0  0  0
    8.4967   -6.6429    0.0000 C   0  0  2  0  0  0  0  0  0  0  0  0
    8.4967   -5.8179    0.0000 C   0  0  2  0  0  0  0  0  0  0  0  0
    6.3533   -5.4054    0.0000 C   0  0  0  0  0  0  0  0  0  0  0  0
    6.3533   -4.5804    0.0000 O   0  0  0  0  0  0  0  0  0  0  0  0
    7.7822   -7.8804    0.0000 O   0  0  0  0  0  0  0  0  0  0  0  0
    7.8307   -9.3085    0.0000 O   0  0  0  0  0  0  0  0  0  0  0  0
    8.2187   -8.5804    0.0000 C   0  0  2  0  0  0  0  0  0  0  0  0
    9.0433   -8.5525    0.0000 C   0  0  1  0  0  0  0  0  0  0  0  0
    9.4797   -9.2525    0.0000 C   0  0  1  0  0  0  0  0  0  0  0  0
    9.0917   -9.9806    0.0000 C   0  0  2  0  0  0  0  0  0  0  0  0
    8.2672  -10.0085    0.0000 C   0  0  2  0  0  0  0  0  0  0  0  0
    7.8791  -10.7366    0.0000 C   0  0  0  0  0  0  0  0  0  0  0  0
    9.5282  -10.6806    0.0000 O   0  0  0  0  0  0  0  0  0  0  0  0
   10.3043   -9.2246    0.0000 O   0  0  0  0  0  0  0  0  0  0  0  0
    9.4313   -7.8244    0.0000 O   0  0  0  0  0  0  0  0  0  0  0  0
    9.2112   -7.0554    0.0000 O   0  0  0  0  0  0  0  0  0  0  0  0
    9.2112   -5.4054    0.0000 O   0  0  0  0  0  0  0  0  0  0  0  0
    9.9256   -5.8179    0.0000 C   0  0  0  0  0  0  0  0  0  0  0  0
   10.6401   -5.4054    0.0000 C   0  0  0  0  0  0  0  0  0  0  0  0
   11.3546   -5.8179    0.0000 C   0  0  0  0  0  0  0  0  0  0  0  0
   12.0691   -5.4054    0.0000 C   0  0  0  0  0  0  0  0  0  0  0  0
   12.7835   -5.8179    0.0000 C   0  0  0  0  0  0  0  0  0  0  0  0
   12.7835   -6.6429    0.0000 C   0  0  0  0  0  0  0  0  0  0  0  0
   12.0691   -7.0554    0.0000 C   0  0  0  0  0  0  0  0  0  0  0  0
   11.3546   -6.6429    0.0000 C   0  0  0  0  0  0  0  0  0  0  0  0
   13.4980   -7.0554    0.0000 O   0  0  0  0  0  0  0  0  0  0  0  0
   13.4980   -5.4054    0.0000 O   0  0  0  0  0  0  0  0  0  0  0  0
    5.6388   -4.1679    0.0000 C   0  0  0  0  0  0  0  0  0  0  0  0
    5.6388   -3.3429    0.0000 O   0  0  0  0  0  0  0  0  0  0  0  0
    4.9244   -4.5804    0.0000 C   0  0  0  0  0  0  0  0  0  0  0  0
    4.2099   -4.1679    0.0000 C   0  0  0  0  0  0  0  0  0  0  0  0
    3.4954   -4.5804    0.0000 C   0  0  0  0  0  0  0  0  0  0  0  0
    2.7809   -4.1679    0.0000 C   0  0  0  0  0  0  0  0  0  0  0  0
    2.0665   -4.5804    0.0000 C   0  0  0  0  0  0  0  0  0  0  0  0
    2.0665   -5.4054    0.0000 C   0  0  0  0  0  0  0  0  0  0  0  0
    2.7809   -5.8179    0.0000 C   0  0  0  0  0  0  0  0  0  0  0  0
    3.4954   -5.4054    0.0000 C   0  0  0  0  0  0  0  0  0  0  0  0
    1.3520   -4.1679    0.0000 O   0  0  0  0  0  0  0  0  0  0  0  0
    1.3520   -5.8179    0.0000 O   0  0  0  0  0  0  0  0  0  0  0  0
    5.6388   -7.4679    0.0000 C   0  0  2  0  0  0  0  0  0  0  0  0
    4.9244   -7.0554    0.0000 O   0  0  0  0  0  0  0  0  0  0  0  0
    4.2099   -7.4679    0.0000 C   0  0  2  0  0  0  0  0  0  0  0  0
    4.2099   -8.2929    0.0000 C   0  0  1  0  0  0  0  0  0  0  0  0
    4.9244   -8.7054    0.0000 C   0  0  2  0  0  0  0  0  0  0  0  0
    5.6388   -8.2929    0.0000 C   0  0  1  0  0  0  0  0  0  0  0  0
    3.4954   -7.0554    0.0000 C   0  0  0  0  0  0  0  0  0  0  0  0
    4.9244   -9.5304    0.0000 O   0  0  0  0  0  0  0  0  0  0  0  0
    6.3533   -8.7054    0.0000 O   0  0  0  0  0  0  0  0  0  0  0  0
    3.4954   -8.7054    0.0000 O   0  0  0  0  0  0  0  0  0  0  0  0
  2  3  1  0  0  0  0
  3  4  1  0  0  0  0
  4  5  1  0  0  0  0
  5  6  1  0  0  0  0
  6  7  1  0  0  0  0
  2  7  1  0  0  0  0
  8  9  1  0  0  0  0
  3  8  1  1  0  0  0
 11 12  1  0  0  0  0
 12 13  1  0  0  0  0
 13 14  1  0  0  0  0
 14 15  1  0  0  0  0
 15 16  1  0  0  0  0
 11 16  1  0  0  0  0
 16 17  1  6  0  0  0
 15 18  1  1  0  0  0
 14 19  1  6  0  0  0
 13 20  1  6  0  0  0
 12 10  1  1  0  0  0
  5 10  1  1  0  0  0
  6 21  1  6  0  0  0
 23 24  1  0  0  0  0
 22 23  1  0  0  0  0
 25 26  1  0  0  0  0
 26 27  2  0  0  0  0
 27 28  1  0  0  0  0
 28 29  2  0  0  0  0
 29 30  1  0  0  0  0
 25 30  2  0  0  0  0
 28 31  1  0  0  0  0
 27 32  1  0  0  0  0
 24 25  1  0  0  0  0
  7 22  1  1  0  0  0
  4  1  1  6  0  0  0
  9 33  1  0  0  0  0
 33 34  2  0  0  0  0
 33 35  1  0  0  0  0
 35 36  2  0  0  0  0
 36 37  1  0  0  0  0
 37 38  2  0  0  0  0
 38 39  1  0  0  0  0
 39 40  2  0  0  0  0
 40 41  1  0  0  0  0
 41 42  2  0  0  0  0
 42 37  1  0  0  0  0
 39 43  1  0  0  0  0
 40 44  1  0  0  0  0
 45  1  1  1  0  0  0
 45 46  1  0  0  0  0
 46 47  1  0  0  0  0
 47 48  1  0  0  0  0
 48 49  1  0  0  0  0
 49 50  1  0  0  0  0
 50 45  1  0  0  0  0
 47 51  1  6  0  0  0
 49 52  1  6  0  0  0
 50 53  1  6  0  0  0
 48 54  1  1  0  0  0
M  END
>  <cdx:groupId>
168

>  <cdx:fragmentId>
47

$$$$
