39095.cdx
  Mrv1902 05222410282D          

 34 36  0  0  0  0            999 V2000
    5.7362   -9.8941    0.0000 O   0  0  0  0  0  0  0  0  0  0  0  0
    4.4987   -9.1796    0.0000 O   0  0  0  0  0  0  0  0  0  0  0  0
    4.9112   -9.8941    0.0000 C   0  0  1  0  0  0  0  0  0  0  0  0
    4.4987  -10.6086    0.0000 C   0  0  1  0  0  0  0  0  0  0  0  0
    3.6737  -10.6086    0.0000 C   0  0  2  0  0  0  0  0  0  0  0  0
    3.2612   -9.8941    0.0000 C   0  0  1  0  0  0  0  0  0  0  0  0
    3.6737   -9.1796    0.0000 C   0  0  1  0  0  0  0  0  0  0  0  0
    3.2612   -8.4652    0.0000 C   0  0  0  0  0  0  0  0  0  0  0  0
    2.4362   -8.4652    0.0000 O   0  0  0  0  0  0  0  0  0  0  0  0
    2.4362   -9.8941    0.0000 O   0  0  0  0  0  0  0  0  0  0  0  0
    3.2612  -11.3230    0.0000 O   0  0  0  0  0  0  0  0  0  0  0  0
    4.9112  -11.3230    0.0000 O   0  0  0  0  0  0  0  0  0  0  0  0
    8.5941   -9.8941    0.0000 O   0  0  0  0  0  0  0  0  0  0  0  0
    7.1651  -10.7191    0.0000 O   0  0  0  0  0  0  0  0  0  0  0  0
    5.0217   -8.6566    0.0000 O   0  0  0  0  0  0  0  0  0  0  0  0
    5.7362   -8.2441    0.0000 C   0  0  0  0  0  0  0  0  0  0  0  0
    6.4507   -8.6566    0.0000 C   0  0  2  0  0  0  0  0  0  0  0  0
    6.4507   -9.4816    0.0000 C   0  0  2  0  0  0  0  0  0  0  0  0
    7.1651   -9.8941    0.0000 C   0  0  1  0  0  0  0  0  0  0  0  0
    7.8796   -9.4816    0.0000 C   0  0  2  0  0  0  0  0  0  0  0  0
    7.8796   -8.6566    0.0000 C   0  0  2  0  0  0  0  0  0  0  0  0
    7.1651   -8.2441    0.0000 O   0  0  0  0  0  0  0  0  0  0  0  0
    8.5941   -8.2441    0.0000 O   0  0  0  0  0  0  0  0  0  0  0  0
    8.5941   -7.4191    0.0000 C   0  0  0  0  0  0  0  0  0  0  0  0
    9.3086   -7.0066    0.0000 C   0  0  2  0  0  0  0  0  0  0  0  0
   10.0230   -7.4191    0.0000 C   0  0  2  0  0  0  0  0  0  0  0  0
   10.7375   -7.0066    0.0000 C   0  0  1  0  0  0  0  0  0  0  0  0
   10.7375   -6.1816    0.0000 C   0  0  2  0  0  0  0  0  0  0  0  0
   10.0230   -5.7691    0.0000 C   0  0  2  0  0  0  0  0  0  0  0  0
    9.3086   -6.1816    0.0000 O   0  0  0  0  0  0  0  0  0  0  0  0
   10.0230   -4.9441    0.0000 O   0  0  0  0  0  0  0  0  0  0  0  0
   11.4520   -5.7691    0.0000 O   0  0  0  0  0  0  0  0  0  0  0  0
   11.4520   -7.4191    0.0000 O   0  0  0  0  0  0  0  0  0  0  0  0
   10.0230   -8.2441    0.0000 O   0  0  0  0  0  0  0  0  0  0  0  0
 21 23  1  6  0  0  0
 20 13  1  6  0  0  0
 19 14  1  1  0  0  0
 17 16  1  1  0  0  0
 16 15  1  0  0  0  0
 18  1  1  6  0  0  0
 22 17  1  0  0  0  0
 18 17  1  0  0  0  0
 19 18  1  0  0  0  0
 20 19  1  0  0  0  0
 21 20  1  0  0  0  0
 22 21  1  0  0  0  0
  2  3  1  0  0  0  0
  3  4  1  0  0  0  0
  4  5  1  0  0  0  0
  5  6  1  0  0  0  0
  6  7  1  0  0  0  0
  2  7  1  0  0  0  0
  8  9  1  0  0  0  0
  7  8  1  1  0  0  0
  6 10  1  6  0  0  0
  5 11  1  1  0  0  0
  4 12  1  6  0  0  0
  3  1  1  6  0  0  0
 23 24  1  0  0  0  0
 25 24  1  1  0  0  0
 25 26  1  0  0  0  0
 26 27  1  0  0  0  0
 27 28  1  0  0  0  0
 28 29  1  0  0  0  0
 29 30  1  0  0  0  0
 30 25  1  0  0  0  0
 29 31  1  6  0  0  0
 28 32  1  6  0  0  0
 27 33  1  1  0  0  0
 26 34  1  6  0  0  0
M  END
>  <cdx:groupId>
182

>  <cdx:fragmentId>
120

$$$$
