39091.cdx
  Mrv1902 05222410262D          

 34 35  0  0  0  0            999 V2000
    5.7362   -9.8941    0.0000 O   0  0  0  0  0  0  0  0  0  0  0  0
    8.5941   -9.8941    0.0000 O   0  0  0  0  0  0  0  0  0  0  0  0
    7.1651  -10.7191    0.0000 O   0  0  0  0  0  0  0  0  0  0  0  0
    5.0217   -8.6566    0.0000 O   0  0  0  0  0  0  0  0  0  0  0  0
    5.7362   -8.2441    0.0000 C   0  0  0  0  0  0  0  0  0  0  0  0
    6.4507   -8.6566    0.0000 C   0  0  2  0  0  0  0  0  0  0  0  0
    6.4507   -9.4816    0.0000 C   0  0  2  0  0  0  0  0  0  0  0  0
    7.1651   -9.8941    0.0000 C   0  0  1  0  0  0  0  0  0  0  0  0
    7.8796   -9.4816    0.0000 C   0  0  2  0  0  0  0  0  0  0  0  0
    7.8796   -8.6566    0.0000 C   0  0  2  0  0  0  0  0  0  0  0  0
    7.1651   -8.2441    0.0000 O   0  0  0  0  0  0  0  0  0  0  0  0
    8.5941   -8.2441    0.0000 O   0  0  0  0  0  0  0  0  0  0  0  0
    8.5941   -7.4191    0.0000 C   0  0  1  0  0  0  0  0  0  0  0  0
    4.3073   -8.2441    0.0000 C   0  0  2  0  0  0  0  0  0  0  0  0
    4.3073   -7.4191    0.0000 C   0  0  1  0  0  0  0  0  0  0  0  0
    3.5928   -7.0066    0.0000 C   0  0  2  0  0  0  0  0  0  0  0  0
    2.8783   -7.4191    0.0000 C   0  0  1  0  0  0  0  0  0  0  0  0
    2.8783   -8.2441    0.0000 C   0  0  2  0  0  0  0  0  0  0  0  0
    3.5928   -8.6566    0.0000 O   0  0  0  0  0  0  0  0  0  0  0  0
    2.1638   -8.6566    0.0000 C   0  0  0  0  0  0  0  0  0  0  0  0
    1.4494   -8.2441    0.0000 O   0  0  0  0  0  0  0  0  0  0  0  0
    2.1638   -7.0066    0.0000 O   0  0  0  0  0  0  0  0  0  0  0  0
    3.5928   -6.1816    0.0000 O   0  0  0  0  0  0  0  0  0  0  0  0
    5.0217   -7.0066    0.0000 O   0  0  0  0  0  0  0  0  0  0  0  0
    9.3086   -7.0066    0.0000 C   0  0  2  0  0  0  0  0  0  0  0  0
    7.8796   -7.0066    0.0000 C   0  0  2  0  0  0  0  0  0  0  0  0
    7.1651   -7.4191    0.0000 O   0  0  0  0  0  0  0  0  0  0  0  0
    7.8796   -6.1816    0.0000 C   0  0  0  0  0  0  0  0  0  0  0  0
    7.1651   -5.7691    0.0000 O   0  0  0  0  0  0  0  0  0  0  0  0
   10.0230   -7.4191    0.0000 O   0  0  0  0  0  0  0  0  0  0  0  0
    9.3086   -6.1816    0.0000 C   0  0  1  0  0  0  0  0  0  0  0  0
    8.5941   -5.7691    0.0000 O   0  0  0  0  0  0  0  0  0  0  0  0
   10.0230   -5.7691    0.0000 C   0  0  0  0  0  0  0  0  0  0  0  0
   10.0230   -4.9441    0.0000 O   0  0  0  0  0  0  0  0  0  0  0  0
 10 12  1  6  0  0  0
  9  2  1  6  0  0  0
  8  3  1  1  0  0  0
  6  5  1  1  0  0  0
  5  4  1  0  0  0  0
  7  1  1  6  0  0  0
 11  6  1  0  0  0  0
  7  6  1  0  0  0  0
  8  7  1  0  0  0  0
  9  8  1  0  0  0  0
 10  9  1  0  0  0  0
 11 10  1  0  0  0  0
 13 12  1  6  0  0  0
 14  4  1  1  0  0  0
 14 15  1  0  0  0  0
 15 16  1  0  0  0  0
 16 17  1  0  0  0  0
 17 18  1  0  0  0  0
 18 19  1  0  0  0  0
 19 14  1  0  0  0  0
 18 20  1  6  0  0  0
 20 21  1  0  0  0  0
 17 22  1  1  0  0  0
 16 23  1  6  0  0  0
 15 24  1  1  0  0  0
 13 25  1  0  0  0  0
 13 26  1  0  0  0  0
 26 27  1  6  0  0  0
 26 28  1  0  0  0  0
 28 29  1  0  0  0  0
 25 30  1  1  0  0  0
 25 31  1  0  0  0  0
 31 32  1  1  0  0  0
 31 33  1  0  0  0  0
 33 34  2  0  0  0  0
M  END
>  <cdx:groupId>
182

>  <cdx:fragmentId>
120

$$$$
