391.cdx
  Mrv1902 05222410242D          

 10 10  0  0  0  0            999 V2000
    8.0819   -9.4082    0.0000 C   0  0  0  0  0  0  0  0  0  0  0  0
    8.0838   -8.5832    0.0000 C   0  0  0  0  0  0  0  0  0  0  0  0
    7.3703   -8.1690    0.0000 N   0  0  0  0  0  0  0  0  0  0  0  0
    6.6548   -8.5799    0.0000 C   0  0  1  0  0  0  0  0  0  0  0  0
    6.6529   -9.4049    0.0000 C   0  0  2  0  0  0  0  0  0  0  0  0
    7.3664   -9.8190    0.0000 C   0  0  2  0  0  0  0  0  0  0  0  0
    7.3645  -10.6440    0.0000 O   0  0  0  0  0  0  0  0  0  0  0  0
    5.9366   -9.9807    0.0000 O   0  0  0  0  0  0  0  0  0  0  0  0
    5.9413   -8.1657    0.0000 C   0  0  0  0  0  0  0  0  0  0  0  0
    5.2269   -8.5782    0.0000 O   0  0  0  0  0  0  0  0  0  0  0  0
  1  2  1  0  0  0  0
  2  3  1  0  0  0  0
  3  4  1  0  0  0  0
  4  5  1  0  0  0  0
  5  6  1  0  0  0  0
  6  1  1  0  0  0  0
  6  7  1  1  0  0  0
  4  9  1  1  0  0  0
  9 10  1  0  0  0  0
  5  8  1  6  0  0  0
M  END
>  <cdx:fragmentId>
2193

$$$$
