39108.cdx
  Mrv1902 05222410272D          

 38 42  0  0  0  0            999 V2000
    4.4793   -9.0828    0.0000 C   0  0  1  0  0  0  0  0  0  0  0  0
    4.4793   -9.9049    0.0000 C   0  0  1  0  0  0  0  0  0  0  0  0
    5.1913  -10.3160    0.0000 C   0  0  1  0  0  0  0  0  0  0  0  0
    5.9033   -9.9049    0.0000 C   0  0  1  0  0  0  0  0  0  0  0  0
    5.9033   -9.0828    0.0000 C   0  0  2  0  0  0  0  0  0  0  0  0
    5.1913   -8.6717    0.0000 C   0  0  0  0  0  0  0  0  0  0  0  0
    6.6153  -10.3160    0.0000 C   0  0  0  0  0  0  0  0  0  0  0  0
    7.3273   -9.9049    0.0000 C   0  0  0  0  0  0  0  0  0  0  0  0
    7.3273   -9.0828    0.0000 C   0  0  2  0  0  0  0  0  0  0  0  0
    6.6153   -8.6717    0.0000 C   0  0  2  0  0  0  0  0  0  0  0  0
    8.0392   -8.6717    0.0000 C   0  0  1  0  0  0  0  0  0  0  0  0
    8.0392   -7.8496    0.0000 C   0  0  0  0  0  0  0  0  0  0  0  0
    7.3273   -7.4385    0.0000 C   0  0  0  0  0  0  0  0  0  0  0  0
    6.6153   -7.8496    0.0000 C   0  0  0  0  0  0  0  0  0  0  0  0
    8.7512   -9.0828    0.0000 C   0  0  0  0  0  0  0  0  0  0  0  0
    9.4632   -8.6717    0.0000 C   0  0  0  0  0  0  0  0  0  0  0  0
    9.4632   -7.8496    0.0000 C   0  0  0  0  0  0  0  0  0  0  0  0
    8.7512   -7.4385    0.0000 C   0  0  1  0  0  0  0  0  0  0  0  0
   10.1752   -7.4385    0.0000 C   0  0  1  0  0  0  0  0  0  0  0  0
   10.1752   -6.6164    0.0000 C   0  0  0  0  0  0  0  0  0  0  0  0
    9.4632   -6.2053    0.0000 C   0  0  0  0  0  0  0  0  0  0  0  0
    8.7512   -6.6164    0.0000 C   0  0  0  0  0  0  0  0  0  0  0  0
    5.9033   -8.2607    0.0000 C   0  0  0  0  0  0  0  0  0  0  0  0
    4.7802  -11.0280    0.0000 C   0  0  0  0  0  0  0  0  0  0  0  0
    3.7673  -10.3160    0.0000 O   0  0  0  0  0  0  0  0  0  0  0  0
    7.3273   -8.2578    0.0000 C   0  0  0  0  0  0  0  0  0  0  0  0
   10.8872   -7.8496    0.0000 C   0  0  0  0  0  0  0  0  0  0  0  0
    3.7673   -8.6717    0.0000 O   0  0  0  0  0  0  0  0  0  0  0  0
    5.6024  -11.0280    0.0000 C   0  0  0  0  0  0  0  0  0  0  0  0
    8.0392   -9.4967    0.0000 C   0  0  0  0  0  0  0  0  0  0  0  0
    5.1927  -11.7425    0.0000 O   0  0  0  0  0  0  0  0  0  0  0  0
   10.8872   -8.6717    0.0000 O   0  0  0  0  0  0  0  0  0  0  0  0
   11.5992   -7.4385    0.0000 O   0  0  0  0  0  0  0  0  0  0  0  0
    5.9033  -10.7271    0.0000 H   0  0  0  0  0  0  0  0  0  0  0  0
    6.6153   -9.4939    0.0000 H   0  0  0  0  0  0  0  0  0  0  0  0
    8.7512   -8.2607    0.0000 H   0  0  0  0  0  0  0  0  0  0  0  0
    9.0507   -5.4909    0.0000 C   0  0  0  0  0  0  0  0  0  0  0  0
    9.8757   -5.4909    0.0000 C   0  0  0  0  0  0  0  0  0  0  0  0
  1  2  1  0  0  0  0
  2  3  1  0  0  0  0
  3  4  1  0  0  0  0
  4  5  1  0  0  0  0
  5  6  1  0  0  0  0
  6  1  1  0  0  0  0
  4  7  1  0  0  0  0
  7  8  1  0  0  0  0
  8  9  1  0  0  0  0
  9 10  1  0  0  0  0
 10  5  1  0  0  0  0
  9 11  1  0  0  0  0
 11 12  1  0  0  0  0
 12 13  2  0  0  0  0
 13 14  1  0  0  0  0
 14 10  1  0  0  0  0
 11 15  1  0  0  0  0
 15 16  1  0  0  0  0
 16 17  1  0  0  0  0
 17 18  1  0  0  0  0
 17 19  1  0  0  0  0
 19 20  1  0  0  0  0
 20 21  1  0  0  0  0
 21 22  1  0  0  0  0
 22 18  1  0  0  0  0
  5 23  1  1  0  0  0
  3 24  1  1  0  0  0
  2 25  1  1  0  0  0
  9 26  1  1  0  0  0
 19 27  1  1  0  0  0
  1 28  1  6  0  0  0
  3 29  1  6  0  0  0
 11 30  1  6  0  0  0
 18 12  1  0  0  0  0
 24 31  1  0  0  0  0
 27 32  2  0  0  0  0
 27 33  1  0  0  0  0
  4 34  1  6  0  0  0
 10 35  1  6  0  0  0
 18 36  1  1  0  0  0
 21 37  1  0  0  0  0
 21 38  1  0  0  0  0
M  END
>  <cdx:fragmentId>
459

$$$$
