39107.cdx
  Mrv1902 05222410182D          

 22 22  0  0  0  0            999 V2000
    1.7811   -8.1132    0.0000 C   0  0  0  0  0  0  0  0  0  0  0  0
    2.0425   -8.8927    0.0000 C   0  0  0  0  0  0  0  0  0  0  0  0
    2.8646   -8.8850    0.0000 C   0  0  2  0  0  0  0  0  0  0  0  0
    3.1113   -8.1007    0.0000 C   0  0  2  0  0  0  0  0  0  0  0  0
    2.4417   -7.6237    0.0000 C   0  0  0  0  0  0  0  0  0  0  0  0
    2.4339   -6.8016    0.0000 O   0  0  0  0  0  0  0  0  0  0  0  0
    3.8349   -7.7106    0.0000 C   0  0  1  0  0  0  0  0  0  0  0  0
    4.5346   -8.1422    0.0000 C   0  0  0  0  0  0  0  0  0  0  0  0
    5.2583   -7.7521    0.0000 C   0  0  0  0  0  0  0  0  0  0  0  0
    5.9580   -8.1837    0.0000 C   0  0  0  0  0  0  0  0  0  0  0  0
    6.6817   -7.7936    0.0000 C   0  0  0  0  0  0  0  0  0  0  0  0
    7.3814   -8.2252    0.0000 C   0  0  0  0  0  0  0  0  0  0  0  0
    8.1051   -7.8351    0.0000 C   0  0  0  0  0  0  0  0  0  0  0  0
    8.8048   -8.2667    0.0000 C   0  0  0  0  0  0  0  0  0  0  0  0
    9.5284   -7.8766    0.0000 C   0  0  0  0  0  0  0  0  0  0  0  0
   10.2282   -8.3082    0.0000 C   0  0  0  0  0  0  0  0  0  0  0  0
   10.9518   -7.9181    0.0000 C   0  0  0  0  0  0  0  0  0  0  0  0
   11.6515   -8.3497    0.0000 C   0  0  0  0  0  0  0  0  0  0  0  0
   12.3752   -7.9596    0.0000 C   0  0  0  0  0  0  0  0  0  0  0  0
    3.8134   -8.5339    0.0000 O   0  0  0  0  0  0  0  0  0  0  0  0
    3.8589   -6.8888    0.0000 O   0  0  0  0  0  0  0  0  0  0  0  0
    3.3203   -9.5726    0.0000 O   0  0  0  0  0  0  0  0  0  0  0  0
  1  2  2  0  0  0  0
  2  3  1  0  0  0  0
  3  4  1  0  0  0  0
  4  5  1  0  0  0  0
  5  1  1  0  0  0  0
  5  6  2  0  0  0  0
  4  7  1  0  0  0  0
  7  8  1  0  0  0  0
  8  9  1  0  0  0  0
  9 10  1  0  0  0  0
 10 11  1  0  0  0  0
 11 12  1  0  0  0  0
 12 13  1  0  0  0  0
 13 14  1  0  0  0  0
 14 15  1  0  0  0  0
 15 16  1  0  0  0  0
 16 17  1  0  0  0  0
 17 18  1  0  0  0  0
 18 19  1  0  0  0  0
  4 20  1  1  0  0  0
  7 21  1  6  0  0  0
  3 22  1  6  0  0  0
M  END
>  <cdx:fragmentId>
402

$$$$
