39100.cdx
  Mrv1902 05222410192D          

 24 26  0  0  0  0            999 V2000
    7.2632   -7.2615    0.0000 O   0  0  0  0  0  0  0  0  0  0  0  0
    7.4946   -8.0534    0.0000 C   0  0  1  0  0  0  0  0  0  0  0  0
    8.3192   -8.0781    0.0000 C   0  0  2  0  0  0  0  0  0  0  0  0
    8.5975   -7.3015    0.0000 C   0  0  0  0  0  0  0  0  0  0  0  0
    7.9449   -6.7968    0.0000 C   0  0  0  0  0  0  0  0  0  0  0  0
    6.4000   -9.8940    0.0000 C   0  0  0  0  0  0  0  0  0  0  0  0
    5.7952   -9.3328    0.0000 C   0  0  0  0  0  0  0  0  0  0  0  0
    6.1420   -8.5843    0.0000 C   0  0  0  0  0  0  0  0  0  0  0  0
    6.9611   -8.6828    0.0000 C   0  0  1  0  0  0  0  0  0  0  0  0
    8.8141   -8.7382    0.0000 C   0  0  0  0  0  0  0  0  0  0  0  0
    8.6065   -9.5367    0.0000 C   0  0  0  0  0  0  0  0  0  0  0  0
    7.8528   -9.8723    0.0000 C   0  0  2  0  0  0  0  0  0  0  0  0
    7.1206   -9.4922    0.0000 C   0  0  2  0  0  0  0  0  0  0  0  0
    7.9696   -5.9722    0.0000 O   0  0  0  0  0  0  0  0  0  0  0  0
    6.3015  -10.7131    0.0000 O   0  0  0  0  0  0  0  0  0  0  0  0
    9.3894   -7.0701    0.0000 C   0  0  0  0  0  0  0  0  0  0  0  0
    7.4191  -10.5741    0.0000 C   0  0  0  0  0  0  0  0  0  0  0  0
    5.7403   -7.8637    0.0000 C   0  0  0  0  0  0  0  0  0  0  0  0
    4.9154   -7.8513    0.0000 O   0  0  0  0  0  0  0  0  0  0  0  0
    8.2437  -10.5987    0.0000 O   0  0  0  0  0  0  0  0  0  0  0  0
    9.1287   -7.9187    0.0000 H   0  0  0  0  0  0  0  0  0  0  0  0
    6.9895  -10.3067    0.0000 H   0  0  0  0  0  0  0  0  0  0  0  0
    6.8017   -7.8733    0.0000 H   0  0  0  0  0  0  0  0  0  0  0  0
    7.6540   -8.8629    0.0000 H   0  0  0  0  0  0  0  0  0  0  0  0
  1  2  1  0  0  0  0
  2  3  1  0  0  0  0
  3  4  1  0  0  0  0
  4  5  1  0  0  0  0
  1  5  1  0  0  0  0
  6  7  1  0  0  0  0
  7  8  2  0  0  0  0
  8  9  1  0  0  0  0
 10 11  1  0  0  0  0
 11 12  1  0  0  0  0
 12 13  1  0  0  0  0
  6 13  1  0  0  0  0
  9 13  1  0  0  0  0
  9  2  1  0  0  0  0
 10  3  1  0  0  0  0
  5 14  2  0  0  0  0
  6 15  2  0  0  0  0
  4 16  2  0  0  0  0
 12 17  1  1  0  0  0
 18 19  1  0  0  0  0
  8 18  1  0  0  0  0
 12 20  1  6  0  0  0
  3 21  1  1  0  0  0
 13 22  1  1  0  0  0
  9 23  1  1  0  0  0
  2 24  1  6  0  0  0
M  END
>  <cdx:fragmentId>
23

$$$$
