1609.cdx
  Mrv1902 05222410272D          

 26 27  0  0  0  0            999 V2000
    1.9608  -10.1865    0.0000 C   0  0  1  0  0  0  0  0  0  0  0  0
    1.9608  -11.0086    0.0000 C   0  0  1  0  0  0  0  0  0  0  0  0
    2.6727  -11.4197    0.0000 C   0  0  2  0  0  0  0  0  0  0  0  0
    3.3847  -11.0086    0.0000 C   0  0  1  0  0  0  0  0  0  0  0  0
    3.3847  -10.1865    0.0000 O   0  0  0  0  0  0  0  0  0  0  0  0
    2.6727   -9.7754    0.0000 C   0  0  2  0  0  0  0  0  0  0  0  0
    1.2488  -11.4197    0.0000 O   0  0  0  0  0  0  0  0  0  0  0  0
    2.6727   -8.9533    0.0000 C   0  0  0  0  0  0  0  0  0  0  0  0
    4.0967  -11.4197    0.0000 O   0  0  0  0  0  0  0  0  0  0  0  0
    4.8087  -11.0086    0.0000 C   0  0  1  0  0  0  0  0  0  0  0  0
    5.5207  -11.4197    0.0000 C   0  0  0  0  0  0  0  0  0  0  0  0
    6.2327  -11.0086    0.0000 C   0  0  0  0  0  0  0  0  0  0  0  0
    6.2327  -10.1865    0.0000 C   0  0  0  0  0  0  0  0  0  0  0  0
    5.5207   -9.7754    0.0000 C   0  0  1  0  0  0  0  0  0  0  0  0
    4.8087  -10.1865    0.0000 C   0  0  0  0  0  0  0  0  0  0  0  0
    6.9447  -11.4197    0.0000 C   0  0  0  0  0  0  0  0  0  0  0  0
    6.9447   -9.7754    0.0000 C   0  0  0  0  0  0  0  0  0  0  0  0
    7.6567  -10.1865    0.0000 C   0  0  0  0  0  0  0  0  0  0  0  0
    8.3687   -9.7754    0.0000 C   0  0  0  0  0  0  0  0  0  0  0  0
    9.0807  -10.1865    0.0000 C   0  0  0  0  0  0  0  0  0  0  0  0
    8.3687   -8.9533    0.0000 O   0  0  0  0  0  0  0  0  0  0  0  0
    5.9318   -9.0634    0.0000 C   0  0  0  0  0  0  0  0  0  0  0  0
    5.1096   -9.0634    0.0000 C   0  0  0  0  0  0  0  0  0  0  0  0
    1.2488   -9.7754    0.0000 O   0  0  0  0  0  0  0  0  0  0  0  0
    2.6727  -12.2418    0.0000 O   0  0  0  0  0  0  0  0  0  0  0  0
    1.9608   -8.5422    0.0000 O   0  0  0  0  0  0  0  0  0  0  0  0
  1  2  1  0  0  0  0
  2  3  1  0  0  0  0
  3  4  1  0  0  0  0
  4  5  1  0  0  0  0
  5  6  1  0  0  0  0
  6  1  1  0  0  0  0
  2  7  1  1  0  0  0
  6  8  1  1  0  0  0
  4  9  1  1  0  0  0
 10 11  1  0  0  0  0
 11 12  1  0  0  0  0
 12 13  2  0  0  0  0
 13 14  1  0  0  0  0
 14 15  1  0  0  0  0
 15 10  1  0  0  0  0
 10  9  1  6  0  0  0
 12 16  1  0  0  0  0
 13 17  1  0  0  0  0
 17 18  1  0  0  0  0
 18 19  1  0  0  0  0
 19 20  1  0  0  0  0
 19 21  2  0  0  0  0
 14 22  1  1  0  0  0
 14 23  1  6  0  0  0
  1 24  1  6  0  0  0
  3 25  1  6  0  0  0
  8 26  1  0  0  0  0
M  END
>  <cdx:fragmentId>
571

$$$$
