39113.cdx
  Mrv1902 05222410182D          

 43 46  0  0  0  0            999 V2000
    1.9933   -9.6961    0.0000 O   0  0  0  0  0  0  0  0  0  0  0  0
    1.9250   -7.0950    0.0000 C   0  0  2  0  0  0  0  0  0  0  0  0
    0.0802   -8.4991    0.0000 C   0  0  0  0  0  0  0  0  0  0  0  0
    1.3839   -7.8195    0.0000 C   0  0  0  0  0  0  0  0  0  0  0  0
    0.9051   -8.4914    0.0000 C   0  0  0  0  0  0  0  0  0  0  0  0
    1.3962   -9.1543    0.0000 C   0  0  1  0  0  0  0  0  0  0  0  0
    2.1785   -8.8921    0.0000 C   0  0  1  0  0  0  0  0  0  0  0  0
    2.1708   -8.0672    0.0000 C   0  0  2  0  0  0  0  0  0  0  0  0
    1.1486   -9.9413    0.0000 O   0  0  0  0  0  0  0  0  0  0  0  0
    2.8282   -9.4005    0.0000 C   0  0  1  0  0  0  0  0  0  0  0  0
    3.6308   -9.2095    0.0000 C   0  0  0  0  0  0  0  0  0  0  0  0
    3.9818   -8.4629    0.0000 C   0  0  0  0  0  0  0  0  0  0  0  0
    3.6308   -7.7229    0.0000 C   0  0  2  0  0  0  0  0  0  0  0  0
    2.8282   -7.5468    0.0000 C   0  0  0  0  0  0  0  0  0  0  0  0
    2.6427   -6.7429    0.0000 O   0  0  0  0  0  0  0  0  0  0  0  0
    4.1443   -7.0773    0.0000 C   0  0  1  0  0  0  0  0  0  0  0  0
    4.1511   -9.8497    0.0000 C   0  0  0  0  0  0  0  0  0  0  0  0
    4.9657   -9.7192    0.0000 O   0  0  0  0  0  0  0  0  0  0  0  0
    2.6521  -10.2065    0.0000 O   0  0  0  0  0  0  0  0  0  0  0  0
    4.4334   -7.8991    0.0000 H   0  0  0  0  0  0  0  0  0  0  0  0
    1.2105   -6.6825    0.0000 C   0  0  0  0  0  0  0  0  0  0  0  0
    2.3925   -6.3800    0.0000 C   0  0  0  0  0  0  0  0  0  0  0  0
    3.6300   -6.2975    0.0000 C   0  0  1  0  0  0  0  0  0  0  0  0
    4.5568   -6.3628    0.0000 C   0  0  0  0  0  0  0  0  0  0  0  0
    4.9693   -5.6483    0.0000 C   0  0  0  0  0  0  0  0  0  0  0  0
    5.3818   -6.3628    0.0000 C   0  0  0  0  0  0  0  0  0  0  0  0
    3.4165   -5.5006    0.0000 H   0  0  0  0  0  0  0  0  0  0  0  0
    4.7277   -7.6606    0.0000 H   0  0  0  0  0  0  0  0  0  0  0  0
    5.4861  -10.3594    0.0000 C   0  0  0  0  0  0  0  0  0  0  0  0
    6.3007  -10.2289    0.0000 C   0  0  0  0  0  0  0  0  0  0  0  0
    5.1918  -11.1301    0.0000 O   0  0  0  0  0  0  0  0  0  0  0  0
    6.8210  -10.8691    0.0000 C   0  0  0  0  0  0  0  0  0  0  0  0
    7.6356  -10.7386    0.0000 C   0  0  0  0  0  0  0  0  0  0  0  0
    8.1560  -11.3788    0.0000 C   0  0  0  0  0  0  0  0  0  0  0  0
    8.9706  -11.2483    0.0000 C   0  0  0  0  0  0  0  0  0  0  0  0
    9.4909  -11.8885    0.0000 C   0  0  0  0  0  0  0  0  0  0  0  0
   10.3055  -11.7580    0.0000 C   0  0  0  0  0  0  0  0  0  0  0  0
   10.8259  -12.3982    0.0000 C   0  0  0  0  0  0  0  0  0  0  0  0
   11.6405  -12.2677    0.0000 C   0  0  0  0  0  0  0  0  0  0  0  0
   12.1608  -12.9079    0.0000 C   0  0  0  0  0  0  0  0  0  0  0  0
   12.9754  -12.7774    0.0000 C   0  0  0  0  0  0  0  0  0  0  0  0
   13.4957  -13.4176    0.0000 C   0  0  0  0  0  0  0  0  0  0  0  0
   14.3104  -13.2871    0.0000 C   0  0  0  0  0  0  0  0  0  0  0  0
  7  1  1  1  0  0  0
  6  9  1  1  0  0  0
  8  2  1  1  0  0  0
  5  3  1  0  0  0  0
  8  7  1  0  0  0  0
  8  4  1  0  0  0  0
  5  4  2  0  0  0  0
  6  5  1  0  0  0  0
  7  6  1  0  0  0  0
  7 10  1  0  0  0  0
 10 11  1  0  0  0  0
 11 12  2  0  0  0  0
 12 13  1  0  0  0  0
 13 14  1  0  0  0  0
 14  8  1  0  0  0  0
 14 15  2  0  0  0  0
 13 16  1  0  0  0  0
 11 17  1  0  0  0  0
 17 18  1  0  0  0  0
 10 19  1  1  0  0  0
 13 20  1  1  0  0  0
  2 21  1  6  0  0  0
  2 22  1  0  0  0  0
 22 23  1  0  0  0  0
 16 23  1  0  0  0  0
 16 24  1  0  0  0  0
 24 23  1  0  0  0  0
 24 25  1  0  0  0  0
 24 26  1  0  0  0  0
 23 27  1  6  0  0  0
 16 28  1  6  0  0  0
 18 29  1  0  0  0  0
 29 30  1  0  0  0  0
 29 31  2  0  0  0  0
 30 32  1  0  0  0  0
 32 33  1  0  0  0  0
 33 34  1  0  0  0  0
 34 35  1  0  0  0  0
 35 36  1  0  0  0  0
 36 37  1  0  0  0  0
 37 38  1  0  0  0  0
 38 39  1  0  0  0  0
 39 40  1  0  0  0  0
 40 41  1  0  0  0  0
 41 42  1  0  0  0  0
 42 43  1  0  0  0  0
M  END
>  <cdx:fragmentId>
3224

$$$$
