39111.cdx
  Mrv1902 05222410192D          

 21 23  0  0  0  0            999 V2000
    5.8602   -8.2200    0.0000 C   0  0  0  0  0  0  0  0  0  0  0  0
    6.2713   -8.9320    0.0000 C   0  0  0  0  0  0  0  0  0  0  0  0
    7.0934   -8.9320    0.0000 C   0  0  0  0  0  0  0  0  0  0  0  0
    7.5045   -8.2200    0.0000 C   0  0  0  0  0  0  0  0  0  0  0  0
    7.0934   -7.5080    0.0000 C   0  0  0  0  0  0  0  0  0  0  0  0
    6.2713   -7.5080    0.0000 C   0  0  0  0  0  0  0  0  0  0  0  0
    7.5045   -6.7960    0.0000 C   0  0  2  0  0  0  0  0  0  0  0  0
    8.3174   -6.9185    0.0000 C   0  0  0  0  0  0  0  0  0  0  0  0
    8.9201   -6.3593    0.0000 C   0  0  2  0  0  0  0  0  0  0  0  0
    8.8587   -5.5395    0.0000 C   0  0  0  0  0  0  0  0  0  0  0  0
    8.1794   -5.0764    0.0000 C   0  0  0  0  0  0  0  0  0  0  0  0
    7.3938   -5.3187    0.0000 C   0  0  0  0  0  0  0  0  0  0  0  0
    7.0934   -6.0840    0.0000 C   0  0  1  0  0  0  0  0  0  0  0  0
    8.0300   -5.8850    0.0000 O   0  0  0  0  0  0  0  0  0  0  0  0
    9.5707   -5.1284    0.0000 O   0  0  0  0  0  0  0  0  0  0  0  0
    6.2736   -6.1454    0.0000 C   0  0  0  0  0  0  0  0  0  0  0  0
    5.8105   -5.4662    0.0000 O   0  0  0  0  0  0  0  0  0  0  0  0
    5.8602   -9.6440    0.0000 O   0  0  0  0  0  0  0  0  0  0  0  0
    7.5045   -9.6440    0.0000 O   0  0  0  0  0  0  0  0  0  0  0  0
    9.7170   -6.5729    0.0000 H   0  0  0  0  0  0  0  0  0  0  0  0
    6.6795   -6.7960    0.0000 H   0  0  0  0  0  0  0  0  0  0  0  0
  1  2  2  0  0  0  0
  2  3  1  0  0  0  0
  3  4  2  0  0  0  0
  4  5  1  0  0  0  0
  5  6  2  0  0  0  0
  6  1  1  0  0  0  0
  7  5  1  0  0  0  0
  7  8  1  0  0  0  0
  8  9  1  0  0  0  0
  9 10  1  0  0  0  0
 10 11  1  0  0  0  0
 11 12  2  0  0  0  0
 12 13  1  0  0  0  0
 13  7  1  0  0  0  0
 13 14  1  0  0  0  0
  9 14  1  0  0  0  0
 10 15  2  0  0  0  0
 13 16  1  6  0  0  0
 16 17  1  0  0  0  0
  2 18  1  0  0  0  0
  3 19  1  0  0  0  0
  9 20  1  6  0  0  0
  7 21  1  6  0  0  0
M  END
>  <cdx:fragmentId>
768

$$$$
