39114.cdx
  Mrv1902 05222410192D          

 43 46  0  0  0  0            999 V2000
    9.6658   -9.1736    0.0000 O   0  0  0  0  0  0  0  0  0  0  0  0
    9.5975   -6.5725    0.0000 C   0  0  2  0  0  0  0  0  0  0  0  0
    7.7527   -7.9766    0.0000 C   0  0  0  0  0  0  0  0  0  0  0  0
    9.0564   -7.2970    0.0000 C   0  0  0  0  0  0  0  0  0  0  0  0
    8.5776   -7.9689    0.0000 C   0  0  0  0  0  0  0  0  0  0  0  0
    9.0687   -8.6318    0.0000 C   0  0  1  0  0  0  0  0  0  0  0  0
    9.8510   -8.3696    0.0000 C   0  0  1  0  0  0  0  0  0  0  0  0
    9.8433   -7.5447    0.0000 C   0  0  2  0  0  0  0  0  0  0  0  0
    8.8211   -9.4188    0.0000 O   0  0  0  0  0  0  0  0  0  0  0  0
   10.5007   -8.8780    0.0000 C   0  0  1  0  0  0  0  0  0  0  0  0
   11.3033   -8.6870    0.0000 C   0  0  0  0  0  0  0  0  0  0  0  0
   11.6543   -7.9404    0.0000 C   0  0  0  0  0  0  0  0  0  0  0  0
   11.3033   -7.2004    0.0000 C   0  0  2  0  0  0  0  0  0  0  0  0
   10.5007   -7.0243    0.0000 C   0  0  0  0  0  0  0  0  0  0  0  0
   10.3152   -6.2204    0.0000 O   0  0  0  0  0  0  0  0  0  0  0  0
   11.8168   -6.5548    0.0000 C   0  0  1  0  0  0  0  0  0  0  0  0
   11.8236   -9.3272    0.0000 C   0  0  0  0  0  0  0  0  0  0  0  0
   12.6382   -9.1967    0.0000 O   0  0  0  0  0  0  0  0  0  0  0  0
   10.3246   -9.6840    0.0000 O   0  0  0  0  0  0  0  0  0  0  0  0
   12.1059   -7.3766    0.0000 H   0  0  0  0  0  0  0  0  0  0  0  0
    8.8830   -6.1600    0.0000 C   0  0  0  0  0  0  0  0  0  0  0  0
   10.0650   -5.8575    0.0000 C   0  0  0  0  0  0  0  0  0  0  0  0
   11.3025   -5.7750    0.0000 C   0  0  1  0  0  0  0  0  0  0  0  0
   12.2293   -5.8403    0.0000 C   0  0  0  0  0  0  0  0  0  0  0  0
   12.6418   -5.1258    0.0000 C   0  0  0  0  0  0  0  0  0  0  0  0
   13.0543   -5.8403    0.0000 C   0  0  0  0  0  0  0  0  0  0  0  0
   11.0890   -4.9781    0.0000 H   0  0  0  0  0  0  0  0  0  0  0  0
   12.4002   -7.1381    0.0000 H   0  0  0  0  0  0  0  0  0  0  0  0
    8.0157   -9.5978    0.0000 C   0  0  0  0  0  0  0  0  0  0  0  0
    7.4580   -8.9898    0.0000 O   0  0  0  0  0  0  0  0  0  0  0  0
    7.7681  -10.3847    0.0000 C   0  0  0  0  0  0  0  0  0  0  0  0
    6.9627  -10.5637    0.0000 C   0  0  0  0  0  0  0  0  0  0  0  0
    6.7151  -11.3507    0.0000 C   0  0  0  0  0  0  0  0  0  0  0  0
    5.9097  -11.5297    0.0000 C   0  0  0  0  0  0  0  0  0  0  0  0
    5.6621  -12.3166    0.0000 C   0  0  0  0  0  0  0  0  0  0  0  0
    4.8567  -12.4956    0.0000 C   0  0  0  0  0  0  0  0  0  0  0  0
    4.6091  -13.2826    0.0000 C   0  0  0  0  0  0  0  0  0  0  0  0
    3.8037  -13.4616    0.0000 C   0  0  0  0  0  0  0  0  0  0  0  0
    3.5561  -14.2485    0.0000 C   0  0  0  0  0  0  0  0  0  0  0  0
    2.7507  -14.4275    0.0000 C   0  0  0  0  0  0  0  0  0  0  0  0
    2.5031  -15.2145    0.0000 C   0  0  0  0  0  0  0  0  0  0  0  0
    1.6977  -15.3935    0.0000 C   0  0  0  0  0  0  0  0  0  0  0  0
    1.4501  -16.1804    0.0000 C   0  0  0  0  0  0  0  0  0  0  0  0
  7  1  1  1  0  0  0
  6  9  1  1  0  0  0
  8  2  1  1  0  0  0
  5  3  1  0  0  0  0
  8  7  1  0  0  0  0
  8  4  1  0  0  0  0
  5  4  2  0  0  0  0
  6  5  1  0  0  0  0
  7  6  1  0  0  0  0
  7 10  1  0  0  0  0
 10 11  1  0  0  0  0
 11 12  2  0  0  0  0
 12 13  1  0  0  0  0
 13 14  1  0  0  0  0
 14  8  1  0  0  0  0
 14 15  2  0  0  0  0
 13 16  1  0  0  0  0
 11 17  1  0  0  0  0
 17 18  1  0  0  0  0
 10 19  1  1  0  0  0
 13 20  1  1  0  0  0
  2 21  1  6  0  0  0
  2 22  1  0  0  0  0
 22 23  1  0  0  0  0
 16 23  1  0  0  0  0
 16 24  1  0  0  0  0
 24 23  1  0  0  0  0
 24 25  1  0  0  0  0
 24 26  1  0  0  0  0
 23 27  1  6  0  0  0
 16 28  1  6  0  0  0
  9 29  1  0  0  0  0
 29 30  2  0  0  0  0
 29 31  1  0  0  0  0
 31 32  1  0  0  0  0
 32 33  1  0  0  0  0
 33 34  1  0  0  0  0
 34 35  1  0  0  0  0
 35 36  1  0  0  0  0
 36 37  1  0  0  0  0
 37 38  1  0  0  0  0
 38 39  1  0  0  0  0
 39 40  1  0  0  0  0
 40 41  1  0  0  0  0
 41 42  1  0  0  0  0
 42 43  1  0  0  0  0
M  END
>  <cdx:fragmentId>
3224

$$$$
