3911.cdx
  Mrv1902 05222410182D          

 16 16  0  0  0  0            999 V2000
    5.6820   -4.2281    0.0000 C   0  0  0  0  0  0  0  0  0  0  0  0
    5.6820   -5.0531    0.0000 C   0  0  0  0  0  0  0  0  0  0  0  0
    6.3965   -5.4656    0.0000 C   0  0  0  0  0  0  0  0  0  0  0  0
    7.1110   -5.0531    0.0000 C   0  0  0  0  0  0  0  0  0  0  0  0
    7.1110   -4.2281    0.0000 C   0  0  0  0  0  0  0  0  0  0  0  0
    6.3965   -3.8156    0.0000 C   0  0  0  0  0  0  0  0  0  0  0  0
    4.9676   -5.4656    0.0000 O   0  0  0  0  0  0  0  0  0  0  0  0
    6.3965   -6.2906    0.0000 O   0  0  0  0  0  0  0  0  0  0  0  0
    7.8254   -3.8156    0.0000 C   0  0  0  0  0  0  0  0  0  0  0  0
    8.5399   -4.2281    0.0000 C   0  0  0  0  0  0  0  0  0  0  0  0
    9.2544   -3.8156    0.0000 C   0  0  0  0  0  0  0  0  0  0  0  0
    9.9689   -4.2281    0.0000 O   0  0  0  0  0  0  0  0  0  0  0  0
    4.9676   -3.8156    0.0000 O   0  0  0  0  0  0  0  0  0  0  0  0
    4.2531   -4.2281    0.0000 C   0  0  0  0  0  0  0  0  0  0  0  0
    4.2531   -5.0531    0.0000 C   0  0  0  0  0  0  0  0  0  0  0  0
    5.6820   -6.7031    0.0000 C   0  0  0  0  0  0  0  0  0  0  0  0
  1  2  1  0  0  0  0
  2  3  2  0  0  0  0
  3  4  1  0  0  0  0
  4  5  2  0  0  0  0
  5  6  1  0  0  0  0
  6  1  2  0  0  0  0
  2  7  1  0  0  0  0
  3  8  1  0  0  0  0
  5  9  1  0  0  0  0
  9 10  2  0  0  0  0
 10 11  1  0  0  0  0
 11 12  1  0  0  0  0
  1 13  1  0  0  0  0
 13 14  1  0  0  0  0
  7 15  1  0  0  0  0
  8 16  1  0  0  0  0
M  END
>  <cdx:fragmentId>
5

$$$$
