39115.cdx
  Mrv1902 05222410192D          

 43 46  0  0  0  0            999 V2000
    5.5683   -7.0286    0.0000 O   0  0  0  0  0  0  0  0  0  0  0  0
    5.5000   -4.4275    0.0000 C   0  0  2  0  0  0  0  0  0  0  0  0
    3.6552   -5.8316    0.0000 C   0  0  0  0  0  0  0  0  0  0  0  0
    4.9589   -5.1520    0.0000 C   0  0  0  0  0  0  0  0  0  0  0  0
    4.4801   -5.8239    0.0000 C   0  0  0  0  0  0  0  0  0  0  0  0
    4.9712   -6.4868    0.0000 C   0  0  1  0  0  0  0  0  0  0  0  0
    5.7535   -6.2246    0.0000 C   0  0  1  0  0  0  0  0  0  0  0  0
    5.7458   -5.3997    0.0000 C   0  0  2  0  0  0  0  0  0  0  0  0
    4.7236   -7.2738    0.0000 O   0  0  0  0  0  0  0  0  0  0  0  0
    6.4032   -6.7330    0.0000 C   0  0  1  0  0  0  0  0  0  0  0  0
    7.2058   -6.5420    0.0000 C   0  0  0  0  0  0  0  0  0  0  0  0
    7.5568   -5.7954    0.0000 C   0  0  0  0  0  0  0  0  0  0  0  0
    7.2058   -5.0554    0.0000 C   0  0  2  0  0  0  0  0  0  0  0  0
    6.4032   -4.8793    0.0000 C   0  0  0  0  0  0  0  0  0  0  0  0
    6.2177   -4.0754    0.0000 O   0  0  0  0  0  0  0  0  0  0  0  0
    7.7193   -4.4098    0.0000 C   0  0  1  0  0  0  0  0  0  0  0  0
    7.7261   -7.1822    0.0000 C   0  0  0  0  0  0  0  0  0  0  0  0
    8.5407   -7.0517    0.0000 O   0  0  0  0  0  0  0  0  0  0  0  0
    6.2271   -7.5390    0.0000 O   0  0  0  0  0  0  0  0  0  0  0  0
    8.0084   -5.2316    0.0000 H   0  0  0  0  0  0  0  0  0  0  0  0
    4.7855   -4.0150    0.0000 C   0  0  0  0  0  0  0  0  0  0  0  0
    5.9675   -3.7125    0.0000 C   0  0  0  0  0  0  0  0  0  0  0  0
    7.2050   -3.6300    0.0000 C   0  0  1  0  0  0  0  0  0  0  0  0
    8.1318   -3.6953    0.0000 C   0  0  0  0  0  0  0  0  0  0  0  0
    8.5443   -2.9808    0.0000 C   0  0  0  0  0  0  0  0  0  0  0  0
    8.9568   -3.6953    0.0000 C   0  0  0  0  0  0  0  0  0  0  0  0
    6.9915   -2.8331    0.0000 H   0  0  0  0  0  0  0  0  0  0  0  0
    8.3027   -4.9931    0.0000 H   0  0  0  0  0  0  0  0  0  0  0  0
    6.8370   -8.0945    0.0000 C   0  0  0  0  0  0  0  0  0  0  0  0
    7.6231   -7.8440    0.0000 O   0  0  0  0  0  0  0  0  0  0  0  0
    6.6609   -8.9005    0.0000 C   0  0  0  0  0  0  0  0  0  0  0  0
    7.2709   -9.4560    0.0000 C   0  0  0  0  0  0  0  0  0  0  0  0
    7.0947  -10.2620    0.0000 C   0  0  0  0  0  0  0  0  0  0  0  0
    7.7047  -10.8175    0.0000 C   0  0  0  0  0  0  0  0  0  0  0  0
    7.5286  -11.6235    0.0000 C   0  0  0  0  0  0  0  0  0  0  0  0
    8.1385  -12.1790    0.0000 C   0  0  0  0  0  0  0  0  0  0  0  0
    7.9624  -12.9850    0.0000 C   0  0  0  0  0  0  0  0  0  0  0  0
    8.5723  -13.5405    0.0000 C   0  0  0  0  0  0  0  0  0  0  0  0
    8.3962  -14.3465    0.0000 C   0  0  0  0  0  0  0  0  0  0  0  0
    9.0062  -14.9020    0.0000 C   0  0  0  0  0  0  0  0  0  0  0  0
    8.8300  -15.7080    0.0000 C   0  0  0  0  0  0  0  0  0  0  0  0
    9.4400  -16.2635    0.0000 C   0  0  0  0  0  0  0  0  0  0  0  0
    9.2639  -17.0694    0.0000 C   0  0  0  0  0  0  0  0  0  0  0  0
  7  1  1  1  0  0  0
  6  9  1  1  0  0  0
  8  2  1  1  0  0  0
  5  3  1  0  0  0  0
  8  7  1  0  0  0  0
  8  4  1  0  0  0  0
  5  4  2  0  0  0  0
  6  5  1  0  0  0  0
  7  6  1  0  0  0  0
  7 10  1  0  0  0  0
 10 11  1  0  0  0  0
 11 12  2  0  0  0  0
 12 13  1  0  0  0  0
 13 14  1  0  0  0  0
 14  8  1  0  0  0  0
 14 15  2  0  0  0  0
 13 16  1  0  0  0  0
 11 17  1  0  0  0  0
 17 18  1  0  0  0  0
 10 19  1  1  0  0  0
 13 20  1  1  0  0  0
  2 21  1  6  0  0  0
  2 22  1  0  0  0  0
 22 23  1  0  0  0  0
 16 23  1  0  0  0  0
 16 24  1  0  0  0  0
 24 23  1  0  0  0  0
 24 25  1  0  0  0  0
 24 26  1  0  0  0  0
 23 27  1  6  0  0  0
 16 28  1  6  0  0  0
 19 29  1  0  0  0  0
 29 30  2  0  0  0  0
 29 31  1  0  0  0  0
 31 32  1  0  0  0  0
 32 33  1  0  0  0  0
 33 34  1  0  0  0  0
 34 35  1  0  0  0  0
 35 36  1  0  0  0  0
 36 37  1  0  0  0  0
 37 38  1  0  0  0  0
 38 39  1  0  0  0  0
 39 40  1  0  0  0  0
 40 41  1  0  0  0  0
 41 42  1  0  0  0  0
 42 43  1  0  0  0  0
M  END
>  <cdx:fragmentId>
3224

$$$$
