39110.cdx
  Mrv1902 05222410182D          

 36 39  0  0  0  0            999 V2000
    2.8009   -5.9526    0.0000 C   0  0  1  0  0  0  0  0  0  0  0  0
    2.8009   -6.7776    0.0000 C   0  0  1  0  0  0  0  0  0  0  0  0
    3.5154   -7.1901    0.0000 C   0  0  2  0  0  0  0  0  0  0  0  0
    4.2299   -6.7776    0.0000 O   0  0  0  0  0  0  0  0  0  0  0  0
    4.2299   -5.9526    0.0000 C   0  0  1  0  0  0  0  0  0  0  0  0
    3.5154   -5.5401    0.0000 C   0  0  1  0  0  0  0  0  0  0  0  0
    2.0865   -7.1901    0.0000 O   0  0  0  0  0  0  0  0  0  0  0  0
    4.9444   -5.5401    0.0000 O   0  0  0  0  0  0  0  0  0  0  0  0
    5.6588   -5.9526    0.0000 C   0  0  0  0  0  0  0  0  0  0  0  0
    5.6588   -6.7776    0.0000 C   0  0  0  0  0  0  0  0  0  0  0  0
    6.3733   -7.1901    0.0000 C   0  0  0  0  0  0  0  0  0  0  0  0
    7.0878   -6.7776    0.0000 C   0  0  0  0  0  0  0  0  0  0  0  0
    7.0878   -5.9526    0.0000 C   0  0  0  0  0  0  0  0  0  0  0  0
    6.3733   -5.5401    0.0000 C   0  0  0  0  0  0  0  0  0  0  0  0
    4.9444   -7.1901    0.0000 O   0  0  0  0  0  0  0  0  0  0  0  0
    4.9444   -8.0151    0.0000 C   0  0  0  0  0  0  0  0  0  0  0  0
    7.8022   -7.1901    0.0000 C   0  0  2  0  0  0  0  0  0  0  0  0
    7.8885   -8.0106    0.0000 O   0  0  0  0  0  0  0  0  0  0  0  0
    8.6955   -8.1821    0.0000 C   0  0  0  0  0  0  0  0  0  0  0  0
    9.1080   -7.4676    0.0000 C   0  0  0  0  0  0  0  0  0  0  0  0
    8.5559   -6.8545    0.0000 C   0  0  1  0  0  0  0  0  0  0  0  0
    9.1080   -8.8966    0.0000 C   0  0  0  0  0  0  0  0  0  0  0  0
    9.9330   -8.8966    0.0000 C   0  0  0  0  0  0  0  0  0  0  0  0
   10.3455   -8.1821    0.0000 C   0  0  0  0  0  0  0  0  0  0  0  0
    9.9330   -7.4676    0.0000 C   0  0  0  0  0  0  0  0  0  0  0  0
    8.6955   -9.6111    0.0000 O   0  0  0  0  0  0  0  0  0  0  0  0
    7.8705   -9.6111    0.0000 C   0  0  0  0  0  0  0  0  0  0  0  0
   11.1705   -8.1821    0.0000 C   0  0  0  0  0  0  0  0  0  0  0  0
   11.5830   -8.8966    0.0000 C   0  0  0  0  0  0  0  0  0  0  0  0
   12.4080   -8.8966    0.0000 C   0  0  0  0  0  0  0  0  0  0  0  0
   12.8205   -9.6111    0.0000 O   0  0  0  0  0  0  0  0  0  0  0  0
    3.5154   -4.7151    0.0000 O   0  0  0  0  0  0  0  0  0  0  0  0
    2.0865   -5.5401    0.0000 O   0  0  0  0  0  0  0  0  0  0  0  0
    3.5154   -8.0151    0.0000 C   0  0  0  0  0  0  0  0  0  0  0  0
    8.7274   -6.0476    0.0000 C   0  0  0  0  0  0  0  0  0  0  0  0
    8.1144   -5.4955    0.0000 O   0  0  0  0  0  0  0  0  0  0  0  0
  1  2  1  0  0  0  0
  2  3  1  0  0  0  0
  3  4  1  0  0  0  0
  4  5  1  0  0  0  0
  5  6  1  0  0  0  0
  6  1  1  0  0  0  0
  2  7  1  1  0  0  0
  5  8  1  1  0  0  0
  8  9  1  0  0  0  0
  9 10  2  0  0  0  0
 10 11  1  0  0  0  0
 11 12  2  0  0  0  0
 12 13  1  0  0  0  0
 13 14  2  0  0  0  0
 14  9  1  0  0  0  0
 10 15  1  0  0  0  0
 15 16  1  0  0  0  0
 17 18  1  0  0  0  0
 18 19  1  0  0  0  0
 19 20  2  0  0  0  0
 20 21  1  0  0  0  0
 21 17  1  0  0  0  0
 19 22  1  0  0  0  0
 22 23  2  0  0  0  0
 23 24  1  0  0  0  0
 24 25  2  0  0  0  0
 25 20  1  0  0  0  0
 22 26  1  0  0  0  0
 26 27  1  0  0  0  0
 24 28  1  0  0  0  0
 28 29  1  0  0  0  0
 29 30  1  0  0  0  0
 30 31  1  0  0  0  0
 17 12  1  1  0  0  0
  6 32  1  6  0  0  0
  1 33  1  6  0  0  0
  3 34  1  6  0  0  0
 21 35  1  6  0  0  0
 35 36  1  0  0  0  0
M  END
>  <cdx:fragmentId>
664

$$$$
