39112.cdx
  Mrv1902 05222410182D          

 39 42  0  0  0  0            999 V2000
    3.2033   -9.4761    0.0000 O   0  0  0  0  0  0  0  0  0  0  0  0
    3.1350   -6.8750    0.0000 C   0  0  2  0  0  0  0  0  0  0  0  0
    1.2902   -8.2791    0.0000 C   0  0  0  0  0  0  0  0  0  0  0  0
    2.5939   -7.5995    0.0000 C   0  0  0  0  0  0  0  0  0  0  0  0
    2.1151   -8.2714    0.0000 C   0  0  0  0  0  0  0  0  0  0  0  0
    2.6062   -8.9343    0.0000 C   0  0  1  0  0  0  0  0  0  0  0  0
    3.3885   -8.6721    0.0000 C   0  0  1  0  0  0  0  0  0  0  0  0
    3.3808   -7.8472    0.0000 C   0  0  2  0  0  0  0  0  0  0  0  0
    2.3586   -9.7213    0.0000 O   0  0  0  0  0  0  0  0  0  0  0  0
    4.0382   -9.1805    0.0000 C   0  0  1  0  0  0  0  0  0  0  0  0
    4.8408   -8.9895    0.0000 C   0  0  0  0  0  0  0  0  0  0  0  0
    5.1918   -8.2429    0.0000 C   0  0  0  0  0  0  0  0  0  0  0  0
    4.8408   -7.5029    0.0000 C   0  0  2  0  0  0  0  0  0  0  0  0
    4.0382   -7.3268    0.0000 C   0  0  0  0  0  0  0  0  0  0  0  0
    3.8527   -6.5229    0.0000 O   0  0  0  0  0  0  0  0  0  0  0  0
    5.3543   -6.8573    0.0000 C   0  0  1  0  0  0  0  0  0  0  0  0
    5.3611   -9.6297    0.0000 C   0  0  0  0  0  0  0  0  0  0  0  0
    6.1757   -9.4992    0.0000 O   0  0  0  0  0  0  0  0  0  0  0  0
    3.8621   -9.9865    0.0000 O   0  0  0  0  0  0  0  0  0  0  0  0
    5.6434   -7.6791    0.0000 H   0  0  0  0  0  0  0  0  0  0  0  0
    2.4205   -6.4625    0.0000 C   0  0  0  0  0  0  0  0  0  0  0  0
    3.6025   -6.1600    0.0000 C   0  0  0  0  0  0  0  0  0  0  0  0
    4.8400   -6.0775    0.0000 C   0  0  1  0  0  0  0  0  0  0  0  0
    5.7668   -6.1428    0.0000 C   0  0  0  0  0  0  0  0  0  0  0  0
    6.1793   -5.4283    0.0000 C   0  0  0  0  0  0  0  0  0  0  0  0
    6.5918   -6.1428    0.0000 C   0  0  0  0  0  0  0  0  0  0  0  0
    4.6265   -5.2806    0.0000 H   0  0  0  0  0  0  0  0  0  0  0  0
    5.9377   -7.4406    0.0000 H   0  0  0  0  0  0  0  0  0  0  0  0
    6.6961  -10.1394    0.0000 C   0  0  0  0  0  0  0  0  0  0  0  0
    7.5107  -10.0089    0.0000 C   0  0  0  0  0  0  0  0  0  0  0  0
    6.4018  -10.9101    0.0000 O   0  0  0  0  0  0  0  0  0  0  0  0
    8.0310  -10.6491    0.0000 C   0  0  0  0  0  0  0  0  0  0  0  0
    8.8456  -10.5186    0.0000 C   0  0  0  0  0  0  0  0  0  0  0  0
    9.3660  -11.1588    0.0000 C   0  0  0  0  0  0  0  0  0  0  0  0
   10.1806  -11.0283    0.0000 C   0  0  0  0  0  0  0  0  0  0  0  0
   10.7009  -11.6685    0.0000 C   0  0  0  0  0  0  0  0  0  0  0  0
   11.5155  -11.5380    0.0000 C   0  0  0  0  0  0  0  0  0  0  0  0
   12.0359  -12.1782    0.0000 C   0  0  0  0  0  0  0  0  0  0  0  0
   12.8505  -12.0477    0.0000 C   0  0  0  0  0  0  0  0  0  0  0  0
  7  1  1  1  0  0  0
  6  9  1  1  0  0  0
  8  2  1  1  0  0  0
  5  3  1  0  0  0  0
  8  7  1  0  0  0  0
  8  4  1  0  0  0  0
  5  4  2  0  0  0  0
  6  5  1  0  0  0  0
  7  6  1  0  0  0  0
  7 10  1  0  0  0  0
 10 11  1  0  0  0  0
 11 12  2  0  0  0  0
 12 13  1  0  0  0  0
 13 14  1  0  0  0  0
 14  8  1  0  0  0  0
 14 15  2  0  0  0  0
 13 16  1  0  0  0  0
 11 17  1  0  0  0  0
 17 18  1  0  0  0  0
 10 19  1  1  0  0  0
 13 20  1  1  0  0  0
  2 21  1  6  0  0  0
  2 22  1  0  0  0  0
 22 23  1  0  0  0  0
 16 23  1  0  0  0  0
 16 24  1  0  0  0  0
 24 23  1  0  0  0  0
 24 25  1  0  0  0  0
 24 26  1  0  0  0  0
 23 27  1  6  0  0  0
 16 28  1  6  0  0  0
 18 29  1  0  0  0  0
 29 30  1  0  0  0  0
 29 31  2  0  0  0  0
 30 32  1  0  0  0  0
 32 33  1  0  0  0  0
 33 34  1  0  0  0  0
 34 35  1  0  0  0  0
 35 36  1  0  0  0  0
 36 37  1  0  0  0  0
 37 38  1  0  0  0  0
 38 39  1  0  0  0  0
M  END
>  <cdx:fragmentId>
3224

$$$$
