39118.cdx
  Mrv1902 05222410272D          

 41 44  0  0  0  0            999 V2000
   10.8078  -10.3427    0.0000 C   0  0  2  0  0  0  0  0  0  0  0  0
   10.8078  -11.1672    0.0000 C   0  0  1  0  0  0  0  0  0  0  0  0
   11.5224  -11.5796    0.0000 C   0  0  0  0  0  0  0  0  0  0  0  0
   12.2370  -11.1672    0.0000 C   0  0  2  0  0  0  0  0  0  0  0  0
   12.2370  -10.3427    0.0000 C   0  0  2  0  0  0  0  0  0  0  0  0
   11.5224   -9.9304    0.0000 C   0  0  2  0  0  0  0  0  0  0  0  0
   12.9517  -11.5796    0.0000 C   0  0  0  0  0  0  0  0  0  0  0  0
   13.6663  -11.1672    0.0000 C   0  0  0  0  0  0  0  0  0  0  0  0
   13.6663  -10.3427    0.0000 C   0  0  0  0  0  0  0  0  0  0  0  0
   12.9517   -9.9304    0.0000 C   0  0  2  0  0  0  0  0  0  0  0  0
   14.3810   -9.9304    0.0000 C   0  0  1  0  0  0  0  0  0  0  0  0
   14.3810   -9.1333    0.0000 C   0  0  2  0  0  0  0  0  0  0  0  0
   13.6663   -8.7210    0.0000 C   0  0  0  0  0  0  0  0  0  0  0  0
   12.9517   -9.1333    0.0000 C   0  0  0  0  0  0  0  0  0  0  0  0
   15.1505  -10.2053    0.0000 C   0  0  0  0  0  0  0  0  0  0  0  0
   15.6178   -9.5181    0.0000 C   0  0  0  0  0  0  0  0  0  0  0  0
   15.1505   -8.8585    0.0000 C   0  0  2  0  0  0  0  0  0  0  0  0
   10.1481  -11.5796    0.0000 O   0  0  0  0  0  0  0  0  0  0  0  0
   14.3810   -8.3087    0.0000 C   0  0  0  0  0  0  0  0  0  0  0  0
   10.1481   -9.9304    0.0000 O   0  0  0  0  0  0  0  0  0  0  0  0
   12.2370   -9.5181    0.0000 C   0  0  0  0  0  0  0  0  0  0  0  0
   14.3810  -10.7550    0.0000 O   0  0  0  0  0  0  0  0  0  0  0  0
   15.3988   -8.0717    0.0000 C   0  0  0  0  0  0  0  0  0  0  0  0
   14.6019   -7.8582    0.0000 C   0  0  0  0  0  0  0  0  0  0  0  0
   16.1957   -8.2852    0.0000 O   0  0  0  0  0  0  0  0  0  0  0  0
   15.6471   -7.2850    0.0000 C   0  0  2  0  0  0  0  0  0  0  0  0
   15.0899   -6.6766    0.0000 O   0  0  0  0  0  0  0  0  0  0  0  0
   16.4526   -7.1066    0.0000 C   0  0  0  0  0  0  0  0  0  0  0  0
   16.7009   -6.3199    0.0000 C   0  0  0  0  0  0  0  0  0  0  0  0
   17.5064   -6.1415    0.0000 C   0  0  0  0  0  0  0  0  0  0  0  0
   17.7199   -6.9384    0.0000 C   0  0  0  0  0  0  0  0  0  0  0  0
   17.2929   -5.3446    0.0000 C   0  0  0  0  0  0  0  0  0  0  0  0
   18.3119   -5.9632    0.0000 O   0  0  0  0  0  0  0  0  0  0  0  0
   18.5602   -5.1764    0.0000 C   0  0  0  0  0  0  0  0  0  0  0  0
   18.0030   -4.5680    0.0000 O   0  0  0  0  0  0  0  0  0  0  0  0
   19.3657   -4.9981    0.0000 C   0  0  0  0  0  0  0  0  0  0  0  0
   15.9474   -8.6449    0.0000 H   0  0  0  0  0  0  0  0  0  0  0  0
   11.5224   -9.1054    0.0000 O   0  0  0  0  0  0  0  0  0  0  0  0
   12.2372  -11.9922    0.0000 H   0  0  0  0  0  0  0  0  0  0  0  0
   12.9517  -12.4046    0.0000 O   0  0  0  0  0  0  0  0  0  0  0  0
   12.9517  -10.7274    0.0000 H   0  0  0  0  0  0  0  0  0  0  0  0
  1  2  1  0  0  0  0
  2  3  1  0  0  0  0
  3  4  1  0  0  0  0
  4  5  1  0  0  0  0
  5  6  1  0  0  0  0
  1  6  1  0  0  0  0
  4  7  1  0  0  0  0
  7  8  1  0  0  0  0
  8  9  2  0  0  0  0
  9 10  1  0  0  0  0
  5 10  1  0  0  0  0
  9 11  1  0  0  0  0
 11 12  1  0  0  0  0
 12 13  1  0  0  0  0
 13 14  1  0  0  0  0
 10 14  1  0  0  0  0
 11 15  1  0  0  0  0
 15 16  1  0  0  0  0
 16 17  1  0  0  0  0
 12 17  1  0  0  0  0
  2 18  1  1  0  0  0
 12 19  1  1  0  0  0
  1 20  1  1  0  0  0
  5 21  1  1  0  0  0
 11 22  1  6  0  0  0
 17 23  1  0  0  0  0
 23 24  1  0  0  0  0
 23 25  1  1  0  0  0
 23 26  1  0  0  0  0
 26 27  1  6  0  0  0
 26 28  1  0  0  0  0
 28 29  1  0  0  0  0
 29 30  1  0  0  0  0
 30 31  1  0  0  0  0
 30 32  1  0  0  0  0
 30 33  1  0  0  0  0
 33 34  1  0  0  0  0
 34 35  2  0  0  0  0
 34 36  1  0  0  0  0
 17 37  1  6  0  0  0
  6 38  1  1  0  0  0
  4 39  1  1  0  0  0
  7 40  2  0  0  0  0
 10 41  1  6  0  0  0
M  END
>  <cdx:fragmentId>
185526

$$$$
