39117.cdx
  Mrv1902 05222410202D          

 11 12  0  0  0  0            999 V2000
    7.8710   -5.2746    0.0000 N   0  0  0  0  0  0  0  0  0  0  0  0
    8.5855   -5.6871    0.0000 C   0  0  0  0  0  0  0  0  0  0  0  0
    8.5855   -6.5121    0.0000 C   0  0  0  0  0  0  0  0  0  0  0  0
    7.8710   -6.9246    0.0000 C   0  0  0  0  0  0  0  0  0  0  0  0
    7.1565   -6.5121    0.0000 C   0  0  0  0  0  0  0  0  0  0  0  0
    6.4421   -6.9246    0.0000 C   0  0  0  0  0  0  0  0  0  0  0  0
    5.7276   -6.5121    0.0000 C   0  0  0  0  0  0  0  0  0  0  0  0
    5.7276   -5.6871    0.0000 C   0  0  0  0  0  0  0  0  0  0  0  0
    6.4421   -5.2746    0.0000 C   0  0  0  0  0  0  0  0  0  0  0  0
    7.1565   -5.6871    0.0000 C   0  0  0  0  0  0  0  0  0  0  0  0
    9.2999   -5.2746    0.0000 O   0  0  0  0  0  0  0  0  0  0  0  0
  1  2  2  0  0  0  0
  2  3  1  0  0  0  0
  3  4  2  0  0  0  0
  4  5  1  0  0  0  0
  5  6  2  0  0  0  0
  6  7  1  0  0  0  0
  7  8  2  0  0  0  0
  8  9  1  0  0  0  0
  9 10  2  0  0  0  0
  1 10  1  0  0  0  0
  5 10  1  0  0  0  0
  2 11  1  0  0  0  0
M  END
>  <cdx:fragmentId>
1059

$$$$
