1622.cdx
  Mrv1902 05222410282D          

 32 35  0  0  0  0            999 V2000
   15.8260   -7.0566    0.0000 C   0  0  0  0  0  0  0  0  0  0  0  0
   15.8260   -7.8816    0.0000 C   0  0  0  0  0  0  0  0  0  0  0  0
   15.1115   -8.2941    0.0000 C   0  0  0  0  0  0  0  0  0  0  0  0
   15.1115   -9.1191    0.0000 O   0  0  0  0  0  0  0  0  0  0  0  0
   14.3970   -7.8816    0.0000 C   0  0  0  0  0  0  0  0  0  0  0  0
   13.6826   -8.2941    0.0000 C   0  0  0  0  0  0  0  0  0  0  0  0
   13.6826   -9.1191    0.0000 O   0  0  0  0  0  0  0  0  0  0  0  0
   12.9681   -7.8816    0.0000 C   0  0  0  0  0  0  0  0  0  0  0  0
   12.9681   -7.0566    0.0000 C   0  0  0  0  0  0  0  0  0  0  0  0
   12.2536   -6.6441    0.0000 O   0  0  0  0  0  0  0  0  0  0  0  0
   13.6826   -6.6441    0.0000 C   0  0  0  0  0  0  0  0  0  0  0  0
   14.3970   -7.0566    0.0000 C   0  0  0  0  0  0  0  0  0  0  0  0
   15.1115   -6.6441    0.0000 O   0  0  0  0  0  0  0  0  0  0  0  0
   16.5405   -6.6441    0.0000 C   0  0  0  0  0  0  0  0  0  0  0  0
   16.5405   -5.8191    0.0000 C   0  0  0  0  0  0  0  0  0  0  0  0
   17.2549   -5.4066    0.0000 C   0  0  0  0  0  0  0  0  0  0  0  0
   17.2549   -4.5816    0.0000 O   0  0  0  0  0  0  0  0  0  0  0  0
   17.9694   -4.1691    0.0000 C   0  0  0  0  0  0  0  0  0  0  0  0
   17.9694   -5.8191    0.0000 C   0  0  0  0  0  0  0  0  0  0  0  0
   18.6839   -5.4066    0.0000 O   0  0  0  0  0  0  0  0  0  0  0  0
   17.9694   -6.6441    0.0000 C   0  0  0  0  0  0  0  0  0  0  0  0
   17.2549   -7.0566    0.0000 C   0  0  0  0  0  0  0  0  0  0  0  0
   16.5405   -8.2941    0.0000 O   0  0  0  0  0  0  0  0  0  0  0  0
   16.5405   -9.1191    0.0000 C   0  0  0  0  0  0  0  0  0  0  0  0
   17.2079   -9.6040    0.0000 C   0  0  2  0  0  0  0  0  0  0  0  0
   17.9925   -9.3491    0.0000 O   0  0  0  0  0  0  0  0  0  0  0  0
   16.9530  -10.3886    0.0000 C   0  0  1  0  0  0  0  0  0  0  0  0
   17.4379  -11.0561    0.0000 O   0  0  0  0  0  0  0  0  0  0  0  0
   16.1280  -10.3886    0.0000 C   0  0  2  0  0  0  0  0  0  0  0  0
   15.8730   -9.6040    0.0000 O   0  0  0  0  0  0  0  0  0  0  0  0
   15.6430  -11.0561    0.0000 C   0  0  0  0  0  0  0  0  0  0  0  0
   14.8226  -10.9698    0.0000 O   0  0  0  0  0  0  0  0  0  0  0  0
  1  2  2  0  0  0  0
  2  3  1  0  0  0  0
  3  4  2  0  0  0  0
  3  5  1  0  0  0  0
  5  6  1  0  0  0  0
  6  7  1  0  0  0  0
  6  8  2  0  0  0  0
  8  9  1  0  0  0  0
  9 10  1  0  0  0  0
  9 11  2  0  0  0  0
 11 12  1  0  0  0  0
  5 12  2  0  0  0  0
 12 13  1  0  0  0  0
  1 13  1  0  0  0  0
  1 14  1  0  0  0  0
 14 15  1  0  0  0  0
 15 16  2  0  0  0  0
 16 17  1  0  0  0  0
 17 18  1  0  0  0  0
 16 19  1  0  0  0  0
 19 20  1  0  0  0  0
 19 21  2  0  0  0  0
 21 22  1  0  0  0  0
 14 22  2  0  0  0  0
 23 24  1  0  0  0  0
 24 25  1  0  0  0  0
 25 26  1  6  0  0  0
 25 27  1  0  0  0  0
 27 28  1  1  0  0  0
 27 29  1  0  0  0  0
 29 30  1  0  0  0  0
 29 31  1  1  0  0  0
 31 32  1  0  0  0  0
 24 30  1  0  0  0  0
  2 23  1  0  0  0  0
M  END
>  <cdx:groupId>
338

>  <cdx:fragmentId>
242

$$$$
