39125.cdx
  Mrv1902 05222410262D          

 68 75  0  0  0  0            999 V2000
   14.3949   -6.6114    0.0000 C   0  0  0  0  0  0  0  0  0  0  0  0
   14.3949   -7.4364    0.0000 C   0  0  0  0  0  0  0  0  0  0  0  0
   13.6805   -7.8489    0.0000 C   0  0  0  0  0  0  0  0  0  0  0  0
   13.6805   -8.6739    0.0000 O   0  0  0  0  0  0  0  0  0  0  0  0
   12.9660   -7.4364    0.0000 C   0  0  0  0  0  0  0  0  0  0  0  0
   12.2515   -7.8489    0.0000 C   0  0  0  0  0  0  0  0  0  0  0  0
   12.2515   -8.6739    0.0000 O   0  0  0  0  0  0  0  0  0  0  0  0
   11.5370   -7.4364    0.0000 C   0  0  0  0  0  0  0  0  0  0  0  0
   11.5370   -6.6114    0.0000 C   0  0  0  0  0  0  0  0  0  0  0  0
   10.8226   -6.1989    0.0000 O   0  0  0  0  0  0  0  0  0  0  0  0
   12.2515   -6.1989    0.0000 C   0  0  0  0  0  0  0  0  0  0  0  0
   12.9660   -6.6114    0.0000 C   0  0  0  0  0  0  0  0  0  0  0  0
   13.6805   -6.1989    0.0000 O   0  0  0  0  0  0  0  0  0  0  0  0
   15.1094   -6.1989    0.0000 C   0  0  0  0  0  0  0  0  0  0  0  0
   15.1094   -5.3739    0.0000 C   0  0  0  0  0  0  0  0  0  0  0  0
   15.8239   -4.9614    0.0000 C   0  0  0  0  0  0  0  0  0  0  0  0
   16.5383   -5.3739    0.0000 C   0  0  0  0  0  0  0  0  0  0  0  0
   17.2528   -4.9614    0.0000 O   0  0  0  0  0  0  0  0  0  0  0  0
   16.5383   -6.1989    0.0000 C   0  0  0  0  0  0  0  0  0  0  0  0
   15.8239   -6.6114    0.0000 C   0  0  0  0  0  0  0  0  0  0  0  0
   10.8226   -7.8489    0.0000 C   0  0  1  0  0  0  0  0  0  0  0  0
   10.8226   -8.6739    0.0000 C   0  0  2  0  0  0  0  0  0  0  0  0
   11.5370   -9.0864    0.0000 O   0  0  0  0  0  0  0  0  0  0  0  0
   10.1081   -9.0864    0.0000 C   0  0  1  0  0  0  0  0  0  0  0  0
   10.1081   -9.9114    0.0000 O   0  0  0  0  0  0  0  0  0  0  0  0
    9.3936   -8.6739    0.0000 C   0  0  2  0  0  0  0  0  0  0  0  0
    8.6792   -9.0864    0.0000 O   0  0  0  0  0  0  0  0  0  0  0  0
    9.3936   -7.8489    0.0000 C   0  0  2  0  0  0  0  0  0  0  0  0
   10.1081   -7.4364    0.0000 O   0  0  0  0  0  0  0  0  0  0  0  0
    8.6792   -7.4364    0.0000 C   0  0  0  0  0  0  0  0  0  0  0  0
    7.9647   -7.8489    0.0000 O   0  0  0  0  0  0  0  0  0  0  0  0
   10.8226   -7.0239    0.0000 H   0  0  0  0  0  0  0  0  0  0  0  0
   11.5370   -9.9114    0.0000 C   0  0  2  0  0  0  0  0  0  0  0  0
   10.8226  -10.3239    0.0000 O   0  0  0  0  0  0  0  0  0  0  0  0
   10.8226  -11.1489    0.0000 C   0  0  1  0  0  0  0  0  0  0  0  0
   11.5370  -11.5614    0.0000 C   0  0  2  0  0  0  0  0  0  0  0  0
   12.2515  -11.1489    0.0000 C   0  0  1  0  0  0  0  0  0  0  0  0
   12.2515  -10.3239    0.0000 C   0  0  1  0  0  0  0  0  0  0  0  0
   10.1081  -11.5614    0.0000 C   0  0  0  0  0  0  0  0  0  0  0  0
   12.9660  -11.5614    0.0000 O   0  0  0  0  0  0  0  0  0  0  0  0
   12.9660   -9.9114    0.0000 O   0  0  0  0  0  0  0  0  0  0  0  0
   11.5370  -12.3864    0.0000 O   0  0  0  0  0  0  0  0  0  0  0  0
    9.3936  -11.1489    0.0000 O   0  0  0  0  0  0  0  0  0  0  0  0
    8.6792  -11.5614    0.0000 C   0  0  0  0  0  0  0  0  0  0  0  0
    7.9647  -11.1489    0.0000 C   0  0  0  0  0  0  0  0  0  0  0  0
    8.6792  -12.3864    0.0000 O   0  0  0  0  0  0  0  0  0  0  0  0
    7.2502  -11.5614    0.0000 C   0  0  0  0  0  0  0  0  0  0  0  0
    6.4965  -11.2258    0.0000 C   0  0  0  0  0  0  0  0  0  0  0  0
    5.9445  -11.8389    0.0000 C   0  0  0  0  0  0  0  0  0  0  0  0
    6.3570  -12.5534    0.0000 N   0  0  0  0  0  0  0  0  0  0  0  0
    7.1640  -12.3818    0.0000 C   0  0  0  0  0  0  0  0  0  0  0  0
    7.7771  -12.9339    0.0000 O   0  0  0  0  0  0  0  0  0  0  0  0
    6.2416  -10.4412    0.0000 C   0  0  0  0  0  0  0  0  0  0  0  0
    5.4346  -10.2697    0.0000 C   0  0  0  0  0  0  0  0  0  0  0  0
    4.8826  -10.8828    0.0000 C   0  0  0  0  0  0  0  0  0  0  0  0
    5.1375  -11.6674    0.0000 C   0  0  0  0  0  0  0  0  0  0  0  0
    6.0215  -13.3071    0.0000 C   0  0  2  0  0  0  0  0  0  0  0  0
    5.2010  -13.3933    0.0000 O   0  0  0  0  0  0  0  0  0  0  0  0
    4.8654  -14.1470    0.0000 C   0  0  1  0  0  0  0  0  0  0  0  0
    5.3503  -14.8144    0.0000 C   0  0  2  0  0  0  0  0  0  0  0  0
    6.1708  -14.7282    0.0000 C   0  0  1  0  0  0  0  0  0  0  0  0
    6.5064  -13.9745    0.0000 C   0  0  1  0  0  0  0  0  0  0  0  0
    4.0449  -14.2332    0.0000 C   0  0  0  0  0  0  0  0  0  0  0  0
    6.6557  -15.3956    0.0000 O   0  0  0  0  0  0  0  0  0  0  0  0
    7.3269  -13.8883    0.0000 O   0  0  0  0  0  0  0  0  0  0  0  0
    5.0148  -15.5681    0.0000 O   0  0  0  0  0  0  0  0  0  0  0  0
    3.7094  -14.9869    0.0000 O   0  0  0  0  0  0  0  0  0  0  0  0
    5.6090  -12.5926    0.0000 H   0  0  0  0  0  0  0  0  0  0  0  0
  1  2  2  0  0  0  0
  2  3  1  0  0  0  0
  3  4  2  0  0  0  0
  3  5  1  0  0  0  0
  5  6  1  0  0  0  0
  6  7  1  0  0  0  0
  6  8  2  0  0  0  0
  8  9  1  0  0  0  0
  9 10  1  0  0  0  0
  9 11  2  0  0  0  0
 11 12  1  0  0  0  0
  5 12  2  0  0  0  0
 12 13  1  0  0  0  0
  1 13  1  0  0  0  0
  1 14  1  0  0  0  0
 14 15  1  0  0  0  0
 15 16  2  0  0  0  0
 16 17  1  0  0  0  0
 17 18  1  0  0  0  0
 17 19  2  0  0  0  0
 19 20  1  0  0  0  0
 14 20  2  0  0  0  0
 21 22  1  0  0  0  0
 22 23  1  6  0  0  0
 22 24  1  0  0  0  0
 24 25  1  1  0  0  0
 24 26  1  0  0  0  0
 26 27  1  6  0  0  0
 26 28  1  0  0  0  0
 28 29  1  0  0  0  0
 28 30  1  1  0  0  0
 30 31  1  0  0  0  0
 21 29  1  0  0  0  0
  8 21  1  0  0  0  0
 21 32  1  6  0  0  0
 33 23  1  1  0  0  0
 33 34  1  0  0  0  0
 34 35  1  0  0  0  0
 35 36  1  0  0  0  0
 36 37  1  0  0  0  0
 37 38  1  0  0  0  0
 38 33  1  0  0  0  0
 35 39  1  1  0  0  0
 37 40  1  1  0  0  0
 38 41  1  6  0  0  0
 36 42  1  6  0  0  0
 39 43  1  0  0  0  0
 43 44  1  0  0  0  0
 44 45  1  0  0  0  0
 44 46  2  0  0  0  0
 45 47  1  0  0  0  0
 47 48  1  0  0  0  0
 48 49  2  0  0  0  0
 49 50  1  0  0  0  0
 50 51  1  0  0  0  0
 51 47  1  0  0  0  0
 51 52  2  0  0  0  0
 48 53  1  0  0  0  0
 53 54  2  0  0  0  0
 54 55  1  0  0  0  0
 55 56  2  0  0  0  0
 56 49  1  0  0  0  0
 50 57  1  0  0  0  0
 57 58  1  0  0  0  0
 58 59  1  0  0  0  0
 59 60  1  0  0  0  0
 60 61  1  0  0  0  0
 61 62  1  0  0  0  0
 62 57  1  0  0  0  0
 59 63  1  1  0  0  0
 61 64  1  1  0  0  0
 62 65  1  6  0  0  0
 60 66  1  6  0  0  0
 63 67  1  0  0  0  0
 57 68  1  6  0  0  0
M  END
>  <cdx:fragmentId>
7912

$$$$
