1623.cdx
  Mrv1902 05222410282D          

 35 37  0  0  0  0            999 V2000
   15.5088   -6.1254    0.0000 C   0  0  0  0  0  0  0  0  0  0  0  0
   15.5088   -6.9504    0.0000 C   0  0  0  0  0  0  0  0  0  0  0  0
   16.2233   -7.3629    0.0000 O   0  0  0  0  0  0  0  0  0  0  0  0
   14.7943   -7.3629    0.0000 C   0  0  0  0  0  0  0  0  0  0  0  0
   14.7943   -8.1879    0.0000 O   0  0  0  0  0  0  0  0  0  0  0  0
   14.0798   -6.9504    0.0000 C   0  0  0  0  0  0  0  0  0  0  0  0
   13.3654   -7.3629    0.0000 C   0  0  0  0  0  0  0  0  0  0  0  0
   13.3654   -8.1879    0.0000 O   0  0  0  0  0  0  0  0  0  0  0  0
   12.6509   -6.9504    0.0000 C   0  0  0  0  0  0  0  0  0  0  0  0
   12.6509   -6.1254    0.0000 C   0  0  0  0  0  0  0  0  0  0  0  0
   13.3654   -5.7129    0.0000 C   0  0  0  0  0  0  0  0  0  0  0  0
   14.0798   -6.1254    0.0000 C   0  0  0  0  0  0  0  0  0  0  0  0
   14.7943   -5.7129    0.0000 O   0  0  0  0  0  0  0  0  0  0  0  0
   16.2233   -5.7129    0.0000 C   0  0  0  0  0  0  0  0  0  0  0  0
   16.9377   -6.1254    0.0000 C   0  0  0  0  0  0  0  0  0  0  0  0
   17.6522   -5.7129    0.0000 C   0  0  0  0  0  0  0  0  0  0  0  0
   18.3667   -6.1254    0.0000 O   0  0  0  0  0  0  0  0  0  0  0  0
   19.0811   -5.7129    0.0000 C   0  0  0  0  0  0  0  0  0  0  0  0
   17.6522   -4.8879    0.0000 C   0  0  0  0  0  0  0  0  0  0  0  0
   18.3667   -4.4754    0.0000 O   0  0  0  0  0  0  0  0  0  0  0  0
   16.9377   -4.4754    0.0000 C   0  0  0  0  0  0  0  0  0  0  0  0
   16.2233   -4.8879    0.0000 C   0  0  0  0  0  0  0  0  0  0  0  0
    6.9351   -6.1254    0.0000 O   0  0  0  0  0  0  0  0  0  0  0  0
    7.6496   -5.7129    0.0000 C   0  0  0  0  0  0  0  0  0  0  0  0
    8.3641   -6.1254    0.0000 C   0  0  2  0  0  0  0  0  0  0  0  0
    8.3641   -6.9504    0.0000 O   0  0  0  0  0  0  0  0  0  0  0  0
    9.0785   -5.7129    0.0000 C   0  0  1  0  0  0  0  0  0  0  0  0
    9.0785   -4.8879    0.0000 O   0  0  0  0  0  0  0  0  0  0  0  0
    9.7930   -6.1254    0.0000 C   0  0  2  0  0  0  0  0  0  0  0  0
    9.7930   -6.9504    0.0000 O   0  0  0  0  0  0  0  0  0  0  0  0
   10.5075   -5.7129    0.0000 C   0  0  2  0  0  0  0  0  0  0  0  0
   10.5075   -4.8879    0.0000 O   0  0  0  0  0  0  0  0  0  0  0  0
   11.2220   -6.1254    0.0000 C   0  0  0  0  0  0  0  0  0  0  0  0
   11.2220   -6.9504    0.0000 O   0  0  0  0  0  0  0  0  0  0  0  0
   11.9364   -5.7129    0.0000 O   0  0  0  0  0  0  0  0  0  0  0  0
  1  2  2  0  0  0  0
  2  3  1  0  0  0  0
  2  4  1  0  0  0  0
  4  5  2  0  0  0  0
  4  6  1  0  0  0  0
  6  7  1  0  0  0  0
  7  8  1  0  0  0  0
  7  9  2  0  0  0  0
  9 10  1  0  0  0  0
 10 11  2  0  0  0  0
 11 12  1  0  0  0  0
  6 12  2  0  0  0  0
 12 13  1  0  0  0  0
  1 13  1  0  0  0  0
  1 14  1  0  0  0  0
 14 15  1  0  0  0  0
 15 16  2  0  0  0  0
 16 17  1  0  0  0  0
 17 18  1  0  0  0  0
 16 19  1  0  0  0  0
 19 20  1  0  0  0  0
 19 21  2  0  0  0  0
 21 22  1  0  0  0  0
 14 22  2  0  0  0  0
 23 24  2  0  0  0  0
 24 25  1  0  0  0  0
 25 26  1  1  0  0  0
 25 27  1  0  0  0  0
 27 28  1  1  0  0  0
 27 29  1  0  0  0  0
 29 30  1  1  0  0  0
 29 31  1  0  0  0  0
 31 32  1  6  0  0  0
 31 33  1  0  0  0  0
 33 34  2  0  0  0  0
 33 35  1  0  0  0  0
 10 35  1  0  0  0  0
M  END
>  <cdx:groupId>
447

>  <cdx:fragmentId>
343

$$$$
