39126.cdx
  Mrv1902 05222410262D          

 17 16  0  0  0  0            999 V2000
    7.5223   -8.5970    0.0000 O   0  0  0  0  0  0  0  0  0  0  0  0
    9.6657   -9.8345    0.0000 O   0  5  0  0  0  0  0  0  0  0  0  0
    8.9513   -9.4220    0.0000 C   0  0  0  0  0  0  0  0  0  0  0  0
    8.2368   -9.8345    0.0000 O   0  0  0  0  0  0  0  0  0  0  0  0
    8.9513   -8.5970    0.0000 C   0  0  0  0  0  0  0  0  0  0  0  0
    8.2368   -8.1845    0.0000 C   0  0  0  0  0  0  0  0  0  0  0  0
    8.2368   -7.3595    0.0000 C   0  0  0  0  0  0  0  0  0  0  0  0
    8.9513   -6.9470    0.0000 N   0  3  0  0  0  0  0  0  0  0  0  0
    9.6657   -6.5345    0.0000 C   0  0  0  0  0  0  0  0  0  0  0  0
    9.3638   -7.6615    0.0000 C   0  0  0  0  0  0  0  0  0  0  0  0
    8.5388   -6.2325    0.0000 C   0  0  0  0  0  0  0  0  0  0  0  0
    6.8079   -8.1845    0.0000 C   0  0  0  0  0  0  0  0  0  0  0  0
    6.8079   -7.3595    0.0000 O   0  0  0  0  0  0  0  0  0  0  0  0
    6.0934   -8.5970    0.0000 C   0  0  0  0  0  0  0  0  0  0  0  0
    5.3789   -8.1845    0.0000 C   0  0  0  0  0  0  0  0  0  0  0  0
    5.3789   -7.3595    0.0000 C   0  0  0  0  0  0  0  0  0  0  0  0
    4.6644   -8.5970    0.0000 C   0  0  0  0  0  0  0  0  0  0  0  0
  2  3  1  0  0  0  0
  3  4  2  0  0  0  0
  3  5  1  0  0  0  0
  5  6  1  0  0  0  0
  1  6  1  0  0  0  0
  6  7  1  0  0  0  0
  7  8  1  0  0  0  0
  8  9  1  0  0  0  0
  8 10  1  0  0  0  0
  8 11  1  0  0  0  0
 12 13  2  0  0  0  0
 12 14  1  0  0  0  0
 14 15  1  0  0  0  0
 15 16  1  0  0  0  0
 15 17  1  0  0  0  0
  1 12  1  0  0  0  0
M  CHG  2   2  -1   8   1
M  END
>  <cdx:groupId>
52

>  <cdx:fragmentId>
7

$$$$
