3911.cdx
  Mrv1902 05222410192D          

 16 16  0  0  0  0            999 V2000
    5.6820   -3.7091    0.0000 C   0  0  0  0  0  0  0  0  0  0  0  0
    4.2531   -5.3591    0.0000 C   0  0  0  0  0  0  0  0  0  0  0  0
    4.2531   -6.1841    0.0000 C   0  0  0  0  0  0  0  0  0  0  0  0
    4.9676   -6.5966    0.0000 O   0  0  0  0  0  0  0  0  0  0  0  0
    9.9689   -6.1841    0.0000 O   0  0  0  0  0  0  0  0  0  0  0  0
    9.2544   -6.5966    0.0000 C   0  0  0  0  0  0  0  0  0  0  0  0
    8.5399   -6.1841    0.0000 C   0  0  0  0  0  0  0  0  0  0  0  0
    7.8254   -6.5966    0.0000 C   0  0  0  0  0  0  0  0  0  0  0  0
    6.3965   -4.1216    0.0000 O   0  0  0  0  0  0  0  0  0  0  0  0
    4.9676   -4.9466    0.0000 O   0  0  0  0  0  0  0  0  0  0  0  0
    6.3965   -6.5966    0.0000 C   0  0  0  0  0  0  0  0  0  0  0  0
    7.1110   -6.1841    0.0000 C   0  0  0  0  0  0  0  0  0  0  0  0
    7.1110   -5.3591    0.0000 C   0  0  0  0  0  0  0  0  0  0  0  0
    6.3965   -4.9466    0.0000 C   0  0  0  0  0  0  0  0  0  0  0  0
    5.6820   -5.3591    0.0000 C   0  0  0  0  0  0  0  0  0  0  0  0
    5.6820   -6.1841    0.0000 C   0  0  0  0  0  0  0  0  0  0  0  0
  9  1  1  0  0  0  0
 10  2  1  0  0  0  0
  4  3  1  0  0  0  0
 16  4  1  0  0  0  0
  6  5  2  0  0  0  0
  7  6  1  0  0  0  0
  8  7  2  0  0  0  0
 12  8  1  0  0  0  0
 14  9  1  0  0  0  0
 15 10  1  0  0  0  0
 11 16  2  0  0  0  0
 12 11  1  0  0  0  0
 13 12  2  0  0  0  0
 14 13  1  0  0  0  0
 15 14  2  0  0  0  0
 16 15  1  0  0  0  0
M  END
>  <cdx:fragmentId>
5

$$$$
