39129.cdx
  Mrv1902 05222410192D          

 81 89  0  0  0  0            999 V2000
   14.3949   -6.6114    0.0000 C   0  0  0  0  0  0  0  0  0  0  0  0
   14.3949   -7.4364    0.0000 C   0  0  0  0  0  0  0  0  0  0  0  0
   13.6805   -7.8489    0.0000 C   0  0  0  0  0  0  0  0  0  0  0  0
   13.6805   -8.6739    0.0000 O   0  0  0  0  0  0  0  0  0  0  0  0
   12.9660   -7.4364    0.0000 C   0  0  0  0  0  0  0  0  0  0  0  0
   12.2515   -7.8489    0.0000 C   0  0  0  0  0  0  0  0  0  0  0  0
   12.2515   -8.6739    0.0000 O   0  0  0  0  0  0  0  0  0  0  0  0
   11.5370   -7.4364    0.0000 C   0  0  0  0  0  0  0  0  0  0  0  0
   11.5370   -6.6114    0.0000 C   0  0  0  0  0  0  0  0  0  0  0  0
   10.8226   -6.1989    0.0000 O   0  0  0  0  0  0  0  0  0  0  0  0
   12.2515   -6.1989    0.0000 C   0  0  0  0  0  0  0  0  0  0  0  0
   12.9660   -6.6114    0.0000 C   0  0  0  0  0  0  0  0  0  0  0  0
   13.6805   -6.1989    0.0000 O   0  0  0  0  0  0  0  0  0  0  0  0
   15.1094   -6.1989    0.0000 C   0  0  0  0  0  0  0  0  0  0  0  0
   15.1094   -5.3739    0.0000 C   0  0  0  0  0  0  0  0  0  0  0  0
   15.8239   -4.9614    0.0000 C   0  0  0  0  0  0  0  0  0  0  0  0
   16.5383   -5.3739    0.0000 C   0  0  0  0  0  0  0  0  0  0  0  0
   17.2528   -4.9614    0.0000 O   0  0  0  0  0  0  0  0  0  0  0  0
   16.5383   -6.1989    0.0000 C   0  0  0  0  0  0  0  0  0  0  0  0
   15.8239   -6.6114    0.0000 C   0  0  0  0  0  0  0  0  0  0  0  0
   10.8226   -7.8489    0.0000 C   0  0  1  0  0  0  0  0  0  0  0  0
   10.8226   -8.6739    0.0000 C   0  0  2  0  0  0  0  0  0  0  0  0
   11.5370   -9.0864    0.0000 O   0  0  0  0  0  0  0  0  0  0  0  0
   10.1081   -9.0864    0.0000 C   0  0  1  0  0  0  0  0  0  0  0  0
   10.1081   -9.9114    0.0000 O   0  0  0  0  0  0  0  0  0  0  0  0
    9.3936   -8.6739    0.0000 C   0  0  2  0  0  0  0  0  0  0  0  0
    8.6792   -9.0864    0.0000 O   0  0  0  0  0  0  0  0  0  0  0  0
    9.3936   -7.8489    0.0000 C   0  0  2  0  0  0  0  0  0  0  0  0
   10.1081   -7.4364    0.0000 O   0  0  0  0  0  0  0  0  0  0  0  0
    8.6792   -7.4364    0.0000 C   0  0  0  0  0  0  0  0  0  0  0  0
    7.9647   -7.8489    0.0000 O   0  0  0  0  0  0  0  0  0  0  0  0
   10.8226   -7.0239    0.0000 H   0  0  0  0  0  0  0  0  0  0  0  0
   11.5370   -9.9114    0.0000 C   0  0  2  0  0  0  0  0  0  0  0  0
   10.8226  -10.3239    0.0000 O   0  0  0  0  0  0  0  0  0  0  0  0
   10.8226  -11.1489    0.0000 C   0  0  1  0  0  0  0  0  0  0  0  0
   11.5370  -11.5614    0.0000 C   0  0  2  0  0  0  0  0  0  0  0  0
   12.2515  -11.1489    0.0000 C   0  0  1  0  0  0  0  0  0  0  0  0
   12.2515  -10.3239    0.0000 C   0  0  1  0  0  0  0  0  0  0  0  0
   10.1081  -11.5614    0.0000 C   0  0  0  0  0  0  0  0  0  0  0  0
   12.9660  -11.5614    0.0000 O   0  0  0  0  0  0  0  0  0  0  0  0
   12.9660   -9.9114    0.0000 O   0  0  0  0  0  0  0  0  0  0  0  0
   11.5370  -12.3864    0.0000 O   0  0  0  0  0  0  0  0  0  0  0  0
    9.3936  -11.1489    0.0000 O   0  0  0  0  0  0  0  0  0  0  0  0
    8.6792  -11.5614    0.0000 C   0  0  0  0  0  0  0  0  0  0  0  0
    7.9647  -11.1489    0.0000 C   0  0  0  0  0  0  0  0  0  0  0  0
    8.6792  -12.3864    0.0000 O   0  0  0  0  0  0  0  0  0  0  0  0
    7.2502  -11.5614    0.0000 C   0  0  0  0  0  0  0  0  0  0  0  0
    6.5358  -11.1489    0.0000 C   0  0  0  0  0  0  0  0  0  0  0  0
    6.5358  -10.3239    0.0000 C   0  0  0  0  0  0  0  0  0  0  0  0
    5.8213   -9.9114    0.0000 C   0  0  0  0  0  0  0  0  0  0  0  0
    5.1068  -10.3239    0.0000 C   0  0  0  0  0  0  0  0  0  0  0  0
    5.1068  -11.1489    0.0000 C   0  0  0  0  0  0  0  0  0  0  0  0
    5.8213  -11.5614    0.0000 C   0  0  0  0  0  0  0  0  0  0  0  0
    4.3923   -9.9114    0.0000 O   0  0  0  0  0  0  0  0  0  0  0  0
    7.2502   -7.4364    0.0000 C   0  0  0  0  0  0  0  0  0  0  0  0
    6.5358   -7.8489    0.0000 C   0  0  0  0  0  0  0  0  0  0  0  0
    7.2502   -6.6114    0.0000 O   0  0  0  0  0  0  0  0  0  0  0  0
    5.8213   -7.4364    0.0000 C   0  0  0  0  0  0  0  0  0  0  0  0
    5.7350   -6.6159    0.0000 C   0  0  0  0  0  0  0  0  0  0  0  0
    4.9281   -6.4444    0.0000 C   0  0  0  0  0  0  0  0  0  0  0  0
    4.5156   -7.1588    0.0000 N   0  0  0  0  0  0  0  0  0  0  0  0
    5.0676   -7.7719    0.0000 C   0  0  0  0  0  0  0  0  0  0  0  0
    6.2871   -6.0028    0.0000 C   0  0  0  0  0  0  0  0  0  0  0  0
    6.0321   -5.2182    0.0000 C   0  0  0  0  0  0  0  0  0  0  0  0
    5.2252   -5.0466    0.0000 C   0  0  0  0  0  0  0  0  0  0  0  0
    4.6731   -5.6597    0.0000 C   0  0  0  0  0  0  0  0  0  0  0  0
    4.3923  -11.5614    0.0000 O   0  0  0  0  0  0  0  0  0  0  0  0
    3.6779  -11.1489    0.0000 C   0  0  0  0  0  0  0  0  0  0  0  0
    4.8961   -8.5789    0.0000 O   0  0  0  0  0  0  0  0  0  0  0  0
    3.6951   -7.2451    0.0000 C   0  0  2  0  0  0  0  0  0  0  0  0
    3.2102   -6.5776    0.0000 O   0  0  0  0  0  0  0  0  0  0  0  0
    2.3897   -6.6639    0.0000 C   0  0  1  0  0  0  0  0  0  0  0  0
    2.0541   -7.4175    0.0000 C   0  0  2  0  0  0  0  0  0  0  0  0
    2.5391   -8.0850    0.0000 C   0  0  1  0  0  0  0  0  0  0  0  0
    3.3595   -7.9987    0.0000 C   0  0  1  0  0  0  0  0  0  0  0  0
    1.9048   -5.9964    0.0000 C   0  0  0  0  0  0  0  0  0  0  0  0
    2.2035   -8.8387    0.0000 O   0  0  0  0  0  0  0  0  0  0  0  0
    3.8445   -8.6662    0.0000 O   0  0  0  0  0  0  0  0  0  0  0  0
    1.2337   -7.5038    0.0000 O   0  0  0  0  0  0  0  0  0  0  0  0
    1.0843   -6.0827    0.0000 O   0  0  0  0  0  0  0  0  0  0  0  0
    4.1076   -6.5306    0.0000 H   0  0  0  0  0  0  0  0  0  0  0  0
  1  2  2  0  0  0  0
  2  3  1  0  0  0  0
  3  4  2  0  0  0  0
  3  5  1  0  0  0  0
  5  6  1  0  0  0  0
  6  7  1  0  0  0  0
  6  8  2  0  0  0  0
  8  9  1  0  0  0  0
  9 10  1  0  0  0  0
  9 11  2  0  0  0  0
 11 12  1  0  0  0  0
  5 12  2  0  0  0  0
 12 13  1  0  0  0  0
  1 13  1  0  0  0  0
  1 14  1  0  0  0  0
 14 15  1  0  0  0  0
 15 16  2  0  0  0  0
 16 17  1  0  0  0  0
 17 18  1  0  0  0  0
 17 19  2  0  0  0  0
 19 20  1  0  0  0  0
 14 20  2  0  0  0  0
 21 22  1  0  0  0  0
 22 23  1  6  0  0  0
 22 24  1  0  0  0  0
 24 25  1  1  0  0  0
 24 26  1  0  0  0  0
 26 27  1  6  0  0  0
 26 28  1  0  0  0  0
 28 29  1  0  0  0  0
 28 30  1  1  0  0  0
 30 31  1  0  0  0  0
 21 29  1  0  0  0  0
  8 21  1  0  0  0  0
 21 32  1  6  0  0  0
 33 23  1  1  0  0  0
 33 34  1  0  0  0  0
 34 35  1  0  0  0  0
 35 36  1  0  0  0  0
 36 37  1  0  0  0  0
 37 38  1  0  0  0  0
 38 33  1  0  0  0  0
 35 39  1  1  0  0  0
 37 40  1  1  0  0  0
 38 41  1  6  0  0  0
 36 42  1  6  0  0  0
 39 43  1  0  0  0  0
 43 44  1  0  0  0  0
 44 45  1  0  0  0  0
 44 46  2  0  0  0  0
 45 47  2  0  0  0  0
 47 48  1  0  0  0  0
 48 49  2  0  0  0  0
 49 50  1  0  0  0  0
 50 51  2  0  0  0  0
 51 52  1  0  0  0  0
 52 53  2  0  0  0  0
 53 48  1  0  0  0  0
 51 54  1  0  0  0  0
 31 55  1  0  0  0  0
 55 56  1  0  0  0  0
 55 57  2  0  0  0  0
 56 58  1  0  0  0  0
 58 59  1  0  0  0  0
 59 60  2  0  0  0  0
 60 61  1  0  0  0  0
 61 62  1  0  0  0  0
 62 58  1  0  0  0  0
 59 63  1  0  0  0  0
 63 64  2  0  0  0  0
 64 65  1  0  0  0  0
 65 66  2  0  0  0  0
 66 60  1  0  0  0  0
 52 67  1  0  0  0  0
 67 68  1  0  0  0  0
 62 69  2  0  0  0  0
 61 70  1  0  0  0  0
 70 71  1  0  0  0  0
 71 72  1  0  0  0  0
 72 73  1  0  0  0  0
 73 74  1  0  0  0  0
 74 75  1  0  0  0  0
 75 70  1  0  0  0  0
 72 76  1  1  0  0  0
 74 77  1  1  0  0  0
 75 78  1  6  0  0  0
 73 79  1  6  0  0  0
 76 80  1  0  0  0  0
 70 81  1  6  0  0  0
M  END
>  <cdx:fragmentId>
7912

$$$$
