1621.cdx
  Mrv1902 05222410272D          

 37 40  0  0  0  0            999 V2000
   15.7830   -6.9884    0.0000 C   0  0  0  0  0  0  0  0  0  0  0  0
   15.7830   -7.8134    0.0000 C   0  0  0  0  0  0  0  0  0  0  0  0
   15.0686   -8.2259    0.0000 C   0  0  0  0  0  0  0  0  0  0  0  0
   15.0686   -9.0509    0.0000 O   0  0  0  0  0  0  0  0  0  0  0  0
   14.3541   -7.8134    0.0000 C   0  0  0  0  0  0  0  0  0  0  0  0
   13.6396   -8.2259    0.0000 C   0  0  0  0  0  0  0  0  0  0  0  0
   13.6396   -9.0509    0.0000 O   0  0  0  0  0  0  0  0  0  0  0  0
   12.9252   -7.8134    0.0000 C   0  0  0  0  0  0  0  0  0  0  0  0
   12.9252   -6.9884    0.0000 C   0  0  0  0  0  0  0  0  0  0  0  0
   12.2107   -6.5759    0.0000 O   0  0  0  0  0  0  0  0  0  0  0  0
   13.6396   -6.5759    0.0000 C   0  0  0  0  0  0  0  0  0  0  0  0
   14.3541   -6.9884    0.0000 C   0  0  0  0  0  0  0  0  0  0  0  0
   15.0686   -6.5759    0.0000 O   0  0  0  0  0  0  0  0  0  0  0  0
   16.4975   -6.5759    0.0000 C   0  0  0  0  0  0  0  0  0  0  0  0
   16.4975   -5.7509    0.0000 C   0  0  0  0  0  0  0  0  0  0  0  0
   17.2120   -5.3384    0.0000 C   0  0  0  0  0  0  0  0  0  0  0  0
   17.2120   -4.5134    0.0000 O   0  0  0  0  0  0  0  0  0  0  0  0
   17.9265   -4.1009    0.0000 C   0  0  0  0  0  0  0  0  0  0  0  0
   17.9265   -5.7509    0.0000 C   0  0  0  0  0  0  0  0  0  0  0  0
   18.6409   -5.3384    0.0000 O   0  0  0  0  0  0  0  0  0  0  0  0
   17.9265   -6.5759    0.0000 C   0  0  0  0  0  0  0  0  0  0  0  0
   17.2120   -6.9884    0.0000 C   0  0  0  0  0  0  0  0  0  0  0  0
   16.4975   -8.2259    0.0000 O   0  0  0  0  0  0  0  0  0  0  0  0
   16.4975   -9.0509    0.0000 C   0  0  0  0  0  0  0  0  0  0  0  0
   17.2120   -9.4634    0.0000 C   0  0  2  0  0  0  0  0  0  0  0  0
   17.9265   -9.0509    0.0000 O   0  0  0  0  0  0  0  0  0  0  0  0
   17.2120  -10.2884    0.0000 C   0  0  1  0  0  0  0  0  0  0  0  0
   17.9265  -10.7009    0.0000 O   0  0  0  0  0  0  0  0  0  0  0  0
   16.4975  -10.7009    0.0000 C   0  0  2  0  0  0  0  0  0  0  0  0
   16.4975  -11.5259    0.0000 O   0  0  0  0  0  0  0  0  0  0  0  0
   15.7830  -10.2884    0.0000 C   0  0  2  0  0  0  0  0  0  0  0  0
   15.7830   -9.4634    0.0000 O   0  0  0  0  0  0  0  0  0  0  0  0
   15.0686  -10.7009    0.0000 C   0  0  0  0  0  0  0  0  0  0  0  0
   14.3541  -10.2884    0.0000 O   0  0  0  0  0  0  0  0  0  0  0  0
   18.6409  -10.2884    0.0000 C   0  0  0  0  0  0  0  0  0  0  0  0
   18.6409   -9.4634    0.0000 O   0  0  0  0  0  0  0  0  0  0  0  0
   19.3554  -10.7009    0.0000 C   0  0  0  0  0  0  0  0  0  0  0  0
  1  2  2  0  0  0  0
  2  3  1  0  0  0  0
  3  4  2  0  0  0  0
  3  5  1  0  0  0  0
  5  6  1  0  0  0  0
  6  7  1  0  0  0  0
  6  8  2  0  0  0  0
  8  9  1  0  0  0  0
  9 10  1  0  0  0  0
  9 11  2  0  0  0  0
 11 12  1  0  0  0  0
  5 12  2  0  0  0  0
 12 13  1  0  0  0  0
  1 13  1  0  0  0  0
  1 14  1  0  0  0  0
 14 15  1  0  0  0  0
 15 16  2  0  0  0  0
 16 17  1  0  0  0  0
 17 18  1  0  0  0  0
 16 19  1  0  0  0  0
 19 20  1  0  0  0  0
 19 21  2  0  0  0  0
 21 22  1  0  0  0  0
 14 22  2  0  0  0  0
 23 24  1  0  0  0  0
 24 25  1  0  0  0  0
 25 26  1  6  0  0  0
 25 27  1  0  0  0  0
 27 28  1  1  0  0  0
 27 29  1  0  0  0  0
 29 30  1  6  0  0  0
 29 31  1  0  0  0  0
 31 32  1  0  0  0  0
 31 33  1  1  0  0  0
 33 34  1  0  0  0  0
 24 32  1  0  0  0  0
 35 36  2  0  0  0  0
 35 37  1  0  0  0  0
 28 35  1  0  0  0  0
  2 23  1  0  0  0  0
M  END
>  <cdx:groupId>
229

>  <cdx:fragmentId>
118

$$$$
