39136.cdx
  Mrv1902 05222410282D          

 35 37  0  0  0  0            999 V2000
    6.3405   -9.2390    0.0000 O   0  0  0  0  0  0  0  0  0  0  0  0
   11.3245   -5.5394    0.0000 O   0  0  0  0  0  0  0  0  0  0  0  0
    9.1885   -5.9504    0.0000 C   0  0  0  0  0  0  0  0  0  0  0  0
    9.9005   -5.5394    0.0000 C   0  0  0  0  0  0  0  0  0  0  0  0
   10.6125   -5.9504    0.0000 C   0  0  0  0  0  0  0  0  0  0  0  0
   10.6125   -6.7726    0.0000 C   0  0  0  0  0  0  0  0  0  0  0  0
    9.9005   -7.1836    0.0000 C   0  0  0  0  0  0  0  0  0  0  0  0
    9.1885   -6.7726    0.0000 C   0  0  0  0  0  0  0  0  0  0  0  0
    4.9166   -6.7726    0.0000 O   0  0  0  0  0  0  0  0  0  0  0  0
    7.7645   -9.2390    0.0000 O   0  0  0  0  0  0  0  0  0  0  0  0
    7.7645   -6.7726    0.0000 O   0  0  0  0  0  0  0  0  0  0  0  0
    7.0525   -7.1836    0.0000 C   0  0  0  0  0  0  0  0  0  0  0  0
    6.3405   -6.7726    0.0000 C   0  0  0  0  0  0  0  0  0  0  0  0
    5.6285   -7.1836    0.0000 C   0  0  0  0  0  0  0  0  0  0  0  0
    5.6285   -8.0058    0.0000 C   0  0  0  0  0  0  0  0  0  0  0  0
    6.3405   -8.4168    0.0000 C   0  0  0  0  0  0  0  0  0  0  0  0
    7.0525   -8.0058    0.0000 C   0  0  0  0  0  0  0  0  0  0  0  0
    7.7645   -8.4168    0.0000 C   0  0  0  0  0  0  0  0  0  0  0  0
    8.4765   -8.0058    0.0000 C   0  0  0  0  0  0  0  0  0  0  0  0
    8.4765   -7.1836    0.0000 C   0  0  0  0  0  0  0  0  0  0  0  0
    6.3405   -5.9504    0.0000 C   0  0  0  0  0  0  0  0  0  0  0  0
    5.2175   -8.7178    0.0000 C   0  0  0  0  0  0  0  0  0  0  0  0
    4.8064   -8.0058    0.0000 C   0  0  0  0  0  0  0  0  0  0  0  0
    4.3953   -8.7178    0.0000 C   0  0  0  0  0  0  0  0  0  0  0  0
    3.9843   -9.4298    0.0000 C   0  0  0  0  0  0  0  0  0  0  0  0
    4.3953  -10.1417    0.0000 C   0  0  0  0  0  0  0  0  0  0  0  0
    3.1621   -9.4298    0.0000 C   0  0  0  0  0  0  0  0  0  0  0  0
    4.3953   -7.2938    0.0000 C   0  0  0  0  0  0  0  0  0  0  0  0
    3.5732   -7.2938    0.0000 C   0  0  0  0  0  0  0  0  0  0  0  0
    3.1621   -8.0058    0.0000 C   0  0  0  0  0  0  0  0  0  0  0  0
    3.1621   -6.5818    0.0000 C   0  0  0  0  0  0  0  0  0  0  0  0
    5.6285   -5.5394    0.0000 C   0  0  0  0  0  0  0  0  0  0  0  0
    5.6285   -4.7172    0.0000 C   0  0  0  0  0  0  0  0  0  0  0  0
    6.3405   -4.3062    0.0000 C   0  0  0  0  0  0  0  0  0  0  0  0
    4.9166   -4.3062    0.0000 C   0  0  0  0  0  0  0  0  0  0  0  0
 16  1  1  0  0  0  0
 20  8  1  0  0  0  0
  5  2  1  0  0  0  0
  8  3  2  0  0  0  0
  4  3  1  0  0  0  0
  5  4  2  0  0  0  0
  6  5  1  0  0  0  0
  7  6  2  0  0  0  0
  8  7  1  0  0  0  0
 14  9  2  0  0  0  0
 18 10  2  0  0  0  0
 20 11  1  0  0  0  0
 12 11  1  0  0  0  0
 17 12  1  0  0  0  0
 13 12  2  0  0  0  0
 14 13  1  0  0  0  0
 15 14  1  0  0  0  0
 16 15  1  0  0  0  0
 17 16  2  0  0  0  0
 18 17  1  0  0  0  0
 19 18  1  0  0  0  0
 20 19  1  0  0  0  0
 13 21  1  0  0  0  0
 15 22  1  0  0  0  0
 15 23  1  0  0  0  0
 22 24  1  0  0  0  0
 24 25  2  0  0  0  0
 25 26  1  0  0  0  0
 25 27  1  0  0  0  0
 23 28  1  0  0  0  0
 28 29  2  0  0  0  0
 29 30  1  0  0  0  0
 29 31  1  0  0  0  0
 21 32  1  0  0  0  0
 32 33  2  0  0  0  0
 33 34  1  0  0  0  0
 33 35  1  0  0  0  0
M  END
>  <cdx:fragmentId>
365

$$$$
