3913.cdx
  Mrv1902 05222410182D          

 14 14  0  0  0  0            999 V2000
    5.2558   -7.1118    0.0000 C   0  0  0  0  0  0  0  0  0  0  0  0
    5.2558   -6.2868    0.0000 C   0  0  0  0  0  0  0  0  0  0  0  0
    5.9702   -5.8743    0.0000 C   0  0  0  0  0  0  0  0  0  0  0  0
    6.6847   -6.2868    0.0000 C   0  0  0  0  0  0  0  0  0  0  0  0
    6.6847   -7.1118    0.0000 C   0  0  0  0  0  0  0  0  0  0  0  0
    5.9702   -7.5243    0.0000 C   0  0  0  0  0  0  0  0  0  0  0  0
    4.5413   -5.8743    0.0000 O   0  0  0  0  0  0  0  0  0  0  0  0
    7.3992   -7.5243    0.0000 C   0  0  0  0  0  0  0  0  0  0  0  0
    8.1137   -7.1118    0.0000 C   0  0  0  0  0  0  0  0  0  0  0  0
    8.8281   -7.5243    0.0000 C   0  0  0  0  0  0  0  0  0  0  0  0
    9.5426   -7.1118    0.0000 O   0  0  0  0  0  0  0  0  0  0  0  0
    3.8268   -6.2868    0.0000 C   0  0  0  0  0  0  0  0  0  0  0  0
    4.5413   -7.5243    0.0000 O   0  0  0  0  0  0  0  0  0  0  0  0
    3.8268   -7.1118    0.0000 C   0  0  0  0  0  0  0  0  0  0  0  0
  1  2  1  0  0  0  0
  2  3  2  0  0  0  0
  3  4  1  0  0  0  0
  4  5  2  0  0  0  0
  5  6  1  0  0  0  0
  6  1  2  0  0  0  0
  2  7  1  0  0  0  0
  5  8  1  0  0  0  0
  8  9  2  0  0  0  0
  9 10  1  0  0  0  0
 10 11  2  0  0  0  0
  7 12  1  0  0  0  0
  1 13  1  0  0  0  0
 13 14  1  0  0  0  0
M  END
>  <cdx:fragmentId>
5

$$$$
