39135.cdx
  Mrv1902 05222410272D          

 27 29  0  0  0  0            999 V2000
    6.2890  -10.4402    0.0000 O   0  0  0  0  0  0  0  0  0  0  0  0
   11.2729   -6.7406    0.0000 O   0  0  0  0  0  0  0  0  0  0  0  0
    9.1369   -7.1516    0.0000 C   0  0  0  0  0  0  0  0  0  0  0  0
    9.8489   -6.7406    0.0000 C   0  0  0  0  0  0  0  0  0  0  0  0
   10.5609   -7.1516    0.0000 C   0  0  0  0  0  0  0  0  0  0  0  0
   10.5609   -7.9738    0.0000 C   0  0  0  0  0  0  0  0  0  0  0  0
    9.8489   -8.3848    0.0000 C   0  0  0  0  0  0  0  0  0  0  0  0
    9.1369   -7.9738    0.0000 C   0  0  0  0  0  0  0  0  0  0  0  0
    4.8650   -7.9738    0.0000 O   0  0  0  0  0  0  0  0  0  0  0  0
    7.7130  -10.4402    0.0000 O   0  0  0  0  0  0  0  0  0  0  0  0
    7.7130   -7.9738    0.0000 O   0  0  0  0  0  0  0  0  0  0  0  0
    7.0010   -8.3848    0.0000 C   0  0  0  0  0  0  0  0  0  0  0  0
    6.2890   -7.9738    0.0000 C   0  0  0  0  0  0  0  0  0  0  0  0
    5.5770   -8.3848    0.0000 C   0  0  0  0  0  0  0  0  0  0  0  0
    5.5770   -9.2070    0.0000 C   0  0  0  0  0  0  0  0  0  0  0  0
    6.2890   -9.6180    0.0000 C   0  0  0  0  0  0  0  0  0  0  0  0
    7.0010   -9.2070    0.0000 C   0  0  0  0  0  0  0  0  0  0  0  0
    7.7130   -9.6180    0.0000 C   0  0  0  0  0  0  0  0  0  0  0  0
    8.4250   -9.2070    0.0000 C   0  0  0  0  0  0  0  0  0  0  0  0
    8.4250   -8.3848    0.0000 C   0  0  0  0  0  0  0  0  0  0  0  0
    5.5745  -10.8527    0.0000 C   0  0  0  0  0  0  0  0  0  0  0  0
    6.2890   -7.1516    0.0000 C   0  0  0  0  0  0  0  0  0  0  0  0
    5.5770   -6.7406    0.0000 C   0  0  0  0  0  0  0  0  0  0  0  0
    5.5770   -5.9184    0.0000 C   0  0  0  0  0  0  0  0  0  0  0  0
    4.8625   -5.5059    0.0000 C   0  0  0  0  0  0  0  0  0  0  0  0
    6.2915   -5.5059    0.0000 C   0  0  0  0  0  0  0  0  0  0  0  0
    5.5770   -5.0934    0.0000 O   0  0  0  0  0  0  0  0  0  0  0  0
 16  1  1  0  0  0  0
 20  8  1  0  0  0  0
  5  2  1  0  0  0  0
  8  3  2  0  0  0  0
  4  3  1  0  0  0  0
  5  4  2  0  0  0  0
  6  5  1  0  0  0  0
  7  6  2  0  0  0  0
  8  7  1  0  0  0  0
 14  9  1  0  0  0  0
 18 10  2  0  0  0  0
 20 11  1  0  0  0  0
 12 11  1  0  0  0  0
 17 12  2  0  0  0  0
 13 12  1  0  0  0  0
 14 13  2  0  0  0  0
 15 14  1  0  0  0  0
 16 15  2  0  0  0  0
 17 16  1  0  0  0  0
 18 17  1  0  0  0  0
 19 18  1  0  0  0  0
 20 19  1  0  0  0  0
  1 21  1  0  0  0  0
 13 22  1  0  0  0  0
 22 23  1  0  0  0  0
 23 24  1  0  0  0  0
 24 25  1  0  0  0  0
 24 26  1  0  0  0  0
 24 27  1  0  0  0  0
M  END
>  <cdx:fragmentId>
365

$$$$
