39138.cdx
  Mrv1902 05222410182D          

 37 38  0  0  0  0            999 V2000
    6.4672   -8.0971    0.0000 C   0  0  1  0  0  0  0  0  0  0  0  0
    6.4672   -8.9221    0.0000 C   0  0  2  0  0  0  0  0  0  0  0  0
    7.1817   -9.3346    0.0000 C   0  0  1  0  0  0  0  0  0  0  0  0
    7.8961   -8.9221    0.0000 O   0  0  0  0  0  0  0  0  0  0  0  0
    7.8961   -8.0971    0.0000 C   0  0  0  0  0  0  0  0  0  0  0  0
    7.1817   -7.6846    0.0000 C   0  0  0  0  0  0  0  0  0  0  0  0
    5.6826   -7.8421    0.0000 C   0  0  0  0  0  0  0  0  0  0  0  0
    5.1976   -8.5096    0.0000 C   0  0  1  0  0  0  0  0  0  0  0  0
    5.6826   -9.1770    0.0000 C   0  0  2  0  0  0  0  0  0  0  0  0
    6.4672   -7.2721    0.0000 O   0  0  0  0  0  0  0  0  0  0  0  0
    6.4672   -9.7471    0.0000 H   0  0  0  0  0  0  0  0  0  0  0  0
    5.0828   -9.8046    0.0000 C   0  0  0  0  0  0  0  0  0  0  0  0
    4.3726   -8.5096    0.0000 O   0  0  0  0  0  0  0  0  0  0  0  0
    5.8961   -9.9739    0.0000 O   0  0  0  0  0  0  0  0  0  0  0  0
    9.3058  -11.4299    0.0000 C   0  0  0  0  0  0  0  0  0  0  0  0
    8.5724  -12.6563    0.0000 C   0  0  0  0  0  0  0  0  0  0  0  0
    8.5851  -11.8314    0.0000 C   0  0  0  0  0  0  0  0  0  0  0  0
    7.8770  -11.4079    0.0000 C   0  0  0  0  0  0  0  0  0  0  0  0
    8.6104  -10.1816    0.0000 O   0  0  0  0  0  0  0  0  0  0  0  0
    7.8897  -10.5830    0.0000 C   0  0  0  0  0  0  0  0  0  0  0  0
    7.1817  -10.1596    0.0000 O   0  0  0  0  0  0  0  0  0  0  0  0
    7.1817   -6.8596    0.0000 C   0  0  0  0  0  0  0  0  0  0  0  0
   11.4751   -4.3961    0.0000 C   0  0  0  0  0  0  0  0  0  0  0  0
   12.1829   -5.6375    0.0000 C   0  0  0  0  0  0  0  0  0  0  0  0
   11.4707   -5.2211    0.0000 C   0  0  0  0  0  0  0  0  0  0  0  0
   10.7540   -5.6298    0.0000 C   0  0  0  0  0  0  0  0  0  0  0  0
   10.0462   -4.3884    0.0000 O   0  0  0  0  0  0  0  0  0  0  0  0
   10.0418   -5.2134    0.0000 C   0  0  0  0  0  0  0  0  0  0  0  0
    9.3251   -3.9721    0.0000 C   0  0  0  0  0  0  0  0  0  0  0  0
    7.8961   -3.9721    0.0000 C   0  0  0  0  0  0  0  0  0  0  0  0
    8.6106   -4.3846    0.0000 C   0  0  0  0  0  0  0  0  0  0  0  0
    9.3251   -5.6221    0.0000 O   0  0  0  0  0  0  0  0  0  0  0  0
    8.6106   -5.2096    0.0000 C   0  0  0  0  0  0  0  0  0  0  0  0
    7.1817   -5.2096    0.0000 O   0  0  0  0  0  0  0  0  0  0  0  0
    7.8961   -5.6221    0.0000 C   0  0  0  0  0  0  0  0  0  0  0  0
    7.8961   -6.4471    0.0000 O   0  0  0  0  0  0  0  0  0  0  0  0
    4.2578   -9.8046    0.0000 Cl  0  0  0  0  0  0  0  0  0  0  0  0
  1  2  1  0  0  0  0
  2  3  1  0  0  0  0
  3  4  1  0  0  0  0
  4  5  1  0  0  0  0
  5  6  2  0  0  0  0
  6  1  1  0  0  0  0
  1  7  1  0  0  0  0
  7  8  1  0  0  0  0
  8  9  1  0  0  0  0
  9  2  1  0  0  0  0
  1 10  1  1  0  0  0
  2 11  1  1  0  0  0
  9 12  1  1  0  0  0
  8 13  1  1  0  0  0
  9 14  1  6  0  0  0
 17 15  1  0  0  0  0
  3 21  1  1  0  0  0
 17 16  1  0  0  0  0
 18 17  1  0  0  0  0
 20 18  1  0  0  0  0
 20 19  2  0  0  0  0
 21 20  1  0  0  0  0
  6 22  1  0  0  0  0
 25 23  1  0  0  0  0
 22 36  1  0  0  0  0
 25 24  1  0  0  0  0
 26 25  1  0  0  0  0
 28 26  1  0  0  0  0
 28 27  2  0  0  0  0
 32 28  1  0  0  0  0
 31 29  1  0  0  0  0
 31 30  1  0  0  0  0
 33 31  1  0  0  0  0
 33 32  1  0  0  0  0
 35 33  1  0  0  0  0
 35 34  2  0  0  0  0
 36 35  1  0  0  0  0
 12 37  1  0  0  0  0
M  END
>  <cdx:fragmentId>
692

$$$$
