39137.cdx
  Mrv1902 05222410282D          

 23 23  0  0  0  0            999 V2000
    6.7631   -6.1229    0.0000 C   0  0  0  0  0  0  0  0  0  0  0  0
    7.4775   -5.7104    0.0000 C   0  0  0  0  0  0  0  0  0  0  0  0
    8.1920   -6.1229    0.0000 C   0  0  0  0  0  0  0  0  0  0  0  0
    8.1920   -6.9479    0.0000 C   0  0  2  0  0  0  0  0  0  0  0  0
    7.4775   -7.3604    0.0000 N   0  0  0  0  0  0  0  0  0  0  0  0
    7.4775   -4.8854    0.0000 C   0  0  0  0  0  0  0  0  0  0  0  0
    8.9065   -7.3604    0.0000 C   0  0  0  0  0  0  0  0  0  0  0  0
    9.6209   -6.9479    0.0000 O   0  0  0  0  0  0  0  0  0  0  0  0
    8.9065   -8.1854    0.0000 O   0  0  0  0  0  0  0  0  0  0  0  0
    7.4775   -8.1854    0.0000 C   0  0  0  0  0  0  0  0  0  0  0  0
    8.1920   -8.5979    0.0000 O   0  0  0  0  0  0  0  0  0  0  0  0
    2.9571   -8.8881    0.0000 C   0  0  0  0  0  0  0  0  0  0  0  0
    3.7417   -9.1430    0.0000 C   0  0  0  0  0  0  0  0  0  0  0  0
    4.3548   -8.5910    0.0000 C   0  0  0  0  0  0  0  0  0  0  0  0
    5.1395   -8.8459    0.0000 C   0  0  0  0  0  0  0  0  0  0  0  0
    5.3110   -9.6529    0.0000 C   0  0  0  0  0  0  0  0  0  0  0  0
    5.8656  -11.3599    0.0000 O   0  0  0  0  0  0  0  0  0  0  0  0
    6.0956   -9.9078    0.0000 C   0  0  0  0  0  0  0  0  0  0  0  0
    6.3506  -10.6925    0.0000 C   0  0  0  0  0  0  0  0  0  0  0  0
    7.1756  -10.6925    0.0000 C   0  0  0  0  0  0  0  0  0  0  0  0
    7.4305   -9.9078    0.0000 C   0  0  0  0  0  0  0  0  0  0  0  0
    6.7631   -9.4229    0.0000 C   0  0  0  0  0  0  0  0  0  0  0  0
    6.7631   -8.5979    0.0000 C   0  0  0  0  0  0  0  0  0  0  0  0
  1  2  1  0  0  0  0
  2  3  1  0  0  0  0
  3  4  1  0  0  0  0
  4  5  1  1  0  0  0
  2  6  1  0  0  0  0
  4  7  1  0  0  0  0
  7  8  1  0  0  0  0
  7  9  2  0  0  0  0
  5 10  1  0  0  0  0
 13 12  1  0  0  0  0
 10 23  1  0  0  0  0
 10 11  2  0  0  0  0
 14 13  1  0  0  0  0
 15 14  2  0  0  0  0
 16 15  1  0  0  0  0
 18 16  1  0  0  0  0
 19 17  2  0  0  0  0
 18 22  1  0  0  0  0
 19 18  1  0  0  0  0
 20 19  1  0  0  0  0
 21 20  1  0  0  0  0
 22 21  1  0  0  0  0
 23 22  1  0  0  0  0
M  END
>  <cdx:fragmentId>
5

$$$$
