39134.cdx
  Mrv1902 05222410272D          

 50 55  0  0  0  0            999 V2000
    5.9119   -7.1305    0.0000 O   0  0  0  0  0  0  0  0  0  0  0  0
    5.1981   -5.8926    0.0000 O   0  0  0  0  0  0  0  0  0  0  0  0
    5.9123   -6.3055    0.0000 C   0  0  2  0  0  0  0  0  0  0  0  0
    6.6270   -5.8934    0.0000 C   0  0  1  0  0  0  0  0  0  0  0  0
    6.6275   -5.0684    0.0000 C   0  0  2  0  0  0  0  0  0  0  0  0
    5.9132   -4.6555    0.0000 C   0  0  1  0  0  0  0  0  0  0  0  0
    5.1985   -5.0676    0.0000 C   0  0  0  0  0  0  0  0  0  0  0  0
    5.9136   -3.8305    0.0000 O   0  0  0  0  0  0  0  0  0  0  0  0
    7.3422   -4.6563    0.0000 O   0  0  0  0  0  0  0  0  0  0  0  0
    7.3413   -6.3063    0.0000 O   0  0  0  0  0  0  0  0  0  0  0  0
    5.1974  -10.8430    0.0000 O   0  0  0  0  0  0  0  0  0  0  0  0
    3.7685  -10.0180    0.0000 O   0  0  0  0  0  0  0  0  0  0  0  0
    3.0540   -8.7805    0.0000 O   0  0  0  0  0  0  0  0  0  0  0  0
    3.7685   -8.3680    0.0000 C   0  0  0  0  0  0  0  0  0  0  0  0
    8.0553  -10.8430    0.0000 O   0  0  0  0  0  0  0  0  0  0  0  0
    8.0553  -12.4930    0.0000 O   0  0  0  0  0  0  0  0  0  0  0  0
    6.6264  -13.3180    0.0000 O   0  0  0  0  0  0  0  0  0  0  0  0
    5.9119  -12.0805    0.0000 C   0  0  0  0  0  0  0  0  0  0  0  0
    6.6264  -12.4930    0.0000 C   0  0  1  0  0  0  0  0  0  0  0  0
    7.3408  -12.0805    0.0000 C   0  0  1  0  0  0  0  0  0  0  0  0
    7.3408  -11.2555    0.0000 C   0  0  2  0  0  0  0  0  0  0  0  0
    6.6264  -10.8430    0.0000 C   0  0  1  0  0  0  0  0  0  0  0  0
    5.9119  -11.2555    0.0000 O   0  0  0  0  0  0  0  0  0  0  0  0
    6.6264  -10.0180    0.0000 O   0  0  0  0  0  0  0  0  0  0  0  0
    4.4829   -8.7805    0.0000 C   0  0  2  0  0  0  0  0  0  0  0  0
    4.4829   -9.6055    0.0000 C   0  0  2  0  0  0  0  0  0  0  0  0
    5.1974  -10.0180    0.0000 C   0  0  1  0  0  0  0  0  0  0  0  0
    5.9119   -9.6055    0.0000 C   0  0  2  0  0  0  0  0  0  0  0  0
    5.9119   -8.7805    0.0000 C   0  0  1  0  0  0  0  0  0  0  0  0
    5.1974   -8.3680    0.0000 O   0  0  0  0  0  0  0  0  0  0  0  0
    7.3408   -9.6055    0.0000 O   0  0  0  0  0  0  0  0  0  0  0  0
   12.3421   -5.8930    0.0000 O   0  0  0  0  0  0  0  0  0  0  0  0
   10.1987   -6.3055    0.0000 C   0  0  0  0  0  0  0  0  0  0  0  0
   10.9132   -5.8930    0.0000 C   0  0  0  0  0  0  0  0  0  0  0  0
   11.6277   -6.3055    0.0000 C   0  0  0  0  0  0  0  0  0  0  0  0
   11.6277   -7.1305    0.0000 C   0  0  0  0  0  0  0  0  0  0  0  0
   10.9132   -7.5430    0.0000 C   0  0  0  0  0  0  0  0  0  0  0  0
   10.1987   -7.1305    0.0000 C   0  0  0  0  0  0  0  0  0  0  0  0
    8.7698   -9.6055    0.0000 O   0  0  0  0  0  0  0  0  0  0  0  0
    8.7698   -7.1305    0.0000 O   0  0  0  0  0  0  0  0  0  0  0  0
    8.0553   -7.5430    0.0000 C   0  0  0  0  0  0  0  0  0  0  0  0
    7.3408   -7.1305    0.0000 C   0  0  0  0  0  0  0  0  0  0  0  0
    6.6264   -7.5430    0.0000 C   0  0  0  0  0  0  0  0  0  0  0  0
    6.6264   -8.3680    0.0000 C   0  0  0  0  0  0  0  0  0  0  0  0
    7.3408   -8.7805    0.0000 C   0  0  0  0  0  0  0  0  0  0  0  0
    8.0553   -8.3680    0.0000 C   0  0  0  0  0  0  0  0  0  0  0  0
    8.7698   -8.7805    0.0000 C   0  0  0  0  0  0  0  0  0  0  0  0
    9.4842   -8.3680    0.0000 C   0  0  0  0  0  0  0  0  0  0  0  0
    9.4842   -7.5430    0.0000 C   0  0  0  0  0  0  0  0  0  0  0  0
    5.9119   -7.9555    0.0000 H   0  0  0  0  0  0  0  0  0  0  0  0
 29 44  1  0  0  0  0
 27 11  1  1  0  0  0
 26 12  1  6  0  0  0
 25 14  1  1  0  0  0
 14 13  1  0  0  0  0
 28 24  1  6  0  0  0
 22 24  1  1  0  0  0
 21 15  1  6  0  0  0
 20 16  1  1  0  0  0
 19 17  1  1  0  0  0
 23 18  1  0  0  0  0
 19 18  1  0  0  0  0
 20 19  1  0  0  0  0
 21 20  1  0  0  0  0
 22 21  1  0  0  0  0
 23 22  1  0  0  0  0
 30 25  1  0  0  0  0
 26 25  1  0  0  0  0
 27 26  1  0  0  0  0
 28 27  1  0  0  0  0
 29 28  1  0  0  0  0
 30 29  1  0  0  0  0
 45 31  1  0  0  0  0
 49 38  1  0  0  0  0
 35 32  1  0  0  0  0
 38 33  2  0  0  0  0
 34 33  1  0  0  0  0
 35 34  2  0  0  0  0
 36 35  1  0  0  0  0
 37 36  2  0  0  0  0
 38 37  1  0  0  0  0
 43  1  1  0  0  0  0
 47 39  2  0  0  0  0
 49 40  1  0  0  0  0
 41 40  1  0  0  0  0
 46 41  2  0  0  0  0
 42 41  1  0  0  0  0
 43 42  2  0  0  0  0
 44 43  1  0  0  0  0
 45 44  2  0  0  0  0
 46 45  1  0  0  0  0
 47 46  1  0  0  0  0
 48 47  1  0  0  0  0
 49 48  2  0  0  0  0
  2  3  1  0  0  0  0
  3  4  1  0  0  0  0
  4  5  1  0  0  0  0
  5  6  1  0  0  0  0
  6  7  1  0  0  0  0
  2  7  1  0  0  0  0
  6  8  1  1  0  0  0
  5  9  1  6  0  0  0
  4 10  1  1  0  0  0
  3  1  1  6  0  0  0
 29 50  1  6  0  0  0
M  END
>  <cdx:fragmentId>
29

$$$$
