39142.cdx
  Mrv1902 05222410252D          

 40 45  0  0  0  0            999 V2000
    4.7117   -8.6987    0.0000 C   0  0  0  0  0  0  0  0  0  0  0  0
    4.7117   -9.5209    0.0000 C   0  0  1  0  0  0  0  0  0  0  0  0
    5.4237   -9.9319    0.0000 C   0  0  1  0  0  0  0  0  0  0  0  0
    6.1357   -9.5209    0.0000 C   0  0  1  0  0  0  0  0  0  0  0  0
    6.1357   -8.6987    0.0000 C   0  0  2  0  0  0  0  0  0  0  0  0
    5.4237   -8.2877    0.0000 C   0  0  0  0  0  0  0  0  0  0  0  0
    6.8477   -9.9319    0.0000 C   0  0  0  0  0  0  0  0  0  0  0  0
    7.5597   -9.5209    0.0000 C   0  0  0  0  0  0  0  0  0  0  0  0
    7.5597   -8.6987    0.0000 C   0  0  2  0  0  0  0  0  0  0  0  0
    6.8477   -8.2877    0.0000 C   0  0  2  0  0  0  0  0  0  0  0  0
    8.2717   -8.2877    0.0000 C   0  0  1  0  0  0  0  0  0  0  0  0
    8.2717   -7.4655    0.0000 C   0  0  0  0  0  0  0  0  0  0  0  0
    7.5597   -7.0545    0.0000 C   0  0  0  0  0  0  0  0  0  0  0  0
    6.8477   -7.4655    0.0000 C   0  0  0  0  0  0  0  0  0  0  0  0
    8.9837   -8.6987    0.0000 C   0  0  0  0  0  0  0  0  0  0  0  0
    9.6956   -8.2877    0.0000 C   0  0  2  0  0  0  0  0  0  0  0  0
    9.6956   -7.4655    0.0000 C   0  0  2  0  0  0  0  0  0  0  0  0
    8.9837   -7.0545    0.0000 C   0  0  1  0  0  0  0  0  0  0  0  0
   10.4076   -7.0545    0.0000 C   0  0  0  0  0  0  0  0  0  0  0  0
   10.4076   -6.2323    0.0000 C   0  0  1  0  0  0  0  0  0  0  0  0
    9.6956   -5.8213    0.0000 C   0  0  1  0  0  0  0  0  0  0  0  0
    8.9837   -6.2323    0.0000 C   0  0  0  0  0  0  0  0  0  0  0  0
    3.9997   -9.9319    0.0000 O   0  0  0  0  0  0  0  0  0  0  0  0
    5.0126  -10.6439    0.0000 C   0  0  0  0  0  0  0  0  0  0  0  0
    6.1357   -7.8737    0.0000 C   0  0  0  0  0  0  0  0  0  0  0  0
    7.5597   -7.8737    0.0000 C   0  0  0  0  0  0  0  0  0  0  0  0
    8.9837   -7.8795    0.0000 H   0  0  0  0  0  0  0  0  0  0  0  0
    9.4050   -6.7925    0.0000 C   0  0  0  0  0  0  0  0  0  0  0  0
    9.6800   -6.3525    0.0000 O   0  0  0  0  0  0  0  0  0  0  0  0
    9.3656   -5.1366    0.0000 C   0  0  0  0  0  0  0  0  0  0  0  0
    8.5800   -6.7925    0.0000 O   0  0  0  0  0  0  0  0  0  0  0  0
    5.8348  -10.6439    0.0000 C   0  0  0  0  0  0  0  0  0  0  0  0
    6.8477   -9.1127    0.0000 H   0  0  0  0  0  0  0  0  0  0  0  0
    8.2717   -9.1127    0.0000 C   0  0  0  0  0  0  0  0  0  0  0  0
   10.1081   -5.1068    0.0000 C   0  0  0  0  0  0  0  0  0  0  0  0
   10.4076   -8.6987    0.0000 O   0  0  0  0  0  0  0  0  0  0  0  0
    6.1357  -10.3430    0.0000 H   0  0  0  0  0  0  0  0  0  0  0  0
    8.6537   -4.7256    0.0000 C   0  0  0  0  0  0  0  0  0  0  0  0
    8.6537   -3.9034    0.0000 O   0  0  0  0  0  0  0  0  0  0  0  0
    7.9417   -5.1366    0.0000 O   0  0  0  0  0  0  0  0  0  0  0  0
  1  2  1  0  0  0  0
  2  3  1  0  0  0  0
  3  4  1  0  0  0  0
  4  5  1  0  0  0  0
  5  6  1  0  0  0  0
  6  1  1  0  0  0  0
  4  7  1  0  0  0  0
  7  8  1  0  0  0  0
  8  9  1  0  0  0  0
  9 10  1  0  0  0  0
 10  5  1  0  0  0  0
  9 11  1  0  0  0  0
 11 12  1  0  0  0  0
 12 13  2  0  0  0  0
 13 14  1  0  0  0  0
 14 10  1  0  0  0  0
 11 15  1  0  0  0  0
 15 16  1  0  0  0  0
 16 17  1  0  0  0  0
 17 18  1  0  0  0  0
 18 12  1  0  0  0  0
 17 19  1  0  0  0  0
 19 20  1  0  0  0  0
 20 21  1  0  0  0  0
 21 22  1  0  0  0  0
 22 18  1  0  0  0  0
  2 23  1  1  0  0  0
  3 24  1  1  0  0  0
  5 25  1  1  0  0  0
  9 26  1  1  0  0  0
 18 27  1  1  0  0  0
 17 28  1  1  0  0  0
 20 29  1  1  0  0  0
 21 30  1  1  0  0  0
 29 28  1  0  0  0  0
 28 31  2  0  0  0  0
  3 32  1  6  0  0  0
 10 33  1  6  0  0  0
 11 34  1  6  0  0  0
 21 35  1  6  0  0  0
 16 36  1  6  0  0  0
  4 37  1  6  0  0  0
 30 38  1  0  0  0  0
 38 39  2  0  0  0  0
 38 40  1  0  0  0  0
M  END
>  <cdx:fragmentId>
407

$$$$
