39148.cdx
  Mrv1902 05222410232D          

 46 50  0  0  0  0            999 V2000
   10.3802   -9.6024    0.0000 O   0  0  0  0  0  0  0  0  0  0  0  0
    8.9512  -10.4274    0.0000 O   0  0  0  0  0  0  0  0  0  0  0  0
    7.5223   -9.6024    0.0000 C   0  0  0  0  0  0  0  0  0  0  0  0
   10.3802   -7.9524    0.0000 O   0  0  0  0  0  0  0  0  0  0  0  0
    8.2368   -9.1899    0.0000 C   0  0  0  0  0  0  0  0  0  0  0  0
    8.9512   -9.6024    0.0000 C   0  0  0  0  0  0  0  0  0  0  0  0
    9.6657   -9.1899    0.0000 C   0  0  0  0  0  0  0  0  0  0  0  0
    9.6657   -8.3649    0.0000 C   0  0  0  0  0  0  0  0  0  0  0  0
    8.9512   -7.9524    0.0000 C   0  0  0  0  0  0  0  0  0  0  0  0
    8.2368   -8.3649    0.0000 O   0  0  0  0  0  0  0  0  0  0  0  0
    8.9512   -7.1274    0.0000 O   0  0  0  0  0  0  0  0  0  0  0  0
    6.0934   -7.9524    0.0000 O   0  0  0  0  0  0  0  0  0  0  0  0
    4.6644   -5.4774    0.0000 O   0  0  0  0  0  0  0  0  0  0  0  0
   11.0947   -4.2399    0.0000 O   0  0  0  0  0  0  0  0  0  0  0  0
    8.9512   -4.6524    0.0000 C   0  0  0  0  0  0  0  0  0  0  0  0
    9.6657   -4.2399    0.0000 C   0  0  0  0  0  0  0  0  0  0  0  0
   10.3802   -4.6524    0.0000 C   0  0  0  0  0  0  0  0  0  0  0  0
   10.3802   -5.4774    0.0000 C   0  0  0  0  0  0  0  0  0  0  0  0
    9.6657   -5.8899    0.0000 C   0  0  0  0  0  0  0  0  0  0  0  0
    8.9512   -5.4774    0.0000 C   0  0  0  0  0  0  0  0  0  0  0  0
    7.5223   -7.9524    0.0000 O   0  0  0  0  0  0  0  0  0  0  0  0
    7.5223   -5.4774    0.0000 O   0  0  0  0  0  0  0  0  0  0  0  0
    6.8078   -5.8899    0.0000 C   0  0  0  0  0  0  0  0  0  0  0  0
    6.0934   -5.4774    0.0000 C   0  0  0  0  0  0  0  0  0  0  0  0
    5.3789   -5.8899    0.0000 C   0  0  0  0  0  0  0  0  0  0  0  0
    5.3789   -6.7149    0.0000 C   0  0  0  0  0  0  0  0  0  0  0  0
    6.0934   -7.1274    0.0000 C   0  0  0  0  0  0  0  0  0  0  0  0
    6.8078   -6.7149    0.0000 C   0  0  0  0  0  0  0  0  0  0  0  0
    7.5223   -7.1274    0.0000 C   0  0  0  0  0  0  0  0  0  0  0  0
    8.2368   -6.7149    0.0000 C   0  0  0  0  0  0  0  0  0  0  0  0
    8.2368   -5.8899    0.0000 C   0  0  0  0  0  0  0  0  0  0  0  0
    7.5223  -10.4274    0.0000 O   0  0  0  0  0  0  0  0  0  0  0  0
    6.8078  -10.8399    0.0000 C   0  0  0  0  0  0  0  0  0  0  0  0
    6.0920  -10.4297    0.0000 C   0  0  0  0  0  0  0  0  0  0  0  0
    6.8092  -11.6655    0.0000 O   0  0  0  0  0  0  0  0  0  0  0  0
    3.9500   -5.8899    0.0000 C   0  0  0  0  0  0  0  0  0  0  0  0
    3.2355   -5.4774    0.0000 O   0  0  0  0  0  0  0  0  0  0  0  0
    2.5210   -5.8899    0.0000 C   0  0  0  0  0  0  0  0  0  0  0  0
    2.5210   -6.7149    0.0000 C   0  0  0  0  0  0  0  0  0  0  0  0
    3.2355   -7.1274    0.0000 C   0  0  0  0  0  0  0  0  0  0  0  0
    3.9500   -6.7149    0.0000 C   0  0  0  0  0  0  0  0  0  0  0  0
    1.8065   -5.4774    0.0000 C   0  0  0  0  0  0  0  0  0  0  0  0
    1.0921   -5.8899    0.0000 O   0  0  0  0  0  0  0  0  0  0  0  0
    1.8065   -7.1274    0.0000 O   0  0  0  0  0  0  0  0  0  0  0  0
    3.2355   -7.9524    0.0000 O   0  0  0  0  0  0  0  0  0  0  0  0
    4.6644   -7.1274    0.0000 O   0  0  0  0  0  0  0  0  0  0  0  0
 30 11  1  0  0  0  0
  9 11  1  0  0  0  0
  7  1  1  0  0  0  0
  6  2  1  0  0  0  0
  5  3  1  0  0  0  0
  3 32  1  0  0  0  0
  8  4  1  0  0  0  0
 10  5  1  0  0  0  0
  6  5  1  0  0  0  0
  7  6  1  0  0  0  0
  8  7  1  0  0  0  0
  9  8  1  0  0  0  0
 10  9  1  0  0  0  0
 27 12  1  0  0  0  0
 25 13  1  0  0  0  0
 31 20  1  0  0  0  0
 17 14  1  0  0  0  0
 20 15  2  0  0  0  0
 16 15  1  0  0  0  0
 17 16  2  0  0  0  0
 18 17  1  0  0  0  0
 19 18  2  0  0  0  0
 20 19  1  0  0  0  0
 29 21  2  0  0  0  0
 31 22  1  0  0  0  0
 23 22  1  0  0  0  0
 28 23  2  0  0  0  0
 24 23  1  0  0  0  0
 25 24  2  0  0  0  0
 26 25  1  0  0  0  0
 27 26  2  0  0  0  0
 28 27  1  0  0  0  0
 29 28  1  0  0  0  0
 30 29  1  0  0  0  0
 31 30  2  0  0  0  0
 32 33  1  0  0  0  0
 33 34  1  0  0  0  0
 33 35  2  0  0  0  0
 13 36  1  0  0  0  0
 36 37  1  0  0  0  0
 37 38  1  0  0  0  0
 38 39  1  0  0  0  0
 39 40  1  0  0  0  0
 40 41  1  0  0  0  0
 41 36  1  0  0  0  0
 38 42  1  0  0  0  0
 42 43  1  0  0  0  0
 39 44  1  0  0  0  0
 40 45  1  0  0  0  0
 41 46  1  0  0  0  0
M  END
>  <cdx:groupId>
138

>  <cdx:fragmentId>
5

$$$$
