1640.cdx
  Mrv1902 05222410252D          

 27 32  0  0  0  0            999 V2000
    6.8486   -8.6865    0.0000 N   0  0  0  0  0  0  0  0  0  0  0  0
    7.1035   -9.4711    0.0000 C   0  0  0  0  0  0  0  0  0  0  0  0
    7.3335   -8.0190    0.0000 C   0  0  1  0  0  0  0  0  0  0  0  0
    7.7460   -8.7335    0.0000 H   0  0  0  0  0  0  0  0  0  0  0  0
    8.1540   -7.9328    0.0000 C   0  0  2  0  0  0  0  0  0  0  0  0
    8.6389   -8.6002    0.0000 H   0  0  0  0  0  0  0  0  0  0  0  0
    7.9752   -7.0643    0.0000 C   0  0  0  0  0  0  0  0  0  0  0  0
    9.1606   -5.6718    0.0000 C   0  0  1  0  0  0  0  0  0  0  0  0
    9.6456   -6.3392    0.0000 C   0  0  2  0  0  0  0  0  0  0  0  0
   10.4660   -6.2530    0.0000 C   0  0  0  0  0  0  0  0  0  0  0  0
   10.9510   -6.9204    0.0000 C   0  0  0  0  0  0  0  0  0  0  0  0
    9.3100   -7.0929    0.0000 C   0  0  1  0  0  0  0  0  0  0  0  0
    9.7949   -7.7603    0.0000 O   0  0  0  0  0  0  0  0  0  0  0  0
    8.4895   -7.1791    0.0000 N   0  0  0  0  0  0  0  0  0  0  0  0
    8.0046   -6.5117    0.0000 C   0  0  2  0  0  0  0  0  0  0  0  0
    8.3402   -5.7580    0.0000 C   0  0  1  0  0  0  0  0  0  0  0  0
    7.1841   -6.5979    0.0000 C   0  0  0  0  0  0  0  0  0  0  0  0
    6.8486   -7.3516    0.0000 C   0  0  2  0  0  0  0  0  0  0  0  0
    7.1026   -6.0939    0.0000 C   0  0  2  0  0  0  0  0  0  0  0  0
    6.5003   -5.5301    0.0000 O   0  0  0  0  0  0  0  0  0  0  0  0
    6.0639   -7.6065    0.0000 C   0  0  0  0  0  0  0  0  0  0  0  0
    5.3495   -7.1940    0.0000 C   0  0  0  0  0  0  0  0  0  0  0  0
    4.6350   -7.6065    0.0000 C   0  0  0  0  0  0  0  0  0  0  0  0
    4.6350   -8.4315    0.0000 C   0  0  0  0  0  0  0  0  0  0  0  0
    5.3495   -8.8440    0.0000 C   0  0  0  0  0  0  0  0  0  0  0  0
    6.0639   -8.4315    0.0000 C   0  0  0  0  0  0  0  0  0  0  0  0
    7.9105   -9.6426    0.0000 O   0  0  0  0  0  0  0  0  0  0  0  0
  1  2  1  0  0  0  0
  1  3  1  0  0  0  0
  3  4  1  1  0  0  0
  3  5  1  0  0  0  0
  5  6  1  0  0  0  0
  5  7  1  1  0  0  0
  8  7  1  1  0  0  0
  8  9  1  0  0  0  0
  9 10  1  6  0  0  0
 10 11  1  0  0  0  0
  9 12  1  0  0  0  0
 12 13  1  1  0  0  0
 12 14  1  0  0  0  0
  5 14  1  0  0  0  0
 14 15  1  0  0  0  0
 15 16  1  0  0  0  0
  8 16  1  0  0  0  0
 15 17  1  1  0  0  0
 18 17  1  6  0  0  0
  3 18  1  0  0  0  0
 18 19  1  0  0  0  0
 19 20  1  6  0  0  0
 16 19  1  1  0  0  0
 18 21  1  0  0  0  0
 21 22  1  0  0  0  0
 22 23  2  0  0  0  0
 23 24  1  0  0  0  0
 24 25  2  0  0  0  0
 25 26  1  0  0  0  0
 21 26  2  0  0  0  0
  1 26  1  0  0  0  0
  2 27  1  0  0  0  0
M  END
>  <cdx:groupId>
88

>  <cdx:fragmentId>
5

$$$$
