1645.cdx
  Mrv1902 05222410232D          

 56 61  0  0  0  0            999 V2000
   13.3024   -6.1443    0.0000 C   0  0  0  0  0  0  0  0  0  0  0  0
   14.0144   -6.5554    0.0000 C   0  0  0  0  0  0  0  0  0  0  0  0
   14.7264   -6.1443    0.0000 C   0  0  0  0  0  0  0  0  0  0  0  0
   14.7264   -5.3222    0.0000 C   0  0  0  0  0  0  0  0  0  0  0  0
   14.0144   -4.9111    0.0000 C   0  0  0  0  0  0  0  0  0  0  0  0
   13.3024   -5.3222    0.0000 C   0  0  0  0  0  0  0  0  0  0  0  0
   15.4384   -6.5554    0.0000 C   0  0  0  0  0  0  0  0  0  0  0  0
   16.1504   -6.1443    0.0000 C   0  0  0  0  0  0  0  0  0  0  0  0
   16.1504   -5.3222    0.0000 C   0  0  0  0  0  0  0  0  0  0  0  0
   15.4384   -4.9111    0.0000 O   0  0  0  0  0  0  0  0  0  0  0  0
   14.0144   -7.3775    0.0000 O   0  0  0  0  0  0  0  0  0  0  0  0
   15.4384   -7.3775    0.0000 O   0  0  0  0  0  0  0  0  0  0  0  0
   16.8624   -4.9111    0.0000 C   0  0  0  0  0  0  0  0  0  0  0  0
   17.5744   -5.3222    0.0000 C   0  0  0  0  0  0  0  0  0  0  0  0
   18.2864   -4.9111    0.0000 C   0  0  0  0  0  0  0  0  0  0  0  0
   18.2864   -4.0890    0.0000 C   0  0  0  0  0  0  0  0  0  0  0  0
   17.5744   -3.6779    0.0000 C   0  0  0  0  0  0  0  0  0  0  0  0
   16.8624   -4.0890    0.0000 C   0  0  0  0  0  0  0  0  0  0  0  0
   18.9984   -3.6779    0.0000 O   0  0  0  0  0  0  0  0  0  0  0  0
   16.1504   -8.6107    0.0000 C   0  0  1  0  0  0  0  0  0  0  0  0
   16.8624   -9.0218    0.0000 C   0  0  1  0  0  0  0  0  0  0  0  0
   17.5744   -8.6107    0.0000 C   0  0  0  0  0  0  0  0  0  0  0  0
   17.5744   -7.7886    0.0000 C   0  0  0  0  0  0  0  0  0  0  0  0
   16.8624   -7.3775    0.0000 C   0  0  2  0  0  0  0  0  0  0  0  0
   16.1504   -7.7886    0.0000 O   0  0  0  0  0  0  0  0  0  0  0  0
   13.3024  -10.2550    0.0000 C   0  0  2  0  0  0  0  0  0  0  0  0
   13.3024  -11.0771    0.0000 C   0  0  2  0  0  0  0  0  0  0  0  0
   14.0144  -11.4882    0.0000 C   0  0  0  0  0  0  0  0  0  0  0  0
   14.7264  -11.0771    0.0000 C   0  0  0  0  0  0  0  0  0  0  0  0
   14.7264  -10.2550    0.0000 C   0  0  2  0  0  0  0  0  0  0  0  0
   14.0144   -9.8439    0.0000 O   0  0  0  0  0  0  0  0  0  0  0  0
   18.2864   -7.3775    0.0000 O   0  0  0  0  0  0  0  0  0  0  0  0
   18.2864   -9.0218    0.0000 O   0  0  0  0  0  0  0  0  0  0  0  0
   16.8624   -9.8439    0.0000 O   0  0  0  0  0  0  0  0  0  0  0  0
   15.4384  -11.4882    0.0000 O   0  0  0  0  0  0  0  0  0  0  0  0
   14.0144  -12.3103    0.0000 O   0  0  0  0  0  0  0  0  0  0  0  0
   12.5904  -11.4882    0.0000 O   0  0  0  0  0  0  0  0  0  0  0  0
   12.5904   -9.8439    0.0000 C   0  0  0  0  0  0  0  0  0  0  0  0
   16.8624   -6.5554    0.0000 O   0  0  0  0  0  0  0  0  0  0  0  0
   15.4384   -9.0218    0.0000 C   0  0  0  0  0  0  0  0  0  0  0  0
   15.4384   -9.8439    0.0000 O   0  0  0  0  0  0  0  0  0  0  0  0
   12.5904   -4.9111    0.0000 O   0  0  0  0  0  0  0  0  0  0  0  0
   11.8784   -5.3222    0.0000 C   0  0  0  0  0  0  0  0  0  0  0  0
   11.8784   -6.1443    0.0000 C   0  0  1  0  0  0  0  0  0  0  0  0
   11.1665   -6.5554    0.0000 C   0  0  0  0  0  0  0  0  0  0  0  0
   10.4545   -6.1443    0.0000 C   0  0  0  0  0  0  0  0  0  0  0  0
   10.4545   -5.3222    0.0000 C   0  0  1  0  0  0  0  0  0  0  0  0
   11.1665   -4.9111    0.0000 O   0  0  0  0  0  0  0  0  0  0  0  0
   11.1665   -7.3775    0.0000 O   0  0  0  0  0  0  0  0  0  0  0  0
    9.7425   -4.9111    0.0000 C   0  0  0  0  0  0  0  0  0  0  0  0
    9.7425   -6.5554    0.0000 O   0  0  0  0  0  0  0  0  0  0  0  0
   12.5904   -6.5554    0.0000 O   0  0  0  0  0  0  0  0  0  0  0  0
    9.7425   -7.3775    0.0000 C   0  0  0  0  0  0  0  0  0  0  0  0
    9.0305   -7.7886    0.0000 C   0  0  0  0  0  0  0  0  0  0  0  0
   10.4545   -7.7886    0.0000 O   0  0  0  0  0  0  0  0  0  0  0  0
   19.7103   -4.0890    0.0000 C   0  0  0  0  0  0  0  0  0  0  0  0
  1  2  2  0  0  0  0
  2  3  1  0  0  0  0
  3  4  2  0  0  0  0
  4  5  1  0  0  0  0
  5  6  2  0  0  0  0
  1  6  1  0  0  0  0
  3  7  1  0  0  0  0
  7  8  1  0  0  0  0
  8  9  2  0  0  0  0
  9 10  1  0  0  0  0
  4 10  1  0  0  0  0
  2 11  1  0  0  0  0
  7 12  2  0  0  0  0
  9 13  1  0  0  0  0
 13 14  2  0  0  0  0
 14 15  1  0  0  0  0
 15 16  2  0  0  0  0
 16 17  1  0  0  0  0
 17 18  2  0  0  0  0
 13 18  1  0  0  0  0
 16 19  1  0  0  0  0
 20 21  1  0  0  0  0
 21 22  1  0  0  0  0
 22 23  1  0  0  0  0
 24 23  1  0  0  0  0
 24 25  1  0  0  0  0
 20 25  1  0  0  0  0
 26 27  1  0  0  0  0
 27 28  1  0  0  0  0
 28 29  1  0  0  0  0
 30 29  1  0  0  0  0
 30 31  1  0  0  0  0
 26 31  1  0  0  0  0
 23 32  1  1  0  0  0
 22 33  1  0  0  0  0
 21 34  1  1  0  0  0
 29 35  1  1  0  0  0
 28 36  1  1  0  0  0
 27 37  1  6  0  0  0
 26 38  1  1  0  0  0
 24 39  1  6  0  0  0
 20 40  1  6  0  0  0
 40 41  1  0  0  0  0
 30 41  1  6  0  0  0
  6 42  1  0  0  0  0
  8 39  1  0  0  0  0
 43 44  1  0  0  0  0
 44 45  1  0  0  0  0
 45 46  1  0  0  0  0
 47 46  1  0  0  0  0
 47 48  1  0  0  0  0
 43 48  1  0  0  0  0
 45 49  1  1  0  0  0
 42 43  1  0  0  0  0
 47 50  1  6  0  0  0
 46 51  1  0  0  0  0
 44 52  1  6  0  0  0
 51 53  1  0  0  0  0
 53 54  1  0  0  0  0
 53 55  2  0  0  0  0
 19 56  1  0  0  0  0
M  END
>  <cdx:fragmentId>
139

$$$$
