1653.cdx
  Mrv1902 05222410242D          

 58 63  0  0  0  0            999 V2000
   10.2377   -9.5554    0.0000 O   0  0  0  0  0  0  0  0  0  0  0  0
    8.8138   -9.5554    0.0000 C   0  0  0  0  0  0  0  0  0  0  0  0
    9.5258   -9.9664    0.0000 C   0  0  0  0  0  0  0  0  0  0  0  0
    9.5258  -10.7886    0.0000 C   0  0  0  0  0  0  0  0  0  0  0  0
    8.8138  -11.1996    0.0000 C   0  0  0  0  0  0  0  0  0  0  0  0
    8.8138  -12.0218    0.0000 C   0  0  0  0  0  0  0  0  0  0  0  0
    8.1018  -12.4328    0.0000 C   0  0  0  0  0  0  0  0  0  0  0  0
    7.3898  -12.0218    0.0000 C   0  0  0  0  0  0  0  0  0  0  0  0
    7.3898  -11.1996    0.0000 C   0  0  0  0  0  0  0  0  0  0  0  0
    8.1018  -10.7886    0.0000 C   0  0  0  0  0  0  0  0  0  0  0  0
    8.1018   -9.9664    0.0000 O   0  0  0  0  0  0  0  0  0  0  0  0
   10.2377  -11.1996    0.0000 O   0  0  0  0  0  0  0  0  0  0  0  0
    8.8138   -8.7332    0.0000 C   0  0  0  0  0  0  0  0  0  0  0  0
    9.5258   -8.3222    0.0000 C   0  0  0  0  0  0  0  0  0  0  0  0
    9.5258   -7.5000    0.0000 C   0  0  0  0  0  0  0  0  0  0  0  0
    8.8138   -7.0889    0.0000 C   0  0  0  0  0  0  0  0  0  0  0  0
    8.1018   -7.5000    0.0000 C   0  0  0  0  0  0  0  0  0  0  0  0
    8.1018   -8.3222    0.0000 C   0  0  0  0  0  0  0  0  0  0  0  0
    8.8138   -6.2668    0.0000 O   0  0  0  0  0  0  0  0  0  0  0  0
    6.6778  -12.4328    0.0000 O   0  0  0  0  0  0  0  0  0  0  0  0
    9.5258  -12.4328    0.0000 O   0  0  0  0  0  0  0  0  0  0  0  0
   10.9497  -10.7886    0.0000 O   0  0  0  0  0  0  0  0  0  0  0  0
   11.6617  -11.1996    0.0000 C   0  0  1  0  0  0  0  0  0  0  0  0
   12.3737  -10.7886    0.0000 C   0  0  1  0  0  0  0  0  0  0  0  0
   12.3737   -9.9664    0.0000 C   0  0  1  0  0  0  0  0  0  0  0  0
   11.6617   -9.5554    0.0000 C   0  0  2  0  0  0  0  0  0  0  0  0
   10.9497   -9.9664    0.0000 C   0  0  2  0  0  0  0  0  0  0  0  0
   11.6617  -12.0218    0.0000 C   0  0  0  0  0  0  0  0  0  0  0  0
   12.3737  -12.4328    0.0000 O   0  0  0  0  0  0  0  0  0  0  0  0
   11.6617  -13.6660    0.0000 O   0  0  0  0  0  0  0  0  0  0  0  0
   11.6617  -14.4882    0.0000 C   0  0  2  0  0  0  0  0  0  0  0  0
   12.3737  -14.8992    0.0000 C   0  0  1  0  0  0  0  0  0  0  0  0
   13.0857  -14.4882    0.0000 C   0  0  2  0  0  0  0  0  0  0  0  0
   13.0857  -13.6660    0.0000 C   0  0  2  0  0  0  0  0  0  0  0  0
   12.3737  -13.2550    0.0000 C   0  0  2  0  0  0  0  0  0  0  0  0
   13.7977  -14.8992    0.0000 O   0  0  0  0  0  0  0  0  0  0  0  0
   14.5097  -13.6660    0.0000 O   0  0  0  0  0  0  0  0  0  0  0  0
   15.2217  -13.2550    0.0000 C   0  0  0  0  0  0  0  0  0  0  0  0
   15.9337  -13.6660    0.0000 C   0  0  1  0  0  0  0  0  0  0  0  0
   15.9337  -14.4882    0.0000 C   0  0  2  0  0  0  0  0  0  0  0  0
   15.2217  -14.8992    0.0000 C   0  0  2  0  0  0  0  0  0  0  0  0
   14.5097  -14.4882    0.0000 C   0  0  2  0  0  0  0  0  0  0  0  0
   11.6617   -8.7332    0.0000 O   0  0  0  0  0  0  0  0  0  0  0  0
   13.0857   -9.5554    0.0000 O   0  0  0  0  0  0  0  0  0  0  0  0
   13.0857  -11.1996    0.0000 O   0  0  0  0  0  0  0  0  0  0  0  0
   13.7977  -13.2550    0.0000 O   0  0  0  0  0  0  0  0  0  0  0  0
   10.9497  -14.8992    0.0000 C   0  0  0  0  0  0  0  0  0  0  0  0
   12.3737  -15.7214    0.0000 O   0  0  0  0  0  0  0  0  0  0  0  0
   13.0857  -16.1324    0.0000 C   0  0  0  0  0  0  0  0  0  0  0  0
   13.7977  -15.7214    0.0000 C   0  0  0  0  0  0  0  0  0  0  0  0
   13.0857  -16.9546    0.0000 O   0  0  0  0  0  0  0  0  0  0  0  0
   15.2217  -15.7214    0.0000 O   0  0  0  0  0  0  0  0  0  0  0  0
   15.9337  -16.1324    0.0000 C   0  0  0  0  0  0  0  0  0  0  0  0
   16.6457  -15.7214    0.0000 C   0  0  0  0  0  0  0  0  0  0  0  0
   15.9337  -16.9546    0.0000 O   0  0  0  0  0  0  0  0  0  0  0  0
   16.6457  -14.8992    0.0000 O   0  0  0  0  0  0  0  0  0  0  0  0
   16.6457  -13.2550    0.0000 O   0  0  0  0  0  0  0  0  0  0  0  0
   15.2217  -12.4328    0.0000 C   0  0  0  0  0  0  0  0  0  0  0  0
  2  3  2  0  0  0  0
  3  4  1  0  0  0  0
  4  5  1  0  0  0  0
  5  6  1  0  0  0  0
  6  7  2  0  0  0  0
  7  8  1  0  0  0  0
  8  9  2  0  0  0  0
  9 10  1  0  0  0  0
  5 10  2  0  0  0  0
 10 11  1  0  0  0  0
  2 11  1  0  0  0  0
  4 12  2  0  0  0  0
 13 14  1  0  0  0  0
 14 15  2  0  0  0  0
 15 16  1  0  0  0  0
 16 17  2  0  0  0  0
 17 18  1  0  0  0  0
 13 18  2  0  0  0  0
 16 19  1  0  0  0  0
  2 13  1  0  0  0  0
  8 20  1  0  0  0  0
  6 21  1  0  0  0  0
  1  3  1  0  0  0  0
 22 27  1  0  0  0  0
 27  1  1  1  0  0  0
 23 22  1  0  0  0  0
 24 23  1  0  0  0  0
 25 24  1  0  0  0  0
 26 25  1  0  0  0  0
 27 26  1  0  0  0  0
 23 28  1  1  0  0  0
 28 29  1  0  0  0  0
 30 35  1  0  0  0  0
 35 29  1  1  0  0  0
 31 30  1  0  0  0  0
 32 31  1  0  0  0  0
 33 32  1  0  0  0  0
 34 33  1  0  0  0  0
 35 34  1  0  0  0  0
 33 36  1  6  0  0  0
 37 42  1  0  0  0  0
 42 36  1  6  0  0  0
 38 37  1  0  0  0  0
 39 38  1  0  0  0  0
 40 39  1  0  0  0  0
 41 40  1  0  0  0  0
 42 41  1  0  0  0  0
 26 43  1  6  0  0  0
 25 44  1  1  0  0  0
 24 45  1  1  0  0  0
 34 46  1  6  0  0  0
 31 47  1  6  0  0  0
 32 48  1  1  0  0  0
 48 49  1  0  0  0  0
 49 50  1  0  0  0  0
 49 51  2  0  0  0  0
 41 52  1  1  0  0  0
 52 53  1  0  0  0  0
 53 54  1  0  0  0  0
 53 55  2  0  0  0  0
 40 56  1  1  0  0  0
 39 57  1  6  0  0  0
 38 58  1  0  0  0  0
M  END
>  <cdx:groupId>
499

>  <cdx:fragmentId>
421

$$$$
