39157.cdx
  Mrv1902 05222410252D          

 46 50  0  0  0  0            999 V2000
   12.4427   -9.8224    0.0000 O   0  0  0  0  0  0  0  0  0  0  0  0
   11.0137  -10.6474    0.0000 O   0  0  0  0  0  0  0  0  0  0  0  0
    9.5848   -9.8224    0.0000 C   0  0  0  0  0  0  0  0  0  0  0  0
   12.4427   -8.1724    0.0000 O   0  0  0  0  0  0  0  0  0  0  0  0
   10.2993   -9.4099    0.0000 C   0  0  0  0  0  0  0  0  0  0  0  0
   11.0137   -9.8224    0.0000 C   0  0  0  0  0  0  0  0  0  0  0  0
   11.7282   -9.4099    0.0000 C   0  0  0  0  0  0  0  0  0  0  0  0
   11.7282   -8.5849    0.0000 C   0  0  0  0  0  0  0  0  0  0  0  0
   11.0137   -8.1724    0.0000 C   0  0  0  0  0  0  0  0  0  0  0  0
   10.2993   -8.5849    0.0000 O   0  0  0  0  0  0  0  0  0  0  0  0
   11.0137   -7.3474    0.0000 O   0  0  0  0  0  0  0  0  0  0  0  0
    8.1559   -8.1724    0.0000 O   0  0  0  0  0  0  0  0  0  0  0  0
    6.7269   -5.6974    0.0000 O   0  0  0  0  0  0  0  0  0  0  0  0
   13.1572   -4.4599    0.0000 O   0  0  0  0  0  0  0  0  0  0  0  0
   11.0137   -4.8724    0.0000 C   0  0  0  0  0  0  0  0  0  0  0  0
   11.7282   -4.4599    0.0000 C   0  0  0  0  0  0  0  0  0  0  0  0
   12.4427   -4.8724    0.0000 C   0  0  0  0  0  0  0  0  0  0  0  0
   12.4427   -5.6974    0.0000 C   0  0  0  0  0  0  0  0  0  0  0  0
   11.7282   -6.1099    0.0000 C   0  0  0  0  0  0  0  0  0  0  0  0
   11.0137   -5.6974    0.0000 C   0  0  0  0  0  0  0  0  0  0  0  0
    9.5848   -8.1724    0.0000 O   0  0  0  0  0  0  0  0  0  0  0  0
    9.5848   -5.6974    0.0000 O   0  0  0  0  0  0  0  0  0  0  0  0
    8.8703   -6.1099    0.0000 C   0  0  0  0  0  0  0  0  0  0  0  0
    8.1559   -5.6974    0.0000 C   0  0  0  0  0  0  0  0  0  0  0  0
    7.4414   -6.1099    0.0000 C   0  0  0  0  0  0  0  0  0  0  0  0
    7.4414   -6.9349    0.0000 C   0  0  0  0  0  0  0  0  0  0  0  0
    8.1559   -7.3474    0.0000 C   0  0  0  0  0  0  0  0  0  0  0  0
    8.8703   -6.9349    0.0000 C   0  0  0  0  0  0  0  0  0  0  0  0
    9.5848   -7.3474    0.0000 C   0  0  0  0  0  0  0  0  0  0  0  0
   10.2993   -6.9349    0.0000 C   0  0  0  0  0  0  0  0  0  0  0  0
   10.2993   -6.1099    0.0000 C   0  0  0  0  0  0  0  0  0  0  0  0
    9.5848  -10.6474    0.0000 O   0  0  0  0  0  0  0  0  0  0  0  0
    6.0125   -6.1099    0.0000 C   0  0  0  0  0  0  0  0  0  0  0  0
    5.2980   -5.6974    0.0000 O   0  0  0  0  0  0  0  0  0  0  0  0
    4.5835   -6.1099    0.0000 C   0  0  0  0  0  0  0  0  0  0  0  0
    4.5835   -6.9349    0.0000 C   0  0  0  0  0  0  0  0  0  0  0  0
    5.2980   -7.3474    0.0000 C   0  0  0  0  0  0  0  0  0  0  0  0
    6.0125   -6.9349    0.0000 C   0  0  0  0  0  0  0  0  0  0  0  0
    3.8690   -5.6974    0.0000 C   0  0  0  0  0  0  0  0  0  0  0  0
    3.8690   -7.3474    0.0000 O   0  0  0  0  0  0  0  0  0  0  0  0
    5.2980   -8.1724    0.0000 O   0  0  0  0  0  0  0  0  0  0  0  0
    6.7269   -7.3474    0.0000 O   0  0  0  0  0  0  0  0  0  0  0  0
    3.1546   -6.1099    0.0000 O   0  0  0  0  0  0  0  0  0  0  0  0
    2.4401   -5.6974    0.0000 C   0  0  0  0  0  0  0  0  0  0  0  0
    2.4374   -4.8724    0.0000 C   0  0  0  0  0  0  0  0  0  0  0  0
    1.7258   -6.1114    0.0000 O   0  0  0  0  0  0  0  0  0  0  0  0
 30 11  1  0  0  0  0
  9 11  1  0  0  0  0
  7  1  1  0  0  0  0
  6  2  1  0  0  0  0
  5  3  1  0  0  0  0
  3 32  1  0  0  0  0
  8  4  1  0  0  0  0
 10  5  1  0  0  0  0
  6  5  1  0  0  0  0
  7  6  1  0  0  0  0
  8  7  1  0  0  0  0
  9  8  1  0  0  0  0
 10  9  1  0  0  0  0
 27 12  1  0  0  0  0
 25 13  1  0  0  0  0
 31 20  1  0  0  0  0
 17 14  1  0  0  0  0
 20 15  2  0  0  0  0
 16 15  1  0  0  0  0
 17 16  2  0  0  0  0
 18 17  1  0  0  0  0
 19 18  2  0  0  0  0
 20 19  1  0  0  0  0
 29 21  2  0  0  0  0
 31 22  1  0  0  0  0
 23 22  1  0  0  0  0
 28 23  2  0  0  0  0
 24 23  1  0  0  0  0
 25 24  2  0  0  0  0
 26 25  1  0  0  0  0
 27 26  2  0  0  0  0
 28 27  1  0  0  0  0
 29 28  1  0  0  0  0
 30 29  1  0  0  0  0
 31 30  2  0  0  0  0
 13 33  1  0  0  0  0
 33 34  1  0  0  0  0
 34 35  1  0  0  0  0
 35 36  1  0  0  0  0
 36 37  1  0  0  0  0
 37 38  1  0  0  0  0
 38 33  1  0  0  0  0
 35 39  1  0  0  0  0
 39 43  1  0  0  0  0
 36 40  1  0  0  0  0
 37 41  1  0  0  0  0
 38 42  1  0  0  0  0
 43 44  1  0  0  0  0
 44 45  1  0  0  0  0
 44 46  2  0  0  0  0
M  END
>  <cdx:groupId>
138

>  <cdx:fragmentId>
5

$$$$
