39167.cdx
  Mrv1902 05222410212D          

 43 47  0  0  0  0            999 V2000
    8.9732   -9.0491    0.0000 C   0  0  0  0  0  0  0  0  0  0  0  0
    8.9732   -9.8741    0.0000 C   0  0  0  0  0  0  0  0  0  0  0  0
    9.6877  -10.2866    0.0000 O   0  0  0  0  0  0  0  0  0  0  0  0
    8.2587  -10.2866    0.0000 C   0  0  0  0  0  0  0  0  0  0  0  0
    8.2587  -11.1116    0.0000 O   0  0  0  0  0  0  0  0  0  0  0  0
    7.5443   -9.8741    0.0000 C   0  0  0  0  0  0  0  0  0  0  0  0
    6.8298  -10.2866    0.0000 C   0  0  0  0  0  0  0  0  0  0  0  0
    6.8298  -11.1116    0.0000 O   0  0  0  0  0  0  0  0  0  0  0  0
    6.1153   -9.8741    0.0000 C   0  0  0  0  0  0  0  0  0  0  0  0
    6.1153   -9.0491    0.0000 C   0  0  0  0  0  0  0  0  0  0  0  0
    5.4009   -8.6366    0.0000 O   0  0  0  0  0  0  0  0  0  0  0  0
    6.8298   -8.6366    0.0000 C   0  0  0  0  0  0  0  0  0  0  0  0
    7.5443   -9.0491    0.0000 C   0  0  0  0  0  0  0  0  0  0  0  0
    8.2587   -8.6366    0.0000 O   0  0  0  0  0  0  0  0  0  0  0  0
    9.6877   -8.6366    0.0000 C   0  0  0  0  0  0  0  0  0  0  0  0
    9.6877   -7.8116    0.0000 C   0  0  0  0  0  0  0  0  0  0  0  0
   10.4022   -7.3991    0.0000 C   0  0  0  0  0  0  0  0  0  0  0  0
   11.1166   -7.8116    0.0000 C   0  0  0  0  0  0  0  0  0  0  0  0
   11.8311   -7.3991    0.0000 O   0  0  0  0  0  0  0  0  0  0  0  0
   11.1166   -8.6366    0.0000 C   0  0  0  0  0  0  0  0  0  0  0  0
   10.4022   -9.0491    0.0000 C   0  0  0  0  0  0  0  0  0  0  0  0
    8.2554   -5.3489    0.0000 O   0  0  0  0  0  0  0  0  0  0  0  0
    8.2563   -6.1739    0.0000 C   0  0  0  0  0  0  0  0  0  0  0  0
    7.5430   -7.4121    0.0000 O   0  0  0  0  0  0  0  0  0  0  0  0
    7.5422   -6.5871    0.0000 C   0  0  1  0  0  0  0  0  0  0  0  0
    6.8265   -5.3504    0.0000 O   0  0  0  0  0  0  0  0  0  0  0  0
    6.8273   -6.1754    0.0000 C   0  0  1  0  0  0  0  0  0  0  0  0
    5.3984   -6.1768    0.0000 O   0  0  0  0  0  0  0  0  0  0  0  0
    6.1133   -6.5886    0.0000 C   0  0  2  0  0  0  0  0  0  0  0  0
    5.4000   -7.8268    0.0000 O   0  0  0  0  0  0  0  0  0  0  0  0
    6.1141   -7.4136    0.0000 C   0  0  1  0  0  0  0  0  0  0  0  0
    6.8290   -7.8254    0.0000 C   0  0  2  0  0  0  0  0  0  0  0  0
    3.9787  -10.2660    0.0000 C   0  0  0  0  0  0  0  0  0  0  0  0
    3.9787  -11.0910    0.0000 C   0  0  2  0  0  0  0  0  0  0  0  0
    4.6931  -11.5035    0.0000 C   0  0  1  0  0  0  0  0  0  0  0  0
    5.4076  -11.0910    0.0000 C   0  0  2  0  0  0  0  0  0  0  0  0
    5.4076  -10.2660    0.0000 C   0  0  1  0  0  0  0  0  0  0  0  0
    4.6931   -9.8535    0.0000 O   0  0  0  0  0  0  0  0  0  0  0  0
    3.2642  -11.5035    0.0000 O   0  0  0  0  0  0  0  0  0  0  0  0
    6.1221  -11.5035    0.0000 O   0  0  0  0  0  0  0  0  0  0  0  0
    4.6931  -12.3285    0.0000 O   0  0  0  0  0  0  0  0  0  0  0  0
    5.4076   -9.4410    0.0000 H   0  0  0  0  0  0  0  0  0  0  0  0
    7.5434   -8.2379    0.0000 H   0  0  0  0  0  0  0  0  0  0  0  0
 32 24  1  0  0  0  0
 23 22  1  0  0  0  0
 25 23  1  1  0  0  0
 25 24  1  0  0  0  0
 27 25  1  0  0  0  0
 27 26  1  6  0  0  0
 29 27  1  0  0  0  0
 29 28  1  1  0  0  0
 31 29  1  0  0  0  0
 31 30  1  6  0  0  0
 32 31  1  0  0  0  0
  1  2  2  0  0  0  0
  2  3  1  0  0  0  0
  2  4  1  0  0  0  0
  4  5  2  0  0  0  0
  4  6  1  0  0  0  0
  6  7  1  0  0  0  0
  7  8  1  0  0  0  0
  7  9  2  0  0  0  0
  9 10  1  0  0  0  0
 10 11  1  0  0  0  0
 10 12  2  0  0  0  0
 12 13  1  0  0  0  0
  6 13  2  0  0  0  0
 13 14  1  0  0  0  0
  1 14  1  0  0  0  0
  1 15  1  0  0  0  0
 15 16  1  0  0  0  0
 16 17  2  0  0  0  0
 17 18  1  0  0  0  0
 18 19  1  0  0  0  0
 18 20  2  0  0  0  0
 20 21  1  0  0  0  0
 15 21  2  0  0  0  0
 32 12  1  0  0  0  0
 33 34  1  0  0  0  0
 34 35  1  0  0  0  0
 35 36  1  0  0  0  0
 36 37  1  0  0  0  0
 37 38  1  0  0  0  0
 38 33  1  0  0  0  0
 34 39  1  6  0  0  0
 36 40  1  6  0  0  0
 35 41  1  1  0  0  0
 37  9  1  0  0  0  0
 37 42  1  6  0  0  0
 32 43  1  6  0  0  0
M  END
>  <cdx:fragmentId>
5

$$$$
