39168.cdx
  Mrv1902 05222410252D          

 45 49  0  0  0  0            999 V2000
    8.9818   -9.5029    0.0000 C   0  0  0  0  0  0  0  0  0  0  0  0
    8.9818  -10.3279    0.0000 C   0  0  0  0  0  0  0  0  0  0  0  0
    9.6963  -10.7404    0.0000 O   0  0  0  0  0  0  0  0  0  0  0  0
    8.2674  -10.7404    0.0000 C   0  0  0  0  0  0  0  0  0  0  0  0
    8.2674  -11.5654    0.0000 O   0  0  0  0  0  0  0  0  0  0  0  0
    7.5529  -10.3279    0.0000 C   0  0  0  0  0  0  0  0  0  0  0  0
    6.8384  -10.7404    0.0000 C   0  0  0  0  0  0  0  0  0  0  0  0
    6.8384  -11.5654    0.0000 O   0  0  0  0  0  0  0  0  0  0  0  0
    6.1239  -10.3279    0.0000 C   0  0  0  0  0  0  0  0  0  0  0  0
    6.1239   -9.5029    0.0000 C   0  0  0  0  0  0  0  0  0  0  0  0
    5.4095   -9.0904    0.0000 O   0  0  0  0  0  0  0  0  0  0  0  0
    6.8384   -9.0904    0.0000 C   0  0  0  0  0  0  0  0  0  0  0  0
    7.5529   -9.5029    0.0000 C   0  0  0  0  0  0  0  0  0  0  0  0
    8.2674   -9.0904    0.0000 O   0  0  0  0  0  0  0  0  0  0  0  0
    9.6963   -9.0904    0.0000 C   0  0  0  0  0  0  0  0  0  0  0  0
    9.6963   -8.2654    0.0000 C   0  0  0  0  0  0  0  0  0  0  0  0
   10.4108   -7.8529    0.0000 C   0  0  0  0  0  0  0  0  0  0  0  0
   11.1252   -8.2654    0.0000 C   0  0  0  0  0  0  0  0  0  0  0  0
   11.8397   -7.8529    0.0000 O   0  0  0  0  0  0  0  0  0  0  0  0
   11.1252   -9.0904    0.0000 C   0  0  0  0  0  0  0  0  0  0  0  0
   10.4108   -9.5029    0.0000 C   0  0  0  0  0  0  0  0  0  0  0  0
    5.4122  -10.7395    0.0000 C   0  0  1  0  0  0  0  0  0  0  0  0
    5.4105  -11.5645    0.0000 C   0  0  2  0  0  0  0  0  0  0  0  0
    6.1240  -11.9785    0.0000 O   0  0  0  0  0  0  0  0  0  0  0  0
    4.6951  -11.9755    0.0000 C   0  0  1  0  0  0  0  0  0  0  0  0
    4.6933  -12.8005    0.0000 O   0  0  0  0  0  0  0  0  0  0  0  0
    3.9815  -11.5614    0.0000 C   0  0  2  0  0  0  0  0  0  0  0  0
    3.2662  -11.9724    0.0000 O   0  0  0  0  0  0  0  0  0  0  0  0
    3.9833  -10.7364    0.0000 C   0  0  2  0  0  0  0  0  0  0  0  0
    4.6986  -10.3255    0.0000 O   0  0  0  0  0  0  0  0  0  0  0  0
    3.2697  -10.3224    0.0000 C   0  0  0  0  0  0  0  0  0  0  0  0
    2.5543  -10.7334    0.0000 O   0  0  0  0  0  0  0  0  0  0  0  0
    8.2503   -5.7763    0.0000 O   0  0  0  0  0  0  0  0  0  0  0  0
    8.2503   -6.6013    0.0000 C   0  0  0  0  0  0  0  0  0  0  0  0
    7.5358   -7.8388    0.0000 O   0  0  0  0  0  0  0  0  0  0  0  0
    7.5358   -7.0138    0.0000 C   0  0  1  0  0  0  0  0  0  0  0  0
    6.8213   -5.7763    0.0000 O   0  0  0  0  0  0  0  0  0  0  0  0
    6.8213   -6.6013    0.0000 C   0  0  1  0  0  0  0  0  0  0  0  0
    5.3924   -6.6013    0.0000 O   0  0  0  0  0  0  0  0  0  0  0  0
    6.1069   -7.0138    0.0000 C   0  0  2  0  0  0  0  0  0  0  0  0
    5.3924   -8.2513    0.0000 O   0  0  0  0  0  0  0  0  0  0  0  0
    6.1069   -7.8388    0.0000 C   0  0  1  0  0  0  0  0  0  0  0  0
    6.8213   -8.2513    0.0000 C   0  0  2  0  0  0  0  0  0  0  0  0
    5.4122   -9.9145    0.0000 H   0  0  0  0  0  0  0  0  0  0  0  0
    7.5358   -8.6638    0.0000 H   0  0  0  0  0  0  0  0  0  0  0  0
 43 35  1  0  0  0  0
 34 33  1  0  0  0  0
 36 34  1  1  0  0  0
 36 35  1  0  0  0  0
 38 36  1  0  0  0  0
 38 37  1  6  0  0  0
 40 38  1  0  0  0  0
 40 39  1  1  0  0  0
 42 40  1  0  0  0  0
 42 41  1  6  0  0  0
 43 42  1  0  0  0  0
  1  2  2  0  0  0  0
  2  3  1  0  0  0  0
  2  4  1  0  0  0  0
  4  5  2  0  0  0  0
  4  6  1  0  0  0  0
  6  7  1  0  0  0  0
  7  8  1  0  0  0  0
  7  9  2  0  0  0  0
  9 10  1  0  0  0  0
 10 11  1  0  0  0  0
 10 12  2  0  0  0  0
 12 13  1  0  0  0  0
  6 13  2  0  0  0  0
 13 14  1  0  0  0  0
  1 14  1  0  0  0  0
  1 15  1  0  0  0  0
 15 16  1  0  0  0  0
 16 17  2  0  0  0  0
 17 18  1  0  0  0  0
 18 19  1  0  0  0  0
 18 20  2  0  0  0  0
 20 21  1  0  0  0  0
 15 21  2  0  0  0  0
 22 23  1  0  0  0  0
 23 24  1  6  0  0  0
 23 25  1  0  0  0  0
 25 26  1  1  0  0  0
 25 27  1  0  0  0  0
 27 28  1  6  0  0  0
 27 29  1  0  0  0  0
 29 30  1  0  0  0  0
 29 31  1  1  0  0  0
 31 32  1  0  0  0  0
 22 30  1  0  0  0  0
 43 12  1  0  0  0  0
 22  9  1  0  0  0  0
 22 44  1  6  0  0  0
 43 45  1  6  0  0  0
M  END
>  <cdx:fragmentId>
5

$$$$
