1665.cdx
  Mrv1902 05222410212D          

 41 45  0  0  0  0            999 V2000
   17.2549  -11.3929    0.0000 C   0  0  0  0  0  0  0  0  0  0  0  0
   17.2549  -12.2179    0.0000 C   0  0  0  0  0  0  0  0  0  0  0  0
   16.5405  -12.6304    0.0000 C   0  0  0  0  0  0  0  0  0  0  0  0
   16.5405  -13.4554    0.0000 O   0  0  0  0  0  0  0  0  0  0  0  0
   15.8260  -12.2179    0.0000 C   0  0  0  0  0  0  0  0  0  0  0  0
   15.1115  -12.6304    0.0000 C   0  0  0  0  0  0  0  0  0  0  0  0
   15.1115  -13.4554    0.0000 O   0  0  0  0  0  0  0  0  0  0  0  0
   14.3970  -12.2179    0.0000 C   0  0  0  0  0  0  0  0  0  0  0  0
   14.3970  -11.3929    0.0000 C   0  0  0  0  0  0  0  0  0  0  0  0
   15.1115  -10.9804    0.0000 C   0  0  0  0  0  0  0  0  0  0  0  0
   15.8260  -11.3929    0.0000 C   0  0  0  0  0  0  0  0  0  0  0  0
   16.5405  -10.9804    0.0000 O   0  0  0  0  0  0  0  0  0  0  0  0
   17.9694  -10.9804    0.0000 C   0  0  0  0  0  0  0  0  0  0  0  0
   17.9694  -10.1554    0.0000 C   0  0  0  0  0  0  0  0  0  0  0  0
   18.6839   -9.7429    0.0000 C   0  0  0  0  0  0  0  0  0  0  0  0
   19.3983  -10.1554    0.0000 C   0  0  0  0  0  0  0  0  0  0  0  0
   20.1128   -9.7429    0.0000 O   0  0  0  0  0  0  0  0  0  0  0  0
   19.3983  -10.9804    0.0000 C   0  0  0  0  0  0  0  0  0  0  0  0
   18.6839  -11.3929    0.0000 C   0  0  0  0  0  0  0  0  0  0  0  0
   17.9694  -12.6304    0.0000 O   0  0  0  0  0  0  0  0  0  0  0  0
   17.9694  -13.4554    0.0000 C   0  0  0  0  0  0  0  0  0  0  0  0
   18.6839  -13.8679    0.0000 C   0  0  1  0  0  0  0  0  0  0  0  0
   19.3983  -13.4554    0.0000 O   0  0  0  0  0  0  0  0  0  0  0  0
   18.6839  -14.6929    0.0000 C   0  0  1  0  0  0  0  0  0  0  0  0
   19.3983  -15.1054    0.0000 O   0  0  0  0  0  0  0  0  0  0  0  0
   17.9694  -15.1054    0.0000 C   0  0  2  0  0  0  0  0  0  0  0  0
   17.9694  -15.9304    0.0000 O   0  0  0  0  0  0  0  0  0  0  0  0
   17.2549  -14.6929    0.0000 C   0  0  2  0  0  0  0  0  0  0  0  0
   17.2549  -13.8679    0.0000 O   0  0  0  0  0  0  0  0  0  0  0  0
   16.5405  -15.1054    0.0000 C   0  0  0  0  0  0  0  0  0  0  0  0
   13.6826  -10.9804    0.0000 O   0  0  0  0  0  0  0  0  0  0  0  0
   12.9681  -11.3929    0.0000 C   0  0  0  0  0  0  0  0  0  0  0  0
   12.9681  -12.2179    0.0000 C   0  0  1  0  0  0  0  0  0  0  0  0
   13.6826  -12.6304    0.0000 O   0  0  0  0  0  0  0  0  0  0  0  0
   12.2536  -12.6304    0.0000 C   0  0  1  0  0  0  0  0  0  0  0  0
   12.2536  -13.4554    0.0000 O   0  0  0  0  0  0  0  0  0  0  0  0
   11.5392  -12.2179    0.0000 C   0  0  2  0  0  0  0  0  0  0  0  0
   10.8247  -12.6304    0.0000 O   0  0  0  0  0  0  0  0  0  0  0  0
   11.5392  -11.3929    0.0000 C   0  0  2  0  0  0  0  0  0  0  0  0
   12.2536  -10.9804    0.0000 O   0  0  0  0  0  0  0  0  0  0  0  0
   10.8247  -10.9804    0.0000 C   0  0  0  0  0  0  0  0  0  0  0  0
  1  2  2  0  0  0  0
  2  3  1  0  0  0  0
  3  4  2  0  0  0  0
  3  5  1  0  0  0  0
  5  6  1  0  0  0  0
  6  7  1  0  0  0  0
  6  8  2  0  0  0  0
  8  9  1  0  0  0  0
  9 10  2  0  0  0  0
 10 11  1  0  0  0  0
  5 11  2  0  0  0  0
 11 12  1  0  0  0  0
  1 12  1  0  0  0  0
  1 13  1  0  0  0  0
 13 14  1  0  0  0  0
 14 15  2  0  0  0  0
 15 16  1  0  0  0  0
 16 17  1  0  0  0  0
 16 18  2  0  0  0  0
 18 19  1  0  0  0  0
 13 19  2  0  0  0  0
 20 21  1  0  0  0  0
 21 22  1  0  0  0  0
 22 23  1  1  0  0  0
 22 24  1  0  0  0  0
 24 25  1  1  0  0  0
 24 26  1  0  0  0  0
 26 27  1  6  0  0  0
 26 28  1  0  0  0  0
 28 29  1  0  0  0  0
 28 30  1  1  0  0  0
 21 29  1  0  0  0  0
  2 20  1  0  0  0  0
 31 32  1  0  0  0  0
 32 33  1  0  0  0  0
 33 34  1  1  0  0  0
 33 35  1  0  0  0  0
 35 36  1  1  0  0  0
 35 37  1  0  0  0  0
 37 38  1  6  0  0  0
 37 39  1  0  0  0  0
 39 40  1  0  0  0  0
 39 41  1  1  0  0  0
 32 40  1  0  0  0  0
  9 31  1  0  0  0  0
M  END
>  <cdx:groupId>
999

>  <cdx:fragmentId>
875

$$$$
