1662.cdx
  Mrv1902 05222410222D          

 33 36  0  0  0  0            999 V2000
   15.8260  -11.2041    0.0000 C   0  0  0  0  0  0  0  0  0  0  0  0
   15.8260  -12.0291    0.0000 C   0  0  0  0  0  0  0  0  0  0  0  0
   15.1115  -12.4416    0.0000 C   0  0  0  0  0  0  0  0  0  0  0  0
   15.1115  -13.2666    0.0000 O   0  0  0  0  0  0  0  0  0  0  0  0
   14.3970  -12.0291    0.0000 C   0  0  0  0  0  0  0  0  0  0  0  0
   13.6826  -12.4416    0.0000 C   0  0  0  0  0  0  0  0  0  0  0  0
   13.6826  -13.2666    0.0000 O   0  0  0  0  0  0  0  0  0  0  0  0
   12.9681  -12.0291    0.0000 C   0  0  0  0  0  0  0  0  0  0  0  0
   12.9681  -11.2041    0.0000 C   0  0  0  0  0  0  0  0  0  0  0  0
   12.2536  -10.7916    0.0000 O   0  0  0  0  0  0  0  0  0  0  0  0
   13.6826  -10.7916    0.0000 C   0  0  0  0  0  0  0  0  0  0  0  0
   14.3970  -11.2041    0.0000 C   0  0  0  0  0  0  0  0  0  0  0  0
   15.1115  -10.7916    0.0000 O   0  0  0  0  0  0  0  0  0  0  0  0
   16.5405  -10.7916    0.0000 C   0  0  0  0  0  0  0  0  0  0  0  0
   16.5405   -9.9666    0.0000 C   0  0  0  0  0  0  0  0  0  0  0  0
   17.2549   -9.5541    0.0000 C   0  0  0  0  0  0  0  0  0  0  0  0
   17.9694   -9.9666    0.0000 C   0  0  0  0  0  0  0  0  0  0  0  0
   18.6839   -9.5541    0.0000 O   0  0  0  0  0  0  0  0  0  0  0  0
   17.9694  -10.7916    0.0000 C   0  0  0  0  0  0  0  0  0  0  0  0
   17.2549  -11.2041    0.0000 C   0  0  0  0  0  0  0  0  0  0  0  0
   16.5405  -12.4416    0.0000 O   0  0  0  0  0  0  0  0  0  0  0  0
   16.5405  -13.2666    0.0000 C   0  0  0  0  0  0  0  0  0  0  0  0
   17.2079  -13.7516    0.0000 C   0  0  2  0  0  0  0  0  0  0  0  0
   17.9925  -13.4966    0.0000 O   0  0  0  0  0  0  0  0  0  0  0  0
   16.9530  -14.5362    0.0000 C   0  0  1  0  0  0  0  0  0  0  0  0
   17.4379  -15.2036    0.0000 O   0  0  0  0  0  0  0  0  0  0  0  0
   16.1280  -14.5362    0.0000 C   0  0  2  0  0  0  0  0  0  0  0  0
   15.8730  -13.7516    0.0000 O   0  0  0  0  0  0  0  0  0  0  0  0
   15.6430  -15.2036    0.0000 C   0  0  0  0  0  0  0  0  0  0  0  0
   14.8226  -15.1174    0.0000 O   0  0  0  0  0  0  0  0  0  0  0  0
   17.1023  -15.9573    0.0000 C   0  0  0  0  0  0  0  0  0  0  0  0
   16.2818  -16.0435    0.0000 O   0  0  0  0  0  0  0  0  0  0  0  0
   17.5873  -16.6247    0.0000 C   0  0  0  0  0  0  0  0  0  0  0  0
  1  2  2  0  0  0  0
  2  3  1  0  0  0  0
  3  4  2  0  0  0  0
  3  5  1  0  0  0  0
  5  6  1  0  0  0  0
  6  7  1  0  0  0  0
  6  8  2  0  0  0  0
  8  9  1  0  0  0  0
  9 10  1  0  0  0  0
  9 11  2  0  0  0  0
 11 12  1  0  0  0  0
  5 12  2  0  0  0  0
 12 13  1  0  0  0  0
  1 13  1  0  0  0  0
  1 14  1  0  0  0  0
 14 15  1  0  0  0  0
 15 16  2  0  0  0  0
 16 17  1  0  0  0  0
 17 18  1  0  0  0  0
 17 19  2  0  0  0  0
 19 20  1  0  0  0  0
 14 20  2  0  0  0  0
 21 22  1  0  0  0  0
 22 23  1  0  0  0  0
 23 24  1  6  0  0  0
 23 25  1  0  0  0  0
 25 26  1  1  0  0  0
 25 27  1  0  0  0  0
 27 28  1  0  0  0  0
 27 29  1  1  0  0  0
 29 30  1  0  0  0  0
 22 28  1  0  0  0  0
 31 32  2  0  0  0  0
 31 33  1  0  0  0  0
 26 31  1  0  0  0  0
  2 21  1  0  0  0  0
M  END
>  <cdx:groupId>
582

>  <cdx:fragmentId>
483

$$$$
