39179.cdx
  Mrv1902 05222410232D          

 12 11  0  0  0  0            999 V2000
    7.6198   -8.2775    0.0000 N   0  3  0  0  0  0  0  0  0  0  0  0
    6.9053   -8.6900    0.0000 C   0  0  2  0  0  0  0  0  0  0  0  0
    6.1908   -8.2775    0.0000 C   0  0  2  0  0  0  0  0  0  0  0  0
    5.4764   -8.6900    0.0000 C   0  0  0  0  0  0  0  0  0  0  0  0
    4.7619   -8.2775    0.0000 C   0  0  0  0  0  0  0  0  0  0  0  0
    6.1908   -7.4525    0.0000 C   0  0  0  0  0  0  0  0  0  0  0  0
    6.9053   -9.5150    0.0000 C   0  0  0  0  0  0  0  0  0  0  0  0
    7.6198   -9.9275    0.0000 O   0  0  0  0  0  0  0  0  0  0  0  0
    6.1908   -9.9275    0.0000 O   0  5  0  0  0  0  0  0  0  0  0  0
    8.3343   -7.8650    0.0000 C   0  0  0  0  0  0  0  0  0  0  0  0
    7.2073   -7.5630    0.0000 C   0  0  0  0  0  0  0  0  0  0  0  0
    8.0323   -8.9920    0.0000 C   0  0  0  0  0  0  0  0  0  0  0  0
  2  1  1  0  0  0  0
  3  2  1  0  0  0  0
  4  3  1  0  0  0  0
  5  4  1  0  0  0  0
  3  6  1  6  0  0  0
  2  7  1  1  0  0  0
  7  8  2  0  0  0  0
  7  9  1  0  0  0  0
  1 10  1  0  0  0  0
  1 11  1  0  0  0  0
  1 12  1  0  0  0  0
M  CHG  2   1   1   9  -1
M  END
>  <cdx:fragmentId>
3

$$$$
