39171.cdx
  Mrv1902 05222410212D          

 45 48  0  0  0  0            999 V2000
    7.5148   -7.7297    0.0000 O   0  0  0  0  0  0  0  0  0  0  0  0
    8.2424   -8.9596    0.0000 O   0  0  0  0  0  0  0  0  0  0  0  0
    7.5236   -8.5547    0.0000 C   0  0  0  0  0  0  0  0  0  0  0  0
    6.8135   -8.9747    0.0000 C   0  0  0  0  0  0  0  0  0  0  0  0
    6.0947   -8.5698    0.0000 C   0  0  0  0  0  0  0  0  0  0  0  0
    3.2545  -10.2499    0.0000 O   0  0  0  0  0  0  0  0  0  0  0  0
    4.6833  -10.2348    0.0000 C   0  0  0  0  0  0  0  0  0  0  0  0
    5.3934   -9.8148    0.0000 C   0  0  0  0  0  0  0  0  0  0  0  0
    5.3847   -8.9898    0.0000 C   0  0  0  0  0  0  0  0  0  0  0  0
    4.6659   -8.5849    0.0000 C   0  0  0  0  0  0  0  0  0  0  0  0
    3.9558   -9.0050    0.0000 C   0  0  0  0  0  0  0  0  0  0  0  0
    3.9645   -9.8299    0.0000 C   0  0  0  0  0  0  0  0  0  0  0  0
    8.9524   -8.5395    0.0000 C   0  0  2  0  0  0  0  0  0  0  0  0
    8.9437   -7.7146    0.0000 C   0  0  2  0  0  0  0  0  0  0  0  0
    9.6712   -8.9445    0.0000 C   0  0  1  0  0  0  0  0  0  0  0  0
   10.3813   -8.5244    0.0000 C   0  0  2  0  0  0  0  0  0  0  0  0
   10.3726   -7.6995    0.0000 C   0  0  1  0  0  0  0  0  0  0  0  0
    9.6538   -7.2945    0.0000 O   0  0  0  0  0  0  0  0  0  0  0  0
    8.2249   -7.3097    0.0000 C   0  0  0  0  0  0  0  0  0  0  0  0
    8.2360   -6.4847    0.0000 O   0  0  0  0  0  0  0  0  0  0  0  0
   11.0826   -7.2794    0.0000 O   0  0  0  0  0  0  0  0  0  0  0  0
    9.6800   -9.7694    0.0000 O   0  0  0  0  0  0  0  0  0  0  0  0
    8.9608  -10.1736    0.0000 C   0  0  2  0  0  0  0  0  0  0  0  0
    8.2511   -9.7529    0.0000 O   0  0  0  0  0  0  0  0  0  0  0  0
    7.5319  -10.1571    0.0000 C   0  0  2  0  0  0  0  0  0  0  0  0
    7.5224  -10.9820    0.0000 C   0  0  1  0  0  0  0  0  0  0  0  0
    8.2320  -11.4028    0.0000 C   0  0  2  0  0  0  0  0  0  0  0  0
    8.9512  -10.9986    0.0000 C   0  0  1  0  0  0  0  0  0  0  0  0
   11.1001   -8.9293    0.0000 O   0  0  0  0  0  0  0  0  0  0  0  0
    9.6669  -11.4089    0.0000 O   0  0  0  0  0  0  0  0  0  0  0  0
    8.2225  -12.2277    0.0000 O   0  0  0  0  0  0  0  0  0  0  0  0
    6.8223   -9.7363    0.0000 C   0  0  0  0  0  0  0  0  0  0  0  0
    6.8032  -11.3862    0.0000 O   0  0  0  0  0  0  0  0  0  0  0  0
    3.2370   -8.6000    0.0000 O   0  0  0  0  0  0  0  0  0  0  0  0
    7.5271   -6.0627    0.0000 C   0  0  2  0  0  0  0  0  0  0  0  0
    7.5437   -5.2379    0.0000 O   0  0  0  0  0  0  0  0  0  0  0  0
    6.8376   -4.8111    0.0000 C   0  0  1  0  0  0  0  0  0  0  0  0
    6.1150   -5.2092    0.0000 C   0  0  2  0  0  0  0  0  0  0  0  0
    6.1150   -6.0340    0.0000 C   0  0  1  0  0  0  0  0  0  0  0  0
    6.8376   -6.4608    0.0000 C   0  0  1  0  0  0  0  0  0  0  0  0
    6.8542   -3.9863    0.0000 C   0  0  0  0  0  0  0  0  0  0  0  0
    5.3985   -6.4430    0.0000 O   0  0  0  0  0  0  0  0  0  0  0  0
    6.8336   -7.2858    0.0000 O   0  0  0  0  0  0  0  0  0  0  0  0
    5.4047   -4.7895    0.0000 O   0  0  0  0  0  0  0  0  0  0  0  0
    6.1481   -3.5595    0.0000 O   0  0  0  0  0  0  0  0  0  0  0  0
  3  1  2  0  0  0  0
  3  2  1  0  0  0  0
  4  3  1  0  0  0  0
  5  4  2  0  0  0  0
  9  5  1  0  0  0  0
 12  6  1  0  0  0  0
  7 12  1  0  0  0  0
  8  7  2  0  0  0  0
  9  8  1  0  0  0  0
 10  9  2  0  0  0  0
 11 10  1  0  0  0  0
 12 11  2  0  0  0  0
 13  2  1  6  0  0  0
 13 14  1  0  0  0  0
 13 15  1  0  0  0  0
 15 16  1  0  0  0  0
 16 17  1  0  0  0  0
 17 18  1  0  0  0  0
 18 14  1  0  0  0  0
 14 19  1  1  0  0  0
 19 20  1  0  0  0  0
 17 21  1  1  0  0  0
 15 22  1  1  0  0  0
 23 22  1  1  0  0  0
 23 24  1  0  0  0  0
 24 25  1  0  0  0  0
 25 26  1  0  0  0  0
 26 27  1  0  0  0  0
 27 28  1  0  0  0  0
 28 23  1  0  0  0  0
 16 29  1  6  0  0  0
 28 30  1  6  0  0  0
 27 31  1  6  0  0  0
 25 32  1  6  0  0  0
 26 33  1  1  0  0  0
 11 34  1  0  0  0  0
 35 20  1  1  0  0  0
 35 36  1  0  0  0  0
 36 37  1  0  0  0  0
 37 38  1  0  0  0  0
 38 39  1  0  0  0  0
 39 40  1  0  0  0  0
 40 35  1  0  0  0  0
 37 41  1  1  0  0  0
 39 42  1  1  0  0  0
 40 43  1  6  0  0  0
 38 44  1  6  0  0  0
 41 45  1  0  0  0  0
M  END
>  <cdx:fragmentId>
293

$$$$
