39170.cdx
  Mrv1902 05222410202D          

 32 35  0  0  0  0            999 V2000
    9.3652   -7.9278    0.0000 C   0  0  0  0  0  0  0  0  0  0  0  0
    9.3652   -8.7528    0.0000 C   0  0  0  0  0  0  0  0  0  0  0  0
    8.6508   -9.1653    0.0000 C   0  0  0  0  0  0  0  0  0  0  0  0
    7.9363   -8.7528    0.0000 C   0  0  0  0  0  0  0  0  0  0  0  0
    7.2218   -9.1653    0.0000 C   0  0  0  0  0  0  0  0  0  0  0  0
    6.5074   -8.7528    0.0000 C   0  0  0  0  0  0  0  0  0  0  0  0
    6.5074   -7.9278    0.0000 C   0  0  0  0  0  0  0  0  0  0  0  0
    7.2218   -7.5153    0.0000 C   0  0  0  0  0  0  0  0  0  0  0  0
    7.9363   -7.9278    0.0000 C   0  0  0  0  0  0  0  0  0  0  0  0
    8.6508   -7.5153    0.0000 O   0  0  0  0  0  0  0  0  0  0  0  0
    8.6508   -9.9903    0.0000 O   0  0  0  0  0  0  0  0  0  0  0  0
   10.0797   -9.1653    0.0000 O   0  0  0  0  0  0  0  0  0  0  0  0
    5.7929   -7.5153    0.0000 O   0  0  0  0  0  0  0  0  0  0  0  0
    4.3639   -7.5153    0.0000 O   0  0  0  0  0  0  0  0  0  0  0  0
    5.0784   -7.9278    0.0000 C   0  0  2  0  0  0  0  0  0  0  0  0
    5.0784   -8.7528    0.0000 C   0  0  1  0  0  0  0  0  0  0  0  0
    4.3639   -9.1653    0.0000 C   0  0  2  0  0  0  0  0  0  0  0  0
    3.6495   -8.7528    0.0000 C   0  0  1  0  0  0  0  0  0  0  0  0
    3.6495   -7.9278    0.0000 C   0  0  1  0  0  0  0  0  0  0  0  0
    2.9350   -7.5153    0.0000 C   0  0  0  0  0  0  0  0  0  0  0  0
    2.2205   -7.9278    0.0000 O   0  0  0  0  0  0  0  0  0  0  0  0
    2.9350   -9.1653    0.0000 O   0  0  0  0  0  0  0  0  0  0  0  0
    4.3639   -9.9903    0.0000 O   0  0  0  0  0  0  0  0  0  0  0  0
    5.7929   -9.1653    0.0000 O   0  0  0  0  0  0  0  0  0  0  0  0
    7.2218   -9.9903    0.0000 O   0  0  0  0  0  0  0  0  0  0  0  0
   10.0797   -7.5153    0.0000 C   0  0  0  0  0  0  0  0  0  0  0  0
   10.7942   -7.9278    0.0000 C   0  0  0  0  0  0  0  0  0  0  0  0
   11.5086   -7.5153    0.0000 C   0  0  0  0  0  0  0  0  0  0  0  0
   11.5086   -6.6903    0.0000 C   0  0  0  0  0  0  0  0  0  0  0  0
   10.7942   -6.2778    0.0000 C   0  0  0  0  0  0  0  0  0  0  0  0
   10.0797   -6.6903    0.0000 C   0  0  0  0  0  0  0  0  0  0  0  0
   12.2231   -6.2778    0.0000 O   0  0  0  0  0  0  0  0  0  0  0  0
  1  2  2  0  0  0  0
  2  3  1  0  0  0  0
  3  4  1  0  0  0  0
  4  5  1  0  0  0  0
  5  6  2  0  0  0  0
  6  7  1  0  0  0  0
  7  8  2  0  0  0  0
  8  9  1  0  0  0  0
  4  9  2  0  0  0  0
  9 10  1  0  0  0  0
  1 10  1  0  0  0  0
  3 11  2  0  0  0  0
  2 12  1  0  0  0  0
 14 15  1  0  0  0  0
 15 16  1  0  0  0  0
 16 17  1  0  0  0  0
 17 18  1  0  0  0  0
 18 19  1  0  0  0  0
 14 19  1  0  0  0  0
 20 21  1  0  0  0  0
 19 20  1  1  0  0  0
 18 22  1  6  0  0  0
 17 23  1  1  0  0  0
 16 24  1  6  0  0  0
 15 13  1  1  0  0  0
  7 13  1  0  0  0  0
  5 25  1  0  0  0  0
 26 27  1  0  0  0  0
 27 28  2  0  0  0  0
 28 29  1  0  0  0  0
 29 30  2  0  0  0  0
 30 31  1  0  0  0  0
 26 31  2  0  0  0  0
 29 32  1  0  0  0  0
  1 26  1  0  0  0  0
M  END
>  <cdx:fragmentId>
1591

$$$$
