39174.cdx
  Mrv1902 05222410232D          

 45 47  0  0  0  0            999 V2000
    5.1332   -8.3067    0.0000 N   0  0  0  0  0  0  0  0  0  0  0  0
    5.8477   -7.8942    0.0000 C   0  0  0  0  0  0  0  0  0  0  0  0
    6.5622   -8.3067    0.0000 C   0  0  0  0  0  0  0  0  0  0  0  0
    7.2766   -7.8942    0.0000 C   0  0  0  0  0  0  0  0  0  0  0  0
    7.9911   -8.3067    0.0000 N   0  0  0  0  0  0  0  0  0  0  0  0
    8.7056   -7.8942    0.0000 C   0  0  0  0  0  0  0  0  0  0  0  0
    9.4200   -8.3067    0.0000 C   0  0  0  0  0  0  0  0  0  0  0  0
   10.1345   -7.8942    0.0000 C   0  0  0  0  0  0  0  0  0  0  0  0
   10.8490   -8.3067    0.0000 C   0  0  0  0  0  0  0  0  0  0  0  0
   11.5635   -7.8942    0.0000 N   0  0  0  0  0  0  0  0  0  0  0  0
    2.9630  -10.3792    0.0000 C   0  0  0  0  0  0  0  0  0  0  0  0
    2.9617   -9.5542    0.0000 C   0  0  0  0  0  0  0  0  0  0  0  0
    2.2466   -9.1429    0.0000 C   0  0  0  0  0  0  0  0  0  0  0  0
    1.5328   -9.5565    0.0000 C   0  0  0  0  0  0  0  0  0  0  0  0
    1.5341  -10.3815    0.0000 C   0  0  0  0  0  0  0  0  0  0  0  0
    2.2492  -10.7929    0.0000 C   0  0  0  0  0  0  0  0  0  0  0  0
    0.8203  -10.7952    0.0000 O   0  0  0  0  0  0  0  0  0  0  0  0
    0.8176   -9.1452    0.0000 O   0  0  0  0  0  0  0  0  0  0  0  0
    0.1038   -9.5588    0.0000 C   0  0  0  0  0  0  0  0  0  0  0  0
    3.6755   -9.1406    0.0000 C   0  0  0  0  0  0  0  0  0  0  0  0
    3.6742   -8.3156    0.0000 C   0  0  0  0  0  0  0  0  0  0  0  0
    4.3880   -7.9019    0.0000 C   0  0  0  0  0  0  0  0  0  0  0  0
    4.3866   -7.0769    0.0000 O   0  0  0  0  0  0  0  0  0  0  0  0
    6.5311  -11.6171    0.0000 C   0  0  0  0  0  0  0  0  0  0  0  0
    6.5296  -10.7921    0.0000 C   0  0  0  0  0  0  0  0  0  0  0  0
    5.8145  -10.3809    0.0000 C   0  0  0  0  0  0  0  0  0  0  0  0
    5.1007  -10.7946    0.0000 C   0  0  0  0  0  0  0  0  0  0  0  0
    5.1021  -11.6196    0.0000 C   0  0  0  0  0  0  0  0  0  0  0  0
    5.8173  -12.0309    0.0000 C   0  0  0  0  0  0  0  0  0  0  0  0
    4.3884  -12.0333    0.0000 O   0  0  0  0  0  0  0  0  0  0  0  0
    7.2434  -10.3784    0.0000 C   0  0  0  0  0  0  0  0  0  0  0  0
    7.2420   -9.5534    0.0000 C   0  0  0  0  0  0  0  0  0  0  0  0
    7.9557   -9.1396    0.0000 C   0  0  0  0  0  0  0  0  0  0  0  0
    8.6709   -9.5509    0.0000 O   0  0  0  0  0  0  0  0  0  0  0  0
   12.2574   -9.1342    0.0000 O   0  0  0  0  0  0  0  0  0  0  0  0
   12.2571   -8.3092    0.0000 C   0  0  0  0  0  0  0  0  0  0  0  0
   12.9714   -7.8965    0.0000 C   0  0  0  0  0  0  0  0  0  0  0  0
   13.6860   -8.3087    0.0000 C   0  0  0  0  0  0  0  0  0  0  0  0
   16.5433   -6.6577    0.0000 O   0  0  0  0  0  0  0  0  0  0  0  0
   15.8293   -7.8955    0.0000 C   0  0  0  0  0  0  0  0  0  0  0  0
   15.8290   -7.0705    0.0000 C   0  0  0  0  0  0  0  0  0  0  0  0
   15.1144   -6.6582    0.0000 C   0  0  0  0  0  0  0  0  0  0  0  0
   14.4001   -7.0710    0.0000 C   0  0  0  0  0  0  0  0  0  0  0  0
   14.4004   -7.8960    0.0000 C   0  0  0  0  0  0  0  0  0  0  0  0
   15.1150   -8.3082    0.0000 C   0  0  0  0  0  0  0  0  0  0  0  0
  1  2  1  0  0  0  0
  2  3  1  0  0  0  0
  3  4  1  0  0  0  0
  4  5  1  0  0  0  0
  5  6  1  0  0  0  0
  6  7  1  0  0  0  0
  7  8  1  0  0  0  0
  8  9  1  0  0  0  0
  9 10  1  0  0  0  0
 11 12  2  0  0  0  0
 12 13  1  0  0  0  0
 13 14  2  0  0  0  0
 14 15  1  0  0  0  0
 15 16  2  0  0  0  0
 16 11  1  0  0  0  0
 15 17  1  0  0  0  0
 14 18  1  0  0  0  0
 18 19  1  0  0  0  0
 12 20  1  0  0  0  0
 20 21  2  0  0  0  0
 21 22  1  0  0  0  0
 22 23  2  0  0  0  0
 22  1  1  0  0  0  0
 24 25  2  0  0  0  0
 25 26  1  0  0  0  0
 26 27  2  0  0  0  0
 27 28  1  0  0  0  0
 28 29  2  0  0  0  0
 29 24  1  0  0  0  0
 28 30  1  0  0  0  0
 25 31  1  0  0  0  0
 31 32  2  0  0  0  0
 32 33  1  0  0  0  0
 33 34  2  0  0  0  0
 36 35  2  0  0  0  0
 37 36  1  0  0  0  0
 38 37  2  0  0  0  0
 44 38  1  0  0  0  0
 41 39  1  0  0  0  0
 40 45  1  0  0  0  0
 41 40  2  0  0  0  0
 42 41  1  0  0  0  0
 43 42  2  0  0  0  0
 44 43  1  0  0  0  0
 45 44  2  0  0  0  0
 33  5  1  0  0  0  0
 36 10  1  0  0  0  0
M  END
>  <cdx:fragmentId>
33

$$$$
