39173.cdx
  Mrv1902 05222410212D          

 25 28  0  0  0  0            999 V2000
    9.6366   -5.7061    0.0000 C   0  0  0  0  0  0  0  0  0  0  0  0
    4.9518   -7.7438    0.0000 C   0  0  0  0  0  0  0  0  0  0  0  0
    4.9518   -6.9188    0.0000 C   0  0  0  0  0  0  0  0  0  0  0  0
    5.6663   -6.5063    0.0000 C   0  0  0  0  0  0  0  0  0  0  0  0
    5.6663   -8.1563    0.0000 C   0  0  2  0  0  0  0  0  0  0  0  0
    6.0788   -8.8708    0.0000 C   0  0  0  0  0  0  0  0  0  0  0  0
    5.2538   -8.8708    0.0000 C   0  0  0  0  0  0  0  0  0  0  0  0
    6.3808   -7.7438    0.0000 C   0  0  1  0  0  0  0  0  0  0  0  0
    6.3808   -8.5688    0.0000 H   0  0  0  0  0  0  0  0  0  0  0  0
    7.0952   -8.1563    0.0000 C   0  0  0  0  0  0  0  0  0  0  0  0
    7.8097   -7.7438    0.0000 C   0  0  0  0  0  0  0  0  0  0  0  0
    7.8097   -6.9188    0.0000 C   0  0  1  0  0  0  0  0  0  0  0  0
    7.0952   -6.5063    0.0000 C   0  0  2  0  0  0  0  0  0  0  0  0
    7.0952   -7.3313    0.0000 H   0  0  0  0  0  0  0  0  0  0  0  0
    6.3808   -6.9188    0.0000 C   0  0  2  0  0  0  0  0  0  0  0  0
    6.3808   -6.0938    0.0000 C   0  0  0  0  0  0  0  0  0  0  0  0
    8.5777   -6.6174    0.0000 C   0  0  0  0  0  0  0  0  0  0  0  0
    8.8209   -5.8291    0.0000 C   0  0  1  0  0  0  0  0  0  0  0  0
    8.3561   -5.1474    0.0000 C   0  0  1  0  0  0  0  0  0  0  0  0
    7.5718   -5.8764    0.0000 C   0  0  0  0  0  0  0  0  0  0  0  0
    7.5334   -5.0858    0.0000 C   0  0  0  0  0  0  0  0  0  0  0  0
    6.9723   -5.6905    0.0000 C   0  0  0  0  0  0  0  0  0  0  0  0
    9.9381   -4.9381    0.0000 O   0  0  0  0  0  0  0  0  0  0  0  0
   10.1510   -6.3511    0.0000 O   0  0  0  0  0  0  0  0  0  0  0  0
    4.2374   -8.1563    0.0000 O   0  0  0  0  0  0  0  0  0  0  0  0
  2  3  1  0  0  0  0
  3  4  1  0  0  0  0
  2  5  1  0  0  0  0
  5  6  1  6  0  0  0
  5  7  1  1  0  0  0
  5  8  1  0  0  0  0
  8  9  1  1  0  0  0
  8 10  1  0  0  0  0
 10 11  1  0  0  0  0
 11 12  1  0  0  0  0
 12 13  1  0  0  0  0
 13 14  1  1  0  0  0
 13 15  1  0  0  0  0
  4 15  1  0  0  0  0
  8 15  1  0  0  0  0
 15 16  1  6  0  0  0
 12 17  1  0  0  0  0
 17 18  1  0  0  0  0
 18  1  1  1  0  0  0
 18 19  1  0  0  0  0
 19 20  1  6  0  0  0
 12 20  1  6  0  0  0
 19 21  1  0  0  0  0
 21 22  1  0  0  0  0
 13 22  1  0  0  0  0
  1 23  2  0  0  0  0
  1 24  1  0  0  0  0
  2 25  2  0  0  0  0
M  END
>  <cdx:groupId>
530

>  <cdx:fragmentId>
460

$$$$
