39175.cdx
  Mrv1902 05222410222D          

 11 11  0  0  0  0            999 V2000
    7.0810   -8.6456    0.0000 C   0  0  0  0  0  0  0  0  0  0  0  0
    7.7955   -8.2331    0.0000 C   0  0  0  0  0  0  0  0  0  0  0  0
    7.7955   -7.4081    0.0000 C   0  0  0  0  0  0  0  0  0  0  0  0
    7.0810   -6.9956    0.0000 C   0  0  0  0  0  0  0  0  0  0  0  0
    6.3665   -7.4081    0.0000 C   0  0  0  0  0  0  0  0  0  0  0  0
    6.3665   -8.2331    0.0000 C   0  0  0  0  0  0  0  0  0  0  0  0
    5.9540   -8.9476    0.0000 C   0  0  0  0  0  0  0  0  0  0  0  0
    5.5415   -8.2331    0.0000 C   0  0  0  0  0  0  0  0  0  0  0  0
    8.5099   -8.6456    0.0000 C   0  0  0  0  0  0  0  0  0  0  0  0
    7.0810   -6.1706    0.0000 O   0  0  0  0  0  0  0  0  0  0  0  0
    7.0810   -9.4706    0.0000 O   0  0  0  0  0  0  0  0  0  0  0  0
  1  2  1  0  0  0  0
  2  3  2  0  0  0  0
  3  4  1  0  0  0  0
  4  5  1  0  0  0  0
  5  6  1  0  0  0  0
  6  1  1  0  0  0  0
  6  7  1  0  0  0  0
  6  8  1  0  0  0  0
  2  9  1  0  0  0  0
  4 10  2  0  0  0  0
  1 11  2  0  0  0  0
M  END
>  <cdx:fragmentId>
48

$$$$
