39181.cdx
  Mrv1902 05222410252D          

 28 30  0  0  0  0            999 V2000
    4.2919   -7.3545    0.0000 C   0  0  0  0  0  0  0  0  0  0  0  0
    5.1168   -7.3448    0.0000 C   0  0  0  0  0  0  0  0  0  0  0  0
    3.8710   -6.6449    0.0000 O   0  0  0  0  0  0  0  0  0  0  0  0
    3.8878   -8.0737    0.0000 O   0  0  0  0  0  0  0  0  0  0  0  0
    5.5209   -6.6255    0.0000 O   0  0  0  0  0  0  0  0  0  0  0  0
    5.5377   -8.0544    0.0000 O   0  0  0  0  0  0  0  0  0  0  0  0
    6.3626   -8.0447    0.0000 C   0  0  0  0  0  0  0  0  0  0  0  0
    7.8690   -7.4021    0.0000 O   0  0  0  0  0  0  0  0  0  0  0  0
    8.1214   -8.1875    0.0000 C   0  0  1  0  0  0  0  0  0  0  0  0
    8.9464   -8.1902    0.0000 C   0  0  2  0  0  0  0  0  0  0  0  0
    9.2038   -7.4064    0.0000 C   0  0  0  0  0  0  0  0  0  0  0  0
    8.5380   -6.9193    0.0000 C   0  0  0  0  0  0  0  0  0  0  0  0
    6.7835   -8.7543    0.0000 C   0  0  0  0  0  0  0  0  0  0  0  0
    6.4568   -9.5118    0.0000 C   0  0  0  0  0  0  0  0  0  0  0  0
    7.0763  -10.0566    0.0000 C   0  0  0  0  0  0  0  0  0  0  0  0
    7.7859   -9.6358    0.0000 C   0  0  0  0  0  0  0  0  0  0  0  0
    8.5280   -9.9961    0.0000 C   0  0  0  0  0  0  0  0  0  0  0  0
    9.2725   -9.6405    0.0000 C   0  0  0  0  0  0  0  0  0  0  0  0
    9.4587   -8.8368    0.0000 C   0  0  2  0  0  0  0  0  0  0  0  0
    7.6049   -8.8309    0.0000 C   0  0  1  0  0  0  0  0  0  0  0  0
    6.9997  -10.8781    0.0000 O   0  0  0  0  0  0  0  0  0  0  0  0
    8.5406   -6.0943    0.0000 O   0  0  0  0  0  0  0  0  0  0  0  0
    9.9893   -7.1539    0.0000 C   0  0  0  0  0  0  0  0  0  0  0  0
    8.5254  -10.8211    0.0000 C   0  0  0  0  0  0  0  0  0  0  0  0
   10.2636   -8.6558    0.0000 O   0  0  0  0  0  0  0  0  0  0  0  0
    9.7513   -8.0092    0.0000 H   0  0  0  0  0  0  0  0  0  0  0  0
    7.4239   -8.0259    0.0000 H   0  0  0  0  0  0  0  0  0  0  0  0
    8.3024   -8.9924    0.0000 H   0  0  0  0  0  0  0  0  0  0  0  0
  1  2  1  0  0  0  0
  1  3  2  0  0  0  0
  1  4  1  0  0  0  0
  2  5  2  0  0  0  0
  6  7  1  0  0  0  0
  8  9  1  0  0  0  0
  9 10  1  0  0  0  0
 10 11  1  0  0  0  0
 11 12  1  0  0  0  0
  8 12  1  0  0  0  0
 13 14  2  0  0  0  0
 14 15  1  0  0  0  0
 15 16  1  0  0  0  0
 16 17  2  0  0  0  0
 17 18  1  0  0  0  0
 18 19  1  0  0  0  0
 13 20  1  0  0  0  0
 16 20  1  0  0  0  0
 20  9  1  0  0  0  0
 19 10  1  0  0  0  0
 15 21  2  0  0  0  0
 12 22  2  0  0  0  0
 11 23  2  0  0  0  0
 17 24  1  0  0  0  0
 19 25  1  1  0  0  0
  7 13  1  0  0  0  0
  2  6  1  0  0  0  0
 10 26  1  1  0  0  0
 20 27  1  1  0  0  0
  9 28  1  6  0  0  0
M  END
>  <cdx:fragmentId>
29

$$$$
