1685.cdx
  Mrv1902 05222410242D          

 25 26  0  0  0  0            999 V2000
    5.9257   -5.8686    0.0000 C   0  0  0  0  0  0  0  0  0  0  0  0
    4.4761   -8.3315    0.0000 O   0  0  0  0  0  0  0  0  0  0  0  0
    3.0541   -7.4946    0.0000 O   0  0  0  0  0  0  0  0  0  0  0  0
    3.0679   -5.8447    0.0000 O   0  0  0  0  0  0  0  0  0  0  0  0
    5.2078   -6.2751    0.0000 C   0  0  2  0  0  0  0  0  0  0  0  0
    4.4968   -5.8566    0.0000 O   0  0  0  0  0  0  0  0  0  0  0  0
    3.7789   -6.2631    0.0000 C   0  0  2  0  0  0  0  0  0  0  0  0
    3.7720   -7.0881    0.0000 C   0  0  1  0  0  0  0  0  0  0  0  0
    4.4830   -7.5066    0.0000 C   0  0  1  0  0  0  0  0  0  0  0  0
    5.2009   -7.1001    0.0000 C   0  0  1  0  0  0  0  0  0  0  0  0
    5.9119   -7.5185    0.0000 O   0  0  0  0  0  0  0  0  0  0  0  0
    7.3546   -5.8806    0.0000 C   0  0  0  0  0  0  0  0  0  0  0  0
    6.6367   -6.2871    0.0000 C   0  0  0  0  0  0  0  0  0  0  0  0
    6.6298   -7.1120    0.0000 C   0  0  0  0  0  0  0  0  0  0  0  0
    7.3408   -7.5305    0.0000 O   0  0  0  0  0  0  0  0  0  0  0  0
    8.0656   -6.2990    0.0000 C   0  0  0  0  0  0  0  0  0  0  0  0
    8.0552   -7.1240    0.0000 C   0  0  0  0  0  0  0  0  0  0  0  0
    8.7645   -7.5454    0.0000 C   0  0  0  0  0  0  0  0  0  0  0  0
    9.4841   -7.1240    0.0000 C   0  0  0  0  0  0  0  0  0  0  0  0
    9.4841   -6.2990    0.0000 C   0  0  0  0  0  0  0  0  0  0  0  0
    8.7645   -5.8776    0.0000 C   0  0  0  0  0  0  0  0  0  0  0  0
   10.2075   -7.5387    0.0000 O   0  0  0  0  0  0  0  0  0  0  0  0
   10.2101   -8.3726    0.0000 C   0  0  0  0  0  0  0  0  0  0  0  0
   10.2075   -5.8843    0.0000 O   0  0  0  0  0  0  0  0  0  0  0  0
   10.2101   -5.0504    0.0000 C   0  0  0  0  0  0  0  0  0  0  0  0
  5  1  1  1  0  0  0
  9  2  1  1  0  0  0
  8  3  1  1  0  0  0
  7  4  1  6  0  0  0
  5 10  1  0  0  0  0
  6  5  1  0  0  0  0
  7  6  1  0  0  0  0
  8  7  1  0  0  0  0
  9  8  1  0  0  0  0
 10  9  1  0  0  0  0
 10 11  1  6  0  0  0
 14 11  1  0  0  0  0
 12 13  2  0  0  0  0
 13 14  1  0  0  0  0
 14 15  2  0  0  0  0
 12 16  1  0  0  0  0
 16 17  2  0  0  0  0
 17 18  1  0  0  0  0
 18 19  2  0  0  0  0
 19 20  1  0  0  0  0
 20 21  2  0  0  0  0
 21 16  1  0  0  0  0
 19 22  1  0  0  0  0
 22 23  1  0  0  0  0
 20 24  1  0  0  0  0
 24 25  1  0  0  0  0
M  END
>  <cdx:fragmentId>
633

$$$$
