1686.cdx
  Mrv1902 05222410232D          

 32 36  0  0  0  0            999 V2000
    3.4224   -8.8115    0.0000 C   0  0  0  0  0  0  0  0  0  0  0  0
    3.4224   -9.6336    0.0000 C   0  0  0  0  0  0  0  0  0  0  0  0
    4.1344  -10.0447    0.0000 C   0  0  0  0  0  0  0  0  0  0  0  0
    4.8464   -9.6336    0.0000 C   0  0  1  0  0  0  0  0  0  0  0  0
    4.8464   -8.8115    0.0000 N   0  0  0  0  0  0  0  0  0  0  0  0
    4.1344   -8.4004    0.0000 C   0  0  0  0  0  0  0  0  0  0  0  0
    5.4277  -10.2149    0.0000 C   0  0  2  0  0  0  0  0  0  0  0  0
    6.2499  -10.2149    0.0000 C   0  0  0  0  0  0  0  0  0  0  0  0
    6.8312   -9.6336    0.0000 N   0  0  0  0  0  0  0  0  0  0  0  0
    6.8312   -8.8115    0.0000 C   0  0  2  0  0  0  0  0  0  0  0  0
    6.2499   -8.2301    0.0000 C   0  0  2  0  0  0  0  0  0  0  0  0
    5.4277   -8.2301    0.0000 C   0  0  0  0  0  0  0  0  0  0  0  0
    7.5432  -10.0447    0.0000 C   0  0  0  0  0  0  0  0  0  0  0  0
    8.2552   -9.6336    0.0000 C   0  0  0  0  0  0  0  0  0  0  0  0
    8.2552   -8.8115    0.0000 C   0  0  1  0  0  0  0  0  0  0  0  0
    7.5432   -8.4004    0.0000 C   0  0  0  0  0  0  0  0  0  0  0  0
    4.7391  -10.4487    0.0000 H   0  0  0  0  0  0  0  0  0  0  0  0
    4.1344   -7.5783    0.0000 O   0  0  0  0  0  0  0  0  0  0  0  0
    5.1131  -10.9745    0.0000 H   0  0  0  0  0  0  0  0  0  0  0  0
    6.5645   -7.4706    0.0000 H   0  0  0  0  0  0  0  0  0  0  0  0
    6.9385   -7.9964    0.0000 H   0  0  0  0  0  0  0  0  0  0  0  0
    8.9672   -8.4004    0.0000 O   0  0  0  0  0  0  0  0  0  0  0  0
    9.6792   -8.8115    0.0000 C   0  0  0  0  0  0  0  0  0  0  0  0
   10.3912   -8.4004    0.0000 C   0  0  0  0  0  0  0  0  0  0  0  0
    9.6792   -9.6336    0.0000 O   0  0  0  0  0  0  0  0  0  0  0  0
   11.1031   -8.8115    0.0000 C   0  0  0  0  0  0  0  0  0  0  0  0
   11.8151   -8.4004    0.0000 C   0  0  0  0  0  0  0  0  0  0  0  0
   11.8151   -7.5783    0.0000 C   0  0  0  0  0  0  0  0  0  0  0  0
   11.1031   -7.1672    0.0000 C   0  0  0  0  0  0  0  0  0  0  0  0
   10.3912   -7.5783    0.0000 C   0  0  0  0  0  0  0  0  0  0  0  0
   11.1031   -9.6336    0.0000 N   0  0  0  0  0  0  0  0  0  0  0  0
    6.1016   -9.3958    0.0000 C   0  0  0  0  0  0  0  0  0  0  0  0
  1  2  1  0  0  0  0
  2  3  1  0  0  0  0
  3  4  1  0  0  0  0
  4  5  1  0  0  0  0
  5  6  1  0  0  0  0
  6  1  1  0  0  0  0
  4  7  1  0  0  0  0
  7  8  1  0  0  0  0
  8  9  1  0  0  0  0
  9 10  1  0  0  0  0
 10 11  1  0  0  0  0
 11 12  1  0  0  0  0
 12  5  1  0  0  0  0
  9 13  1  0  0  0  0
 13 14  1  0  0  0  0
 14 15  1  0  0  0  0
 15 16  1  0  0  0  0
 16 10  1  0  0  0  0
  4 17  1  6  0  0  0
  6 18  2  0  0  0  0
  7 19  1  0  0  0  0
 11 20  1  0  0  0  0
 10 21  1  1  0  0  0
 15 22  1  1  0  0  0
 22 23  1  0  0  0  0
 23 24  1  0  0  0  0
 23 25  2  0  0  0  0
 24 26  2  0  0  0  0
 26 27  1  0  0  0  0
 27 28  2  0  0  0  0
 28 29  1  0  0  0  0
 29 30  2  0  0  0  0
 30 24  1  0  0  0  0
 26 31  1  0  0  0  0
  7 32  1  6  0  0  0
 11 32  1  6  0  0  0
M  END
>  <cdx:fragmentId>
733

$$$$
