39182.cdx
  Mrv1902 05222410252D          

 38 41  0  0  0  0            999 V2000
    9.1609   -8.7188    0.0000 C   0  0  0  0  0  0  0  0  0  0  0  0
    9.9678   -8.5468    0.0000 C   0  0  0  0  0  0  0  0  0  0  0  0
    8.9063   -9.5035    0.0000 O   0  0  0  0  0  0  0  0  0  0  0  0
    8.6085   -8.1059    0.0000 O   0  0  0  0  0  0  0  0  0  0  0  0
   10.5201   -9.1596    0.0000 C   0  0  0  0  0  0  0  0  0  0  0  0
   11.3270   -8.9877    0.0000 C   0  0  0  0  0  0  0  0  0  0  0  0
   11.8793   -9.6005    0.0000 C   0  0  0  0  0  0  0  0  0  0  0  0
   11.6248  -10.3853    0.0000 C   0  0  0  0  0  0  0  0  0  0  0  0
   10.8179  -10.5572    0.0000 C   0  0  0  0  0  0  0  0  0  0  0  0
   10.2656   -9.9444    0.0000 C   0  0  0  0  0  0  0  0  0  0  0  0
   12.1771  -10.9981    0.0000 O   0  0  0  0  0  0  0  0  0  0  0  0
    6.2282   -6.8253    0.0000 O   0  0  0  0  0  0  0  0  0  0  0  0
    6.4717   -7.6136    0.0000 C   0  0  1  0  0  0  0  0  0  0  0  0
    7.2966   -7.6255    0.0000 C   0  0  2  0  0  0  0  0  0  0  0  0
    7.5629   -6.8446    0.0000 C   0  0  0  0  0  0  0  0  0  0  0  0
    6.9025   -6.3501    0.0000 C   0  0  0  0  0  0  0  0  0  0  0  0
    5.4058   -9.4708    0.0000 C   0  0  0  0  0  0  0  0  0  0  0  0
    4.7924   -8.9191    0.0000 C   0  0  0  0  0  0  0  0  0  0  0  0
    5.1276   -8.1653    0.0000 C   0  0  0  0  0  0  0  0  0  0  0  0
    5.9481   -8.2511    0.0000 C   0  0  1  0  0  0  0  0  0  0  0  0
    7.8016   -8.2779    0.0000 C   0  0  2  0  0  0  0  0  0  0  0  0
    7.6065   -9.0795    0.0000 C   0  0  0  0  0  0  0  0  0  0  0  0
    6.8581   -9.4266    0.0000 C   0  0  0  0  0  0  0  0  0  0  0  0
    6.1200   -9.0580    0.0000 C   0  0  0  0  0  0  0  0  0  0  0  0
    5.3199  -10.2913    0.0000 O   0  0  0  0  0  0  0  0  0  0  0  0
    6.9145   -5.5252    0.0000 O   0  0  0  0  0  0  0  0  0  0  0  0
    8.3511   -6.6011    0.0000 C   0  0  0  0  0  0  0  0  0  0  0  0
    6.8461  -10.2515    0.0000 C   0  0  0  0  0  0  0  0  0  0  0  0
    4.7147   -7.4510    0.0000 C   0  0  0  0  0  0  0  0  0  0  0  0
    3.8897   -7.4514    0.0000 O   0  0  0  0  0  0  0  0  0  0  0  0
    8.1035   -7.4536    0.0000 H   0  0  0  0  0  0  0  0  0  0  0  0
    5.7761   -7.4442    0.0000 H   0  0  0  0  0  0  0  0  0  0  0  0
    6.6437   -8.4205    0.0000 H   0  0  0  0  0  0  0  0  0  0  0  0
    3.4768   -6.7371    0.0000 C   0  0  0  0  0  0  0  0  0  0  0  0
    2.6518   -6.7371    0.0000 C   0  0  0  0  0  0  0  0  0  0  0  0
    2.2393   -6.0227    0.0000 O   0  0  0  0  0  0  0  0  0  0  0  0
    2.2393   -7.4516    0.0000 O   0  0  0  0  0  0  0  0  0  0  0  0
    3.8892   -6.0226    0.0000 O   0  0  0  0  0  0  0  0  0  0  0  0
  1  2  1  0  0  0  0
  1  3  2  0  0  0  0
  1  4  1  0  0  0  0
  5  6  1  0  0  0  0
  6  7  2  0  0  0  0
  7  8  1  0  0  0  0
  8  9  2  0  0  0  0
  9 10  1  0  0  0  0
  5 10  2  0  0  0  0
  8 11  1  0  0  0  0
  2  5  1  0  0  0  0
 12 13  1  0  0  0  0
 13 14  1  0  0  0  0
 14 15  1  0  0  0  0
 15 16  1  0  0  0  0
 12 16  1  0  0  0  0
 17 18  1  0  0  0  0
 18 19  2  0  0  0  0
 19 20  1  0  0  0  0
 21 22  1  0  0  0  0
 22 23  1  0  0  0  0
 23 24  2  0  0  0  0
 17 24  1  0  0  0  0
 20 24  1  0  0  0  0
 20 13  1  0  0  0  0
 21 14  1  0  0  0  0
 17 25  2  0  0  0  0
 16 26  2  0  0  0  0
 15 27  2  0  0  0  0
 23 28  1  0  0  0  0
 29 30  1  0  0  0  0
 19 29  1  0  0  0  0
 21  4  1  1  0  0  0
 14 31  1  1  0  0  0
 20 32  1  1  0  0  0
 13 33  1  6  0  0  0
 30 34  1  0  0  0  0
 34 35  1  0  0  0  0
 35 36  2  0  0  0  0
 35 37  1  0  0  0  0
 34 38  2  0  0  0  0
M  END
>  <cdx:fragmentId>
45

$$$$
