1684.cdx
  Mrv1902 05222410242D          

 25 26  0  0  0  0            999 V2000
    7.3923   -9.8141    0.0000 C   0  0  0  0  0  0  0  0  0  0  0  0
    7.3923  -10.6391    0.0000 C   0  0  0  0  0  0  0  0  0  0  0  0
    8.1068  -11.0516    0.0000 C   0  0  0  0  0  0  0  0  0  0  0  0
    8.8212  -10.6391    0.0000 C   0  0  0  0  0  0  0  0  0  0  0  0
    8.8212   -9.8141    0.0000 C   0  0  0  0  0  0  0  0  0  0  0  0
    8.1068   -9.4016    0.0000 C   0  0  0  0  0  0  0  0  0  0  0  0
    6.6778  -11.0516    0.0000 C   0  0  0  0  0  0  0  0  0  0  0  0
    5.9634  -10.6391    0.0000 C   0  0  0  0  0  0  0  0  0  0  0  0
    9.5357   -9.4016    0.0000 O   0  0  0  0  0  0  0  0  0  0  0  0
    9.5357  -11.0516    0.0000 O   0  0  0  0  0  0  0  0  0  0  0  0
    9.5357  -11.8766    0.0000 C   0  0  0  0  0  0  0  0  0  0  0  0
    5.2489  -11.0516    0.0000 C   0  0  0  0  0  0  0  0  0  0  0  0
    4.5344  -10.6391    0.0000 O   0  0  0  0  0  0  0  0  0  0  0  0
    5.2489  -11.8766    0.0000 O   0  0  0  0  0  0  0  0  0  0  0  0
    3.8199  -11.0516    0.0000 C   0  0  2  0  0  0  0  0  0  0  0  0
    3.1055  -10.6391    0.0000 C   0  0  2  0  0  0  0  0  0  0  0  0
    2.3910  -11.0516    0.0000 C   0  0  2  0  0  0  0  0  0  0  0  0
    2.3910  -11.8766    0.0000 C   0  0  1  0  0  0  0  0  0  0  0  0
    3.1055  -12.2891    0.0000 O   0  0  0  0  0  0  0  0  0  0  0  0
    3.8199  -11.8766    0.0000 C   0  0  1  0  0  0  0  0  0  0  0  0
    1.6765  -12.2891    0.0000 O   0  0  0  0  0  0  0  0  0  0  0  0
    1.6765  -10.6391    0.0000 O   0  0  0  0  0  0  0  0  0  0  0  0
    3.1055   -9.8141    0.0000 O   0  0  0  0  0  0  0  0  0  0  0  0
    4.5344  -12.2891    0.0000 C   0  0  0  0  0  0  0  0  0  0  0  0
   10.2502   -9.8141    0.0000 C   0  0  0  0  0  0  0  0  0  0  0  0
  1  2  2  0  0  0  0
  2  3  1  0  0  0  0
  3  4  2  0  0  0  0
  4  5  1  0  0  0  0
  5  6  2  0  0  0  0
  6  1  1  0  0  0  0
  2  7  1  0  0  0  0
  7  8  2  0  0  0  0
  5  9  1  0  0  0  0
  4 10  1  0  0  0  0
 10 11  1  0  0  0  0
  8 12  1  0  0  0  0
 12 13  1  0  0  0  0
 12 14  2  0  0  0  0
 15 13  1  1  0  0  0
 15 16  1  0  0  0  0
 16 17  1  0  0  0  0
 17 18  1  0  0  0  0
 18 19  1  0  0  0  0
 19 20  1  0  0  0  0
 20 15  1  0  0  0  0
 18 21  1  1  0  0  0
 17 22  1  6  0  0  0
 16 23  1  6  0  0  0
 20 24  1  6  0  0  0
  9 25  1  0  0  0  0
M  END
>  <cdx:fragmentId>
633

$$$$
