39180.cdx
  Mrv1902 05222410222D          

 26 26  0  0  0  0            999 V2000
    2.9098   -2.9983    0.0000 C   0  0  0  0  0  0  0  0  0  0  0  0
    2.9098   -3.8233    0.0000 C   0  0  0  0  0  0  0  0  0  0  0  0
    2.1953   -4.2358    0.0000 C   0  0  0  0  0  0  0  0  0  0  0  0
    1.4809   -3.8233    0.0000 C   0  0  0  0  0  0  0  0  0  0  0  0
    1.4809   -2.9983    0.0000 C   0  0  0  0  0  0  0  0  0  0  0  0
    2.1953   -2.5858    0.0000 C   0  0  0  0  0  0  0  0  0  0  0  0
    3.6243   -2.5858    0.0000 C   0  0  0  0  0  0  0  0  0  0  0  0
    3.6243   -1.7608    0.0000 O   0  0  0  0  0  0  0  0  0  0  0  0
    4.3388   -2.9983    0.0000 O   0  0  0  0  0  0  0  0  0  0  0  0
    3.6243   -4.2358    0.0000 C   0  0  0  0  0  0  0  0  0  0  0  0
    3.6243   -5.0608    0.0000 O   0  0  0  0  0  0  0  0  0  0  0  0
    4.3388   -3.8233    0.0000 O   0  0  0  0  0  0  0  0  0  0  0  0
    5.0532   -2.5858    0.0000 C   0  0  0  0  0  0  0  0  0  0  0  0
    5.7677   -2.9983    0.0000 C   0  0  0  0  0  0  0  0  0  0  0  0
    6.4822   -2.5858    0.0000 C   0  0  0  0  0  0  0  0  0  0  0  0
    7.1966   -2.9983    0.0000 C   0  0  0  0  0  0  0  0  0  0  0  0
    5.0532   -4.2358    0.0000 C   0  0  0  0  0  0  0  0  0  0  0  0
    5.7677   -3.8233    0.0000 C   0  0  0  0  0  0  0  0  0  0  0  0
    6.4822   -4.2358    0.0000 C   0  0  0  0  0  0  0  0  0  0  0  0
    7.1966   -3.8233    0.0000 C   0  0  0  0  0  0  0  0  0  0  0  0
    7.9111   -4.2358    0.0000 C   0  0  0  0  0  0  0  0  0  0  0  0
    8.6256   -3.8233    0.0000 C   0  0  0  0  0  0  0  0  0  0  0  0
    9.3401   -4.2358    0.0000 C   0  0  0  0  0  0  0  0  0  0  0  0
   10.0545   -3.8233    0.0000 C   0  0  0  0  0  0  0  0  0  0  0  0
   10.7690   -4.2358    0.0000 C   0  0  0  0  0  0  0  0  0  0  0  0
   10.0545   -2.9983    0.0000 C   0  0  0  0  0  0  0  0  0  0  0  0
  1  2  1  0  0  0  0
  2  3  2  0  0  0  0
  3  4  1  0  0  0  0
  4  5  2  0  0  0  0
  5  6  1  0  0  0  0
  1  6  2  0  0  0  0
  7  8  2  0  0  0  0
  7  9  1  0  0  0  0
  1  7  1  0  0  0  0
 10 11  2  0  0  0  0
 10 12  1  0  0  0  0
  2 10  1  0  0  0  0
 13 14  1  0  0  0  0
 14 15  1  0  0  0  0
 15 16  1  0  0  0  0
  9 13  1  0  0  0  0
 17 18  1  0  0  0  0
 18 19  1  0  0  0  0
 19 20  1  0  0  0  0
 20 21  1  0  0  0  0
 21 22  1  0  0  0  0
 22 23  1  0  0  0  0
 23 24  1  0  0  0  0
 24 25  1  0  0  0  0
 24 26  1  0  0  0  0
 12 17  1  0  0  0  0
M  END
>  <cdx:groupId>
80

>  <cdx:fragmentId>
5

$$$$
