39192.cdx
  Mrv1902 05222410232D          

 34 37  0  0  0  0            999 V2000
    4.0064   -5.5481    0.0000 C   0  0  0  0  0  0  0  0  0  0  0  0
    4.0064   -6.3731    0.0000 C   0  0  0  0  0  0  0  0  0  0  0  0
    4.7208   -6.7856    0.0000 C   0  0  0  0  0  0  0  0  0  0  0  0
    5.4353   -6.3731    0.0000 C   0  0  0  0  0  0  0  0  0  0  0  0
    5.4353   -5.5481    0.0000 C   0  0  0  0  0  0  0  0  0  0  0  0
    4.7208   -5.1356    0.0000 C   0  0  0  0  0  0  0  0  0  0  0  0
    6.1498   -6.7856    0.0000 C   0  0  2  0  0  0  0  0  0  0  0  0
    6.8642   -6.3731    0.0000 N   0  0  0  0  0  0  0  0  0  0  0  0
    6.8642   -5.5481    0.0000 C   0  0  0  0  0  0  0  0  0  0  0  0
    6.1498   -5.1356    0.0000 C   0  0  0  0  0  0  0  0  0  0  0  0
    7.5787   -6.7856    0.0000 C   0  0  0  0  0  0  0  0  0  0  0  0
    6.1498   -7.6106    0.0000 C   0  0  0  0  0  0  0  0  0  0  0  0
    6.8642   -8.0231    0.0000 C   0  0  0  0  0  0  0  0  0  0  0  0
    6.8642   -8.8481    0.0000 C   0  0  0  0  0  0  0  0  0  0  0  0
    7.5787   -9.2606    0.0000 C   0  0  0  0  0  0  0  0  0  0  0  0
    8.2932   -8.8481    0.0000 C   0  0  0  0  0  0  0  0  0  0  0  0
    8.2932   -8.0231    0.0000 C   0  0  0  0  0  0  0  0  0  0  0  0
    7.5787   -7.6106    0.0000 C   0  0  0  0  0  0  0  0  0  0  0  0
    9.0077   -7.6106    0.0000 O   0  0  0  0  0  0  0  0  0  0  0  0
    9.0077   -9.2606    0.0000 O   0  0  0  0  0  0  0  0  0  0  0  0
    6.8642   -7.1981    0.0000 H   0  0  0  0  0  0  0  0  0  0  0  0
    3.2919   -5.1356    0.0000 O   0  0  0  0  0  0  0  0  0  0  0  0
    3.2919   -6.7856    0.0000 O   0  0  0  0  0  0  0  0  0  0  0  0
    9.7221   -8.0231    0.0000 C   0  0  2  0  0  0  0  0  0  0  0  0
    9.7221   -8.8481    0.0000 O   0  0  0  0  0  0  0  0  0  0  0  0
   10.4366   -9.2606    0.0000 C   0  0  1  0  0  0  0  0  0  0  0  0
   11.1511   -8.8481    0.0000 C   0  0  2  0  0  0  0  0  0  0  0  0
   11.1511   -8.0231    0.0000 C   0  0  1  0  0  0  0  0  0  0  0  0
   10.4366   -7.6106    0.0000 C   0  0  1  0  0  0  0  0  0  0  0  0
   10.4366  -10.0856    0.0000 C   0  0  0  0  0  0  0  0  0  0  0  0
   11.8655   -7.6106    0.0000 O   0  0  0  0  0  0  0  0  0  0  0  0
   10.4366   -6.7856    0.0000 O   0  0  0  0  0  0  0  0  0  0  0  0
   11.8655   -9.2606    0.0000 O   0  0  0  0  0  0  0  0  0  0  0  0
   11.1511  -10.4981    0.0000 O   0  0  0  0  0  0  0  0  0  0  0  0
  1  2  2  0  0  0  0
  2  3  1  0  0  0  0
  3  4  2  0  0  0  0
  4  5  1  0  0  0  0
  5  6  2  0  0  0  0
  6  1  1  0  0  0  0
  4  7  1  0  0  0  0
  7  8  1  0  0  0  0
  8  9  1  0  0  0  0
  9 10  1  0  0  0  0
 10  5  1  0  0  0  0
  8 11  1  0  0  0  0
  7 12  1  0  0  0  0
 12 13  1  0  0  0  0
 13 14  2  0  0  0  0
 14 15  1  0  0  0  0
 15 16  2  0  0  0  0
 16 17  1  0  0  0  0
 17 18  2  0  0  0  0
 18 13  1  0  0  0  0
 17 19  1  0  0  0  0
 16 20  1  0  0  0  0
  7 21  1  1  0  0  0
  1 22  1  0  0  0  0
  2 23  1  0  0  0  0
 24 19  1  1  0  0  0
 24 25  1  0  0  0  0
 25 26  1  0  0  0  0
 26 27  1  0  0  0  0
 27 28  1  0  0  0  0
 28 29  1  0  0  0  0
 29 24  1  0  0  0  0
 26 30  1  1  0  0  0
 28 31  1  1  0  0  0
 29 32  1  6  0  0  0
 27 33  1  6  0  0  0
 30 34  1  0  0  0  0
M  END
>  <cdx:fragmentId>
1696

$$$$
