1695.cdx
  Mrv1902 05222410252D          

 36 39  0  0  0  0            999 V2000
    3.2673   -7.1500    0.0000 C   0  0  0  0  0  0  0  0  0  0  0  0
    3.2673   -7.9750    0.0000 C   0  0  0  0  0  0  0  0  0  0  0  0
    3.9818   -8.3875    0.0000 C   0  0  0  0  0  0  0  0  0  0  0  0
    4.6962   -7.9750    0.0000 C   0  0  0  0  0  0  0  0  0  0  0  0
    4.6962   -7.1500    0.0000 C   0  0  0  0  0  0  0  0  0  0  0  0
    3.9818   -6.7375    0.0000 C   0  0  0  0  0  0  0  0  0  0  0  0
    5.4107   -6.7375    0.0000 C   0  0  0  0  0  0  0  0  0  0  0  0
    6.1644   -7.0731    0.0000 O   0  0  0  0  0  0  0  0  0  0  0  0
    6.7164   -6.4600    0.0000 C   0  0  0  0  0  0  0  0  0  0  0  0
    6.3039   -5.7455    0.0000 C   0  0  0  0  0  0  0  0  0  0  0  0
    5.4969   -5.9170    0.0000 C   0  0  0  0  0  0  0  0  0  0  0  0
    7.5414   -6.4600    0.0000 C   0  0  0  0  0  0  0  0  0  0  0  0
    7.9539   -5.7455    0.0000 C   0  0  0  0  0  0  0  0  0  0  0  0
    7.5414   -5.0310    0.0000 C   0  0  0  0  0  0  0  0  0  0  0  0
    6.7164   -5.0310    0.0000 C   0  0  0  0  0  0  0  0  0  0  0  0
    2.5528   -8.3875    0.0000 O   0  0  0  0  0  0  0  0  0  0  0  0
    3.9818   -9.2125    0.0000 O   0  0  0  0  0  0  0  0  0  0  0  0
    3.2673   -9.6250    0.0000 C   0  0  0  0  0  0  0  0  0  0  0  0
    4.8839   -5.3650    0.0000 C   0  0  0  0  0  0  0  0  0  0  0  0
    5.0554   -4.5580    0.0000 O   0  0  0  0  0  0  0  0  0  0  0  0
    7.9539   -7.1744    0.0000 O   0  0  0  0  0  0  0  0  0  0  0  0
    8.7789   -7.1744    0.0000 C   0  0  0  0  0  0  0  0  0  0  0  0
    7.9539   -4.3166    0.0000 C   0  0  0  0  0  0  0  0  0  0  0  0
    8.7789   -4.3166    0.0000 C   0  0  0  0  0  0  0  0  0  0  0  0
    7.5414   -3.6021    0.0000 O   0  0  0  0  0  0  0  0  0  0  0  0
    9.1914   -5.0310    0.0000 C   0  0  0  0  0  0  0  0  0  0  0  0
    9.1914   -3.6021    0.0000 C   0  0  0  0  0  0  0  0  0  0  0  0
   10.0164   -5.0310    0.0000 O   0  0  0  0  0  0  0  0  0  0  0  0
   10.0164   -3.6021    0.0000 C   0  0  0  0  0  0  0  0  0  0  0  0
   10.4289   -2.8876    0.0000 C   0  0  0  0  0  0  0  0  0  0  0  0
   10.0164   -2.1731    0.0000 C   0  0  0  0  0  0  0  0  0  0  0  0
    9.1914   -2.1731    0.0000 C   0  0  0  0  0  0  0  0  0  0  0  0
    8.7789   -2.8876    0.0000 C   0  0  0  0  0  0  0  0  0  0  0  0
   10.4289   -1.4587    0.0000 O   0  0  0  0  0  0  0  0  0  0  0  0
   11.2539   -2.8876    0.0000 O   0  0  0  0  0  0  0  0  0  0  0  0
   11.6664   -3.6021    0.0000 C   0  0  0  0  0  0  0  0  0  0  0  0
  1  2  2  0  0  0  0
  2  3  1  0  0  0  0
  3  4  2  0  0  0  0
  4  5  1  0  0  0  0
  5  6  2  0  0  0  0
  6  1  1  0  0  0  0
  5  7  1  0  0  0  0
  7  8  1  0  0  0  0
  8  9  1  0  0  0  0
  9 10  2  0  0  0  0
 10 11  1  0  0  0  0
 11  7  1  0  0  0  0
  9 12  1  0  0  0  0
 12 13  2  0  0  0  0
 13 14  1  0  0  0  0
 14 15  2  0  0  0  0
 15 10  1  0  0  0  0
  2 16  1  0  0  0  0
  3 17  1  0  0  0  0
 17 18  1  0  0  0  0
 11 19  1  0  0  0  0
 19 20  1  0  0  0  0
 12 21  1  0  0  0  0
 21 22  1  0  0  0  0
 14 23  1  0  0  0  0
 23 24  1  0  0  0  0
 23 25  1  0  0  0  0
 24 26  1  0  0  0  0
 24 27  1  0  0  0  0
 26 28  1  0  0  0  0
 27 29  2  0  0  0  0
 29 30  1  0  0  0  0
 30 31  2  0  0  0  0
 31 32  1  0  0  0  0
 32 33  2  0  0  0  0
 33 27  1  0  0  0  0
 31 34  1  0  0  0  0
 30 35  1  0  0  0  0
 35 36  1  0  0  0  0
M  END
>  <cdx:fragmentId>
264

$$$$
