39191.cdx
  Mrv1902 05222410242D          

 23 24  0  0  0  0            999 V2000
    5.0880   -5.6375    0.0000 C   0  0  0  0  0  0  0  0  0  0  0  0
    5.0880   -6.4625    0.0000 C   0  0  0  0  0  0  0  0  0  0  0  0
    5.8025   -6.8750    0.0000 C   0  0  0  0  0  0  0  0  0  0  0  0
    6.5170   -6.4625    0.0000 C   0  0  0  0  0  0  0  0  0  0  0  0
    6.5170   -5.6375    0.0000 C   0  0  0  0  0  0  0  0  0  0  0  0
    5.8025   -5.2250    0.0000 C   0  0  0  0  0  0  0  0  0  0  0  0
    4.3736   -6.8750    0.0000 O   0  0  0  0  0  0  0  0  0  0  0  0
    3.6591   -6.4625    0.0000 C   0  0  0  0  0  0  0  0  0  0  0  0
    7.2314   -5.2250    0.0000 O   0  0  0  0  0  0  0  0  0  0  0  0
    7.2314   -6.8750    0.0000 C   0  0  0  0  0  0  0  0  0  0  0  0
    7.9459   -6.4625    0.0000 C   0  0  0  0  0  0  0  0  0  0  0  0
    7.2314   -7.7000    0.0000 O   0  0  0  0  0  0  0  0  0  0  0  0
    8.6604   -6.8750    0.0000 C   0  0  0  0  0  0  0  0  0  0  0  0
    7.9459   -5.6375    0.0000 C   0  0  0  0  0  0  0  0  0  0  0  0
    8.6604   -5.2250    0.0000 O   0  0  0  0  0  0  0  0  0  0  0  0
    8.6604   -7.7000    0.0000 C   0  0  0  0  0  0  0  0  0  0  0  0
    9.3749   -8.1125    0.0000 C   0  0  0  0  0  0  0  0  0  0  0  0
   10.0893   -7.7000    0.0000 C   0  0  0  0  0  0  0  0  0  0  0  0
   10.0893   -6.8750    0.0000 C   0  0  0  0  0  0  0  0  0  0  0  0
    9.3749   -6.4625    0.0000 C   0  0  0  0  0  0  0  0  0  0  0  0
   10.8038   -6.4625    0.0000 O   0  0  0  0  0  0  0  0  0  0  0  0
   10.8038   -8.1125    0.0000 O   0  0  0  0  0  0  0  0  0  0  0  0
   11.5183   -6.8750    0.0000 C   0  0  0  0  0  0  0  0  0  0  0  0
  1  2  2  0  0  0  0
  2  3  1  0  0  0  0
  3  4  2  0  0  0  0
  4  5  1  0  0  0  0
  5  6  2  0  0  0  0
  6  1  1  0  0  0  0
  2  7  1  0  0  0  0
  7  8  1  0  0  0  0
  5  9  1  0  0  0  0
  4 10  1  0  0  0  0
 10 11  1  0  0  0  0
 10 12  2  0  0  0  0
 11 13  1  0  0  0  0
 11 14  1  0  0  0  0
 14 15  1  0  0  0  0
 13 16  2  0  0  0  0
 16 17  1  0  0  0  0
 17 18  2  0  0  0  0
 18 19  1  0  0  0  0
 19 20  2  0  0  0  0
 20 13  1  0  0  0  0
 19 21  1  0  0  0  0
 18 22  1  0  0  0  0
 21 23  1  0  0  0  0
M  END
>  <cdx:fragmentId>
622

$$$$
