39193.cdx
  Mrv1902 05222410232D          

 27 29  0  0  0  0            999 V2000
    7.4463   -9.1769    0.0000 O   0  0  0  0  0  0  0  0  0  0  0  0
    8.1083   -9.6692    0.0000 C   0  0  2  0  0  0  0  0  0  0  0  0
    7.8446  -10.4509    0.0000 C   0  0  1  0  0  0  0  0  0  0  0  0
    7.0197  -10.4418    0.0000 C   0  0  2  0  0  0  0  0  0  0  0  0
    6.7735   -9.6543    0.0000 C   0  0  2  0  0  0  0  0  0  0  0  0
    8.3221  -11.1237    0.0000 C   0  0  0  0  0  0  0  0  0  0  0  0
    9.1435  -11.0466    0.0000 O   0  0  0  0  0  0  0  0  0  0  0  0
    6.5274  -11.1038    0.0000 C   0  0  0  0  0  0  0  0  0  0  0  0
    5.7079  -11.0084    0.0000 O   0  0  0  0  0  0  0  0  0  0  0  0
    5.9918   -9.3907    0.0000 C   0  0  0  0  0  0  0  0  0  0  0  0
    5.8292   -8.5819    0.0000 C   0  0  0  0  0  0  0  0  0  0  0  0
    5.0475   -8.3182    0.0000 C   0  0  0  0  0  0  0  0  0  0  0  0
    4.4283   -8.8634    0.0000 C   0  0  0  0  0  0  0  0  0  0  0  0
    4.5908   -9.6722    0.0000 C   0  0  0  0  0  0  0  0  0  0  0  0
    5.3725   -9.9359    0.0000 C   0  0  0  0  0  0  0  0  0  0  0  0
    4.8850   -7.5094    0.0000 O   0  0  0  0  0  0  0  0  0  0  0  0
    4.1032   -7.2457    0.0000 C   0  0  0  0  0  0  0  0  0  0  0  0
    3.6465   -8.5997    0.0000 O   0  0  0  0  0  0  0  0  0  0  0  0
    8.8957   -9.4230    0.0000 C   0  0  0  0  0  0  0  0  0  0  0  0
    9.0762   -8.6180    0.0000 C   0  0  0  0  0  0  0  0  0  0  0  0
    9.8636   -8.3718    0.0000 C   0  0  0  0  0  0  0  0  0  0  0  0
   10.4705   -8.9306    0.0000 C   0  0  0  0  0  0  0  0  0  0  0  0
   10.2900   -9.7357    0.0000 C   0  0  0  0  0  0  0  0  0  0  0  0
    9.5026   -9.9818    0.0000 C   0  0  0  0  0  0  0  0  0  0  0  0
   10.8969  -10.2945    0.0000 O   0  0  0  0  0  0  0  0  0  0  0  0
   11.6843  -10.0483    0.0000 C   0  0  0  0  0  0  0  0  0  0  0  0
   10.0441   -7.5668    0.0000 O   0  0  0  0  0  0  0  0  0  0  0  0
  1  2  1  0  0  0  0
  2  3  1  0  0  0  0
  3  4  1  0  0  0  0
  4  5  1  0  0  0  0
  1  5  1  0  0  0  0
  6  7  1  0  0  0  0
  3  6  1  6  0  0  0
  8  9  1  0  0  0  0
  4  8  1  1  0  0  0
 10 11  1  0  0  0  0
 11 12  2  0  0  0  0
 12 13  1  0  0  0  0
 13 14  2  0  0  0  0
 14 15  1  0  0  0  0
 10 15  2  0  0  0  0
 16 17  1  0  0  0  0
 12 16  1  0  0  0  0
 13 18  1  0  0  0  0
  5 10  1  6  0  0  0
 19 20  1  0  0  0  0
 20 21  2  0  0  0  0
 21 22  1  0  0  0  0
 22 23  2  0  0  0  0
 23 24  1  0  0  0  0
 19 24  2  0  0  0  0
 25 26  1  0  0  0  0
 23 25  1  0  0  0  0
 21 27  1  0  0  0  0
  2 19  1  1  0  0  0
M  END
>  <cdx:groupId>
1847

>  <cdx:fragmentId>
1785

$$$$
