39197.cdx
  Mrv1902 05222410252D          

 31 33  0  0  0  0            999 V2000
    7.9270   -7.7510    0.0000 C   0  0  0  0  0  0  0  0  0  0  0  0
    7.9374   -6.9261    0.0000 C   0  0  0  0  0  0  0  0  0  0  0  0
    8.6570   -6.5226    0.0000 O   0  0  0  0  0  0  0  0  0  0  0  0
   12.9228   -8.2264    0.0000 C   0  0  0  0  0  0  0  0  0  0  0  0
   12.2135   -7.8049    0.0000 C   0  0  0  0  0  0  0  0  0  0  0  0
   11.4939   -8.2084    0.0000 C   0  0  0  0  0  0  0  0  0  0  0  0
   10.0651   -8.1904    0.0000 C   0  0  0  0  0  0  0  0  0  0  0  0
   10.7847   -7.7870    0.0000 C   0  0  0  0  0  0  0  0  0  0  0  0
   10.7951   -6.9620    0.0000 C   0  0  0  0  0  0  0  0  0  0  0  0
   10.0858   -6.5406    0.0000 C   0  0  0  0  0  0  0  0  0  0  0  0
    7.2282   -6.5047    0.0000 C   0  0  0  0  0  0  0  0  0  0  0  0
    9.3662   -6.9441    0.0000 C   0  0  0  0  0  0  0  0  0  0  0  0
    9.3559   -7.7690    0.0000 C   0  0  0  0  0  0  0  0  0  0  0  0
    6.5086   -6.9081    0.0000 C   0  0  0  0  0  0  0  0  0  0  0  0
    5.8001   -6.4855    0.0000 C   0  0  0  0  0  0  0  0  0  0  0  0
    5.0800   -6.8881    0.0000 C   0  0  0  0  0  0  0  0  0  0  0  0
    5.0685   -7.7134    0.0000 C   0  0  0  0  0  0  0  0  0  0  0  0
    5.7777   -8.1357    0.0000 C   0  0  0  0  0  0  0  0  0  0  0  0
    6.4977   -7.7331    0.0000 C   0  0  0  0  0  0  0  0  0  0  0  0
    4.3484   -8.1161    0.0000 O   0  0  0  0  0  0  0  0  0  0  0  0
    3.6396   -7.6938    0.0000 C   0  0  2  0  0  0  0  0  0  0  0  0
    3.6510   -6.8689    0.0000 O   0  0  0  0  0  0  0  0  0  0  0  0
    2.9422   -6.4466    0.0000 C   0  0  1  0  0  0  0  0  0  0  0  0
    2.2222   -6.8493    0.0000 C   0  0  2  0  0  0  0  0  0  0  0  0
    2.2108   -7.6742    0.0000 C   0  0  1  0  0  0  0  0  0  0  0  0
    2.9196   -8.0965    0.0000 C   0  0  1  0  0  0  0  0  0  0  0  0
    2.9536   -5.6217    0.0000 C   0  0  0  0  0  0  0  0  0  0  0  0
    1.4908   -8.0769    0.0000 O   0  0  0  0  0  0  0  0  0  0  0  0
    2.9083   -8.9214    0.0000 O   0  0  0  0  0  0  0  0  0  0  0  0
    1.5134   -6.4270    0.0000 O   0  0  0  0  0  0  0  0  0  0  0  0
    2.2448   -5.1994    0.0000 O   0  0  0  0  0  0  0  0  0  0  0  0
  2  1  1  0  0  0  0
  3  2  1  0  0  0  0
 12  3  1  0  0  0  0
  5  4  1  0  0  0  0
  6  5  1  0  0  0  0
  8  6  1  0  0  0  0
  7 13  1  0  0  0  0
  8  7  2  0  0  0  0
  9  8  1  0  0  0  0
 10  9  2  0  0  0  0
 12 10  1  0  0  0  0
 13 12  2  0  0  0  0
  2 11  1  0  0  0  0
 11 14  1  0  0  0  0
 14 15  2  0  0  0  0
 15 16  1  0  0  0  0
 16 17  2  0  0  0  0
 17 18  1  0  0  0  0
 18 19  2  0  0  0  0
 19 14  1  0  0  0  0
 17 20  1  0  0  0  0
 21 20  1  1  0  0  0
 21 22  1  0  0  0  0
 22 23  1  0  0  0  0
 23 24  1  0  0  0  0
 24 25  1  0  0  0  0
 25 26  1  0  0  0  0
 26 21  1  0  0  0  0
 23 27  1  1  0  0  0
 25 28  1  1  0  0  0
 26 29  1  6  0  0  0
 24 30  1  6  0  0  0
 27 31  1  0  0  0  0
M  END
>  <cdx:fragmentId>
518

$$$$
