39196.cdx
  Mrv1902 05222410252D          

 37 39  0  0  0  0            999 V2000
    5.5855   -7.4335    0.0000 C   0  0  0  0  0  0  0  0  0  0  0  0
    7.0145   -9.0835    0.0000 C   0  0  0  0  0  0  0  0  0  0  0  0
    5.5855   -6.6085    0.0000 O   0  0  0  0  0  0  0  0  0  0  0  0
    7.0145   -9.9085    0.0000 C   0  0  0  0  0  0  0  0  0  0  0  0
    4.8710   -7.8460    0.0000 C   0  0  0  0  0  0  0  0  0  0  0  0
    4.1566   -7.4335    0.0000 C   0  0  0  0  0  0  0  0  0  0  0  0
    3.4421   -7.8460    0.0000 C   0  0  0  0  0  0  0  0  0  0  0  0
    3.4421   -8.6710    0.0000 C   0  0  0  0  0  0  0  0  0  0  0  0
    4.1566   -9.0835    0.0000 C   0  0  0  0  0  0  0  0  0  0  0  0
    4.8710   -8.6710    0.0000 C   0  0  0  0  0  0  0  0  0  0  0  0
    2.7276   -7.4335    0.0000 O   0  0  0  0  0  0  0  0  0  0  0  0
    2.0132   -7.8460    0.0000 C   0  0  0  0  0  0  0  0  0  0  0  0
    2.7276   -9.0835    0.0000 O   0  0  0  0  0  0  0  0  0  0  0  0
    7.7289  -10.3210    0.0000 C   0  0  0  0  0  0  0  0  0  0  0  0
    8.4434   -9.9085    0.0000 C   0  0  0  0  0  0  0  0  0  0  0  0
    8.4434   -9.0835    0.0000 C   0  0  0  0  0  0  0  0  0  0  0  0
    7.7289   -8.6710    0.0000 C   0  0  0  0  0  0  0  0  0  0  0  0
    6.3000  -10.3210    0.0000 O   0  0  0  0  0  0  0  0  0  0  0  0
    5.5855   -9.9085    0.0000 C   0  0  0  0  0  0  0  0  0  0  0  0
    9.1579  -10.3210    0.0000 C   0  0  0  0  0  0  0  0  0  0  0  0
    9.8723   -9.9085    0.0000 C   0  0  0  0  0  0  0  0  0  0  0  0
   10.5868  -10.3210    0.0000 C   0  0  0  0  0  0  0  0  0  0  0  0
   11.3013   -9.9085    0.0000 O   0  0  0  0  0  0  0  0  0  0  0  0
    9.1579  -11.1460    0.0000 O   0  0  0  0  0  0  0  0  0  0  0  0
    9.8723   -6.6085    0.0000 O   0  0  0  0  0  0  0  0  0  0  0  0
   12.0158   -7.8460    0.0000 C   0  0  0  0  0  0  0  0  0  0  0  0
   11.3013   -7.4335    0.0000 O   0  0  0  0  0  0  0  0  0  0  0  0
    9.1579   -8.6710    0.0000 C   0  0  0  0  0  0  0  0  0  0  0  0
    9.1579   -7.8460    0.0000 C   0  0  0  0  0  0  0  0  0  0  0  0
    9.8723   -7.4335    0.0000 C   0  0  0  0  0  0  0  0  0  0  0  0
   10.5868   -7.8460    0.0000 C   0  0  0  0  0  0  0  0  0  0  0  0
   10.5868   -8.6710    0.0000 C   0  0  0  0  0  0  0  0  0  0  0  0
    9.8723   -9.0835    0.0000 C   0  0  0  0  0  0  0  0  0  0  0  0
    6.3000   -8.6710    0.0000 O   0  0  0  0  0  0  0  0  0  0  0  0
    7.0145   -6.6085    0.0000 O   0  0  0  0  0  0  0  0  0  0  0  0
    7.0145   -7.4335    0.0000 C   0  0  0  0  0  0  0  0  0  0  0  0
    6.3000   -7.8460    0.0000 C   0  0  0  0  0  0  0  0  0  0  0  0
 37 34  1  0  0  0  0
 30 25  1  0  0  0  0
 31 27  1  0  0  0  0
 27 26  1  0  0  0  0
 33 28  2  0  0  0  0
 29 28  1  0  0  0  0
 30 29  2  0  0  0  0
 34  2  1  0  0  0  0
 31 30  1  0  0  0  0
 32 31  2  0  0  0  0
 33 32  1  0  0  0  0
  2  4  1  0  0  0  0
 36 35  1  0  0  0  0
  1 37  1  0  0  0  0
 37 36  1  0  0  0  0
  1  3  1  0  0  0  0
  4 14  2  0  0  0  0
  5  6  1  0  0  0  0
  6  7  2  0  0  0  0
  7  8  1  0  0  0  0
  8  9  2  0  0  0  0
  9 10  1  0  0  0  0
  5 10  2  0  0  0  0
 11 12  1  0  0  0  0
  7 11  1  0  0  0  0
  8 13  1  0  0  0  0
  1  5  1  0  0  0  0
 14 15  1  0  0  0  0
 15 16  2  0  0  0  0
 16 17  1  0  0  0  0
  2 17  2  0  0  0  0
 18 19  1  0  0  0  0
  4 18  1  0  0  0  0
 20 21  1  0  0  0  0
 21 22  1  0  0  0  0
 21 33  1  0  0  0  0
 22 23  1  0  0  0  0
 20 24  1  0  0  0  0
 15 20  1  0  0  0  0
M  END
>  <cdx:groupId>
476

>  <cdx:fragmentId>
418

$$$$
