39198.cdx
  Mrv1902 05222410212D          

 27 30  0  0  0  0            999 V2000
    4.5105   -5.4450    0.0000 C   0  0  0  0  0  0  0  0  0  0  0  0
    4.5105   -6.2700    0.0000 C   0  0  0  0  0  0  0  0  0  0  0  0
    5.2250   -6.6825    0.0000 C   0  0  0  0  0  0  0  0  0  0  0  0
    5.9395   -6.2700    0.0000 C   0  0  0  0  0  0  0  0  0  0  0  0
    5.9395   -5.4450    0.0000 C   0  0  0  0  0  0  0  0  0  0  0  0
    5.2250   -5.0325    0.0000 C   0  0  0  0  0  0  0  0  0  0  0  0
    6.6539   -6.6825    0.0000 C   0  0  1  0  0  0  0  0  0  0  0  0
    7.3684   -6.2700    0.0000 C   0  0  1  0  0  0  0  0  0  0  0  0
    7.3684   -5.4450    0.0000 C   0  0  0  0  0  0  0  0  0  0  0  0
    6.6539   -5.0325    0.0000 O   0  0  0  0  0  0  0  0  0  0  0  0
    6.8255   -7.4895    0.0000 O   0  0  0  0  0  0  0  0  0  0  0  0
    7.6459   -7.5757    0.0000 C   0  0  0  0  0  0  0  0  0  0  0  0
    7.9815   -6.8220    0.0000 C   0  0  0  0  0  0  0  0  0  0  0  0
    8.1309   -8.2431    0.0000 C   0  0  0  0  0  0  0  0  0  0  0  0
    8.9514   -8.1569    0.0000 C   0  0  0  0  0  0  0  0  0  0  0  0
    9.2869   -7.4032    0.0000 C   0  0  0  0  0  0  0  0  0  0  0  0
    8.8020   -6.7358    0.0000 C   0  0  0  0  0  0  0  0  0  0  0  0
   10.1074   -7.3170    0.0000 C   0  0  0  0  0  0  0  0  0  0  0  0
   10.5923   -7.9844    0.0000 C   0  0  0  0  0  0  0  0  0  0  0  0
   11.4128   -7.8982    0.0000 C   0  0  0  0  0  0  0  0  0  0  0  0
   11.8977   -8.5656    0.0000 O   0  0  0  0  0  0  0  0  0  0  0  0
    7.7953   -8.9968    0.0000 O   0  0  0  0  0  0  0  0  0  0  0  0
    8.2802   -9.6643    0.0000 C   0  0  0  0  0  0  0  0  0  0  0  0
    8.0829   -5.8575    0.0000 H   0  0  0  0  0  0  0  0  0  0  0  0
    5.9395   -7.0950    0.0000 H   0  0  0  0  0  0  0  0  0  0  0  0
    3.7961   -6.6825    0.0000 O   0  0  0  0  0  0  0  0  0  0  0  0
    3.0816   -6.2700    0.0000 C   0  0  0  0  0  0  0  0  0  0  0  0
  1  2  2  0  0  0  0
  2  3  1  0  0  0  0
  3  4  2  0  0  0  0
  4  5  1  0  0  0  0
  5  6  2  0  0  0  0
  6  1  1  0  0  0  0
  4  7  1  0  0  0  0
  7  8  1  0  0  0  0
  8  9  1  0  0  0  0
  9 10  1  0  0  0  0
 10  5  1  0  0  0  0
  7 11  1  0  0  0  0
 11 12  1  0  0  0  0
 12 13  2  0  0  0  0
 13  8  1  0  0  0  0
 12 14  1  0  0  0  0
 14 15  2  0  0  0  0
 15 16  1  0  0  0  0
 16 17  2  0  0  0  0
 17 13  1  0  0  0  0
 16 18  1  0  0  0  0
 18 19  2  0  0  0  0
 19 20  1  0  0  0  0
 20 21  2  0  0  0  0
 14 22  1  0  0  0  0
 22 23  1  0  0  0  0
  8 24  1  6  0  0  0
  7 25  1  6  0  0  0
  2 26  1  0  0  0  0
 26 27  1  0  0  0  0
M  END
>  <cdx:fragmentId>
518

$$$$
