39199.cdx
  Mrv1902 05222410212D          

 23 25  0  0  0  0            999 V2000
    8.6122   -8.3918    0.0000 C   0  0  0  0  0  0  0  0  0  0  0  0
    8.2771   -9.1456    0.0000 O   0  0  0  0  0  0  0  0  0  0  0  0
    7.7136   -6.4553    0.0000 O   0  0  0  0  0  0  0  0  0  0  0  0
    8.3813   -6.9398    0.0000 C   0  0  0  0  0  0  0  0  0  0  0  0
    8.1269   -7.7246    0.0000 C   0  0  2  0  0  0  0  0  0  0  0  0
    7.3019   -7.7251    0.0000 C   0  0  2  0  0  0  0  0  0  0  0  0
    7.0465   -6.9406    0.0000 C   0  0  2  0  0  0  0  0  0  0  0  0
    6.2617   -6.6862    0.0000 C   0  0  0  0  0  0  0  0  0  0  0  0
    5.6489   -7.2386    0.0000 C   0  0  0  0  0  0  0  0  0  0  0  0
    4.8641   -6.9841    0.0000 C   0  0  0  0  0  0  0  0  0  0  0  0
    4.6921   -6.1772    0.0000 C   0  0  0  0  0  0  0  0  0  0  0  0
    5.3049   -5.6248    0.0000 C   0  0  0  0  0  0  0  0  0  0  0  0
    6.0897   -5.8793    0.0000 C   0  0  0  0  0  0  0  0  0  0  0  0
    3.9074   -5.9228    0.0000 O   0  0  0  0  0  0  0  0  0  0  0  0
    6.8173   -8.3928    0.0000 C   0  0  0  0  0  0  0  0  0  0  0  0
    5.9968   -8.3071    0.0000 O   0  0  0  0  0  0  0  0  0  0  0  0
    9.4326   -8.3050    0.0000 C   0  0  0  0  0  0  0  0  0  0  0  0
    9.7677   -7.5512    0.0000 C   0  0  0  0  0  0  0  0  0  0  0  0
   10.5882   -7.4644    0.0000 C   0  0  0  0  0  0  0  0  0  0  0  0
   11.0735   -8.1316    0.0000 C   0  0  0  0  0  0  0  0  0  0  0  0
   10.7384   -8.8855    0.0000 C   0  0  0  0  0  0  0  0  0  0  0  0
    9.9179   -8.9722    0.0000 C   0  0  0  0  0  0  0  0  0  0  0  0
   11.8939   -8.0448    0.0000 O   0  0  0  0  0  0  0  0  0  0  0  0
  1  2  2  0  0  0  0
  3  4  1  0  0  0  0
  4  5  1  0  0  0  0
  5  6  1  0  0  0  0
  6  7  1  0  0  0  0
  3  7  1  0  0  0  0
  8  9  1  0  0  0  0
  9 10  2  0  0  0  0
 10 11  1  0  0  0  0
 11 12  2  0  0  0  0
 12 13  1  0  0  0  0
  8 13  2  0  0  0  0
 11 14  1  0  0  0  0
  7  8  1  6  0  0  0
 15 16  1  0  0  0  0
  6 15  1  1  0  0  0
  5  1  1  1  0  0  0
 17 18  1  0  0  0  0
 18 19  2  0  0  0  0
 19 20  1  0  0  0  0
 20 21  2  0  0  0  0
 21 22  1  0  0  0  0
 17 22  2  0  0  0  0
 20 23  1  0  0  0  0
  1 17  1  0  0  0  0
M  END
>  <cdx:groupId>
741

>  <cdx:fragmentId>
687

$$$$
