392.cdx
  Mrv1902 05222410242D          

 10 10  0  0  0  0            999 V2000
    8.4837   -9.9236    0.0000 C   0  0  0  0  0  0  0  0  0  0  0  0
    8.4976   -9.0988    0.0000 C   0  0  0  0  0  0  0  0  0  0  0  0
    7.7902   -8.6743    0.0000 N   0  0  0  0  0  0  0  0  0  0  0  0
    7.0688   -9.0747    0.0000 C   0  0  1  0  0  0  0  0  0  0  0  0
    7.0549   -9.8995    0.0000 C   0  0  2  0  0  0  0  0  0  0  0  0
    7.7623  -10.3240    0.0000 C   0  0  1  0  0  0  0  0  0  0  0  0
    7.7484  -11.1489    0.0000 O   0  0  0  0  0  0  0  0  0  0  0  0
    6.3303  -10.4649    0.0000 O   0  0  0  0  0  0  0  0  0  0  0  0
    6.3614   -8.6502    0.0000 C   0  0  0  0  0  0  0  0  0  0  0  0
    5.6469   -9.0627    0.0000 O   0  0  0  0  0  0  0  0  0  0  0  0
  1  2  1  0  0  0  0
  2  3  1  0  0  0  0
  3  4  1  0  0  0  0
  4  5  1  0  0  0  0
  5  6  1  0  0  0  0
  6  1  1  0  0  0  0
  6  7  1  6  0  0  0
  4  9  1  1  0  0  0
  9 10  1  0  0  0  0
  5  8  1  6  0  0  0
M  END
>  <cdx:fragmentId>
2188

$$$$
