1703.cdx
  Mrv1902 05222410222D          

 88 98  0  0  0  0            999 V2000
   20.4910  -14.0088    0.0000 C   0  0  0  0  0  0  0  0  0  0  0  0
   19.9096  -14.5901    0.0000 C   0  0  0  0  0  0  0  0  0  0  0  0
   20.1224  -15.3842    0.0000 C   0  0  0  0  0  0  0  0  0  0  0  0
   20.9165  -15.5970    0.0000 C   0  0  0  0  0  0  0  0  0  0  0  0
   21.4979  -15.0157    0.0000 C   0  0  0  0  0  0  0  0  0  0  0  0
   21.2851  -14.2216    0.0000 C   0  0  0  0  0  0  0  0  0  0  0  0
   20.2782  -13.2146    0.0000 C   0  0  0  0  0  0  0  0  0  0  0  0
   19.4841  -13.0019    0.0000 C   0  0  0  0  0  0  0  0  0  0  0  0
   18.9027  -13.5832    0.0000 O   0  0  0  0  0  0  0  0  0  0  0  0
   19.1155  -14.3773    0.0000 C   0  0  0  0  0  0  0  0  0  0  0  0
   21.8664  -13.6402    0.0000 O   0  0  0  0  0  0  0  0  0  0  0  0
   21.6536  -12.8461    0.0000 C   0  0  0  0  0  0  0  0  0  0  0  0
   20.8595  -12.6333    0.0000 C   0  0  0  0  0  0  0  0  0  0  0  0
   20.6467  -11.8392    0.0000 C   0  0  0  0  0  0  0  0  0  0  0  0
   19.8526  -11.6264    0.0000 C   0  0  0  0  0  0  0  0  0  0  0  0
   19.2713  -12.2077    0.0000 C   0  0  0  0  0  0  0  0  0  0  0  0
   22.2350  -12.2648    0.0000 O   0  0  0  0  0  0  0  0  0  0  0  0
   18.5342  -14.9587    0.0000 O   0  0  0  0  0  0  0  0  0  0  0  0
   18.4772  -11.9950    0.0000 O   0  0  0  0  0  0  0  0  0  0  0  0
   19.6398  -10.8323    0.0000 O   0  0  0  0  0  0  0  0  0  0  0  0
   21.2281  -11.2578    0.0000 O   0  0  0  0  0  0  0  0  0  0  0  0
   21.0153  -10.4637    0.0000 C   0  0  0  0  0  0  0  0  0  0  0  0
   21.5966   -9.8824    0.0000 C   0  0  0  0  0  0  0  0  0  0  0  0
   21.3838   -9.0883    0.0000 C   0  0  0  0  0  0  0  0  0  0  0  0
   20.5897   -8.8755    0.0000 C   0  0  0  0  0  0  0  0  0  0  0  0
   20.0084   -9.4568    0.0000 C   0  0  0  0  0  0  0  0  0  0  0  0
   20.2212  -10.2509    0.0000 C   0  0  0  0  0  0  0  0  0  0  0  0
   22.3907  -10.0952    0.0000 O   0  0  0  0  0  0  0  0  0  0  0  0
   22.1289   -8.7408    0.0000 O   0  0  0  0  0  0  0  0  0  0  0  0
   19.1862   -9.4568    0.0000 C   0  0  0  0  0  0  0  0  0  0  0  0
   18.6049   -8.8755    0.0000 O   0  0  0  0  0  0  0  0  0  0  0  0
   18.8716  -10.2164    0.0000 O   0  0  0  0  0  0  0  0  0  0  0  0
   17.8929   -9.2865    0.0000 O   0  0  0  0  0  0  0  0  0  0  0  0
   17.1809   -8.8755    0.0000 C   0  0  2  0  0  0  0  0  0  0  0  0
   17.1809   -8.0533    0.0000 C   0  0  2  0  0  0  0  0  0  0  0  0
   16.4689   -7.6423    0.0000 C   0  0  1  0  0  0  0  0  0  0  0  0
   15.7569   -8.0533    0.0000 C   0  0  1  0  0  0  0  0  0  0  0  0
   15.7569   -8.8755    0.0000 C   0  0  1  0  0  0  0  0  0  0  0  0
   16.4689   -9.2865    0.0000 O   0  0  0  0  0  0  0  0  0  0  0  0
   17.8929   -7.6423    0.0000 O   0  0  0  0  0  0  0  0  0  0  0  0
   18.6049   -8.0533    0.0000 O   0  0  0  0  0  0  0  0  0  0  0  0
   19.1862   -7.4720    0.0000 C   0  0  0  0  0  0  0  0  0  0  0  0
   20.0084   -7.4720    0.0000 C   0  0  0  0  0  0  0  0  0  0  0  0
   18.8716   -6.7125    0.0000 O   0  0  0  0  0  0  0  0  0  0  0  0
   20.5897   -8.0533    0.0000 C   0  0  0  0  0  0  0  0  0  0  0  0
   21.3838   -7.8406    0.0000 C   0  0  0  0  0  0  0  0  0  0  0  0
   21.5966   -7.0464    0.0000 C   0  0  0  0  0  0  0  0  0  0  0  0
   21.0153   -6.4651    0.0000 C   0  0  0  0  0  0  0  0  0  0  0  0
   20.2212   -6.6779    0.0000 C   0  0  0  0  0  0  0  0  0  0  0  0
   16.4689   -6.8201    0.0000 O   0  0  0  0  0  0  0  0  0  0  0  0
   15.7569   -6.4091    0.0000 C   0  0  0  0  0  0  0  0  0  0  0  0
   15.7569   -5.5869    0.0000 C   0  0  0  0  0  0  0  0  0  0  0  0
   15.0450   -6.8201    0.0000 O   0  0  0  0  0  0  0  0  0  0  0  0
   16.4689   -5.1759    0.0000 C   0  0  0  0  0  0  0  0  0  0  0  0
   16.4689   -4.3537    0.0000 C   0  0  0  0  0  0  0  0  0  0  0  0
   15.7569   -3.9427    0.0000 C   0  0  0  0  0  0  0  0  0  0  0  0
   15.0450   -4.3537    0.0000 C   0  0  0  0  0  0  0  0  0  0  0  0
   15.0450   -5.1759    0.0000 C   0  0  0  0  0  0  0  0  0  0  0  0
   14.3330   -3.9427    0.0000 O   0  0  0  0  0  0  0  0  0  0  0  0
   15.7569   -3.1205    0.0000 O   0  0  0  0  0  0  0  0  0  0  0  0
   17.1809   -3.9427    0.0000 O   0  0  0  0  0  0  0  0  0  0  0  0
   15.0450   -7.6423    0.0000 O   0  0  0  0  0  0  0  0  0  0  0  0
   14.3330   -8.0533    0.0000 C   0  0  0  0  0  0  0  0  0  0  0  0
   13.6210   -7.6423    0.0000 C   0  0  0  0  0  0  0  0  0  0  0  0
   14.3330   -8.8755    0.0000 O   0  0  0  0  0  0  0  0  0  0  0  0
   13.6210   -6.8201    0.0000 C   0  0  0  0  0  0  0  0  0  0  0  0
   12.9090   -6.4091    0.0000 C   0  0  0  0  0  0  0  0  0  0  0  0
   12.1970   -6.8201    0.0000 C   0  0  0  0  0  0  0  0  0  0  0  0
   12.1970   -7.6423    0.0000 C   0  0  0  0  0  0  0  0  0  0  0  0
   12.9090   -8.0533    0.0000 C   0  0  0  0  0  0  0  0  0  0  0  0
   11.4850   -8.0533    0.0000 O   0  0  0  0  0  0  0  0  0  0  0  0
   11.4850   -6.4091    0.0000 O   0  0  0  0  0  0  0  0  0  0  0  0
   12.9090   -5.5869    0.0000 O   0  0  0  0  0  0  0  0  0  0  0  0
   15.0450   -9.2865    0.0000 O   0  0  0  0  0  0  0  0  0  0  0  0
   15.0450  -10.1087    0.0000 C   0  0  0  0  0  0  0  0  0  0  0  0
   14.3330  -10.5198    0.0000 C   0  0  0  0  0  0  0  0  0  0  0  0
   15.7569  -10.5198    0.0000 O   0  0  0  0  0  0  0  0  0  0  0  0
   13.6210  -10.1087    0.0000 C   0  0  0  0  0  0  0  0  0  0  0  0
   12.9090  -10.5198    0.0000 C   0  0  0  0  0  0  0  0  0  0  0  0
   12.9090  -11.3419    0.0000 C   0  0  0  0  0  0  0  0  0  0  0  0
   13.6210  -11.7530    0.0000 C   0  0  0  0  0  0  0  0  0  0  0  0
   14.3330  -11.3419    0.0000 C   0  0  0  0  0  0  0  0  0  0  0  0
   13.6210  -12.5751    0.0000 O   0  0  0  0  0  0  0  0  0  0  0  0
   12.1970  -11.7530    0.0000 O   0  0  0  0  0  0  0  0  0  0  0  0
   12.1970  -10.1087    0.0000 O   0  0  0  0  0  0  0  0  0  0  0  0
   21.2281   -5.6710    0.0000 O   0  0  0  0  0  0  0  0  0  0  0  0
   22.3907   -6.8337    0.0000 O   0  0  0  0  0  0  0  0  0  0  0  0
   22.1289   -8.1880    0.0000 O   0  0  0  0  0  0  0  0  0  0  0  0
  1  2  2  0  0  0  0
  2  3  1  0  0  0  0
  3  4  2  0  0  0  0
  4  5  1  0  0  0  0
  5  6  2  0  0  0  0
  6  1  1  0  0  0  0
  1  7  1  0  0  0  0
  7  8  2  0  0  0  0
  8  9  1  0  0  0  0
  9 10  1  0  0  0  0
 10  2  1  0  0  0  0
  6 11  1  0  0  0  0
 11 12  1  0  0  0  0
 12 13  1  0  0  0  0
 13  7  1  0  0  0  0
 13 14  2  0  0  0  0
 14 15  1  0  0  0  0
 15 16  2  0  0  0  0
 16  8  1  0  0  0  0
 12 17  2  0  0  0  0
 10 18  2  0  0  0  0
 16 19  1  0  0  0  0
 15 20  1  0  0  0  0
 14 21  1  0  0  0  0
 21 22  1  0  0  0  0
 22 23  2  0  0  0  0
 23 24  1  0  0  0  0
 24 25  2  0  0  0  0
 25 26  1  0  0  0  0
 26 27  2  0  0  0  0
 27 22  1  0  0  0  0
 23 28  1  0  0  0  0
 24 29  1  0  0  0  0
 26 30  1  0  0  0  0
 30 31  1  0  0  0  0
 30 32  2  0  0  0  0
 31 33  1  0  0  0  0
 34 33  1  1  0  0  0
 34 35  1  0  0  0  0
 35 36  1  0  0  0  0
 36 37  1  0  0  0  0
 37 38  1  0  0  0  0
 38 39  1  0  0  0  0
 39 34  1  0  0  0  0
 35 40  1  6  0  0  0
 40 41  1  0  0  0  0
 41 42  1  0  0  0  0
 42 43  1  0  0  0  0
 42 44  2  0  0  0  0
 43 45  2  0  0  0  0
 45 46  1  0  0  0  0
 46 47  2  0  0  0  0
 47 48  1  0  0  0  0
 48 49  2  0  0  0  0
 49 43  1  0  0  0  0
 25 45  1  0  0  0  0
 36 50  1  1  0  0  0
 50 51  1  0  0  0  0
 51 52  1  0  0  0  0
 51 53  2  0  0  0  0
 52 54  2  0  0  0  0
 54 55  1  0  0  0  0
 55 56  2  0  0  0  0
 56 57  1  0  0  0  0
 57 58  2  0  0  0  0
 58 52  1  0  0  0  0
 57 59  1  0  0  0  0
 56 60  1  0  0  0  0
 55 61  1  0  0  0  0
 62 63  1  0  0  0  0
 63 64  1  0  0  0  0
 63 65  2  0  0  0  0
 64 66  2  0  0  0  0
 66 67  1  0  0  0  0
 67 68  2  0  0  0  0
 68 69  1  0  0  0  0
 69 70  2  0  0  0  0
 70 64  1  0  0  0  0
 69 71  1  0  0  0  0
 68 72  1  0  0  0  0
 67 73  1  0  0  0  0
 74 75  1  0  0  0  0
 75 76  1  0  0  0  0
 75 77  2  0  0  0  0
 76 78  2  0  0  0  0
 78 79  1  0  0  0  0
 79 80  2  0  0  0  0
 80 81  1  0  0  0  0
 81 82  2  0  0  0  0
 82 76  1  0  0  0  0
 81 83  1  0  0  0  0
 80 84  1  0  0  0  0
 79 85  1  0  0  0  0
 38 74  1  1  0  0  0
 37 62  1  1  0  0  0
 48 86  1  0  0  0  0
 47 87  1  0  0  0  0
 46 88  1  0  0  0  0
M  END
>  <cdx:fragmentId>
972

$$$$
