39204.cdx
  Mrv1902 05222410222D          

 58 64  0  0  0  0            999 V2000
   10.8294   -8.4283    0.0000 C   0  0  2  0  0  0  0  0  0  0  0  0
   10.1149   -8.8408    0.0000 O   0  0  0  0  0  0  0  0  0  0  0  0
    9.3974   -8.4337    0.0000 C   0  0  2  0  0  0  0  0  0  0  0  0
    9.3912   -7.6087    0.0000 O   0  0  0  0  0  0  0  0  0  0  0  0
    8.6736   -7.2016    0.0000 C   0  0  1  0  0  0  0  0  0  0  0  0
    7.9623   -7.6194    0.0000 C   0  0  2  0  0  0  0  0  0  0  0  0
    7.9685   -8.4444    0.0000 C   0  0  1  0  0  0  0  0  0  0  0  0
    8.6860   -8.8515    0.0000 C   0  0  1  0  0  0  0  0  0  0  0  0
    8.6922   -9.6765    0.0000 O   0  0  0  0  0  0  0  0  0  0  0  0
    7.9763  -10.0865    0.0000 C   0  0  2  0  0  0  0  0  0  0  0  0
    7.2633   -9.6715    0.0000 O   0  0  0  0  0  0  0  0  0  0  0  0
    6.5474  -10.0815    0.0000 C   0  0  0  0  0  0  0  0  0  0  0  0
    6.5445  -10.9065    0.0000 C   0  0  1  0  0  0  0  0  0  0  0  0
    7.2575  -11.3215    0.0000 C   0  0  1  0  0  0  0  0  0  0  0  0
    7.9734  -10.9115    0.0000 C   0  0  1  0  0  0  0  0  0  0  0  0
    8.6864  -11.3265    0.0000 O   0  0  0  0  0  0  0  0  0  0  0  0
   11.9564   -9.5553    0.0000 C   0  0  0  0  0  0  0  0  0  0  0  0
   11.5439   -8.8408    0.0000 C   0  0  1  0  0  0  0  0  0  0  0  0
   12.2583   -8.4283    0.0000 C   0  0  2  0  0  0  0  0  0  0  0  0
   12.9728   -8.8408    0.0000 C   0  0  0  0  0  0  0  0  0  0  0  0
   13.6873   -8.4283    0.0000 C   0  0  0  0  0  0  0  0  0  0  0  0
   13.6873   -7.6033    0.0000 C   0  0  1  0  0  0  0  0  0  0  0  0
   14.4017   -7.1908    0.0000 C   0  0  2  0  0  0  0  0  0  0  0  0
   15.1162   -7.6033    0.0000 C   0  0  0  0  0  0  0  0  0  0  0  0
   15.8307   -7.1908    0.0000 C   0  0  0  0  0  0  0  0  0  0  0  0
   15.8307   -6.3658    0.0000 C   0  0  1  0  0  0  0  0  0  0  0  0
   16.5452   -5.9533    0.0000 C   0  0  0  0  0  0  0  0  0  0  0  0
   16.5452   -5.1283    0.0000 C   0  0  0  0  0  0  0  0  0  0  0  0
   15.8307   -4.7158    0.0000 C   0  0  1  0  0  0  0  0  0  0  0  0
   15.1162   -5.1283    0.0000 C   0  0  0  0  0  0  0  0  0  0  0  0
   15.1162   -5.9533    0.0000 C   0  0  1  0  0  0  0  0  0  0  0  0
   14.4017   -6.3658    0.0000 C   0  0  0  0  0  0  0  0  0  0  0  0
   13.6873   -5.9533    0.0000 C   0  0  0  0  0  0  0  0  0  0  0  0
   12.9728   -6.3658    0.0000 C   0  0  0  0  0  0  0  0  0  0  0  0
   12.9728   -7.1908    0.0000 C   0  0  2  0  0  0  0  0  0  0  0  0
   12.2583   -7.6033    0.0000 C   0  0  1  0  0  0  0  0  0  0  0  0
   11.5439   -7.1908    0.0000 C   0  0  0  0  0  0  0  0  0  0  0  0
   10.8294   -7.6033    0.0000 C   0  0  2  0  0  0  0  0  0  0  0  0
   16.5452   -6.7783    0.0000 C   0  0  0  0  0  0  0  0  0  0  0  0
   16.5452   -7.6033    0.0000 O   0  0  0  0  0  0  0  0  0  0  0  0
   12.2583   -6.7783    0.0000 C   0  0  0  0  0  0  0  0  0  0  0  0
   15.4182   -4.0013    0.0000 C   0  0  0  0  0  0  0  0  0  0  0  0
   16.2432   -4.0013    0.0000 C   0  0  0  0  0  0  0  0  0  0  0  0
   14.4017   -8.0158    0.0000 C   0  0  0  0  0  0  0  0  0  0  0  0
   13.6873   -6.7783    0.0000 C   0  0  0  0  0  0  0  0  0  0  0  0
   11.1314   -9.5553    0.0000 C   0  0  0  0  0  0  0  0  0  0  0  0
    8.6675   -6.3766    0.0000 C   0  0  0  0  0  0  0  0  0  0  0  0
    7.9499   -5.9695    0.0000 O   0  0  0  0  0  0  0  0  0  0  0  0
   10.1149   -7.1908    0.0000 O   0  0  0  0  0  0  0  0  0  0  0  0
    7.2546  -12.1465    0.0000 O   0  0  0  0  0  0  0  0  0  0  0  0
    5.8286  -11.3165    0.0000 O   0  0  0  0  0  0  0  0  0  0  0  0
    7.2571   -8.8622    0.0000 O   0  0  0  0  0  0  0  0  0  0  0  0
    7.2447   -7.2123    0.0000 O   0  0  0  0  0  0  0  0  0  0  0  0
   15.1162   -6.7783    0.0000 H   0  0  0  0  0  0  0  0  0  0  0  0
   12.9728   -8.0158    0.0000 H   0  0  0  0  0  0  0  0  0  0  0  0
   12.2583   -9.2533    0.0000 H   0  0  0  0  0  0  0  0  0  0  0  0
   11.5439  -10.2697    0.0000 O   0  0  0  0  0  0  0  0  0  0  0  0
   17.2596   -6.3658    0.0000 O   0  0  0  0  0  0  0  0  0  0  0  0
  1  2  1  1  0  0  0
  3  2  1  1  0  0  0
  3  4  1  0  0  0  0
  4  5  1  0  0  0  0
  5  6  1  0  0  0  0
  6  7  1  0  0  0  0
  7  8  1  0  0  0  0
  8  9  1  6  0  0  0
 10  9  1  1  0  0  0
 10 11  1  0  0  0  0
 11 12  1  0  0  0  0
 12 13  1  0  0  0  0
 13 14  1  0  0  0  0
 14 15  1  0  0  0  0
 15 16  1  6  0  0  0
 18 17  1  6  0  0  0
 18 19  1  0  0  0  0
 19 20  1  0  0  0  0
 20 21  1  0  0  0  0
 21 22  1  0  0  0  0
 22 23  1  0  0  0  0
 23 24  1  0  0  0  0
 24 25  1  0  0  0  0
 25 26  1  0  0  0  0
 26 27  1  0  0  0  0
 27 28  1  0  0  0  0
 28 29  1  0  0  0  0
 29 30  1  0  0  0  0
 30 31  1  0  0  0  0
 31 32  1  0  0  0  0
 32 33  2  0  0  0  0
 33 34  1  0  0  0  0
 34 35  1  0  0  0  0
 35 36  1  0  0  0  0
 36 37  1  0  0  0  0
 37 38  1  0  0  0  0
  1 38  1  0  0  0  0
  1 18  1  0  0  0  0
 19 36  1  0  0  0  0
 22 35  1  0  0  0  0
 23 32  1  0  0  0  0
 26 31  1  0  0  0  0
 10 15  1  0  0  0  0
  3  8  1  0  0  0  0
 39 40  1  0  0  0  0
 26 39  1  1  0  0  0
 36 41  1  1  0  0  0
 29 42  1  1  0  0  0
 29 43  1  6  0  0  0
 23 44  1  6  0  0  0
 22 45  1  1  0  0  0
 18 46  1  1  0  0  0
 47 48  1  0  0  0  0
  5 47  1  1  0  0  0
 38 49  1  1  0  0  0
 14 50  1  1  0  0  0
 13 51  1  1  0  0  0
  7 52  1  1  0  0  0
  6 53  1  6  0  0  0
 31 54  1  1  0  0  0
 35 55  1  6  0  0  0
 19 56  1  6  0  0  0
 17 57  1  0  0  0  0
 39 58  2  0  0  0  0
M  END
>  <cdx:fragmentId>
184923

$$$$
