39202.cdx
  Mrv1902 05222410232D          

 34 37  0  0  0  0            999 V2000
    9.5861   -4.8382    0.0000 C   0  0  0  0  0  0  0  0  0  0  0  0
   10.3006   -4.4257    0.0000 C   0  0  0  0  0  0  0  0  0  0  0  0
   10.3006   -3.6007    0.0000 C   0  0  0  0  0  0  0  0  0  0  0  0
    9.5861   -3.1882    0.0000 O   0  0  0  0  0  0  0  0  0  0  0  0
    8.8716   -3.6007    0.0000 C   0  0  0  0  0  0  0  0  0  0  0  0
    8.8716   -4.4257    0.0000 C   0  0  0  0  0  0  0  0  0  0  0  0
    8.1571   -3.1882    0.0000 C   0  0  0  0  0  0  0  0  0  0  0  0
    7.4427   -3.6007    0.0000 C   0  0  0  0  0  0  0  0  0  0  0  0
    7.4427   -4.4257    0.0000 C   0  0  0  0  0  0  0  0  0  0  0  0
    8.1571   -4.8382    0.0000 C   0  0  0  0  0  0  0  0  0  0  0  0
    8.1571   -5.6632    0.0000 O   0  0  0  0  0  0  0  0  0  0  0  0
    9.5861   -5.6632    0.0000 O   0  0  0  0  0  0  0  0  0  0  0  0
    8.1571   -8.1382    0.0000 C   0  0  0  0  0  0  0  0  0  0  0  0
    8.8716   -8.5507    0.0000 C   0  0  0  0  0  0  0  0  0  0  0  0
    9.5861   -8.1382    0.0000 C   0  0  0  0  0  0  0  0  0  0  0  0
    9.5861   -7.3132    0.0000 C   0  0  0  0  0  0  0  0  0  0  0  0
    8.8716   -6.9007    0.0000 C   0  0  0  0  0  0  0  0  0  0  0  0
    8.1571   -7.3132    0.0000 C   0  0  0  0  0  0  0  0  0  0  0  0
    7.4427   -6.9007    0.0000 C   0  0  0  0  0  0  0  0  0  0  0  0
    6.0137   -6.0757    0.0000 O   0  0  0  0  0  0  0  0  0  0  0  0
    7.4427   -6.0757    0.0000 C   0  0  0  0  0  0  0  0  0  0  0  0
    6.7282   -5.6632    0.0000 C   0  0  0  0  0  0  0  0  0  0  0  0
    3.1558   -3.6007    0.0000 O   0  0  0  0  0  0  0  0  0  0  0  0
    6.7282   -4.8382    0.0000 O   0  0  0  0  0  0  0  0  0  0  0  0
    3.8703   -4.8382    0.0000 O   0  0  0  0  0  0  0  0  0  0  0  0
    5.2993   -5.6632    0.0000 O   0  0  0  0  0  0  0  0  0  0  0  0
    3.8703   -3.1882    0.0000 C   0  0  0  0  0  0  0  0  0  0  0  0
    5.2993   -3.1882    0.0000 O   0  0  0  0  0  0  0  0  0  0  0  0
    4.5848   -3.6007    0.0000 C   0  0  1  0  0  0  0  0  0  0  0  0
    4.5848   -4.4257    0.0000 C   0  0  2  0  0  0  0  0  0  0  0  0
    5.2993   -4.8382    0.0000 C   0  0  1  0  0  0  0  0  0  0  0  0
    6.0137   -4.4257    0.0000 C   0  0  2  0  0  0  0  0  0  0  0  0
    6.0137   -3.6007    0.0000 C   0  0  2  0  0  0  0  0  0  0  0  0
    6.7282   -3.1882    0.0000 O   0  0  0  0  0  0  0  0  0  0  0  0
  1  2  1  0  0  0  0
  2  3  2  0  0  0  0
  3  4  1  0  0  0  0
  4  5  1  0  0  0  0
  5  6  2  0  0  0  0
  6  1  1  0  0  0  0
  5  7  1  0  0  0  0
  7  8  2  0  0  0  0
  8  9  1  0  0  0  0
  9 10  2  0  0  0  0
 10  6  1  0  0  0  0
 10 11  1  0  0  0  0
  1 12  2  0  0  0  0
 13 18  1  0  0  0  0
  8 34  1  0  0  0  0
 14 13  2  0  0  0  0
 15 14  1  0  0  0  0
 16 15  2  0  0  0  0
 17 16  1  0  0  0  0
 18 17  2  0  0  0  0
 19 18  1  0  0  0  0
 21 19  2  0  0  0  0
 22 20  2  0  0  0  0
 22 21  1  0  0  0  0
 24 22  1  0  0  0  0
 27 23  1  0  0  0  0
 32 24  1  6  0  0  0
 30 25  1  6  0  0  0
 31 26  1  1  0  0  0
 29 27  1  1  0  0  0
 28 33  1  0  0  0  0
 29 28  1  0  0  0  0
 30 29  1  0  0  0  0
 31 30  1  0  0  0  0
 32 31  1  0  0  0  0
 33 32  1  0  0  0  0
 33 34  1  1  0  0  0
M  END
>  <cdx:fragmentId>
871

$$$$
