39201.cdx
  Mrv1902 05222410222D          

 19 20  0  0  0  0            999 V2000
    4.5569   -7.7314    0.0000 C   0  0  0  0  0  0  0  0  0  0  0  0
    5.2704   -7.3172    0.0000 C   0  0  0  0  0  0  0  0  0  0  0  0
    5.9859   -7.7280    0.0000 C   0  0  0  0  0  0  0  0  0  0  0  0
    6.6994   -7.3139    0.0000 C   0  0  0  0  0  0  0  0  0  0  0  0
    6.6974   -6.4889    0.0000 C   0  0  0  0  0  0  0  0  0  0  0  0
    5.9820   -6.0780    0.0000 C   0  0  0  0  0  0  0  0  0  0  0  0
    5.2685   -6.4922    0.0000 C   0  0  0  0  0  0  0  0  0  0  0  0
    3.8415   -7.3206    0.0000 O   0  0  0  0  0  0  0  0  0  0  0  0
    7.4148   -7.7247    0.0000 C   0  0  0  0  0  0  0  0  0  0  0  0
    8.1283   -7.3105    0.0000 C   0  0  0  0  0  0  0  0  0  0  0  0
    8.1264   -6.4855    0.0000 O   0  0  0  0  0  0  0  0  0  0  0  0
    8.8437   -7.7213    0.0000 C   0  0  0  0  0  0  0  0  0  0  0  0
    8.8457   -8.5463    0.0000 C   0  0  0  0  0  0  0  0  0  0  0  0
    9.5611   -8.9571    0.0000 C   0  0  0  0  0  0  0  0  0  0  0  0
   10.2746   -8.5429    0.0000 C   0  0  0  0  0  0  0  0  0  0  0  0
   10.2727   -7.7179    0.0000 C   0  0  0  0  0  0  0  0  0  0  0  0
    9.5572   -7.3071    0.0000 C   0  0  0  0  0  0  0  0  0  0  0  0
   10.9862   -7.3038    0.0000 O   0  0  0  0  0  0  0  0  0  0  0  0
    8.1322   -8.9605    0.0000 O   0  0  0  0  0  0  0  0  0  0  0  0
  1  2  1  0  0  0  0
  2  3  1  0  0  0  0
  3  4  2  0  0  0  0
  4  5  1  0  0  0  0
  5  6  2  0  0  0  0
  6  7  1  0  0  0  0
  2  7  2  0  0  0  0
  1  8  2  0  0  0  0
  9 10  1  0  0  0  0
 10 11  2  0  0  0  0
 12 13  1  0  0  0  0
 13 14  2  0  0  0  0
 14 15  1  0  0  0  0
 15 16  2  0  0  0  0
 16 17  1  0  0  0  0
 12 17  2  0  0  0  0
 16 18  1  0  0  0  0
 13 19  1  0  0  0  0
 10 12  1  0  0  0  0
  4  9  1  0  0  0  0
M  END
>  <cdx:groupId>
860

>  <cdx:fragmentId>
827

$$$$
