39208.cdx
  Mrv1902 05222410252D          

 99109  0  0  0  0            999 V2000
   10.8294   -8.4283    0.0000 C   0  0  2  0  0  0  0  0  0  0  0  0
   10.1149   -8.8408    0.0000 O   0  0  0  0  0  0  0  0  0  0  0  0
    9.7054   -9.5570    0.0000 C   0  0  2  0  0  0  0  0  0  0  0  0
    8.8804   -9.5604    0.0000 O   0  0  0  0  0  0  0  0  0  0  0  0
    8.4708  -10.2765    0.0000 C   0  0  1  0  0  0  0  0  0  0  0  0
    8.8862  -10.9893    0.0000 C   0  0  2  0  0  0  0  0  0  0  0  0
    9.7112  -10.9859    0.0000 C   0  0  1  0  0  0  0  0  0  0  0  0
   10.1208  -10.2697    0.0000 C   0  0  1  0  0  0  0  0  0  0  0  0
   10.9458  -10.2663    0.0000 O   0  0  0  0  0  0  0  0  0  0  0  0
   11.3533  -10.9836    0.0000 C   0  0  2  0  0  0  0  0  0  0  0  0
   10.9359  -11.6953    0.0000 O   0  0  0  0  0  0  0  0  0  0  0  0
   11.3435  -12.4126    0.0000 C   0  0  1  0  0  0  0  0  0  0  0  0
   12.1685  -12.4182    0.0000 C   0  0  1  0  0  0  0  0  0  0  0  0
   12.5859  -11.7066    0.0000 C   0  0  1  0  0  0  0  0  0  0  0  0
   12.1783  -10.9893    0.0000 C   0  0  1  0  0  0  0  0  0  0  0  0
   12.5957  -10.2777    0.0000 O   0  0  0  0  0  0  0  0  0  0  0  0
   11.9564   -9.5553    0.0000 C   0  0  0  0  0  0  0  0  0  0  0  0
   11.5439   -8.8408    0.0000 C   0  0  1  0  0  0  0  0  0  0  0  0
   12.2583   -8.4283    0.0000 C   0  0  2  0  0  0  0  0  0  0  0  0
   12.9728   -8.8408    0.0000 C   0  0  0  0  0  0  0  0  0  0  0  0
   13.6873   -8.4283    0.0000 C   0  0  0  0  0  0  0  0  0  0  0  0
   13.6873   -7.6033    0.0000 C   0  0  1  0  0  0  0  0  0  0  0  0
   14.4017   -7.1908    0.0000 C   0  0  2  0  0  0  0  0  0  0  0  0
   15.1162   -7.6033    0.0000 C   0  0  0  0  0  0  0  0  0  0  0  0
   15.8307   -7.1908    0.0000 C   0  0  0  0  0  0  0  0  0  0  0  0
   15.8307   -6.3658    0.0000 C   0  0  1  0  0  0  0  0  0  0  0  0
   16.5452   -5.9533    0.0000 C   0  0  0  0  0  0  0  0  0  0  0  0
   16.5452   -5.1283    0.0000 C   0  0  0  0  0  0  0  0  0  0  0  0
   15.8307   -4.7158    0.0000 C   0  0  1  0  0  0  0  0  0  0  0  0
   15.1162   -5.1283    0.0000 C   0  0  0  0  0  0  0  0  0  0  0  0
   15.1162   -5.9533    0.0000 C   0  0  1  0  0  0  0  0  0  0  0  0
   14.4017   -6.3658    0.0000 C   0  0  0  0  0  0  0  0  0  0  0  0
   13.6873   -5.9533    0.0000 C   0  0  0  0  0  0  0  0  0  0  0  0
   12.9728   -6.3658    0.0000 C   0  0  0  0  0  0  0  0  0  0  0  0
   12.9728   -7.1908    0.0000 C   0  0  2  0  0  0  0  0  0  0  0  0
   12.2583   -7.6033    0.0000 C   0  0  1  0  0  0  0  0  0  0  0  0
   11.5439   -7.1908    0.0000 C   0  0  0  0  0  0  0  0  0  0  0  0
   10.8294   -7.6033    0.0000 C   0  0  2  0  0  0  0  0  0  0  0  0
   16.5452   -6.7783    0.0000 C   0  0  0  0  0  0  0  0  0  0  0  0
   16.5452   -7.6033    0.0000 O   0  0  0  0  0  0  0  0  0  0  0  0
   12.2583   -6.7783    0.0000 C   0  0  0  0  0  0  0  0  0  0  0  0
   15.4182   -4.0013    0.0000 C   0  0  0  0  0  0  0  0  0  0  0  0
   16.2432   -4.0013    0.0000 C   0  0  0  0  0  0  0  0  0  0  0  0
   14.4017   -8.0158    0.0000 C   0  0  0  0  0  0  0  0  0  0  0  0
   13.6873   -6.7783    0.0000 C   0  0  0  0  0  0  0  0  0  0  0  0
   11.1314   -9.5553    0.0000 C   0  0  0  0  0  0  0  0  0  0  0  0
    7.6458  -10.2799    0.0000 C   0  0  0  0  0  0  0  0  0  0  0  0
    7.2363  -10.9961    0.0000 O   0  0  0  0  0  0  0  0  0  0  0  0
   10.1149   -7.1908    0.0000 O   0  0  0  0  0  0  0  0  0  0  0  0
   13.4109  -11.7123    0.0000 O   0  0  0  0  0  0  0  0  0  0  0  0
   12.5760  -13.1356    0.0000 O   0  0  0  0  0  0  0  0  0  0  0  0
   10.1267  -11.6987    0.0000 O   0  0  0  0  0  0  0  0  0  0  0  0
    8.4767  -11.7054    0.0000 O   0  0  0  0  0  0  0  0  0  0  0  0
   15.1162   -6.7783    0.0000 H   0  0  0  0  0  0  0  0  0  0  0  0
   12.9728   -8.0158    0.0000 H   0  0  0  0  0  0  0  0  0  0  0  0
   15.3338   -8.3413    0.0000 O   0  0  0  0  0  0  0  0  0  0  0  0
   16.1586   -8.3256    0.0000 C   0  0  2  0  0  0  0  0  0  0  0  0
   16.5846   -9.0321    0.0000 C   0  0  1  0  0  0  0  0  0  0  0  0
   16.1858   -9.7543    0.0000 C   0  0  2  0  0  0  0  0  0  0  0  0
   15.3610   -9.7700    0.0000 C   0  0  2  0  0  0  0  0  0  0  0  0
   14.9349   -9.0635    0.0000 C   0  0  0  0  0  0  0  0  0  0  0  0
   14.9622  -10.4922    0.0000 O   0  0  0  0  0  0  0  0  0  0  0  0
   16.6119  -10.4608    0.0000 O   0  0  0  0  0  0  0  0  0  0  0  0
   17.4095   -9.0164    0.0000 O   0  0  0  0  0  0  0  0  0  0  0  0
   17.4367  -10.4451    0.0000 O   0  0  0  0  0  0  0  0  0  0  0  0
   17.8355   -9.7229    0.0000 C   0  0  2  0  0  0  0  0  0  0  0  0
   18.6604   -9.7071    0.0000 C   0  0  1  0  0  0  0  0  0  0  0  0
   19.0864  -10.4136    0.0000 C   0  0  1  0  0  0  0  0  0  0  0  0
   18.6876  -11.1358    0.0000 C   0  0  2  0  0  0  0  0  0  0  0  0
   17.8628  -11.1515    0.0000 C   0  0  2  0  0  0  0  0  0  0  0  0
   19.9113  -10.3979    0.0000 O   0  0  0  0  0  0  0  0  0  0  0  0
   17.4639  -11.8737    0.0000 C   0  0  0  0  0  0  0  0  0  0  0  0
   19.1136  -11.8423    0.0000 O   0  0  0  0  0  0  0  0  0  0  0  0
   19.0592   -8.9849    0.0000 O   0  0  0  0  0  0  0  0  0  0  0  0
   12.2583   -9.2533    0.0000 H   0  0  0  0  0  0  0  0  0  0  0  0
   11.5439  -10.2697    0.0000 O   0  0  0  0  0  0  0  0  0  0  0  0
   13.9581  -13.4519    0.0000 C   0  0  0  0  0  0  0  0  0  0  0  0
   14.8353  -12.7181    0.0000 C   0  0  0  0  0  0  0  0  0  0  0  0
   14.0899  -14.2663    0.0000 O   0  0  0  0  0  0  0  0  0  0  0  0
   15.9875  -12.9798    0.0000 C   0  0  1  0  0  0  0  0  0  0  0  0
   16.9995  -12.3133    0.0000 C   0  0  0  0  0  0  0  0  0  0  0  0
   18.0915  -12.6372    0.0000 C   0  0  0  0  0  0  0  0  0  0  0  0
   18.2233  -13.4516    0.0000 O   0  0  0  0  0  0  0  0  0  0  0  0
   15.6945  -13.7511    0.0000 O   0  0  0  0  0  0  0  0  0  0  0  0
   16.5089  -13.6192    0.0000 C   0  0  0  0  0  0  0  0  0  0  0  0
   17.2596   -6.3658    0.0000 O   0  0  0  0  0  0  0  0  0  0  0  0
   10.9261  -13.1242    0.0000 C   0  0  0  0  0  0  0  0  0  0  0  0
   11.3336  -13.8415    0.0000 O   0  0  0  0  0  0  0  0  0  0  0  0
   20.3373  -11.1044    0.0000 C   0  0  2  0  0  0  0  0  0  0  0  0
   19.9523  -11.8341    0.0000 O   0  0  0  0  0  0  0  0  0  0  0  0
   20.3917  -12.5323    0.0000 C   0  0  1  0  0  0  0  0  0  0  0  0
   21.2161  -12.5009    0.0000 C   0  0  2  0  0  0  0  0  0  0  0  0
   21.6011  -11.7712    0.0000 C   0  0  1  0  0  0  0  0  0  0  0  0
   21.1617  -11.0730    0.0000 C   0  0  1  0  0  0  0  0  0  0  0  0
   20.0068  -13.2620    0.0000 C   0  0  0  0  0  0  0  0  0  0  0  0
   22.4255  -11.7398    0.0000 O   0  0  0  0  0  0  0  0  0  0  0  0
   21.5467  -10.3433    0.0000 O   0  0  0  0  0  0  0  0  0  0  0  0
   21.6556  -13.1991    0.0000 O   0  0  0  0  0  0  0  0  0  0  0  0
   20.4462  -13.9602    0.0000 O   0  0  0  0  0  0  0  0  0  0  0  0
  1  2  1  1  0  0  0
  3  2  1  1  0  0  0
  3  4  1  0  0  0  0
  4  5  1  0  0  0  0
  5  6  1  0  0  0  0
  6  7  1  0  0  0  0
  7  8  1  0  0  0  0
  8  9  1  6  0  0  0
 10  9  1  1  0  0  0
 10 11  1  0  0  0  0
 11 12  1  0  0  0  0
 12 13  1  0  0  0  0
 13 14  1  0  0  0  0
 14 15  1  0  0  0  0
 15 16  1  6  0  0  0
 18 17  1  6  0  0  0
 18 19  1  0  0  0  0
 19 20  1  0  0  0  0
 20 21  1  0  0  0  0
 21 22  1  0  0  0  0
 22 23  1  0  0  0  0
 23 24  1  0  0  0  0
 24 25  1  0  0  0  0
 25 26  1  0  0  0  0
 26 27  1  0  0  0  0
 27 28  1  0  0  0  0
 28 29  1  0  0  0  0
 29 30  1  0  0  0  0
 30 31  1  0  0  0  0
 31 32  1  0  0  0  0
 32 33  2  0  0  0  0
 33 34  1  0  0  0  0
 34 35  1  0  0  0  0
 35 36  1  0  0  0  0
 36 37  1  0  0  0  0
 37 38  1  0  0  0  0
  1 38  1  0  0  0  0
  1 18  1  0  0  0  0
 19 36  1  0  0  0  0
 22 35  1  0  0  0  0
 23 32  1  0  0  0  0
 26 31  1  0  0  0  0
 10 15  1  0  0  0  0
  3  8  1  0  0  0  0
 39 40  1  0  0  0  0
 26 39  1  1  0  0  0
 36 41  1  1  0  0  0
 29 42  1  1  0  0  0
 29 43  1  6  0  0  0
 23 44  1  6  0  0  0
 22 45  1  1  0  0  0
 18 46  1  1  0  0  0
 47 48  1  0  0  0  0
  5 47  1  1  0  0  0
 38 49  1  1  0  0  0
 14 50  1  1  0  0  0
 13 51  1  1  0  0  0
  7 52  1  1  0  0  0
  6 53  1  6  0  0  0
 31 54  1  1  0  0  0
 35 55  1  6  0  0  0
 56 57  1  0  0  0  0
 57 58  1  0  0  0  0
 58 59  1  0  0  0  0
 59 60  1  0  0  0  0
 60 61  1  0  0  0  0
 56 61  1  0  0  0  0
 60 62  1  1  0  0  0
 59 63  1  1  0  0  0
 65 66  1  0  0  0  0
 66 67  1  0  0  0  0
 67 68  1  0  0  0  0
 68 69  1  0  0  0  0
 69 70  1  0  0  0  0
 65 70  1  0  0  0  0
 68 71  1  6  0  0  0
 70 72  1  6  0  0  0
 69 73  1  1  0  0  0
 67 74  1  6  0  0  0
 66 64  1  1  0  0  0
 58 64  1  6  0  0  0
 19 75  1  6  0  0  0
 17 76  1  0  0  0  0
 77 78  1  0  0  0  0
 77 79  2  0  0  0  0
 78 80  1  0  0  0  0
 80 81  1  0  0  0  0
 81 82  1  0  0  0  0
 82 83  2  0  0  0  0
 80 84  1  1  0  0  0
 80 85  1  6  0  0  0
 39 86  2  0  0  0  0
 57 40  1  1  0  0  0
 73 82  1  0  0  0  0
 12 87  1  1  0  0  0
 87 88  1  0  0  0  0
 89 71  1  1  0  0  0
 89 90  1  0  0  0  0
 90 91  1  0  0  0  0
 91 92  1  0  0  0  0
 92 93  1  0  0  0  0
 93 94  1  0  0  0  0
 94 89  1  0  0  0  0
 91 95  1  1  0  0  0
 93 96  1  1  0  0  0
 94 97  1  6  0  0  0
 92 98  1  6  0  0  0
 95 99  1  0  0  0  0
 51 77  1  0  0  0  0
M  END
>  <cdx:groupId>
185388

>  <cdx:fragmentId>
185389

$$$$
