1718.cdx
  Mrv1902 05222410242D          

 48 52  0  0  0  0            999 V2000
    6.3038   -6.6917    0.0000 C   0  0  2  0  0  0  0  0  0  0  0  0
    6.3038   -7.5167    0.0000 C   0  0  2  0  0  0  0  0  0  0  0  0
    7.0182   -7.9292    0.0000 C   0  0  1  0  0  0  0  0  0  0  0  0
    7.7327   -7.5167    0.0000 C   0  0  2  0  0  0  0  0  0  0  0  0
    7.7327   -6.6917    0.0000 C   0  0  1  0  0  0  0  0  0  0  0  0
    7.0182   -6.2792    0.0000 O   0  0  0  0  0  0  0  0  0  0  0  0
    5.5893   -6.2792    0.0000 C   0  0  0  0  0  0  0  0  0  0  0  0
    7.0182   -8.7542    0.0000 O   0  0  0  0  0  0  0  0  0  0  0  0
    8.4472   -6.2792    0.0000 O   0  0  0  0  0  0  0  0  0  0  0  0
    8.4472   -7.9292    0.0000 O   0  0  0  0  0  0  0  0  0  0  0  0
    5.5893   -7.9292    0.0000 O   0  0  0  0  0  0  0  0  0  0  0  0
    4.8748   -6.6917    0.0000 O   0  0  0  0  0  0  0  0  0  0  0  0
    5.5893   -5.4542    0.0000 O   0  0  0  0  0  0  0  0  0  0  0  0
    4.1603   -6.2792    0.0000 C   0  0  0  0  0  0  0  0  0  0  0  0
    8.4472   -5.4542    0.0000 C   0  0  1  0  0  0  0  0  0  0  0  0
    9.1616   -5.0417    0.0000 C   0  0  1  0  0  0  0  0  0  0  0  0
    9.1616   -4.2167    0.0000 O   0  0  0  0  0  0  0  0  0  0  0  0
    8.4472   -3.8042    0.0000 C   0  0  1  0  0  0  0  0  0  0  0  0
    7.7327   -4.2167    0.0000 C   0  0  2  0  0  0  0  0  0  0  0  0
    7.7327   -5.0417    0.0000 C   0  0  2  0  0  0  0  0  0  0  0  0
    8.4472   -2.9792    0.0000 C   0  0  0  0  0  0  0  0  0  0  0  0
    7.0182   -5.4542    0.0000 O   0  0  0  0  0  0  0  0  0  0  0  0
    9.8761   -5.4542    0.0000 O   0  0  0  0  0  0  0  0  0  0  0  0
    7.0182   -3.8042    0.0000 O   0  0  0  0  0  0  0  0  0  0  0  0
    9.1616   -2.5667    0.0000 O   0  0  0  0  0  0  0  0  0  0  0  0
    7.7327   -2.5667    0.0000 O   0  0  0  0  0  0  0  0  0  0  0  0
    7.7327   -1.7417    0.0000 C   0  0  0  0  0  0  0  0  0  0  0  0
   10.5906   -5.0417    0.0000 C   0  0  0  0  0  0  0  0  0  0  0  0
   11.3051   -5.4542    0.0000 C   0  0  0  0  0  0  0  0  0  0  0  0
   12.0195   -5.0417    0.0000 C   0  0  0  0  0  0  0  0  0  0  0  0
   12.0195   -4.2167    0.0000 C   0  0  0  0  0  0  0  0  0  0  0  0
   11.3051   -3.8042    0.0000 C   0  0  0  0  0  0  0  0  0  0  0  0
   10.5906   -4.2167    0.0000 C   0  0  0  0  0  0  0  0  0  0  0  0
   12.7340   -5.4542    0.0000 O   0  0  0  0  0  0  0  0  0  0  0  0
   13.4485   -5.0417    0.0000 C   0  0  0  0  0  0  0  0  0  0  0  0
   13.4485   -4.2167    0.0000 C   0  0  0  0  0  0  0  0  0  0  0  0
   12.7340   -3.8042    0.0000 C   0  0  0  0  0  0  0  0  0  0  0  0
   14.1629   -5.4542    0.0000 C   0  0  0  0  0  0  0  0  0  0  0  0
   14.1629   -6.2792    0.0000 C   0  0  0  0  0  0  0  0  0  0  0  0
   14.8774   -6.6917    0.0000 C   0  0  0  0  0  0  0  0  0  0  0  0
   15.5919   -6.2792    0.0000 C   0  0  0  0  0  0  0  0  0  0  0  0
   15.5919   -5.4542    0.0000 C   0  0  0  0  0  0  0  0  0  0  0  0
   14.8774   -5.0417    0.0000 C   0  0  0  0  0  0  0  0  0  0  0  0
   16.3064   -6.6917    0.0000 O   0  0  0  0  0  0  0  0  0  0  0  0
   12.7340   -2.9792    0.0000 O   0  0  0  0  0  0  0  0  0  0  0  0
   11.3051   -2.9792    0.0000 O   0  0  0  0  0  0  0  0  0  0  0  0
   16.3064   -5.0417    0.0000 O   0  0  0  0  0  0  0  0  0  0  0  0
   16.3064   -7.5167    0.0000 C   0  0  0  0  0  0  0  0  0  0  0  0
  1  2  1  0  0  0  0
  2  3  1  0  0  0  0
  3  4  1  0  0  0  0
  4  5  1  0  0  0  0
  5  6  1  0  0  0  0
  6  1  1  0  0  0  0
  1  7  1  1  0  0  0
  3  8  1  1  0  0  0
  5  9  1  1  0  0  0
  4 10  1  6  0  0  0
  2 11  1  6  0  0  0
  7 12  1  0  0  0  0
  7 13  2  0  0  0  0
 12 14  1  0  0  0  0
 15  9  1  6  0  0  0
 15 16  1  0  0  0  0
 16 17  1  0  0  0  0
 17 18  1  0  0  0  0
 18 19  1  0  0  0  0
 19 20  1  0  0  0  0
 20 15  1  0  0  0  0
 18 21  1  1  0  0  0
 20 22  1  1  0  0  0
 16 23  1  1  0  0  0
 19 24  1  6  0  0  0
 21 25  2  0  0  0  0
 21 26  1  0  0  0  0
 26 27  1  0  0  0  0
 23 28  1  0  0  0  0
 28 29  2  0  0  0  0
 29 30  1  0  0  0  0
 30 31  2  0  0  0  0
 31 32  1  0  0  0  0
 32 33  2  0  0  0  0
 33 28  1  0  0  0  0
 30 34  1  0  0  0  0
 34 35  1  0  0  0  0
 35 36  2  0  0  0  0
 36 37  1  0  0  0  0
 37 31  1  0  0  0  0
 35 38  1  0  0  0  0
 38 39  2  0  0  0  0
 39 40  1  0  0  0  0
 40 41  2  0  0  0  0
 41 42  1  0  0  0  0
 42 43  2  0  0  0  0
 43 38  1  0  0  0  0
 41 44  1  0  0  0  0
 37 45  2  0  0  0  0
 32 46  1  0  0  0  0
 42 47  1  0  0  0  0
 44 48  1  0  0  0  0
M  END
>  <cdx:fragmentId>
119

$$$$
