1714.cdx
  Mrv1902 05222410222D          

 58 63  0  0  0  0            999 V2000
    6.3038   -6.6917    0.0000 C   0  0  2  0  0  0  0  0  0  0  0  0
    6.3038   -7.5167    0.0000 C   0  0  2  0  0  0  0  0  0  0  0  0
    7.0182   -7.9292    0.0000 C   0  0  1  0  0  0  0  0  0  0  0  0
    7.7327   -7.5167    0.0000 C   0  0  2  0  0  0  0  0  0  0  0  0
    7.7327   -6.6917    0.0000 C   0  0  1  0  0  0  0  0  0  0  0  0
    7.0182   -6.2792    0.0000 O   0  0  0  0  0  0  0  0  0  0  0  0
    5.5893   -6.2792    0.0000 C   0  0  0  0  0  0  0  0  0  0  0  0
    7.0182   -8.7542    0.0000 O   0  0  0  0  0  0  0  0  0  0  0  0
    8.4472   -6.2792    0.0000 O   0  0  0  0  0  0  0  0  0  0  0  0
    8.4472   -7.9292    0.0000 O   0  0  0  0  0  0  0  0  0  0  0  0
    5.5893   -7.9292    0.0000 O   0  0  0  0  0  0  0  0  0  0  0  0
    8.4472   -8.7542    0.0000 C   0  0  0  0  0  0  0  0  0  0  0  0
    7.7327   -9.1667    0.0000 O   0  0  0  0  0  0  0  0  0  0  0  0
    9.1616   -9.1667    0.0000 C   0  0  0  0  0  0  0  0  0  0  0  0
    9.1616   -9.9917    0.0000 C   0  0  0  0  0  0  0  0  0  0  0  0
    9.8761  -10.4042    0.0000 C   0  0  0  0  0  0  0  0  0  0  0  0
    9.8761  -11.2292    0.0000 C   0  0  0  0  0  0  0  0  0  0  0  0
   10.5906  -11.6417    0.0000 C   0  0  0  0  0  0  0  0  0  0  0  0
   11.3051  -11.2292    0.0000 C   0  0  0  0  0  0  0  0  0  0  0  0
   11.3051  -10.4042    0.0000 C   0  0  0  0  0  0  0  0  0  0  0  0
   10.5906   -9.9917    0.0000 C   0  0  0  0  0  0  0  0  0  0  0  0
   12.0195  -11.6417    0.0000 O   0  0  0  0  0  0  0  0  0  0  0  0
    4.8748   -6.6917    0.0000 O   0  0  0  0  0  0  0  0  0  0  0  0
    5.5893   -5.4542    0.0000 O   0  0  0  0  0  0  0  0  0  0  0  0
    4.1603   -6.2792    0.0000 C   0  0  0  0  0  0  0  0  0  0  0  0
    8.4472   -5.4542    0.0000 C   0  0  1  0  0  0  0  0  0  0  0  0
    9.1616   -5.0417    0.0000 C   0  0  1  0  0  0  0  0  0  0  0  0
    9.1616   -4.2167    0.0000 O   0  0  0  0  0  0  0  0  0  0  0  0
    8.4472   -3.8042    0.0000 C   0  0  1  0  0  0  0  0  0  0  0  0
    7.7327   -4.2167    0.0000 C   0  0  2  0  0  0  0  0  0  0  0  0
    7.7327   -5.0417    0.0000 C   0  0  2  0  0  0  0  0  0  0  0  0
    8.4472   -2.9792    0.0000 C   0  0  0  0  0  0  0  0  0  0  0  0
    7.0182   -5.4542    0.0000 O   0  0  0  0  0  0  0  0  0  0  0  0
    9.8761   -5.4542    0.0000 O   0  0  0  0  0  0  0  0  0  0  0  0
    7.0182   -3.8042    0.0000 O   0  0  0  0  0  0  0  0  0  0  0  0
    9.1616   -2.5667    0.0000 O   0  0  0  0  0  0  0  0  0  0  0  0
    7.7327   -2.5667    0.0000 O   0  0  0  0  0  0  0  0  0  0  0  0
    7.7327   -1.7417    0.0000 C   0  0  0  0  0  0  0  0  0  0  0  0
   10.5906   -5.0417    0.0000 C   0  0  0  0  0  0  0  0  0  0  0  0
   11.3051   -5.4542    0.0000 C   0  0  0  0  0  0  0  0  0  0  0  0
   12.0195   -5.0417    0.0000 C   0  0  0  0  0  0  0  0  0  0  0  0
   12.0195   -4.2167    0.0000 C   0  0  0  0  0  0  0  0  0  0  0  0
   11.3051   -3.8042    0.0000 C   0  0  0  0  0  0  0  0  0  0  0  0
   10.5906   -4.2167    0.0000 C   0  0  0  0  0  0  0  0  0  0  0  0
   12.7340   -5.4542    0.0000 O   0  0  0  0  0  0  0  0  0  0  0  0
   13.4485   -5.0417    0.0000 C   0  0  0  0  0  0  0  0  0  0  0  0
   13.4485   -4.2167    0.0000 C   0  0  0  0  0  0  0  0  0  0  0  0
   12.7340   -3.8042    0.0000 C   0  0  0  0  0  0  0  0  0  0  0  0
   14.1629   -5.4542    0.0000 C   0  0  0  0  0  0  0  0  0  0  0  0
   14.1629   -6.2792    0.0000 C   0  0  0  0  0  0  0  0  0  0  0  0
   14.8774   -6.6917    0.0000 C   0  0  0  0  0  0  0  0  0  0  0  0
   15.5919   -6.2792    0.0000 C   0  0  0  0  0  0  0  0  0  0  0  0
   15.5919   -5.4542    0.0000 C   0  0  0  0  0  0  0  0  0  0  0  0
   14.8774   -5.0417    0.0000 C   0  0  0  0  0  0  0  0  0  0  0  0
   16.3064   -6.6917    0.0000 O   0  0  0  0  0  0  0  0  0  0  0  0
   16.3064   -5.0417    0.0000 O   0  0  0  0  0  0  0  0  0  0  0  0
   12.7340   -2.9792    0.0000 O   0  0  0  0  0  0  0  0  0  0  0  0
   11.3051   -2.9792    0.0000 O   0  0  0  0  0  0  0  0  0  0  0  0
  1  2  1  0  0  0  0
  2  3  1  0  0  0  0
  3  4  1  0  0  0  0
  4  5  1  0  0  0  0
  5  6  1  0  0  0  0
  6  1  1  0  0  0  0
  1  7  1  1  0  0  0
  3  8  1  1  0  0  0
  5  9  1  1  0  0  0
  4 10  1  6  0  0  0
  2 11  1  6  0  0  0
 10 12  1  0  0  0  0
 12 13  2  0  0  0  0
 12 14  1  0  0  0  0
 14 15  2  0  0  0  0
 15 16  1  0  0  0  0
 16 17  2  0  0  0  0
 17 18  1  0  0  0  0
 18 19  2  0  0  0  0
 19 20  1  0  0  0  0
 20 21  2  0  0  0  0
 21 16  1  0  0  0  0
 19 22  1  0  0  0  0
  7 23  1  0  0  0  0
  7 24  2  0  0  0  0
 23 25  1  0  0  0  0
 26  9  1  6  0  0  0
 26 27  1  0  0  0  0
 27 28  1  0  0  0  0
 28 29  1  0  0  0  0
 29 30  1  0  0  0  0
 30 31  1  0  0  0  0
 31 26  1  0  0  0  0
 29 32  1  1  0  0  0
 31 33  1  1  0  0  0
 27 34  1  1  0  0  0
 30 35  1  6  0  0  0
 32 36  2  0  0  0  0
 32 37  1  0  0  0  0
 37 38  1  0  0  0  0
 34 39  1  0  0  0  0
 39 40  2  0  0  0  0
 40 41  1  0  0  0  0
 41 42  2  0  0  0  0
 42 43  1  0  0  0  0
 43 44  2  0  0  0  0
 44 39  1  0  0  0  0
 41 45  1  0  0  0  0
 45 46  1  0  0  0  0
 46 47  2  0  0  0  0
 47 48  1  0  0  0  0
 48 42  1  0  0  0  0
 46 49  1  0  0  0  0
 49 50  2  0  0  0  0
 50 51  1  0  0  0  0
 51 52  2  0  0  0  0
 52 53  1  0  0  0  0
 53 54  2  0  0  0  0
 54 49  1  0  0  0  0
 52 55  1  0  0  0  0
 53 56  1  0  0  0  0
 48 57  2  0  0  0  0
 43 58  1  0  0  0  0
M  END
>  <cdx:fragmentId>
119

$$$$
