1712.cdx
  Mrv1902 05222410202D          

 37 41  0  0  0  0            999 V2000
    5.2348   -9.4090    0.0000 C   0  0  0  0  0  0  0  0  0  0  0  0
    5.2348  -10.2340    0.0000 C   0  0  0  0  0  0  0  0  0  0  0  0
    5.9493  -10.6465    0.0000 C   0  0  0  0  0  0  0  0  0  0  0  0
    6.6637  -10.2340    0.0000 C   0  0  0  0  0  0  0  0  0  0  0  0
    6.6637   -9.4090    0.0000 C   0  0  0  0  0  0  0  0  0  0  0  0
    5.9493   -8.9965    0.0000 C   0  0  0  0  0  0  0  0  0  0  0  0
    7.3782   -8.9965    0.0000 C   0  0  0  0  0  0  0  0  0  0  0  0
    8.1319   -9.3320    0.0000 O   0  0  0  0  0  0  0  0  0  0  0  0
    8.6839   -8.7189    0.0000 C   0  0  0  0  0  0  0  0  0  0  0  0
    8.2714   -8.0045    0.0000 C   0  0  0  0  0  0  0  0  0  0  0  0
    7.4644   -8.1760    0.0000 C   0  0  0  0  0  0  0  0  0  0  0  0
    9.5089   -8.7189    0.0000 C   0  0  0  0  0  0  0  0  0  0  0  0
    9.9214   -8.0045    0.0000 C   0  0  0  0  0  0  0  0  0  0  0  0
    9.5089   -7.2900    0.0000 C   0  0  0  0  0  0  0  0  0  0  0  0
    8.6839   -7.2900    0.0000 C   0  0  0  0  0  0  0  0  0  0  0  0
    6.8514   -7.6239    0.0000 C   0  0  0  0  0  0  0  0  0  0  0  0
    7.0229   -6.8170    0.0000 O   0  0  0  0  0  0  0  0  0  0  0  0
    4.5203   -8.9965    0.0000 O   0  0  0  0  0  0  0  0  0  0  0  0
    4.5203   -8.1715    0.0000 C   0  0  0  0  0  0  0  0  0  0  0  0
    4.5203  -10.6465    0.0000 O   0  0  0  0  0  0  0  0  0  0  0  0
    9.9214   -9.4334    0.0000 O   0  0  0  0  0  0  0  0  0  0  0  0
   10.7464   -9.4334    0.0000 C   0  0  0  0  0  0  0  0  0  0  0  0
    9.9214   -6.5755    0.0000 C   0  0  0  0  0  0  0  0  0  0  0  0
   10.7464   -6.5755    0.0000 C   0  0  0  0  0  0  0  0  0  0  0  0
   11.1589   -5.8610    0.0000 C   0  0  0  0  0  0  0  0  0  0  0  0
   11.9839   -5.8610    0.0000 N   0  0  0  0  0  0  0  0  0  0  0  0
   12.3964   -5.1466    0.0000 C   0  0  0  0  0  0  0  0  0  0  0  0
   11.9839   -4.4321    0.0000 C   0  0  0  0  0  0  0  0  0  0  0  0
   11.1589   -4.4321    0.0000 C   0  0  0  0  0  0  0  0  0  0  0  0
   10.7464   -5.1466    0.0000 C   0  0  0  0  0  0  0  0  0  0  0  0
   10.7464   -3.7176    0.0000 C   0  0  0  0  0  0  0  0  0  0  0  0
    9.9214   -3.7176    0.0000 C   0  0  0  0  0  0  0  0  0  0  0  0
    9.5089   -4.4321    0.0000 C   0  0  0  0  0  0  0  0  0  0  0  0
    9.9214   -5.1466    0.0000 C   0  0  0  0  0  0  0  0  0  0  0  0
    8.6839   -4.4321    0.0000 O   0  0  0  0  0  0  0  0  0  0  0  0
    8.2714   -5.1466    0.0000 C   0  0  0  0  0  0  0  0  0  0  0  0
    9.5089   -3.0032    0.0000 O   0  0  0  0  0  0  0  0  0  0  0  0
  1  2  2  0  0  0  0
  2  3  1  0  0  0  0
  3  4  2  0  0  0  0
  4  5  1  0  0  0  0
  5  6  2  0  0  0  0
  6  1  1  0  0  0  0
  5  7  1  0  0  0  0
  7  8  1  0  0  0  0
  8  9  1  0  0  0  0
  9 10  2  0  0  0  0
 10 11  1  0  0  0  0
 11  7  1  0  0  0  0
  9 12  1  0  0  0  0
 12 13  2  0  0  0  0
 13 14  1  0  0  0  0
 14 15  2  0  0  0  0
 15 10  1  0  0  0  0
 11 16  1  0  0  0  0
 16 17  1  0  0  0  0
  1 18  1  0  0  0  0
 18 19  1  0  0  0  0
  2 20  1  0  0  0  0
 12 21  1  0  0  0  0
 21 22  1  0  0  0  0
 14 23  1  0  0  0  0
 23 24  1  0  0  0  0
 24 25  1  0  0  0  0
 25 26  1  0  0  0  0
 26 27  1  0  0  0  0
 27 28  1  0  0  0  0
 28 29  1  0  0  0  0
 29 30  2  0  0  0  0
 30 25  1  0  0  0  0
 29 31  1  0  0  0  0
 31 32  2  0  0  0  0
 32 33  1  0  0  0  0
 33 34  2  0  0  0  0
 34 30  1  0  0  0  0
 33 35  1  0  0  0  0
 35 36  1  0  0  0  0
 32 37  1  0  0  0  0
M  END
>  <cdx:fragmentId>
5

$$$$
