1711.cdx
  Mrv1902 05222410212D          

 16 16  0  0  0  0            999 V2000
   14.0398  -11.9000    0.0000 C   0  0  0  0  0  0  0  0  0  0  0  0
   13.3253  -11.4875    0.0000 C   0  0  0  0  0  0  0  0  0  0  0  0
   12.6109  -11.9000    0.0000 C   0  0  0  0  0  0  0  0  0  0  0  0
   13.3253  -10.6625    0.0000 O   0  0  0  0  0  0  0  0  0  0  0  0
   15.4688  -11.9000    0.0000 N   0  0  0  0  0  0  0  0  0  0  0  0
   14.7543  -11.4875    0.0000 C   0  0  2  0  0  0  0  0  0  0  0  0
   14.7543  -10.6625    0.0000 C   0  0  0  0  0  0  0  0  0  0  0  0
   15.4688  -10.2500    0.0000 C   0  0  0  0  0  0  0  0  0  0  0  0
   16.1832  -10.6625    0.0000 C   0  0  0  0  0  0  0  0  0  0  0  0
   16.1832  -11.4875    0.0000 C   0  0  1  0  0  0  0  0  0  0  0  0
   15.4688  -12.7250    0.0000 C   0  0  0  0  0  0  0  0  0  0  0  0
   16.8977  -11.9000    0.0000 C   0  0  0  0  0  0  0  0  0  0  0  0
   17.6122  -11.4875    0.0000 C   0  0  0  0  0  0  0  0  0  0  0  0
   18.3266  -11.9000    0.0000 C   0  0  0  0  0  0  0  0  0  0  0  0
   19.0411  -11.4875    0.0000 C   0  0  0  0  0  0  0  0  0  0  0  0
   17.6122  -10.6625    0.0000 O   0  0  0  0  0  0  0  0  0  0  0  0
  1  2  1  0  0  0  0
  2  3  1  0  0  0  0
  2  4  2  0  0  0  0
  5  6  1  0  0  0  0
  6  7  1  0  0  0  0
  7  8  1  0  0  0  0
  8  9  1  0  0  0  0
  9 10  1  0  0  0  0
  5 10  1  0  0  0  0
  5 11  1  0  0  0  0
 12 13  1  0  0  0  0
 13 14  1  0  0  0  0
 14 15  1  0  0  0  0
 13 16  1  0  0  0  0
 10 12  1  1  0  0  0
  6  1  1  1  0  0  0
M  END
>  <cdx:groupId>
1776

>  <cdx:fragmentId>
1735

$$$$
