1721.cdx
  Mrv1902 05222410242D          

 35 39  0  0  0  0            999 V2000
   17.5364   -7.6758    0.0000 C   0  0  1  0  0  0  0  0  0  0  0  0
   18.2509   -8.0883    0.0000 C   0  0  1  0  0  0  0  0  0  0  0  0
   18.2509   -8.9133    0.0000 C   0  0  0  0  0  0  0  0  0  0  0  0
   17.5364   -9.3258    0.0000 C   0  0  0  0  0  0  0  0  0  0  0  0
   16.8220   -8.9133    0.0000 C   0  0  1  0  0  0  0  0  0  0  0  0
   16.1075   -9.3258    0.0000 C   0  0  2  0  0  0  0  0  0  0  0  0
   16.1075  -10.1508    0.0000 C   0  0  0  0  0  0  0  0  0  0  0  0
   15.3930  -10.5633    0.0000 C   0  0  0  0  0  0  0  0  0  0  0  0
   14.6786  -10.1508    0.0000 C   0  0  1  0  0  0  0  0  0  0  0  0
   13.9641  -10.5633    0.0000 C   0  0  0  0  0  0  0  0  0  0  0  0
   13.2496  -10.1508    0.0000 C   0  0  0  0  0  0  0  0  0  0  0  0
   13.2496   -9.3258    0.0000 C   0  0  0  0  0  0  0  0  0  0  0  0
   13.9641   -8.9133    0.0000 C   0  0  0  0  0  0  0  0  0  0  0  0
   14.6786   -9.3258    0.0000 C   0  0  2  0  0  0  0  0  0  0  0  0
   15.3930   -8.9133    0.0000 C   0  0  1  0  0  0  0  0  0  0  0  0
   15.3930   -8.0883    0.0000 C   0  0  0  0  0  0  0  0  0  0  0  0
   16.1075   -7.6758    0.0000 C   0  0  0  0  0  0  0  0  0  0  0  0
   16.8220   -8.0883    0.0000 C   0  0  2  0  0  0  0  0  0  0  0  0
   18.8640   -7.5362    0.0000 C   0  0  0  0  0  0  0  0  0  0  0  0
   18.5285   -6.7826    0.0000 C   0  0  0  0  0  0  0  0  0  0  0  0
   17.7080   -6.8688    0.0000 C   0  0  1  0  0  0  0  0  0  0  0  0
   12.5351  -10.5633    0.0000 O   0  0  0  0  0  0  0  0  0  0  0  0
   17.4109   -5.4711    0.0000 C   0  0  0  0  0  0  0  0  0  0  0  0
   17.1559   -6.2557    0.0000 C   0  0  0  0  0  0  0  0  0  0  0  0
   16.3490   -6.4272    0.0000 C   0  0  0  0  0  0  0  0  0  0  0  0
   14.6786   -8.5008    0.0000 C   0  0  0  0  0  0  0  0  0  0  0  0
   14.3766  -11.2777    0.0000 C   0  0  0  0  0  0  0  0  0  0  0  0
   13.5516  -11.2777    0.0000 C   0  0  0  0  0  0  0  0  0  0  0  0
   16.1075   -8.5008    0.0000 C   0  0  0  0  0  0  0  0  0  0  0  0
   16.8220   -9.7383    0.0000 C   0  0  0  0  0  0  0  0  0  0  0  0
   19.0046   -8.4238    0.0000 C   0  0  0  0  0  0  0  0  0  0  0  0
   14.6786  -10.9758    0.0000 H   0  0  0  0  0  0  0  0  0  0  0  0
   15.3930   -9.7383    0.0000 H   0  0  0  0  0  0  0  0  0  0  0  0
   16.8220   -7.2633    0.0000 H   0  0  0  0  0  0  0  0  0  0  0  0
   17.5364   -8.5008    0.0000 H   0  0  0  0  0  0  0  0  0  0  0  0
  1  2  1  0  0  0  0
  2  3  1  0  0  0  0
  3  4  1  0  0  0  0
  4  5  1  0  0  0  0
  5  6  1  0  0  0  0
  6  7  1  0  0  0  0
  7  8  1  0  0  0  0
  8  9  1  0  0  0  0
  9 10  1  0  0  0  0
 10 11  1  0  0  0  0
 11 12  1  0  0  0  0
 12 13  1  0  0  0  0
 13 14  1  0  0  0  0
  9 14  1  0  0  0  0
 14 15  1  0  0  0  0
  6 15  1  0  0  0  0
 15 16  1  0  0  0  0
 16 17  1  0  0  0  0
 17 18  1  0  0  0  0
  5 18  1  0  0  0  0
  1 18  1  0  0  0  0
 19 20  1  0  0  0  0
 20 21  1  0  0  0  0
 21  1  1  0  0  0  0
 19  2  1  0  0  0  0
 11 22  1  0  0  0  0
 23 24  2  0  0  0  0
 24 25  1  0  0  0  0
 21 24  1  6  0  0  0
 14 26  1  1  0  0  0
 10 27  1  0  0  0  0
 10 28  1  0  0  0  0
  6 29  1  1  0  0  0
  5 30  1  6  0  0  0
  2 31  1  1  0  0  0
  9 32  1  6  0  0  0
 15 33  1  6  0  0  0
 18 34  1  1  0  0  0
  1 35  1  6  0  0  0
M  END
>  <cdx:groupId>
569

>  <cdx:fragmentId>
463

$$$$
