1727.cdx
  Mrv1902 05222410232D          

 31 34  0  0  0  0            999 V2000
   17.2549   -8.9752    0.0000 C   0  0  0  0  0  0  0  0  0  0  0  0
   17.2549   -8.1502    0.0000 C   0  0  0  0  0  0  0  0  0  0  0  0
   16.5405   -7.7377    0.0000 C   0  0  0  0  0  0  0  0  0  0  0  0
   15.8260   -8.1502    0.0000 C   0  0  0  0  0  0  0  0  0  0  0  0
   15.1115   -7.7377    0.0000 C   0  0  0  0  0  0  0  0  0  0  0  0
   14.3970   -8.1502    0.0000 C   0  0  0  0  0  0  0  0  0  0  0  0
   14.3970   -8.9752    0.0000 C   0  0  0  0  0  0  0  0  0  0  0  0
   15.1115   -9.3877    0.0000 C   0  0  0  0  0  0  0  0  0  0  0  0
   15.8260   -8.9752    0.0000 C   0  0  0  0  0  0  0  0  0  0  0  0
   16.5405   -9.3877    0.0000 O   0  0  0  0  0  0  0  0  0  0  0  0
   16.5405   -6.9127    0.0000 O   0  0  0  0  0  0  0  0  0  0  0  0
   13.6826   -9.3877    0.0000 O   0  0  0  0  0  0  0  0  0  0  0  0
   12.2536   -9.3877    0.0000 O   0  0  0  0  0  0  0  0  0  0  0  0
   12.9681   -8.9752    0.0000 C   0  0  2  0  0  0  0  0  0  0  0  0
   12.9681   -8.1502    0.0000 C   0  0  0  0  0  0  0  0  0  0  0  0
   12.2536   -7.7377    0.0000 C   0  0  2  0  0  0  0  0  0  0  0  0
   11.5392   -8.1502    0.0000 C   0  0  2  0  0  0  0  0  0  0  0  0
   11.5392   -8.9752    0.0000 C   0  0  0  0  0  0  0  0  0  0  0  0
   10.8247   -9.3877    0.0000 C   0  0  0  0  0  0  0  0  0  0  0  0
   10.8247   -7.7377    0.0000 O   0  0  0  0  0  0  0  0  0  0  0  0
   12.2536   -6.9127    0.0000 O   0  0  0  0  0  0  0  0  0  0  0  0
   13.6826   -7.7377    0.0000 O   0  0  0  0  0  0  0  0  0  0  0  0
   15.1115   -6.9127    0.0000 O   0  0  0  0  0  0  0  0  0  0  0  0
   17.9694   -9.3877    0.0000 C   0  0  0  0  0  0  0  0  0  0  0  0
   18.6839   -8.9752    0.0000 C   0  0  0  0  0  0  0  0  0  0  0  0
   19.3983   -9.3877    0.0000 C   0  0  0  0  0  0  0  0  0  0  0  0
   19.3983  -10.2127    0.0000 C   0  0  0  0  0  0  0  0  0  0  0  0
   18.6839  -10.6252    0.0000 C   0  0  0  0  0  0  0  0  0  0  0  0
   17.9694  -10.2127    0.0000 C   0  0  0  0  0  0  0  0  0  0  0  0
   20.1128  -10.6252    0.0000 O   0  0  0  0  0  0  0  0  0  0  0  0
   20.1128   -8.9752    0.0000 O   0  0  0  0  0  0  0  0  0  0  0  0
  1  2  2  0  0  0  0
  2  3  1  0  0  0  0
  3  4  1  0  0  0  0
  4  5  1  0  0  0  0
  5  6  2  0  0  0  0
  6  7  1  0  0  0  0
  7  8  2  0  0  0  0
  8  9  1  0  0  0  0
  4  9  2  0  0  0  0
  9 10  1  0  0  0  0
  1 10  1  0  0  0  0
  3 11  2  0  0  0  0
 13 14  1  0  0  0  0
 14 15  1  0  0  0  0
 15 16  1  0  0  0  0
 16 17  1  0  0  0  0
 17 18  1  0  0  0  0
 13 18  1  0  0  0  0
 18 19  1  0  0  0  0
 17 20  1  6  0  0  0
 16 21  1  6  0  0  0
 15 22  1  0  0  0  0
 14 12  1  6  0  0  0
  7 12  1  0  0  0  0
  5 23  1  0  0  0  0
 24 25  1  0  0  0  0
 25 26  2  0  0  0  0
 26 27  1  0  0  0  0
 27 28  2  0  0  0  0
 28 29  1  0  0  0  0
 24 29  2  0  0  0  0
 27 30  1  0  0  0  0
 26 31  1  0  0  0  0
  1 24  1  0  0  0  0
M  END
>  <cdx:groupId>
1153

>  <cdx:fragmentId>
1060

$$$$
