1725.cdx
  Mrv1902 05222410242D          

 35 38  0  0  0  0            999 V2000
    8.2921   -7.9612    0.0000 C   0  0  0  0  0  0  0  0  0  0  0  0
    8.2921   -8.7862    0.0000 C   0  0  0  0  0  0  0  0  0  0  0  0
    7.5777   -9.1987    0.0000 C   0  0  0  0  0  0  0  0  0  0  0  0
    7.5777  -10.0237    0.0000 O   0  0  0  0  0  0  0  0  0  0  0  0
    6.8632   -8.7862    0.0000 C   0  0  0  0  0  0  0  0  0  0  0  0
    6.1487   -9.1987    0.0000 C   0  0  0  0  0  0  0  0  0  0  0  0
    6.1487  -10.0237    0.0000 O   0  0  0  0  0  0  0  0  0  0  0  0
    5.4343   -8.7862    0.0000 C   0  0  0  0  0  0  0  0  0  0  0  0
    5.4343   -7.9612    0.0000 C   0  0  0  0  0  0  0  0  0  0  0  0
    4.7198   -7.5487    0.0000 O   0  0  0  0  0  0  0  0  0  0  0  0
    6.1487   -7.5487    0.0000 C   0  0  0  0  0  0  0  0  0  0  0  0
    6.8632   -7.9612    0.0000 C   0  0  0  0  0  0  0  0  0  0  0  0
    7.5777   -7.5487    0.0000 O   0  0  0  0  0  0  0  0  0  0  0  0
    9.0066   -7.5487    0.0000 C   0  0  0  0  0  0  0  0  0  0  0  0
    9.7211   -7.9612    0.0000 C   0  0  0  0  0  0  0  0  0  0  0  0
   10.4355   -7.5487    0.0000 C   0  0  0  0  0  0  0  0  0  0  0  0
   11.1500   -7.9612    0.0000 O   0  0  0  0  0  0  0  0  0  0  0  0
   10.4355   -6.7237    0.0000 C   0  0  0  0  0  0  0  0  0  0  0  0
   11.1500   -6.3112    0.0000 O   0  0  0  0  0  0  0  0  0  0  0  0
    9.7211   -6.3112    0.0000 C   0  0  0  0  0  0  0  0  0  0  0  0
    9.0066   -6.7237    0.0000 C   0  0  0  0  0  0  0  0  0  0  0  0
    4.0053   -7.9612    0.0000 C   0  0  0  0  0  0  0  0  0  0  0  0
    3.2908   -7.5487    0.0000 C   0  0  2  0  0  0  0  0  0  0  0  0
    3.2908   -6.7237    0.0000 O   0  0  0  0  0  0  0  0  0  0  0  0
    2.5764   -6.3112    0.0000 C   0  0  1  0  0  0  0  0  0  0  0  0
    1.8619   -6.7237    0.0000 C   0  0  2  0  0  0  0  0  0  0  0  0
    1.8619   -7.5487    0.0000 C   0  0  1  0  0  0  0  0  0  0  0  0
    2.5764   -7.9612    0.0000 C   0  0  1  0  0  0  0  0  0  0  0  0
    2.5764   -5.4862    0.0000 O   0  0  0  0  0  0  0  0  0  0  0  0
    1.1474   -7.9612    0.0000 O   0  0  0  0  0  0  0  0  0  0  0  0
    1.1474   -6.3112    0.0000 O   0  0  0  0  0  0  0  0  0  0  0  0
    2.5764   -8.7862    0.0000 O   0  0  0  0  0  0  0  0  0  0  0  0
    1.8619   -5.0737    0.0000 C   0  0  0  0  0  0  0  0  0  0  0  0
    1.8619   -4.2487    0.0000 O   0  0  0  0  0  0  0  0  0  0  0  0
    1.1474   -5.4862    0.0000 C   0  0  0  0  0  0  0  0  0  0  0  0
  1  2  2  0  0  0  0
  2  3  1  0  0  0  0
  3  4  2  0  0  0  0
  3  5  1  0  0  0  0
  5  6  1  0  0  0  0
  6  7  1  0  0  0  0
  6  8  2  0  0  0  0
  8  9  1  0  0  0  0
  9 10  1  0  0  0  0
  9 11  2  0  0  0  0
 11 12  1  0  0  0  0
  5 12  2  0  0  0  0
 12 13  1  0  0  0  0
  1 13  1  0  0  0  0
  1 14  1  0  0  0  0
 14 15  1  0  0  0  0
 15 16  2  0  0  0  0
 16 17  1  0  0  0  0
 16 18  1  0  0  0  0
 18 19  1  0  0  0  0
 18 20  2  0  0  0  0
 20 21  1  0  0  0  0
 14 21  2  0  0  0  0
 10 22  1  0  0  0  0
 23 22  1  1  0  0  0
 23 24  1  0  0  0  0
 24 25  1  0  0  0  0
 25 26  1  0  0  0  0
 26 27  1  0  0  0  0
 27 28  1  0  0  0  0
 28 23  1  0  0  0  0
 25 29  1  1  0  0  0
 27 30  1  1  0  0  0
 26 31  1  6  0  0  0
 28 32  1  6  0  0  0
 29 33  1  0  0  0  0
 33 34  2  0  0  0  0
 33 35  1  0  0  0  0
M  END
>  <cdx:groupId>
1003

>  <cdx:fragmentId>
941

$$$$
