1726.cdx
  Mrv1902 05222410242D          

 32 35  0  0  0  0            999 V2000
   17.2836   -9.9869    0.0000 C   0  0  0  0  0  0  0  0  0  0  0  0
   17.2836   -9.1619    0.0000 C   0  0  0  0  0  0  0  0  0  0  0  0
   16.5686  -10.3993    0.0000 C   0  0  0  0  0  0  0  0  0  0  0  0
   16.5686  -11.2242    0.0000 O   0  0  0  0  0  0  0  0  0  0  0  0
   15.8538   -9.9869    0.0000 C   0  0  0  0  0  0  0  0  0  0  0  0
   15.1388  -10.3993    0.0000 C   0  0  0  0  0  0  0  0  0  0  0  0
   14.4239   -9.9869    0.0000 C   0  0  0  0  0  0  0  0  0  0  0  0
   14.4239   -9.1619    0.0000 C   0  0  0  0  0  0  0  0  0  0  0  0
   15.1388   -8.7495    0.0000 C   0  0  0  0  0  0  0  0  0  0  0  0
   15.8538   -9.1619    0.0000 C   0  0  0  0  0  0  0  0  0  0  0  0
   16.5686   -8.7495    0.0000 O   0  0  0  0  0  0  0  0  0  0  0  0
   17.9984   -8.7495    0.0000 C   0  0  0  0  0  0  0  0  0  0  0  0
   17.9984   -7.9246    0.0000 C   0  0  0  0  0  0  0  0  0  0  0  0
   18.6859   -7.5122    0.0000 C   0  0  0  0  0  0  0  0  0  0  0  0
   19.4283   -7.9246    0.0000 C   0  0  0  0  0  0  0  0  0  0  0  0
   19.4283   -8.7495    0.0000 C   0  0  0  0  0  0  0  0  0  0  0  0
   18.6859   -9.1619    0.0000 C   0  0  0  0  0  0  0  0  0  0  0  0
   13.7365   -8.7495    0.0000 O   0  0  0  0  0  0  0  0  0  0  0  0
   15.1388  -11.2242    0.0000 O   0  0  0  0  0  0  0  0  0  0  0  0
   20.1157   -7.5122    0.0000 O   0  0  0  0  0  0  0  0  0  0  0  0
   18.6859   -6.7148    0.0000 O   0  0  0  0  0  0  0  0  0  0  0  0
   12.9390   -9.1344    0.0000 C   0  0  0  0  0  0  0  0  0  0  0  0
   12.9390   -9.9593    0.0000 C   0  0  2  0  0  0  0  0  0  0  0  0
   13.6540  -10.3718    0.0000 O   0  0  0  0  0  0  0  0  0  0  0  0
   12.2241  -10.3718    0.0000 C   0  0  1  0  0  0  0  0  0  0  0  0
   12.2241  -11.1142    0.0000 O   0  0  0  0  0  0  0  0  0  0  0  0
   11.5092   -9.9593    0.0000 C   0  0  2  0  0  0  0  0  0  0  0  0
   10.8218  -10.3718    0.0000 O   0  0  0  0  0  0  0  0  0  0  0  0
   11.5092   -9.1344    0.0000 C   0  0  2  0  0  0  0  0  0  0  0  0
   12.2241   -8.7221    0.0000 O   0  0  0  0  0  0  0  0  0  0  0  0
   10.8218   -8.7221    0.0000 C   0  0  0  0  0  0  0  0  0  0  0  0
   10.8218   -7.8972    0.0000 O   0  0  0  0  0  0  0  0  0  0  0  0
  1  2  2  0  0  0  0
  1  3  1  0  0  0  0
  3  4  2  0  0  0  0
  3  5  1  0  0  0  0
  5  6  1  0  0  0  0
  6  7  2  0  0  0  0
  7  8  1  0  0  0  0
  8  9  2  0  0  0  0
  9 10  1  0  0  0  0
  5 10  2  0  0  0  0
 10 11  1  0  0  0  0
  2 11  1  0  0  0  0
  2 12  1  0  0  0  0
 12 13  1  0  0  0  0
 13 14  2  0  0  0  0
 14 15  1  0  0  0  0
 15 16  2  0  0  0  0
 16 17  1  0  0  0  0
 12 17  2  0  0  0  0
  8 18  1  0  0  0  0
  6 19  1  0  0  0  0
 15 20  1  0  0  0  0
 14 21  1  0  0  0  0
 22 23  1  0  0  0  0
 23 24  1  6  0  0  0
 23 25  1  0  0  0  0
 25 26  1  1  0  0  0
 25 27  1  0  0  0  0
 27 28  1  6  0  0  0
 27 29  1  0  0  0  0
 29 30  1  0  0  0  0
 29 31  1  1  0  0  0
 31 32  1  0  0  0  0
 22 30  1  0  0  0  0
 18 22  1  0  0  0  0
M  END
>  <cdx:fragmentId>
3

$$$$
