39230.cdx
  Mrv1902 05222410242D          

 43 47  0  0  0  0            999 V2000
   11.3672   -7.3550    0.0000 O   0  0  0  0  0  0  0  0  0  0  0  0
    9.2238   -7.7675    0.0000 C   0  0  0  0  0  0  0  0  0  0  0  0
    9.9383   -7.3550    0.0000 C   0  0  0  0  0  0  0  0  0  0  0  0
   10.6527   -7.7675    0.0000 C   0  0  0  0  0  0  0  0  0  0  0  0
   10.6527   -8.5925    0.0000 C   0  0  0  0  0  0  0  0  0  0  0  0
    9.9383   -9.0050    0.0000 C   0  0  0  0  0  0  0  0  0  0  0  0
    9.2238   -8.5925    0.0000 C   0  0  0  0  0  0  0  0  0  0  0  0
    6.3659  -11.0675    0.0000 O   0  0  0  0  0  0  0  0  0  0  0  0
    7.7948  -11.0675    0.0000 O   0  0  0  0  0  0  0  0  0  0  0  0
    7.7948   -8.5925    0.0000 O   0  0  0  0  0  0  0  0  0  0  0  0
    7.0804   -9.0050    0.0000 C   0  0  0  0  0  0  0  0  0  0  0  0
    6.3659   -8.5925    0.0000 C   0  0  0  0  0  0  0  0  0  0  0  0
    5.6514   -9.0050    0.0000 C   0  0  0  0  0  0  0  0  0  0  0  0
    5.6514   -9.8300    0.0000 C   0  0  0  0  0  0  0  0  0  0  0  0
    6.3659  -10.2425    0.0000 C   0  0  0  0  0  0  0  0  0  0  0  0
    7.0804   -9.8300    0.0000 C   0  0  0  0  0  0  0  0  0  0  0  0
    7.7948  -10.2425    0.0000 C   0  0  0  0  0  0  0  0  0  0  0  0
    8.5093   -9.8300    0.0000 C   0  0  0  0  0  0  0  0  0  0  0  0
    8.5093   -9.0050    0.0000 C   0  0  0  0  0  0  0  0  0  0  0  0
    4.9370   -8.5925    0.0000 O   0  0  0  0  0  0  0  0  0  0  0  0
    9.9383   -6.5300    0.0000 O   0  0  0  0  0  0  0  0  0  0  0  0
    4.2225   -9.0050    0.0000 C   0  0  2  0  0  0  0  0  0  0  0  0
    3.5080   -8.5925    0.0000 O   0  0  0  0  0  0  0  0  0  0  0  0
    2.7935   -9.0050    0.0000 C   0  0  1  0  0  0  0  0  0  0  0  0
    2.7935   -9.8300    0.0000 C   0  0  2  0  0  0  0  0  0  0  0  0
    3.5080  -10.2425    0.0000 C   0  0  1  0  0  0  0  0  0  0  0  0
    4.2225   -9.8300    0.0000 C   0  0  1  0  0  0  0  0  0  0  0  0
    2.0791   -8.5925    0.0000 C   0  0  0  0  0  0  0  0  0  0  0  0
    3.5080  -11.0675    0.0000 O   0  0  0  0  0  0  0  0  0  0  0  0
    1.3646   -9.0050    0.0000 O   0  0  0  0  0  0  0  0  0  0  0  0
   10.6527   -6.1175    0.0000 C   0  0  2  0  0  0  0  0  0  0  0  0
   11.3672   -6.5300    0.0000 O   0  0  0  0  0  0  0  0  0  0  0  0
   12.0817   -6.1175    0.0000 C   0  0  1  0  0  0  0  0  0  0  0  0
   12.0817   -5.2925    0.0000 C   0  0  2  0  0  0  0  0  0  0  0  0
   11.3672   -4.8800    0.0000 C   0  0  1  0  0  0  0  0  0  0  0  0
   10.6527   -5.2925    0.0000 C   0  0  1  0  0  0  0  0  0  0  0  0
   12.7961   -6.5300    0.0000 C   0  0  0  0  0  0  0  0  0  0  0  0
   11.3672   -4.0550    0.0000 O   0  0  0  0  0  0  0  0  0  0  0  0
    9.9383   -4.8800    0.0000 O   0  0  0  0  0  0  0  0  0  0  0  0
   12.7961   -4.8800    0.0000 O   0  0  0  0  0  0  0  0  0  0  0  0
    2.0791  -10.2425    0.0000 O   0  0  0  0  0  0  0  0  0  0  0  0
    4.9370  -10.2425    0.0000 O   0  0  0  0  0  0  0  0  0  0  0  0
   13.5106   -6.1175    0.0000 O   0  0  0  0  0  0  0  0  0  0  0  0
 20 13  1  0  0  0  0
 19  7  1  0  0  0  0
  4  1  1  0  0  0  0
  7  2  2  0  0  0  0
  3  2  1  0  0  0  0
  4  3  2  0  0  0  0
  5  4  1  0  0  0  0
  6  5  2  0  0  0  0
  7  6  1  0  0  0  0
 15  8  1  0  0  0  0
 17  9  2  0  0  0  0
 19 10  1  0  0  0  0
 11 10  1  0  0  0  0
 16 11  2  0  0  0  0
 12 11  1  0  0  0  0
 13 12  2  0  0  0  0
 14 13  1  0  0  0  0
 15 14  2  0  0  0  0
 16 15  1  0  0  0  0
 17 16  1  0  0  0  0
 18 17  1  0  0  0  0
 19 18  2  0  0  0  0
  3 21  1  0  0  0  0
 22 20  1  1  0  0  0
 22 23  1  0  0  0  0
 23 24  1  0  0  0  0
 24 25  1  0  0  0  0
 25 26  1  0  0  0  0
 26 27  1  0  0  0  0
 27 22  1  0  0  0  0
 24 28  1  1  0  0  0
 26 29  1  1  0  0  0
 28 30  1  0  0  0  0
 31 21  1  1  0  0  0
 31 32  1  0  0  0  0
 32 33  1  0  0  0  0
 33 34  1  0  0  0  0
 34 35  1  0  0  0  0
 35 36  1  0  0  0  0
 36 31  1  0  0  0  0
 33 37  1  1  0  0  0
 35 38  1  1  0  0  0
 36 39  1  6  0  0  0
 34 40  1  6  0  0  0
 25 41  1  6  0  0  0
 27 42  1  6  0  0  0
 37 43  1  0  0  0  0
M  END
>  <cdx:fragmentId>
1241

$$$$
