1749.cdx
  Mrv1902 05222410202D          

 57 65  0  0  0  0            999 V2000
    3.0098  -14.1020    0.0000 C   0  0  0  0  0  0  0  0  0  0  0  0
    3.6319  -14.6395    0.0000 O   0  0  0  0  0  0  0  0  0  0  0  0
    4.3353  -14.2139    0.0000 C   0  0  0  0  0  0  0  0  0  0  0  0
    4.1479  -13.4134    0.0000 C   0  0  0  0  0  0  0  0  0  0  0  0
    3.3287  -13.3442    0.0000 C   0  0  0  0  0  0  0  0  0  0  0  0
    5.1546  -14.2830    0.0000 C   0  0  0  0  0  0  0  0  0  0  0  0
    5.4735  -13.5252    0.0000 C   0  0  0  0  0  0  0  0  0  0  0  0
    4.8513  -12.9878    0.0000 O   0  0  0  0  0  0  0  0  0  0  0  0
    2.9176  -12.6322    0.0000 O   0  0  0  0  0  0  0  0  0  0  0  0
    4.5227  -15.0144    0.0000 O   0  0  0  0  0  0  0  0  0  0  0  0
    6.2740  -13.3378    0.0000 O   0  0  0  0  0  0  0  0  0  0  0  0
    4.6099  -15.5346    0.0000 C   0  0  0  0  0  0  0  0  0  0  0  0
    6.7316  -15.1091    0.0000 C   0  0  0  0  0  0  0  0  0  0  0  0
    5.6379  -14.9663    0.0000 C   0  0  0  0  0  0  0  0  0  0  0  0
    5.1033  -16.2234    0.0000 C   0  0  0  0  0  0  0  0  0  0  0  0
    6.0786  -16.2867    0.0000 C   0  0  0  0  0  0  0  0  0  0  0  0
    6.6278  -15.8578    0.0000 C   0  0  0  0  0  0  0  0  0  0  0  0
    6.3168  -16.9417    0.0000 O   0  0  0  0  0  0  0  0  0  0  0  0
    7.0126  -16.9052    0.0000 C   0  0  0  0  0  0  0  0  0  0  0  0
    7.2045  -16.2278    0.0000 C   0  0  0  0  0  0  0  0  0  0  0  0
    7.5034  -17.4101    0.0000 C   0  0  0  0  0  0  0  0  0  0  0  0
    8.1860  -17.2375    0.0000 C   0  0  0  0  0  0  0  0  0  0  0  0
    8.3778  -16.5601    0.0000 C   0  0  0  0  0  0  0  0  0  0  0  0
    7.8871  -16.0552    0.0000 C   0  0  0  0  0  0  0  0  0  0  0  0
    7.4685  -14.4417    0.0000 C   0  0  0  0  0  0  0  0  0  0  0  0
    7.2589  -13.4698    0.0000 O   0  0  0  0  0  0  0  0  0  0  0  0
    8.1955  -14.8255    0.0000 O   0  0  0  0  0  0  0  0  0  0  0  0
    8.8643  -12.7107    0.0000 C   0  0  0  0  0  0  0  0  0  0  0  0
    9.5403  -13.1786    0.0000 C   0  0  0  0  0  0  0  0  0  0  0  0
   10.2835  -12.8272    0.0000 C   0  0  0  0  0  0  0  0  0  0  0  0
   10.3508  -12.0078    0.0000 C   0  0  0  0  0  0  0  0  0  0  0  0
    9.6748  -11.5399    0.0000 O   0  0  0  0  0  0  0  0  0  0  0  0
    8.9316  -11.8913    0.0000 C   0  0  0  0  0  0  0  0  0  0  0  0
    5.5854  -16.9445    0.0000 O   0  0  0  0  0  0  0  0  0  0  0  0
    4.6923  -16.9354    0.0000 O   0  0  0  0  0  0  0  0  0  0  0  0
    7.2794  -18.2011    0.0000 O   0  0  0  0  0  0  0  0  0  0  0  0
    8.7590  -17.8270    0.0000 O   0  0  0  0  0  0  0  0  0  0  0  0
    5.1546  -15.5633    0.0000 O   0  0  0  0  0  0  0  0  0  0  0  0
    3.8080  -15.3535    0.0000 O   0  0  0  0  0  0  0  0  0  0  0  0
    8.2196  -11.4802    0.0000 C   0  0  0  0  0  0  0  0  0  0  0  0
    8.2196  -10.6581    0.0000 O   0  0  0  0  0  0  0  0  0  0  0  0
   11.0628  -11.5968    0.0000 O   0  0  0  0  0  0  0  0  0  0  0  0
   11.7748  -12.0078    0.0000 C   0  0  0  0  0  0  0  0  0  0  0  0
   12.4868  -11.5968    0.0000 C   0  0  0  0  0  0  0  0  0  0  0  0
   11.7748  -12.8300    0.0000 O   0  0  0  0  0  0  0  0  0  0  0  0
   13.1988  -12.0078    0.0000 C   0  0  0  0  0  0  0  0  0  0  0  0
   13.9108  -11.5968    0.0000 C   0  0  0  0  0  0  0  0  0  0  0  0
   13.9108  -10.7746    0.0000 C   0  0  0  0  0  0  0  0  0  0  0  0
   13.1988  -10.3636    0.0000 C   0  0  0  0  0  0  0  0  0  0  0  0
   12.4868  -10.7746    0.0000 C   0  0  0  0  0  0  0  0  0  0  0  0
   13.1988   -9.5414    0.0000 O   0  0  0  0  0  0  0  0  0  0  0  0
   14.6227  -10.3636    0.0000 O   0  0  0  0  0  0  0  0  0  0  0  0
   14.6227  -12.0078    0.0000 O   0  0  0  0  0  0  0  0  0  0  0  0
    9.5403  -14.0008    0.0000 O   0  0  0  0  0  0  0  0  0  0  0  0
   10.5315  -14.0391    0.0000 O   0  0  0  0  0  0  0  0  0  0  0  0
    8.9559  -15.2136    0.0000 C   0  0  0  0  0  0  0  0  0  0  0  0
    8.5768  -14.4841    0.0000 O   0  0  0  0  0  0  0  0  0  0  0  0
  1  2  1  0  0  0  0
  2  3  1  0  0  0  0
  3  4  1  0  0  0  0
  4  5  1  0  0  0  0
  5  1  1  0  0  0  0
  3  6  1  0  0  0  0
  6  7  1  0  0  0  0
  7  8  1  0  0  0  0
  8  4  1  0  0  0  0
  5  9  1  0  0  0  0
  3 10  1  0  0  0  0
  7 11  2  0  0  0  0
  6 13  1  0  0  0  0
 12 14  1  0  0  0  0
 14 13  1  0  0  0  0
 12 15  1  0  0  0  0
 15 16  1  0  0  0  0
 16 17  1  0  0  0  0
 13 17  1  0  0  0  0
 16 18  1  0  0  0  0
 18 19  1  0  0  0  0
 19 20  2  0  0  0  0
 20 17  1  0  0  0  0
 19 21  1  0  0  0  0
 21 22  2  0  0  0  0
 22 23  1  0  0  0  0
 23 24  2  0  0  0  0
 24 20  1  0  0  0  0
 13 25  1  0  0  0  0
 25 26  1  0  0  0  0
 25 27  2  0  0  0  0
 26 28  1  0  0  0  0
 28 29  1  0  0  0  0
 29 30  1  0  0  0  0
 30 31  1  0  0  0  0
 31 32  1  0  0  0  0
 32 33  1  0  0  0  0
 33 28  1  0  0  0  0
 16 34  1  0  0  0  0
 15 35  1  0  0  0  0
 21 36  1  0  0  0  0
 22 37  1  0  0  0  0
  6 38  1  0  0  0  0
 38 15  1  0  0  0  0
 12 39  2  0  0  0  0
 33 40  1  0  0  0  0
 40 41  1  0  0  0  0
 31 42  1  0  0  0  0
 42 43  1  0  0  0  0
 43 44  1  0  0  0  0
 43 45  2  0  0  0  0
 44 46  2  0  0  0  0
 46 47  1  0  0  0  0
 47 48  2  0  0  0  0
 48 49  1  0  0  0  0
 49 50  2  0  0  0  0
 50 44  1  0  0  0  0
 49 51  1  0  0  0  0
 48 52  1  0  0  0  0
 47 53  1  0  0  0  0
 29 54  1  0  0  0  0
 30 55  1  0  0  0  0
 24 56  1  0  0  0  0
 55 56  1  0  0  0  0
 56 57  2  0  0  0  0
M  END
>  <cdx:fragmentId>
3331

$$$$
