1746.cdx
  Mrv1902 05222410272D          

 39 45  0  0  0  0            999 V2000
    7.0588  -13.6792    0.0000 C   0  0  0  0  0  0  0  0  0  0  0  0
    6.5087  -13.0682    0.0000 C   0  0  0  0  0  0  0  0  0  0  0  0
    5.7045  -13.2392    0.0000 C   0  0  0  0  0  0  0  0  0  0  0  0
    5.4505  -14.0211    0.0000 O   0  0  0  0  0  0  0  0  0  0  0  0
    6.0006  -14.6320    0.0000 C   0  0  0  0  0  0  0  0  0  0  0  0
    6.8048  -14.4611    0.0000 C   0  0  1  0  0  0  0  0  0  0  0  0
    6.7628  -12.2863    0.0000 C   0  0  0  0  0  0  0  0  0  0  0  0
    6.2126  -11.6754    0.0000 C   0  0  0  0  0  0  0  0  0  0  0  0
    5.4085  -11.8463    0.0000 C   0  0  0  0  0  0  0  0  0  0  0  0
    5.1544  -12.6282    0.0000 C   0  0  0  0  0  0  0  0  0  0  0  0
    7.8810  -13.6792    0.0000 C   0  0  0  0  0  0  0  0  0  0  0  0
    8.1350  -14.4611    0.0000 C   0  0  0  0  0  0  0  0  0  0  0  0
    8.9392  -14.6320    0.0000 C   0  0  0  0  0  0  0  0  0  0  0  0
    9.4893  -14.0211    0.0000 C   0  0  0  0  0  0  0  0  0  0  0  0
    9.2352  -13.2392    0.0000 C   0  0  0  0  0  0  0  0  0  0  0  0
    8.4311  -13.0682    0.0000 C   0  0  0  0  0  0  0  0  0  0  0  0
    7.4699  -14.9443    0.0000 O   0  0  0  0  0  0  0  0  0  0  0  0
    9.7854  -12.6282    0.0000 C   0  0  0  0  0  0  0  0  0  0  0  0
    9.5313  -11.8463    0.0000 C   0  0  2  0  0  0  0  0  0  0  0  0
    8.7271  -11.6754    0.0000 C   0  0  2  0  0  0  0  0  0  0  0  0
    8.1770  -12.2863    0.0000 O   0  0  0  0  0  0  0  0  0  0  0  0
    8.4731  -10.8935    0.0000 C   0  0  0  0  0  0  0  0  0  0  0  0
   10.0814  -11.2353    0.0000 O   0  0  0  0  0  0  0  0  0  0  0  0
    6.5826  -15.5065    0.0000 C   0  0  0  0  0  0  0  0  0  0  0  0
    5.8007  -15.7606    0.0000 C   0  0  0  0  0  0  0  0  0  0  0  0
    5.6297  -16.5648    0.0000 C   0  0  0  0  0  0  0  0  0  0  0  0
    6.2407  -17.1149    0.0000 C   0  0  0  0  0  0  0  0  0  0  0  0
    7.0226  -16.8608    0.0000 C   0  0  0  0  0  0  0  0  0  0  0  0
    7.1935  -16.0566    0.0000 C   0  0  0  0  0  0  0  0  0  0  0  0
    9.0232  -10.2825    0.0000 C   0  0  0  0  0  0  0  0  0  0  0  0
    8.7691   -9.5006    0.0000 C   0  0  0  0  0  0  0  0  0  0  0  0
    7.9650   -9.3297    0.0000 C   0  0  0  0  0  0  0  0  0  0  0  0
    7.4149   -9.9407    0.0000 C   0  0  0  0  0  0  0  0  0  0  0  0
    7.6689  -10.7226    0.0000 C   0  0  0  0  0  0  0  0  0  0  0  0
    7.7109   -8.5478    0.0000 O   0  0  0  0  0  0  0  0  0  0  0  0
    7.5669  -12.1154    0.0000 O   0  0  0  0  0  0  0  0  0  0  0  0
    4.8584  -11.2353    0.0000 O   0  0  0  0  0  0  0  0  0  0  0  0
    5.8101  -15.2185    0.0000 O   0  0  0  0  0  0  0  0  0  0  0  0
    6.0698  -17.9190    0.0000 O   0  0  0  0  0  0  0  0  0  0  0  0
  1  2  1  0  0  0  0
  2  3  2  0  0  0  0
  3  4  1  0  0  0  0
  4  5  1  0  0  0  0
  5  6  1  0  0  0  0
  6  1  1  0  0  0  0
  2  7  1  0  0  0  0
  7  8  2  0  0  0  0
  8  9  1  0  0  0  0
  9 10  2  0  0  0  0
 10  3  1  0  0  0  0
 11  1  1  6  0  0  0
 11 12  2  0  0  0  0
 12 13  1  0  0  0  0
 13 14  2  0  0  0  0
 14 15  1  0  0  0  0
 15 16  2  0  0  0  0
 16 11  1  0  0  0  0
 12 17  1  0  0  0  0
  6 17  1  0  0  0  0
 15 18  1  0  0  0  0
 18 19  1  0  0  0  0
 19 20  1  0  0  0  0
 20 21  1  0  0  0  0
 21 16  1  0  0  0  0
 20 22  1  6  0  0  0
 19 23  1  6  0  0  0
  6 24  1  1  0  0  0
 24 25  2  0  0  0  0
 25 26  1  0  0  0  0
 26 27  2  0  0  0  0
 27 28  1  0  0  0  0
 28 29  2  0  0  0  0
 29 24  1  0  0  0  0
 22 30  2  0  0  0  0
 30 31  1  0  0  0  0
 31 32  2  0  0  0  0
 32 33  1  0  0  0  0
 33 34  2  0  0  0  0
 34 22  1  0  0  0  0
 32 35  1  0  0  0  0
  7 36  1  0  0  0  0
  9 37  1  0  0  0  0
  5 38  2  0  0  0  0
 27 39  1  0  0  0  0
M  END
>  <cdx:fragmentId>
2929

$$$$
