39243.cdx
  Mrv1902 05222410272D          

 59 66  0  0  0  0            999 V2000
   12.9541   -9.8450    0.0000 C   0  0  1  0  0  0  0  0  0  0  0  0
   12.9541   -9.0200    0.0000 C   0  0  0  0  0  0  0  0  0  0  0  0
   13.6685   -8.6075    0.0000 C   0  0  0  0  0  0  0  0  0  0  0  0
   13.6685  -10.2575    0.0000 C   0  0  0  0  0  0  0  0  0  0  0  0
   14.3830   -9.8450    0.0000 C   0  0  1  0  0  0  0  0  0  0  0  0
   15.0975  -10.2575    0.0000 C   0  0  0  0  0  0  0  0  0  0  0  0
   15.8119   -9.8450    0.0000 C   0  0  0  0  0  0  0  0  0  0  0  0
   15.8119   -9.0200    0.0000 C   0  0  1  0  0  0  0  0  0  0  0  0
   16.5264   -8.6075    0.0000 C   0  0  2  0  0  0  0  0  0  0  0  0
   17.3110   -8.8624    0.0000 C   0  0  0  0  0  0  0  0  0  0  0  0
   17.7960   -8.1950    0.0000 C   0  0  2  0  0  0  0  0  0  0  0  0
   18.2809   -8.8624    0.0000 H   0  0  0  0  0  0  0  0  0  0  0  0
   18.5806   -7.9400    0.0000 O   0  0  0  0  0  0  0  0  0  0  0  0
   17.3110   -7.5275    0.0000 C   0  0  2  0  0  0  0  0  0  0  0  0
   16.9494   -6.7860    0.0000 H   0  0  0  0  0  0  0  0  0  0  0  0
   17.7960   -6.8601    0.0000 C   0  0  1  0  0  0  0  0  0  0  0  0
   18.5806   -7.1150    0.0000 C   0  0  2  0  0  0  0  0  0  0  0  0
   18.4943   -6.2946    0.0000 O   0  0  0  0  0  0  0  0  0  0  0  0
   19.3343   -7.4506    0.0000 C   0  0  0  0  0  0  0  0  0  0  0  0
   20.0017   -6.9657    0.0000 C   0  0  0  0  0  0  0  0  0  0  0  0
   19.9155   -6.1452    0.0000 C   0  0  0  0  0  0  0  0  0  0  0  0
   19.1618   -5.8096    0.0000 C   0  0  0  0  0  0  0  0  0  0  0  0
   20.5829   -5.6603    0.0000 C   0  0  0  0  0  0  0  0  0  0  0  0
   17.5410   -6.0755    0.0000 C   0  0  0  0  0  0  0  0  0  0  0  0
   16.5264   -7.7825    0.0000 C   0  0  2  0  0  0  0  0  0  0  0  0
   16.5264   -6.9575    0.0000 C   0  0  0  0  0  0  0  0  0  0  0  0
   15.8119   -7.3700    0.0000 C   0  0  1  0  0  0  0  0  0  0  0  0
   15.0975   -7.7825    0.0000 C   0  0  0  0  0  0  0  0  0  0  0  0
   15.0975   -8.6075    0.0000 C   0  0  2  0  0  0  0  0  0  0  0  0
   14.3830   -9.0200    0.0000 C   0  0  1  0  0  0  0  0  0  0  0  0
   14.3830   -8.1950    0.0000 C   0  0  0  0  0  0  0  0  0  0  0  0
   15.0975   -9.4325    0.0000 H   0  0  0  0  0  0  0  0  0  0  0  0
   15.8119   -8.1950    0.0000 H   0  0  0  0  0  0  0  0  0  0  0  0
   16.5264   -9.4325    0.0000 H   0  0  0  0  0  0  0  0  0  0  0  0
   12.2396  -10.2575    0.0000 O   0  0  0  0  0  0  0  0  0  0  0  0
   14.3830  -10.6700    0.0000 H   0  0  0  0  0  0  0  0  0  0  0  0
   10.8361   -8.6041    0.0000 C   0  0  2  0  0  0  0  0  0  0  0  0
   10.1217   -9.0168    0.0000 C   0  0  1  0  0  0  0  0  0  0  0  0
   10.1220   -9.8418    0.0000 C   0  0  1  0  0  0  0  0  0  0  0  0
   10.8366  -10.2541    0.0000 C   0  0  2  0  0  0  0  0  0  0  0  0
   11.5509   -9.8414    0.0000 C   0  0  1  0  0  0  0  0  0  0  0  0
   11.5507   -9.0164    0.0000 O   0  0  0  0  0  0  0  0  0  0  0  0
   10.8358   -7.7791    0.0000 C   0  0  0  0  0  0  0  0  0  0  0  0
    9.4076  -10.2545    0.0000 O   0  0  0  0  0  0  0  0  0  0  0  0
    9.4071   -8.6045    0.0000 O   0  0  0  0  0  0  0  0  0  0  0  0
   10.8368  -11.0791    0.0000 O   0  0  0  0  0  0  0  0  0  0  0  0
   10.1213   -7.3668    0.0000 O   0  0  0  0  0  0  0  0  0  0  0  0
    8.6856  -11.4907    0.0000 C   0  0  2  0  0  0  0  0  0  0  0  0
    8.6891  -12.3157    0.0000 C   0  0  2  0  0  0  0  0  0  0  0  0
    9.4052  -12.7252    0.0000 C   0  0  1  0  0  0  0  0  0  0  0  0
   10.1180  -12.3097    0.0000 C   0  0  2  0  0  0  0  0  0  0  0  0
   10.1145  -11.4847    0.0000 C   0  0  1  0  0  0  0  0  0  0  0  0
    9.3983  -11.0752    0.0000 O   0  0  0  0  0  0  0  0  0  0  0  0
    7.9694  -11.0812    0.0000 C   0  0  0  0  0  0  0  0  0  0  0  0
    9.4087  -13.5501    0.0000 O   0  0  0  0  0  0  0  0  0  0  0  0
    7.9763  -12.7311    0.0000 O   0  0  0  0  0  0  0  0  0  0  0  0
   10.8342  -12.7192    0.0000 O   0  0  0  0  0  0  0  0  0  0  0  0
    7.2567  -11.4966    0.0000 O   0  0  0  0  0  0  0  0  0  0  0  0
   15.8119   -6.5450    0.0000 O   0  0  0  0  0  0  0  0  0  0  0  0
  1  2  1  0  0  0  0
  2  3  1  0  0  0  0
  1  4  1  0  0  0  0
  4  5  1  0  0  0  0
  5  6  1  0  0  0  0
  6  7  1  0  0  0  0
  7  8  1  0  0  0  0
  8  9  1  0  0  0  0
  9 10  1  0  0  0  0
 10 11  1  0  0  0  0
 11 12  1  6  0  0  0
 11 13  1  0  0  0  0
 11 14  1  0  0  0  0
 14 15  1  6  0  0  0
 14 16  1  0  0  0  0
 16 17  1  0  0  0  0
 17 13  1  6  0  0  0
 17 18  1  0  0  0  0
 17 19  1  0  0  0  0
 19 20  1  0  0  0  0
 20 21  1  0  0  0  0
 21 22  1  0  0  0  0
 18 22  1  0  0  0  0
 21 23  2  0  0  0  0
 16 24  1  6  0  0  0
 14 25  1  0  0  0  0
  9 25  1  0  0  0  0
 25 26  1  1  0  0  0
 25 27  1  0  0  0  0
 27 28  1  0  0  0  0
 28 29  1  0  0  0  0
  8 29  1  0  0  0  0
 29 30  1  0  0  0  0
  3 30  1  0  0  0  0
  5 30  1  0  0  0  0
 30 31  1  1  0  0  0
 29 32  1  6  0  0  0
  8 33  1  1  0  0  0
  9 34  1  6  0  0  0
  1 35  1  1  0  0  0
  5 36  1  1  0  0  0
 37 38  1  0  0  0  0
 38 39  1  0  0  0  0
 39 40  1  0  0  0  0
 40 41  1  0  0  0  0
 41 42  1  0  0  0  0
 42 37  1  0  0  0  0
 37 43  1  1  0  0  0
 39 44  1  1  0  0  0
 38 45  1  1  0  0  0
 40 46  1  6  0  0  0
 43 47  1  0  0  0  0
 48 49  1  0  0  0  0
 49 50  1  0  0  0  0
 50 51  1  0  0  0  0
 51 52  1  0  0  0  0
 52 53  1  0  0  0  0
 53 48  1  0  0  0  0
 48 54  1  1  0  0  0
 50 55  1  1  0  0  0
 49 56  1  6  0  0  0
 51 57  1  6  0  0  0
 54 58  1  0  0  0  0
 52 46  1  1  0  0  0
 41 35  1  1  0  0  0
 27 59  1  1  0  0  0
M  END
>  <cdx:fragmentId>
860

$$$$
