39261 cdx.cdx
  Mrv1902 05222410202D          

 62 69  0  0  0  0            999 V2000
   11.5311   -6.7338    0.0000 O   0  0  0  0  0  0  0  0  0  0  0  0
   10.8222   -7.1501    0.0000 C   0  0  0  0  0  0  0  0  0  0  0  0
   10.8099   -5.5059    0.0000 O   0  0  0  0  0  0  0  0  0  0  0  0
    9.3798   -4.6944    0.0000 O   0  0  0  0  0  0  0  0  0  0  0  0
    7.9620   -5.5272    0.0000 O   0  0  0  0  0  0  0  0  0  0  0  0
    7.2531   -5.9436    0.0000 O   0  0  0  0  0  0  0  0  0  0  0  0
    9.3983   -7.1608    0.0000 O   0  0  0  0  0  0  0  0  0  0  0  0
   10.1072   -6.7444    0.0000 C   0  0  1  0  0  0  0  0  0  0  0  0
   10.1010   -5.9223    0.0000 C   0  0  2  0  0  0  0  0  0  0  0  0
    9.3860   -5.5166    0.0000 C   0  0  1  0  0  0  0  0  0  0  0  0
    8.6771   -5.9329    0.0000 C   0  0  2  0  0  0  0  0  0  0  0  0
    8.6832   -6.7550    0.0000 C   0  0  2  0  0  0  0  0  0  0  0  0
    8.6955   -8.3993    0.0000 O   0  0  0  0  0  0  0  0  0  0  0  0
    2.9875   -6.7976    0.0000 O   0  0  0  0  0  0  0  0  0  0  0  0
    2.9998   -8.4419    0.0000 O   0  0  0  0  0  0  0  0  0  0  0  0
    5.8292   -5.9542    0.0000 O   0  0  0  0  0  0  0  0  0  0  0  0
    7.2716   -8.4099    0.0000 C   0  0  0  0  0  0  0  0  0  0  0  0
    7.9805   -7.9935    0.0000 C   0  0  0  0  0  0  0  0  0  0  0  0
    7.9743   -7.1714    0.0000 C   0  0  0  0  0  0  0  0  0  0  0  0
    7.2593   -6.7657    0.0000 C   0  0  0  0  0  0  0  0  0  0  0  0
    5.8476   -8.4206    0.0000 O   0  0  0  0  0  0  0  0  0  0  0  0
    6.5565   -8.0042    0.0000 C   0  0  0  0  0  0  0  0  0  0  0  0
    6.5504   -7.1821    0.0000 C   0  0  0  0  0  0  0  0  0  0  0  0
    5.8353   -6.7763    0.0000 C   0  0  0  0  0  0  0  0  0  0  0  0
    5.1326   -8.0148    0.0000 C   0  0  0  0  0  0  0  0  0  0  0  0
    5.1264   -7.1927    0.0000 C   0  0  0  0  0  0  0  0  0  0  0  0
    4.4114   -6.7870    0.0000 C   0  0  0  0  0  0  0  0  0  0  0  0
    3.7025   -7.2034    0.0000 C   0  0  0  0  0  0  0  0  0  0  0  0
    3.7087   -8.0255    0.0000 C   0  0  0  0  0  0  0  0  0  0  0  0
    4.4237   -8.4312    0.0000 C   0  0  0  0  0  0  0  0  0  0  0  0
    3.0182  -10.9082    0.0000 O   0  0  0  0  0  0  0  0  0  0  0  0
    3.7271  -10.4918    0.0000 C   0  0  0  0  0  0  0  0  0  0  0  0
    3.7394  -12.1360    0.0000 O   0  0  0  0  0  0  0  0  0  0  0  0
    5.1695  -12.9475    0.0000 O   0  0  0  0  0  0  0  0  0  0  0  0
    6.5873  -12.1147    0.0000 O   0  0  0  0  0  0  0  0  0  0  0  0
    7.2962  -11.6984    0.0000 O   0  0  0  0  0  0  0  0  0  0  0  0
    5.1510  -10.4812    0.0000 O   0  0  0  0  0  0  0  0  0  0  0  0
    4.4421  -10.8975    0.0000 C   0  0  1  0  0  0  0  0  0  0  0  0
    4.4483  -11.7197    0.0000 C   0  0  2  0  0  0  0  0  0  0  0  0
    5.1633  -12.1254    0.0000 C   0  0  1  0  0  0  0  0  0  0  0  0
    5.8722  -11.7090    0.0000 C   0  0  2  0  0  0  0  0  0  0  0  0
    5.8661  -10.8869    0.0000 C   0  0  2  0  0  0  0  0  0  0  0  0
    5.8538   -9.2427    0.0000 O   0  0  0  0  0  0  0  0  0  0  0  0
   11.5618  -10.8443    0.0000 O   0  0  0  0  0  0  0  0  0  0  0  0
   11.5495   -9.2001    0.0000 O   0  0  0  0  0  0  0  0  0  0  0  0
    8.7201  -11.6877    0.0000 O   0  0  0  0  0  0  0  0  0  0  0  0
    7.2777   -9.2320    0.0000 C   0  0  0  0  0  0  0  0  0  0  0  0
    6.5688   -9.6484    0.0000 C   0  0  0  0  0  0  0  0  0  0  0  0
    6.5750  -10.4705    0.0000 C   0  0  0  0  0  0  0  0  0  0  0  0
    7.2900  -10.8763    0.0000 C   0  0  0  0  0  0  0  0  0  0  0  0
    8.7017   -9.2214    0.0000 O   0  0  0  0  0  0  0  0  0  0  0  0
    7.9928   -9.6378    0.0000 C   0  0  0  0  0  0  0  0  0  0  0  0
    7.9989  -10.4599    0.0000 C   0  0  0  0  0  0  0  0  0  0  0  0
    8.7140  -10.8656    0.0000 C   0  0  0  0  0  0  0  0  0  0  0  0
    9.4167   -9.6271    0.0000 C   0  0  0  0  0  0  0  0  0  0  0  0
    9.4229  -10.4492    0.0000 C   0  0  0  0  0  0  0  0  0  0  0  0
   10.1379  -10.8550    0.0000 C   0  0  0  0  0  0  0  0  0  0  0  0
   10.8468  -10.4386    0.0000 C   0  0  0  0  0  0  0  0  0  0  0  0
   10.8407   -9.6165    0.0000 C   0  0  0  0  0  0  0  0  0  0  0  0
   10.1256   -9.2107    0.0000 C   0  0  0  0  0  0  0  0  0  0  0  0
    5.8599  -10.0648    0.0000 H   0  0  0  0  0  0  0  0  0  0  0  0
    8.6894   -7.5772    0.0000 H   0  0  0  0  0  0  0  0  0  0  0  0
 17 47  1  0  0  0  0
  2  1  1  0  0  0  0
  8  2  1  1  0  0  0
  9  3  1  6  0  0  0
 10  4  1  1  0  0  0
 11  5  1  6  0  0  0
 20  6  1  0  0  0  0
  7 12  1  0  0  0  0
  8  7  1  0  0  0  0
  9  8  1  0  0  0  0
 10  9  1  0  0  0  0
 11 10  1  0  0  0  0
 12 11  1  0  0  0  0
 19 12  1  0  0  0  0
 18 13  1  0  0  0  0
 28 14  1  0  0  0  0
 29 15  1  0  0  0  0
 24 16  2  0  0  0  0
 17 22  1  0  0  0  0
 18 17  2  0  0  0  0
 19 18  1  0  0  0  0
 20 19  2  0  0  0  0
 23 20  1  0  0  0  0
 21 25  1  0  0  0  0
 22 21  1  0  0  0  0
 23 22  2  0  0  0  0
 24 23  1  0  0  0  0
 26 24  1  0  0  0  0
 25 30  1  0  0  0  0
 26 25  2  0  0  0  0
 27 26  1  0  0  0  0
 28 27  2  0  0  0  0
 29 28  1  0  0  0  0
 30 29  2  0  0  0  0
 32 31  1  0  0  0  0
 38 32  1  1  0  0  0
 39 33  1  6  0  0  0
 40 34  1  1  0  0  0
 41 35  1  6  0  0  0
 50 36  1  0  0  0  0
 37 42  1  0  0  0  0
 38 37  1  0  0  0  0
 39 38  1  0  0  0  0
 40 39  1  0  0  0  0
 41 40  1  0  0  0  0
 42 41  1  0  0  0  0
 49 42  1  0  0  0  0
 48 43  1  0  0  0  0
 58 44  1  0  0  0  0
 59 45  1  0  0  0  0
 54 46  2  0  0  0  0
 47 52  1  0  0  0  0
 48 47  2  0  0  0  0
 49 48  1  0  0  0  0
 50 49  2  0  0  0  0
 53 50  1  0  0  0  0
 51 55  1  0  0  0  0
 52 51  1  0  0  0  0
 53 52  2  0  0  0  0
 54 53  1  0  0  0  0
 56 54  1  0  0  0  0
 55 60  1  0  0  0  0
 56 55  2  0  0  0  0
 57 56  1  0  0  0  0
 58 57  2  0  0  0  0
 59 58  1  0  0  0  0
 60 59  2  0  0  0  0
 42 61  1  6  0  0  0
 12 62  1  6  0  0  0
M  END
>  <cdx:fragmentId>
4417

$$$$
