39276.cdx
  Mrv1902 05222410202D          

 25 26  0  0  0  0            999 V2000
   10.4957   -7.0468    0.0000 O   0  0  0  0  0  0  0  0  0  0  0  0
    9.7743   -8.2803    0.0000 O   0  0  0  0  0  0  0  0  0  0  0  0
    6.9165   -8.2643    0.0000 O   0  0  0  0  0  0  0  0  0  0  0  0
    7.6448   -5.3848    0.0000 C   0  0  0  0  0  0  0  0  0  0  0  0
    8.3593   -5.7973    0.0000 O   0  0  0  0  0  0  0  0  0  0  0  0
    8.3316  -10.7473    0.0000 O   0  0  0  0  0  0  0  0  0  0  0  0
    6.8981  -11.5643    0.0000 O   0  0  0  0  0  0  0  0  0  0  0  0
    5.4738  -10.7313    0.0000 O   0  0  0  0  0  0  0  0  0  0  0  0
    4.7662   -9.4898    0.0000 O   0  0  0  0  0  0  0  0  0  0  0  0
    5.4830   -9.0813    0.0000 C   0  0  0  0  0  0  0  0  0  0  0  0
    6.1951   -9.4978    0.0000 C   0  0  2  0  0  0  0  0  0  0  0  0
    6.1905  -10.3228    0.0000 C   0  0  2  0  0  0  0  0  0  0  0  0
    6.9027  -10.7393    0.0000 C   0  0  1  0  0  0  0  0  0  0  0  0
    7.6194  -10.3308    0.0000 C   0  0  2  0  0  0  0  0  0  0  0  0
    7.6241   -9.5058    0.0000 C   0  0  1  0  0  0  0  0  0  0  0  0
    6.9119   -9.0893    0.0000 O   0  0  0  0  0  0  0  0  0  0  0  0
    8.3408   -9.0973    0.0000 O   0  0  0  0  0  0  0  0  0  0  0  0
    8.3546   -6.6223    0.0000 C   0  0  0  0  0  0  0  0  0  0  0  0
    7.6379   -7.0308    0.0000 C   0  0  0  0  0  0  0  0  0  0  0  0
    7.6333   -7.8558    0.0000 C   0  0  0  0  0  0  0  0  0  0  0  0
    8.3454   -8.2723    0.0000 C   0  0  0  0  0  0  0  0  0  0  0  0
    9.0622   -7.8638    0.0000 C   0  0  0  0  0  0  0  0  0  0  0  0
    9.0668   -7.0388    0.0000 C   0  0  0  0  0  0  0  0  0  0  0  0
    9.7882   -5.8053    0.0000 C   0  0  0  0  0  0  0  0  0  0  0  0
    9.7836   -6.6303    0.0000 C   0  0  0  0  0  0  0  0  0  0  0  0
 25  1  2  0  0  0  0
 25 23  1  0  0  0  0
 22  2  1  0  0  0  0
 20  3  1  0  0  0  0
 18  5  1  0  0  0  0
  5  4  1  0  0  0  0
 21 17  1  0  0  0  0
 15 17  1  1  0  0  0
 14  6  1  6  0  0  0
 13  7  1  1  0  0  0
 12  8  1  6  0  0  0
 11 10  1  1  0  0  0
 10  9  1  0  0  0  0
 16 11  1  0  0  0  0
 12 11  1  0  0  0  0
 13 12  1  0  0  0  0
 14 13  1  0  0  0  0
 15 14  1  0  0  0  0
 16 15  1  0  0  0  0
 23 18  2  0  0  0  0
 19 18  1  0  0  0  0
 20 19  2  0  0  0  0
 21 20  1  0  0  0  0
 22 21  2  0  0  0  0
 23 22  1  0  0  0  0
 25 24  1  0  0  0  0
M  END
>  <cdx:groupId>
5435

>  <cdx:fragmentId>
5380

$$$$
