39274.cdx
  Mrv1902 05222410202D          

 49 54  0  0  0  0            999 V2000
    7.2306   -9.1025    0.0000 C   0  0  1  0  0  0  0  0  0  0  0  0
    7.2306   -9.9275    0.0000 C   0  0  1  0  0  0  0  0  0  0  0  0
    7.9450  -10.3400    0.0000 C   0  0  0  0  0  0  0  0  0  0  0  0
    8.6595   -9.9275    0.0000 C   0  0  1  0  0  0  0  0  0  0  0  0
    8.6595   -9.1025    0.0000 C   0  0  2  0  0  0  0  0  0  0  0  0
    7.9450   -8.6900    0.0000 C   0  0  0  0  0  0  0  0  0  0  0  0
    9.3740  -10.3400    0.0000 C   0  0  0  0  0  0  0  0  0  0  0  0
   10.0884   -9.9275    0.0000 C   0  0  0  0  0  0  0  0  0  0  0  0
   10.0884   -9.1025    0.0000 C   0  0  2  0  0  0  0  0  0  0  0  0
    9.3740   -8.6900    0.0000 C   0  0  2  0  0  0  0  0  0  0  0  0
   10.8029   -8.6900    0.0000 C   0  0  1  0  0  0  0  0  0  0  0  0
   10.8029   -7.8650    0.0000 C   0  0  0  0  0  0  0  0  0  0  0  0
   10.0884   -7.4525    0.0000 C   0  0  0  0  0  0  0  0  0  0  0  0
    9.3740   -7.8650    0.0000 C   0  0  0  0  0  0  0  0  0  0  0  0
   11.5174   -9.1025    0.0000 C   0  0  0  0  0  0  0  0  0  0  0  0
   12.2319   -8.6900    0.0000 C   0  0  0  0  0  0  0  0  0  0  0  0
   12.2319   -7.8650    0.0000 C   0  0  2  0  0  0  0  0  0  0  0  0
   11.5174   -7.4525    0.0000 C   0  0  1  0  0  0  0  0  0  0  0  0
   12.9463   -7.4525    0.0000 C   0  0  0  0  0  0  0  0  0  0  0  0
   12.9463   -6.6275    0.0000 C   0  0  0  0  0  0  0  0  0  0  0  0
   12.2319   -6.2150    0.0000 C   0  0  0  0  0  0  0  0  0  0  0  0
   11.5174   -6.6275    0.0000 C   0  0  0  0  0  0  0  0  0  0  0  0
   11.8194   -5.5005    0.0000 C   0  0  0  0  0  0  0  0  0  0  0  0
   12.6444   -5.5005    0.0000 C   0  0  0  0  0  0  0  0  0  0  0  0
   12.9463   -8.2775    0.0000 C   0  0  0  0  0  0  0  0  0  0  0  0
   13.6608   -7.8650    0.0000 O   0  0  0  0  0  0  0  0  0  0  0  0
   12.9463   -9.1025    0.0000 O   0  0  0  0  0  0  0  0  0  0  0  0
    7.5325  -11.0545    0.0000 C   0  0  0  0  0  0  0  0  0  0  0  0
    8.3575  -11.0545    0.0000 C   0  0  0  0  0  0  0  0  0  0  0  0
   11.5174   -8.2775    0.0000 H   0  0  0  0  0  0  0  0  0  0  0  0
   10.0884   -8.2775    0.0000 C   0  0  0  0  0  0  0  0  0  0  0  0
    8.6595   -8.2775    0.0000 C   0  0  0  0  0  0  0  0  0  0  0  0
    6.5161  -10.3400    0.0000 O   0  0  0  0  0  0  0  0  0  0  0  0
    6.5161   -8.6900    0.0000 O   0  0  0  0  0  0  0  0  0  0  0  0
    8.6595  -10.7525    0.0000 H   0  0  0  0  0  0  0  0  0  0  0  0
    9.3740   -9.5150    0.0000 H   0  0  0  0  0  0  0  0  0  0  0  0
   10.8029   -9.5150    0.0000 C   0  0  0  0  0  0  0  0  0  0  0  0
    5.8016   -9.9275    0.0000 C   0  0  0  0  0  0  0  0  0  0  0  0
    5.0871  -10.3400    0.0000 C   0  0  0  0  0  0  0  0  0  0  0  0
    5.8016   -9.1025    0.0000 O   0  0  0  0  0  0  0  0  0  0  0  0
    4.3727   -9.9275    0.0000 C   0  0  0  0  0  0  0  0  0  0  0  0
    3.6582  -10.3400    0.0000 C   0  0  0  0  0  0  0  0  0  0  0  0
    2.9437   -9.9275    0.0000 C   0  0  0  0  0  0  0  0  0  0  0  0
    2.2293  -10.3400    0.0000 C   0  0  0  0  0  0  0  0  0  0  0  0
    2.2293  -11.1650    0.0000 C   0  0  0  0  0  0  0  0  0  0  0  0
    2.9437  -11.5775    0.0000 C   0  0  0  0  0  0  0  0  0  0  0  0
    3.6582  -11.1650    0.0000 C   0  0  0  0  0  0  0  0  0  0  0  0
    1.5148  -11.5775    0.0000 O   0  0  0  0  0  0  0  0  0  0  0  0
    0.8003  -11.1650    0.0000 C   0  0  0  0  0  0  0  0  0  0  0  0
  1  2  1  0  0  0  0
  2  3  1  0  0  0  0
  3  4  1  0  0  0  0
  4  5  1  0  0  0  0
  5  6  1  0  0  0  0
  6  1  1  0  0  0  0
  4  7  1  0  0  0  0
  7  8  1  0  0  0  0
  8  9  1  0  0  0  0
  9 10  1  0  0  0  0
 10  5  1  0  0  0  0
  9 11  1  0  0  0  0
 11 12  1  0  0  0  0
 12 13  2  0  0  0  0
 13 14  1  0  0  0  0
 14 10  1  0  0  0  0
 11 15  1  0  0  0  0
 15 16  1  0  0  0  0
 16 17  1  0  0  0  0
 17 18  1  0  0  0  0
 18 12  1  0  0  0  0
 17 19  1  0  0  0  0
 19 20  1  0  0  0  0
 20 21  1  0  0  0  0
 21 22  1  0  0  0  0
 22 18  1  0  0  0  0
 21 23  1  0  0  0  0
 21 24  1  0  0  0  0
 17 25  1  1  0  0  0
 25 26  1  0  0  0  0
 25 27  2  0  0  0  0
  3 28  1  0  0  0  0
  3 29  1  0  0  0  0
 18 30  1  1  0  0  0
  9 31  1  1  0  0  0
  5 32  1  1  0  0  0
  2 33  1  1  0  0  0
  1 34  1  6  0  0  0
  4 35  1  6  0  0  0
 10 36  1  6  0  0  0
 11 37  1  6  0  0  0
 33 38  1  0  0  0  0
 38 39  1  0  0  0  0
 38 40  2  0  0  0  0
 39 41  2  0  0  0  0
 41 42  1  0  0  0  0
 42 43  2  0  0  0  0
 43 44  1  0  0  0  0
 44 45  2  0  0  0  0
 45 46  1  0  0  0  0
 46 47  2  0  0  0  0
 47 42  1  0  0  0  0
 45 48  1  0  0  0  0
 48 49  1  0  0  0  0
M  END
>  <cdx:fragmentId>
5

$$$$
