1777.cdx
  Mrv1902 05222410192D          

 24 23  0  0  0  0            999 V2000
   20.8273  -16.1539    0.0000 C   0  0  0  0  0  0  0  0  0  0  0  0
   20.1128  -16.5664    0.0000 C   0  0  0  0  0  0  0  0  0  0  0  0
   19.3983  -16.1539    0.0000 C   0  0  0  0  0  0  0  0  0  0  0  0
   18.6839  -16.5664    0.0000 C   0  0  0  0  0  0  0  0  0  0  0  0
   17.9694  -16.1539    0.0000 C   0  0  0  0  0  0  0  0  0  0  0  0
   17.2549  -16.5664    0.0000 C   0  0  0  0  0  0  0  0  0  0  0  0
   16.5405  -16.1539    0.0000 C   0  0  0  0  0  0  0  0  0  0  0  0
   15.8260  -16.5664    0.0000 C   0  0  0  0  0  0  0  0  0  0  0  0
   15.1115  -16.1539    0.0000 C   0  0  1  0  0  0  0  0  0  0  0  0
   14.3970  -16.5664    0.0000 C   0  0  1  0  0  0  0  0  0  0  0  0
   13.6826  -16.1539    0.0000 C   0  0  0  0  0  0  0  0  0  0  0  0
   12.9681  -16.5664    0.0000 C   0  0  0  0  0  0  0  0  0  0  0  0
   12.2536  -16.1539    0.0000 C   0  0  1  0  0  0  0  0  0  0  0  0
   11.5392  -16.5664    0.0000 C   0  0  0  0  0  0  0  0  0  0  0  0
   10.8247  -16.1539    0.0000 C   0  0  0  0  0  0  0  0  0  0  0  0
   10.1102  -16.5664    0.0000 C   0  0  0  0  0  0  0  0  0  0  0  0
    9.3958  -16.1539    0.0000 C   0  0  0  0  0  0  0  0  0  0  0  0
    8.6813  -16.5664    0.0000 C   0  0  0  0  0  0  0  0  0  0  0  0
   20.8273  -15.3289    0.0000 O   0  0  0  0  0  0  0  0  0  0  0  0
   21.5418  -16.5664    0.0000 O   0  0  0  0  0  0  0  0  0  0  0  0
   12.2536  -15.3289    0.0000 O   0  0  0  0  0  0  0  0  0  0  0  0
   14.3970  -17.3914    0.0000 O   0  0  0  0  0  0  0  0  0  0  0  0
   15.1115  -15.3289    0.0000 O   0  0  0  0  0  0  0  0  0  0  0  0
   22.2562  -16.1539    0.0000 C   0  0  0  0  0  0  0  0  0  0  0  0
  1  2  1  0  0  0  0
  2  3  1  0  0  0  0
  3  4  1  0  0  0  0
  4  5  1  0  0  0  0
  5  6  1  0  0  0  0
  6  7  1  0  0  0  0
  7  8  1  0  0  0  0
  8  9  1  0  0  0  0
  9 10  1  0  0  0  0
 10 11  1  0  0  0  0
 11 12  2  0  0  0  0
 12 13  1  0  0  0  0
 13 14  1  0  0  0  0
 14 15  1  0  0  0  0
 15 16  1  0  0  0  0
 16 17  1  0  0  0  0
 17 18  1  0  0  0  0
  1 19  2  0  0  0  0
  1 20  1  0  0  0  0
 13 21  1  1  0  0  0
 10 22  1  6  0  0  0
  9 23  1  1  0  0  0
 20 24  1  0  0  0  0
M  END
>  <cdx:groupId>
5512

>  <cdx:fragmentId>
5444

$$$$
