39278.cdx
  Mrv1902 05222410262D          

 52 56  0  0  0  0            999 V2000
   10.3162   -9.5136    0.0000 C   0  0  0  0  0  0  0  0  0  0  0  0
    9.9037   -8.7992    0.0000 C   0  0  0  0  0  0  0  0  0  0  0  0
   10.3162   -8.0847    0.0000 C   0  0  0  0  0  0  0  0  0  0  0  0
   11.1412   -8.0847    0.0000 C   0  0  0  0  0  0  0  0  0  0  0  0
   11.5537   -8.7992    0.0000 C   0  0  0  0  0  0  0  0  0  0  0  0
   11.1412   -9.5136    0.0000 O   0  0  0  0  0  0  0  0  0  0  0  0
    9.7642   -7.4716    0.0000 C   0  0  0  0  0  0  0  0  0  0  0  0
    9.0105   -7.8071    0.0000 C   0  0  0  0  0  0  0  0  0  0  0  0
    9.0967   -8.6276    0.0000 C   0  0  0  0  0  0  0  0  0  0  0  0
   11.5537   -7.3702    0.0000 C   0  0  0  0  0  0  0  0  0  0  0  0
   11.1412   -6.6557    0.0000 O   0  0  0  0  0  0  0  0  0  0  0  0
   12.3787   -7.3702    0.0000 O   0  0  0  0  0  0  0  0  0  0  0  0
    8.4836   -9.1797    0.0000 C   0  0  0  0  0  0  0  0  0  0  0  0
    8.2960   -7.3946    0.0000 O   0  0  0  0  0  0  0  0  0  0  0  0
    7.5815   -7.8071    0.0000 C   0  0  0  0  0  0  0  0  0  0  0  0
    7.5815   -8.6321    0.0000 O   0  0  0  0  0  0  0  0  0  0  0  0
    5.4381   -6.5696    0.0000 C   0  0  0  0  0  0  0  0  0  0  0  0
    6.1526   -6.1571    0.0000 C   0  0  0  0  0  0  0  0  0  0  0  0
    6.8671   -6.5696    0.0000 C   0  0  0  0  0  0  0  0  0  0  0  0
    6.8671   -7.3946    0.0000 C   0  0  0  0  0  0  0  0  0  0  0  0
    6.1526   -7.8071    0.0000 C   0  0  0  0  0  0  0  0  0  0  0  0
    5.4381   -7.3946    0.0000 O   0  0  0  0  0  0  0  0  0  0  0  0
    6.1526   -5.3321    0.0000 C   0  0  0  0  0  0  0  0  0  0  0  0
    6.8671   -4.9196    0.0000 C   0  0  0  0  0  0  0  0  0  0  0  0
    7.5815   -6.1571    0.0000 C   0  0  0  0  0  0  0  0  0  0  0  0
    8.2960   -6.5696    0.0000 C   0  0  0  0  0  0  0  0  0  0  0  0
    9.0105   -6.1571    0.0000 O   0  0  0  0  0  0  0  0  0  0  0  0
    4.7237   -6.1571    0.0000 O   0  0  0  0  0  0  0  0  0  0  0  0
    4.0092   -6.5696    0.0000 C   0  0  1  0  0  0  0  0  0  0  0  0
    4.0092   -7.3946    0.0000 C   0  0  2  0  0  0  0  0  0  0  0  0
    4.7237   -7.8071    0.0000 O   0  0  0  0  0  0  0  0  0  0  0  0
    3.2947   -7.8071    0.0000 C   0  0  1  0  0  0  0  0  0  0  0  0
    3.2947   -8.6321    0.0000 O   0  0  0  0  0  0  0  0  0  0  0  0
    2.5803   -7.3946    0.0000 C   0  0  2  0  0  0  0  0  0  0  0  0
    1.8658   -7.8071    0.0000 O   0  0  0  0  0  0  0  0  0  0  0  0
    2.5803   -6.5696    0.0000 C   0  0  2  0  0  0  0  0  0  0  0  0
    3.2947   -6.1571    0.0000 O   0  0  0  0  0  0  0  0  0  0  0  0
    1.8658   -6.1571    0.0000 C   0  0  0  0  0  0  0  0  0  0  0  0
    1.1513   -6.5696    0.0000 O   0  0  0  0  0  0  0  0  0  0  0  0
    9.9037  -10.2281    0.0000 O   0  0  0  0  0  0  0  0  0  0  0  0
   10.3162  -10.9426    0.0000 C   0  0  1  0  0  0  0  0  0  0  0  0
    9.9037  -11.6570    0.0000 C   0  0  2  0  0  0  0  0  0  0  0  0
    9.0787  -11.6570    0.0000 O   0  0  0  0  0  0  0  0  0  0  0  0
   10.3162  -12.3715    0.0000 C   0  0  1  0  0  0  0  0  0  0  0  0
    9.9037  -13.0860    0.0000 O   0  0  0  0  0  0  0  0  0  0  0  0
   11.1412  -12.3715    0.0000 C   0  0  2  0  0  0  0  0  0  0  0  0
   11.5537  -13.0860    0.0000 O   0  0  0  0  0  0  0  0  0  0  0  0
   11.5537  -11.6570    0.0000 C   0  0  2  0  0  0  0  0  0  0  0  0
   11.1412  -10.9426    0.0000 O   0  0  0  0  0  0  0  0  0  0  0  0
   12.3787  -11.6570    0.0000 C   0  0  0  0  0  0  0  0  0  0  0  0
   12.7912  -12.3715    0.0000 O   0  0  0  0  0  0  0  0  0  0  0  0
   12.7912   -6.6557    0.0000 C   0  0  0  0  0  0  0  0  0  0  0  0
  1  2  1  0  0  0  0
  2  3  1  0  0  0  0
  3  4  1  0  0  0  0
  4  5  2  0  0  0  0
  5  6  1  0  0  0  0
  1  6  1  0  0  0  0
  7  8  1  0  0  0  0
  8  9  1  0  0  0  0
  9  2  1  0  0  0  0
  7  3  1  0  0  0  0
 10 11  2  0  0  0  0
 10 12  1  0  0  0  0
  4 10  1  0  0  0  0
  9 13  1  0  0  0  0
 15 16  2  0  0  0  0
 17 18  1  0  0  0  0
 18 19  1  0  0  0  0
 19 20  1  0  0  0  0
 20 21  2  0  0  0  0
 21 22  1  0  0  0  0
 17 22  1  0  0  0  0
 23 24  2  0  0  0  0
 18 23  1  0  0  0  0
 25 26  1  0  0  0  0
 26 27  2  0  0  0  0
 19 25  1  0  0  0  0
 29 30  1  0  0  0  0
 30 31  1  6  0  0  0
 30 32  1  0  0  0  0
 32 33  1  1  0  0  0
 32 34  1  0  0  0  0
 34 35  1  6  0  0  0
 34 36  1  0  0  0  0
 36 37  1  0  0  0  0
 36 38  1  1  0  0  0
 38 39  1  0  0  0  0
 29 37  1  0  0  0  0
 29 28  1  1  0  0  0
 17 28  1  0  0  0  0
 15 20  1  0  0  0  0
 14 15  1  0  0  0  0
  8 14  1  0  0  0  0
 41 42  1  0  0  0  0
 42 43  1  1  0  0  0
 42 44  1  0  0  0  0
 44 45  1  6  0  0  0
 44 46  1  0  0  0  0
 46 47  1  1  0  0  0
 46 48  1  0  0  0  0
 48 49  1  0  0  0  0
 48 50  1  6  0  0  0
 50 51  1  0  0  0  0
 41 49  1  0  0  0  0
 41 40  1  6  0  0  0
  1 40  1  0  0  0  0
 12 52  1  0  0  0  0
M  END
>  <cdx:fragmentId>
5576

$$$$
