39272.cdx
  Mrv1902 05222410182D          

 36 39  0  0  0  0            999 V2000
   10.8240  -10.5155    0.0000 C   0  0  1  0  0  0  0  0  0  0  0  0
   10.8240   -9.6905    0.0000 C   0  0  0  0  0  0  0  0  0  0  0  0
   11.5385   -9.2780    0.0000 C   0  0  0  0  0  0  0  0  0  0  0  0
   11.5385  -10.9280    0.0000 C   0  0  2  0  0  0  0  0  0  0  0  0
   11.9510  -11.6425    0.0000 C   0  0  0  0  0  0  0  0  0  0  0  0
   11.1260  -11.6425    0.0000 C   0  0  0  0  0  0  0  0  0  0  0  0
   12.2529  -10.5155    0.0000 C   0  0  2  0  0  0  0  0  0  0  0  0
   12.2529  -11.3405    0.0000 H   0  0  0  0  0  0  0  0  0  0  0  0
   12.9674  -10.9280    0.0000 C   0  0  0  0  0  0  0  0  0  0  0  0
   13.6819  -10.5155    0.0000 C   0  0  0  0  0  0  0  0  0  0  0  0
   13.6819   -9.6905    0.0000 C   0  0  0  0  0  0  0  0  0  0  0  0
   14.3963   -9.2780    0.0000 C   0  0  2  0  0  0  0  0  0  0  0  0
   14.3963  -10.1030    0.0000 C   0  0  0  0  0  0  0  0  0  0  0  0
   15.1810   -9.5329    0.0000 C   0  0  0  0  0  0  0  0  0  0  0  0
   15.6659   -8.8655    0.0000 C   0  0  0  0  0  0  0  0  0  0  0  0
   15.1810   -8.1981    0.0000 C   0  0  2  0  0  0  0  0  0  0  0  0
   15.4359   -7.4134    0.0000 C   0  0  1  0  0  0  0  0  0  0  0  0
   16.2429   -7.2419    0.0000 C   0  0  0  0  0  0  0  0  0  0  0  0
   14.8839   -6.8004    0.0000 C   0  0  0  0  0  0  0  0  0  0  0  0
   14.3963   -8.4530    0.0000 C   0  0  2  0  0  0  0  0  0  0  0  0
   14.3963   -7.6280    0.0000 C   0  0  0  0  0  0  0  0  0  0  0  0
   13.6819   -8.0405    0.0000 C   0  0  0  0  0  0  0  0  0  0  0  0
   12.9674   -8.4530    0.0000 C   0  0  0  0  0  0  0  0  0  0  0  0
   12.9674   -9.2780    0.0000 C   0  0  0  0  0  0  0  0  0  0  0  0
   12.2529   -9.6905    0.0000 C   0  0  1  0  0  0  0  0  0  0  0  0
   12.2529   -8.8655    0.0000 C   0  0  0  0  0  0  0  0  0  0  0  0
   15.1388   -6.0157    0.0000 O   0  0  0  0  0  0  0  0  0  0  0  0
   14.0769   -6.9719    0.0000 O   0  0  0  0  0  0  0  0  0  0  0  0
   10.1095  -10.9280    0.0000 O   0  0  0  0  0  0  0  0  0  0  0  0
   16.0060   -8.1981    0.0000 H   0  0  0  0  0  0  0  0  0  0  0  0
   16.4978   -6.4573    0.0000 C   0  0  0  0  0  0  0  0  0  0  0  0
   17.3048   -6.2858    0.0000 C   0  0  0  0  0  0  0  0  0  0  0  0
   17.5597   -5.5011    0.0000 C   0  0  0  0  0  0  0  0  0  0  0  0
   17.0077   -4.8881    0.0000 C   0  0  0  0  0  0  0  0  0  0  0  0
   18.3667   -5.3296    0.0000 C   0  0  0  0  0  0  0  0  0  0  0  0
   13.5249   -6.3588    0.0000 C   0  0  0  0  0  0  0  0  0  0  0  0
  1  2  1  0  0  0  0
  2  3  1  0  0  0  0
  1  4  1  0  0  0  0
  4  5  1  6  0  0  0
  4  6  1  1  0  0  0
  4  7  1  0  0  0  0
  7  8  1  6  0  0  0
  7  9  1  0  0  0  0
  9 10  1  0  0  0  0
 10 11  1  0  0  0  0
 11 12  1  0  0  0  0
 12 13  1  6  0  0  0
 12 14  1  0  0  0  0
 14 15  1  0  0  0  0
 15 16  1  0  0  0  0
 16 17  1  0  0  0  0
 17 18  1  6  0  0  0
 17 19  1  0  0  0  0
 16 20  1  0  0  0  0
 12 20  1  0  0  0  0
 20 21  1  1  0  0  0
 20 22  1  0  0  0  0
 22 23  1  0  0  0  0
 23 24  1  0  0  0  0
 11 24  2  0  0  0  0
 24 25  1  0  0  0  0
  3 25  1  0  0  0  0
  7 25  1  0  0  0  0
 25 26  1  1  0  0  0
 19 27  2  0  0  0  0
 19 28  1  0  0  0  0
  1 29  1  1  0  0  0
 16 30  1  6  0  0  0
 18 31  1  0  0  0  0
 31 32  1  0  0  0  0
 32 33  2  0  0  0  0
 33 34  1  0  0  0  0
 33 35  1  0  0  0  0
 28 36  1  0  0  0  0
M  END
>  <cdx:fragmentId>
5

$$$$
