39279.cdx
  Mrv1902 05222410262D          

 28 30  0  0  0  0            999 V2000
    8.2632   -8.8828    0.0000 C   0  0  0  0  0  0  0  0  0  0  0  0
    8.9777   -8.4703    0.0000 C   0  0  0  0  0  0  0  0  0  0  0  0
    9.6922   -8.8828    0.0000 C   0  0  0  0  0  0  0  0  0  0  0  0
    9.6922   -9.7078    0.0000 C   0  0  0  0  0  0  0  0  0  0  0  0
    8.9777  -10.1203    0.0000 C   0  0  0  0  0  0  0  0  0  0  0  0
    8.2632   -9.7078    0.0000 O   0  0  0  0  0  0  0  0  0  0  0  0
   10.3053   -8.3307    0.0000 C   0  0  0  0  0  0  0  0  0  0  0  0
    9.9697   -7.5771    0.0000 C   0  0  0  0  0  0  0  0  0  0  0  0
    9.1492   -7.6633    0.0000 C   0  0  0  0  0  0  0  0  0  0  0  0
   10.4066  -10.1203    0.0000 C   0  0  0  0  0  0  0  0  0  0  0  0
   10.4066  -10.9453    0.0000 O   0  0  0  0  0  0  0  0  0  0  0  0
   11.1211   -9.7078    0.0000 O   0  0  0  0  0  0  0  0  0  0  0  0
    7.5488   -8.4703    0.0000 O   0  0  0  0  0  0  0  0  0  0  0  0
    6.8343   -8.8828    0.0000 C   0  0  1  0  0  0  0  0  0  0  0  0
    6.8343   -9.7078    0.0000 C   0  0  2  0  0  0  0  0  0  0  0  0
    7.5488  -10.1203    0.0000 O   0  0  0  0  0  0  0  0  0  0  0  0
    6.1198  -10.1203    0.0000 C   0  0  1  0  0  0  0  0  0  0  0  0
    6.1198  -10.9453    0.0000 O   0  0  0  0  0  0  0  0  0  0  0  0
    5.4053   -9.7078    0.0000 C   0  0  2  0  0  0  0  0  0  0  0  0
    4.6909  -10.1203    0.0000 O   0  0  0  0  0  0  0  0  0  0  0  0
    5.4053   -8.8828    0.0000 C   0  0  2  0  0  0  0  0  0  0  0  0
    6.1198   -8.4703    0.0000 O   0  0  0  0  0  0  0  0  0  0  0  0
    4.6909   -8.4703    0.0000 C   0  0  0  0  0  0  0  0  0  0  0  0
    3.9764   -8.8828    0.0000 O   0  0  0  0  0  0  0  0  0  0  0  0
    5.4053  -11.3578    0.0000 C   0  0  0  0  0  0  0  0  0  0  0  0
    8.5972   -7.0502    0.0000 C   0  0  0  0  0  0  0  0  0  0  0  0
    7.7902   -7.2217    0.0000 O   0  0  0  0  0  0  0  0  0  0  0  0
    7.5488   -9.2953    0.0000 C   0  0  0  0  0  0  0  0  0  0  0  0
  1  2  1  0  0  0  0
  2  3  1  0  0  0  0
  3  4  1  0  0  0  0
  4  5  2  0  0  0  0
  5  6  1  0  0  0  0
  1  6  1  0  0  0  0
  7  8  1  0  0  0  0
  8  9  2  0  0  0  0
  9  2  1  0  0  0  0
  7  3  1  0  0  0  0
 10 11  2  0  0  0  0
 10 12  1  0  0  0  0
  4 10  1  0  0  0  0
 14 15  1  0  0  0  0
 15 16  1  6  0  0  0
 15 17  1  0  0  0  0
 17 18  1  1  0  0  0
 17 19  1  0  0  0  0
 19 20  1  6  0  0  0
 19 21  1  0  0  0  0
 21 22  1  0  0  0  0
 21 23  1  1  0  0  0
 23 24  1  0  0  0  0
 14 22  1  0  0  0  0
 18 25  1  0  0  0  0
 14 13  1  1  0  0  0
  1 13  1  0  0  0  0
 26 27  1  0  0  0  0
  9 26  1  0  0  0  0
  1 28  1  0  0  0  0
M  END
>  <cdx:fragmentId>
5722

$$$$
