39273.cdx
  Mrv1902 05222410192D          

 24 24  0  0  0  0            999 V2000
    2.8978   -8.7521    0.0000 C   0  0  0  0  0  0  0  0  0  0  0  0
    2.8978   -9.5771    0.0000 C   0  0  0  0  0  0  0  0  0  0  0  0
    3.6123   -9.9896    0.0000 C   0  0  0  0  0  0  0  0  0  0  0  0
    4.3268   -9.5771    0.0000 C   0  0  0  0  0  0  0  0  0  0  0  0
    4.3268   -8.7521    0.0000 C   0  0  0  0  0  0  0  0  0  0  0  0
    3.6123   -8.3396    0.0000 C   0  0  0  0  0  0  0  0  0  0  0  0
    2.1834   -8.3396    0.0000 O   0  0  0  0  0  0  0  0  0  0  0  0
    1.4689   -8.7521    0.0000 C   0  0  0  0  0  0  0  0  0  0  0  0
    2.1834   -9.9896    0.0000 O   0  0  0  0  0  0  0  0  0  0  0  0
    1.4689   -9.5771    0.0000 C   0  0  0  0  0  0  0  0  0  0  0  0
    5.0412   -8.3396    0.0000 C   0  0  0  0  0  0  0  0  0  0  0  0
    5.7557   -8.7521    0.0000 C   0  0  0  0  0  0  0  0  0  0  0  0
    6.4702   -8.3396    0.0000 C   0  0  0  0  0  0  0  0  0  0  0  0
    7.1847   -8.7521    0.0000 C   0  0  0  0  0  0  0  0  0  0  0  0
    6.4702   -7.5146    0.0000 O   0  0  0  0  0  0  0  0  0  0  0  0
    7.8991   -8.3396    0.0000 C   0  0  0  0  0  0  0  0  0  0  0  0
    8.6136   -8.7521    0.0000 C   0  0  0  0  0  0  0  0  0  0  0  0
    7.8991   -7.5146    0.0000 O   0  0  0  0  0  0  0  0  0  0  0  0
    9.3281   -8.3396    0.0000 C   0  0  0  0  0  0  0  0  0  0  0  0
   10.0425   -8.7521    0.0000 C   0  0  0  0  0  0  0  0  0  0  0  0
   10.7570   -8.3396    0.0000 C   0  0  0  0  0  0  0  0  0  0  0  0
   11.4715   -8.7521    0.0000 C   0  0  0  0  0  0  0  0  0  0  0  0
   12.1860   -8.3396    0.0000 C   0  0  0  0  0  0  0  0  0  0  0  0
   12.9004   -8.7521    0.0000 C   0  0  0  0  0  0  0  0  0  0  0  0
  1  2  2  0  0  0  0
  2  3  1  0  0  0  0
  3  4  2  0  0  0  0
  4  5  1  0  0  0  0
  5  6  2  0  0  0  0
  6  1  1  0  0  0  0
  1  7  1  0  0  0  0
  7  8  1  0  0  0  0
  2  9  1  0  0  0  0
  9 10  1  0  0  0  0
  5 11  1  0  0  0  0
 11 12  1  0  0  0  0
 12 13  1  0  0  0  0
 13 14  1  0  0  0  0
 13 15  2  0  0  0  0
 14 16  1  0  0  0  0
 16 17  1  0  0  0  0
 16 18  1  0  0  0  0
 17 19  1  0  0  0  0
 19 20  1  0  0  0  0
 20 21  1  0  0  0  0
 21 22  1  0  0  0  0
 22 23  1  0  0  0  0
 23 24  1  0  0  0  0
M  END
>  <cdx:fragmentId>
4840

$$$$
