39280.cdx
  Mrv1902 05222410272D          

 24 25  0  0  0  0            999 V2000
    5.8022   -8.6148    0.0000 O   0  0  0  0  0  0  0  0  0  0  0  0
    7.2451   -6.1480    0.0000 O   0  0  0  0  0  0  0  0  0  0  0  0
   10.1030   -6.1641    0.0000 O   0  0  0  0  0  0  0  0  0  0  0  0
    7.2311   -8.6229    0.0000 O   0  0  0  0  0  0  0  0  0  0  0  0
    8.6647   -7.8060    0.0000 C   0  0  0  0  0  0  0  0  0  0  0  0
    9.3815   -7.3976    0.0000 C   0  0  0  0  0  0  0  0  0  0  0  0
    9.3862   -6.5726    0.0000 C   0  0  0  0  0  0  0  0  0  0  0  0
    8.6740   -6.1561    0.0000 C   0  0  0  0  0  0  0  0  0  0  0  0
    7.9573   -6.5645    0.0000 C   0  0  0  0  0  0  0  0  0  0  0  0
    7.9526   -7.3895    0.0000 C   0  0  0  0  0  0  0  0  0  0  0  0
    7.2358   -7.7979    0.0000 C   0  0  0  0  0  0  0  0  0  0  0  0
    4.3873   -6.1318    0.0000 O   0  0  0  0  0  0  0  0  0  0  0  0
    5.0994   -6.5483    0.0000 C   0  0  0  0  0  0  0  0  0  0  0  0
    5.8162   -6.1399    0.0000 C   0  0  0  0  0  0  0  0  0  0  0  0
    6.5283   -6.5564    0.0000 C   0  0  0  0  0  0  0  0  0  0  0  0
    6.5237   -7.3814    0.0000 C   0  0  0  0  0  0  0  0  0  0  0  0
    5.8069   -7.7899    0.0000 C   0  0  0  0  0  0  0  0  0  0  0  0
    5.0947   -7.3733    0.0000 C   0  0  0  0  0  0  0  0  0  0  0  0
    3.6705   -6.5403    0.0000 C   0  0  0  0  0  0  0  0  0  0  0  0
    5.8209   -5.3149    0.0000 C   0  0  0  0  0  0  0  0  0  0  0  0
    5.1087   -4.8984    0.0000 C   0  0  0  0  0  0  0  0  0  0  0  0
    4.3920   -5.3068    0.0000 O   0  0  0  0  0  0  0  0  0  0  0  0
    5.1134   -4.0734    0.0000 O   0  0  0  0  0  0  0  0  0  0  0  0
    4.4013   -3.6568    0.0000 C   0  0  0  0  0  0  0  0  0  0  0  0
 17  1  1  0  0  0  0
 15  2  1  0  0  0  0
 16 11  1  0  0  0  0
  7  3  1  0  0  0  0
 11  4  2  0  0  0  0
 10  5  2  0  0  0  0
  6  5  1  0  0  0  0
  7  6  2  0  0  0  0
  8  7  1  0  0  0  0
  9  8  2  0  0  0  0
 10  9  1  0  0  0  0
 11 10  1  0  0  0  0
 13 12  1  0  0  0  0
 18 13  2  0  0  0  0
 14 13  1  0  0  0  0
 15 14  2  0  0  0  0
 16 15  1  0  0  0  0
 17 16  2  0  0  0  0
 18 17  1  0  0  0  0
 12 19  1  0  0  0  0
 14 20  1  0  0  0  0
 20 21  1  0  0  0  0
 21 22  2  0  0  0  0
 21 23  1  0  0  0  0
 23 24  1  0  0  0  0
M  END
>  <cdx:groupId>
5862

>  <cdx:fragmentId>
5816

$$$$
