39289.cdx
  Mrv1902 05222410202D          

 37 40  0  0  0  0            999 V2000
    5.1968   -7.3829    0.0000 C   0  0  0  0  0  0  0  0  0  0  0  0
    5.2042   -8.2078    0.0000 C   0  0  0  0  0  0  0  0  0  0  0  0
    5.9223   -8.6140    0.0000 C   0  0  0  0  0  0  0  0  0  0  0  0
    5.9076   -6.9640    0.0000 O   0  0  0  0  0  0  0  0  0  0  0  0
    8.7459  -10.2389    0.0000 C   0  0  0  0  0  0  0  0  0  0  0  0
    9.1647  -10.9497    0.0000 C   0  0  0  0  0  0  0  0  0  0  0  0
    9.9897  -10.9423    0.0000 C   0  0  0  0  0  0  0  0  0  0  0  0
   10.3958  -10.2242    0.0000 C   0  0  0  0  0  0  0  0  0  0  0  0
    9.9770   -9.5134    0.0000 C   0  0  0  0  0  0  0  0  0  0  0  0
    9.1520   -9.5208    0.0000 C   0  0  0  0  0  0  0  0  0  0  0  0
   11.2208  -10.2169    0.0000 O   0  0  0  0  0  0  0  0  0  0  0  0
   10.4085  -11.6531    0.0000 O   0  0  0  0  0  0  0  0  0  0  0  0
    5.1765   -3.2611    0.0000 O   0  0  0  0  0  0  0  0  0  0  0  0
    3.7438   -2.4425    0.0000 O   0  0  0  0  0  0  0  0  0  0  0  0
    3.0387   -4.5082    0.0000 C   0  0  0  0  0  0  0  0  0  0  0  0
    3.0349   -3.6832    0.0000 C   0  0  0  0  0  0  0  0  0  0  0  0
    5.9517  -11.9138    0.0000 O   0  0  0  0  0  0  0  0  0  0  0  0
    6.6551  -10.6700    0.0000 C   0  0  0  0  0  0  0  0  0  0  0  0
    5.9443  -11.0889    0.0000 C   0  0  0  0  0  0  0  0  0  0  0  0
    5.2262  -10.6827    0.0000 C   0  0  0  0  0  0  0  0  0  0  0  0
    5.2189   -9.8578    0.0000 C   0  0  0  0  0  0  0  0  0  0  0  0
    5.9296   -9.4389    0.0000 C   0  0  0  0  0  0  0  0  0  0  0  0
    6.6478   -9.8450    0.0000 C   0  0  0  0  0  0  0  0  0  0  0  0
    7.4301   -9.5831    0.0000 C   0  0  0  0  0  0  0  0  0  0  0  0
    7.9209  -10.2462    0.0000 C   0  0  0  0  0  0  0  0  0  0  0  0
    7.4420  -10.9180    0.0000 O   0  0  0  0  0  0  0  0  0  0  0  0
    3.7476   -3.2675    0.0000 C   0  0  0  0  0  0  0  0  0  0  0  0
    4.4639   -3.6768    0.0000 C   0  0  0  0  0  0  0  0  0  0  0  0
    4.4676   -4.5018    0.0000 C   0  0  0  0  0  0  0  0  0  0  0  0
    3.7550   -4.9175    0.0000 C   0  0  0  0  0  0  0  0  0  0  0  0
    4.4787   -6.9767    0.0000 O   0  0  0  0  0  0  0  0  0  0  0  0
    5.1839   -4.9110    0.0000 O   0  0  0  0  0  0  0  0  0  0  0  0
    5.9039   -6.1453    0.0000 O   0  0  0  0  0  0  0  0  0  0  0  0
    3.7587   -5.7425    0.0000 C   0  0  0  0  0  0  0  0  0  0  0  0
    4.4750   -6.1518    0.0000 C   0  0  2  0  0  0  0  0  0  0  0  0
    5.1876   -5.7360    0.0000 C   0  0  0  0  0  0  0  0  0  0  0  0
    5.8984   -4.4985    0.0000 C   0  0  0  0  0  0  0  0  0  0  0  0
 34 30  1  0  0  0  0
 28 13  1  0  0  0  0
 27 14  1  0  0  0  0
 30 15  2  0  0  0  0
 16 15  1  0  0  0  0
 27 16  2  0  0  0  0
 28 27  1  0  0  0  0
  3 22  1  0  0  0  0
 25  5  1  0  0  0  0
 19 17  1  0  0  0  0
 26 18  1  0  0  0  0
 23 18  2  0  0  0  0
 19 18  1  0  0  0  0
 20 19  2  0  0  0  0
 21 20  1  0  0  0  0
 22 21  2  0  0  0  0
 23 22  1  0  0  0  0
 24 23  1  0  0  0  0
 25 24  2  0  0  0  0
 26 25  1  0  0  0  0
 29 28  2  0  0  0  0
 30 29  1  0  0  0  0
 35 31  1  6  0  0  0
 36 32  1  0  0  0  0
 36 33  2  0  0  0  0
 35 34  1  0  0  0  0
 36 35  1  0  0  0  0
  1  2  1  0  0  0  0
  2  3  2  0  0  0  0
  1  4  2  0  0  0  0
 31  1  1  0  0  0  0
  5  6  1  0  0  0  0
  6  7  2  0  0  0  0
  7  8  1  0  0  0  0
  8  9  2  0  0  0  0
  9 10  1  0  0  0  0
  5 10  2  0  0  0  0
  8 11  1  0  0  0  0
  7 12  1  0  0  0  0
 32 37  1  0  0  0  0
M  END
>  <cdx:fragmentId>
99670

$$$$
