39284.cdx
  Mrv1902 05222410262D          

 15 14  0  0  0  0            999 V2000
    6.3397   -6.9780    0.0000 O   0  0  0  0  0  0  0  0  0  0  0  0
    4.9108   -6.1530    0.0000 C   0  0  0  0  0  0  0  0  0  0  0  0
    9.9121   -5.7405    0.0000 C   0  0  0  0  0  0  0  0  0  0  0  0
    9.1976   -6.1530    0.0000 C   0  0  0  0  0  0  0  0  0  0  0  0
    8.4831   -5.7405    0.0000 C   0  0  0  0  0  0  0  0  0  0  0  0
    7.7686   -6.1530    0.0000 C   0  0  0  0  0  0  0  0  0  0  0  0
    7.0542   -5.7405    0.0000 C   0  0  0  0  0  0  0  0  0  0  0  0
    6.3397   -6.1530    0.0000 C   0  0  0  0  0  0  0  0  0  0  0  0
    5.6252   -5.7405    0.0000 O   0  0  0  0  0  0  0  0  0  0  0  0
    9.9121   -4.9155    0.0000 C   0  0  0  0  0  0  0  0  0  0  0  0
   10.6265   -4.5030    0.0000 C   0  0  0  0  0  0  0  0  0  0  0  0
   10.6265   -3.6780    0.0000 C   0  0  0  0  0  0  0  0  0  0  0  0
   11.3410   -3.2655    0.0000 C   0  0  0  0  0  0  0  0  0  0  0  0
   11.3410   -2.4405    0.0000 C   0  0  0  0  0  0  0  0  0  0  0  0
   12.0555   -2.0280    0.0000 C   0  0  0  0  0  0  0  0  0  0  0  0
  8  1  2  0  0  0  0
  9  2  1  0  0  0  0
  4  3  2  0  0  0  0
  5  4  1  0  0  0  0
  6  5  1  0  0  0  0
  7  6  1  0  0  0  0
  8  7  1  0  0  0  0
  9  8  1  0  0  0  0
  3 10  1  0  0  0  0
 10 11  1  0  0  0  0
 11 12  1  0  0  0  0
 12 13  1  0  0  0  0
 13 14  1  0  0  0  0
 14 15  1  0  0  0  0
M  END
>  <cdx:groupId>
7336

>  <cdx:fragmentId>
7310

$$$$
