39286.cdx
  Mrv1902 05222410262D          

 31 32  0  0  0  0            999 V2000
    8.3353   -8.5538    0.0000 N   0  0  0  0  0  0  0  0  0  0  0  0
    7.6226   -8.1382    0.0000 C   0  0  1  0  0  0  0  0  0  0  0  0
    6.9063   -8.5475    0.0000 C   0  0  0  0  0  0  0  0  0  0  0  0
    6.1937   -8.1318    0.0000 C   0  0  0  0  0  0  0  0  0  0  0  0
    6.1974   -7.3068    0.0000 O   0  0  0  0  0  0  0  0  0  0  0  0
    8.3426   -6.9039    0.0000 O   0  0  0  0  0  0  0  0  0  0  0  0
    9.0516   -8.1445    0.0000 C   0  0  0  0  0  0  0  0  0  0  0  0
    9.0553   -7.3195    0.0000 O   0  0  0  0  0  0  0  0  0  0  0  0
    9.7642   -8.5602    0.0000 O   0  0  0  0  0  0  0  0  0  0  0  0
   10.4805   -8.1509    0.0000 C   0  0  0  0  0  0  0  0  0  0  0  0
   11.1931   -8.5666    0.0000 C   0  0  0  0  0  0  0  0  0  0  0  0
   11.1894   -9.3916    0.0000 C   0  0  0  0  0  0  0  0  0  0  0  0
   11.9020   -9.8073    0.0000 C   0  0  0  0  0  0  0  0  0  0  0  0
   12.6184   -9.3980    0.0000 C   0  0  0  0  0  0  0  0  0  0  0  0
   12.6220   -8.5730    0.0000 C   0  0  0  0  0  0  0  0  0  0  0  0
   11.9094   -8.1573    0.0000 C   0  0  0  0  0  0  0  0  0  0  0  0
    5.4740   -6.0661    0.0000 C   0  0  0  0  0  0  0  0  0  0  0  0
    1.9025   -7.3110    0.0000 O   0  0  0  0  0  0  0  0  0  0  0  0
    2.6161   -6.8970    0.0000 C   0  0  0  0  0  0  0  0  0  0  0  0
    4.0451   -6.8940    0.0000 O   0  0  0  0  0  0  0  0  0  0  0  0
    3.3314   -7.3080    0.0000 C   0  0  1  0  0  0  0  0  0  0  0  0
    2.6195   -8.5470    0.0000 O   0  0  0  0  0  0  0  0  0  0  0  0
    3.3331   -8.1330    0.0000 C   0  0  1  0  0  0  0  0  0  0  0  0
    4.0502   -9.3690    0.0000 O   0  0  0  0  0  0  0  0  0  0  0  0
    4.0485   -8.5440    0.0000 C   0  0  2  0  0  0  0  0  0  0  0  0
    5.4774   -8.5411    0.0000 N   0  0  0  0  0  0  0  0  0  0  0  0
    4.7621   -8.1300    0.0000 C   0  0  1  0  0  0  0  0  0  0  0  0
    4.7604   -7.3050    0.0000 C   0  0  2  0  0  0  0  0  0  0  0  0
    6.9137   -6.8975    0.0000 O   0  0  0  0  0  0  0  0  0  0  0  0
    7.6263   -7.3132    0.0000 C   0  0  0  0  0  0  0  0  0  0  0  0
    5.4740   -6.8911    0.0000 O   0  0  0  0  0  0  0  0  0  0  0  0
 31 17  1  0  0  0  0
 28 20  1  0  0  0  0
 19 18  1  0  0  0  0
 21 19  1  1  0  0  0
 21 20  1  0  0  0  0
 23 21  1  0  0  0  0
 23 22  1  6  0  0  0
 25 23  1  0  0  0  0
 25 24  1  1  0  0  0
 27 25  1  0  0  0  0
 27 26  1  6  0  0  0
 28 27  1  0  0  0  0
 30  6  1  0  0  0  0
 30 29  2  0  0  0  0
 28 31  1  1  0  0  0
  2  1  1  1  0  0  0
 30  2  1  0  0  0  0
  2  3  1  0  0  0  0
  3  4  1  0  0  0  0
  4  5  2  0  0  0  0
  7  8  2  0  0  0  0
 10 11  1  0  0  0  0
 11 12  1  0  0  0  0
 12 13  2  0  0  0  0
 13 14  1  0  0  0  0
 14 15  2  0  0  0  0
 15 16  1  0  0  0  0
 11 16  2  0  0  0  0
  9 10  1  0  0  0  0
  7  9  1  0  0  0  0
  1  7  1  0  0  0  0
 26  4  1  0  0  0  0
M  END
>  <cdx:fragmentId>
6274

$$$$
