1787.cdx
  Mrv1902 05222410262D          

  8  7  0  0  0  0            999 V2000
   16.5405  -16.1539    0.0000 S   0  0  0  0  0  0  0  0  0  0  0  0
   17.2549  -16.5664    0.0000 S   0  0  0  0  0  0  0  0  0  0  0  0
   15.8260  -16.5664    0.0000 C   0  0  0  0  0  0  0  0  0  0  0  0
   15.1115  -16.1539    0.0000 C   0  0  0  0  0  0  0  0  0  0  0  0
   14.3970  -16.5664    0.0000 C   0  0  0  0  0  0  0  0  0  0  0  0
   13.6826  -16.1539    0.0000 C   0  0  0  0  0  0  0  0  0  0  0  0
   12.9681  -16.5664    0.0000 C   0  0  0  0  0  0  0  0  0  0  0  0
   17.9694  -16.1539    0.0000 C   0  0  0  0  0  0  0  0  0  0  0  0
  1  2  1  0  0  0  0
  3  4  1  0  0  0  0
  4  5  1  0  0  0  0
  5  6  1  0  0  0  0
  6  7  1  0  0  0  0
  1  3  1  0  0  0  0
  2  8  1  0  0  0  0
M  END
>  <cdx:groupId>
6349

>  <cdx:fragmentId>
6333

$$$$
