39282.cdx
  Mrv1902 05222410282D          

 24 23  0  0  0  0            999 V2000
   12.7810   -8.8219    0.0000 C   0  0  0  0  0  0  0  0  0  0  0  0
    0.6348   -8.4097    0.0000 C   0  0  0  0  0  0  0  0  0  0  0  0
    7.7796   -7.5847    0.0000 O   0  0  0  0  0  0  0  0  0  0  0  0
    9.9230   -9.6472    0.0000 O   0  0  0  0  0  0  0  0  0  0  0  0
   10.6374   -7.5847    0.0000 O   0  0  0  0  0  0  0  0  0  0  0  0
    1.3493   -8.8222    0.0000 O   0  0  0  0  0  0  0  0  0  0  0  0
    2.0638   -7.5847    0.0000 O   0  0  0  0  0  0  0  0  0  0  0  0
   13.4959  -10.0592    0.0000 C   0  0  0  0  0  0  0  0  0  0  0  0
   12.7813   -9.6469    0.0000 C   0  0  0  0  0  0  0  0  0  0  0  0
   12.0664   -8.4097    0.0000 C   0  0  0  0  0  0  0  0  0  0  0  0
   11.3519   -8.8222    0.0000 C   0  0  0  0  0  0  0  0  0  0  0  0
   10.6374   -8.4097    0.0000 C   0  0  0  0  0  0  0  0  0  0  0  0
    9.9230   -8.8222    0.0000 C   0  0  0  0  0  0  0  0  0  0  0  0
    9.2085   -8.4097    0.0000 C   0  0  0  0  0  0  0  0  0  0  0  0
    8.4940   -8.8222    0.0000 C   0  0  0  0  0  0  0  0  0  0  0  0
    7.7796   -8.4097    0.0000 C   0  0  0  0  0  0  0  0  0  0  0  0
    7.0651   -8.8222    0.0000 C   0  0  0  0  0  0  0  0  0  0  0  0
    6.3506   -8.4097    0.0000 C   0  0  0  0  0  0  0  0  0  0  0  0
    5.6361   -8.8222    0.0000 C   0  0  0  0  0  0  0  0  0  0  0  0
    4.9217   -8.4097    0.0000 C   0  0  0  0  0  0  0  0  0  0  0  0
    4.2072   -8.8222    0.0000 C   0  0  0  0  0  0  0  0  0  0  0  0
    3.4927   -8.4097    0.0000 C   0  0  0  0  0  0  0  0  0  0  0  0
    2.7783   -8.8222    0.0000 C   0  0  0  0  0  0  0  0  0  0  0  0
    2.0638   -8.4097    0.0000 C   0  0  0  0  0  0  0  0  0  0  0  0
  6  2  1  0  0  0  0
 16  3  1  0  0  0  0
 13  4  1  0  0  0  0
 12  5  1  0  0  0  0
 24  6  1  0  0  0  0
 24  7  2  0  0  0  0
  9  8  1  0  0  0  0
 10  1  2  0  0  0  0
 11 10  1  0  0  0  0
 12 11  1  0  0  0  0
 13 12  1  0  0  0  0
 14 13  1  0  0  0  0
 15 14  2  0  0  0  0
 16 15  1  0  0  0  0
 17 16  1  0  0  0  0
 18 17  1  0  0  0  0
 19 18  1  0  0  0  0
 20 19  1  0  0  0  0
 21 20  1  0  0  0  0
 22 21  1  0  0  0  0
 23 22  1  0  0  0  0
 24 23  1  0  0  0  0
  1  9  1  0  0  0  0
M  END
>  <cdx:fragmentId>
5

$$$$
