39285.cdx
  Mrv1902 05222410272D          

 25 24  0  0  0  0            999 V2000
   17.8287   -6.6939    0.0000 C   0  0  0  0  0  0  0  0  0  0  0  0
   17.1143   -7.1064    0.0000 C   0  0  0  0  0  0  0  0  0  0  0  0
   16.3998   -6.6939    0.0000 C   0  0  0  0  0  0  0  0  0  0  0  0
   15.6853   -7.1064    0.0000 C   0  0  0  0  0  0  0  0  0  0  0  0
   14.9708   -6.6939    0.0000 C   0  0  0  0  0  0  0  0  0  0  0  0
   14.2564   -7.1064    0.0000 C   0  0  0  0  0  0  0  0  0  0  0  0
   13.5419   -6.6939    0.0000 C   0  0  0  0  0  0  0  0  0  0  0  0
   12.8274   -7.1064    0.0000 C   0  0  0  0  0  0  0  0  0  0  0  0
   12.1130   -6.6939    0.0000 C   0  0  0  0  0  0  0  0  0  0  0  0
   11.3985   -7.1064    0.0000 C   0  0  0  0  0  0  0  0  0  0  0  0
   10.6840   -6.6939    0.0000 C   0  0  0  0  0  0  0  0  0  0  0  0
    9.9695   -7.1064    0.0000 C   0  0  0  0  0  0  0  0  0  0  0  0
    9.2551   -6.6939    0.0000 C   0  0  0  0  0  0  0  0  0  0  0  0
    8.5406   -7.1064    0.0000 C   0  0  0  0  0  0  0  0  0  0  0  0
    7.8261   -6.6939    0.0000 C   0  0  0  0  0  0  0  0  0  0  0  0
    7.1117   -7.1064    0.0000 C   0  0  0  0  0  0  0  0  0  0  0  0
    6.3972   -6.6939    0.0000 C   0  0  0  0  0  0  0  0  0  0  0  0
    5.6827   -7.1064    0.0000 C   0  0  0  0  0  0  0  0  0  0  0  0
    4.9683   -6.6939    0.0000 C   0  0  0  0  0  0  0  0  0  0  0  0
    4.2538   -7.1064    0.0000 C   0  0  0  0  0  0  0  0  0  0  0  0
    3.5393   -6.6939    0.0000 C   0  0  0  0  0  0  0  0  0  0  0  0
    2.8248   -7.1064    0.0000 C   0  0  0  0  0  0  0  0  0  0  0  0
   17.8287   -5.8689    0.0000 O   0  0  0  0  0  0  0  0  0  0  0  0
   18.5432   -7.1064    0.0000 O   0  0  0  0  0  0  0  0  0  0  0  0
   19.2577   -6.6939    0.0000 C   0  0  0  0  0  0  0  0  0  0  0  0
  1  2  1  0  0  0  0
  2  3  1  0  0  0  0
  3  4  1  0  0  0  0
  4  5  2  0  0  0  0
  5  6  1  0  0  0  0
  6  7  1  0  0  0  0
  7  8  2  0  0  0  0
  8  9  1  0  0  0  0
  9 10  1  0  0  0  0
 10 11  2  0  0  0  0
 11 12  1  0  0  0  0
 12 13  1  0  0  0  0
 13 14  2  0  0  0  0
 14 15  1  0  0  0  0
 15 16  1  0  0  0  0
 16 17  2  0  0  0  0
 17 18  1  0  0  0  0
 18 19  1  0  0  0  0
 19 20  2  0  0  0  0
 20 21  1  0  0  0  0
 21 22  1  0  0  0  0
  1 23  2  0  0  0  0
  1 24  1  0  0  0  0
 24 25  1  0  0  0  0
M  END
>  <cdx:groupId>
6218

>  <cdx:fragmentId>
6147

$$$$
