1788.cdx
  Mrv1902 05222410192D          

 28 29  0  0  0  0            999 V2000
   11.1180  -16.2685    0.0000 C   0  0  0  0  0  0  0  0  0  0  0  0
   11.8324  -16.6810    0.0000 C   0  0  0  0  0  0  0  0  0  0  0  0
   12.5469  -16.2685    0.0000 C   0  0  2  0  0  0  0  0  0  0  0  0
   12.5469  -15.4435    0.0000 C   0  0  0  0  0  0  0  0  0  0  0  0
   11.8324  -15.0310    0.0000 C   0  0  1  0  0  0  0  0  0  0  0  0
   11.1180  -15.4435    0.0000 O   0  0  0  0  0  0  0  0  0  0  0  0
   11.8324  -17.5060    0.0000 C   0  0  0  0  0  0  0  0  0  0  0  0
   12.5469  -17.9185    0.0000 O   0  0  0  0  0  0  0  0  0  0  0  0
   11.1180  -17.9185    0.0000 O   0  0  0  0  0  0  0  0  0  0  0  0
   11.8324  -14.2060    0.0000 O   0  0  0  0  0  0  0  0  0  0  0  0
   13.2614  -15.0310    0.0000 C   0  0  0  0  0  0  0  0  0  0  0  0
   13.9758  -15.4435    0.0000 C   0  0  0  0  0  0  0  0  0  0  0  0
   13.6900  -16.9285    0.0000 C   0  0  0  0  0  0  0  0  0  0  0  0
   14.4045  -16.5160    0.0000 C   0  0  0  0  0  0  0  0  0  0  0  0
   14.4045  -15.6910    0.0000 O   0  0  0  0  0  0  0  0  0  0  0  0
   15.1190  -16.9285    0.0000 O   0  0  0  0  0  0  0  0  0  0  0  0
   15.8335  -16.5160    0.0000 C   0  0  0  0  0  0  0  0  0  0  0  0
   16.5479  -16.9285    0.0000 C   0  0  0  0  0  0  0  0  0  0  0  0
   17.2624  -16.5160    0.0000 C   0  0  0  0  0  0  0  0  0  0  0  0
   17.9769  -16.9285    0.0000 C   0  0  0  0  0  0  0  0  0  0  0  0
   18.6913  -16.5160    0.0000 C   0  0  0  0  0  0  0  0  0  0  0  0
   18.6913  -15.6910    0.0000 C   0  0  0  0  0  0  0  0  0  0  0  0
   17.9769  -15.2785    0.0000 C   0  0  0  0  0  0  0  0  0  0  0  0
   17.2624  -15.6910    0.0000 C   0  0  0  0  0  0  0  0  0  0  0  0
   19.4058  -15.2785    0.0000 O   0  0  0  0  0  0  0  0  0  0  0  0
   19.4058  -16.9285    0.0000 O   0  0  0  0  0  0  0  0  0  0  0  0
   11.1180  -18.7435    0.0000 C   0  0  0  0  0  0  0  0  0  0  0  0
   13.2614  -14.2060    0.0000 C   0  0  0  0  0  0  0  0  0  0  0  0
  1  2  2  0  0  0  0
  2  3  1  0  0  0  0
  3  4  1  0  0  0  0
  4  5  1  0  0  0  0
  5  6  1  0  0  0  0
  1  6  1  0  0  0  0
  7  8  2  0  0  0  0
  7  9  1  0  0  0  0
  2  7  1  0  0  0  0
  5 10  1  1  0  0  0
 11 12  1  0  0  0  0
  4 11  2  0  0  0  0
 13 14  1  0  0  0  0
 14 15  2  0  0  0  0
 17 18  1  0  0  0  0
 16 17  1  0  0  0  0
 19 20  1  0  0  0  0
 20 21  2  0  0  0  0
 21 22  1  0  0  0  0
 22 23  2  0  0  0  0
 23 24  1  0  0  0  0
 19 24  2  0  0  0  0
 22 25  1  0  0  0  0
 21 26  1  0  0  0  0
 18 19  1  0  0  0  0
 14 16  1  0  0  0  0
  3 13  1  6  0  0  0
  9 27  1  0  0  0  0
 11 28  1  0  0  0  0
M  END
>  <cdx:groupId>
6435

>  <cdx:fragmentId>
6392

$$$$
