1796.cdx
  Mrv1902 05222410282D          

 22 24  0  0  0  0            999 V2000
    5.5876   -9.7692    0.0000 C   0  0  0  0  0  0  0  0  0  0  0  0
    5.5876  -10.5942    0.0000 C   0  0  0  0  0  0  0  0  0  0  0  0
    6.3021  -11.0067    0.0000 C   0  0  0  0  0  0  0  0  0  0  0  0
    7.0166  -10.5942    0.0000 C   0  0  0  0  0  0  0  0  0  0  0  0
    7.0166   -9.7692    0.0000 C   0  0  0  0  0  0  0  0  0  0  0  0
    6.3021   -9.3567    0.0000 C   0  0  0  0  0  0  0  0  0  0  0  0
    7.7310  -11.0067    0.0000 C   0  0  0  0  0  0  0  0  0  0  0  0
    8.4455  -10.5942    0.0000 O   0  0  0  0  0  0  0  0  0  0  0  0
    8.4455   -9.7692    0.0000 C   0  0  0  0  0  0  0  0  0  0  0  0
    7.7310   -9.3567    0.0000 C   0  0  0  0  0  0  0  0  0  0  0  0
    9.1600   -9.3567    0.0000 C   0  0  2  0  0  0  0  0  0  0  0  0
    9.1600   -8.5317    0.0000 C   0  0  1  0  0  0  0  0  0  0  0  0
    8.4455   -8.1192    0.0000 C   0  0  2  0  0  0  0  0  0  0  0  0
    7.7310   -8.5317    0.0000 O   0  0  0  0  0  0  0  0  0  0  0  0
    8.4455   -7.2942    0.0000 C   0  0  0  0  0  0  0  0  0  0  0  0
    9.8744   -8.1192    0.0000 O   0  0  0  0  0  0  0  0  0  0  0  0
    9.8744   -9.7692    0.0000 O   0  0  0  0  0  0  0  0  0  0  0  0
    7.7310  -11.8317    0.0000 O   0  0  0  0  0  0  0  0  0  0  0  0
    6.3021   -8.5317    0.0000 O   0  0  0  0  0  0  0  0  0  0  0  0
    4.8731   -9.3567    0.0000 C   0  0  0  0  0  0  0  0  0  0  0  0
    4.8731  -11.0067    0.0000 O   0  0  0  0  0  0  0  0  0  0  0  0
    9.1600   -6.8817    0.0000 O   0  0  0  0  0  0  0  0  0  0  0  0
  1  2  2  0  0  0  0
  2  3  1  0  0  0  0
  3  4  2  0  0  0  0
  4  5  1  0  0  0  0
  5  6  2  0  0  0  0
  6  1  1  0  0  0  0
  4  7  1  0  0  0  0
  7  8  1  0  0  0  0
  8  9  1  0  0  0  0
  9 10  1  0  0  0  0
 10  5  1  0  0  0  0
  9 11  1  0  0  0  0
 11 12  1  0  0  0  0
 12 13  1  0  0  0  0
 13 14  1  0  0  0  0
 14 10  1  0  0  0  0
 13 15  1  6  0  0  0
 12 16  1  1  0  0  0
 11 17  1  6  0  0  0
  7 18  2  0  0  0  0
  6 19  1  0  0  0  0
  1 20  1  0  0  0  0
  2 21  1  0  0  0  0
 15 22  1  0  0  0  0
M  END
>  <cdx:fragmentId>
7160

$$$$
