39290.cdx
  Mrv1902 05222410262D          

 24 25  0  0  0  0            999 V2000
    8.3152   -8.9507    0.0000 C   0  0  0  0  0  0  0  0  0  0  0  0
    7.6007   -9.3632    0.0000 C   0  0  0  0  0  0  0  0  0  0  0  0
    6.8863   -8.9507    0.0000 C   0  0  0  0  0  0  0  0  0  0  0  0
    8.3152   -8.1257    0.0000 O   0  0  0  0  0  0  0  0  0  0  0  0
    9.0297   -9.3632    0.0000 O   0  0  0  0  0  0  0  0  0  0  0  0
    6.1718   -9.3632    0.0000 C   0  0  0  0  0  0  0  0  0  0  0  0
    6.1718  -10.1882    0.0000 C   0  0  0  0  0  0  0  0  0  0  0  0
    5.4573  -10.6007    0.0000 C   0  0  0  0  0  0  0  0  0  0  0  0
    4.7429  -10.1882    0.0000 C   0  0  0  0  0  0  0  0  0  0  0  0
    4.7429   -9.3632    0.0000 C   0  0  0  0  0  0  0  0  0  0  0  0
    5.4573   -8.9507    0.0000 C   0  0  0  0  0  0  0  0  0  0  0  0
    4.0284  -10.6007    0.0000 O   0  0  0  0  0  0  0  0  0  0  0  0
    5.4573  -11.4257    0.0000 O   0  0  0  0  0  0  0  0  0  0  0  0
    6.8863  -10.6007    0.0000 C   0  0  0  0  0  0  0  0  0  0  0  0
    7.6007  -10.1882    0.0000 C   0  0  0  0  0  0  0  0  0  0  0  0
    8.3152  -10.6007    0.0000 C   0  0  0  0  0  0  0  0  0  0  0  0
    9.0297  -10.1882    0.0000 C   0  0  0  0  0  0  0  0  0  0  0  0
    9.7441  -10.6007    0.0000 C   0  0  0  0  0  0  0  0  0  0  0  0
    9.7441  -11.4257    0.0000 C   0  0  0  0  0  0  0  0  0  0  0  0
    9.0297  -11.8382    0.0000 C   0  0  0  0  0  0  0  0  0  0  0  0
    8.3152  -11.4257    0.0000 C   0  0  0  0  0  0  0  0  0  0  0  0
   10.4586  -11.8382    0.0000 O   0  0  0  0  0  0  0  0  0  0  0  0
   10.4586  -10.1882    0.0000 O   0  0  0  0  0  0  0  0  0  0  0  0
    9.7441   -8.9507    0.0000 C   0  0  0  0  0  0  0  0  0  0  0  0
  1  2  1  0  0  0  0
  2  3  2  0  0  0  0
  1  4  2  0  0  0  0
  1  5  1  0  0  0  0
  6  7  1  0  0  0  0
  7  8  2  0  0  0  0
  8  9  1  0  0  0  0
  9 10  2  0  0  0  0
 10 11  1  0  0  0  0
  6 11  2  0  0  0  0
  9 12  1  0  0  0  0
  8 13  1  0  0  0  0
 14 15  2  0  0  0  0
 16 17  1  0  0  0  0
 17 18  2  0  0  0  0
 18 19  1  0  0  0  0
 19 20  2  0  0  0  0
 20 21  1  0  0  0  0
 16 21  2  0  0  0  0
 19 22  1  0  0  0  0
 18 23  1  0  0  0  0
 15 16  1  0  0  0  0
  7 14  1  0  0  0  0
  3  6  1  0  0  0  0
  5 24  1  0  0  0  0
M  END
>  <cdx:groupId>
62737

>  <cdx:fragmentId>
62700

$$$$
