1797.cdx
  Mrv1902 05222410282D          

 29 32  0  0  0  0            999 V2000
    6.3324   -8.8115    0.0000 C   0  0  0  0  0  0  0  0  0  0  0  0
    6.3324   -9.6365    0.0000 C   0  0  0  0  0  0  0  0  0  0  0  0
    7.0469  -10.0490    0.0000 C   0  0  0  0  0  0  0  0  0  0  0  0
    7.7613   -9.6365    0.0000 C   0  0  0  0  0  0  0  0  0  0  0  0
    7.7613   -8.8115    0.0000 C   0  0  0  0  0  0  0  0  0  0  0  0
    7.0469   -8.3990    0.0000 C   0  0  0  0  0  0  0  0  0  0  0  0
    8.4758  -10.0490    0.0000 C   0  0  0  0  0  0  0  0  0  0  0  0
    9.1903   -9.6365    0.0000 C   0  0  0  0  0  0  0  0  0  0  0  0
    9.1903   -8.8115    0.0000 C   0  0  0  0  0  0  0  0  0  0  0  0
    8.4758   -8.3990    0.0000 C   0  0  0  0  0  0  0  0  0  0  0  0
    9.9048   -8.3990    0.0000 C   0  0  0  0  0  0  0  0  0  0  0  0
    9.9048   -7.5740    0.0000 C   0  0  0  0  0  0  0  0  0  0  0  0
    9.1903   -7.1615    0.0000 C   0  0  0  0  0  0  0  0  0  0  0  0
    8.4758   -7.5740    0.0000 C   0  0  0  0  0  0  0  0  0  0  0  0
   10.6894   -8.6539    0.0000 C   0  0  0  0  0  0  0  0  0  0  0  0
   11.1743   -7.9865    0.0000 C   0  0  0  0  0  0  0  0  0  0  0  0
   10.6894   -7.3190    0.0000 C   0  0  0  0  0  0  0  0  0  0  0  0
    5.6179  -10.0490    0.0000 O   0  0  0  0  0  0  0  0  0  0  0  0
    7.7613   -7.9865    0.0000 C   0  0  0  0  0  0  0  0  0  0  0  0
    9.9910   -6.7535    0.0000 C   0  0  0  0  0  0  0  0  0  0  0  0
   10.9443   -6.5344    0.0000 C   0  0  0  0  0  0  0  0  0  0  0  0
   11.7513   -6.3629    0.0000 C   0  0  0  0  0  0  0  0  0  0  0  0
   10.3923   -5.9213    0.0000 C   0  0  0  0  0  0  0  0  0  0  0  0
   12.3033   -6.9760    0.0000 C   0  0  0  0  0  0  0  0  0  0  0  0
   13.1103   -6.8044    0.0000 C   0  0  0  0  0  0  0  0  0  0  0  0
   13.6623   -7.4175    0.0000 C   0  0  0  0  0  0  0  0  0  0  0  0
   13.3652   -6.0198    0.0000 C   0  0  0  0  0  0  0  0  0  0  0  0
   13.4074   -8.2022    0.0000 C   0  0  0  0  0  0  0  0  0  0  0  0
   14.4693   -7.2460    0.0000 C   0  0  0  0  0  0  0  0  0  0  0  0
  1  2  1  0  0  0  0
  2  3  1  0  0  0  0
  3  4  1  0  0  0  0
  4  5  1  0  0  0  0
  5  6  1  0  0  0  0
  6  1  1  0  0  0  0
  4  7  1  0  0  0  0
  7  8  1  0  0  0  0
  8  9  2  0  0  0  0
  9 10  1  0  0  0  0
 10  5  1  0  0  0  0
  9 11  1  0  0  0  0
 11 12  1  0  0  0  0
 12 13  1  0  0  0  0
 13 14  1  0  0  0  0
 14 10  1  0  0  0  0
 11 15  1  0  0  0  0
 15 16  1  0  0  0  0
 16 17  1  0  0  0  0
 17 12  1  0  0  0  0
  2 18  1  0  0  0  0
  5 19  1  0  0  0  0
 12 20  1  0  0  0  0
 17 21  1  0  0  0  0
 21 22  1  0  0  0  0
 21 23  1  0  0  0  0
 22 24  1  0  0  0  0
 24 25  1  0  0  0  0
 25 26  1  0  0  0  0
 25 27  1  0  0  0  0
 26 28  1  0  0  0  0
 26 29  1  0  0  0  0
M  END
>  <cdx:fragmentId>
7224

$$$$
