1793.cdx
  Mrv1902 05222410262D          

 24 23  0  0  0  0            999 V2000
   20.8273  -16.6122    0.0000 C   0  0  0  0  0  0  0  0  0  0  0  0
   20.1128  -17.0247    0.0000 C   0  0  0  0  0  0  0  0  0  0  0  0
   19.3983  -16.6122    0.0000 C   0  0  0  0  0  0  0  0  0  0  0  0
   18.6839  -17.0247    0.0000 C   0  0  0  0  0  0  0  0  0  0  0  0
   17.9694  -16.6122    0.0000 C   0  0  0  0  0  0  0  0  0  0  0  0
   17.2549  -17.0247    0.0000 C   0  0  0  0  0  0  0  0  0  0  0  0
   16.5405  -16.6122    0.0000 C   0  0  0  0  0  0  0  0  0  0  0  0
   15.8260  -17.0247    0.0000 C   0  0  0  0  0  0  0  0  0  0  0  0
   15.1115  -16.6122    0.0000 C   0  0  0  0  0  0  0  0  0  0  0  0
   14.3970  -17.0247    0.0000 C   0  0  0  0  0  0  0  0  0  0  0  0
   13.6826  -16.6122    0.0000 C   0  0  0  0  0  0  0  0  0  0  0  0
   12.9681  -17.0247    0.0000 C   0  0  0  0  0  0  0  0  0  0  0  0
   12.2536  -16.6122    0.0000 C   0  0  0  0  0  0  0  0  0  0  0  0
   11.5392  -17.0247    0.0000 C   0  0  0  0  0  0  0  0  0  0  0  0
   10.8247  -16.6122    0.0000 C   0  0  0  0  0  0  0  0  0  0  0  0
   10.1102  -17.0247    0.0000 C   0  0  0  0  0  0  0  0  0  0  0  0
    9.3958  -16.6122    0.0000 C   0  0  0  0  0  0  0  0  0  0  0  0
    8.6813  -17.0247    0.0000 C   0  0  0  0  0  0  0  0  0  0  0  0
   20.8273  -15.7872    0.0000 O   0  0  0  0  0  0  0  0  0  0  0  0
   21.5418  -17.0247    0.0000 O   0  0  0  0  0  0  0  0  0  0  0  0
   13.6826  -15.7872    0.0000 O   0  0  0  0  0  0  0  0  0  0  0  0
   14.3970  -17.8497    0.0000 O   0  0  0  0  0  0  0  0  0  0  0  0
   15.1115  -15.7872    0.0000 O   0  0  0  0  0  0  0  0  0  0  0  0
   22.2562  -16.6122    0.0000 C   0  0  0  0  0  0  0  0  0  0  0  0
  1  2  1  0  0  0  0
  2  3  1  0  0  0  0
  3  4  1  0  0  0  0
  4  5  1  0  0  0  0
  5  6  1  0  0  0  0
  6  7  1  0  0  0  0
  7  8  1  0  0  0  0
  8  9  1  0  0  0  0
  9 10  1  0  0  0  0
 10 11  1  0  0  0  0
 11 12  1  0  0  0  0
 12 13  2  0  0  0  0
 13 14  1  0  0  0  0
 14 15  1  0  0  0  0
 15 16  1  0  0  0  0
 16 17  1  0  0  0  0
 17 18  1  0  0  0  0
  1 19  2  0  0  0  0
  1 20  1  0  0  0  0
 11 21  1  0  0  0  0
 10 22  1  0  0  0  0
  9 23  1  0  0  0  0
 20 24  1  0  0  0  0
M  END
>  <cdx:groupId>
6970

>  <cdx:fragmentId>
6902

$$$$
