39295.cdx
  Mrv1902 05222410272D          

 22 23  0  0  0  0            999 V2000
    6.8888   -6.5885    0.0000 O   0  0  0  0  0  0  0  0  0  0  0  0
    6.1743   -7.0010    0.0000 C   0  0  1  0  0  0  0  0  0  0  0  0
    6.1743   -7.8260    0.0000 C   0  0  1  0  0  0  0  0  0  0  0  0
    6.8888   -8.2385    0.0000 O   0  0  0  0  0  0  0  0  0  0  0  0
    5.4598   -8.2385    0.0000 C   0  0  2  0  0  0  0  0  0  0  0  0
    5.4598   -9.0635    0.0000 O   0  0  0  0  0  0  0  0  0  0  0  0
    4.7453   -7.8260    0.0000 C   0  0  2  0  0  0  0  0  0  0  0  0
    4.0309   -8.2385    0.0000 O   0  0  0  0  0  0  0  0  0  0  0  0
    4.7453   -7.0010    0.0000 C   0  0  1  0  0  0  0  0  0  0  0  0
    5.4598   -6.5885    0.0000 O   0  0  0  0  0  0  0  0  0  0  0  0
    4.0309   -6.5885    0.0000 C   0  0  0  0  0  0  0  0  0  0  0  0
    6.8888   -5.7635    0.0000 C   0  0  0  0  0  0  0  0  0  0  0  0
    7.6032   -7.8260    0.0000 C   0  0  1  0  0  0  0  0  0  0  0  0
    8.3177   -8.2385    0.0000 C   0  0  2  0  0  0  0  0  0  0  0  0
    9.0322   -7.8260    0.0000 C   0  0  1  0  0  0  0  0  0  0  0  0
    9.0322   -7.0010    0.0000 C   0  0  1  0  0  0  0  0  0  0  0  0
    8.3177   -6.5885    0.0000 C   0  0  1  0  0  0  0  0  0  0  0  0
    7.6032   -7.0010    0.0000 O   0  0  0  0  0  0  0  0  0  0  0  0
    8.3177   -5.7635    0.0000 C   0  0  0  0  0  0  0  0  0  0  0  0
    9.7466   -6.5885    0.0000 O   0  0  0  0  0  0  0  0  0  0  0  0
    9.7466   -8.2385    0.0000 O   0  0  0  0  0  0  0  0  0  0  0  0
    8.3177   -9.0635    0.0000 O   0  0  0  0  0  0  0  0  0  0  0  0
  2  1  1  1  0  0  0
  2  3  1  0  0  0  0
  3  4  1  1  0  0  0
  3  5  1  0  0  0  0
  5  6  1  6  0  0  0
  5  7  1  0  0  0  0
  7  8  1  6  0  0  0
  7  9  1  0  0  0  0
  9 10  1  0  0  0  0
  9 11  1  6  0  0  0
  2 10  1  0  0  0  0
  1 12  1  0  0  0  0
 13  4  1  6  0  0  0
 13 14  1  0  0  0  0
 14 15  1  0  0  0  0
 15 16  1  0  0  0  0
 16 17  1  0  0  0  0
 17 18  1  0  0  0  0
 18 13  1  0  0  0  0
 17 19  1  1  0  0  0
 16 20  1  1  0  0  0
 15 21  1  1  0  0  0
 14 22  1  6  0  0  0
M  END
>  <cdx:groupId>
7149

>  <cdx:fragmentId>
7085

$$$$
