1794.cdx
  Mrv1902 05222410272D          

 27 31  0  0  0  0            999 V2000
   15.7588  -16.9734    0.0000 C   0  0  0  0  0  0  0  0  0  0  0  0
   15.0468  -16.5623    0.0000 C   0  0  0  0  0  0  0  0  0  0  0  0
   14.2649  -16.8163    0.0000 N   0  0  0  0  0  0  0  0  0  0  0  0
   13.7817  -16.1512    0.0000 C   0  0  0  0  0  0  0  0  0  0  0  0
   12.9640  -16.0653    0.0000 C   0  0  0  0  0  0  0  0  0  0  0  0
   12.6296  -15.3142    0.0000 C   0  0  0  0  0  0  0  0  0  0  0  0
   13.1129  -14.6491    0.0000 C   0  0  0  0  0  0  0  0  0  0  0  0
   13.9305  -14.7350    0.0000 C   0  0  0  0  0  0  0  0  0  0  0  0
   14.2649  -15.4861    0.0000 C   0  0  0  0  0  0  0  0  0  0  0  0
   15.0468  -15.7401    0.0000 C   0  0  0  0  0  0  0  0  0  0  0  0
   15.7588  -15.3291    0.0000 C   0  0  0  0  0  0  0  0  0  0  0  0
   16.4708  -15.7401    0.0000 C   0  0  0  0  0  0  0  0  0  0  0  0
   16.4708  -16.5623    0.0000 N   0  0  0  0  0  0  0  0  0  0  0  0
   17.1828  -16.9734    0.0000 C   0  0  0  0  0  0  0  0  0  0  0  0
   17.1828  -17.7955    0.0000 C   0  0  0  0  0  0  0  0  0  0  0  0
   17.8948  -18.2066    0.0000 C   0  0  0  0  0  0  0  0  0  0  0  0
   17.8948  -19.0287    0.0000 O   0  0  0  0  0  0  0  0  0  0  0  0
   17.1828  -19.4398    0.0000 C   0  0  0  0  0  0  0  0  0  0  0  0
   16.4708  -19.0287    0.0000 C   0  0  0  0  0  0  0  0  0  0  0  0
   16.4708  -18.2066    0.0000 C   0  0  0  0  0  0  0  0  0  0  0  0
   15.7588  -17.7955    0.0000 C   0  0  0  0  0  0  0  0  0  0  0  0
   15.7588  -19.4398    0.0000 C   0  0  0  0  0  0  0  0  0  0  0  0
   15.0468  -19.0287    0.0000 O   0  0  0  0  0  0  0  0  0  0  0  0
   15.7588  -20.2619    0.0000 O   0  0  0  0  0  0  0  0  0  0  0  0
   18.6067  -17.7955    0.0000 C   0  0  0  0  0  0  0  0  0  0  0  0
   15.0468  -20.6730    0.0000 C   0  0  0  0  0  0  0  0  0  0  0  0
   15.0468  -18.2066    0.0000 O   0  0  0  0  0  0  0  0  0  0  0  0
  1  2  1  0  0  0  0
  2  3  1  0  0  0  0
  3  4  1  0  0  0  0
  4  5  2  0  0  0  0
  5  6  1  0  0  0  0
  6  7  2  0  0  0  0
  7  8  1  0  0  0  0
  8  9  2  0  0  0  0
  9 10  1  0  0  0  0
 10 11  1  0  0  0  0
 11 12  1  0  0  0  0
 12 13  1  0  0  0  0
 13 14  1  0  0  0  0
 14 15  1  0  0  0  0
 15 16  1  0  0  0  0
 16 17  1  0  0  0  0
 17 18  1  0  0  0  0
 18 19  2  0  0  0  0
 19 20  1  0  0  0  0
 20 21  1  0  0  0  0
  1 21  1  0  0  0  0
  1 13  1  0  0  0  0
 15 20  1  0  0  0  0
  2 10  2  0  0  0  0
  4  9  1  0  0  0  0
 22 23  2  0  0  0  0
 22 24  1  0  0  0  0
 19 22  1  0  0  0  0
 16 25  1  0  0  0  0
 24 26  1  0  0  0  0
 21 27  1  0  0  0  0
M  END
>  <cdx:groupId>
7069

>  <cdx:fragmentId>
6981

$$$$
