393.cdx
  Mrv1902 05222410242D          

  8  7  0  0  0  0            999 V2000
    6.4223   -4.4891    0.0000 N   0  3  0  0  0  0  0  0  0  0  0  0
    7.1368   -4.0766    0.0000 C   0  0  0  0  0  0  0  0  0  0  0  0
    7.8512   -4.4891    0.0000 C   0  0  0  0  0  0  0  0  0  0  0  0
    8.5657   -4.0766    0.0000 O   0  5  0  0  0  0  0  0  0  0  0  0
    7.8512   -5.3141    0.0000 O   0  0  0  0  0  0  0  0  0  0  0  0
    6.8348   -5.2036    0.0000 C   0  0  0  0  0  0  0  0  0  0  0  0
    6.0098   -3.7746    0.0000 C   0  0  0  0  0  0  0  0  0  0  0  0
    5.7078   -4.9016    0.0000 C   0  0  0  0  0  0  0  0  0  0  0  0
  1  2  1  0  0  0  0
  2  3  1  0  0  0  0
  3  4  1  0  0  0  0
  3  5  2  0  0  0  0
  1  6  1  0  0  0  0
  1  7  1  0  0  0  0
  1  8  1  0  0  0  0
M  CHG  2   1   1   4  -1
M  END
>  <cdx:fragmentId>
3

$$$$
