39304.cdx
  Mrv1902 05222410182D          

 44 48  0  0  0  0            999 V2000
    5.1780   -6.9215    0.0000 C   0  0  0  0  0  0  0  0  0  0  0  0
    4.4612   -7.3299    0.0000 C   0  0  0  0  0  0  0  0  0  0  0  0
    4.4565   -8.1549    0.0000 C   0  0  0  0  0  0  0  0  0  0  0  0
    5.1686   -8.5715    0.0000 C   0  0  0  0  0  0  0  0  0  0  0  0
    5.8854   -8.1631    0.0000 C   0  0  0  0  0  0  0  0  0  0  0  0
    5.8901   -7.3381    0.0000 C   0  0  0  0  0  0  0  0  0  0  0  0
    6.5975   -8.5796    0.0000 C   0  0  0  0  0  0  0  0  0  0  0  0
    7.3143   -8.1712    0.0000 C   0  0  0  0  0  0  0  0  0  0  0  0
    7.3190   -7.3462    0.0000 C   0  0  0  0  0  0  0  0  0  0  0  0
    6.6069   -6.9297    0.0000 O   0  0  0  0  0  0  0  0  0  0  0  0
    8.0358   -6.9378    0.0000 C   0  0  0  0  0  0  0  0  0  0  0  0
    8.0264   -8.5878    0.0000 O   0  0  0  0  0  0  0  0  0  0  0  0
    6.5928   -9.4046    0.0000 O   0  0  0  0  0  0  0  0  0  0  0  0
    5.1639   -9.3965    0.0000 O   0  0  0  0  0  0  0  0  0  0  0  0
    3.7491   -6.9133    0.0000 O   0  0  0  0  0  0  0  0  0  0  0  0
    8.0217   -9.4128    0.0000 C   0  0  2  0  0  0  0  0  0  0  0  0
    8.7479   -7.3544    0.0000 C   0  0  0  0  0  0  0  0  0  0  0  0
    9.4648   -6.9460    0.0000 C   0  0  0  0  0  0  0  0  0  0  0  0
    9.4695   -6.1210    0.0000 C   0  0  0  0  0  0  0  0  0  0  0  0
    8.7574   -5.7044    0.0000 C   0  0  0  0  0  0  0  0  0  0  0  0
    8.0406   -6.1129    0.0000 C   0  0  0  0  0  0  0  0  0  0  0  0
   10.1863   -5.7126    0.0000 O   0  0  0  0  0  0  0  0  0  0  0  0
    8.7621   -4.8795    0.0000 O   0  0  0  0  0  0  0  0  0  0  0  0
    9.4766   -4.4670    0.0000 C   0  0  0  0  0  0  0  0  0  0  0  0
    7.3049   -9.8212    0.0000 O   0  0  0  0  0  0  0  0  0  0  0  0
    7.3002  -10.6462    0.0000 C   0  0  1  0  0  0  0  0  0  0  0  0
    8.0123  -11.0628    0.0000 C   0  0  2  0  0  0  0  0  0  0  0  0
    8.7291  -10.6544    0.0000 C   0  0  1  0  0  0  0  0  0  0  0  0
    8.7338   -9.8294    0.0000 C   0  0  1  0  0  0  0  0  0  0  0  0
    6.5833  -11.0546    0.0000 C   0  0  0  0  0  0  0  0  0  0  0  0
    6.5786  -11.8796    0.0000 O   0  0  0  0  0  0  0  0  0  0  0  0
    8.0075  -11.8878    0.0000 O   0  0  0  0  0  0  0  0  0  0  0  0
    9.4506   -9.4210    0.0000 O   0  0  0  0  0  0  0  0  0  0  0  0
    9.4412  -11.0709    0.0000 O   0  0  0  0  0  0  0  0  0  0  0  0
    9.4365  -11.8959    0.0000 C   0  0  2  0  0  0  0  0  0  0  0  0
    8.7232  -12.3105    0.0000 O   0  0  0  0  0  0  0  0  0  0  0  0
    8.7232  -13.1355    0.0000 C   0  0  2  0  0  0  0  0  0  0  0  0
    9.4365  -13.5459    0.0000 C   0  0  1  0  0  0  0  0  0  0  0  0
   10.1497  -13.1355    0.0000 C   0  0  2  0  0  0  0  0  0  0  0  0
   10.1497  -12.3105    0.0000 C   0  0  1  0  0  0  0  0  0  0  0  0
    9.4365  -14.3709    0.0000 O   0  0  0  0  0  0  0  0  0  0  0  0
   10.8639  -13.5485    0.0000 O   0  0  0  0  0  0  0  0  0  0  0  0
   10.8648  -11.8990    0.0000 O   0  0  0  0  0  0  0  0  0  0  0  0
    8.0090  -13.5485    0.0000 C   0  0  0  0  0  0  0  0  0  0  0  0
  1  2  2  0  0  0  0
  2  3  1  0  0  0  0
  3  4  2  0  0  0  0
  4  5  1  0  0  0  0
  5  6  2  0  0  0  0
  6  1  1  0  0  0  0
  5  7  1  0  0  0  0
  7  8  1  0  0  0  0
  8  9  2  0  0  0  0
  9 10  1  0  0  0  0
 10  6  1  0  0  0  0
  9 11  1  0  0  0  0
  8 12  1  0  0  0  0
  7 13  2  0  0  0  0
  4 14  1  0  0  0  0
  2 15  1  0  0  0  0
 16 12  1  1  0  0  0
 11 17  2  0  0  0  0
 17 18  1  0  0  0  0
 18 19  2  0  0  0  0
 19 20  1  0  0  0  0
 20 21  2  0  0  0  0
 21 11  1  0  0  0  0
 19 22  1  0  0  0  0
 20 23  1  0  0  0  0
 23 24  1  0  0  0  0
 16 25  1  0  0  0  0
 25 26  1  0  0  0  0
 26 27  1  0  0  0  0
 27 28  1  0  0  0  0
 28 29  1  0  0  0  0
 29 16  1  0  0  0  0
 26 30  1  1  0  0  0
 30 31  1  0  0  0  0
 27 32  1  6  0  0  0
 29 33  1  6  0  0  0
 28 34  1  1  0  0  0
 35 34  1  1  0  0  0
 35 36  1  0  0  0  0
 36 37  1  0  0  0  0
 37 38  1  0  0  0  0
 38 39  1  0  0  0  0
 39 40  1  0  0  0  0
 40 35  1  0  0  0  0
 38 41  1  1  0  0  0
 39 42  1  6  0  0  0
 40 43  1  6  0  0  0
 37 44  1  6  0  0  0
M  END
>  <cdx:fragmentId>
7759

$$$$
