39309.cdx
  Mrv1902 05222410282D          

 31 35  0  0  0  0            999 V2000
    9.6392   -8.6487    0.0000 C   0  0  0  0  0  0  0  0  0  0  0  0
    8.2521   -4.5095    0.0000 H   0  0  0  0  0  0  0  0  0  0  0  0
    6.8096   -6.9699    0.0000 H   0  0  0  0  0  0  0  0  0  0  0  0
    8.2270   -6.9844    0.0000 H   0  0  0  0  0  0  0  0  0  0  0  0
    8.9707   -4.1042    0.0000 C   0  0  0  0  0  0  0  0  0  0  0  0
    9.6476   -7.8238    0.0000 O   0  0  0  0  0  0  0  0  0  0  0  0
    8.2187   -7.8093    0.0000 O   0  0  0  0  0  0  0  0  0  0  0  0
    8.9373   -7.4041    0.0000 C   0  0  0  0  0  0  0  0  0  0  0  0
    9.6726   -5.3489    0.0000 O   0  0  0  0  0  0  0  0  0  0  0  0
    9.6642   -6.1739    0.0000 C   0  0  0  0  0  0  0  0  0  0  0  0
    8.9456   -6.5791    0.0000 C   0  0  0  0  0  0  0  0  0  0  0  0
    8.9623   -4.9292    0.0000 C   0  0  2  0  0  0  0  0  0  0  0  0
    6.8065   -6.1449    0.0000 C   0  0  2  0  0  0  0  0  0  0  0  0
    7.5168   -6.5646    0.0000 C   0  0  0  0  0  0  0  0  0  0  0  0
    8.2354   -6.1594    0.0000 C   0  0  1  0  0  0  0  0  0  0  0  0
    8.2437   -5.3344    0.0000 C   0  0  2  0  0  0  0  0  0  0  0  0
    7.5335   -4.9147    0.0000 C   0  0  0  0  0  0  0  0  0  0  0  0
    6.8149   -5.3200    0.0000 N   0  3  0  0  0  0  0  0  0  0  0  0
    6.0329   -5.0571    0.0000 C   0  0  0  0  0  0  0  0  0  0  0  0
    5.5412   -5.7196    0.0000 C   0  0  0  0  0  0  0  0  0  0  0  0
    6.0193   -6.3919    0.0000 C   0  0  2  0  0  0  0  0  0  0  0  0
    5.2322   -6.6389    0.0000 C   0  0  0  0  0  0  0  0  0  0  0  0
    5.2238   -7.4639    0.0000 N   0  0  0  0  0  0  0  0  0  0  0  0
    6.0058   -7.7267    0.0000 C   0  0  0  0  0  0  0  0  0  0  0  0
    6.4975   -7.0642    0.0000 C   0  0  0  0  0  0  0  0  0  0  0  0
    6.3338   -8.4838    0.0000 C   0  0  0  0  0  0  0  0  0  0  0  0
    7.1533   -8.5783    0.0000 C   0  0  0  0  0  0  0  0  0  0  0  0
    7.6450   -7.9158    0.0000 C   0  0  0  0  0  0  0  0  0  0  0  0
    7.3171   -7.1588    0.0000 C   0  0  0  0  0  0  0  0  0  0  0  0
    4.5697   -6.1473    0.0000 O   0  0  0  0  0  0  0  0  0  0  0  0
    6.8118   -4.4950    0.0000 O   0  5  0  0  0  0  0  0  0  0  0  0
  6  1  1  0  0  0  0
 16  2  1  1  0  0  0
 13  3  1  6  0  0  0
 15  4  1  6  0  0  0
 12  5  1  6  0  0  0
 11  8  1  0  0  0  0
  8  6  1  0  0  0  0
  8  7  2  0  0  0  0
 11 15  1  0  0  0  0
 12 16  1  0  0  0  0
 12  9  1  0  0  0  0
 10  9  1  0  0  0  0
 11 10  2  0  0  0  0
 18 13  1  0  0  0  0
 21 13  1  0  0  0  0
 14 13  1  0  0  0  0
 15 14  1  0  0  0  0
 16 15  1  0  0  0  0
 17 16  1  0  0  0  0
 18 17  1  0  0  0  0
 19 18  1  0  0  0  0
 20 19  1  0  0  0  0
 21 20  1  6  0  0  0
 21 22  1  0  0  0  0
 22 23  1  0  0  0  0
 23 24  1  0  0  0  0
 24 25  2  0  0  0  0
 25 21  1  0  0  0  0
 24 26  1  0  0  0  0
 26 27  2  0  0  0  0
 27 28  1  0  0  0  0
 28 29  2  0  0  0  0
 29 25  1  0  0  0  0
 22 30  2  0  0  0  0
 18 31  1  0  0  0  0
M  CHG  2  18   1  31  -1
M  END
>  <cdx:fragmentId>
1978

$$$$
