39305.cdx
  Mrv1902 05222410182D          

 23 25  0  0  0  0            999 V2000
    4.9397   -7.2157    0.0000 C   0  0  0  0  0  0  0  0  0  0  0  0
    4.9397   -8.0378    0.0000 C   0  0  0  0  0  0  0  0  0  0  0  0
    5.6517   -8.4489    0.0000 C   0  0  0  0  0  0  0  0  0  0  0  0
    6.3637   -8.0378    0.0000 C   0  0  0  0  0  0  0  0  0  0  0  0
    6.3637   -7.2157    0.0000 C   0  0  0  0  0  0  0  0  0  0  0  0
    5.6517   -6.8046    0.0000 C   0  0  1  0  0  0  0  0  0  0  0  0
    7.0757   -8.4489    0.0000 C   0  0  0  0  0  0  0  0  0  0  0  0
    7.7877   -8.0378    0.0000 C   0  0  0  0  0  0  0  0  0  0  0  0
    7.7877   -7.2157    0.0000 C   0  0  0  0  0  0  0  0  0  0  0  0
    7.0757   -6.8046    0.0000 C   0  0  0  0  0  0  0  0  0  0  0  0
    6.7748   -6.0396    0.0000 C   0  0  0  0  0  0  0  0  0  0  0  0
    5.9527   -6.0396    0.0000 O   0  0  0  0  0  0  0  0  0  0  0  0
    5.2407   -9.1609    0.0000 C   0  0  0  0  0  0  0  0  0  0  0  0
    6.0628   -9.1609    0.0000 C   0  0  0  0  0  0  0  0  0  0  0  0
    7.1859   -5.3276    0.0000 O   0  0  0  0  0  0  0  0  0  0  0  0
    8.4997   -6.8046    0.0000 C   0  0  0  0  0  0  0  0  0  0  0  0
    9.2117   -7.2157    0.0000 C   0  0  0  0  0  0  0  0  0  0  0  0
    9.9237   -6.8046    0.0000 C   0  0  0  0  0  0  0  0  0  0  0  0
    9.2117   -8.0378    0.0000 C   0  0  0  0  0  0  0  0  0  0  0  0
   10.6357   -7.2157    0.0000 C   0  0  0  0  0  0  0  0  0  0  0  0
    9.9237   -5.9825    0.0000 C   0  0  0  0  0  0  0  0  0  0  0  0
    9.9237   -8.4489    0.0000 O   0  0  0  0  0  0  0  0  0  0  0  0
    8.4997   -8.4489    0.0000 O   0  0  0  0  0  0  0  0  0  0  0  0
  1  2  1  0  0  0  0
  2  3  1  0  0  0  0
  3  4  1  0  0  0  0
  4  5  2  0  0  0  0
  5  6  1  0  0  0  0
  6  1  1  0  0  0  0
  4  7  1  0  0  0  0
  7  8  2  0  0  0  0
  8  9  1  0  0  0  0
  9 10  2  0  0  0  0
 10  5  1  0  0  0  0
 10 11  1  0  0  0  0
 11 12  1  0  0  0  0
  6 12  1  6  0  0  0
  3 13  1  0  0  0  0
  3 14  1  0  0  0  0
 11 15  2  0  0  0  0
  9 16  1  0  0  0  0
 16 17  2  0  0  0  0
 17 18  1  0  0  0  0
 17 19  1  0  0  0  0
 18 20  1  0  0  0  0
 18 21  1  0  0  0  0
 19 22  1  0  0  0  0
 19 23  2  0  0  0  0
M  END
>  <cdx:fragmentId>
7880

$$$$
