39308.cdx
  Mrv1902 05222410282D          

 27 31  0  0  0  0            999 V2000
    6.3449   -8.5619    0.0000 C   0  0  0  0  0  0  0  0  0  0  0  0
    6.6831   -9.3144    0.0000 C   0  0  0  0  0  0  0  0  0  0  0  0
    7.5038   -9.3978    0.0000 C   0  0  0  0  0  0  0  0  0  0  0  0
    7.9864   -8.7286    0.0000 C   0  0  0  0  0  0  0  0  0  0  0  0
    7.6482   -7.9761    0.0000 C   0  0  0  0  0  0  0  0  0  0  0  0
    6.8275   -7.8928    0.0000 C   0  0  0  0  0  0  0  0  0  0  0  0
    6.3402   -7.2270    0.0000 C   0  0  0  0  0  0  0  0  0  0  0  0
    5.5565   -7.4847    0.0000 C   0  0  0  0  0  0  0  0  0  0  0  0
    5.5594   -8.3097    0.0000 N   0  0  0  0  0  0  0  0  0  0  0  0
    7.1239   -6.9694    0.0000 C   0  0  1  0  0  0  0  0  0  0  0  0
    7.1210   -6.1444    0.0000 N   0  0  0  0  0  0  0  0  0  0  0  0
    6.3355   -5.8922    0.0000 C   0  0  0  0  0  0  0  0  0  0  0  0
    5.8529   -6.5613    0.0000 C   0  0  0  0  0  0  0  0  0  0  0  0
    7.8398   -7.3794    0.0000 C   0  0  0  0  0  0  0  0  0  0  0  0
    8.5529   -6.9644    0.0000 C   0  0  1  0  0  0  0  0  0  0  0  0
    8.5500   -6.1394    0.0000 C   0  0  2  0  0  0  0  0  0  0  0  0
    7.8341   -5.7294    0.0000 C   0  0  0  0  0  0  0  0  0  0  0  0
    9.2688   -7.3744    0.0000 C   0  0  0  0  0  0  0  0  0  0  0  0
    9.9818   -6.9594    0.0000 C   0  0  0  0  0  0  0  0  0  0  0  0
    9.9789   -6.1344    0.0000 O   0  0  0  0  0  0  0  0  0  0  0  0
    9.2630   -5.7244    0.0000 C   0  0  1  0  0  0  0  0  0  0  0  0
    9.2601   -4.8994    0.0000 C   0  0  0  0  0  0  0  0  0  0  0  0
    4.8873   -7.0021    0.0000 O   0  0  0  0  0  0  0  0  0  0  0  0
   10.6977   -7.3693    0.0000 O   0  0  0  0  0  0  0  0  0  0  0  0
    8.5471   -5.3144    0.0000 H   0  0  0  0  0  0  0  0  0  0  0  0
    8.5557   -7.7894    0.0000 H   0  0  0  0  0  0  0  0  0  0  0  0
    7.1268   -7.7944    0.0000 H   0  0  0  0  0  0  0  0  0  0  0  0
  1  2  2  0  0  0  0
  2  3  1  0  0  0  0
  3  4  2  0  0  0  0
  4  5  1  0  0  0  0
  5  6  2  0  0  0  0
  6  1  1  0  0  0  0
  6  7  1  0  0  0  0
  7  8  1  0  0  0  0
  8  9  1  0  0  0  0
  9  1  1  0  0  0  0
  7 10  1  0  0  0  0
 10 11  1  0  0  0  0
 11 12  1  0  0  0  0
 12 13  1  0  0  0  0
 13  7  1  0  0  0  0
 10 14  1  0  0  0  0
 14 15  1  0  0  0  0
 15 16  1  0  0  0  0
 16 17  1  0  0  0  0
 17 11  1  0  0  0  0
 15 18  1  0  0  0  0
 18 19  1  0  0  0  0
 19 20  1  0  0  0  0
 20 21  1  0  0  0  0
 21 16  1  0  0  0  0
 21 22  1  6  0  0  0
  8 23  2  0  0  0  0
 19 24  1  0  0  0  0
 16 25  1  1  0  0  0
 15 26  1  6  0  0  0
 10 27  1  6  0  0  0
M  END
>  <cdx:fragmentId>
8063

$$$$
