39315.cdx
  Mrv1902 05222410202D          

 54 59  0  0  0  0            999 V2000
    3.7726   -9.2897    0.0000 O   0  0  0  0  0  0  0  0  0  0  0  0
    3.0585   -8.8766    0.0000 C   0  0  1  0  0  0  0  0  0  0  0  0
    2.3437   -9.2885    0.0000 C   0  0  1  0  0  0  0  0  0  0  0  0
    1.6296   -8.8754    0.0000 C   0  0  2  0  0  0  0  0  0  0  0  0
    1.6302   -8.0504    0.0000 C   0  0  1  0  0  0  0  0  0  0  0  0
    2.3451   -7.6385    0.0000 C   0  0  2  0  0  0  0  0  0  0  0  0
    3.0592   -8.0516    0.0000 O   0  0  0  0  0  0  0  0  0  0  0  0
    1.6316   -6.4004    0.0000 O   0  0  0  0  0  0  0  0  0  0  0  0
    0.9161   -7.6374    0.0000 O   0  0  0  0  0  0  0  0  0  0  0  0
    0.9147   -9.2874    0.0000 O   0  0  0  0  0  0  0  0  0  0  0  0
    2.3430  -10.1135    0.0000 O   0  0  0  0  0  0  0  0  0  0  0  0
    3.7726   -6.8147    0.0000 O   0  0  0  0  0  0  0  0  0  0  0  0
    4.4871   -6.4022    0.0000 C   0  0  1  0  0  0  0  0  0  0  0  0
    4.4871   -5.5772    0.0000 C   0  0  1  0  0  0  0  0  0  0  0  0
    5.2016   -5.1647    0.0000 C   0  0  1  0  0  0  0  0  0  0  0  0
    5.9160   -5.5772    0.0000 C   0  0  2  0  0  0  0  0  0  0  0  0
    5.9160   -6.4022    0.0000 C   0  0  1  0  0  0  0  0  0  0  0  0
    5.2016   -6.8147    0.0000 O   0  0  0  0  0  0  0  0  0  0  0  0
    6.6305   -6.8147    0.0000 C   0  0  0  0  0  0  0  0  0  0  0  0
    6.6305   -5.1647    0.0000 O   0  0  0  0  0  0  0  0  0  0  0  0
    5.2016   -4.3397    0.0000 O   0  0  0  0  0  0  0  0  0  0  0  0
    3.7726   -5.1647    0.0000 O   0  0  0  0  0  0  0  0  0  0  0  0
    6.6305   -9.2897    0.0000 O   0  0  0  0  0  0  0  0  0  0  0  0
    5.2016  -10.1147    0.0000 O   0  0  0  0  0  0  0  0  0  0  0  0
    2.3457   -6.8135    0.0000 C   0  0  0  0  0  0  0  0  0  0  0  0
    3.7726   -7.6397    0.0000 C   0  0  0  0  0  0  0  0  0  0  0  0
    5.2016   -7.6397    0.0000 O   0  0  0  0  0  0  0  0  0  0  0  0
    4.4871   -8.0522    0.0000 C   0  0  1  0  0  0  0  0  0  0  0  0
    4.4871   -8.8772    0.0000 C   0  0  2  0  0  0  0  0  0  0  0  0
    5.2016   -9.2897    0.0000 C   0  0  1  0  0  0  0  0  0  0  0  0
    5.9160   -8.8772    0.0000 C   0  0  2  0  0  0  0  0  0  0  0  0
    5.9160   -8.0522    0.0000 C   0  0  2  0  0  0  0  0  0  0  0  0
    6.6305   -7.6397    0.0000 O   0  0  0  0  0  0  0  0  0  0  0  0
    8.0595  -10.1147    0.0000 O   0  0  0  0  0  0  0  0  0  0  0  0
   13.0608   -8.0522    0.0000 O   0  0  0  0  0  0  0  0  0  0  0  0
   13.7752   -6.8147    0.0000 C   0  0  0  0  0  0  0  0  0  0  0  0
   13.0608   -6.4022    0.0000 O   0  0  0  0  0  0  0  0  0  0  0  0
   10.9173   -6.8147    0.0000 C   0  0  0  0  0  0  0  0  0  0  0  0
   11.6318   -6.4022    0.0000 C   0  0  0  0  0  0  0  0  0  0  0  0
   12.3463   -6.8147    0.0000 C   0  0  0  0  0  0  0  0  0  0  0  0
   12.3463   -7.6397    0.0000 C   0  0  0  0  0  0  0  0  0  0  0  0
   11.6318   -8.0522    0.0000 C   0  0  0  0  0  0  0  0  0  0  0  0
   10.9173   -7.6397    0.0000 C   0  0  0  0  0  0  0  0  0  0  0  0
    9.4884  -10.1147    0.0000 O   0  0  0  0  0  0  0  0  0  0  0  0
    9.4884   -7.6397    0.0000 O   0  0  0  0  0  0  0  0  0  0  0  0
    8.7739   -8.0522    0.0000 C   0  0  0  0  0  0  0  0  0  0  0  0
    8.0595   -7.6397    0.0000 C   0  0  0  0  0  0  0  0  0  0  0  0
    7.3450   -8.0522    0.0000 C   0  0  0  0  0  0  0  0  0  0  0  0
    7.3450   -8.8772    0.0000 C   0  0  0  0  0  0  0  0  0  0  0  0
    8.0595   -9.2897    0.0000 C   0  0  0  0  0  0  0  0  0  0  0  0
    8.7739   -8.8772    0.0000 C   0  0  0  0  0  0  0  0  0  0  0  0
    9.4884   -9.2897    0.0000 C   0  0  0  0  0  0  0  0  0  0  0  0
   10.2029   -8.8772    0.0000 C   0  0  0  0  0  0  0  0  0  0  0  0
   10.2029   -8.0522    0.0000 C   0  0  1  0  0  0  0  0  0  0  0  0
 48 33  1  0  0  0  0
 32 33  1  1  0  0  0
 31 23  1  6  0  0  0
 30 24  1  1  0  0  0
 29  1  1  6  0  0  0
 25  8  1  0  0  0  0
 28 26  1  1  0  0  0
 26 12  1  0  0  0  0
 32 27  1  0  0  0  0
 28 27  1  0  0  0  0
 29 28  1  0  0  0  0
 30 29  1  0  0  0  0
 31 30  1  0  0  0  0
 32 31  1  0  0  0  0
 50 34  1  0  0  0  0
 54 43  1  6  0  0  0
 41 35  1  0  0  0  0
 40 37  1  0  0  0  0
 37 36  1  0  0  0  0
 43 38  2  0  0  0  0
 39 38  1  0  0  0  0
 40 39  2  0  0  0  0
 41 40  1  0  0  0  0
 42 41  2  0  0  0  0
 43 42  1  0  0  0  0
 52 44  2  0  0  0  0
 54 45  1  0  0  0  0
 46 45  1  0  0  0  0
 51 46  2  0  0  0  0
 47 46  1  0  0  0  0
 48 47  2  0  0  0  0
 49 48  1  0  0  0  0
 50 49  2  0  0  0  0
 51 50  1  0  0  0  0
 52 51  1  0  0  0  0
 53 52  1  0  0  0  0
 54 53  1  0  0  0  0
  2  3  1  0  0  0  0
  3  4  1  0  0  0  0
  4  5  1  0  0  0  0
  5  6  1  0  0  0  0
  6  7  1  0  0  0  0
  2  7  1  0  0  0  0
  6 25  1  1  0  0  0
  5  9  1  6  0  0  0
  4 10  1  1  0  0  0
  3 11  1  6  0  0  0
  2  1  1  1  0  0  0
 13 14  1  0  0  0  0
 14 15  1  0  0  0  0
 15 16  1  0  0  0  0
 16 17  1  0  0  0  0
 17 18  1  0  0  0  0
 13 18  1  0  0  0  0
 17 19  1  6  0  0  0
 16 20  1  1  0  0  0
 15 21  1  6  0  0  0
 14 22  1  6  0  0  0
 13 12  1  1  0  0  0
M  END
>  <cdx:fragmentId>
65

$$$$
