39313.cdx
  Mrv1902 05222410192D          

 25 24  0  0  0  0            999 V2000
   15.2650   -4.2361    0.0000 C   0  0  0  0  0  0  0  0  0  0  0  0
   14.5505   -4.6486    0.0000 C   0  0  0  0  0  0  0  0  0  0  0  0
   13.8361   -4.2361    0.0000 C   0  0  0  0  0  0  0  0  0  0  0  0
   13.1216   -4.6486    0.0000 C   0  0  0  0  0  0  0  0  0  0  0  0
   12.4071   -4.2361    0.0000 C   0  0  0  0  0  0  0  0  0  0  0  0
   11.6926   -4.6486    0.0000 C   0  0  0  0  0  0  0  0  0  0  0  0
   10.9782   -4.2361    0.0000 C   0  0  0  0  0  0  0  0  0  0  0  0
   10.2637   -4.6486    0.0000 C   0  0  0  0  0  0  0  0  0  0  0  0
    9.5492   -4.2361    0.0000 C   0  0  0  0  0  0  0  0  0  0  0  0
    8.8348   -4.6486    0.0000 C   0  0  0  0  0  0  0  0  0  0  0  0
    8.1203   -4.2361    0.0000 C   0  0  0  0  0  0  0  0  0  0  0  0
    7.4058   -4.6486    0.0000 C   0  0  0  0  0  0  0  0  0  0  0  0
    6.6913   -4.2361    0.0000 C   0  0  0  0  0  0  0  0  0  0  0  0
    5.9769   -4.6486    0.0000 C   0  0  0  0  0  0  0  0  0  0  0  0
    5.2624   -4.2361    0.0000 C   0  0  0  0  0  0  0  0  0  0  0  0
    4.5479   -4.6486    0.0000 C   0  0  0  0  0  0  0  0  0  0  0  0
    3.8335   -4.2361    0.0000 C   0  0  0  0  0  0  0  0  0  0  0  0
    3.1190   -4.6486    0.0000 C   0  0  0  0  0  0  0  0  0  0  0  0
   15.2650   -3.4111    0.0000 O   0  0  0  0  0  0  0  0  0  0  0  0
   15.9795   -4.6486    0.0000 O   0  0  0  0  0  0  0  0  0  0  0  0
   16.6939   -4.2361    0.0000 C   0  0  0  0  0  0  0  0  0  0  0  0
   17.4084   -4.6486    0.0000 C   0  0  0  0  0  0  0  0  0  0  0  0
   18.1229   -4.2361    0.0000 C   0  0  0  0  0  0  0  0  0  0  0  0
   18.8374   -4.6486    0.0000 O   0  0  0  0  0  0  0  0  0  0  0  0
   17.4084   -5.4736    0.0000 O   0  0  0  0  0  0  0  0  0  0  0  0
  1  2  1  0  0  0  0
  2  3  1  0  0  0  0
  3  4  1  0  0  0  0
  4  5  1  0  0  0  0
  5  6  1  0  0  0  0
  6  7  1  0  0  0  0
  7  8  1  0  0  0  0
  8  9  1  0  0  0  0
  9 10  2  0  0  0  0
 10 11  1  0  0  0  0
 11 12  1  0  0  0  0
 12 13  1  0  0  0  0
 13 14  1  0  0  0  0
 14 15  1  0  0  0  0
 15 16  1  0  0  0  0
 16 17  1  0  0  0  0
 17 18  1  0  0  0  0
  1 19  2  0  0  0  0
  1 20  1  0  0  0  0
 21 22  1  0  0  0  0
 22 23  1  0  0  0  0
 23 24  1  0  0  0  0
 22 25  1  0  0  0  0
 20 21  1  0  0  0  0
M  END
>  <cdx:groupId>
76

>  <cdx:fragmentId>
77

$$$$
