1821.cdx
  Mrv1902 05222410282D          

 36 37  0  0  0  0            999 V2000
    6.4588  -11.1638    0.0000 C   0  0  0  0  0  0  0  0  0  0  0  0
    6.4588  -10.3388    0.0000 C   0  0  1  0  0  0  0  0  0  0  0  0
    7.1733   -9.9263    0.0000 C   0  0  2  0  0  0  0  0  0  0  0  0
    7.8877  -10.3388    0.0000 C   0  0  1  0  0  0  0  0  0  0  0  0
    7.8877  -11.1638    0.0000 O   0  0  0  0  0  0  0  0  0  0  0  0
    8.6022   -9.9263    0.0000 C   0  0  2  0  0  0  0  0  0  0  0  0
    8.6022   -9.1013    0.0000 O   0  0  0  0  0  0  0  0  0  0  0  0
    9.3167  -10.3388    0.0000 C   0  0  0  0  0  0  0  0  0  0  0  0
    5.7443  -11.5763    0.0000 O   0  0  0  0  0  0  0  0  0  0  0  0
    7.1733  -11.5763    0.0000 O   0  0  0  0  0  0  0  0  0  0  0  0
    9.3167  -11.1638    0.0000 O   0  0  0  0  0  0  0  0  0  0  0  0
   10.0312   -9.9263    0.0000 O   0  0  0  0  0  0  0  0  0  0  0  0
    5.0299  -10.3388    0.0000 C   0  0  0  0  0  0  0  0  0  0  0  0
    4.3154   -9.9263    0.0000 C   0  0  0  0  0  0  0  0  0  0  0  0
    3.6009  -10.3388    0.0000 C   0  0  0  0  0  0  0  0  0  0  0  0
    2.8864   -9.9263    0.0000 C   0  0  0  0  0  0  0  0  0  0  0  0
    2.1720  -10.3388    0.0000 O   0  0  0  0  0  0  0  0  0  0  0  0
    2.8864   -9.1013    0.0000 C   0  0  0  0  0  0  0  0  0  0  0  0
    2.1720   -8.6888    0.0000 O   0  0  0  0  0  0  0  0  0  0  0  0
    3.6009   -8.6888    0.0000 C   0  0  0  0  0  0  0  0  0  0  0  0
    3.6009   -7.8638    0.0000 O   0  0  0  0  0  0  0  0  0  0  0  0
    4.3154   -9.1013    0.0000 C   0  0  0  0  0  0  0  0  0  0  0  0
    5.0299  -11.1638    0.0000 O   0  0  0  0  0  0  0  0  0  0  0  0
    5.7443   -9.9263    0.0000 O   0  0  0  0  0  0  0  0  0  0  0  0
    6.4588   -8.6888    0.0000 C   0  0  0  0  0  0  0  0  0  0  0  0
    6.4588   -7.8638    0.0000 C   0  0  0  0  0  0  0  0  0  0  0  0
    7.1733   -7.4513    0.0000 C   0  0  0  0  0  0  0  0  0  0  0  0
    7.1733   -6.6263    0.0000 C   0  0  0  0  0  0  0  0  0  0  0  0
    7.8877   -6.2138    0.0000 O   0  0  0  0  0  0  0  0  0  0  0  0
    6.4588   -6.2138    0.0000 C   0  0  0  0  0  0  0  0  0  0  0  0
    6.4588   -5.3888    0.0000 O   0  0  0  0  0  0  0  0  0  0  0  0
    5.7443   -6.6263    0.0000 C   0  0  0  0  0  0  0  0  0  0  0  0
    5.0299   -6.2138    0.0000 O   0  0  0  0  0  0  0  0  0  0  0  0
    5.7443   -7.4513    0.0000 C   0  0  0  0  0  0  0  0  0  0  0  0
    5.7443   -9.1013    0.0000 O   0  0  0  0  0  0  0  0  0  0  0  0
    7.1733   -9.1013    0.0000 O   0  0  0  0  0  0  0  0  0  0  0  0
  2  1  1  6  0  0  0
  2  3  1  0  0  0  0
  3  4  1  0  0  0  0
  4  5  1  6  0  0  0
  4  6  1  0  0  0  0
  6  7  1  6  0  0  0
  6  8  1  0  0  0  0
  1  9  2  0  0  0  0
  1 10  1  0  0  0  0
  8 11  2  0  0  0  0
  8 12  1  0  0  0  0
 13 14  1  0  0  0  0
 14 15  1  0  0  0  0
 15 16  2  0  0  0  0
 16 17  1  0  0  0  0
 16 18  1  0  0  0  0
 18 19  1  0  0  0  0
 18 20  2  0  0  0  0
 20 21  1  0  0  0  0
 20 22  1  0  0  0  0
 14 22  2  0  0  0  0
 13 23  2  0  0  0  0
 13 24  1  0  0  0  0
  2 24  1  0  0  0  0
 25 26  1  0  0  0  0
 26 27  1  0  0  0  0
 27 28  2  0  0  0  0
 28 29  1  0  0  0  0
 28 30  1  0  0  0  0
 30 31  1  0  0  0  0
 30 32  2  0  0  0  0
 32 33  1  0  0  0  0
 32 34  1  0  0  0  0
 26 34  2  0  0  0  0
 25 35  2  0  0  0  0
 25 36  1  0  0  0  0
  3 36  1  1  0  0  0
M  END
>  <cdx:groupId>
557

>  <cdx:fragmentId>
475

$$$$
