39320.cdx
  Mrv1902 05222410282D          

 30 32  0  0  0  0            999 V2000
    5.2302   -7.3925    0.0000 O   0  0  0  0  0  0  0  0  0  0  0  0
    5.9566   -8.6173    0.0000 O   0  0  0  0  0  0  0  0  0  0  0  0
   10.2636   -9.6182    0.0000 O   0  0  0  0  0  0  0  0  0  0  0  0
    9.9948  -10.9918    0.0000 O   0  0  0  0  0  0  0  0  0  0  0  0
    9.4537   -3.2321    0.0000 O   0  0  0  0  0  0  0  0  0  0  0  0
    8.0298   -3.2488    0.0000 O   0  0  0  0  0  0  0  0  0  0  0  0
    8.7466   -3.6514    0.0000 C   0  0  0  0  0  0  0  0  0  0  0  0
   10.0903  -11.8084    0.0000 O   0  0  0  0  0  0  0  0  0  0  0  0
    9.4826   -5.6983    0.0000 C   0  0  0  0  0  0  0  0  0  0  0  0
    9.4730   -4.8762    0.0000 C   0  0  0  0  0  0  0  0  0  0  0  0
    8.7562   -4.4735    0.0000 C   0  0  0  0  0  0  0  0  0  0  0  0
    8.0491   -4.8929    0.0000 C   0  0  0  0  0  0  0  0  0  0  0  0
    8.0587   -5.7150    0.0000 C   0  0  0  0  0  0  0  0  0  0  0  0
    8.7755   -6.1177    0.0000 C   0  0  0  0  0  0  0  0  0  0  0  0
    8.7851   -6.9398    0.0000 O   0  0  0  0  0  0  0  0  0  0  0  0
    5.9373   -6.9731    0.0000 C   0  0  0  0  0  0  0  0  0  0  0  0
    7.3901   -9.4227    0.0000 O   0  0  0  0  0  0  0  0  0  0  0  0
    8.0780   -7.3592    0.0000 C   0  0  2  0  0  0  0  0  0  0  0  0
    7.3612   -6.9565    0.0000 O   0  0  0  0  0  0  0  0  0  0  0  0
    6.6541   -7.3758    0.0000 C   0  0  1  0  0  0  0  0  0  0  0  0
    6.6637   -8.1979    0.0000 C   0  0  2  0  0  0  0  0  0  0  0  0
    7.3805   -8.6006    0.0000 C   0  0  1  0  0  0  0  0  0  0  0  0
    8.0876   -8.1812    0.0000 C   0  0  1  0  0  0  0  0  0  0  0  0
    8.8044   -8.5839    0.0000 O   0  0  0  0  0  0  0  0  0  0  0  0
    9.3354  -11.4828    0.0000 C   0  0  0  0  0  0  0  0  0  0  0  0
    9.4847   -9.8814    0.0000 C   0  0  1  0  0  0  0  0  0  0  0  0
    8.8140   -9.4060    0.0000 C   0  0  1  0  0  0  0  0  0  0  0  0
    8.1546   -9.8970    0.0000 O   0  0  0  0  0  0  0  0  0  0  0  0
    8.4178  -10.6759    0.0000 C   0  0  0  0  0  0  0  0  0  0  0  0
    9.2399  -10.6662    0.0000 C   0  0  1  0  0  0  0  0  0  0  0  0
 16  1  1  0  0  0  0
 21  2  1  6  0  0  0
 26  3  1  6  0  0  0
 30  4  1  6  0  0  0
  7  5  2  0  0  0  0
  7  6  1  0  0  0  0
 11  7  1  0  0  0  0
 25  8  1  0  0  0  0
  9 14  1  0  0  0  0
 10  9  2  0  0  0  0
 11 10  1  0  0  0  0
 12 11  2  0  0  0  0
 13 12  1  0  0  0  0
 14 13  2  0  0  0  0
 15 14  1  0  0  0  0
 18 15  1  1  0  0  0
 20 16  1  1  0  0  0
 22 17  1  1  0  0  0
 18 23  1  0  0  0  0
 19 18  1  0  0  0  0
 20 19  1  0  0  0  0
 21 20  1  0  0  0  0
 22 21  1  0  0  0  0
 23 22  1  0  0  0  0
 23 24  1  6  0  0  0
 27 24  1  1  0  0  0
 30 25  1  1  0  0  0
 26 30  1  0  0  0  0
 27 26  1  0  0  0  0
 28 27  1  0  0  0  0
 29 28  1  0  0  0  0
 30 29  1  0  0  0  0
M  END
>  <cdx:fragmentId>
369

$$$$
