39327.cdx
  Mrv1902 05222410272D          

 25 26  0  0  0  0            999 V2000
    7.0955   -4.0150    0.0000 C   0  0  0  0  0  0  0  0  0  0  0  0
    7.0955   -4.8400    0.0000 C   0  0  0  0  0  0  0  0  0  0  0  0
    7.8100   -5.2525    0.0000 C   0  0  0  0  0  0  0  0  0  0  0  0
    8.5245   -4.8400    0.0000 C   0  0  0  0  0  0  0  0  0  0  0  0
    8.5245   -4.0150    0.0000 C   0  0  0  0  0  0  0  0  0  0  0  0
    7.8100   -3.6025    0.0000 C   0  0  0  0  0  0  0  0  0  0  0  0
    7.8100   -2.7775    0.0000 O   0  0  0  0  0  0  0  0  0  0  0  0
    9.2389   -3.6025    0.0000 O   0  0  0  0  0  0  0  0  0  0  0  0
    9.2389   -5.2525    0.0000 O   0  0  0  0  0  0  0  0  0  0  0  0
    6.3811   -5.2525    0.0000 C   0  0  0  0  0  0  0  0  0  0  0  0
    5.6666   -4.8400    0.0000 O   0  0  0  0  0  0  0  0  0  0  0  0
    6.3811   -6.0775    0.0000 O   0  0  0  0  0  0  0  0  0  0  0  0
    5.6666   -6.4900    0.0000 C   0  0  0  0  0  0  0  0  0  0  0  0
    4.9521   -6.0775    0.0000 C   0  0  0  0  0  0  0  0  0  0  0  0
    5.6666   -7.3150    0.0000 C   0  0  0  0  0  0  0  0  0  0  0  0
    4.9991   -7.7999    0.0000 C   0  0  0  0  0  0  0  0  0  0  0  0
    5.2541   -8.5845    0.0000 C   0  0  0  0  0  0  0  0  0  0  0  0
    6.0791   -8.5845    0.0000 C   0  0  0  0  0  0  0  0  0  0  0  0
    6.3340   -7.7999    0.0000 O   0  0  0  0  0  0  0  0  0  0  0  0
    6.5640   -9.2520    0.0000 O   0  0  0  0  0  0  0  0  0  0  0  0
    4.2376   -6.4900    0.0000 O   0  0  0  0  0  0  0  0  0  0  0  0
    4.9521   -5.2525    0.0000 O   0  0  0  0  0  0  0  0  0  0  0  0
    4.7692   -9.2520    0.0000 O   0  0  0  0  0  0  0  0  0  0  0  0
    4.2145   -7.5450    0.0000 O   0  0  0  0  0  0  0  0  0  0  0  0
    3.5232   -6.0775    0.0000 C   0  0  0  0  0  0  0  0  0  0  0  0
  1  2  2  0  0  0  0
  2  3  1  0  0  0  0
  3  4  2  0  0  0  0
  4  5  1  0  0  0  0
  5  6  2  0  0  0  0
  6  1  1  0  0  0  0
  6  7  1  0  0  0  0
  5  8  1  0  0  0  0
  4  9  1  0  0  0  0
  2 10  1  0  0  0  0
 10 11  2  0  0  0  0
 10 12  1  0  0  0  0
 12 13  1  0  0  0  0
 13 14  1  0  0  0  0
 13 15  1  0  0  0  0
 15 16  1  0  0  0  0
 16 17  1  0  0  0  0
 17 18  1  0  0  0  0
 18 19  1  0  0  0  0
 19 15  1  0  0  0  0
 18 20  2  0  0  0  0
 14 21  1  0  0  0  0
 14 22  2  0  0  0  0
 17 23  1  0  0  0  0
 16 24  1  0  0  0  0
 21 25  1  0  0  0  0
M  END
>  <cdx:fragmentId>
2254

$$$$
