39325.cdx
  Mrv1902 05222410262D          

 35 37  0  0  0  0            999 V2000
    9.6255   -3.4925    0.0000 C   0  0  0  0  0  0  0  0  0  0  0  0
    9.6255   -4.3175    0.0000 C   0  0  0  0  0  0  0  0  0  0  0  0
   10.3400   -4.7300    0.0000 C   0  0  0  0  0  0  0  0  0  0  0  0
   11.0545   -4.3175    0.0000 C   0  0  0  0  0  0  0  0  0  0  0  0
   11.0545   -3.4925    0.0000 C   0  0  0  0  0  0  0  0  0  0  0  0
   10.3400   -3.0800    0.0000 C   0  0  0  0  0  0  0  0  0  0  0  0
   10.3400   -2.2550    0.0000 O   0  0  0  0  0  0  0  0  0  0  0  0
   11.7689   -3.0800    0.0000 O   0  0  0  0  0  0  0  0  0  0  0  0
   11.7689   -4.7300    0.0000 O   0  0  0  0  0  0  0  0  0  0  0  0
    8.9111   -4.7300    0.0000 C   0  0  0  0  0  0  0  0  0  0  0  0
    8.1966   -4.3175    0.0000 O   0  0  0  0  0  0  0  0  0  0  0  0
    8.9111   -5.5550    0.0000 O   0  0  0  0  0  0  0  0  0  0  0  0
    8.1966   -5.9675    0.0000 C   0  0  0  0  0  0  0  0  0  0  0  0
    7.4821   -5.5550    0.0000 C   0  0  0  0  0  0  0  0  0  0  0  0
    8.1966   -6.7925    0.0000 C   0  0  0  0  0  0  0  0  0  0  0  0
    7.5291   -7.2774    0.0000 C   0  0  0  0  0  0  0  0  0  0  0  0
    7.7841   -8.0620    0.0000 C   0  0  0  0  0  0  0  0  0  0  0  0
    8.6091   -8.0620    0.0000 C   0  0  0  0  0  0  0  0  0  0  0  0
    8.8640   -7.2774    0.0000 O   0  0  0  0  0  0  0  0  0  0  0  0
    9.0940   -8.7295    0.0000 O   0  0  0  0  0  0  0  0  0  0  0  0
    6.7676   -5.9675    0.0000 O   0  0  0  0  0  0  0  0  0  0  0  0
    7.4821   -4.7300    0.0000 O   0  0  0  0  0  0  0  0  0  0  0  0
    7.2992   -8.7295    0.0000 O   0  0  0  0  0  0  0  0  0  0  0  0
    6.7445   -7.0225    0.0000 O   0  0  0  0  0  0  0  0  0  0  0  0
    6.1314   -7.5745    0.0000 C   0  0  0  0  0  0  0  0  0  0  0  0
    5.3468   -7.3196    0.0000 C   0  0  0  0  0  0  0  0  0  0  0  0
    6.3030   -8.3815    0.0000 O   0  0  0  0  0  0  0  0  0  0  0  0
    5.1753   -6.5126    0.0000 C   0  0  0  0  0  0  0  0  0  0  0  0
    4.3907   -6.2577    0.0000 C   0  0  0  0  0  0  0  0  0  0  0  0
    3.7776   -6.8097    0.0000 C   0  0  0  0  0  0  0  0  0  0  0  0
    3.9491   -7.6167    0.0000 C   0  0  0  0  0  0  0  0  0  0  0  0
    4.7337   -7.8716    0.0000 C   0  0  0  0  0  0  0  0  0  0  0  0
    4.2191   -5.4507    0.0000 O   0  0  0  0  0  0  0  0  0  0  0  0
    2.9929   -6.5548    0.0000 O   0  0  0  0  0  0  0  0  0  0  0  0
    3.3360   -8.1687    0.0000 O   0  0  0  0  0  0  0  0  0  0  0  0
  1  2  2  0  0  0  0
  2  3  1  0  0  0  0
  3  4  2  0  0  0  0
  4  5  1  0  0  0  0
  5  6  2  0  0  0  0
  6  1  1  0  0  0  0
  6  7  1  0  0  0  0
  5  8  1  0  0  0  0
  4  9  1  0  0  0  0
  2 10  1  0  0  0  0
 10 11  2  0  0  0  0
 10 12  1  0  0  0  0
 12 13  1  0  0  0  0
 13 14  1  0  0  0  0
 13 15  1  0  0  0  0
 15 16  1  0  0  0  0
 16 17  1  0  0  0  0
 17 18  1  0  0  0  0
 18 19  1  0  0  0  0
 19 15  1  0  0  0  0
 18 20  2  0  0  0  0
 14 21  1  0  0  0  0
 14 22  2  0  0  0  0
 17 23  1  0  0  0  0
 16 24  1  0  0  0  0
 24 25  1  0  0  0  0
 25 26  1  0  0  0  0
 25 27  2  0  0  0  0
 26 28  2  0  0  0  0
 28 29  1  0  0  0  0
 29 30  2  0  0  0  0
 30 31  1  0  0  0  0
 31 32  2  0  0  0  0
 32 26  1  0  0  0  0
 29 33  1  0  0  0  0
 30 34  1  0  0  0  0
 31 35  1  0  0  0  0
M  END
>  <cdx:fragmentId>
2254

$$$$
