1824.cdx
  Mrv1902 05222410262D          

 13 13  0  0  0  0            999 V2000
    5.1418   -9.3934    0.0000 C   0  0  0  0  0  0  0  0  0  0  0  0
    5.9668   -9.3934    0.0000 C   0  0  1  0  0  0  0  0  0  0  0  0
    6.6813   -9.8059    0.0000 C   0  0  1  0  0  0  0  0  0  0  0  0
    6.6813  -10.6309    0.0000 O   0  0  0  0  0  0  0  0  0  0  0  0
    7.3957   -9.3934    0.0000 C   0  0  1  0  0  0  0  0  0  0  0  0
    7.3957   -8.5684    0.0000 O   0  0  0  0  0  0  0  0  0  0  0  0
    8.1102   -9.8059    0.0000 C   0  0  2  0  0  0  0  0  0  0  0  0
    8.1102  -10.6309    0.0000 O   0  0  0  0  0  0  0  0  0  0  0  0
    8.8247   -9.3934    0.0000 C   0  0  0  0  0  0  0  0  0  0  0  0
    4.4273   -9.8059    0.0000 O   0  0  0  0  0  0  0  0  0  0  0  0
    5.5543   -8.6790    0.0000 O   0  0  0  0  0  0  0  0  0  0  0  0
    8.8247   -8.5684    0.0000 O   0  0  0  0  0  0  0  0  0  0  0  0
    9.5391   -9.8059    0.0000 O   0  0  0  0  0  0  0  0  0  0  0  0
  1  2  1  0  0  0  0
  2  3  1  0  0  0  0
  3  4  1  6  0  0  0
  3  5  1  0  0  0  0
  5  6  1  1  0  0  0
  5  7  1  0  0  0  0
  7  8  1  1  0  0  0
  7  9  1  0  0  0  0
  1 10  2  0  0  0  0
  1 11  1  0  0  0  0
  9 12  2  0  0  0  0
  9 13  1  0  0  0  0
  2 11  1  6  0  0  0
M  END
>  <cdx:groupId>
785

>  <cdx:fragmentId>
749

$$$$
