1828.cdx
  Mrv1902 05222410202D          

 37 38  0  0  0  0            999 V2000
   15.8260  -12.7278    0.0000 C   0  0  0  0  0  0  0  0  0  0  0  0
   15.8260  -11.9028    0.0000 C   0  0  1  0  0  0  0  0  0  0  0  0
   16.5405  -11.4903    0.0000 C   0  0  2  0  0  0  0  0  0  0  0  0
   17.2549  -11.9028    0.0000 C   0  0  1  0  0  0  0  0  0  0  0  0
   17.2549  -12.7278    0.0000 O   0  0  0  0  0  0  0  0  0  0  0  0
   17.9694  -11.4903    0.0000 C   0  0  2  0  0  0  0  0  0  0  0  0
   17.9694  -10.6653    0.0000 O   0  0  0  0  0  0  0  0  0  0  0  0
   18.6839  -11.9028    0.0000 C   0  0  0  0  0  0  0  0  0  0  0  0
   15.1115  -13.1403    0.0000 O   0  0  0  0  0  0  0  0  0  0  0  0
   16.5405  -13.1403    0.0000 O   0  0  0  0  0  0  0  0  0  0  0  0
   18.6839  -12.7278    0.0000 O   0  0  0  0  0  0  0  0  0  0  0  0
   19.3983  -11.4903    0.0000 O   0  0  0  0  0  0  0  0  0  0  0  0
   16.5405  -13.9653    0.0000 C   0  0  0  0  0  0  0  0  0  0  0  0
   14.3970  -11.9028    0.0000 C   0  0  0  0  0  0  0  0  0  0  0  0
   13.6826  -11.4903    0.0000 C   0  0  0  0  0  0  0  0  0  0  0  0
   12.9681  -11.9028    0.0000 C   0  0  0  0  0  0  0  0  0  0  0  0
   12.2536  -11.4903    0.0000 C   0  0  0  0  0  0  0  0  0  0  0  0
   11.5392  -11.9028    0.0000 O   0  0  0  0  0  0  0  0  0  0  0  0
   12.2536  -10.6653    0.0000 C   0  0  0  0  0  0  0  0  0  0  0  0
   11.5392  -10.2528    0.0000 O   0  0  0  0  0  0  0  0  0  0  0  0
   12.9681  -10.2528    0.0000 C   0  0  0  0  0  0  0  0  0  0  0  0
   12.9681   -9.4278    0.0000 O   0  0  0  0  0  0  0  0  0  0  0  0
   13.6826  -10.6653    0.0000 C   0  0  0  0  0  0  0  0  0  0  0  0
   14.3970  -12.7278    0.0000 O   0  0  0  0  0  0  0  0  0  0  0  0
   15.1115  -11.4903    0.0000 O   0  0  0  0  0  0  0  0  0  0  0  0
   15.8260  -10.2528    0.0000 C   0  0  0  0  0  0  0  0  0  0  0  0
   15.8260   -9.4278    0.0000 C   0  0  0  0  0  0  0  0  0  0  0  0
   16.5405   -9.0153    0.0000 C   0  0  0  0  0  0  0  0  0  0  0  0
   16.5405   -8.1903    0.0000 C   0  0  0  0  0  0  0  0  0  0  0  0
   17.2549   -7.7778    0.0000 O   0  0  0  0  0  0  0  0  0  0  0  0
   15.8260   -7.7778    0.0000 C   0  0  0  0  0  0  0  0  0  0  0  0
   15.8260   -6.9528    0.0000 O   0  0  0  0  0  0  0  0  0  0  0  0
   15.1115   -8.1903    0.0000 C   0  0  0  0  0  0  0  0  0  0  0  0
   14.3970   -7.7778    0.0000 O   0  0  0  0  0  0  0  0  0  0  0  0
   15.1115   -9.0153    0.0000 C   0  0  0  0  0  0  0  0  0  0  0  0
   15.1115  -10.6653    0.0000 O   0  0  0  0  0  0  0  0  0  0  0  0
   16.5405  -10.6653    0.0000 O   0  0  0  0  0  0  0  0  0  0  0  0
  2  1  1  6  0  0  0
  2  3  1  0  0  0  0
  3  4  1  0  0  0  0
  4  5  1  6  0  0  0
  4  6  1  0  0  0  0
  6  7  1  6  0  0  0
  6  8  1  0  0  0  0
  1  9  2  0  0  0  0
  1 10  1  0  0  0  0
  8 11  2  0  0  0  0
  8 12  1  0  0  0  0
 10 13  1  0  0  0  0
 14 15  1  0  0  0  0
 15 16  1  0  0  0  0
 16 17  2  0  0  0  0
 17 18  1  0  0  0  0
 17 19  1  0  0  0  0
 19 20  1  0  0  0  0
 19 21  2  0  0  0  0
 21 22  1  0  0  0  0
 21 23  1  0  0  0  0
 15 23  2  0  0  0  0
 14 24  2  0  0  0  0
 14 25  1  0  0  0  0
  2 25  1  0  0  0  0
 26 27  1  0  0  0  0
 27 28  1  0  0  0  0
 28 29  2  0  0  0  0
 29 30  1  0  0  0  0
 29 31  1  0  0  0  0
 31 32  1  0  0  0  0
 31 33  2  0  0  0  0
 33 34  1  0  0  0  0
 33 35  1  0  0  0  0
 27 35  2  0  0  0  0
 26 36  2  0  0  0  0
 26 37  1  0  0  0  0
  3 37  1  1  0  0  0
M  END
>  <cdx:groupId>
1183

>  <cdx:fragmentId>
1072

$$$$
