39329.cdx
  Mrv1902 05222410202D          

 26 26  0  0  0  0            999 V2000
    5.3501   -7.0878    0.0000 C   0  0  0  0  0  0  0  0  0  0  0  0
    6.0645   -6.6753    0.0000 C   0  0  2  0  0  0  0  0  0  0  0  0
    6.0645   -5.8503    0.0000 O   0  0  0  0  0  0  0  0  0  0  0  0
    6.7790   -7.0878    0.0000 C   0  0  1  0  0  0  0  0  0  0  0  0
    6.7790   -7.9128    0.0000 O   0  0  0  0  0  0  0  0  0  0  0  0
    7.4935   -6.6753    0.0000 C   0  0  1  0  0  0  0  0  0  0  0  0
    7.4935   -5.8503    0.0000 O   0  0  0  0  0  0  0  0  0  0  0  0
    8.2080   -7.0878    0.0000 C   0  0  2  0  0  0  0  0  0  0  0  0
    8.2080   -7.9128    0.0000 O   0  0  0  0  0  0  0  0  0  0  0  0
    8.9224   -6.6753    0.0000 C   0  0  0  0  0  0  0  0  0  0  0  0
    5.3501   -7.9128    0.0000 O   0  0  0  0  0  0  0  0  0  0  0  0
    4.6356   -6.6753    0.0000 O   0  0  0  0  0  0  0  0  0  0  0  0
    8.9224   -5.8503    0.0000 O   0  0  0  0  0  0  0  0  0  0  0  0
    9.6369   -7.0878    0.0000 O   0  0  0  0  0  0  0  0  0  0  0  0
    5.3501   -5.4378    0.0000 C   0  0  0  0  0  0  0  0  0  0  0  0
    5.3501   -4.6128    0.0000 C   0  0  0  0  0  0  0  0  0  0  0  0
    4.6356   -5.8503    0.0000 O   0  0  0  0  0  0  0  0  0  0  0  0
    6.0645   -4.2003    0.0000 C   0  0  0  0  0  0  0  0  0  0  0  0
    6.0645   -3.3753    0.0000 C   0  0  0  0  0  0  0  0  0  0  0  0
    5.3501   -2.9628    0.0000 C   0  0  0  0  0  0  0  0  0  0  0  0
    4.6356   -3.3753    0.0000 C   0  0  0  0  0  0  0  0  0  0  0  0
    4.6356   -4.2003    0.0000 C   0  0  0  0  0  0  0  0  0  0  0  0
    3.9211   -2.9628    0.0000 O   0  0  0  0  0  0  0  0  0  0  0  0
    5.3501   -2.1378    0.0000 O   0  0  0  0  0  0  0  0  0  0  0  0
    6.7790   -2.9628    0.0000 O   0  0  0  0  0  0  0  0  0  0  0  0
    3.9211   -7.0878    0.0000 C   0  0  0  0  0  0  0  0  0  0  0  0
  1  2  1  0  0  0  0
  2  3  1  6  0  0  0
  2  4  1  0  0  0  0
  4  5  1  6  0  0  0
  4  6  1  0  0  0  0
  6  7  1  1  0  0  0
  6  8  1  0  0  0  0
  8  9  1  1  0  0  0
  8 10  1  0  0  0  0
  1 11  2  0  0  0  0
  1 12  1  0  0  0  0
 10 13  2  0  0  0  0
 10 14  1  0  0  0  0
  3 15  1  0  0  0  0
 15 16  1  0  0  0  0
 15 17  2  0  0  0  0
 16 18  2  0  0  0  0
 18 19  1  0  0  0  0
 19 20  2  0  0  0  0
 20 21  1  0  0  0  0
 21 22  2  0  0  0  0
 22 16  1  0  0  0  0
 21 23  1  0  0  0  0
 20 24  1  0  0  0  0
 19 25  1  0  0  0  0
 12 26  1  0  0  0  0
M  END
>  <cdx:fragmentId>
271

$$$$
