39322.cdx
  Mrv1902 05222410272D          

 26 26  0  0  0  0            999 V2000
    4.4049   -8.3600    0.0000 C   0  0  0  0  0  0  0  0  0  0  0  0
    4.4049   -9.1850    0.0000 C   0  0  0  0  0  0  0  0  0  0  0  0
    5.1194   -9.5975    0.0000 C   0  0  0  0  0  0  0  0  0  0  0  0
    5.8339   -9.1850    0.0000 C   0  0  0  0  0  0  0  0  0  0  0  0
    5.8339   -8.3600    0.0000 C   0  0  0  0  0  0  0  0  0  0  0  0
    5.1194   -7.9475    0.0000 C   0  0  0  0  0  0  0  0  0  0  0  0
    3.6905   -7.9475    0.0000 O   0  0  0  0  0  0  0  0  0  0  0  0
    3.6905   -9.5975    0.0000 O   0  0  0  0  0  0  0  0  0  0  0  0
    5.1194  -10.4225    0.0000 O   0  0  0  0  0  0  0  0  0  0  0  0
    6.5483   -7.9475    0.0000 C   0  0  0  0  0  0  0  0  0  0  0  0
    7.2628   -8.3600    0.0000 O   0  0  0  0  0  0  0  0  0  0  0  0
    6.5483   -7.1225    0.0000 O   0  0  0  0  0  0  0  0  0  0  0  0
    7.9773   -7.9475    0.0000 C   0  0  2  0  0  0  0  0  0  0  0  0
    8.6918   -8.3600    0.0000 C   0  0  2  0  0  0  0  0  0  0  0  0
    7.9773   -7.1225    0.0000 C   0  0  0  0  0  0  0  0  0  0  0  0
    7.2628   -6.7100    0.0000 O   0  0  0  0  0  0  0  0  0  0  0  0
    8.6918   -6.7100    0.0000 O   0  0  0  0  0  0  0  0  0  0  0  0
    9.4062   -7.9475    0.0000 C   0  0  2  0  0  0  0  0  0  0  0  0
    8.6918   -9.1850    0.0000 O   0  0  0  0  0  0  0  0  0  0  0  0
   10.1207   -8.3600    0.0000 C   0  0  1  0  0  0  0  0  0  0  0  0
    9.4062   -7.1225    0.0000 O   0  0  0  0  0  0  0  0  0  0  0  0
   10.8352   -7.9475    0.0000 C   0  0  0  0  0  0  0  0  0  0  0  0
   10.1207   -9.1850    0.0000 O   0  0  0  0  0  0  0  0  0  0  0  0
   11.5496   -8.3600    0.0000 O   0  0  0  0  0  0  0  0  0  0  0  0
   10.8352   -7.1225    0.0000 O   0  0  0  0  0  0  0  0  0  0  0  0
   11.5496   -9.1850    0.0000 C   0  0  0  0  0  0  0  0  0  0  0  0
  1  2  2  0  0  0  0
  2  3  1  0  0  0  0
  3  4  2  0  0  0  0
  4  5  1  0  0  0  0
  5  6  2  0  0  0  0
  6  1  1  0  0  0  0
  1  7  1  0  0  0  0
  2  8  1  0  0  0  0
  3  9  1  0  0  0  0
  5 10  1  0  0  0  0
 10 11  1  0  0  0  0
 10 12  2  0  0  0  0
 11 13  1  0  0  0  0
 13 14  1  0  0  0  0
 13 15  1  1  0  0  0
 15 16  2  0  0  0  0
 15 17  1  0  0  0  0
 14 18  1  0  0  0  0
 14 19  1  6  0  0  0
 18 20  1  0  0  0  0
 18 21  1  1  0  0  0
 20 22  1  0  0  0  0
 20 23  1  1  0  0  0
 22 24  1  0  0  0  0
 22 25  2  0  0  0  0
 24 26  1  0  0  0  0
M  END
>  <cdx:fragmentId>
5

$$$$
