1838.cdx
  Mrv1902 05222410182D          

 18 18  0  0  0  0            999 V2000
   17.2077  -11.2534    0.0000 C   0  0  0  0  0  0  0  0  0  0  0  0
   15.7788  -11.2534    0.0000 N   0  0  0  0  0  0  0  0  0  0  0  0
   16.4932  -10.8409    0.0000 C   0  0  1  0  0  0  0  0  0  0  0  0
   16.4932  -10.0159    0.0000 C   0  0  0  0  0  0  0  0  0  0  0  0
   17.2077   -9.6034    0.0000 C   0  0  0  0  0  0  0  0  0  0  0  0
   17.9222  -10.0159    0.0000 C   0  0  0  0  0  0  0  0  0  0  0  0
   18.6366   -9.6034    0.0000 C   0  0  0  0  0  0  0  0  0  0  0  0
   18.6366   -8.7784    0.0000 C   0  0  0  0  0  0  0  0  0  0  0  0
   17.9222   -8.3659    0.0000 C   0  0  0  0  0  0  0  0  0  0  0  0
   17.2077   -8.7784    0.0000 C   0  0  0  0  0  0  0  0  0  0  0  0
   17.2077  -12.0784    0.0000 O   0  0  0  0  0  0  0  0  0  0  0  0
   17.9222  -10.8409    0.0000 O   0  0  0  0  0  0  0  0  0  0  0  0
   15.0643  -10.8409    0.0000 C   0  0  0  0  0  0  0  0  0  0  0  0
   15.0643  -10.0159    0.0000 O   0  0  0  0  0  0  0  0  0  0  0  0
   14.3498  -11.2534    0.0000 C   0  0  0  0  0  0  0  0  0  0  0  0
   13.6353  -10.8409    0.0000 C   0  0  0  0  0  0  0  0  0  0  0  0
   13.6353  -10.0159    0.0000 O   0  0  0  0  0  0  0  0  0  0  0  0
   12.9209  -11.2534    0.0000 O   0  0  0  0  0  0  0  0  0  0  0  0
  2  3  1  0  0  0  0
  1  3  1  0  0  0  0
  3  4  1  1  0  0  0
  4  5  1  0  0  0  0
  5  6  1  0  0  0  0
  6  7  2  0  0  0  0
  7  8  1  0  0  0  0
  8  9  2  0  0  0  0
  9 10  1  0  0  0  0
  5 10  2  0  0  0  0
  1 11  2  0  0  0  0
  1 12  1  0  0  0  0
 13 14  2  0  0  0  0
 13 15  1  0  0  0  0
 16 17  2  0  0  0  0
 16 18  1  0  0  0  0
 15 16  1  0  0  0  0
  2 13  1  0  0  0  0
M  END
>  <cdx:groupId>
2241

>  <cdx:fragmentId>
2192

$$$$
