39335.cdx
  Mrv1902 05222410282D          

 16 17  0  0  0  0            999 V2000
    9.6944   -5.1211    0.0000 C   0  0  0  0  0  0  0  0  0  0  0  0
    9.9493   -4.3365    0.0000 O   0  0  0  0  0  0  0  0  0  0  0  0
    8.8874   -5.2926    0.0000 N   0  0  0  0  0  0  0  0  0  0  0  0
    8.3354   -4.6795    0.0000 C   0  0  0  0  0  0  0  0  0  0  0  0
    8.6325   -6.0772    0.0000 C   0  0  0  0  0  0  0  0  0  0  0  0
    7.8255   -6.2488    0.0000 C   0  0  0  0  0  0  0  0  0  0  0  0
    7.5706   -8.3683    0.0000 N   0  0  0  0  0  0  0  0  0  0  0  0
    8.0555   -7.7008    0.0000 C   0  0  0  0  0  0  0  0  0  0  0  0
    7.5706   -7.0334    0.0000 C   0  0  0  0  0  0  0  0  0  0  0  0
    6.7860   -7.2883    0.0000 C   0  0  0  0  0  0  0  0  0  0  0  0
    6.0715   -6.8758    0.0000 C   0  0  0  0  0  0  0  0  0  0  0  0
    5.3570   -7.2883    0.0000 C   0  0  0  0  0  0  0  0  0  0  0  0
    5.3570   -8.1133    0.0000 C   0  0  0  0  0  0  0  0  0  0  0  0
    6.0715   -8.5258    0.0000 C   0  0  0  0  0  0  0  0  0  0  0  0
    6.7860   -8.1133    0.0000 C   0  0  0  0  0  0  0  0  0  0  0  0
    4.6425   -6.8758    0.0000 O   0  0  0  0  0  0  0  0  0  0  0  0
  1  2  2  0  0  0  0
  1  3  1  0  0  0  0
  3  4  1  0  0  0  0
  5  6  1  0  0  0  0
  7  8  1  0  0  0  0
  8  9  2  0  0  0  0
  9 10  1  0  0  0  0
 10 11  1  0  0  0  0
 11 12  2  0  0  0  0
 12 13  1  0  0  0  0
 13 14  2  0  0  0  0
 14 15  1  0  0  0  0
  7 15  1  0  0  0  0
 10 15  2  0  0  0  0
 12 16  1  0  0  0  0
  6  9  1  0  0  0  0
  3  5  1  0  0  0  0
M  END
>  <cdx:groupId>
1935

>  <cdx:fragmentId>
1901

$$$$
