39333.cdx
  Mrv1902 05222410272D          

 45 49  0  0  0  0            999 V2000
    8.9818   -7.4335    0.0000 O   0  0  0  0  0  0  0  0  0  0  0  0
    7.5529   -4.9585    0.0000 O   0  0  0  0  0  0  0  0  0  0  0  0
   10.4108   -4.9585    0.0000 O   0  0  0  0  0  0  0  0  0  0  0  0
   11.8397   -5.7835    0.0000 O   0  0  0  0  0  0  0  0  0  0  0  0
   11.8397   -7.4335    0.0000 O   0  0  0  0  0  0  0  0  0  0  0  0
   11.1252   -8.6710    0.0000 O   0  0  0  0  0  0  0  0  0  0  0  0
   10.4108   -8.2585    0.0000 C   0  0  0  0  0  0  0  0  0  0  0  0
    9.6963   -7.0210    0.0000 O   0  0  0  0  0  0  0  0  0  0  0  0
   10.4108   -7.4335    0.0000 C   0  0  1  0  0  0  0  0  0  0  0  0
   11.1252   -7.0210    0.0000 C   0  0  2  0  0  0  0  0  0  0  0  0
   11.1252   -6.1960    0.0000 C   0  0  1  0  0  0  0  0  0  0  0  0
   10.4108   -5.7835    0.0000 C   0  0  2  0  0  0  0  0  0  0  0  0
    9.6963   -6.1960    0.0000 C   0  0  2  0  0  0  0  0  0  0  0  0
    8.9818   -5.7835    0.0000 O   0  0  0  0  0  0  0  0  0  0  0  0
    6.8384   -6.1960    0.0000 C   0  0  0  0  0  0  0  0  0  0  0  0
    7.5529   -5.7835    0.0000 C   0  0  0  0  0  0  0  0  0  0  0  0
    8.2674   -6.1960    0.0000 C   0  0  0  0  0  0  0  0  0  0  0  0
    8.2674   -7.0210    0.0000 C   0  0  0  0  0  0  0  0  0  0  0  0
    7.5529   -7.4335    0.0000 C   0  0  0  0  0  0  0  0  0  0  0  0
    6.8384   -7.0210    0.0000 C   0  0  0  0  0  0  0  0  0  0  0  0
    3.9805   -9.4960    0.0000 O   0  0  0  0  0  0  0  0  0  0  0  0
    2.5516   -7.0210    0.0000 O   0  0  0  0  0  0  0  0  0  0  0  0
    8.2674   -9.4960    0.0000 O   0  0  0  0  0  0  0  0  0  0  0  0
    8.2674  -11.1460    0.0000 O   0  0  0  0  0  0  0  0  0  0  0  0
    6.8384  -11.9710    0.0000 O   0  0  0  0  0  0  0  0  0  0  0  0
    4.6950  -10.7335    0.0000 O   0  0  0  0  0  0  0  0  0  0  0  0
    5.4095  -11.1460    0.0000 C   0  0  0  0  0  0  0  0  0  0  0  0
    6.1239   -9.9085    0.0000 O   0  0  0  0  0  0  0  0  0  0  0  0
    6.1239  -10.7335    0.0000 C   0  0  1  0  0  0  0  0  0  0  0  0
    6.8384  -11.1460    0.0000 C   0  0  2  0  0  0  0  0  0  0  0  0
    7.5529  -10.7335    0.0000 C   0  0  1  0  0  0  0  0  0  0  0  0
    7.5529   -9.9085    0.0000 C   0  0  2  0  0  0  0  0  0  0  0  0
    6.8384   -9.4960    0.0000 C   0  0  2  0  0  0  0  0  0  0  0  0
    6.8384   -8.6710    0.0000 O   0  0  0  0  0  0  0  0  0  0  0  0
    5.4095   -9.4960    0.0000 O   0  0  0  0  0  0  0  0  0  0  0  0
    5.4095   -7.0210    0.0000 O   0  0  0  0  0  0  0  0  0  0  0  0
    4.6950   -7.4335    0.0000 C   0  0  0  0  0  0  0  0  0  0  0  0
    3.9805   -7.0210    0.0000 C   0  0  0  0  0  0  0  0  0  0  0  0
    3.2661   -7.4335    0.0000 C   0  0  0  0  0  0  0  0  0  0  0  0
    3.2661   -8.2585    0.0000 C   0  0  0  0  0  0  0  0  0  0  0  0
    3.9805   -8.6710    0.0000 C   0  0  0  0  0  0  0  0  0  0  0  0
    4.6950   -8.2585    0.0000 C   0  0  0  0  0  0  0  0  0  0  0  0
    5.4095   -8.6710    0.0000 C   0  0  0  0  0  0  0  0  0  0  0  0
    6.1239   -8.2585    0.0000 C   0  0  0  0  0  0  0  0  0  0  0  0
    6.1239   -7.4335    0.0000 C   0  0  0  0  0  0  0  0  0  0  0  0
 45 20  1  0  0  0  0
 18  1  1  0  0  0  0
 16  2  1  0  0  0  0
 17 14  1  0  0  0  0
 13 14  1  1  0  0  0
 12  3  1  6  0  0  0
 11  4  1  1  0  0  0
 10  5  1  6  0  0  0
  9  7  1  1  0  0  0
  7  6  1  0  0  0  0
 13  8  1  0  0  0  0
  9  8  1  0  0  0  0
 10  9  1  0  0  0  0
 11 10  1  0  0  0  0
 12 11  1  0  0  0  0
 13 12  1  0  0  0  0
 20 15  2  0  0  0  0
 16 15  1  0  0  0  0
 17 16  2  0  0  0  0
 18 17  1  0  0  0  0
 19 18  2  0  0  0  0
 20 19  1  0  0  0  0
 41 21  1  0  0  0  0
 39 22  1  0  0  0  0
 44 34  1  0  0  0  0
 33 34  1  1  0  0  0
 32 23  1  6  0  0  0
 31 24  1  1  0  0  0
 30 25  1  6  0  0  0
 29 27  1  1  0  0  0
 27 26  1  0  0  0  0
 33 28  1  0  0  0  0
 29 28  1  0  0  0  0
 30 29  1  0  0  0  0
 31 30  1  0  0  0  0
 32 31  1  0  0  0  0
 33 32  1  0  0  0  0
 43 35  2  0  0  0  0
 45 36  1  0  0  0  0
 37 36  1  0  0  0  0
 42 37  2  0  0  0  0
 38 37  1  0  0  0  0
 39 38  2  0  0  0  0
 40 39  1  0  0  0  0
 41 40  2  0  0  0  0
 42 41  1  0  0  0  0
 43 42  1  0  0  0  0
 44 43  1  0  0  0  0
 45 44  2  0  0  0  0
M  END
>  <cdx:fragmentId>
29

$$$$
