39337.cdx
  Mrv1902 05222410272D          

 39 39  0  0  0  0            999 V2000
    2.0567   -8.7242    0.0000 O   0  0  0  0  0  0  0  0  0  0  0  0
    3.4852  -10.3737    0.0000 C   0  0  0  0  0  0  0  0  0  0  0  0
    2.7710   -9.9613    0.0000 C   0  0  0  0  0  0  0  0  0  0  0  0
    2.7710   -9.1366    0.0000 C   0  0  0  0  0  0  0  0  0  0  0  0
    3.4852   -8.7242    0.0000 C   0  0  0  0  0  0  0  0  0  0  0  0
    4.1995   -9.1366    0.0000 C   0  0  0  0  0  0  0  0  0  0  0  0
    4.1995   -9.9613    0.0000 C   0  0  0  0  0  0  0  0  0  0  0  0
    4.9137  -10.3737    0.0000 C   0  0  0  0  0  0  0  0  0  0  0  0
    5.6280   -9.9613    0.0000 C   0  0  0  0  0  0  0  0  0  0  0  0
    6.3422  -10.3737    0.0000 N   0  0  0  0  0  0  0  0  0  0  0  0
    7.0565   -9.1366    0.0000 O   0  0  0  0  0  0  0  0  0  0  0  0
   24.9126  -10.3737    0.0000 C   0  0  0  0  0  0  0  0  0  0  0  0
   24.1984   -9.9613    0.0000 C   0  0  0  0  0  0  0  0  0  0  0  0
   23.4841  -10.3737    0.0000 C   0  0  0  0  0  0  0  0  0  0  0  0
   22.7699   -9.9613    0.0000 C   0  0  0  0  0  0  0  0  0  0  0  0
   22.0556  -10.3737    0.0000 C   0  0  0  0  0  0  0  0  0  0  0  0
   21.3414   -9.9613    0.0000 C   0  0  0  0  0  0  0  0  0  0  0  0
   20.6271  -10.3737    0.0000 C   0  0  0  0  0  0  0  0  0  0  0  0
   19.9129   -9.9613    0.0000 C   0  0  0  0  0  0  0  0  0  0  0  0
   19.1987  -10.3737    0.0000 C   0  0  0  0  0  0  0  0  0  0  0  0
   18.4844   -9.9613    0.0000 C   0  0  0  0  0  0  0  0  0  0  0  0
   17.7702  -10.3737    0.0000 C   0  0  0  0  0  0  0  0  0  0  0  0
   17.0559   -9.9613    0.0000 C   0  0  0  0  0  0  0  0  0  0  0  0
   16.3417  -10.3737    0.0000 C   0  0  0  0  0  0  0  0  0  0  0  0
   15.6274   -9.9613    0.0000 C   0  0  0  0  0  0  0  0  0  0  0  0
   14.9132  -10.3737    0.0000 C   0  0  0  0  0  0  0  0  0  0  0  0
   14.1989   -9.9613    0.0000 C   0  0  0  0  0  0  0  0  0  0  0  0
   13.4847  -10.3737    0.0000 C   0  0  0  0  0  0  0  0  0  0  0  0
   12.7704   -9.9613    0.0000 C   0  0  0  0  0  0  0  0  0  0  0  0
   12.0562  -10.3737    0.0000 C   0  0  0  0  0  0  0  0  0  0  0  0
   11.3419   -9.9613    0.0000 C   0  0  0  0  0  0  0  0  0  0  0  0
   10.6277  -10.3737    0.0000 C   0  0  0  0  0  0  0  0  0  0  0  0
    9.9135   -9.9613    0.0000 C   0  0  0  0  0  0  0  0  0  0  0  0
    9.1992  -10.3737    0.0000 C   0  0  0  0  0  0  0  0  0  0  0  0
    8.4850   -9.9613    0.0000 C   0  0  0  0  0  0  0  0  0  0  0  0
    7.7707  -10.3737    0.0000 C   0  0  0  0  0  0  0  0  0  0  0  0
    7.0565   -9.9613    0.0000 C   0  0  0  0  0  0  0  0  0  0  0  0
   25.6271   -9.9612    0.0000 C   0  0  0  0  0  0  0  0  0  0  0  0
   26.3416  -10.3737    0.0000 C   0  0  0  0  0  0  0  0  0  0  0  0
 10  9  1  0  0  0  0
  4  1  1  0  0  0  0
  7  2  2  0  0  0  0
  3  2  1  0  0  0  0
  4  3  2  0  0  0  0
  5  4  1  0  0  0  0
  6  5  2  0  0  0  0
  7  6  1  0  0  0  0
  8  7  1  0  0  0  0
  9  8  1  0  0  0  0
 37 10  1  0  0  0  0
 37 11  2  0  0  0  0
 13 12  1  0  0  0  0
 14 13  1  0  0  0  0
 15 14  1  0  0  0  0
 16 15  1  0  0  0  0
 17 16  1  0  0  0  0
 18 17  1  0  0  0  0
 19 18  1  0  0  0  0
 20 19  1  0  0  0  0
 21 20  1  0  0  0  0
 22 21  1  0  0  0  0
 23 22  1  0  0  0  0
 24 23  1  0  0  0  0
 25 24  1  0  0  0  0
 26 25  1  0  0  0  0
 27 26  1  0  0  0  0
 28 27  1  0  0  0  0
 29 28  1  0  0  0  0
 30 29  1  0  0  0  0
 31 30  1  0  0  0  0
 32 31  1  0  0  0  0
 33 32  1  0  0  0  0
 34 33  1  0  0  0  0
 35 34  1  0  0  0  0
 36 35  1  0  0  0  0
 37 36  1  0  0  0  0
 12 38  1  0  0  0  0
 38 39  1  0  0  0  0
M  END
>  <cdx:fragmentId>
1942

$$$$
