1831.cdx
  Mrv1902 05222410262D          

 26 27  0  0  0  0            999 V2000
    7.4799  -10.6560    0.0000 C   0  0  0  0  0  0  0  0  0  0  0  0
    7.4799  -11.4781    0.0000 C   0  0  0  0  0  0  0  0  0  0  0  0
    8.1918  -11.8892    0.0000 C   0  0  0  0  0  0  0  0  0  0  0  0
    8.9038  -11.4781    0.0000 C   0  0  0  0  0  0  0  0  0  0  0  0
    8.9038  -10.6560    0.0000 C   0  0  0  0  0  0  0  0  0  0  0  0
    8.1918  -10.2449    0.0000 C   0  0  0  0  0  0  0  0  0  0  0  0
    6.7679  -11.8892    0.0000 C   0  0  0  0  0  0  0  0  0  0  0  0
    6.7679  -12.7113    0.0000 C   0  0  0  0  0  0  0  0  0  0  0  0
    7.4799  -13.1224    0.0000 C   0  0  0  0  0  0  0  0  0  0  0  0
    8.1918  -12.7113    0.0000 O   0  0  0  0  0  0  0  0  0  0  0  0
    7.4799  -13.9445    0.0000 O   0  0  0  0  0  0  0  0  0  0  0  0
    9.6158  -11.8892    0.0000 C   0  0  0  0  0  0  0  0  0  0  0  0
    9.6158  -10.2449    0.0000 O   0  0  0  0  0  0  0  0  0  0  0  0
    9.6158   -9.4228    0.0000 C   0  0  0  0  0  0  0  0  0  0  0  0
   10.3278  -11.4781    0.0000 C   0  0  0  0  0  0  0  0  0  0  0  0
    9.6158  -13.2046    0.0000 O   0  0  0  0  0  0  0  0  0  0  0  0
   10.3278  -13.6157    0.0000 C   0  0  0  0  0  0  0  0  0  0  0  0
   10.3278  -14.4378    0.0000 C   0  0  0  0  0  0  0  0  0  0  0  0
   11.0398  -13.2046    0.0000 O   0  0  0  0  0  0  0  0  0  0  0  0
   11.0398  -14.8489    0.0000 C   0  0  0  0  0  0  0  0  0  0  0  0
   11.0398  -15.6710    0.0000 C   0  0  0  0  0  0  0  0  0  0  0  0
   11.7518  -14.4378    0.0000 C   0  0  0  0  0  0  0  0  0  0  0  0
   10.3278  -10.6560    0.0000 O   0  0  0  0  0  0  0  0  0  0  0  0
   11.0398  -11.8892    0.0000 C   0  0  0  0  0  0  0  0  0  0  0  0
   11.7518  -11.4781    0.0000 C   0  0  0  0  0  0  0  0  0  0  0  0
   11.0398  -12.7113    0.0000 C   0  0  0  0  0  0  0  0  0  0  0  0
  1  2  2  0  0  0  0
  2  3  1  0  0  0  0
  3  4  2  0  0  0  0
  4  5  1  0  0  0  0
  5  6  2  0  0  0  0
  6  1  1  0  0  0  0
  2  7  1  0  0  0  0
  7  8  2  0  0  0  0
  8  9  1  0  0  0  0
  9 10  1  0  0  0  0
 10  3  1  0  0  0  0
  9 11  2  0  0  0  0
  4 12  1  0  0  0  0
  5 13  1  0  0  0  0
 13 14  1  0  0  0  0
 12 15  1  0  0  0  0
 12 16  1  0  0  0  0
 16 17  1  0  0  0  0
 17 18  1  0  0  0  0
 17 19  2  0  0  0  0
 18 20  2  0  0  0  0
 20 21  1  0  0  0  0
 20 22  1  0  0  0  0
 15 23  2  0  0  0  0
 15 24  1  0  0  0  0
 24 25  1  0  0  0  0
 24 26  1  0  0  0  0
M  END
>  <cdx:fragmentId>
1432

$$$$
