393334.cdx
  Mrv1902 05222410182D          

 59 66  0  0  0  0            999 V2000
    6.0206  -11.2888    0.0000 C   0  0  0  0  0  0  0  0  0  0  0  0
    6.0206  -12.1138    0.0000 C   0  0  1  0  0  0  0  0  0  0  0  0
    6.7350  -12.5263    0.0000 C   0  0  0  0  0  0  0  0  0  0  0  0
    7.4495  -12.1138    0.0000 C   0  0  1  0  0  0  0  0  0  0  0  0
    7.4495  -11.2888    0.0000 C   0  0  2  0  0  0  0  0  0  0  0  0
    6.7350  -10.8762    0.0000 C   0  0  0  0  0  0  0  0  0  0  0  0
    8.1640  -12.5263    0.0000 C   0  0  2  0  0  0  0  0  0  0  0  0
    8.8784  -12.1138    0.0000 C   0  0  0  0  0  0  0  0  0  0  0  0
    8.8784  -11.2888    0.0000 C   0  0  2  0  0  0  0  0  0  0  0  0
    8.1640  -10.8762    0.0000 C   0  0  1  0  0  0  0  0  0  0  0  0
    9.5929  -10.8762    0.0000 C   0  0  1  0  0  0  0  0  0  0  0  0
    9.5929  -10.0512    0.0000 C   0  0  2  0  0  0  0  0  0  0  0  0
    8.8784   -9.6387    0.0000 C   0  0  0  0  0  0  0  0  0  0  0  0
    8.1640  -10.0512    0.0000 C   0  0  0  0  0  0  0  0  0  0  0  0
   10.3775  -11.1312    0.0000 C   0  0  0  0  0  0  0  0  0  0  0  0
   10.8625  -10.4637    0.0000 C   0  0  1  0  0  0  0  0  0  0  0  0
   10.3775   -9.7963    0.0000 C   0  0  2  0  0  0  0  0  0  0  0  0
   10.5911   -8.9994    0.0000 C   0  0  2  0  0  0  0  0  0  0  0  0
   11.2599   -8.5165    0.0000 O   0  0  0  0  0  0  0  0  0  0  0  0
   11.0074   -7.7311    0.0000 C   0  0  1  0  0  0  0  0  0  0  0  0
   10.1824   -7.7286    0.0000 C   0  0  0  0  0  0  0  0  0  0  0  0
    9.9251   -8.5125    0.0000 C   0  0  0  0  0  0  0  0  0  0  0  0
    6.3225  -13.2407    0.0000 C   0  0  0  0  0  0  0  0  0  0  0  0
    7.1475  -13.2407    0.0000 C   0  0  0  0  0  0  0  0  0  0  0  0
    5.3061  -12.5263    0.0000 O   0  0  0  0  0  0  0  0  0  0  0  0
    7.4495  -10.4637    0.0000 C   0  0  0  0  0  0  0  0  0  0  0  0
    8.8784  -10.4637    0.0000 H   0  0  0  0  0  0  0  0  0  0  0  0
    9.5929   -9.2263    0.0000 C   0  0  0  0  0  0  0  0  0  0  0  0
   11.6875  -10.4637    0.0000 O   0  0  0  0  0  0  0  0  0  0  0  0
   11.3984   -9.1690    0.0000 C   0  0  0  0  0  0  0  0  0  0  0  0
    7.4495  -12.9388    0.0000 H   0  0  0  0  0  0  0  0  0  0  0  0
    8.1640  -13.3513    0.0000 O   0  0  0  0  0  0  0  0  0  0  0  0
    9.5929  -11.7012    0.0000 C   0  0  0  0  0  0  0  0  0  0  0  0
   11.2025   -9.7963    0.0000 H   0  0  0  0  0  0  0  0  0  0  0  0
    4.5916  -12.1138    0.0000 C   0  0  2  0  0  0  0  0  0  0  0  0
    4.5916  -11.2888    0.0000 O   0  0  0  0  0  0  0  0  0  0  0  0
    3.8771  -10.8762    0.0000 C   0  0  0  0  0  0  0  0  0  0  0  0
    3.1627  -11.2888    0.0000 C   0  0  2  0  0  0  0  0  0  0  0  0
    3.1627  -12.1138    0.0000 C   0  0  1  0  0  0  0  0  0  0  0  0
    3.8771  -12.5262    0.0000 C   0  0  1  0  0  0  0  0  0  0  0  0
    2.4482  -12.5263    0.0000 O   0  0  0  0  0  0  0  0  0  0  0  0
    2.4482  -10.8762    0.0000 O   0  0  0  0  0  0  0  0  0  0  0  0
    3.8771  -13.3512    0.0000 O   0  0  0  0  0  0  0  0  0  0  0  0
   11.8148   -7.9007    0.0000 H   0  0  0  0  0  0  0  0  0  0  0  0
   11.4199   -7.0167    0.0000 C   0  0  0  0  0  0  0  0  0  0  0  0
   10.7054   -6.6042    0.0000 C   0  0  0  0  0  0  0  0  0  0  0  0
   12.1343   -7.4292    0.0000 C   0  0  0  0  0  0  0  0  0  0  0  0
   11.8324   -6.3022    0.0000 O   0  0  0  0  0  0  0  0  0  0  0  0
   11.4199   -5.5877    0.0000 C   0  0  2  0  0  0  0  0  0  0  0  0
   11.8324   -4.8732    0.0000 O   0  0  0  0  0  0  0  0  0  0  0  0
   11.4199   -4.1588    0.0000 C   0  0  1  0  0  0  0  0  0  0  0  0
   10.5949   -4.1588    0.0000 C   0  0  2  0  0  0  0  0  0  0  0  0
   10.1824   -4.8732    0.0000 C   0  0  1  0  0  0  0  0  0  0  0  0
   10.5949   -5.5877    0.0000 C   0  0  1  0  0  0  0  0  0  0  0  0
   11.8324   -3.4443    0.0000 C   0  0  0  0  0  0  0  0  0  0  0  0
    9.3574   -4.8732    0.0000 O   0  0  0  0  0  0  0  0  0  0  0  0
   10.1824   -3.4443    0.0000 O   0  0  0  0  0  0  0  0  0  0  0  0
   10.1824   -6.3022    0.0000 O   0  0  0  0  0  0  0  0  0  0  0  0
   11.4199   -2.7298    0.0000 O   0  0  0  0  0  0  0  0  0  0  0  0
  1  2  1  0  0  0  0
  2  3  1  0  0  0  0
  3  4  1  0  0  0  0
  4  5  1  0  0  0  0
  5  6  1  0  0  0  0
  6  1  1  0  0  0  0
  4  7  1  0  0  0  0
  7  8  1  0  0  0  0
  8  9  1  0  0  0  0
  9 10  1  0  0  0  0
 10  5  1  0  0  0  0
  9 11  1  0  0  0  0
 11 12  1  0  0  0  0
 12 13  1  0  0  0  0
 13 14  1  0  0  0  0
 14 10  1  0  0  0  0
 11 15  1  0  0  0  0
 15 16  1  0  0  0  0
 16 17  1  0  0  0  0
 17 12  1  0  0  0  0
 17 18  1  0  0  0  0
 18 19  1  0  0  0  0
 19 20  1  0  0  0  0
 20 21  1  0  0  0  0
 21 22  1  0  0  0  0
 22 18  1  0  0  0  0
  3 23  1  0  0  0  0
  3 24  1  0  0  0  0
  2 25  1  1  0  0  0
  5 26  1  1  0  0  0
 10 26  1  1  0  0  0
  9 27  1  1  0  0  0
 12 28  1  1  0  0  0
 16 29  1  1  0  0  0
 18 30  1  6  0  0  0
  4 31  1  6  0  0  0
  7 32  1  6  0  0  0
 11 33  1  6  0  0  0
 17 34  1  6  0  0  0
 35 25  1  1  0  0  0
 35 36  1  0  0  0  0
 36 37  1  0  0  0  0
 37 38  1  0  0  0  0
 38 39  1  0  0  0  0
 39 40  1  0  0  0  0
 40 35  1  0  0  0  0
 39 41  1  1  0  0  0
 38 42  1  6  0  0  0
 40 43  1  6  0  0  0
 20 44  1  6  0  0  0
 20 45  1  0  0  0  0
 45 46  1  0  0  0  0
 45 47  1  0  0  0  0
 45 48  1  0  0  0  0
 49 48  1  1  0  0  0
 49 50  1  0  0  0  0
 50 51  1  0  0  0  0
 51 52  1  0  0  0  0
 52 53  1  0  0  0  0
 53 54  1  0  0  0  0
 54 49  1  0  0  0  0
 51 55  1  1  0  0  0
 53 56  1  1  0  0  0
 52 57  1  6  0  0  0
 54 58  1  6  0  0  0
 55 59  1  0  0  0  0
M  END
>  <cdx:fragmentId>
5

$$$$
