1834.cdx
  Mrv1902 05222410282D          

 35 37  0  0  0  0            999 V2000
   18.1012  -10.5507    0.0000 C   0  0  0  0  0  0  0  0  0  0  0  0
   18.1012  -11.3757    0.0000 C   0  0  0  0  0  0  0  0  0  0  0  0
   18.8157  -11.7882    0.0000 O   0  0  0  0  0  0  0  0  0  0  0  0
   17.3867  -11.7882    0.0000 C   0  0  0  0  0  0  0  0  0  0  0  0
   17.3867  -12.6132    0.0000 O   0  0  0  0  0  0  0  0  0  0  0  0
   16.6723  -11.3757    0.0000 C   0  0  0  0  0  0  0  0  0  0  0  0
   15.9578  -11.7882    0.0000 C   0  0  0  0  0  0  0  0  0  0  0  0
   15.9578  -12.6132    0.0000 O   0  0  0  0  0  0  0  0  0  0  0  0
   15.2433  -11.3757    0.0000 C   0  0  0  0  0  0  0  0  0  0  0  0
   15.2433  -10.5507    0.0000 C   0  0  0  0  0  0  0  0  0  0  0  0
   15.9578  -10.1382    0.0000 C   0  0  0  0  0  0  0  0  0  0  0  0
   16.6723  -10.5507    0.0000 C   0  0  0  0  0  0  0  0  0  0  0  0
   17.3867  -10.1382    0.0000 O   0  0  0  0  0  0  0  0  0  0  0  0
   18.8157  -10.1382    0.0000 C   0  0  0  0  0  0  0  0  0  0  0  0
   19.5301  -10.5507    0.0000 C   0  0  0  0  0  0  0  0  0  0  0  0
   20.2446  -10.1382    0.0000 C   0  0  0  0  0  0  0  0  0  0  0  0
   20.9591  -10.5507    0.0000 O   0  0  0  0  0  0  0  0  0  0  0  0
   20.2446   -9.3132    0.0000 C   0  0  0  0  0  0  0  0  0  0  0  0
   20.9591   -8.9007    0.0000 O   0  0  0  0  0  0  0  0  0  0  0  0
   19.5301   -8.9007    0.0000 C   0  0  0  0  0  0  0  0  0  0  0  0
   19.5301   -8.0757    0.0000 O   0  0  0  0  0  0  0  0  0  0  0  0
   18.8157   -9.3132    0.0000 C   0  0  0  0  0  0  0  0  0  0  0  0
    9.5276  -10.5507    0.0000 O   0  0  0  0  0  0  0  0  0  0  0  0
   10.2420  -10.1382    0.0000 C   0  0  0  0  0  0  0  0  0  0  0  0
   10.9565  -10.5507    0.0000 C   0  0  2  0  0  0  0  0  0  0  0  0
   10.9565  -11.3757    0.0000 O   0  0  0  0  0  0  0  0  0  0  0  0
   11.6710  -10.1382    0.0000 C   0  0  1  0  0  0  0  0  0  0  0  0
   11.6710   -9.3132    0.0000 O   0  0  0  0  0  0  0  0  0  0  0  0
   12.3854  -10.5507    0.0000 C   0  0  2  0  0  0  0  0  0  0  0  0
   12.3854  -11.3757    0.0000 O   0  0  0  0  0  0  0  0  0  0  0  0
   13.0999  -10.1382    0.0000 C   0  0  2  0  0  0  0  0  0  0  0  0
   13.0999   -9.3132    0.0000 O   0  0  0  0  0  0  0  0  0  0  0  0
   13.8144  -10.5507    0.0000 C   0  0  0  0  0  0  0  0  0  0  0  0
   13.8144  -11.3757    0.0000 O   0  0  0  0  0  0  0  0  0  0  0  0
   14.5289  -10.1382    0.0000 O   0  0  0  0  0  0  0  0  0  0  0  0
  1  2  2  0  0  0  0
  2  3  1  0  0  0  0
  2  4  1  0  0  0  0
  4  5  2  0  0  0  0
  4  6  1  0  0  0  0
  6  7  1  0  0  0  0
  7  8  1  0  0  0  0
  7  9  2  0  0  0  0
  9 10  1  0  0  0  0
 10 11  2  0  0  0  0
 11 12  1  0  0  0  0
  6 12  2  0  0  0  0
 12 13  1  0  0  0  0
  1 13  1  0  0  0  0
  1 14  1  0  0  0  0
 14 15  1  0  0  0  0
 15 16  2  0  0  0  0
 16 17  1  0  0  0  0
 16 18  1  0  0  0  0
 18 19  1  0  0  0  0
 18 20  2  0  0  0  0
 20 21  1  0  0  0  0
 20 22  1  0  0  0  0
 14 22  2  0  0  0  0
 23 24  2  0  0  0  0
 24 25  1  0  0  0  0
 25 26  1  1  0  0  0
 25 27  1  0  0  0  0
 27 28  1  1  0  0  0
 27 29  1  0  0  0  0
 29 30  1  1  0  0  0
 29 31  1  0  0  0  0
 31 32  1  6  0  0  0
 31 33  1  0  0  0  0
 33 34  2  0  0  0  0
 33 35  1  0  0  0  0
 10 35  1  0  0  0  0
M  END
>  <cdx:groupId>
1878

>  <cdx:fragmentId>
1774

$$$$
