1839.cdx
  Mrv1902 05222410182D          

 20 20  0  0  0  0            999 V2000
   17.1200   -9.1070    0.0000 C   0  0  0  0  0  0  0  0  0  0  0  0
   15.6911   -9.1070    0.0000 N   0  0  0  0  0  0  0  0  0  0  0  0
   16.4056   -9.5195    0.0000 C   0  0  1  0  0  0  0  0  0  0  0  0
   16.4056  -10.3445    0.0000 C   0  0  0  0  0  0  0  0  0  0  0  0
   17.1200   -8.2820    0.0000 O   0  0  0  0  0  0  0  0  0  0  0  0
   17.8345   -9.5195    0.0000 O   0  0  0  0  0  0  0  0  0  0  0  0
   14.9766   -9.5195    0.0000 S   0  0  0  0  0  0  0  0  0  0  0  0
   14.5641   -8.8050    0.0000 O   0  0  0  0  0  0  0  0  0  0  0  0
   15.3891  -10.2340    0.0000 O   0  0  0  0  0  0  0  0  0  0  0  0
   14.2622   -9.9320    0.0000 C   0  0  0  0  0  0  0  0  0  0  0  0
   14.2622  -10.7570    0.0000 C   0  0  0  0  0  0  0  0  0  0  0  0
   13.5477  -11.1695    0.0000 C   0  0  0  0  0  0  0  0  0  0  0  0
   12.8332  -10.7570    0.0000 C   0  0  0  0  0  0  0  0  0  0  0  0
   12.8332   -9.9320    0.0000 C   0  0  0  0  0  0  0  0  0  0  0  0
   13.5477   -9.5195    0.0000 C   0  0  0  0  0  0  0  0  0  0  0  0
   13.5477  -11.9945    0.0000 N   0  3  0  0  0  0  0  0  0  0  0  0
   14.2622  -12.4070    0.0000 O   0  0  0  0  0  0  0  0  0  0  0  0
   12.8332  -12.4070    0.0000 O   0  5  0  0  0  0  0  0  0  0  0  0
   14.9766  -11.1695    0.0000 O   0  0  0  0  0  0  0  0  0  0  0  0
   15.6911  -10.7570    0.0000 C   0  0  0  0  0  0  0  0  0  0  0  0
  2  3  1  0  0  0  0
  1  3  1  0  0  0  0
  3  4  1  6  0  0  0
  1  5  2  0  0  0  0
  1  6  1  0  0  0  0
  7  8  2  0  0  0  0
  7  9  2  0  0  0  0
 10 11  1  0  0  0  0
 11 12  2  0  0  0  0
 12 13  1  0  0  0  0
 13 14  2  0  0  0  0
 14 15  1  0  0  0  0
 10 15  2  0  0  0  0
 16 17  2  0  0  0  0
 16 18  1  0  0  0  0
 12 16  1  0  0  0  0
 19 20  1  0  0  0  0
 11 19  1  0  0  0  0
  7 10  1  0  0  0  0
  2  7  1  0  0  0  0
M  CHG  2  16   1  18  -1
M  END
>  <cdx:groupId>
2307

>  <cdx:fragmentId>
2268

$$$$
