39346.cdx
  Mrv1902 05222410232D          

 38 39  0  0  0  0            999 V2000
    2.7079   -8.2269    0.0000 N   0  0  0  0  0  0  0  0  0  0  0  0
    3.4224   -7.8144    0.0000 C   0  0  0  0  0  0  0  0  0  0  0  0
    3.4224   -6.9894    0.0000 N   0  0  0  0  0  0  0  0  0  0  0  0
    2.7079   -6.5769    0.0000 C   0  0  0  0  0  0  0  0  0  0  0  0
    1.9934   -6.9894    0.0000 C   0  0  0  0  0  0  0  0  0  0  0  0
    1.9934   -7.8144    0.0000 C   0  0  0  0  0  0  0  0  0  0  0  0
    2.7079   -5.7519    0.0000 O   0  0  0  0  0  0  0  0  0  0  0  0
    4.1368   -8.2269    0.0000 O   0  0  0  0  0  0  0  0  0  0  0  0
    2.7083   -9.0519    0.0000 C   0  0  1  0  0  0  0  0  0  0  0  0
    3.3753   -9.5374    0.0000 C   0  0  1  0  0  0  0  0  0  0  0  0
    3.1197  -10.3218    0.0000 C   0  0  1  0  0  0  0  0  0  0  0  0
    2.2947  -10.3218    0.0000 C   0  0  2  0  0  0  0  0  0  0  0  0
    2.0404   -9.5374    0.0000 O   0  0  0  0  0  0  0  0  0  0  0  0
    3.6043  -10.9895    0.0000 O   0  0  0  0  0  0  0  0  0  0  0  0
    1.8095  -10.9891    0.0000 C   0  0  0  0  0  0  0  0  0  0  0  0
    2.1448  -11.7429    0.0000 O   0  0  0  0  0  0  0  0  0  0  0  0
    4.1602   -9.2832    0.0000 O   0  0  0  0  0  0  0  0  0  0  0  0
    1.2790   -6.5769    0.0000 C   0  0  0  0  0  0  0  0  0  0  0  0
    4.1368   -6.5769    0.0000 C   0  0  0  0  0  0  0  0  0  0  0  0
    4.8513   -6.9894    0.0000 C   0  0  0  0  0  0  0  0  0  0  0  0
    5.5658   -6.5769    0.0000 C   0  0  0  0  0  0  0  0  0  0  0  0
    6.2803   -6.9894    0.0000 C   0  0  0  0  0  0  0  0  0  0  0  0
    6.9947   -6.5769    0.0000 C   0  0  0  0  0  0  0  0  0  0  0  0
    7.7092   -6.9894    0.0000 C   0  0  0  0  0  0  0  0  0  0  0  0
    8.4237   -6.5769    0.0000 C   0  0  0  0  0  0  0  0  0  0  0  0
    9.1381   -6.9894    0.0000 C   0  0  0  0  0  0  0  0  0  0  0  0
    9.8526   -6.5769    0.0000 C   0  0  0  0  0  0  0  0  0  0  0  0
   10.5671   -6.9894    0.0000 C   0  0  0  0  0  0  0  0  0  0  0  0
   11.2815   -6.5769    0.0000 C   0  0  0  0  0  0  0  0  0  0  0  0
   11.9960   -6.9894    0.0000 C   0  0  0  0  0  0  0  0  0  0  0  0
   12.7105   -6.5769    0.0000 C   0  0  0  0  0  0  0  0  0  0  0  0
   13.4250   -6.9894    0.0000 C   0  0  0  0  0  0  0  0  0  0  0  0
   14.1394   -6.5769    0.0000 C   0  0  0  0  0  0  0  0  0  0  0  0
   14.8539   -6.9894    0.0000 C   0  0  0  0  0  0  0  0  0  0  0  0
   14.1394   -5.7519    0.0000 O   0  0  0  0  0  0  0  0  0  0  0  0
   15.5684   -6.5769    0.0000 C   0  0  0  0  0  0  0  0  0  0  0  0
   14.8539   -7.8144    0.0000 N   0  0  0  0  0  0  0  0  0  0  0  0
   16.2828   -6.9894    0.0000 O   0  0  0  0  0  0  0  0  0  0  0  0
  1  2  1  0  0  0  0
  2  3  1  0  0  0  0
  3  4  1  0  0  0  0
  4  5  1  0  0  0  0
  5  6  1  0  0  0  0
  6  1  1  0  0  0  0
  4  7  2  0  0  0  0
  2  8  2  0  0  0  0
  9  1  1  1  0  0  0
  9 10  1  0  0  0  0
 10 11  1  0  0  0  0
 11 12  1  0  0  0  0
 12 13  1  0  0  0  0
 13  9  1  0  0  0  0
 11 14  1  6  0  0  0
 12 15  1  1  0  0  0
 15 16  1  0  0  0  0
 10 17  1  6  0  0  0
  5 18  1  0  0  0  0
  3 19  1  0  0  0  0
 19 20  1  0  0  0  0
 20 21  1  0  0  0  0
 21 22  1  0  0  0  0
 22 23  1  0  0  0  0
 23 24  1  0  0  0  0
 24 25  1  0  0  0  0
 25 26  1  0  0  0  0
 26 27  1  0  0  0  0
 27 28  2  0  0  0  0
 28 29  1  0  0  0  0
 29 30  1  0  0  0  0
 30 31  1  0  0  0  0
 31 32  2  0  0  0  0
 32 33  1  0  0  0  0
 33 34  1  0  0  0  0
 33 35  1  0  0  0  0
 34 36  1  0  0  0  0
 34 37  1  0  0  0  0
 36 38  1  0  0  0  0
M  END
>  <cdx:fragmentId>
443

$$$$
