39357.cdx
  Mrv1902 05222410252D          

 25 27  0  0  0  0            999 V2000
    5.0034   -7.1736    0.0000 C   0  0  0  0  0  0  0  0  0  0  0  0
    5.0034   -7.9958    0.0000 C   0  0  0  0  0  0  0  0  0  0  0  0
    5.7154   -8.4068    0.0000 C   0  0  0  0  0  0  0  0  0  0  0  0
    6.4274   -7.9958    0.0000 C   0  0  0  0  0  0  0  0  0  0  0  0
    6.4274   -7.1736    0.0000 C   0  0  0  0  0  0  0  0  0  0  0  0
    5.7154   -6.7626    0.0000 C   0  0  0  0  0  0  0  0  0  0  0  0
    7.2093   -8.2498    0.0000 N   0  0  0  0  0  0  0  0  0  0  0  0
    7.6925   -7.5847    0.0000 C   0  0  0  0  0  0  0  0  0  0  0  0
    7.2093   -6.9196    0.0000 C   0  0  0  0  0  0  0  0  0  0  0  0
    8.5146   -7.5847    0.0000 O   0  0  0  0  0  0  0  0  0  0  0  0
    7.4633   -9.0317    0.0000 C   0  0  2  0  0  0  0  0  0  0  0  0
    6.9132   -9.6427    0.0000 O   0  0  0  0  0  0  0  0  0  0  0  0
    7.1673  -10.4246    0.0000 C   0  0  1  0  0  0  0  0  0  0  0  0
    7.9714  -10.5955    0.0000 C   0  0  2  0  0  0  0  0  0  0  0  0
    8.5215   -9.9845    0.0000 C   0  0  1  0  0  0  0  0  0  0  0  0
    8.2675   -9.2026    0.0000 C   0  0  1  0  0  0  0  0  0  0  0  0
    6.6171  -11.0355    0.0000 C   0  0  0  0  0  0  0  0  0  0  0  0
    6.8712  -11.8174    0.0000 O   0  0  0  0  0  0  0  0  0  0  0  0
    8.2255  -11.3774    0.0000 O   0  0  0  0  0  0  0  0  0  0  0  0
    9.3257  -10.1555    0.0000 O   0  0  0  0  0  0  0  0  0  0  0  0
    8.8176   -8.5917    0.0000 O   0  0  0  0  0  0  0  0  0  0  0  0
    7.4642   -6.1350    0.0000 C   0  0  0  0  0  0  0  0  0  0  0  0
    6.9122   -5.5219    0.0000 C   0  0  0  0  0  0  0  0  0  0  0  0
    7.1671   -4.7372    0.0000 O   0  0  0  0  0  0  0  0  0  0  0  0
    6.1052   -5.6934    0.0000 O   0  0  0  0  0  0  0  0  0  0  0  0
  1  2  2  0  0  0  0
  2  3  1  0  0  0  0
  3  4  2  0  0  0  0
  4  5  1  0  0  0  0
  5  6  2  0  0  0  0
  6  1  1  0  0  0  0
  4  7  1  0  0  0  0
  7  8  1  0  0  0  0
  8  9  1  0  0  0  0
  9  5  1  0  0  0  0
  8 10  2  0  0  0  0
 11  7  1  1  0  0  0
 11 12  1  0  0  0  0
 12 13  1  0  0  0  0
 13 14  1  0  0  0  0
 14 15  1  0  0  0  0
 15 16  1  0  0  0  0
 16 11  1  0  0  0  0
 13 17  1  1  0  0  0
 17 18  1  0  0  0  0
 14 19  1  6  0  0  0
 15 20  1  1  0  0  0
 16 21  1  6  0  0  0
  9 22  1  0  0  0  0
 22 23  1  0  0  0  0
 23 24  2  0  0  0  0
 23 25  1  0  0  0  0
M  END
>  <cdx:fragmentId>
3209

$$$$
