39354.cdx
  Mrv1902 05222410252D          

 20 21  0  0  0  0            999 V2000
    7.5138   -7.1847    0.0000 C   0  0  0  0  0  0  0  0  0  0  0  0
    6.7993   -8.4222    0.0000 N   0  0  0  0  0  0  0  0  0  0  0  0
    7.5138   -8.0097    0.0000 C   0  0  0  0  0  0  0  0  0  0  0  0
    8.2282   -8.4222    0.0000 C   0  0  0  0  0  0  0  0  0  0  0  0
    8.9427   -8.0097    0.0000 C   0  0  0  0  0  0  0  0  0  0  0  0
    8.9427   -7.1847    0.0000 C   0  0  0  0  0  0  0  0  0  0  0  0
    9.6572   -6.7722    0.0000 C   0  0  0  0  0  0  0  0  0  0  0  0
   10.3716   -7.1847    0.0000 C   0  0  0  0  0  0  0  0  0  0  0  0
   10.3716   -8.0097    0.0000 C   0  0  0  0  0  0  0  0  0  0  0  0
    9.6572   -8.4222    0.0000 C   0  0  0  0  0  0  0  0  0  0  0  0
    8.2282   -6.7722    0.0000 O   0  0  0  0  0  0  0  0  0  0  0  0
   11.0861   -6.7722    0.0000 O   0  0  0  0  0  0  0  0  0  0  0  0
    6.0848   -8.0097    0.0000 C   0  0  0  0  0  0  0  0  0  0  0  0
    5.3703   -8.4222    0.0000 C   0  0  0  0  0  0  0  0  0  0  0  0
    5.3703   -9.2472    0.0000 C   0  0  0  0  0  0  0  0  0  0  0  0
    4.6559   -9.6597    0.0000 C   0  0  0  0  0  0  0  0  0  0  0  0
    3.9414   -9.2472    0.0000 C   0  0  0  0  0  0  0  0  0  0  0  0
    3.9414   -8.4222    0.0000 C   0  0  0  0  0  0  0  0  0  0  0  0
    4.6559   -8.0097    0.0000 C   0  0  0  0  0  0  0  0  0  0  0  0
    6.0848   -7.1847    0.0000 O   0  0  0  0  0  0  0  0  0  0  0  0
  2  3  1  0  0  0  0
  3  1  1  0  0  0  0
  3  4  1  0  0  0  0
  4  5  1  0  0  0  0
  5  6  1  0  0  0  0
  6  7  2  0  0  0  0
  7  8  1  0  0  0  0
  8  9  2  0  0  0  0
  9 10  1  0  0  0  0
  5 10  2  0  0  0  0
  1 11  1  0  0  0  0
  8 12  1  0  0  0  0
 13 14  1  0  0  0  0
 14 15  1  0  0  0  0
 15 16  2  0  0  0  0
 16 17  1  0  0  0  0
 17 18  2  0  0  0  0
 18 19  1  0  0  0  0
 14 19  2  0  0  0  0
 13 20  2  0  0  0  0
  2 13  1  0  0  0  0
M  END
>  <cdx:fragmentId>
2908

$$$$
