53393572.cdx
  Mrv1902 05222410242D          

 16 17  0  0  0  0            999 V2000
    8.1505  -14.4169    0.0000 C   0  0  0  0  0  0  0  0  0  0  0  0
    8.8650  -14.0044    0.0000 C   0  0  0  0  0  0  0  0  0  0  0  0
    9.5795  -14.4169    0.0000 C   0  0  0  0  0  0  0  0  0  0  0  0
    8.1505  -15.2419    0.0000 O   0  0  0  0  0  0  0  0  0  0  0  0
    7.4360  -14.0044    0.0000 O   0  0  0  0  0  0  0  0  0  0  0  0
    6.0071  -14.0044    0.0000 C   0  0  1  0  0  0  0  0  0  0  0  0
    6.7216  -14.4169    0.0000 C   0  0  1  0  0  0  0  0  0  0  0  0
    6.7216  -15.2419    0.0000 C   0  0  0  0  0  0  0  0  0  0  0  0
    6.0071  -15.6544    0.0000 C   0  0  2  0  0  0  0  0  0  0  0  0
    5.2926  -15.2419    0.0000 C   0  0  0  0  0  0  0  0  0  0  0  0
    5.2926  -14.4169    0.0000 C   0  0  0  0  0  0  0  0  0  0  0  0
    5.6715  -14.8298    0.0000 C   0  0  0  0  0  0  0  0  0  0  0  0
    4.9570  -15.2423    0.0000 C   0  0  0  0  0  0  0  0  0  0  0  0
    4.9570  -14.4173    0.0000 C   0  0  0  0  0  0  0  0  0  0  0  0
    6.0071  -13.1794    0.0000 C   0  0  0  0  0  0  0  0  0  0  0  0
    6.0071  -16.4794    0.0000 H   0  0  0  0  0  0  0  0  0  0  0  0
  1  2  1  0  0  0  0
  2  3  1  0  0  0  0
  1  4  2  0  0  0  0
  1  5  1  0  0  0  0
  6  7  1  0  0  0  0
  7  8  1  0  0  0  0
  8  9  1  0  0  0  0
  9 10  1  0  0  0  0
 10 11  1  0  0  0  0
  6 11  1  0  0  0  0
  6 12  1  1  0  0  0
  9 12  1  1  0  0  0
 12 13  1  0  0  0  0
 12 14  1  0  0  0  0
  6 15  1  0  0  0  0
  7  5  1  6  0  0  0
  9 16  1  0  0  0  0
M  END
>  <cdx:groupId>
187664

>  <cdx:fragmentId>
187628

$$$$
