1852.cdx
  Mrv1902 05222410232D          

 56 62  0  0  0  0            999 V2000
    7.7636   -9.0815    0.0000 C   0  0  0  0  0  0  0  0  0  0  0  0
    8.4756   -9.4925    0.0000 C   0  0  0  0  0  0  0  0  0  0  0  0
    9.1876   -9.0815    0.0000 C   0  0  0  0  0  0  0  0  0  0  0  0
    9.8996   -9.4925    0.0000 O   0  0  0  0  0  0  0  0  0  0  0  0
    9.1876   -8.2593    0.0000 C   0  0  0  0  0  0  0  0  0  0  0  0
    9.8996   -7.8483    0.0000 O   0  0  0  0  0  0  0  0  0  0  0  0
    8.4756   -7.8483    0.0000 C   0  0  0  0  0  0  0  0  0  0  0  0
    7.7636   -8.2593    0.0000 C   0  0  0  0  0  0  0  0  0  0  0  0
   10.6116   -9.0815    0.0000 C   0  0  0  0  0  0  0  0  0  0  0  0
   10.6116   -8.2593    0.0000 C   0  0  0  0  0  0  0  0  0  0  0  0
   11.3235   -7.8483    0.0000 C   0  0  0  0  0  0  0  0  0  0  0  0
   12.0355   -8.2593    0.0000 C   0  0  0  0  0  0  0  0  0  0  0  0
   12.7475   -7.8483    0.0000 C   0  0  0  0  0  0  0  0  0  0  0  0
   13.4595   -8.2593    0.0000 O   0  0  0  0  0  0  0  0  0  0  0  0
   12.7475   -7.0261    0.0000 C   0  0  0  0  0  0  0  0  0  0  0  0
   13.4595   -6.6151    0.0000 O   0  0  0  0  0  0  0  0  0  0  0  0
   12.0355   -6.6151    0.0000 C   0  0  0  0  0  0  0  0  0  0  0  0
   11.3235   -7.0261    0.0000 C   0  0  0  0  0  0  0  0  0  0  0  0
   14.1715   -7.8483    0.0000 C   0  0  0  0  0  0  0  0  0  0  0  0
   14.1715   -7.0261    0.0000 C   0  0  0  0  0  0  0  0  0  0  0  0
   11.3235   -9.4925    0.0000 N   0  0  0  0  0  0  0  0  0  0  0  0
   11.3235  -10.3147    0.0000 C   0  0  0  0  0  0  0  0  0  0  0  0
   10.6116  -10.7257    0.0000 C   0  0  0  0  0  0  0  0  0  0  0  0
   12.0355  -10.7257    0.0000 O   0  0  0  0  0  0  0  0  0  0  0  0
   14.8835   -9.0815    0.0000 C   0  0  0  0  0  0  0  0  0  0  0  0
   15.5955   -9.4925    0.0000 C   0  0  0  0  0  0  0  0  0  0  0  0
   16.3075   -9.0815    0.0000 C   0  0  0  0  0  0  0  0  0  0  0  0
   17.0195   -9.4925    0.0000 O   0  0  0  0  0  0  0  0  0  0  0  0
   16.3075   -8.2593    0.0000 C   0  0  0  0  0  0  0  0  0  0  0  0
   17.0195   -7.8483    0.0000 O   0  0  0  0  0  0  0  0  0  0  0  0
   15.5955   -7.8483    0.0000 C   0  0  0  0  0  0  0  0  0  0  0  0
   14.8835   -8.2593    0.0000 C   0  0  0  0  0  0  0  0  0  0  0  0
   17.7315   -9.0815    0.0000 C   0  0  0  0  0  0  0  0  0  0  0  0
   17.7315   -8.2593    0.0000 C   0  0  0  0  0  0  0  0  0  0  0  0
   18.4435   -9.4925    0.0000 N   0  0  0  0  0  0  0  0  0  0  0  0
   18.4435  -10.3147    0.0000 C   0  0  0  0  0  0  0  0  0  0  0  0
   17.7315  -10.7257    0.0000 C   0  0  0  0  0  0  0  0  0  0  0  0
   19.1554  -10.7257    0.0000 O   0  0  0  0  0  0  0  0  0  0  0  0
   18.4435   -7.8483    0.0000 C   0  0  0  0  0  0  0  0  0  0  0  0
   19.1554   -8.2593    0.0000 C   0  0  0  0  0  0  0  0  0  0  0  0
   20.5794   -8.2593    0.0000 O   0  0  0  0  0  0  0  0  0  0  0  0
   19.8674   -7.8483    0.0000 C   0  0  0  0  0  0  0  0  0  0  0  0
   19.8674   -7.0261    0.0000 C   0  0  0  0  0  0  0  0  0  0  0  0
   19.1554   -6.6151    0.0000 C   0  0  0  0  0  0  0  0  0  0  0  0
   18.4435   -7.0261    0.0000 C   0  0  0  0  0  0  0  0  0  0  0  0
   14.8835   -6.6151    0.0000 N   0  0  0  0  0  0  0  0  0  0  0  0
   14.8835   -5.7929    0.0000 C   0  0  0  0  0  0  0  0  0  0  0  0
   14.1715   -5.3819    0.0000 O   0  0  0  0  0  0  0  0  0  0  0  0
   15.5955   -5.3819    0.0000 C   0  0  0  0  0  0  0  0  0  0  0  0
    7.0516   -7.8483    0.0000 C   0  0  0  0  0  0  0  0  0  0  0  0
    6.3396   -8.2593    0.0000 C   0  0  0  0  0  0  0  0  0  0  0  0
    5.6276   -7.8483    0.0000 N   0  0  0  0  0  0  0  0  0  0  0  0
    4.9156   -8.2593    0.0000 C   0  0  0  0  0  0  0  0  0  0  0  0
    4.2036   -7.8483    0.0000 C   0  0  0  0  0  0  0  0  0  0  0  0
    4.9156   -9.0815    0.0000 O   0  0  0  0  0  0  0  0  0  0  0  0
   20.5794   -6.6151    0.0000 O   0  0  0  0  0  0  0  0  0  0  0  0
  1  2  1  0  0  0  0
  2  3  2  0  0  0  0
  3  4  1  0  0  0  0
  3  5  1  0  0  0  0
  5  6  1  0  0  0  0
  5  7  2  0  0  0  0
  7  8  1  0  0  0  0
  1  8  2  0  0  0  0
  4  9  1  0  0  0  0
  9 10  1  0  0  0  0
 10  6  1  0  0  0  0
 11 12  1  0  0  0  0
 12 13  2  0  0  0  0
 13 14  1  0  0  0  0
 13 15  1  0  0  0  0
 15 16  1  0  0  0  0
 15 17  2  0  0  0  0
 17 18  1  0  0  0  0
 11 18  2  0  0  0  0
 14 19  1  0  0  0  0
 19 20  1  0  0  0  0
 20 16  1  0  0  0  0
 10 11  1  0  0  0  0
  9 21  1  0  0  0  0
 21 22  1  0  0  0  0
 22 23  1  0  0  0  0
 22 24  2  0  0  0  0
 25 26  1  0  0  0  0
 26 27  2  0  0  0  0
 27 28  1  0  0  0  0
 27 29  1  0  0  0  0
 29 30  1  0  0  0  0
 29 31  2  0  0  0  0
 31 32  1  0  0  0  0
 25 32  2  0  0  0  0
 28 33  1  0  0  0  0
 33 34  1  0  0  0  0
 34 30  1  0  0  0  0
 33 35  1  0  0  0  0
 35 36  1  0  0  0  0
 36 37  1  0  0  0  0
 36 38  2  0  0  0  0
 19 32  1  0  0  0  0
 45 39  2  0  0  0  0
 40 39  1  0  0  0  0
 42 40  2  0  0  0  0
 42 41  1  0  0  0  0
 43 42  1  0  0  0  0
 44 43  2  0  0  0  0
 45 44  1  0  0  0  0
 39 34  1  0  0  0  0
 20 46  1  0  0  0  0
 46 47  1  0  0  0  0
 47 48  2  0  0  0  0
 47 49  1  0  0  0  0
  8 50  1  0  0  0  0
 50 51  1  0  0  0  0
 51 52  1  0  0  0  0
 52 53  1  0  0  0  0
 53 54  1  0  0  0  0
 53 55  2  0  0  0  0
 43 56  1  0  0  0  0
M  END
>  <cdx:groupId>
2702

>  <cdx:fragmentId>
2663

$$$$
