1853.cdx
  Mrv1902 05222410232D          

 28 30  0  0  0  0            999 V2000
    7.7636   -9.0815    0.0000 C   0  0  0  0  0  0  0  0  0  0  0  0
    8.4756   -9.4925    0.0000 C   0  0  0  0  0  0  0  0  0  0  0  0
    9.1876   -9.0815    0.0000 C   0  0  0  0  0  0  0  0  0  0  0  0
    9.8996   -9.4925    0.0000 O   0  0  0  0  0  0  0  0  0  0  0  0
    9.1876   -8.2593    0.0000 C   0  0  0  0  0  0  0  0  0  0  0  0
    9.8996   -7.8483    0.0000 O   0  0  0  0  0  0  0  0  0  0  0  0
    8.4756   -7.8483    0.0000 C   0  0  0  0  0  0  0  0  0  0  0  0
    7.7636   -8.2593    0.0000 C   0  0  0  0  0  0  0  0  0  0  0  0
   10.6116   -9.0815    0.0000 C   0  0  0  0  0  0  0  0  0  0  0  0
   10.6116   -8.2593    0.0000 C   0  0  0  0  0  0  0  0  0  0  0  0
   11.3235   -7.8483    0.0000 C   0  0  0  0  0  0  0  0  0  0  0  0
   12.0355   -8.2593    0.0000 C   0  0  0  0  0  0  0  0  0  0  0  0
   12.7475   -7.8483    0.0000 C   0  0  0  0  0  0  0  0  0  0  0  0
   13.4595   -8.2593    0.0000 O   0  0  0  0  0  0  0  0  0  0  0  0
   12.7475   -7.0261    0.0000 C   0  0  0  0  0  0  0  0  0  0  0  0
   13.4595   -6.6151    0.0000 O   0  0  0  0  0  0  0  0  0  0  0  0
   12.0355   -6.6151    0.0000 C   0  0  0  0  0  0  0  0  0  0  0  0
   11.3235   -7.0261    0.0000 C   0  0  0  0  0  0  0  0  0  0  0  0
   11.3235   -9.4925    0.0000 N   0  0  0  0  0  0  0  0  0  0  0  0
   11.3235  -10.3147    0.0000 C   0  0  0  0  0  0  0  0  0  0  0  0
   10.6116  -10.7257    0.0000 C   0  0  0  0  0  0  0  0  0  0  0  0
   12.0355  -10.7257    0.0000 O   0  0  0  0  0  0  0  0  0  0  0  0
    7.0516   -7.8483    0.0000 C   0  0  0  0  0  0  0  0  0  0  0  0
    6.3396   -8.2593    0.0000 C   0  0  0  0  0  0  0  0  0  0  0  0
    5.6276   -7.8483    0.0000 N   0  0  0  0  0  0  0  0  0  0  0  0
    4.9156   -8.2593    0.0000 C   0  0  0  0  0  0  0  0  0  0  0  0
    4.2036   -7.8483    0.0000 C   0  0  0  0  0  0  0  0  0  0  0  0
    4.9156   -9.0815    0.0000 O   0  0  0  0  0  0  0  0  0  0  0  0
  1  2  1  0  0  0  0
  2  3  2  0  0  0  0
  3  4  1  0  0  0  0
  3  5  1  0  0  0  0
  5  6  1  0  0  0  0
  5  7  2  0  0  0  0
  7  8  1  0  0  0  0
  1  8  2  0  0  0  0
  4  9  1  0  0  0  0
  9 10  1  0  0  0  0
 10  6  1  0  0  0  0
 11 12  1  0  0  0  0
 12 13  2  0  0  0  0
 13 14  1  0  0  0  0
 13 15  1  0  0  0  0
 15 16  1  0  0  0  0
 15 17  2  0  0  0  0
 17 18  1  0  0  0  0
 11 18  2  0  0  0  0
 10 11  1  0  0  0  0
  9 19  1  0  0  0  0
 19 20  1  0  0  0  0
 20 21  1  0  0  0  0
 20 22  2  0  0  0  0
  8 23  1  0  0  0  0
 23 24  2  0  0  0  0
 24 25  1  0  0  0  0
 25 26  1  0  0  0  0
 26 27  1  0  0  0  0
 26 28  2  0  0  0  0
M  END
>  <cdx:groupId>
2702

>  <cdx:fragmentId>
2663

$$$$
