393599.cdx
  Mrv1902 05222410242D          

 43 48  0  0  0  0            999 V2000
   10.4108   -6.6591    0.0000 C   0  0  0  0  0  0  0  0  0  0  0  0
   10.4108   -7.4841    0.0000 C   0  0  0  0  0  0  0  0  0  0  0  0
    9.6963   -7.8966    0.0000 C   0  0  1  0  0  0  0  0  0  0  0  0
    8.9818   -7.4841    0.0000 C   0  0  0  0  0  0  0  0  0  0  0  0
    8.2674   -7.8966    0.0000 C   0  0  0  0  0  0  0  0  0  0  0  0
    7.5529   -7.4841    0.0000 C   0  0  0  0  0  0  0  0  0  0  0  0
    7.5529   -6.6591    0.0000 C   0  0  0  0  0  0  0  0  0  0  0  0
    8.2674   -6.2466    0.0000 C   0  0  0  0  0  0  0  0  0  0  0  0
    8.9818   -6.6591    0.0000 C   0  0  0  0  0  0  0  0  0  0  0  0
    9.6963   -6.2466    0.0000 O   0  0  0  0  0  0  0  0  0  0  0  0
    6.8384   -7.8966    0.0000 C   0  0  0  0  0  0  0  0  0  0  0  0
    6.8384   -8.7216    0.0000 C   0  0  1  0  0  0  0  0  0  0  0  0
    7.5529   -9.1341    0.0000 C   0  0  2  0  0  0  0  0  0  0  0  0
    8.2674   -8.7216    0.0000 O   0  0  0  0  0  0  0  0  0  0  0  0
   11.1252   -6.2466    0.0000 O   0  0  0  0  0  0  0  0  0  0  0  0
    6.8384   -6.2466    0.0000 O   0  0  0  0  0  0  0  0  0  0  0  0
    9.6963   -8.7216    0.0000 C   0  0  0  0  0  0  0  0  0  0  0  0
   10.4108   -9.1341    0.0000 C   0  0  0  0  0  0  0  0  0  0  0  0
   10.4108   -9.9591    0.0000 C   0  0  0  0  0  0  0  0  0  0  0  0
    9.6963  -10.3716    0.0000 C   0  0  0  0  0  0  0  0  0  0  0  0
    8.9818   -9.9591    0.0000 C   0  0  0  0  0  0  0  0  0  0  0  0
    8.9818   -9.1341    0.0000 C   0  0  0  0  0  0  0  0  0  0  0  0
    9.6963  -11.1966    0.0000 O   0  0  0  0  0  0  0  0  0  0  0  0
   11.1252  -10.3716    0.0000 O   0  0  0  0  0  0  0  0  0  0  0  0
    7.5529   -9.9591    0.0000 C   0  0  0  0  0  0  0  0  0  0  0  0
    8.2674  -10.3716    0.0000 C   0  0  0  0  0  0  0  0  0  0  0  0
    8.2674  -11.1966    0.0000 C   0  0  0  0  0  0  0  0  0  0  0  0
    7.5529  -11.6091    0.0000 C   0  0  0  0  0  0  0  0  0  0  0  0
    6.8384  -11.1966    0.0000 C   0  0  0  0  0  0  0  0  0  0  0  0
    6.8384  -10.3716    0.0000 C   0  0  0  0  0  0  0  0  0  0  0  0
    7.5529  -12.4341    0.0000 O   0  0  0  0  0  0  0  0  0  0  0  0
    8.9818  -11.6091    0.0000 O   0  0  0  0  0  0  0  0  0  0  0  0
    4.6948   -9.9588    0.0000 O   0  0  0  0  0  0  0  0  0  0  0  0
    3.2661   -9.1335    0.0000 O   0  0  0  0  0  0  0  0  0  0  0  0
    3.2664   -7.4835    0.0000 O   0  0  0  0  0  0  0  0  0  0  0  0
    4.6955   -6.6588    0.0000 C   0  0  0  0  0  0  0  0  0  0  0  0
    4.6954   -7.4838    0.0000 C   0  0  1  0  0  0  0  0  0  0  0  0
    3.9808   -7.8962    0.0000 C   0  0  1  0  0  0  0  0  0  0  0  0
    3.9806   -8.7212    0.0000 C   0  0  2  0  0  0  0  0  0  0  0  0
    4.6950   -9.1338    0.0000 C   0  0  2  0  0  0  0  0  0  0  0  0
    5.4096   -8.7215    0.0000 C   0  0  1  0  0  0  0  0  0  0  0  0
    5.4097   -7.8965    0.0000 O   0  0  0  0  0  0  0  0  0  0  0  0
    6.1239   -9.1341    0.0000 O   0  0  0  0  0  0  0  0  0  0  0  0
 41 43  1  1  0  0  0
 40 33  1  6  0  0  0
 39 34  1  6  0  0  0
 38 35  1  1  0  0  0
 37 36  1  6  0  0  0
 42 37  1  0  0  0  0
 38 37  1  0  0  0  0
 39 38  1  0  0  0  0
 40 39  1  0  0  0  0
 41 40  1  0  0  0  0
 42 41  1  0  0  0  0
  1  2  1  0  0  0  0
  2  3  1  0  0  0  0
  3  4  1  0  0  0  0
  4  5  1  0  0  0  0
  5  6  2  0  0  0  0
  6  7  1  0  0  0  0
  7  8  2  0  0  0  0
  8  9  1  0  0  0  0
  4  9  2  0  0  0  0
  9 10  1  0  0  0  0
  1 10  1  0  0  0  0
 11 12  1  0  0  0  0
 12 13  1  0  0  0  0
 13 14  1  0  0  0  0
 14  5  1  0  0  0  0
 11  6  1  0  0  0  0
  1 15  2  0  0  0  0
 12 43  1  1  0  0  0
  7 16  1  0  0  0  0
 17 18  1  0  0  0  0
 18 19  2  0  0  0  0
 19 20  1  0  0  0  0
 20 21  2  0  0  0  0
 21 22  1  0  0  0  0
 17 22  2  0  0  0  0
 20 23  1  0  0  0  0
 19 24  1  0  0  0  0
  3 17  1  6  0  0  0
 25 26  1  0  0  0  0
 26 27  2  0  0  0  0
 27 28  1  0  0  0  0
 28 29  2  0  0  0  0
 29 30  1  0  0  0  0
 25 30  2  0  0  0  0
 28 31  1  0  0  0  0
 27 32  1  0  0  0  0
 13 25  1  6  0  0  0
M  END
>  <cdx:fragmentId>
5

$$$$
