39359.cdx
  Mrv1902 05222410212D          

 31 30  0  0  0  0            999 V2000
    8.3224   -6.9356    0.0000 O   0  0  0  0  0  0  0  0  0  0  0  0
    0.4632   -5.6981    0.0000 C   0  0  0  0  0  0  0  0  0  0  0  0
    1.1777   -6.1106    0.0000 C   0  0  0  0  0  0  0  0  0  0  0  0
    1.8921   -5.6981    0.0000 C   0  0  0  0  0  0  0  0  0  0  0  0
    2.6066   -6.1106    0.0000 C   0  0  0  0  0  0  0  0  0  0  0  0
    3.3211   -5.6981    0.0000 C   0  0  0  0  0  0  0  0  0  0  0  0
    4.0355   -6.1106    0.0000 C   0  0  0  0  0  0  0  0  0  0  0  0
    4.7500   -5.6981    0.0000 C   0  0  0  0  0  0  0  0  0  0  0  0
    5.4645   -6.1106    0.0000 C   0  0  0  0  0  0  0  0  0  0  0  0
    6.1789   -5.6981    0.0000 C   0  0  0  0  0  0  0  0  0  0  0  0
    6.8934   -6.1106    0.0000 C   0  0  0  0  0  0  0  0  0  0  0  0
    7.6079   -5.6981    0.0000 C   0  0  0  0  0  0  0  0  0  0  0  0
    8.3224   -6.1106    0.0000 C   0  0  0  0  0  0  0  0  0  0  0  0
   12.6092   -8.5856    0.0000 C   0  0  0  0  0  0  0  0  0  0  0  0
   11.8947   -8.1731    0.0000 C   0  0  0  0  0  0  0  0  0  0  0  0
   11.8947   -7.3481    0.0000 C   0  0  0  0  0  0  0  0  0  0  0  0
   11.1802   -6.9356    0.0000 C   0  0  0  0  0  0  0  0  0  0  0  0
   14.0381   -6.1106    0.0000 C   0  0  0  0  0  0  0  0  0  0  0  0
   13.3237   -5.6981    0.0000 C   0  0  0  0  0  0  0  0  0  0  0  0
   12.6092   -6.1106    0.0000 C   0  0  0  0  0  0  0  0  0  0  0  0
   11.8947   -5.6981    0.0000 C   0  0  0  0  0  0  0  0  0  0  0  0
   11.1802   -6.1106    0.0000 N   0  0  0  0  0  0  0  0  0  0  0  0
   10.4658   -4.8731    0.0000 O   0  0  0  0  0  0  0  0  0  0  0  0
   11.1802   -8.5856    0.0000 O   0  0  0  0  0  0  0  0  0  0  0  0
    9.7513   -8.5856    0.0000 O   0  0  0  0  0  0  0  0  0  0  0  0
   10.4658   -8.1731    0.0000 C   0  0  0  0  0  0  0  0  0  0  0  0
   10.4658   -7.3481    0.0000 C   0  0  0  0  0  0  0  0  0  0  0  0
    9.7513   -6.9356    0.0000 C   0  0  0  0  0  0  0  0  0  0  0  0
    9.7513   -6.1106    0.0000 C   0  0  2  0  0  0  0  0  0  0  0  0
    9.0368   -5.6981    0.0000 N   0  0  0  0  0  0  0  0  0  0  0  0
   10.4658   -5.6981    0.0000 C   0  0  0  0  0  0  0  0  0  0  0  0
 30 13  1  0  0  0  0
 13  1  2  0  0  0  0
  3  2  1  0  0  0  0
  4  3  1  0  0  0  0
  5  4  1  0  0  0  0
  6  5  1  0  0  0  0
  7  6  1  0  0  0  0
  8  7  1  0  0  0  0
  9  8  1  0  0  0  0
 10  9  1  0  0  0  0
 11 10  1  0  0  0  0
 12 11  1  0  0  0  0
 13 12  1  0  0  0  0
 31 22  1  0  0  0  0
 22 17  1  0  0  0  0
 15 14  1  0  0  0  0
 16 15  1  0  0  0  0
 17 16  1  0  0  0  0
 22 21  1  0  0  0  0
 19 18  1  0  0  0  0
 20 19  1  0  0  0  0
 21 20  1  0  0  0  0
 31 23  2  0  0  0  0
 26 24  1  0  0  0  0
 26 25  2  0  0  0  0
 27 26  1  0  0  0  0
 28 27  1  0  0  0  0
 29 28  1  0  0  0  0
 31 29  1  0  0  0  0
 29 30  1  6  0  0  0
M  END
>  <cdx:groupId>
3489

>  <cdx:fragmentId>
3420

$$$$
