1866.cdx
  Mrv1902 05222410202D          

 26 26  0  0  0  0            999 V2000
   20.1085   -8.7085    0.0000 C   0  0  0  0  0  0  0  0  0  0  0  0
   19.3940   -9.1210    0.0000 C   0  0  0  0  0  0  0  0  0  0  0  0
   18.6796   -8.7085    0.0000 C   0  0  0  0  0  0  0  0  0  0  0  0
   17.9651   -9.1210    0.0000 C   0  0  0  0  0  0  0  0  0  0  0  0
   17.2506   -8.7085    0.0000 C   0  0  0  0  0  0  0  0  0  0  0  0
   16.5362   -9.1210    0.0000 C   0  0  0  0  0  0  0  0  0  0  0  0
   15.8217   -8.7085    0.0000 C   0  0  0  0  0  0  0  0  0  0  0  0
   15.1072   -9.1210    0.0000 C   0  0  0  0  0  0  0  0  0  0  0  0
   14.3928   -8.7085    0.0000 C   0  0  0  0  0  0  0  0  0  0  0  0
   13.6783   -9.1210    0.0000 C   0  0  0  0  0  0  0  0  0  0  0  0
   12.9638   -8.7085    0.0000 C   0  0  0  0  0  0  0  0  0  0  0  0
   12.2493   -9.1210    0.0000 C   0  0  0  0  0  0  0  0  0  0  0  0
   11.5349   -8.7085    0.0000 C   0  0  0  0  0  0  0  0  0  0  0  0
   10.8204   -9.1210    0.0000 C   0  0  0  0  0  0  0  0  0  0  0  0
   10.1059   -8.7085    0.0000 C   0  0  0  0  0  0  0  0  0  0  0  0
    9.3915   -9.1210    0.0000 C   0  0  0  0  0  0  0  0  0  0  0  0
    8.6770   -8.7085    0.0000 C   0  0  0  0  0  0  0  0  0  0  0  0
    7.9625   -9.1210    0.0000 C   0  0  0  0  0  0  0  0  0  0  0  0
   20.1085   -7.8835    0.0000 O   0  0  0  0  0  0  0  0  0  0  0  0
   20.8230   -9.1210    0.0000 N   0  0  0  0  0  0  0  0  0  0  0  0
   21.5375   -8.7085    0.0000 C   0  0  0  0  0  0  0  0  0  0  0  0
   21.5375   -7.8835    0.0000 C   0  0  0  0  0  0  0  0  0  0  0  0
   22.2519   -7.4710    0.0000 C   0  0  0  0  0  0  0  0  0  0  0  0
   22.9664   -7.8835    0.0000 C   0  0  0  0  0  0  0  0  0  0  0  0
   22.9664   -8.7085    0.0000 C   0  0  0  0  0  0  0  0  0  0  0  0
   22.2519   -9.1210    0.0000 C   0  0  0  0  0  0  0  0  0  0  0  0
  1  2  1  0  0  0  0
  2  3  1  0  0  0  0
  3  4  1  0  0  0  0
  4  5  1  0  0  0  0
  5  6  1  0  0  0  0
  6  7  1  0  0  0  0
  7  8  1  0  0  0  0
  8  9  1  0  0  0  0
  9 10  1  0  0  0  0
 10 11  1  0  0  0  0
 11 12  1  0  0  0  0
 12 13  1  0  0  0  0
 13 14  1  0  0  0  0
 14 15  1  0  0  0  0
 15 16  1  0  0  0  0
 16 17  1  0  0  0  0
 17 18  1  0  0  0  0
  1 19  2  0  0  0  0
  1 20  1  0  0  0  0
 21 22  1  0  0  0  0
 22 23  2  0  0  0  0
 23 24  1  0  0  0  0
 24 25  2  0  0  0  0
 25 26  1  0  0  0  0
 21 26  2  0  0  0  0
 20 21  1  0  0  0  0
M  END
>  <cdx:groupId>
4088

>  <cdx:fragmentId>
4013

$$$$
