1861.cdx
  Mrv1902 05222410222D          

 21 23  0  0  0  0            999 V2000
   15.4688   -9.0669    0.0000 C   0  0  0  0  0  0  0  0  0  0  0  0
   16.1832   -9.4794    0.0000 N   0  0  0  0  0  0  0  0  0  0  0  0
   16.1832  -10.3044    0.0000 C   0  0  0  0  0  0  0  0  0  0  0  0
   15.4688  -10.7169    0.0000 C   0  0  0  0  0  0  0  0  0  0  0  0
   14.7543  -10.3044    0.0000 C   0  0  0  0  0  0  0  0  0  0  0  0
   14.0398  -10.7169    0.0000 C   0  0  0  0  0  0  0  0  0  0  0  0
   13.3253  -10.3044    0.0000 C   0  0  0  0  0  0  0  0  0  0  0  0
   13.3253   -9.4794    0.0000 C   0  0  0  0  0  0  0  0  0  0  0  0
   14.0398   -9.0669    0.0000 C   0  0  0  0  0  0  0  0  0  0  0  0
   14.7543   -9.4794    0.0000 C   0  0  0  0  0  0  0  0  0  0  0  0
   12.6109  -10.7169    0.0000 O   0  0  0  0  0  0  0  0  0  0  0  0
   12.6109   -9.0669    0.0000 O   0  0  0  0  0  0  0  0  0  0  0  0
   16.8977   -9.0669    0.0000 C   0  0  0  0  0  0  0  0  0  0  0  0
   15.4688   -8.2419    0.0000 C   0  0  0  0  0  0  0  0  0  0  0  0
   16.1832   -7.8294    0.0000 C   0  0  0  0  0  0  0  0  0  0  0  0
   16.1832   -7.0044    0.0000 C   0  0  0  0  0  0  0  0  0  0  0  0
   16.8977   -6.5919    0.0000 C   0  0  0  0  0  0  0  0  0  0  0  0
   17.6122   -7.0044    0.0000 C   0  0  0  0  0  0  0  0  0  0  0  0
   17.6122   -7.8294    0.0000 C   0  0  0  0  0  0  0  0  0  0  0  0
   16.8977   -8.2419    0.0000 C   0  0  0  0  0  0  0  0  0  0  0  0
   18.3266   -6.5919    0.0000 O   0  0  0  0  0  0  0  0  0  0  0  0
  1  2  1  0  0  0  0
  2  3  1  0  0  0  0
  3  4  1  0  0  0  0
  4  5  1  0  0  0  0
  5  6  1  0  0  0  0
  6  7  2  0  0  0  0
  7  8  1  0  0  0  0
  8  9  2  0  0  0  0
  9 10  1  0  0  0  0
  1 10  1  0  0  0  0
  5 10  2  0  0  0  0
  7 11  1  0  0  0  0
  8 12  1  0  0  0  0
  2 13  1  0  0  0  0
 15 16  1  0  0  0  0
 16 17  2  0  0  0  0
 17 18  1  0  0  0  0
 18 19  2  0  0  0  0
 19 20  1  0  0  0  0
 15 20  2  0  0  0  0
 18 21  1  0  0  0  0
 14 15  1  0  0  0  0
  1 14  1  0  0  0  0
M  END
>  <cdx:groupId>
3668

>  <cdx:fragmentId>
3606

$$$$
