39379.cdx
  Mrv1902 05222410242D          

 44 46  0  0  0  0            999 V2000
   14.3565   -9.6060    0.0000 C   0  0  0  0  0  0  0  0  0  0  0  0
   15.0710  -10.0185    0.0000 C   0  0  0  0  0  0  0  0  0  0  0  0
   15.7854   -9.6060    0.0000 C   0  0  0  0  0  0  0  0  0  0  0  0
   14.3565   -8.7810    0.0000 O   0  0  0  0  0  0  0  0  0  0  0  0
   13.6420  -10.0185    0.0000 N   0  0  0  0  0  0  0  0  0  0  0  0
   16.4999  -10.0185    0.0000 C   0  0  0  0  0  0  0  0  0  0  0  0
   17.2144   -9.6060    0.0000 C   0  0  0  0  0  0  0  0  0  0  0  0
   17.9288  -10.0185    0.0000 C   0  0  0  0  0  0  0  0  0  0  0  0
   17.9288  -10.8435    0.0000 C   0  0  0  0  0  0  0  0  0  0  0  0
   17.2144  -11.2560    0.0000 C   0  0  0  0  0  0  0  0  0  0  0  0
   16.4999  -10.8435    0.0000 C   0  0  0  0  0  0  0  0  0  0  0  0
   18.6433  -11.2560    0.0000 O   0  0  0  0  0  0  0  0  0  0  0  0
   12.9275   -9.6060    0.0000 C   0  0  0  0  0  0  0  0  0  0  0  0
   12.2131  -10.0185    0.0000 C   0  0  0  0  0  0  0  0  0  0  0  0
   11.4986   -9.6060    0.0000 C   0  0  0  0  0  0  0  0  0  0  0  0
   10.7841  -10.0185    0.0000 C   0  0  0  0  0  0  0  0  0  0  0  0
   10.0697   -9.6060    0.0000 N   0  0  0  0  0  0  0  0  0  0  0  0
   10.0697   -8.7810    0.0000 C   0  0  0  0  0  0  0  0  0  0  0  0
    9.3552   -8.3685    0.0000 C   0  0  0  0  0  0  0  0  0  0  0  0
    9.3552   -7.5435    0.0000 C   0  0  0  0  0  0  0  0  0  0  0  0
   10.7841   -8.3685    0.0000 O   0  0  0  0  0  0  0  0  0  0  0  0
    8.6407   -7.1310    0.0000 C   0  0  0  0  0  0  0  0  0  0  0  0
    7.9263   -7.5435    0.0000 C   0  0  0  0  0  0  0  0  0  0  0  0
    7.2118   -7.1310    0.0000 C   0  0  0  0  0  0  0  0  0  0  0  0
    7.2118   -6.3060    0.0000 C   0  0  0  0  0  0  0  0  0  0  0  0
    7.9263   -5.8935    0.0000 C   0  0  0  0  0  0  0  0  0  0  0  0
    8.6407   -6.3060    0.0000 C   0  0  0  0  0  0  0  0  0  0  0  0
    6.4973   -5.8935    0.0000 O   0  0  0  0  0  0  0  0  0  0  0  0
    9.3552  -10.0185    0.0000 C   0  0  0  0  0  0  0  0  0  0  0  0
    8.6407   -9.6060    0.0000 C   0  0  0  0  0  0  0  0  0  0  0  0
    7.9263  -10.0185    0.0000 C   0  0  0  0  0  0  0  0  0  0  0  0
    7.2118   -9.6060    0.0000 N   0  0  0  0  0  0  0  0  0  0  0  0
    6.4973  -10.0185    0.0000 C   0  0  0  0  0  0  0  0  0  0  0  0
    5.7828   -9.6060    0.0000 C   0  0  0  0  0  0  0  0  0  0  0  0
    5.0684  -10.0185    0.0000 C   0  0  0  0  0  0  0  0  0  0  0  0
    6.4973  -10.8435    0.0000 O   0  0  0  0  0  0  0  0  0  0  0  0
    4.3539   -9.6060    0.0000 C   0  0  0  0  0  0  0  0  0  0  0  0
    3.6394  -10.0185    0.0000 C   0  0  0  0  0  0  0  0  0  0  0  0
    2.9250   -9.6060    0.0000 C   0  0  0  0  0  0  0  0  0  0  0  0
    2.9250   -8.7810    0.0000 C   0  0  0  0  0  0  0  0  0  0  0  0
    3.6394   -8.3685    0.0000 C   0  0  0  0  0  0  0  0  0  0  0  0
    4.3539   -8.7810    0.0000 C   0  0  0  0  0  0  0  0  0  0  0  0
    2.2105   -8.3685    0.0000 O   0  0  0  0  0  0  0  0  0  0  0  0
    2.2105  -10.0185    0.0000 O   0  0  0  0  0  0  0  0  0  0  0  0
  1  2  1  0  0  0  0
  2  3  2  0  0  0  0
  1  4  2  0  0  0  0
  1  5  1  0  0  0  0
  6  7  1  0  0  0  0
  7  8  2  0  0  0  0
  8  9  1  0  0  0  0
  9 10  2  0  0  0  0
 10 11  1  0  0  0  0
  6 11  2  0  0  0  0
  9 12  1  0  0  0  0
  3  6  1  0  0  0  0
 13 14  1  0  0  0  0
 14 15  1  0  0  0  0
 15 16  1  0  0  0  0
 18 19  1  0  0  0  0
 19 20  2  0  0  0  0
 18 21  2  0  0  0  0
 22 23  1  0  0  0  0
 23 24  2  0  0  0  0
 24 25  1  0  0  0  0
 25 26  2  0  0  0  0
 26 27  1  0  0  0  0
 22 27  2  0  0  0  0
 25 28  1  0  0  0  0
 20 22  1  0  0  0  0
 17 18  1  0  0  0  0
 29 30  1  0  0  0  0
 30 31  1  0  0  0  0
 33 34  1  0  0  0  0
 34 35  2  0  0  0  0
 33 36  2  0  0  0  0
 37 38  1  0  0  0  0
 38 39  2  0  0  0  0
 39 40  1  0  0  0  0
 40 41  2  0  0  0  0
 41 42  1  0  0  0  0
 37 42  2  0  0  0  0
 40 43  1  0  0  0  0
 39 44  1  0  0  0  0
 35 37  1  0  0  0  0
 32 33  1  0  0  0  0
 31 32  1  0  0  0  0
 17 29  1  0  0  0  0
 16 17  1  0  0  0  0
  5 13  1  0  0  0  0
M  END
>  <cdx:fragmentId>
77

$$$$
