1876.cdx
  Mrv1902 05222410232D          

 25 28  0  0  0  0            999 V2000
    4.2176   -8.9833    0.0000 C   0  0  0  0  0  0  0  0  0  0  0  0
    4.2176   -9.8055    0.0000 C   0  0  0  0  0  0  0  0  0  0  0  0
    4.9296  -10.2165    0.0000 C   0  0  0  0  0  0  0  0  0  0  0  0
    5.6416   -9.8055    0.0000 C   0  0  0  0  0  0  0  0  0  0  0  0
    5.6416   -8.9833    0.0000 C   0  0  0  0  0  0  0  0  0  0  0  0
    4.9296   -8.5723    0.0000 C   0  0  0  0  0  0  0  0  0  0  0  0
    4.9296   -7.7501    0.0000 C   0  0  0  0  0  0  0  0  0  0  0  0
    4.2176   -7.3391    0.0000 N   0  3  0  0  0  0  0  0  0  0  0  0
    3.5056   -7.7501    0.0000 C   0  0  0  0  0  0  0  0  0  0  0  0
    3.5056   -8.5723    0.0000 C   0  0  0  0  0  0  0  0  0  0  0  0
    6.3535   -8.5723    0.0000 C   0  0  0  0  0  0  0  0  0  0  0  0
    6.3535   -7.7501    0.0000 C   0  0  0  0  0  0  0  0  0  0  0  0
    5.6416   -7.3391    0.0000 C   0  0  0  0  0  0  0  0  0  0  0  0
    7.0655   -8.9833    0.0000 C   0  0  0  0  0  0  0  0  0  0  0  0
    7.7775   -8.5723    0.0000 C   0  0  0  0  0  0  0  0  0  0  0  0
    7.7775   -7.7501    0.0000 C   0  0  0  0  0  0  0  0  0  0  0  0
    7.0655   -7.3391    0.0000 C   0  0  0  0  0  0  0  0  0  0  0  0
    3.8065   -6.6271    0.0000 C   0  0  0  0  0  0  0  0  0  0  0  0
    4.6286   -6.6271    0.0000 C   0  0  0  0  0  0  0  0  0  0  0  0
    4.9296  -11.0387    0.0000 O   0  0  0  0  0  0  0  0  0  0  0  0
    6.3535  -10.2165    0.0000 O   0  0  0  0  0  0  0  0  0  0  0  0
    6.3535  -11.0387    0.0000 C   0  0  0  0  0  0  0  0  0  0  0  0
    7.0655   -9.8055    0.0000 O   0  0  0  0  0  0  0  0  0  0  0  0
    8.4895   -8.9833    0.0000 O   0  0  0  0  0  0  0  0  0  0  0  0
    8.4895   -9.8055    0.0000 C   0  0  0  0  0  0  0  0  0  0  0  0
  1  2  2  0  0  0  0
  2  3  1  0  0  0  0
  3  4  2  0  0  0  0
  4  5  1  0  0  0  0
  5  6  2  0  0  0  0
  6  1  1  0  0  0  0
  6  7  1  0  0  0  0
  7  8  1  0  0  0  0
  8  9  1  0  0  0  0
  9 10  1  0  0  0  0
 10  1  1  0  0  0  0
  5 11  1  0  0  0  0
 11 12  2  0  0  0  0
 12 13  1  0  0  0  0
 13  7  1  0  0  0  0
 11 14  1  0  0  0  0
 14 15  2  0  0  0  0
 15 16  1  0  0  0  0
 16 17  2  0  0  0  0
 17 12  1  0  0  0  0
  8 18  1  0  0  0  0
  8 19  1  0  0  0  0
  3 20  1  0  0  0  0
  4 21  1  0  0  0  0
 21 22  1  0  0  0  0
 14 23  1  0  0  0  0
 15 24  1  0  0  0  0
 24 25  1  0  0  0  0
M  CHG  1   8   1
M  END
>  <cdx:fragmentId>
4799

$$$$
