39378.cdx
  Mrv1902 05222410242D          

 15 16  0  0  0  0            999 V2000
    5.0649   -8.8138    0.0000 C   0  0  0  0  0  0  0  0  0  0  0  0
    5.0649   -9.6387    0.0000 C   0  0  0  0  0  0  0  0  0  0  0  0
    5.7794  -10.0512    0.0000 C   0  0  0  0  0  0  0  0  0  0  0  0
    6.4939   -9.6387    0.0000 C   0  0  0  0  0  0  0  0  0  0  0  0
    6.4939   -8.8138    0.0000 C   0  0  0  0  0  0  0  0  0  0  0  0
    5.7794   -8.4013    0.0000 C   0  0  0  0  0  0  0  0  0  0  0  0
    7.2785   -9.8937    0.0000 N   0  0  0  0  0  0  0  0  0  0  0  0
    7.7634   -9.2263    0.0000 C   0  0  0  0  0  0  0  0  0  0  0  0
    7.2785   -8.5588    0.0000 C   0  0  0  0  0  0  0  0  0  0  0  0
    4.3505   -8.4013    0.0000 O   0  0  0  0  0  0  0  0  0  0  0  0
    7.5334   -7.7742    0.0000 C   0  0  0  0  0  0  0  0  0  0  0  0
    8.3303   -7.5607    0.0000 C   0  0  0  0  0  0  0  0  0  0  0  0
    8.5438   -6.7638    0.0000 N   0  0  0  0  0  0  0  0  0  0  0  0
    9.3407   -6.5502    0.0000 C   0  0  0  0  0  0  0  0  0  0  0  0
    9.9241   -7.1336    0.0000 O   0  0  0  0  0  0  0  0  0  0  0  0
  1  2  2  0  0  0  0
  2  3  1  0  0  0  0
  3  4  2  0  0  0  0
  4  5  1  0  0  0  0
  5  6  2  0  0  0  0
  6  1  1  0  0  0  0
  4  7  1  0  0  0  0
  7  8  1  0  0  0  0
  8  9  2  0  0  0  0
  9  5  1  0  0  0  0
  1 10  1  0  0  0  0
  9 11  1  0  0  0  0
 11 12  1  0  0  0  0
 12 13  1  0  0  0  0
 13 14  1  0  0  0  0
 14 15  2  0  0  0  0
M  END
>  <cdx:fragmentId>
5

$$$$
