39375.cdx
  Mrv1902 05222410222D          

 22 22  0  0  0  0            999 V2000
    9.6963   -9.2897    0.0000 C   0  0  0  0  0  0  0  0  0  0  0  0
   10.4108   -9.7022    0.0000 C   0  0  0  0  0  0  0  0  0  0  0  0
   11.8397   -9.7022    0.0000 O   0  0  0  0  0  0  0  0  0  0  0  0
   11.1252   -9.2897    0.0000 C   0  0  0  0  0  0  0  0  0  0  0  0
   12.5542   -8.4647    0.0000 C   0  0  0  0  0  0  0  0  0  0  0  0
   11.8397   -8.0522    0.0000 O   0  0  0  0  0  0  0  0  0  0  0  0
   11.1252   -8.4647    0.0000 C   0  0  0  0  0  0  0  0  0  0  0  0
   10.4108   -8.0522    0.0000 C   0  0  0  0  0  0  0  0  0  0  0  0
    9.6963   -8.4647    0.0000 C   0  0  0  0  0  0  0  0  0  0  0  0
    8.9818   -8.0522    0.0000 C   0  0  0  0  0  0  0  0  0  0  0  0
    1.8371   -8.0522    0.0000 C   0  0  0  0  0  0  0  0  0  0  0  0
    8.2674   -8.4647    0.0000 N   0  0  0  0  0  0  0  0  0  0  0  0
    7.5529   -7.2272    0.0000 O   0  0  0  0  0  0  0  0  0  0  0  0
    2.5516   -9.2897    0.0000 C   0  0  0  0  0  0  0  0  0  0  0  0
    2.5516   -8.4647    0.0000 C   0  0  0  0  0  0  0  0  0  0  0  0
    3.2661   -8.0522    0.0000 C   0  0  0  0  0  0  0  0  0  0  0  0
    3.9805   -8.4647    0.0000 C   0  0  0  0  0  0  0  0  0  0  0  0
    4.6950   -8.0522    0.0000 C   0  0  0  0  0  0  0  0  0  0  0  0
    5.4095   -8.4647    0.0000 C   0  0  0  0  0  0  0  0  0  0  0  0
    6.1239   -8.0522    0.0000 C   0  0  0  0  0  0  0  0  0  0  0  0
    6.8384   -8.4647    0.0000 C   0  0  0  0  0  0  0  0  0  0  0  0
    7.5529   -8.0522    0.0000 C   0  0  0  0  0  0  0  0  0  0  0  0
 12 10  1  0  0  0  0
  9  1  2  0  0  0  0
  2  1  1  0  0  0  0
  4  2  2  0  0  0  0
  4  3  1  0  0  0  0
  7  4  1  0  0  0  0
  6  5  1  0  0  0  0
  7  6  1  0  0  0  0
  8  7  2  0  0  0  0
  9  8  1  0  0  0  0
 10  9  1  0  0  0  0
 15 11  1  0  0  0  0
 22 12  1  0  0  0  0
 22 13  2  0  0  0  0
 15 14  1  0  0  0  0
 16 15  1  0  0  0  0
 17 16  2  0  0  0  0
 18 17  1  0  0  0  0
 19 18  2  0  0  0  0
 20 19  1  0  0  0  0
 21 20  1  0  0  0  0
 22 21  1  0  0  0  0
M  END
>  <cdx:fragmentId>
5

$$$$
