39377.cdx
  Mrv1902 05222410222D          

 26 31  0  0  0  0            999 V2000
    5.5364   -6.0430    0.0000 C   0  0  0  0  0  0  0  0  0  0  0  0
    5.2823   -6.8249    0.0000 C   0  0  0  0  0  0  0  0  0  0  0  0
    5.8325   -7.4358    0.0000 C   0  0  0  0  0  0  0  0  0  0  0  0
    6.6366   -7.2649    0.0000 C   0  0  0  0  0  0  0  0  0  0  0  0
    6.8907   -6.4830    0.0000 C   0  0  0  0  0  0  0  0  0  0  0  0
    6.3406   -5.8720    0.0000 C   0  0  0  0  0  0  0  0  0  0  0  0
    7.3018   -7.7481    0.0000 N   0  0  0  0  0  0  0  0  0  0  0  0
    7.9669   -7.2649    0.0000 C   0  0  0  0  0  0  0  0  0  0  0  0
    7.7128   -6.4830    0.0000 C   0  0  0  0  0  0  0  0  0  0  0  0
    8.7710   -7.4358    0.0000 C   0  0  0  0  0  0  0  0  0  0  0  0
    9.3212   -6.8249    0.0000 C   0  0  0  0  0  0  0  0  0  0  0  0
    9.0671   -6.0430    0.0000 C   0  0  0  0  0  0  0  0  0  0  0  0
    8.2629   -5.8720    0.0000 C   0  0  0  0  0  0  0  0  0  0  0  0
    9.0671  -10.2754    0.0000 C   0  0  0  0  0  0  0  0  0  0  0  0
    9.3212   -9.4935    0.0000 C   0  0  0  0  0  0  0  0  0  0  0  0
    8.7710   -8.8826    0.0000 C   0  0  0  0  0  0  0  0  0  0  0  0
    7.9669   -9.0535    0.0000 C   0  0  0  0  0  0  0  0  0  0  0  0
    7.7128   -9.8354    0.0000 C   0  0  0  0  0  0  0  0  0  0  0  0
    8.2629  -10.4464    0.0000 C   0  0  0  0  0  0  0  0  0  0  0  0
    7.3018   -8.5703    0.0000 N   0  0  0  0  0  0  0  0  0  0  0  0
    6.6366   -9.0535    0.0000 C   0  0  0  0  0  0  0  0  0  0  0  0
    6.8907   -9.8354    0.0000 C   0  0  0  0  0  0  0  0  0  0  0  0
    5.8325   -8.8826    0.0000 C   0  0  0  0  0  0  0  0  0  0  0  0
    5.2823   -9.4935    0.0000 C   0  0  0  0  0  0  0  0  0  0  0  0
    5.5364  -10.2754    0.0000 C   0  0  0  0  0  0  0  0  0  0  0  0
    6.3406  -10.4464    0.0000 C   0  0  0  0  0  0  0  0  0  0  0  0
  1  2  2  0  0  0  0
  2  3  1  0  0  0  0
  3  4  2  0  0  0  0
  4  5  1  0  0  0  0
  5  6  2  0  0  0  0
  6  1  1  0  0  0  0
  4  7  1  0  0  0  0
  7  8  1  0  0  0  0
  8  9  2  0  0  0  0
  9  5  1  0  0  0  0
  8 10  1  0  0  0  0
 10 11  2  0  0  0  0
 11 12  1  0  0  0  0
 12 13  2  0  0  0  0
 13  9  1  0  0  0  0
 14 15  2  0  0  0  0
 15 16  1  0  0  0  0
 16 17  2  0  0  0  0
 17 18  1  0  0  0  0
 18 19  2  0  0  0  0
 19 14  1  0  0  0  0
 17 20  1  0  0  0  0
 20 21  1  0  0  0  0
 21 22  2  0  0  0  0
 22 18  1  0  0  0  0
 21 23  1  0  0  0  0
 23 24  2  0  0  0  0
 24 25  1  0  0  0  0
 25 26  2  0  0  0  0
 26 22  1  0  0  0  0
  7 20  1  0  0  0  0
M  END
>  <cdx:fragmentId>
4912

$$$$
