39380.cdx
  Mrv1902 05222410252D          

 34 35  0  0  0  0            999 V2000
    2.2143   -6.4614    0.0000 C   0  0  0  0  0  0  0  0  0  0  0  0
    2.2143   -7.2864    0.0000 C   0  0  0  0  0  0  0  0  0  0  0  0
    2.9288   -7.6989    0.0000 C   0  0  0  0  0  0  0  0  0  0  0  0
    3.6432   -7.2864    0.0000 C   0  0  0  0  0  0  0  0  0  0  0  0
    3.6432   -6.4614    0.0000 C   0  0  0  0  0  0  0  0  0  0  0  0
    2.9288   -6.0489    0.0000 C   0  0  0  0  0  0  0  0  0  0  0  0
    4.3577   -7.6989    0.0000 C   0  0  0  0  0  0  0  0  0  0  0  0
    5.0722   -7.2864    0.0000 C   0  0  0  0  0  0  0  0  0  0  0  0
    5.7866   -7.6989    0.0000 C   0  0  0  0  0  0  0  0  0  0  0  0
    6.5011   -7.2864    0.0000 N   0  0  0  0  0  0  0  0  0  0  0  0
    5.7866   -8.5239    0.0000 O   0  0  0  0  0  0  0  0  0  0  0  0
    7.2156   -7.6989    0.0000 C   0  0  0  0  0  0  0  0  0  0  0  0
    7.9300   -7.2864    0.0000 C   0  0  0  0  0  0  0  0  0  0  0  0
    8.6445   -7.6989    0.0000 C   0  0  0  0  0  0  0  0  0  0  0  0
    9.3590   -7.2864    0.0000 C   0  0  0  0  0  0  0  0  0  0  0  0
   10.0735   -7.6989    0.0000 N   0  0  0  0  0  0  0  0  0  0  0  0
   10.7879   -7.2864    0.0000 C   0  0  0  0  0  0  0  0  0  0  0  0
   11.5024   -7.6989    0.0000 C   0  0  0  0  0  0  0  0  0  0  0  0
   12.2169   -7.2864    0.0000 C   0  0  0  0  0  0  0  0  0  0  0  0
   12.9313   -7.6989    0.0000 N   0  0  0  0  0  0  0  0  0  0  0  0
   13.6458   -7.2864    0.0000 C   0  0  0  0  0  0  0  0  0  0  0  0
   14.3603   -7.6989    0.0000 C   0  0  0  0  0  0  0  0  0  0  0  0
   13.6458   -6.4614    0.0000 O   0  0  0  0  0  0  0  0  0  0  0  0
   15.0748   -7.2864    0.0000 C   0  0  0  0  0  0  0  0  0  0  0  0
   15.7892   -7.6989    0.0000 C   0  0  0  0  0  0  0  0  0  0  0  0
   15.7892   -8.5239    0.0000 C   0  0  0  0  0  0  0  0  0  0  0  0
   16.5037   -8.9364    0.0000 C   0  0  0  0  0  0  0  0  0  0  0  0
   17.2182   -8.5239    0.0000 C   0  0  0  0  0  0  0  0  0  0  0  0
   17.2182   -7.6989    0.0000 C   0  0  0  0  0  0  0  0  0  0  0  0
   16.5037   -7.2864    0.0000 C   0  0  0  0  0  0  0  0  0  0  0  0
    1.4998   -6.0489    0.0000 O   0  0  0  0  0  0  0  0  0  0  0  0
    1.4998   -7.6989    0.0000 O   0  0  0  0  0  0  0  0  0  0  0  0
   16.5037   -9.7614    0.0000 O   0  0  0  0  0  0  0  0  0  0  0  0
   17.9326   -8.9364    0.0000 O   0  0  0  0  0  0  0  0  0  0  0  0
  1  2  2  0  0  0  0
  2  3  1  0  0  0  0
  3  4  2  0  0  0  0
  4  5  1  0  0  0  0
  5  6  2  0  0  0  0
  6  1  1  0  0  0  0
  4  7  1  0  0  0  0
  7  8  1  0  0  0  0
  8  9  1  0  0  0  0
  9 10  1  0  0  0  0
  9 11  2  0  0  0  0
 10 12  1  0  0  0  0
 12 13  1  0  0  0  0
 13 14  1  0  0  0  0
 14 15  1  0  0  0  0
 15 16  1  0  0  0  0
 16 17  1  0  0  0  0
 17 18  1  0  0  0  0
 18 19  1  0  0  0  0
 19 20  1  0  0  0  0
 20 21  1  0  0  0  0
 21 22  1  0  0  0  0
 21 23  2  0  0  0  0
 22 24  1  0  0  0  0
 24 25  1  0  0  0  0
 25 26  2  0  0  0  0
 26 27  1  0  0  0  0
 27 28  2  0  0  0  0
 28 29  1  0  0  0  0
 29 30  2  0  0  0  0
 30 25  1  0  0  0  0
  1 31  1  0  0  0  0
  2 32  1  0  0  0  0
 27 33  1  0  0  0  0
 28 34  1  0  0  0  0
M  END
>  <cdx:fragmentId>
5126

$$$$
