39388.cdx
  Mrv1902 05222410232D          

 37 41  0  0  0  0            999 V2000
    3.4356   -9.1987    0.0000 C   0  0  0  0  0  0  0  0  0  0  0  0
    3.4356  -10.0238    0.0000 C   0  0  0  0  0  0  0  0  0  0  0  0
    4.1500  -10.4363    0.0000 C   0  0  0  0  0  0  0  0  0  0  0  0
    4.8645  -10.0238    0.0000 C   0  0  1  0  0  0  0  0  0  0  0  0
    4.8645   -9.1987    0.0000 C   0  0  2  0  0  0  0  0  0  0  0  0
    4.1500   -8.7862    0.0000 C   0  0  0  0  0  0  0  0  0  0  0  0
    5.5790  -10.4363    0.0000 C   0  0  0  0  0  0  0  0  0  0  0  0
    6.2934  -10.0238    0.0000 C   0  0  0  0  0  0  0  0  0  0  0  0
    6.2934   -9.1987    0.0000 C   0  0  1  0  0  0  0  0  0  0  0  0
    5.5790   -8.7862    0.0000 C   0  0  1  0  0  0  0  0  0  0  0  0
    7.0079   -8.7862    0.0000 C   0  0  2  0  0  0  0  0  0  0  0  0
    7.0079   -7.9612    0.0000 C   0  0  0  0  0  0  0  0  0  0  0  0
    6.2934   -7.5488    0.0000 C   0  0  0  0  0  0  0  0  0  0  0  0
    5.5790   -7.9612    0.0000 C   0  0  2  0  0  0  0  0  0  0  0  0
    7.7925   -9.0412    0.0000 C   0  0  0  0  0  0  0  0  0  0  0  0
    8.2775   -8.3737    0.0000 C   0  0  0  0  0  0  0  0  0  0  0  0
    7.7925   -7.7063    0.0000 C   0  0  1  0  0  0  0  0  0  0  0  0
    2.7211  -10.4363    0.0000 O   0  0  0  0  0  0  0  0  0  0  0  0
    4.5625  -11.1507    0.0000 C   0  0  0  0  0  0  0  0  0  0  0  0
    4.8645   -8.3737    0.0000 C   0  0  0  0  0  0  0  0  0  0  0  0
    7.0079   -9.6112    0.0000 C   0  0  0  0  0  0  0  0  0  0  0  0
    6.2934   -8.3737    0.0000 C   0  0  0  0  0  0  0  0  0  0  0  0
    3.7375  -11.1507    0.0000 C   0  0  0  0  0  0  0  0  0  0  0  0
    4.8645   -7.5488    0.0000 O   0  0  0  0  0  0  0  0  0  0  0  0
    4.8645  -10.8488    0.0000 H   0  0  0  0  0  0  0  0  0  0  0  0
    5.5790   -9.6112    0.0000 H   0  0  0  0  0  0  0  0  0  0  0  0
    8.5772   -7.4514    0.0000 C   0  0  1  0  0  0  0  0  0  0  0  0
    8.5772   -6.6264    0.0000 C   0  0  0  0  0  0  0  0  0  0  0  0
    7.7925   -6.3714    0.0000 C   0  0  2  0  0  0  0  0  0  0  0  0
    7.3076   -7.0389    0.0000 O   0  0  0  0  0  0  0  0  0  0  0  0
    7.5376   -5.5868    0.0000 C   0  0  1  0  0  0  0  0  0  0  0  0
    8.0896   -4.9737    0.0000 C   0  0  0  0  0  0  0  0  0  0  0  0
    6.7306   -5.4153    0.0000 O   0  0  0  0  0  0  0  0  0  0  0  0
    7.5063   -4.3904    0.0000 C   0  0  0  0  0  0  0  0  0  0  0  0
    8.6730   -5.5571    0.0000 C   0  0  0  0  0  0  0  0  0  0  0  0
    8.6417   -4.3606    0.0000 O   0  0  0  0  0  0  0  0  0  0  0  0
    9.2446   -7.9363    0.0000 C   0  0  0  0  0  0  0  0  0  0  0  0
  1  2  1  0  0  0  0
  2  3  1  0  0  0  0
  3  4  1  0  0  0  0
  4  5  1  0  0  0  0
  5  6  1  0  0  0  0
  6  1  1  0  0  0  0
  4  7  1  0  0  0  0
  7  8  1  0  0  0  0
  8  9  1  0  0  0  0
  9 10  1  0  0  0  0
 10  5  1  0  0  0  0
  9 11  1  0  0  0  0
 11 12  1  0  0  0  0
 12 13  2  0  0  0  0
 13 14  1  0  0  0  0
 14 10  1  0  0  0  0
 11 15  1  0  0  0  0
 15 16  1  0  0  0  0
 17 16  1  1  0  0  0
 17 12  1  6  0  0  0
  2 18  2  0  0  0  0
  3 19  1  0  0  0  0
  5 20  1  1  0  0  0
 11 21  1  1  0  0  0
  9 22  1  6  0  0  0
  3 23  1  0  0  0  0
 14 24  1  1  0  0  0
  4 25  1  6  0  0  0
 10 26  1  1  0  0  0
 17 27  1  0  0  0  0
 27 28  1  0  0  0  0
 28 29  1  0  0  0  0
 29 30  1  6  0  0  0
 30 17  1  0  0  0  0
 29 31  1  0  0  0  0
 31 32  1  0  0  0  0
 31 33  1  6  0  0  0
 32 34  1  0  0  0  0
 32 35  1  0  0  0  0
 32 36  1  0  0  0  0
 27 37  1  1  0  0  0
M  END
>  <cdx:fragmentId>
5

$$$$
