39384.cdx
  Mrv1902 05222410232D          

 32 33  0  0  0  0            999 V2000
    5.7132  -10.1147    0.0000 C   0  0  0  0  0  0  0  0  0  0  0  0
    4.9987   -9.7022    0.0000 C   0  0  0  0  0  0  0  0  0  0  0  0
    4.2842  -10.1147    0.0000 C   0  0  0  0  0  0  0  0  0  0  0  0
    5.7132  -10.9397    0.0000 O   0  0  0  0  0  0  0  0  0  0  0  0
    6.4277   -9.7022    0.0000 N   0  0  0  0  0  0  0  0  0  0  0  0
    3.5698   -9.7022    0.0000 C   0  0  0  0  0  0  0  0  0  0  0  0
    2.8553  -10.1147    0.0000 C   0  0  0  0  0  0  0  0  0  0  0  0
    2.1408   -9.7022    0.0000 C   0  0  0  0  0  0  0  0  0  0  0  0
    2.1408   -8.8772    0.0000 C   0  0  0  0  0  0  0  0  0  0  0  0
    2.8553   -8.4647    0.0000 C   0  0  0  0  0  0  0  0  0  0  0  0
    3.5698   -8.8772    0.0000 C   0  0  0  0  0  0  0  0  0  0  0  0
    1.4264   -8.4647    0.0000 O   0  0  0  0  0  0  0  0  0  0  0  0
    7.1421  -10.1147    0.0000 C   0  0  0  0  0  0  0  0  0  0  0  0
    7.8566   -9.7022    0.0000 C   0  0  0  0  0  0  0  0  0  0  0  0
    8.5711  -10.1147    0.0000 C   0  0  0  0  0  0  0  0  0  0  0  0
    9.2855   -9.7022    0.0000 N   0  0  0  0  0  0  0  0  0  0  0  0
    9.2855   -8.8772    0.0000 C   0  0  0  0  0  0  0  0  0  0  0  0
   10.0000   -8.4647    0.0000 C   0  0  0  0  0  0  0  0  0  0  0  0
   10.0000   -7.6397    0.0000 C   0  0  0  0  0  0  0  0  0  0  0  0
    8.5711   -8.4647    0.0000 O   0  0  0  0  0  0  0  0  0  0  0  0
   10.7145   -7.2272    0.0000 C   0  0  0  0  0  0  0  0  0  0  0  0
   10.7145   -6.4022    0.0000 C   0  0  0  0  0  0  0  0  0  0  0  0
   11.4289   -5.9897    0.0000 C   0  0  0  0  0  0  0  0  0  0  0  0
   12.1434   -6.4022    0.0000 C   0  0  0  0  0  0  0  0  0  0  0  0
   12.1434   -7.2272    0.0000 C   0  0  0  0  0  0  0  0  0  0  0  0
   11.4289   -7.6397    0.0000 C   0  0  0  0  0  0  0  0  0  0  0  0
   12.8579   -5.9897    0.0000 O   0  0  0  0  0  0  0  0  0  0  0  0
   10.0000  -10.1147    0.0000 C   0  0  0  0  0  0  0  0  0  0  0  0
   10.7145   -9.7022    0.0000 C   0  0  0  0  0  0  0  0  0  0  0  0
   11.4289  -10.1147    0.0000 C   0  0  0  0  0  0  0  0  0  0  0  0
   12.1434   -9.7022    0.0000 C   0  0  0  0  0  0  0  0  0  0  0  0
   12.8579  -10.1147    0.0000 N   0  0  0  0  0  0  0  0  0  0  0  0
  1  2  1  0  0  0  0
  2  3  2  0  0  0  0
  1  4  2  0  0  0  0
  1  5  1  0  0  0  0
  6  7  1  0  0  0  0
  7  8  2  0  0  0  0
  8  9  1  0  0  0  0
  9 10  2  0  0  0  0
 10 11  1  0  0  0  0
  6 11  2  0  0  0  0
  9 12  1  0  0  0  0
  3  6  1  0  0  0  0
 13 14  1  0  0  0  0
 14 15  1  0  0  0  0
 17 18  1  0  0  0  0
 18 19  2  0  0  0  0
 17 20  2  0  0  0  0
 21 22  1  0  0  0  0
 22 23  2  0  0  0  0
 23 24  1  0  0  0  0
 24 25  2  0  0  0  0
 25 26  1  0  0  0  0
 21 26  2  0  0  0  0
 24 27  1  0  0  0  0
 19 21  1  0  0  0  0
 16 17  1  0  0  0  0
 28 29  1  0  0  0  0
 29 30  1  0  0  0  0
 30 31  1  0  0  0  0
 31 32  1  0  0  0  0
 16 28  1  0  0  0  0
 15 16  1  0  0  0  0
  5 13  1  0  0  0  0
M  END
>  <cdx:fragmentId>
45

$$$$
