39389.cdx
  Mrv1902 05222410232D          

 54 60  0  0  0  0            999 V2000
    5.8933  -12.1301    0.0000 H   0  0  0  0  0  0  0  0  0  0  0  0
    8.1384  -10.5603    0.0000 H   0  0  0  0  0  0  0  0  0  0  0  0
    9.7162   -8.6690    0.0000 H   0  0  0  0  0  0  0  0  0  0  0  0
    9.8617   -7.2475    0.0000 H   0  0  0  0  0  0  0  0  0  0  0  0
    7.2541   -8.4170    0.0000 H   0  0  0  0  0  0  0  0  0  0  0  0
    8.4124   -9.2538    0.0000 H   0  0  0  0  0  0  0  0  0  0  0  0
    7.3245  -12.9512    0.0000 C   0  0  0  0  0  0  0  0  0  0  0  0
    8.7534  -12.9474    0.0000 O   0  0  0  0  0  0  0  0  0  0  0  0
    8.0378  -12.5368    0.0000 C   0  0  0  0  0  0  0  0  0  0  0  0
    8.0356  -11.7118    0.0000 O   0  0  0  0  0  0  0  0  0  0  0  0
    3.0376  -12.9629    0.0000 C   0  0  0  0  0  0  0  0  0  0  0  0
    4.4666  -12.9590    0.0000 O   0  0  0  0  0  0  0  0  0  0  0  0
    3.7510  -12.5485    0.0000 C   0  0  0  0  0  0  0  0  0  0  0  0
    3.7487  -11.7235    0.0000 O   0  0  0  0  0  0  0  0  0  0  0  0
   10.0474   -8.3994    0.0000 O   0  0  0  0  0  0  0  0  0  0  0  0
   10.0538   -9.4218    0.0000 O   0  0  0  0  0  0  0  0  0  0  0  0
    7.1086   -9.8386    0.0000 O   0  0  0  0  0  0  0  0  0  0  0  0
    5.1799  -12.5446    0.0000 O   0  0  0  0  0  0  0  0  0  0  0  0
    8.0282   -4.9053    0.0000 C   0  0  0  0  0  0  0  0  0  0  0  0
   10.1314   -7.5787    0.0000 C   0  0  0  0  0  0  0  0  0  0  0  0
    6.6044  -10.8907    0.0000 C   0  0  0  0  0  0  0  0  0  0  0  0
    6.7715   -9.2583    0.0000 C   0  0  0  0  0  0  0  0  0  0  0  0
    6.6021  -10.0657    0.0000 C   0  0  2  0  0  0  0  0  0  0  0  0
    5.3795  -10.4525    0.0000 O   0  0  0  0  0  0  0  0  0  0  0  0
    5.1777  -11.7196    0.0000 C   0  0  1  0  0  0  0  0  0  0  0  0
    4.4621  -11.3090    0.0000 C   0  0  2  0  0  0  0  0  0  0  0  0
    4.4598  -10.4840    0.0000 C   0  0  0  0  0  0  0  0  0  0  0  0
    5.1732  -10.0696    0.0000 C   0  0  0  0  0  0  0  0  0  0  0  0
    5.8888  -10.4801    0.0000 C   0  0  2  0  0  0  0  0  0  0  0  0
    5.8910  -11.3051    0.0000 C   0  0  2  0  0  0  0  0  0  0  0  0
    6.6066  -11.7157    0.0000 C   0  0  0  0  0  0  0  0  0  0  0  0
    7.3200  -11.3013    0.0000 C   0  0  2  0  0  0  0  0  0  0  0  0
    7.3177  -10.4763    0.0000 C   0  0  1  0  0  0  0  0  0  0  0  0
    7.9293   -9.9226    0.0000 C   0  0  1  0  0  0  0  0  0  0  0  0
    8.7500  -10.0066    0.0000 C   0  0  2  0  0  0  0  0  0  0  0  0
    9.2331   -9.3378    0.0000 C   0  0  1  0  0  0  0  0  0  0  0  0
    8.8955   -8.5850    0.0000 C   0  0  2  0  0  0  0  0  0  0  0  0
    9.3786   -7.9163    0.0000 C   0  0  1  0  0  0  0  0  0  0  0  0
    9.0410   -7.1635    0.0000 C   0  0  2  0  0  0  0  0  0  0  0  0
    9.5241   -6.4948    0.0000 C   0  0  0  0  0  0  0  0  0  0  0  0
    9.1865   -5.7420    0.0000 C   0  0  0  0  0  0  0  0  0  0  0  0
    8.3658   -5.6580    0.0000 C   0  0  1  0  0  0  0  0  0  0  0  0
    7.8827   -6.3268    0.0000 C   0  0  0  0  0  0  0  0  0  0  0  0
    8.2203   -7.0795    0.0000 N   0  0  0  0  0  0  0  0  0  0  0  0
    7.7372   -7.7483    0.0000 C   0  0  0  0  0  0  0  0  0  0  0  0
    8.0748   -8.5010    0.0000 C   0  0  1  0  0  0  0  0  0  0  0  0
    7.5917   -9.1698    0.0000 C   0  0  2  0  0  0  0  0  0  0  0  0
    9.7628  -12.2648    0.0000 C   0  0  0  0  0  0  0  0  0  0  0  0
    9.0876  -10.7593    0.0000 O   0  0  0  0  0  0  0  0  0  0  0  0
   10.3914  -10.1746    0.0000 O   0  0  0  0  0  0  0  0  0  0  0  0
   11.4043  -12.4328    0.0000 C   0  0  0  0  0  0  0  0  0  0  0  0
   11.0667  -11.6801    0.0000 C   0  0  0  0  0  0  0  0  0  0  0  0
   10.2459  -11.5961    0.0000 C   0  0  2  0  0  0  0  0  0  0  0  0
    9.9083  -10.8433    0.0000 C   0  0  0  0  0  0  0  0  0  0  0  0
 30  1  1  1  0  0  0
 33  2  1  1  0  0  0
 37  3  1  6  0  0  0
 39  4  1  6  0  0  0
 46  5  1  1  0  0  0
 47  6  1  6  0  0  0
 35 49  1  6  0  0  0
 32 10  1  6  0  0  0
 10  9  1  0  0  0  0
  9  7  1  0  0  0  0
  9  8  2  0  0  0  0
 26 14  1  1  0  0  0
 14 13  1  0  0  0  0
 13 11  1  0  0  0  0
 13 12  2  0  0  0  0
 38 15  1  1  0  0  0
 36 16  1  1  0  0  0
 34 17  1  6  0  0  0
 25 18  1  6  0  0  0
 42 19  1  1  0  0  0
 38 20  1  6  0  0  0
 29 21  1  1  0  0  0
 44 39  1  0  0  0  0
 46 37  1  0  0  0  0
 30 25  1  0  0  0  0
 33 23  1  0  0  0  0
 29 23  1  0  0  0  0
 47 34  1  0  0  0  0
 47 22  1  0  0  0  0
 23 22  1  1  0  0  0
 23 24  1  0  0  0  0
 25 24  1  0  0  0  0
 26 25  1  0  0  0  0
 27 26  1  0  0  0  0
 28 27  1  0  0  0  0
 29 28  1  0  0  0  0
 30 29  1  0  0  0  0
 31 30  1  0  0  0  0
 32 31  1  0  0  0  0
 33 32  1  0  0  0  0
 34 33  1  0  0  0  0
 35 34  1  0  0  0  0
 36 35  1  0  0  0  0
 37 36  1  0  0  0  0
 38 37  1  0  0  0  0
 39 38  1  0  0  0  0
 40 39  1  0  0  0  0
 41 40  1  0  0  0  0
 42 41  1  0  0  0  0
 43 42  1  0  0  0  0
 44 43  1  0  0  0  0
 45 44  1  0  0  0  0
 46 45  1  0  0  0  0
 47 46  1  0  0  0  0
 53 48  1  1  0  0  0
 54 49  1  0  0  0  0
 54 50  2  0  0  0  0
 52 51  1  0  0  0  0
 53 52  1  0  0  0  0
 54 53  1  0  0  0  0
M  END
>  <cdx:fragmentId>
140757

$$$$
