1885.cdx
  Mrv1902 05222410232D          

 10 11  0  0  0  0            999 V2000
    8.9931   -6.7518    0.0000 C   0  0  0  0  0  0  0  0  0  0  0  0
    9.7076   -7.1643    0.0000 C   0  0  0  0  0  0  0  0  0  0  0  0
    9.7076   -7.9893    0.0000 C   0  0  0  0  0  0  0  0  0  0  0  0
    8.9931   -8.4018    0.0000 C   0  0  0  0  0  0  0  0  0  0  0  0
    8.2786   -7.9893    0.0000 C   0  0  0  0  0  0  0  0  0  0  0  0
    7.5642   -8.4018    0.0000 C   0  0  0  0  0  0  0  0  0  0  0  0
    6.8497   -7.9893    0.0000 C   0  0  0  0  0  0  0  0  0  0  0  0
    6.8497   -7.1643    0.0000 C   0  0  0  0  0  0  0  0  0  0  0  0
    7.5642   -6.7518    0.0000 C   0  0  0  0  0  0  0  0  0  0  0  0
    8.2786   -7.1643    0.0000 C   0  0  0  0  0  0  0  0  0  0  0  0
  1  2  1  0  0  0  0
  2  3  1  0  0  0  0
  3  4  1  0  0  0  0
  4  5  2  0  0  0  0
  5  6  1  0  0  0  0
  6  7  1  0  0  0  0
  7  8  1  0  0  0  0
  8  9  2  0  0  0  0
  9 10  1  0  0  0  0
  1 10  1  0  0  0  0
  5 10  1  0  0  0  0
M  END
>  <cdx:groupId>
5345

>  <cdx:fragmentId>
5317

$$$$
