39381.cdx
  Mrv1902 05222410252D          

 34 35  0  0  0  0            999 V2000
    3.0668   -7.8089    0.0000 C   0  0  0  0  0  0  0  0  0  0  0  0
    3.0668   -8.6339    0.0000 C   0  0  0  0  0  0  0  0  0  0  0  0
    3.7813   -9.0464    0.0000 C   0  0  0  0  0  0  0  0  0  0  0  0
    4.4957   -8.6339    0.0000 C   0  0  0  0  0  0  0  0  0  0  0  0
    4.4957   -7.8089    0.0000 C   0  0  0  0  0  0  0  0  0  0  0  0
    3.7813   -7.3964    0.0000 C   0  0  0  0  0  0  0  0  0  0  0  0
    5.2102   -9.0464    0.0000 C   0  0  0  0  0  0  0  0  0  0  0  0
    5.9247   -8.6339    0.0000 C   0  0  0  0  0  0  0  0  0  0  0  0
    6.6391   -9.0464    0.0000 C   0  0  0  0  0  0  0  0  0  0  0  0
    7.3536   -8.6339    0.0000 N   0  0  0  0  0  0  0  0  0  0  0  0
    6.6391   -9.8714    0.0000 O   0  0  0  0  0  0  0  0  0  0  0  0
    8.0681   -9.0464    0.0000 C   0  0  0  0  0  0  0  0  0  0  0  0
    8.7825   -8.6339    0.0000 C   0  0  0  0  0  0  0  0  0  0  0  0
    9.4970   -9.0464    0.0000 C   0  0  0  0  0  0  0  0  0  0  0  0
   10.2115   -8.6339    0.0000 C   0  0  0  0  0  0  0  0  0  0  0  0
   10.9260   -9.0464    0.0000 N   0  0  0  0  0  0  0  0  0  0  0  0
   11.6404   -8.6339    0.0000 C   0  0  0  0  0  0  0  0  0  0  0  0
   12.3549   -9.0464    0.0000 C   0  0  0  0  0  0  0  0  0  0  0  0
   13.0694   -8.6339    0.0000 C   0  0  0  0  0  0  0  0  0  0  0  0
   13.7838   -9.0464    0.0000 N   0  0  0  0  0  0  0  0  0  0  0  0
   14.4983   -8.6339    0.0000 C   0  0  0  0  0  0  0  0  0  0  0  0
   15.2128   -9.0464    0.0000 C   0  0  0  0  0  0  0  0  0  0  0  0
   14.4983   -7.8089    0.0000 O   0  0  0  0  0  0  0  0  0  0  0  0
   15.9273   -8.6339    0.0000 C   0  0  0  0  0  0  0  0  0  0  0  0
   16.6417   -9.0464    0.0000 C   0  0  0  0  0  0  0  0  0  0  0  0
   16.6417   -9.8714    0.0000 C   0  0  0  0  0  0  0  0  0  0  0  0
   17.3562  -10.2839    0.0000 C   0  0  0  0  0  0  0  0  0  0  0  0
   18.0707   -9.8714    0.0000 C   0  0  0  0  0  0  0  0  0  0  0  0
   18.0707   -9.0464    0.0000 C   0  0  0  0  0  0  0  0  0  0  0  0
   17.3562   -8.6339    0.0000 C   0  0  0  0  0  0  0  0  0  0  0  0
    2.3523   -7.3964    0.0000 O   0  0  0  0  0  0  0  0  0  0  0  0
    2.3523   -9.0464    0.0000 O   0  0  0  0  0  0  0  0  0  0  0  0
   17.3562  -11.1089    0.0000 O   0  0  0  0  0  0  0  0  0  0  0  0
   18.7851  -10.2839    0.0000 O   0  0  0  0  0  0  0  0  0  0  0  0
  1  2  2  0  0  0  0
  2  3  1  0  0  0  0
  3  4  2  0  0  0  0
  4  5  1  0  0  0  0
  5  6  2  0  0  0  0
  6  1  1  0  0  0  0
  4  7  1  0  0  0  0
  7  8  1  0  0  0  0
  8  9  1  0  0  0  0
  9 10  1  0  0  0  0
  9 11  2  0  0  0  0
 10 12  1  0  0  0  0
 12 13  1  0  0  0  0
 13 14  1  0  0  0  0
 14 15  1  0  0  0  0
 15 16  1  0  0  0  0
 16 17  1  0  0  0  0
 17 18  1  0  0  0  0
 18 19  1  0  0  0  0
 19 20  1  0  0  0  0
 20 21  1  0  0  0  0
 21 22  1  0  0  0  0
 21 23  2  0  0  0  0
 22 24  2  0  0  0  0
 24 25  1  0  0  0  0
 25 26  2  0  0  0  0
 26 27  1  0  0  0  0
 27 28  2  0  0  0  0
 28 29  1  0  0  0  0
 29 30  2  0  0  0  0
 30 25  1  0  0  0  0
  1 31  1  0  0  0  0
  2 32  1  0  0  0  0
 27 33  1  0  0  0  0
 28 34  1  0  0  0  0
M  END
>  <cdx:fragmentId>
5240

$$$$
