1894.cdx
  Mrv1902 05222410252D          

 23 28  0  0  0  0            999 V2000
   14.5075  -12.3043    0.0000 C   0  0  1  0  0  0  0  0  0  0  0  0
   13.7259  -12.5683    0.0000 C   0  0  0  0  0  0  0  0  0  0  0  0
   13.3990  -13.3257    0.0000 C   0  0  0  0  0  0  0  0  0  0  0  0
   12.5796  -13.4214    0.0000 C   0  0  0  0  0  0  0  0  0  0  0  0
   12.0870  -12.7596    0.0000 C   0  0  0  0  0  0  0  0  0  0  0  0
   12.4139  -12.0021    0.0000 C   0  0  0  0  0  0  0  0  0  0  0  0
   13.2333  -11.9064    0.0000 C   0  0  0  0  0  0  0  0  0  0  0  0
   13.7105  -11.2335    0.0000 N   0  0  0  0  0  0  0  0  0  0  0  0
   14.4980  -11.4794    0.0000 C   0  0  0  0  0  0  0  0  0  0  0  0
   15.2077  -11.0587    0.0000 C   0  0  1  0  0  0  0  0  0  0  0  0
   15.5828  -11.8621    0.0000 C   0  0  0  0  0  0  0  0  0  0  0  0
   17.3652  -12.2714    0.0000 C   0  0  2  0  0  0  0  0  0  0  0  0
   17.3557  -11.4465    0.0000 C   0  0  2  0  0  0  0  0  0  0  0  0
   16.6365  -11.0422    0.0000 C   0  0  1  0  0  0  0  0  0  0  0  0
   15.9269  -11.4629    0.0000 N   0  0  0  0  0  0  0  0  0  0  0  0
   15.9363  -12.2879    0.0000 C   0  0  0  0  0  0  0  0  0  0  0  0
   16.6555  -12.6921    0.0000 C   0  0  0  0  0  0  0  0  0  0  0  0
   15.4621  -13.1615    0.0000 C   0  0  0  0  0  0  0  0  0  0  0  0
   15.2267  -12.7086    0.0000 C   0  0  0  0  0  0  0  0  0  0  0  0
   15.3157  -13.9734    0.0000 O   0  0  0  0  0  0  0  0  0  0  0  0
   16.6270  -10.2173    0.0000 O   0  0  0  0  0  0  0  0  0  0  0  0
   18.0654  -11.0258    0.0000 C   0  0  0  0  0  0  0  0  0  0  0  0
   18.7845  -11.4300    0.0000 C   0  0  0  0  0  0  0  0  0  0  0  0
  1  2  1  0  0  0  0
  2  3  2  0  0  0  0
  3  4  1  0  0  0  0
  4  5  2  0  0  0  0
  5  6  1  0  0  0  0
  6  7  2  0  0  0  0
  7  8  1  0  0  0  0
  8  9  1  0  0  0  0
  9 10  1  0  0  0  0
 10 11  1  1  0  0  0
 12 11  1  1  0  0  0
 12 13  1  0  0  0  0
 13 14  1  0  0  0  0
 14 15  1  0  0  0  0
 15 16  1  0  0  0  0
 16 17  1  0  0  0  0
 17 18  1  0  0  0  0
  1 18  1  1  0  0  0
  1 19  1  0  0  0  0
 19 16  1  0  0  0  0
 12 17  1  0  0  0  0
 10 15  1  0  0  0  0
  1  9  1  0  0  0  0
  2  7  1  0  0  0  0
 18 20  2  0  0  0  0
 14 21  1  1  0  0  0
 22 23  1  0  0  0  0
 13 22  1  6  0  0  0
M  END
>  <cdx:groupId>
6364

>  <cdx:fragmentId>
6278

$$$$
