1891.cdx
  Mrv1902 05222410232D          

 49 52  0  0  0  0            999 V2000
    5.7812  -15.9158    0.0000 C   0  0  1  0  0  0  0  0  0  0  0  0
    5.7812  -15.0936    0.0000 C   0  0  1  0  0  0  0  0  0  0  0  0
    6.4932  -14.6826    0.0000 O   0  0  0  0  0  0  0  0  0  0  0  0
    7.2052  -15.0936    0.0000 C   0  0  1  0  0  0  0  0  0  0  0  0
    7.2052  -15.9158    0.0000 C   0  0  2  0  0  0  0  0  0  0  0  0
    6.4932  -16.3268    0.0000 C   0  0  2  0  0  0  0  0  0  0  0  0
    6.4932  -17.1490    0.0000 O   0  0  0  0  0  0  0  0  0  0  0  0
    5.0692  -14.6826    0.0000 C   0  0  0  0  0  0  0  0  0  0  0  0
    7.9172  -14.6826    0.0000 O   0  0  0  0  0  0  0  0  0  0  0  0
    5.0692  -16.3268    0.0000 O   0  0  0  0  0  0  0  0  0  0  0  0
    7.9172  -16.3268    0.0000 O   0  0  0  0  0  0  0  0  0  0  0  0
    8.6292  -15.0936    0.0000 C   0  0  2  0  0  0  0  0  0  0  0  0
    8.6292  -15.9158    0.0000 O   0  0  0  0  0  0  0  0  0  0  0  0
    9.3411  -16.3268    0.0000 C   0  0  0  0  0  0  0  0  0  0  0  0
   10.0531  -15.9158    0.0000 C   0  0  0  0  0  0  0  0  0  0  0  0
   10.0531  -15.0936    0.0000 C   0  0  2  0  0  0  0  0  0  0  0  0
    9.3411  -14.6826    0.0000 C   0  0  0  0  0  0  0  0  0  0  0  0
    9.3411  -13.8604    0.0000 C   0  0  0  0  0  0  0  0  0  0  0  0
   10.0531  -13.4494    0.0000 C   0  0  0  0  0  0  0  0  0  0  0  0
   10.7651  -16.3268    0.0000 C   0  0  0  0  0  0  0  0  0  0  0  0
   10.7651  -17.1490    0.0000 O   0  0  0  0  0  0  0  0  0  0  0  0
   11.4771  -15.9158    0.0000 O   0  0  0  0  0  0  0  0  0  0  0  0
   12.1891  -16.3268    0.0000 C   0  0  0  0  0  0  0  0  0  0  0  0
   11.1923  -14.4359    0.0000 C   0  0  0  0  0  0  0  0  0  0  0  0
   11.1923  -13.6138    0.0000 C   0  0  0  0  0  0  0  0  0  0  0  0
   11.9043  -13.2027    0.0000 O   0  0  0  0  0  0  0  0  0  0  0  0
   10.4803  -13.2027    0.0000 O   0  0  0  0  0  0  0  0  0  0  0  0
   11.9043  -12.3806    0.0000 C   0  0  0  0  0  0  0  0  0  0  0  0
   12.6163  -11.9695    0.0000 C   0  0  0  0  0  0  0  0  0  0  0  0
   12.6163  -11.1474    0.0000 C   0  0  0  0  0  0  0  0  0  0  0  0
    4.3572  -15.0936    0.0000 O   0  0  0  0  0  0  0  0  0  0  0  0
   11.9043  -10.7363    0.0000 C   0  0  0  0  0  0  0  0  0  0  0  0
   11.9043   -9.9142    0.0000 C   0  0  0  0  0  0  0  0  0  0  0  0
   12.6163   -9.5031    0.0000 C   0  0  0  0  0  0  0  0  0  0  0  0
   13.3283   -9.9142    0.0000 C   0  0  0  0  0  0  0  0  0  0  0  0
   13.3283  -10.7363    0.0000 C   0  0  0  0  0  0  0  0  0  0  0  0
   14.0403   -9.5031    0.0000 O   0  0  0  0  0  0  0  0  0  0  0  0
   12.6163   -8.6810    0.0000 O   0  0  0  0  0  0  0  0  0  0  0  0
   11.9043   -8.2699    0.0000 C   0  0  1  0  0  0  0  0  0  0  0  0
   11.1923   -8.6810    0.0000 O   0  0  0  0  0  0  0  0  0  0  0  0
   10.4803   -8.2699    0.0000 C   0  0  2  0  0  0  0  0  0  0  0  0
   10.4803   -7.4478    0.0000 C   0  0  1  0  0  0  0  0  0  0  0  0
   11.1923   -7.0367    0.0000 C   0  0  2  0  0  0  0  0  0  0  0  0
   11.9043   -7.4478    0.0000 C   0  0  2  0  0  0  0  0  0  0  0  0
   11.1923   -6.2146    0.0000 O   0  0  0  0  0  0  0  0  0  0  0  0
    9.7683   -8.6810    0.0000 C   0  0  0  0  0  0  0  0  0  0  0  0
   12.6163   -7.0367    0.0000 O   0  0  0  0  0  0  0  0  0  0  0  0
    9.7683   -7.0367    0.0000 O   0  0  0  0  0  0  0  0  0  0  0  0
    9.0564   -8.2699    0.0000 O   0  0  0  0  0  0  0  0  0  0  0  0
  1  2  1  0  0  0  0
  2  3  1  0  0  0  0
  3  4  1  0  0  0  0
  4  5  1  0  0  0  0
  5  6  1  0  0  0  0
  6  1  1  0  0  0  0
  6  7  1  6  0  0  0
  2  8  1  6  0  0  0
  4  9  1  6  0  0  0
  1 10  1  1  0  0  0
  5 11  1  1  0  0  0
 12  9  1  1  0  0  0
 12 13  1  0  0  0  0
 13 14  1  0  0  0  0
 14 15  2  0  0  0  0
 15 16  1  0  0  0  0
 16 17  1  0  0  0  0
 17 12  1  0  0  0  0
 17 18  2  0  0  0  0
 18 19  1  0  0  0  0
 15 20  1  0  0  0  0
 20 21  2  0  0  0  0
 20 22  1  0  0  0  0
 22 23  1  0  0  0  0
 16 24  1  6  0  0  0
 24 25  1  0  0  0  0
 25 26  1  0  0  0  0
 25 27  2  0  0  0  0
 26 28  1  0  0  0  0
 28 29  1  0  0  0  0
 29 30  1  0  0  0  0
  8 31  1  0  0  0  0
 30 32  2  0  0  0  0
 32 33  1  0  0  0  0
 33 34  2  0  0  0  0
 34 35  1  0  0  0  0
 35 36  2  0  0  0  0
 36 30  1  0  0  0  0
 35 37  1  0  0  0  0
 34 38  1  0  0  0  0
 39 38  1  1  0  0  0
 39 40  1  0  0  0  0
 40 41  1  0  0  0  0
 41 42  1  0  0  0  0
 42 43  1  0  0  0  0
 43 44  1  0  0  0  0
 44 39  1  0  0  0  0
 43 45  1  1  0  0  0
 41 46  1  1  0  0  0
 44 47  1  6  0  0  0
 42 48  1  6  0  0  0
 46 49  1  0  0  0  0
M  END
>  <cdx:fragmentId>
5923

$$$$
