1893.cdx
  Mrv1902 05222410242D          

 27 30  0  0  0  0            999 V2000
   15.5120  -11.7711    0.0000 C   0  0  0  0  0  0  0  0  0  0  0  0
   14.7976  -12.1836    0.0000 C   0  0  0  0  0  0  0  0  0  0  0  0
   14.0831  -11.7711    0.0000 C   0  0  0  0  0  0  0  0  0  0  0  0
   13.3686  -12.1836    0.0000 C   0  0  0  0  0  0  0  0  0  0  0  0
   13.3686  -13.0086    0.0000 C   0  0  0  0  0  0  0  0  0  0  0  0
   14.0831  -13.4211    0.0000 C   0  0  0  0  0  0  0  0  0  0  0  0
   14.7976  -13.0086    0.0000 C   0  0  0  0  0  0  0  0  0  0  0  0
   15.5120  -13.4211    0.0000 C   0  0  0  0  0  0  0  0  0  0  0  0
   16.2265  -13.0086    0.0000 C   0  0  0  0  0  0  0  0  0  0  0  0
   16.9404  -13.4220    0.0000 O   0  0  0  0  0  0  0  0  0  0  0  0
   17.6548  -13.0093    0.0000 C   0  0  0  0  0  0  0  0  0  0  0  0
   17.6550  -12.1843    0.0000 C   0  0  0  0  0  0  0  0  0  0  0  0
   16.9410  -11.7711    0.0000 C   0  0  0  0  0  0  0  0  0  0  0  0
   16.9410  -10.9461    0.0000 C   0  0  0  0  0  0  0  0  0  0  0  0
   16.2265  -10.5336    0.0000 C   0  0  0  0  0  0  0  0  0  0  0  0
   15.5120  -10.9461    0.0000 C   0  0  0  0  0  0  0  0  0  0  0  0
   16.2265  -12.1836    0.0000 C   0  0  0  0  0  0  0  0  0  0  0  0
   14.0831  -10.9461    0.0000 O   0  0  0  0  0  0  0  0  0  0  0  0
   16.2265  -11.3586    0.0000 C   0  0  0  0  0  0  0  0  0  0  0  0
   17.6554  -10.5336    0.0000 C   0  0  0  0  0  0  0  0  0  0  0  0
   14.0831  -14.2461    0.0000 C   0  0  0  0  0  0  0  0  0  0  0  0
   14.7976  -11.3586    0.0000 C   0  0  0  0  0  0  0  0  0  0  0  0
   12.6542  -11.7711    0.0000 O   0  0  0  0  0  0  0  0  0  0  0  0
   11.9397  -12.1836    0.0000 C   0  0  0  0  0  0  0  0  0  0  0  0
   14.7976  -10.5336    0.0000 O   0  0  0  0  0  0  0  0  0  0  0  0
   16.2265   -9.7086    0.0000 O   0  0  0  0  0  0  0  0  0  0  0  0
   18.3692  -13.4218    0.0000 O   0  0  0  0  0  0  0  0  0  0  0  0
  1  2  1  0  0  0  0
  2  3  1  0  0  0  0
  3  4  1  0  0  0  0
  4  5  2  0  0  0  0
  5  6  1  0  0  0  0
  6  7  1  0  0  0  0
  7  8  1  0  0  0  0
  8  9  1  0  0  0  0
  9 10  1  0  0  0  0
 10 11  1  0  0  0  0
 11 12  1  0  0  0  0
 12 13  1  0  0  0  0
 13 14  1  0  0  0  0
 14 15  1  0  0  0  0
 15 16  1  0  0  0  0
  1 16  1  0  0  0  0
  1 17  1  0  0  0  0
 17  9  1  0  0  0  0
  2  7  1  0  0  0  0
 13 17  1  0  0  0  0
  3 18  2  0  0  0  0
 17 19  1  0  0  0  0
 14 20  1  0  0  0  0
  6 21  1  0  0  0  0
  2 22  1  0  0  0  0
 23 24  1  0  0  0  0
  4 23  1  0  0  0  0
 16 25  1  0  0  0  0
 15 26  1  0  0  0  0
 11 27  1  0  0  0  0
M  END
>  <cdx:groupId>
6265

>  <cdx:fragmentId>
6184

$$$$
