39392.cdx
  Mrv1902 05222410242D          

 39 44  0  0  0  0            999 V2000
    9.6214   -9.6041    0.0000 H   0  0  0  0  0  0  0  0  0  0  0  0
    8.3158   -7.5044    0.0000 H   0  0  0  0  0  0  0  0  0  0  0  0
    7.9359  -10.1165    0.0000 H   0  0  0  0  0  0  0  0  0  0  0  0
    7.2162   -8.8728    0.0000 H   0  0  0  0  0  0  0  0  0  0  0  0
    6.5070  -10.1041    0.0000 H   0  0  0  0  0  0  0  0  0  0  0  0
    5.7818  -11.3354    0.0000 H   0  0  0  0  0  0  0  0  0  0  0  0
    2.9232  -10.4856    0.0000 C   0  0  0  0  0  0  0  0  0  0  0  0
    2.2052  -10.8919    0.0000 C   0  0  0  0  0  0  0  0  0  0  0  0
    2.9304   -9.6606    0.0000 O   0  0  0  0  0  0  0  0  0  0  0  0
    3.6341  -10.9043    0.0000 O   0  0  0  0  0  0  0  0  0  0  0  0
    7.2170   -9.6978    0.0000 C   0  0  1  0  0  0  0  0  0  0  0  0
    7.9351   -9.2915    0.0000 C   0  0  2  0  0  0  0  0  0  0  0  0
    8.7174   -9.5532    0.0000 C   0  0  0  0  0  0  0  0  0  0  0  0
    9.2081   -8.8900    0.0000 C   0  0  2  0  0  0  0  0  0  0  0  0
    9.9949   -8.6419    0.0000 O   0  0  0  0  0  0  0  0  0  0  0  0
   10.0021   -7.8170    0.0000 C   0  0  2  0  0  0  0  0  0  0  0  0
    9.2197   -7.5552    0.0000 C   0  0  2  0  0  0  0  0  0  0  0  0
    8.7290   -8.2184    0.0000 C   0  0  2  0  0  0  0  0  0  0  0  0
    7.9422   -8.4665    0.0000 C   0  0  1  0  0  0  0  0  0  0  0  0
    7.2314   -8.0479    0.0000 C   0  0  0  0  0  0  0  0  0  0  0  0
    6.5133   -8.4541    0.0000 C   0  0  0  0  0  0  0  0  0  0  0  0
    6.5062   -9.2791    0.0000 C   0  0  2  0  0  0  0  0  0  0  0  0
    5.7882   -9.6854    0.0000 C   0  0  1  0  0  0  0  0  0  0  0  0
    5.0773   -9.2667    0.0000 C   0  0  0  0  0  0  0  0  0  0  0  0
    4.3593   -9.6730    0.0000 C   0  0  0  0  0  0  0  0  0  0  0  0
    4.3521  -10.4980    0.0000 C   0  0  1  0  0  0  0  0  0  0  0  0
    5.0630  -10.9166    0.0000 C   0  0  0  0  0  0  0  0  0  0  0  0
    5.7810  -10.5104    0.0000 C   0  0  2  0  0  0  0  0  0  0  0  0
    6.4919  -10.9290    0.0000 C   0  0  0  0  0  0  0  0  0  0  0  0
    7.2099  -10.5228    0.0000 C   0  0  0  0  0  0  0  0  0  0  0  0
    9.9230   -6.9958    0.0000 O   0  0  0  0  0  0  0  0  0  0  0  0
   10.7528   -8.1590    0.0000 C   0  0  0  0  0  0  0  0  0  0  0  0
   11.4245   -7.6799    0.0000 C   0  0  0  0  0  0  0  0  0  0  0  0
   11.3453   -6.8587    0.0000 C   0  0  1  0  0  0  0  0  0  0  0  0
   10.5946   -6.5166    0.0000 C   0  0  0  0  0  0  0  0  0  0  0  0
    5.7953   -8.8604    0.0000 C   0  0  0  0  0  0  0  0  0  0  0  0
    7.9414   -7.6415    0.0000 C   0  0  0  0  0  0  0  0  0  0  0  0
    8.9716   -6.7684    0.0000 C   0  0  0  0  0  0  0  0  0  0  0  0
   12.0170   -6.3796    0.0000 C   0  0  0  0  0  0  0  0  0  0  0  0
 14  1  1  6  0  0  0
 18  2  1  6  0  0  0
 12  3  1  6  0  0  0
 11  4  1  1  0  0  0
 22  5  1  6  0  0  0
 28  6  1  6  0  0  0
  7  8  1  0  0  0  0
  7  9  2  0  0  0  0
  7 10  1  0  0  0  0
 11 12  1  0  0  0  0
 12 13  1  0  0  0  0
 13 14  1  0  0  0  0
 14 15  1  0  0  0  0
 16 15  1  6  0  0  0
 16 17  1  0  0  0  0
 17 18  1  0  0  0  0
 18 19  1  0  0  0  0
 19 20  1  0  0  0  0
 20 21  1  0  0  0  0
 21 22  1  0  0  0  0
 22 23  1  0  0  0  0
 23 24  1  0  0  0  0
 24 25  1  0  0  0  0
 25 26  1  0  0  0  0
 26 27  1  0  0  0  0
 27 28  1  0  0  0  0
 28 29  1  0  0  0  0
 29 30  1  0  0  0  0
 11 30  1  0  0  0  0
 11 22  1  0  0  0  0
 23 28  1  0  0  0  0
 12 19  1  0  0  0  0
 14 18  1  0  0  0  0
 32 33  1  0  0  0  0
 33 34  1  0  0  0  0
 34 35  1  0  0  0  0
 31 35  1  0  0  0  0
 31 16  1  0  0  0  0
 32 16  1  0  0  0  0
 23 36  1  1  0  0  0
 19 37  1  1  0  0  0
 17 38  1  6  0  0  0
 34 39  1  1  0  0  0
 26 10  1  1  0  0  0
M  END
>  <cdx:fragmentId>
6077

$$$$
