1895.cdx
  Mrv1902 05222410252D          

 27 32  0  0  0  0            999 V2000
    9.7774  -12.0795    0.0000 C   0  0  2  0  0  0  0  0  0  0  0  0
   10.5593  -12.3335    0.0000 C   0  0  0  0  0  0  0  0  0  0  0  0
   10.8937  -13.0846    0.0000 C   0  0  0  0  0  0  0  0  0  0  0  0
   11.7113  -13.1705    0.0000 C   0  0  0  0  0  0  0  0  0  0  0  0
   12.1946  -12.5054    0.0000 C   0  0  0  0  0  0  0  0  0  0  0  0
   11.8602  -11.7544    0.0000 C   0  0  0  0  0  0  0  0  0  0  0  0
   11.0425  -11.6684    0.0000 C   0  0  0  0  0  0  0  0  0  0  0  0
   10.5593  -11.0033    0.0000 N   0  0  0  0  0  0  0  0  0  0  0  0
    9.7774  -11.2573    0.0000 C   0  0  1  0  0  0  0  0  0  0  0  0
    9.0654  -10.8463    0.0000 C   0  0  2  0  0  0  0  0  0  0  0  0
    8.7005  -11.6513    0.0000 C   0  0  0  0  0  0  0  0  0  0  0  0
    6.9294  -12.0795    0.0000 C   0  0  1  0  0  0  0  0  0  0  0  0
    6.9294  -11.2573    0.0000 C   0  0  0  0  0  0  0  0  0  0  0  0
    7.6414  -10.8463    0.0000 C   0  0  0  0  0  0  0  0  0  0  0  0
    8.3534  -11.2573    0.0000 N   0  0  0  0  0  0  0  0  0  0  0  0
    8.3534  -12.0795    0.0000 C   0  0  2  0  0  0  0  0  0  0  0  0
    7.6414  -12.4906    0.0000 C   0  0  0  0  0  0  0  0  0  0  0  0
    8.8365  -12.9452    0.0000 C   0  0  0  0  0  0  0  0  0  0  0  0
    9.0654  -12.4906    0.0000 C   0  0  0  0  0  0  0  0  0  0  0  0
    6.2174  -10.8463    0.0000 C   0  0  0  0  0  0  0  0  0  0  0  0
    5.5055  -11.2573    0.0000 C   0  0  0  0  0  0  0  0  0  0  0  0
    9.8633  -10.4397    0.0000 H   0  0  0  0  0  0  0  0  0  0  0  0
    9.0654  -10.0241    0.0000 H   0  0  0  0  0  0  0  0  0  0  0  0
    6.2174  -12.4906    0.0000 H   0  0  0  0  0  0  0  0  0  0  0  0
    9.1631  -11.9367    0.0000 H   0  0  0  0  0  0  0  0  0  0  0  0
   12.3434  -11.0892    0.0000 O   0  0  0  0  0  0  0  0  0  0  0  0
    8.9918  -13.7525    0.0000 O   0  0  0  0  0  0  0  0  0  0  0  0
  1  2  1  0  0  0  0
  2  3  2  0  0  0  0
  3  4  1  0  0  0  0
  4  5  2  0  0  0  0
  5  6  1  0  0  0  0
  6  7  2  0  0  0  0
  7  8  1  0  0  0  0
  8  9  1  0  0  0  0
  9 10  1  0  0  0  0
 10 11  1  1  0  0  0
 12 11  1  1  0  0  0
 12 13  1  0  0  0  0
 13 14  1  0  0  0  0
 14 15  1  0  0  0  0
 15 16  1  0  0  0  0
 16 17  1  0  0  0  0
 17 18  1  0  0  0  0
  1 18  1  1  0  0  0
  1 19  1  0  0  0  0
 19 16  1  0  0  0  0
 12 17  1  0  0  0  0
 10 15  1  0  0  0  0
  1  9  1  0  0  0  0
  2  7  1  0  0  0  0
 20 21  1  0  0  0  0
 13 20  2  0  0  0  0
  9 22  1  1  0  0  0
 10 23  1  0  0  0  0
 12 24  1  0  0  0  0
 16 25  1  6  0  0  0
  6 26  1  0  0  0  0
 18 27  2  0  0  0  0
M  END
>  <cdx:groupId>
6458

>  <cdx:fragmentId>
6378

$$$$
