pipecolic acid.cdx
  Mrv1902 05222410262D          

  9  9  0  0  0  0            999 V2000
    5.6190   -8.9132    0.0000 C   0  0  0  0  0  0  0  0  0  0  0  0
    5.6190   -9.7382    0.0000 C   0  0  0  0  0  0  0  0  0  0  0  0
    6.3335  -10.1507    0.0000 C   0  0  0  0  0  0  0  0  0  0  0  0
    7.0480   -9.7382    0.0000 C   0  0  0  0  0  0  0  0  0  0  0  0
    7.0480   -8.9132    0.0000 C   0  0  0  0  0  0  0  0  0  0  0  0
    6.3335   -8.5007    0.0000 N   0  0  0  0  0  0  0  0  0  0  0  0
    7.7624   -8.5007    0.0000 C   0  0  0  0  0  0  0  0  0  0  0  0
    8.4769   -8.9132    0.0000 O   0  0  0  0  0  0  0  0  0  0  0  0
    7.7624   -7.6757    0.0000 O   0  0  0  0  0  0  0  0  0  0  0  0
  1  2  1  0  0  0  0
  2  3  1  0  0  0  0
  3  4  1  0  0  0  0
  4  5  1  0  0  0  0
  5  6  1  0  0  0  0
  6  1  1  0  0  0  0
  5  7  1  0  0  0  0
  7  8  1  0  0  0  0
  7  9  2  0  0  0  0
M  END
>  <cdx:fragmentId>
5

$$$$
