39402.cdx
  Mrv1902 05222410212D          

 33 34  0  0  0  0            999 V2000
    8.4916  -12.8630    0.0000 C   0  0  0  0  0  0  0  0  0  0  0  0
    8.4818  -13.6880    0.0000 C   0  0  0  0  0  0  0  0  0  0  0  0
    9.1913  -14.1090    0.0000 C   0  0  0  0  0  0  0  0  0  0  0  0
    9.9107  -13.7050    0.0000 C   0  0  0  0  0  0  0  0  0  0  0  0
    9.2110  -12.4591    0.0000 O   0  0  0  0  0  0  0  0  0  0  0  0
    7.7821  -12.4421    0.0000 O   0  0  0  0  0  0  0  0  0  0  0  0
    7.0677  -12.0296    0.0000 H   0  0  0  0  0  0  0  0  0  0  0  0
    9.2111   -7.4921    0.0000 C   0  0  0  0  0  0  0  0  0  0  0  0
    7.7821   -7.4921    0.0000 O   0  0  0  0  0  0  0  0  0  0  0  0
    8.4966   -7.9046    0.0000 C   0  0  0  0  0  0  0  0  0  0  0  0
    8.4966   -8.7296    0.0000 O   0  0  0  0  0  0  0  0  0  0  0  0
    7.7821   -9.1421    0.0000 C   0  0  0  0  0  0  0  0  0  0  0  0
    6.2830  -11.4595    0.0000 C   0  0  0  0  0  0  0  0  0  0  0  0
    5.7981  -10.7921    0.0000 C   0  0  0  0  0  0  0  0  0  0  0  0
    6.2830  -10.1246    0.0000 C   0  0  2  0  0  0  0  0  0  0  0  0
    8.4966  -11.2046    0.0000 O   0  0  0  0  0  0  0  0  0  0  0  0
    8.4966  -10.3796    0.0000 C   0  0  2  0  0  0  0  0  0  0  0  0
    7.7821   -9.9671    0.0000 C   0  0  0  0  0  0  0  0  0  0  0  0
    7.0677  -10.3796    0.0000 C   0  0  0  0  0  0  0  0  0  0  0  0
    7.0677  -11.2046    0.0000 C   0  0  2  0  0  0  0  0  0  0  0  0
    7.7821  -11.6171    0.0000 C   0  0  2  0  0  0  0  0  0  0  0  0
    9.1815  -14.9339    0.0000 C   0  0  0  0  0  0  0  0  0  0  0  0
    9.2111   -9.9671    0.0000 O   0  0  0  0  0  0  0  0  0  0  0  0
    9.9255  -10.3796    0.0000 C   0  0  0  0  0  0  0  0  0  0  0  0
   10.6400   -9.9671    0.0000 C   0  0  0  0  0  0  0  0  0  0  0  0
    9.9255  -11.2046    0.0000 O   0  0  0  0  0  0  0  0  0  0  0  0
   11.3545  -10.3796    0.0000 C   0  0  0  0  0  0  0  0  0  0  0  0
   12.0690   -9.9671    0.0000 C   0  0  0  0  0  0  0  0  0  0  0  0
   11.3545  -11.2046    0.0000 C   0  0  0  0  0  0  0  0  0  0  0  0
    6.0281  -12.2441    0.0000 C   0  0  0  0  0  0  0  0  0  0  0  0
    5.2211  -12.4157    0.0000 O   0  0  0  0  0  0  0  0  0  0  0  0
    6.0281   -9.3400    0.0000 O   0  0  0  0  0  0  0  0  0  0  0  0
    5.2211   -9.1685    0.0000 C   0  0  0  0  0  0  0  0  0  0  0  0
 20  7  1  1  0  0  0
 21  6  1  1  0  0  0
 18 12  1  0  0  0  0
 12 11  1  0  0  0  0
 11 10  1  0  0  0  0
 10  8  1  0  0  0  0
 10  9  2  0  0  0  0
 15 19  1  0  0  0  0
 13 20  1  0  0  0  0
 14 13  2  0  0  0  0
 15 14  1  0  0  0  0
 21 16  1  0  0  0  0
 17 16  1  0  0  0  0
 18 17  1  0  0  0  0
 19 18  2  0  0  0  0
 20 19  1  0  0  0  0
 21 20  1  0  0  0  0
  1  2  1  0  0  0  0
  2  3  1  0  0  0  0
  3  4  1  0  0  0  0
  1  5  2  0  0  0  0
  1  6  1  0  0  0  0
  3 22  1  0  0  0  0
 17 23  1  6  0  0  0
 23 24  1  0  0  0  0
 24 25  1  0  0  0  0
 24 26  2  0  0  0  0
 25 27  1  0  0  0  0
 27 28  1  0  0  0  0
 27 29  1  0  0  0  0
 13 30  1  0  0  0  0
 30 31  1  0  0  0  0
 15 32  1  1  0  0  0
 32 33  1  0  0  0  0
M  END
>  <cdx:groupId>
813

>  <cdx:fragmentId>
739

$$$$
