1903.cdx
  Mrv1902 05222410212D          

 27 28  0  0  0  0            999 V2000
    7.0074   -6.8516    0.0000 C   0  0  0  0  0  0  0  0  0  0  0  0
    7.4410   -6.1497    0.0000 C   0  0  0  0  0  0  0  0  0  0  0  0
    8.2656   -6.1743    0.0000 C   0  0  0  0  0  0  0  0  0  0  0  0
    6.1828   -6.8271    0.0000 C   0  0  0  0  0  0  0  0  0  0  0  0
    5.7917   -6.1007    0.0000 C   0  0  0  0  0  0  0  0  0  0  0  0
    4.9671   -6.0762    0.0000 C   0  0  0  0  0  0  0  0  0  0  0  0
    4.5335   -6.7781    0.0000 C   0  0  0  0  0  0  0  0  0  0  0  0
    4.9246   -7.5045    0.0000 C   0  0  0  0  0  0  0  0  0  0  0  0
    5.7492   -7.5290    0.0000 C   0  0  0  0  0  0  0  0  0  0  0  0
    4.4911   -8.2064    0.0000 O   0  0  0  0  0  0  0  0  0  0  0  0
    3.6664   -8.1819    0.0000 C   0  0  0  0  0  0  0  0  0  0  0  0
    3.7089   -6.7536    0.0000 O   0  0  0  0  0  0  0  0  0  0  0  0
    3.2753   -7.4555    0.0000 C   0  0  0  0  0  0  0  0  0  0  0  0
    4.5760   -5.3498    0.0000 O   0  0  0  0  0  0  0  0  0  0  0  0
    3.7513   -5.3252    0.0000 C   0  0  0  0  0  0  0  0  0  0  0  0
    8.6992   -5.4724    0.0000 O   0  0  0  0  0  0  0  0  0  0  0  0
    9.5238   -5.4969    0.0000 C   0  0  2  0  0  0  0  0  0  0  0  0
    9.9050   -6.2285    0.0000 O   0  0  0  0  0  0  0  0  0  0  0  0
   10.7292   -6.2643    0.0000 C   0  0  1  0  0  0  0  0  0  0  0  0
   11.1722   -5.5684    0.0000 C   0  0  2  0  0  0  0  0  0  0  0  0
   10.7911   -4.8367    0.0000 C   0  0  1  0  0  0  0  0  0  0  0  0
    9.9669   -4.8009    0.0000 C   0  0  1  0  0  0  0  0  0  0  0  0
   11.2342   -4.1408    0.0000 O   0  0  0  0  0  0  0  0  0  0  0  0
   11.1103   -6.9960    0.0000 C   0  0  0  0  0  0  0  0  0  0  0  0
    9.5857   -4.0693    0.0000 O   0  0  0  0  0  0  0  0  0  0  0  0
   11.9965   -5.6041    0.0000 O   0  0  0  0  0  0  0  0  0  0  0  0
   10.9427   -7.5052    0.0000 O   0  0  0  0  0  0  0  0  0  0  0  0
  1  2  2  0  0  0  0
  2  3  1  0  0  0  0
  4  5  1  0  0  0  0
  5  6  2  0  0  0  0
  6  7  1  0  0  0  0
  7  8  2  0  0  0  0
  8  9  1  0  0  0  0
  4  9  2  0  0  0  0
 10 11  1  0  0  0  0
  8 10  1  0  0  0  0
 12 13  1  0  0  0  0
  7 12  1  0  0  0  0
 14 15  1  0  0  0  0
  6 14  1  0  0  0  0
  1  4  1  0  0  0  0
  3 16  1  0  0  0  0
 17 16  1  1  0  0  0
 17 18  1  0  0  0  0
 18 19  1  0  0  0  0
 19 20  1  0  0  0  0
 20 21  1  0  0  0  0
 21 22  1  0  0  0  0
 22 17  1  0  0  0  0
 21 23  1  1  0  0  0
 19 24  1  1  0  0  0
 22 25  1  6  0  0  0
 20 26  1  6  0  0  0
 24 27  1  0  0  0  0
M  END
>  <cdx:groupId>
193

>  <cdx:fragmentId>
157

$$$$
