1905.cdx
  Mrv1902 05222410232D          

 38 42  0  0  0  0            999 V2000
    5.0637   -5.9161    0.0000 C   0  0  2  0  0  0  0  0  0  0  0  0
    5.0637   -6.7382    0.0000 C   0  0  1  0  0  0  0  0  0  0  0  0
    5.7757   -7.1493    0.0000 C   0  0  1  0  0  0  0  0  0  0  0  0
    6.4877   -6.7382    0.0000 C   0  0  2  0  0  0  0  0  0  0  0  0
    6.4877   -5.9161    0.0000 C   0  0  0  0  0  0  0  0  0  0  0  0
    5.7757   -5.5050    0.0000 C   0  0  0  0  0  0  0  0  0  0  0  0
    5.7757   -7.9714    0.0000 C   0  0  0  0  0  0  0  0  0  0  0  0
    6.4877   -8.3825    0.0000 C   0  0  0  0  0  0  0  0  0  0  0  0
    7.1997   -7.9714    0.0000 C   0  0  2  0  0  0  0  0  0  0  0  0
    7.1997   -7.1493    0.0000 C   0  0  2  0  0  0  0  0  0  0  0  0
    7.9117   -8.3825    0.0000 C   0  0  1  0  0  0  0  0  0  0  0  0
    8.6236   -7.9714    0.0000 C   0  0  0  0  0  0  0  0  0  0  0  0
    8.6236   -7.1493    0.0000 C   0  0  0  0  0  0  0  0  0  0  0  0
    7.9117   -6.7382    0.0000 C   0  0  0  0  0  0  0  0  0  0  0  0
    7.9117   -9.2046    0.0000 C   0  0  0  0  0  0  0  0  0  0  0  0
    8.6236   -9.6157    0.0000 C   0  0  0  0  0  0  0  0  0  0  0  0
    9.3356   -9.2046    0.0000 C   0  0  2  0  0  0  0  0  0  0  0  0
    9.3356   -8.3825    0.0000 C   0  0  1  0  0  0  0  0  0  0  0  0
   10.0476   -9.6157    0.0000 C   0  0  0  0  0  0  0  0  0  0  0  0
   10.7596   -9.2046    0.0000 C   0  0  0  0  0  0  0  0  0  0  0  0
   10.7596   -8.3825    0.0000 C   0  0  2  0  0  0  0  0  0  0  0  0
   10.0476   -7.9714    0.0000 C   0  0  2  0  0  0  0  0  0  0  0  0
    7.0161   -6.1084    0.0000 C   0  0  0  0  0  0  0  0  0  0  0  0
    6.9185   -8.7440    0.0000 C   0  0  0  0  0  0  0  0  0  0  0  0
    9.3356  -10.0268    0.0000 C   0  0  0  0  0  0  0  0  0  0  0  0
   10.0476   -7.1493    0.0000 C   0  0  0  0  0  0  0  0  0  0  0  0
    4.6526   -7.4502    0.0000 C   0  0  0  0  0  0  0  0  0  0  0  0
    4.3517   -5.5050    0.0000 O   0  0  0  0  0  0  0  0  0  0  0  0
    4.2416   -6.7382    0.0000 C   0  0  0  0  0  0  0  0  0  0  0  0
    3.8305   -7.4502    0.0000 O   0  0  0  0  0  0  0  0  0  0  0  0
    8.6236  -10.4378    0.0000 O   0  0  0  0  0  0  0  0  0  0  0  0
   10.0476  -10.4378    0.0000 O   0  0  0  0  0  0  0  0  0  0  0  0
   11.4716   -7.9714    0.0000 C   0  0  0  0  0  0  0  0  0  0  0  0
   12.1836   -8.3825    0.0000 O   0  0  0  0  0  0  0  0  0  0  0  0
    7.3832   -9.0123    0.0000 C   0  0  0  0  0  0  0  0  0  0  0  0
    9.3356   -7.5604    0.0000 H   0  0  0  0  0  0  0  0  0  0  0  0
    7.4809   -6.3767    0.0000 H   0  0  0  0  0  0  0  0  0  0  0  0
    5.0637   -7.5604    0.0000 H   0  0  0  0  0  0  0  0  0  0  0  0
  1  2  1  0  0  0  0
  2  3  1  0  0  0  0
  3  4  1  0  0  0  0
  4  5  1  0  0  0  0
  5  6  1  0  0  0  0
  6  1  1  0  0  0  0
  3  7  1  0  0  0  0
  7  8  1  0  0  0  0
  8  9  1  0  0  0  0
  9 10  1  0  0  0  0
 10  4  1  0  0  0  0
  9 11  1  0  0  0  0
 11 12  1  0  0  0  0
 12 13  2  0  0  0  0
 13 14  1  0  0  0  0
 14 10  1  0  0  0  0
 11 15  1  0  0  0  0
 15 16  1  0  0  0  0
 16 17  1  0  0  0  0
 17 18  1  0  0  0  0
 18 12  1  0  0  0  0
 17 19  1  0  0  0  0
 19 20  1  0  0  0  0
 20 21  1  0  0  0  0
 21 22  1  0  0  0  0
 22 18  1  0  0  0  0
  4 23  1  1  0  0  0
  9 24  1  1  0  0  0
 17 25  1  1  0  0  0
 22 26  1  1  0  0  0
  2 27  1  1  0  0  0
  1 28  1  1  0  0  0
  2 29  1  6  0  0  0
 29 30  1  0  0  0  0
 25 31  1  0  0  0  0
 25 32  2  0  0  0  0
 21 33  1  6  0  0  0
 33 34  1  0  0  0  0
 11 35  1  6  0  0  0
 18 36  1  1  0  0  0
 10 37  1  6  0  0  0
  3 38  1  6  0  0  0
M  END
>  <cdx:fragmentId>
374

$$$$
