39404.cdx
  Mrv1902 05222410232D          

 47 51  0  0  0  0            999 V2000
   10.8793  -10.3274    0.0000 C   0  0  1  0  0  0  0  0  0  0  0  0
   10.8725   -9.5053    0.0000 C   0  0  1  0  0  0  0  0  0  0  0  0
   10.1572   -9.1001    0.0000 C   0  0  2  0  0  0  0  0  0  0  0  0
    9.4486   -9.5170    0.0000 C   0  0  1  0  0  0  0  0  0  0  0  0
    9.4554  -10.3391    0.0000 O   0  0  0  0  0  0  0  0  0  0  0  0
   10.1707  -10.7443    0.0000 C   0  0  2  0  0  0  0  0  0  0  0  0
   11.5811   -9.0883    0.0000 O   0  0  0  0  0  0  0  0  0  0  0  0
   10.1775  -11.5664    0.0000 C   0  0  0  0  0  0  0  0  0  0  0  0
    8.7333   -9.1118    0.0000 O   0  0  0  0  0  0  0  0  0  0  0  0
    8.0247   -9.5287    0.0000 C   0  0  1  0  0  0  0  0  0  0  0  0
   10.1504   -8.2780    0.0000 O   0  0  0  0  0  0  0  0  0  0  0  0
   11.5947  -10.7325    0.0000 O   0  0  0  0  0  0  0  0  0  0  0  0
    7.3093   -9.1235    0.0000 C   0  0  1  0  0  0  0  0  0  0  0  0
    6.6007   -9.5405    0.0000 O   0  0  0  0  0  0  0  0  0  0  0  0
    6.6075  -10.3626    0.0000 C   0  0  2  0  0  0  0  0  0  0  0  0
    7.3229  -10.7678    0.0000 C   0  0  1  0  0  0  0  0  0  0  0  0
    8.0315  -10.3508    0.0000 C   0  0  1  0  0  0  0  0  0  0  0  0
   10.8929  -11.9716    0.0000 O   0  0  0  0  0  0  0  0  0  0  0  0
    8.7468  -10.7560    0.0000 O   0  0  0  0  0  0  0  0  0  0  0  0
    5.8989  -10.7795    0.0000 C   0  0  0  0  0  0  0  0  0  0  0  0
    7.3297  -11.5899    0.0000 O   0  0  0  0  0  0  0  0  0  0  0  0
    7.3025   -8.3014    0.0000 O   0  0  0  0  0  0  0  0  0  0  0  0
    6.5872   -7.8963    0.0000 C   0  0  0  0  0  0  0  0  0  0  0  0
    6.5804   -7.0741    0.0000 C   0  0  0  0  0  0  0  0  0  0  0  0
    5.8651   -6.6690    0.0000 O   0  0  0  0  0  0  0  0  0  0  0  0
    5.1565   -7.0859    0.0000 C   0  0  0  0  0  0  0  0  0  0  0  0
    5.1633   -7.9080    0.0000 C   0  0  0  0  0  0  0  0  0  0  0  0
    5.8786   -8.3132    0.0000 C   0  0  0  0  0  0  0  0  0  0  0  0
    4.4411   -6.6807    0.0000 C   0  0  0  0  0  0  0  0  0  0  0  0
    3.7325   -7.0976    0.0000 C   0  0  0  0  0  0  0  0  0  0  0  0
    3.7393   -7.9197    0.0000 C   0  0  0  0  0  0  0  0  0  0  0  0
    4.4547   -8.3249    0.0000 C   0  0  0  0  0  0  0  0  0  0  0  0
    7.2890   -6.6572    0.0000 C   0  0  0  0  0  0  0  0  0  0  0  0
    8.0043   -7.0624    0.0000 C   0  0  0  0  0  0  0  0  0  0  0  0
    8.7129   -6.6455    0.0000 C   0  0  0  0  0  0  0  0  0  0  0  0
    8.7061   -5.8234    0.0000 C   0  0  0  0  0  0  0  0  0  0  0  0
    7.9908   -5.4182    0.0000 C   0  0  0  0  0  0  0  0  0  0  0  0
    7.2822   -5.8351    0.0000 C   0  0  0  0  0  0  0  0  0  0  0  0
    9.4147   -5.4065    0.0000 O   0  0  0  0  0  0  0  0  0  0  0  0
    4.4343   -5.8586    0.0000 C   0  0  0  0  0  0  0  0  0  0  0  0
    3.7190   -5.4534    0.0000 C   0  0  0  0  0  0  0  0  0  0  0  0
    3.7122   -4.6313    0.0000 C   0  0  0  0  0  0  0  0  0  0  0  0
    2.9969   -4.2261    0.0000 C   0  0  0  0  0  0  0  0  0  0  0  0
    4.4208   -4.2144    0.0000 C   0  0  0  0  0  0  0  0  0  0  0  0
    3.0172   -6.6924    0.0000 O   0  0  0  0  0  0  0  0  0  0  0  0
    4.4615   -9.1470    0.0000 O   0  0  0  0  0  0  0  0  0  0  0  0
    5.8854   -9.1353    0.0000 O   0  0  0  0  0  0  0  0  0  0  0  0
  1  2  1  0  0  0  0
  2  3  1  0  0  0  0
  3  4  1  0  0  0  0
  4  5  1  0  0  0  0
  5  6  1  0  0  0  0
  6  1  1  0  0  0  0
  2  7  1  1  0  0  0
  6  8  1  1  0  0  0
  4  9  1  1  0  0  0
 10  9  1  6  0  0  0
  3 11  1  6  0  0  0
  1 12  1  6  0  0  0
 10 13  1  0  0  0  0
 13 14  1  0  0  0  0
 14 15  1  0  0  0  0
 15 16  1  0  0  0  0
 16 17  1  0  0  0  0
 17 10  1  0  0  0  0
  8 18  1  0  0  0  0
 17 19  1  6  0  0  0
 15 20  1  6  0  0  0
 16 21  1  1  0  0  0
 13 22  1  1  0  0  0
 22 23  1  0  0  0  0
 23 24  2  0  0  0  0
 24 25  1  0  0  0  0
 25 26  1  0  0  0  0
 26 27  2  0  0  0  0
 27 28  1  0  0  0  0
 28 23  1  0  0  0  0
 26 29  1  0  0  0  0
 29 30  2  0  0  0  0
 30 31  1  0  0  0  0
 31 32  2  0  0  0  0
 32 27  1  0  0  0  0
 24 33  1  0  0  0  0
 33 34  2  0  0  0  0
 34 35  1  0  0  0  0
 35 36  2  0  0  0  0
 36 37  1  0  0  0  0
 37 38  2  0  0  0  0
 38 33  1  0  0  0  0
 36 39  1  0  0  0  0
 29 40  1  0  0  0  0
 40 41  1  0  0  0  0
 41 42  2  0  0  0  0
 42 43  1  0  0  0  0
 42 44  1  0  0  0  0
 30 45  1  0  0  0  0
 32 46  1  0  0  0  0
 28 47  2  0  0  0  0
M  END
>  <cdx:fragmentId>
237

$$$$
