39409.cdx
  Mrv1902 05222410232D          

 30 31  0  0  0  0            999 V2000
    8.4916  -12.8630    0.0000 C   0  0  0  0  0  0  0  0  0  0  0  0
    8.4818  -13.6880    0.0000 C   0  0  0  0  0  0  0  0  0  0  0  0
    9.1913  -14.1090    0.0000 C   0  0  0  0  0  0  0  0  0  0  0  0
    9.9107  -13.7050    0.0000 C   0  0  0  0  0  0  0  0  0  0  0  0
    9.2110  -12.4591    0.0000 O   0  0  0  0  0  0  0  0  0  0  0  0
    7.7821  -12.4421    0.0000 O   0  0  0  0  0  0  0  0  0  0  0  0
    7.0677  -12.0296    0.0000 H   0  0  0  0  0  0  0  0  0  0  0  0
    3.5442  -10.7991    0.0000 C   0  0  0  0  0  0  0  0  0  0  0  0
    4.2525   -9.5581    0.0000 O   0  0  0  0  0  0  0  0  0  0  0  0
    4.2566  -10.3831    0.0000 C   0  0  0  0  0  0  0  0  0  0  0  0
    4.9731  -10.7921    0.0000 O   0  0  0  0  0  0  0  0  0  0  0  0
    9.2111   -7.4921    0.0000 C   0  0  0  0  0  0  0  0  0  0  0  0
    7.7821   -7.4921    0.0000 O   0  0  0  0  0  0  0  0  0  0  0  0
    8.4966   -7.9046    0.0000 C   0  0  0  0  0  0  0  0  0  0  0  0
    8.4966   -8.7296    0.0000 O   0  0  0  0  0  0  0  0  0  0  0  0
    7.7821   -9.1421    0.0000 C   0  0  0  0  0  0  0  0  0  0  0  0
    4.8853  -11.7566    0.0000 Cl  0  0  0  0  0  0  0  0  0  0  0  0
    5.6699  -12.0115    0.0000 C   0  0  0  0  0  0  0  0  0  0  0  0
    7.0677   -9.5546    0.0000 O   0  0  0  0  0  0  0  0  0  0  0  0
    6.4546  -12.2665    0.0000 O   0  0  0  0  0  0  0  0  0  0  0  0
    6.2830  -11.4595    0.0000 C   0  0  1  0  0  0  0  0  0  0  0  0
    5.7981  -10.7921    0.0000 C   0  0  2  0  0  0  0  0  0  0  0  0
    6.2830  -10.1246    0.0000 C   0  0  0  0  0  0  0  0  0  0  0  0
    8.4966  -11.2046    0.0000 O   0  0  0  0  0  0  0  0  0  0  0  0
    8.4966  -10.3796    0.0000 C   0  0  0  0  0  0  0  0  0  0  0  0
    7.7821   -9.9671    0.0000 C   0  0  0  0  0  0  0  0  0  0  0  0
    7.0677  -10.3796    0.0000 C   0  0  1  0  0  0  0  0  0  0  0  0
    7.0677  -11.2046    0.0000 C   0  0  2  0  0  0  0  0  0  0  0  0
    7.7821  -11.6171    0.0000 C   0  0  2  0  0  0  0  0  0  0  0  0
    9.1815  -14.9339    0.0000 C   0  0  0  0  0  0  0  0  0  0  0  0
 28  7  1  1  0  0  0
 29  6  1  1  0  0  0
 22 11  1  1  0  0  0
 11 10  1  0  0  0  0
 10  8  1  0  0  0  0
 10  9  2  0  0  0  0
 26 16  1  0  0  0  0
 16 15  1  0  0  0  0
 15 14  1  0  0  0  0
 14 12  1  0  0  0  0
 14 13  2  0  0  0  0
 21 18  1  1  0  0  0
 18 17  1  0  0  0  0
 27 19  1  1  0  0  0
 21 20  1  6  0  0  0
 23 27  1  0  0  0  0
 21 28  1  0  0  0  0
 22 21  1  0  0  0  0
 23 22  1  0  0  0  0
 29 24  1  0  0  0  0
 25 24  1  0  0  0  0
 26 25  2  0  0  0  0
 27 26  1  0  0  0  0
 28 27  1  0  0  0  0
 29 28  1  0  0  0  0
  1  2  1  0  0  0  0
  2  3  1  0  0  0  0
  3  4  1  0  0  0  0
  1  5  2  0  0  0  0
  1  6  1  0  0  0  0
  3 30  1  0  0  0  0
M  END
>  <cdx:groupId>
813

>  <cdx:fragmentId>
739

$$$$
