1907.cdx
  Mrv1902 05222410222D          

 48 53  0  0  0  0            999 V2000
    2.4527   -5.4399    0.0000 O   0  0  0  0  0  0  0  0  0  0  0  0
    3.6859   -4.7279    0.0000 O   0  0  0  0  0  0  0  0  0  0  0  0
    9.8519   -6.8639    0.0000 O   0  0  0  0  0  0  0  0  0  0  0  0
    3.2748   -5.4399    0.0000 C   0  0  0  0  0  0  0  0  0  0  0  0
    3.6859   -7.5759    0.0000 C   0  0  0  0  0  0  0  0  0  0  0  0
    2.8638   -7.5759    0.0000 C   0  0  0  0  0  0  0  0  0  0  0  0
    2.4527   -6.8639    0.0000 C   0  0  0  0  0  0  0  0  0  0  0  0
    2.8638   -6.1519    0.0000 C   0  0  0  0  0  0  0  0  0  0  0  0
    4.0970   -6.8639    0.0000 C   0  0  2  0  0  0  0  0  0  0  0  0
    3.6859   -6.1519    0.0000 C   0  0  2  0  0  0  0  0  0  0  0  0
    4.0970   -5.4399    0.0000 C   0  0  0  0  0  0  0  0  0  0  0  0
    4.9191   -5.4399    0.0000 C   0  0  0  0  0  0  0  0  0  0  0  0
    6.1523   -7.5759    0.0000 C   0  0  0  0  0  0  0  0  0  0  0  0
    5.3302   -7.5759    0.0000 C   0  0  0  0  0  0  0  0  0  0  0  0
    4.9191   -6.8639    0.0000 C   0  0  2  0  0  0  0  0  0  0  0  0
    5.3302   -6.1519    0.0000 C   0  0  0  0  0  0  0  0  0  0  0  0
    6.5634   -6.8639    0.0000 C   0  0  1  0  0  0  0  0  0  0  0  0
    6.1523   -6.1519    0.0000 C   0  0  1  0  0  0  0  0  0  0  0  0
    6.5634   -5.4399    0.0000 C   0  0  0  0  0  0  0  0  0  0  0  0
    7.3855   -5.4399    0.0000 C   0  0  0  0  0  0  0  0  0  0  0  0
    8.6187   -7.5759    0.0000 C   0  0  0  0  0  0  0  0  0  0  0  0
    7.7966   -7.5759    0.0000 C   0  0  0  0  0  0  0  0  0  0  0  0
    7.3855   -6.8639    0.0000 C   0  0  1  0  0  0  0  0  0  0  0  0
    7.7966   -6.1519    0.0000 C   0  0  2  0  0  0  0  0  0  0  0  0
    8.6187   -6.1519    0.0000 C   0  0  0  0  0  0  0  0  0  0  0  0
    9.0298   -6.8639    0.0000 C   0  0  2  0  0  0  0  0  0  0  0  0
    2.8638   -8.3980    0.0000 C   0  0  0  0  0  0  0  0  0  0  0  0
    2.1518   -7.9870    0.0000 C   0  0  0  0  0  0  0  0  0  0  0  0
    9.3307   -5.7408    0.0000 C   0  0  0  0  0  0  0  0  0  0  0  0
    8.6187   -5.3298    0.0000 C   0  0  0  0  0  0  0  0  0  0  0  0
    4.7764   -7.6735    0.0000 C   0  0  0  0  0  0  0  0  0  0  0  0
    6.7062   -7.6735    0.0000 H   0  0  0  0  0  0  0  0  0  0  0  0
    8.2077   -5.4399    0.0000 H   0  0  0  0  0  0  0  0  0  0  0  0
    4.2397   -7.6735    0.0000 H   0  0  0  0  0  0  0  0  0  0  0  0
    7.2428   -7.6735    0.0000 C   0  0  0  0  0  0  0  0  0  0  0  0
    5.7413   -5.4399    0.0000 C   0  0  0  0  0  0  0  0  0  0  0  0
   10.2630   -7.5759    0.0000 C   0  0  0  0  0  0  0  0  0  0  0  0
    9.8519   -8.2879    0.0000 O   0  0  0  0  0  0  0  0  0  0  0  0
   11.0851   -7.5759    0.0000 C   0  0  0  0  0  0  0  0  0  0  0  0
   11.4962   -8.2879    0.0000 C   0  0  0  0  0  0  0  0  0  0  0  0
   12.3183   -8.2879    0.0000 C   0  0  0  0  0  0  0  0  0  0  0  0
   12.7307   -8.9991    0.0000 C   0  0  0  0  0  0  0  0  0  0  0  0
   13.5528   -8.9991    0.0000 C   0  0  0  0  0  0  0  0  0  0  0  0
   13.9626   -8.2879    0.0000 C   0  0  0  0  0  0  0  0  0  0  0  0
   13.5528   -7.5766    0.0000 C   0  0  0  0  0  0  0  0  0  0  0  0
   12.7307   -7.5766    0.0000 C   0  0  0  0  0  0  0  0  0  0  0  0
   14.7847   -8.2879    0.0000 O   0  0  0  0  0  0  0  0  0  0  0  0
   13.9639   -9.7111    0.0000 O   0  0  0  0  0  0  0  0  0  0  0  0
  4  1  2  0  0  0  0
  4  2  1  0  0  0  0
 26  3  1  6  0  0  0
 10  4  1  1  0  0  0
  5  9  1  0  0  0  0
  6  5  1  0  0  0  0
  7  6  1  0  0  0  0
  8  7  1  0  0  0  0
 10  8  1  0  0  0  0
  9 15  1  0  0  0  0
 10  9  1  0  0  0  0
 11 10  1  0  0  0  0
 12 11  1  0  0  0  0
 16 12  2  0  0  0  0
 13 17  1  0  0  0  0
 14 13  1  0  0  0  0
 15 14  1  0  0  0  0
 16 15  1  0  0  0  0
 18 16  1  0  0  0  0
 17 23  1  0  0  0  0
 18 17  1  0  0  0  0
 19 18  1  0  0  0  0
 20 19  1  0  0  0  0
 24 20  1  0  0  0  0
 21 26  1  0  0  0  0
 22 21  1  0  0  0  0
 23 22  1  0  0  0  0
 24 23  1  0  0  0  0
 25 24  1  0  0  0  0
 26 25  1  0  0  0  0
  6 27  1  0  0  0  0
  6 28  1  0  0  0  0
 25 29  1  0  0  0  0
 25 30  1  0  0  0  0
 15 31  1  6  0  0  0
 17 32  1  6  0  0  0
 24 33  1  6  0  0  0
  9 34  1  1  0  0  0
 23 35  1  1  0  0  0
 18 36  1  1  0  0  0
  3 37  1  0  0  0  0
 37 38  2  0  0  0  0
 37 39  1  0  0  0  0
 39 40  2  0  0  0  0
 40 41  1  0  0  0  0
 41 42  2  0  0  0  0
 42 43  1  0  0  0  0
 43 44  2  0  0  0  0
 44 45  1  0  0  0  0
 45 46  2  0  0  0  0
 46 41  1  0  0  0  0
 44 47  1  0  0  0  0
 43 48  1  0  0  0  0
M  END
>  <cdx:fragmentId>
374

$$$$
