1906.cdx
  Mrv1902 05222410222D          

 22 24  0  0  0  0            999 V2000
    4.7065   -7.6944    0.0000 C   0  0  0  0  0  0  0  0  0  0  0  0
    4.5567   -8.5028    0.0000 O   0  0  0  0  0  0  0  0  0  0  0  0
    5.2792   -8.8950    0.0000 C   0  0  1  0  0  0  0  0  0  0  0  0
    5.8756   -8.3291    0.0000 C   0  0  1  0  0  0  0  0  0  0  0  0
    5.5216   -7.5871    0.0000 C   0  0  1  0  0  0  0  0  0  0  0  0
    5.3499   -9.7141    0.0000 C   0  0  0  0  0  0  0  0  0  0  0  0
    6.0343  -10.1696    0.0000 C   0  0  1  0  0  0  0  0  0  0  0  0
    6.8171   -9.9185    0.0000 C   0  0  0  0  0  0  0  0  0  0  0  0
    7.1089   -9.1499    0.0000 C   0  0  1  0  0  0  0  0  0  0  0  0
    6.6899   -8.4425    0.0000 C   0  0  1  0  0  0  0  0  0  0  0  0
    7.4580  -10.4335    0.0000 C   0  0  0  0  0  0  0  0  0  0  0  0
    8.1458   -9.9831    0.0000 C   0  0  0  0  0  0  0  0  0  0  0  0
    7.9301   -9.1898    0.0000 C   0  0  1  0  0  0  0  0  0  0  0  0
    4.1406   -7.0980    0.0000 O   0  0  0  0  0  0  0  0  0  0  0  0
    8.9144  -10.2749    0.0000 O   0  0  0  0  0  0  0  0  0  0  0  0
    5.9209  -10.9839    0.0000 C   0  0  0  0  0  0  0  0  0  0  0  0
    5.9327   -6.8751    0.0000 C   0  0  0  0  0  0  0  0  0  0  0  0
    6.3613   -7.6658    0.0000 H   0  0  0  0  0  0  0  0  0  0  0  0
    7.1009   -7.7305    0.0000 O   0  0  0  0  0  0  0  0  0  0  0  0
    8.4451   -8.5490    0.0000 C   0  0  0  0  0  0  0  0  0  0  0  0
    7.5200   -8.4379    0.0000 H   0  0  0  0  0  0  0  0  0  0  0  0
    4.5672   -9.3061    0.0000 H   0  0  0  0  0  0  0  0  0  0  0  0
  1  2  1  0  0  0  0
  2  3  1  0  0  0  0
  3  4  1  0  0  0  0
  4  5  1  0  0  0  0
  5  1  1  0  0  0  0
  3  6  1  0  0  0  0
  6  7  1  0  0  0  0
  7  8  1  0  0  0  0
  8  9  1  0  0  0  0
  9 10  1  0  0  0  0
 10  4  1  0  0  0  0
  8 11  2  0  0  0  0
 11 12  1  0  0  0  0
 12 13  1  0  0  0  0
 13  9  1  0  0  0  0
  1 14  2  0  0  0  0
 12 15  2  0  0  0  0
  7 16  1  1  0  0  0
  5 17  1  6  0  0  0
  4 18  1  6  0  0  0
 10 19  1  6  0  0  0
 13 20  1  6  0  0  0
  9 21  1  6  0  0  0
  3 22  1  6  0  0  0
M  END
>  <cdx:fragmentId>
495

$$$$
