39408.cdx
  Mrv1902 05222410232D          

 49 55  0  0  0  0            999 V2000
    3.0021   -6.6502    0.0000 O   0  0  0  0  0  0  0  0  0  0  0  0
    4.3675   -6.2290    0.0000 O   0  0  0  0  0  0  0  0  0  0  0  0
    4.2927   -8.4104    0.0000 C   0  0  2  0  0  0  0  0  0  0  0  0
    3.6477   -8.9248    0.0000 C   0  0  2  0  0  0  0  0  0  0  0  0
    2.8631   -8.6699    0.0000 C   0  0  0  0  0  0  0  0  0  0  0  0
    2.3782   -9.3373    0.0000 C   0  0  0  0  0  0  0  0  0  0  0  0
    2.8631  -10.0048    0.0000 C   0  0  0  0  0  0  0  0  0  0  0  0
    3.6477   -9.7498    0.0000 C   0  0  1  0  0  0  0  0  0  0  0  0
    4.2927  -10.2642    0.0000 C   0  0  1  0  0  0  0  0  0  0  0  0
    5.0970  -10.0806    0.0000 C   0  0  1  0  0  0  0  0  0  0  0  0
    5.9197  -10.0190    0.0000 O   0  0  0  0  0  0  0  0  0  0  0  0
    5.4550   -9.3373    0.0000 C   0  0  1  0  0  0  0  0  0  0  0  0
    5.0970   -8.5940    0.0000 C   0  0  1  0  0  0  0  0  0  0  0  0
    5.6582   -7.9892    0.0000 C   0  0  1  0  0  0  0  0  0  0  0  0
    6.4831   -8.0016    0.0000 O   0  0  0  0  0  0  0  0  0  0  0  0
    6.7497   -7.2209    0.0000 C   0  0  0  0  0  0  0  0  0  0  0  0
    6.0896   -6.7260    0.0000 O   0  0  0  0  0  0  0  0  0  0  0  0
    5.4150   -7.2009    0.0000 C   0  0  1  0  0  0  0  0  0  0  0  0
    4.6107   -7.0173    0.0000 C   0  0  1  0  0  0  0  0  0  0  0  0
    4.0495   -7.6221    0.0000 C   0  0  1  0  0  0  0  0  0  0  0  0
    4.8400   -7.7275    0.0000 O   0  0  0  0  0  0  0  0  0  0  0  0
    2.6081  -10.7894    0.0000 O   0  0  0  0  0  0  0  0  0  0  0  0
    3.2452   -7.4385    0.0000 C   0  0  0  0  0  0  0  0  0  0  0  0
    1.5532   -9.3373    0.0000 C   0  0  0  0  0  0  0  0  0  0  0  0
    5.2200  -10.8964    0.0000 C   0  0  0  0  0  0  0  0  0  0  0  0
    5.9880  -11.1978    0.0000 O   0  0  0  0  0  0  0  0  0  0  0  0
    4.1091  -11.0685    0.0000 O   0  0  0  0  0  0  0  0  0  0  0  0
    3.5004  -10.5616    0.0000 O   0  0  0  0  0  0  0  0  0  0  0  0
    3.5004   -8.1131    0.0000 H   0  0  0  0  0  0  0  0  0  0  0  0
    5.8939   -8.8075    0.0000 H   0  0  0  0  0  0  0  0  0  0  0  0
    3.2907   -5.2667    0.0000 C   0  0  0  0  0  0  0  0  0  0  0  0
    3.5632   -6.0454    0.0000 C   0  0  0  0  0  0  0  0  0  0  0  0
    3.8289   -4.6414    0.0000 C   0  0  0  0  0  0  0  0  0  0  0  0
    3.5564   -3.8627    0.0000 C   0  0  0  0  0  0  0  0  0  0  0  0
    2.7458   -3.7093    0.0000 C   0  0  0  0  0  0  0  0  0  0  0  0
    2.2076   -4.3346    0.0000 C   0  0  0  0  0  0  0  0  0  0  0  0
    2.4801   -5.1133    0.0000 C   0  0  0  0  0  0  0  0  0  0  0  0
    5.4150   -6.3759    0.0000 C   0  0  0  0  0  0  0  0  0  0  0  0
    4.7005   -5.9634    0.0000 C   0  0  0  0  0  0  0  0  0  0  0  0
    6.1295   -5.9634    0.0000 C   0  0  0  0  0  0  0  0  0  0  0  0
    7.5381   -6.9777    0.0000 C   0  0  0  0  0  0  0  0  0  0  0  0
    8.1428   -7.5388    0.0000 C   0  0  0  0  0  0  0  0  0  0  0  0
    8.9312   -7.2957    0.0000 C   0  0  0  0  0  0  0  0  0  0  0  0
   10.1948  -11.3920    0.0000 C   0  0  0  0  0  0  0  0  0  0  0  0
   10.3783  -10.5877    0.0000 C   0  0  0  0  0  0  0  0  0  0  0  0
    9.7736  -10.0266    0.0000 C   0  0  0  0  0  0  0  0  0  0  0  0
    9.9571   -9.2223    0.0000 C   0  0  0  0  0  0  0  0  0  0  0  0
    9.3524   -8.6611    0.0000 C   0  0  0  0  0  0  0  0  0  0  0  0
    9.5360   -7.8568    0.0000 C   0  0  0  0  0  0  0  0  0  0  0  0
 32  1  2  0  0  0  0
 32 31  1  0  0  0  0
 32  2  1  0  0  0  0
  3  4  1  0  0  0  0
  4  5  1  0  0  0  0
  5  6  2  0  0  0  0
  6  7  1  0  0  0  0
  7  8  1  0  0  0  0
  8  9  1  0  0  0  0
  9 10  1  0  0  0  0
 10 11  1  6  0  0  0
 12 11  1  6  0  0  0
 12 13  1  0  0  0  0
 13 14  1  0  0  0  0
 14 15  1  6  0  0  0
 16 15  1  0  0  0  0
 16 17  1  0  0  0  0
 18 17  1  6  0  0  0
 18 19  1  0  0  0  0
 19 20  1  0  0  0  0
  3 20  1  0  0  0  0
  3 21  1  6  0  0  0
 21 16  1  0  0  0  0
 14 18  1  0  0  0  0
  3 13  1  0  0  0  0
 10 12  1  0  0  0  0
  4  8  1  0  0  0  0
  7 22  2  0  0  0  0
 20 23  1  6  0  0  0
  6 24  1  0  0  0  0
 25 26  1  0  0  0  0
 10 25  1  0  0  0  0
  9 27  1  1  0  0  0
  8 28  1  1  0  0  0
 19  2  1  1  0  0  0
  4 29  1  6  0  0  0
 13 30  1  1  0  0  0
 31 33  2  0  0  0  0
 33 34  1  0  0  0  0
 34 35  2  0  0  0  0
 35 36  1  0  0  0  0
 36 37  2  0  0  0  0
 37 31  1  0  0  0  0
 18 38  1  0  0  0  0
 38 39  1  0  0  0  0
 38 40  2  0  0  0  0
 16 41  1  0  0  0  0
 41 42  2  0  0  0  0
 42 43  1  0  0  0  0
 45 44  1  0  0  0  0
 43 49  2  0  0  0  0
 46 45  1  0  0  0  0
 47 46  1  0  0  0  0
 48 47  2  0  0  0  0
 49 48  1  0  0  0  0
M  END
>  <cdx:fragmentId>
239

$$$$
