39414.cdx
  Mrv1902 05222410202D          

 64 72  0  0  0  0            999 V2000
   11.5230   -9.6250    0.0000 C   0  0  0  0  0  0  0  0  0  0  0  0
   11.5230  -10.4500    0.0000 C   0  0  1  0  0  0  0  0  0  0  0  0
   12.2375  -10.8625    0.0000 C   0  0  1  0  0  0  0  0  0  0  0  0
   12.9520  -10.4500    0.0000 C   0  0  0  0  0  0  0  0  0  0  0  0
   12.9520   -9.6250    0.0000 C   0  0  2  0  0  0  0  0  0  0  0  0
   12.2375   -9.2125    0.0000 C   0  0  0  0  0  0  0  0  0  0  0  0
   13.6664  -10.8625    0.0000 C   0  0  0  0  0  0  0  0  0  0  0  0
   14.3809  -10.4500    0.0000 C   0  0  0  0  0  0  0  0  0  0  0  0
   14.3809   -9.6250    0.0000 C   0  0  2  0  0  0  0  0  0  0  0  0
   13.6664   -9.2125    0.0000 C   0  0  0  0  0  0  0  0  0  0  0  0
   15.0954   -9.2125    0.0000 C   0  0  1  0  0  0  0  0  0  0  0  0
   15.0954   -8.3875    0.0000 C   0  0  0  0  0  0  0  0  0  0  0  0
   14.3809   -7.9750    0.0000 C   0  0  0  0  0  0  0  0  0  0  0  0
   13.6664   -8.3875    0.0000 C   0  0  0  0  0  0  0  0  0  0  0  0
   15.8099   -9.6250    0.0000 C   0  0  0  0  0  0  0  0  0  0  0  0
   16.5243   -9.2125    0.0000 C   0  0  2  0  0  0  0  0  0  0  0  0
   16.5243   -8.3875    0.0000 C   0  0  2  0  0  0  0  0  0  0  0  0
   15.8099   -7.9750    0.0000 C   0  0  0  0  0  0  0  0  0  0  0  0
   17.2388   -7.9750    0.0000 C   0  0  0  0  0  0  0  0  0  0  0  0
   17.2388   -7.1500    0.0000 C   0  0  1  0  0  0  0  0  0  0  0  0
   16.5243   -6.7375    0.0000 C   0  0  1  0  0  0  0  0  0  0  0  0
   15.8099   -7.1500    0.0000 C   0  0  0  0  0  0  0  0  0  0  0  0
   11.8250  -11.5770    0.0000 C   0  0  0  0  0  0  0  0  0  0  0  0
   16.1118   -6.0230    0.0000 C   0  0  0  0  0  0  0  0  0  0  0  0
   15.0954  -10.0375    0.0000 C   0  0  0  0  0  0  0  0  0  0  0  0
   17.2388   -9.6250    0.0000 O   0  0  0  0  0  0  0  0  0  0  0  0
   12.6500  -11.5770    0.0000 C   0  0  0  0  0  0  0  0  0  0  0  0
   16.9368   -6.0230    0.0000 C   0  0  0  0  0  0  0  0  0  0  0  0
   14.3809   -8.8000    0.0000 C   0  0  0  0  0  0  0  0  0  0  0  0
   12.9520   -8.8000    0.0000 C   0  0  0  0  0  0  0  0  0  0  0  0
   17.2388   -8.8000    0.0000 C   0  0  0  0  0  0  0  0  0  0  0  0
   17.9533   -7.5625    0.0000 O   0  0  0  0  0  0  0  0  0  0  0  0
   17.9533   -9.2125    0.0000 O   0  0  0  0  0  0  0  0  0  0  0  0
   10.8086  -10.8625    0.0000 O   0  0  0  0  0  0  0  0  0  0  0  0
   10.0941  -10.4500    0.0000 C   0  0  2  0  0  0  0  0  0  0  0  0
   10.0941   -9.6250    0.0000 O   0  0  0  0  0  0  0  0  0  0  0  0
    9.3796   -9.2125    0.0000 C   0  0  1  0  0  0  0  0  0  0  0  0
    8.6651   -9.6250    0.0000 C   0  0  2  0  0  0  0  0  0  0  0  0
    8.6651  -10.4500    0.0000 C   0  0  1  0  0  0  0  0  0  0  0  0
    9.3796  -10.8625    0.0000 C   0  0  1  0  0  0  0  0  0  0  0  0
    9.3796   -8.3875    0.0000 C   0  0  0  0  0  0  0  0  0  0  0  0
    7.9507  -10.8625    0.0000 O   0  0  0  0  0  0  0  0  0  0  0  0
    9.3796  -11.6875    0.0000 O   0  0  0  0  0  0  0  0  0  0  0  0
    7.9507   -9.2125    0.0000 O   0  0  0  0  0  0  0  0  0  0  0  0
    8.6651   -7.9750    0.0000 O   0  0  0  0  0  0  0  0  0  0  0  0
    8.6651   -7.1500    0.0000 C   0  0  2  0  0  0  0  0  0  0  0  0
    9.3796   -6.7375    0.0000 O   0  0  0  0  0  0  0  0  0  0  0  0
    9.3796   -5.9125    0.0000 C   0  0  1  0  0  0  0  0  0  0  0  0
    8.6651   -5.5000    0.0000 C   0  0  1  0  0  0  0  0  0  0  0  0
    7.9507   -5.9125    0.0000 C   0  0  1  0  0  0  0  0  0  0  0  0
    7.9507   -6.7375    0.0000 C   0  0  1  0  0  0  0  0  0  0  0  0
   10.0941   -5.5000    0.0000 C   0  0  0  0  0  0  0  0  0  0  0  0
    7.2362   -5.5000    0.0000 O   0  0  0  0  0  0  0  0  0  0  0  0
    8.6651   -4.6750    0.0000 O   0  0  0  0  0  0  0  0  0  0  0  0
    7.2362   -7.1500    0.0000 O   0  0  0  0  0  0  0  0  0  0  0  0
    6.5217   -6.7375    0.0000 C   0  0  2  0  0  0  0  0  0  0  0  0
    6.5217   -5.9125    0.0000 O   0  0  0  0  0  0  0  0  0  0  0  0
    5.8073   -5.5000    0.0000 C   0  0  0  0  0  0  0  0  0  0  0  0
    5.0928   -5.9125    0.0000 C   0  0  2  0  0  0  0  0  0  0  0  0
    5.0928   -6.7375    0.0000 C   0  0  1  0  0  0  0  0  0  0  0  0
    5.8073   -7.1500    0.0000 C   0  0  1  0  0  0  0  0  0  0  0  0
    4.3783   -7.1500    0.0000 O   0  0  0  0  0  0  0  0  0  0  0  0
    4.3783   -5.5000    0.0000 O   0  0  0  0  0  0  0  0  0  0  0  0
    5.8073   -7.9750    0.0000 O   0  0  0  0  0  0  0  0  0  0  0  0
  1  2  1  0  0  0  0
  2  3  1  0  0  0  0
  3  4  1  0  0  0  0
  4  5  1  0  0  0  0
  5  6  1  0  0  0  0
  6  1  1  0  0  0  0
  4  7  1  0  0  0  0
  7  8  1  0  0  0  0
  8  9  1  0  0  0  0
  9 10  1  0  0  0  0
 10  5  1  0  0  0  0
  9 11  1  0  0  0  0
 11 12  1  0  0  0  0
 12 13  2  0  0  0  0
 13 14  1  0  0  0  0
 14 10  1  0  0  0  0
 11 15  1  0  0  0  0
 15 16  1  0  0  0  0
 16 17  1  0  0  0  0
 17 18  1  0  0  0  0
 18 12  1  0  0  0  0
 17 19  1  0  0  0  0
 19 20  1  0  0  0  0
 20 21  1  0  0  0  0
 21 22  1  0  0  0  0
 22 18  1  0  0  0  0
  3 23  1  1  0  0  0
 21 24  1  1  0  0  0
 11 25  1  6  0  0  0
 16 26  1  6  0  0  0
  3 27  1  6  0  0  0
 21 28  1  6  0  0  0
  9 29  1  1  0  0  0
  5 30  1  1  0  0  0
 17 31  1  1  0  0  0
 20 32  1  1  0  0  0
 32 31  1  0  0  0  0
 31 33  2  0  0  0  0
  2 34  1  1  0  0  0
 35 34  1  1  0  0  0
 35 36  1  0  0  0  0
 36 37  1  0  0  0  0
 37 38  1  0  0  0  0
 38 39  1  0  0  0  0
 39 40  1  0  0  0  0
 40 35  1  0  0  0  0
 37 41  1  1  0  0  0
 39 42  1  1  0  0  0
 40 43  1  6  0  0  0
 38 44  1  6  0  0  0
 41 45  1  0  0  0  0
 46 45  1  1  0  0  0
 46 47  1  0  0  0  0
 47 48  1  0  0  0  0
 48 49  1  0  0  0  0
 49 50  1  0  0  0  0
 50 51  1  0  0  0  0
 51 46  1  0  0  0  0
 48 52  1  1  0  0  0
 50 53  1  1  0  0  0
 49 54  1  1  0  0  0
 51 55  1  6  0  0  0
 56 55  1  1  0  0  0
 56 57  1  0  0  0  0
 57 58  1  0  0  0  0
 58 59  1  0  0  0  0
 59 60  1  0  0  0  0
 60 61  1  0  0  0  0
 61 56  1  0  0  0  0
 60 62  1  1  0  0  0
 59 63  1  6  0  0  0
 61 64  1  6  0  0  0
M  END
>  <cdx:fragmentId>
1118

$$$$
