10394485.cdx
  Mrv1902 05222410262D          

 46 49  0  0  0  0            999 V2000
   10.0739   -7.6578    0.0000 C   0  0  0  0  0  0  0  0  0  0  0  0
    9.3594   -8.0703    0.0000 C   0  0  1  0  0  0  0  0  0  0  0  0
    8.6449   -7.6578    0.0000 C   0  0  1  0  0  0  0  0  0  0  0  0
   10.0739   -6.8328    0.0000 O   0  0  0  0  0  0  0  0  0  0  0  0
   10.7884   -8.0703    0.0000 O   0  0  0  0  0  0  0  0  0  0  0  0
    8.6449   -6.8328    0.0000 O   0  0  0  0  0  0  0  0  0  0  0  0
    9.3594   -8.8953    0.0000 O   0  0  0  0  0  0  0  0  0  0  0  0
    5.2037   -6.8707    0.0000 C   0  0  0  0  0  0  0  0  0  0  0  0
    5.7870   -6.2874    0.0000 C   0  0  0  0  0  0  0  0  0  0  0  0
    5.3745   -5.5729    0.0000 C   0  0  0  0  0  0  0  0  0  0  0  0
    5.7870   -4.8584    0.0000 C   0  0  0  0  0  0  0  0  0  0  0  0
    6.6120   -4.8584    0.0000 C   0  0  0  0  0  0  0  0  0  0  0  0
    7.0245   -5.5729    0.0000 C   0  0  0  0  0  0  0  0  0  0  0  0
    6.6120   -6.2874    0.0000 C   0  0  0  0  0  0  0  0  0  0  0  0
    7.1954   -6.8707    0.0000 C   0  0  0  0  0  0  0  0  0  0  0  0
    7.1954   -7.6957    0.0000 O   0  0  0  0  0  0  0  0  0  0  0  0
    7.9305   -8.0703    0.0000 C   0  0  2  0  0  0  0  0  0  0  0  0
    7.8014   -8.8851    0.0000 C   0  0  1  0  0  0  0  0  0  0  0  0
    6.9866   -9.0142    0.0000 C   0  0  0  0  0  0  0  0  0  0  0  0
    6.6120   -8.2791    0.0000 O   0  0  0  0  0  0  0  0  0  0  0  0
    5.7870   -8.2791    0.0000 C   0  0  0  0  0  0  0  0  0  0  0  0
    5.2037   -7.6957    0.0000 C   0  0  0  0  0  0  0  0  0  0  0  0
    4.4892   -8.1082    0.0000 C   0  0  0  0  0  0  0  0  0  0  0  0
    3.7747   -7.6957    0.0000 C   0  0  0  0  0  0  0  0  0  0  0  0
    3.7747   -6.8707    0.0000 C   0  0  0  0  0  0  0  0  0  0  0  0
    4.4892   -6.4582    0.0000 C   0  0  0  0  0  0  0  0  0  0  0  0
    8.3848   -9.4685    0.0000 O   0  0  0  0  0  0  0  0  0  0  0  0
    8.1712  -10.2654    0.0000 C   0  0  0  0  0  0  0  0  0  0  0  0
    8.7546  -10.8487    0.0000 C   0  0  0  0  0  0  0  0  0  0  0  0
    9.5515  -10.6352    0.0000 C   0  0  0  0  0  0  0  0  0  0  0  0
   10.1349  -11.2186    0.0000 C   0  0  0  0  0  0  0  0  0  0  0  0
    9.9213  -12.0155    0.0000 C   0  0  0  0  0  0  0  0  0  0  0  0
    9.1244  -12.2290    0.0000 C   0  0  0  0  0  0  0  0  0  0  0  0
    8.5411  -11.6456    0.0000 C   0  0  0  0  0  0  0  0  0  0  0  0
    7.3744  -10.4789    0.0000 O   0  0  0  0  0  0  0  0  0  0  0  0
    8.9109  -13.0259    0.0000 O   0  0  0  0  0  0  0  0  0  0  0  0
   10.5047  -12.5988    0.0000 O   0  0  0  0  0  0  0  0  0  0  0  0
   10.9318  -11.0051    0.0000 O   0  0  0  0  0  0  0  0  0  0  0  0
    5.4713   -9.0413    0.0000 O   0  0  0  0  0  0  0  0  0  0  0  0
    7.9576   -6.5550    0.0000 O   0  0  0  0  0  0  0  0  0  0  0  0
    4.2070   -5.6830    0.0000 O   0  0  0  0  0  0  0  0  0  0  0  0
    3.0602   -6.4582    0.0000 O   0  0  0  0  0  0  0  0  0  0  0  0
    3.0602   -8.1082    0.0000 O   0  0  0  0  0  0  0  0  0  0  0  0
    7.0245   -4.1440    0.0000 O   0  0  0  0  0  0  0  0  0  0  0  0
    5.3745   -4.1440    0.0000 O   0  0  0  0  0  0  0  0  0  0  0  0
    4.5993   -5.2907    0.0000 O   0  0  0  0  0  0  0  0  0  0  0  0
  1  2  1  0  0  0  0
  2  3  1  0  0  0  0
  1  4  2  0  0  0  0
  1  5  1  0  0  0  0
  3  6  1  6  0  0  0
  2  7  1  6  0  0  0
  8  9  1  0  0  0  0
  9 10  2  0  0  0  0
 10 11  1  0  0  0  0
 11 12  2  0  0  0  0
 12 13  1  0  0  0  0
 13 14  2  0  0  0  0
 14 15  1  0  0  0  0
 15 16  1  0  0  0  0
 17 16  1  1  0  0  0
 17 18  1  0  0  0  0
 18 19  1  0  0  0  0
 19 20  1  0  0  0  0
 20 21  1  0  0  0  0
 21 22  1  0  0  0  0
 22 23  2  0  0  0  0
 23 24  1  0  0  0  0
 24 25  2  0  0  0  0
 25 26  1  0  0  0  0
  8 26  2  0  0  0  0
  8 22  1  0  0  0  0
  9 14  1  0  0  0  0
 28 29  1  0  0  0  0
 29 30  1  0  0  0  0
 30 31  2  0  0  0  0
 31 32  1  0  0  0  0
 32 33  2  0  0  0  0
 33 34  1  0  0  0  0
 29 34  2  0  0  0  0
 28 35  2  0  0  0  0
 33 36  1  0  0  0  0
 32 37  1  0  0  0  0
 31 38  1  0  0  0  0
 27 28  1  0  0  0  0
 18 27  1  6  0  0  0
 21 39  2  0  0  0  0
 15 40  2  0  0  0  0
 26 41  1  0  0  0  0
 25 42  1  0  0  0  0
 24 43  1  0  0  0  0
 12 44  1  0  0  0  0
 11 45  1  0  0  0  0
 10 46  1  0  0  0  0
  3 17  1  0  0  0  0
M  END
>  <cdx:fragmentId>
48294

$$$$
