394490.cdx
  Mrv1902 05222410262D          

 62 70  0  0  0  0            999 V2000
    6.8898   -9.7110    0.0000 H   0  0  0  0  0  0  0  0  0  0  0  0
    9.3147   -9.2157    0.0000 H   0  0  0  0  0  0  0  0  0  0  0  0
   10.7457   -8.1655    0.0000 C   0  0  0  0  0  0  0  0  0  0  0  0
   10.0280   -8.5723    0.0000 C   0  0  0  0  0  0  0  0  0  0  0  0
    9.3168   -8.1542    0.0000 C   0  0  0  0  0  0  0  0  0  0  0  0
    9.3234   -7.3292    0.0000 C   0  0  0  0  0  0  0  0  0  0  0  0
   10.7523   -7.3406    0.0000 C   0  0  0  0  0  0  0  0  0  0  0  0
   10.0411   -6.9224    0.0000 C   0  0  0  0  0  0  0  0  0  0  0  0
   10.2190   -6.1168    0.0000 O   0  0  0  0  0  0  0  0  0  0  0  0
   11.0402   -6.0371    0.0000 C   0  0  0  0  0  0  0  0  0  0  0  0
   11.3697   -6.7934    0.0000 O   0  0  0  0  0  0  0  0  0  0  0  0
    8.9132  -10.0985    0.0000 C   0  0  0  0  0  0  0  0  0  0  0  0
    7.6053  -10.3657    0.0000 C   0  0  1  0  0  0  0  0  0  0  0  0
    8.3563  -10.7072    0.0000 O   0  0  0  0  0  0  0  0  0  0  0  0
    8.5991   -8.5610    0.0000 C   0  0  2  0  0  0  0  0  0  0  0  0
    8.5064   -9.3808    0.0000 C   0  0  2  0  0  0  0  0  0  0  0  0
    7.6981   -9.5459    0.0000 C   0  0  2  0  0  0  0  0  0  0  0  0
    7.2913   -8.8282    0.0000 C   0  0  0  0  0  0  0  0  0  0  0  0
    7.8481   -8.2195    0.0000 O   0  0  0  0  0  0  0  0  0  0  0  0
    6.1764  -10.3543    0.0000 C   0  0  0  0  0  0  0  0  0  0  0  0
    6.8876  -10.7725    0.0000 C   0  0  0  0  0  0  0  0  0  0  0  0
    6.8810  -11.5974    0.0000 C   0  0  0  0  0  0  0  0  0  0  0  0
    6.1633  -12.0043    0.0000 C   0  0  0  0  0  0  0  0  0  0  0  0
    5.4587  -10.7611    0.0000 C   0  0  0  0  0  0  0  0  0  0  0  0
    5.4522  -11.5861    0.0000 C   0  0  0  0  0  0  0  0  0  0  0  0
    4.6655  -11.8348    0.0000 O   0  0  0  0  0  0  0  0  0  0  0  0
    4.1859  -11.1635    0.0000 C   0  0  0  0  0  0  0  0  0  0  0  0
    4.6761  -10.5000    0.0000 O   0  0  0  0  0  0  0  0  0  0  0  0
    7.5922  -12.0156    0.0000 O   0  0  0  0  0  0  0  0  0  0  0  0
    7.5660  -15.3155    0.0000 O   0  0  0  0  0  0  0  0  0  0  0  0
    9.0015  -14.5019    0.0000 O   0  0  0  0  0  0  0  0  0  0  0  0
   10.4500  -12.0383    0.0000 O   0  0  0  0  0  0  0  0  0  0  0  0
   11.8724  -12.8746    0.0000 O   0  0  0  0  0  0  0  0  0  0  0  0
   11.8593  -14.5246    0.0000 O   0  0  0  0  0  0  0  0  0  0  0  0
   11.1350  -15.7563    0.0000 O   0  0  0  0  0  0  0  0  0  0  0  0
   10.4238  -15.3382    0.0000 C   0  0  0  0  0  0  0  0  0  0  0  0
   10.4304  -14.5132    0.0000 C   0  0  2  0  0  0  0  0  0  0  0  0
   11.1481  -14.1064    0.0000 C   0  0  2  0  0  0  0  0  0  0  0  0
   11.1546  -13.2814    0.0000 C   0  0  1  0  0  0  0  0  0  0  0  0
   10.4435  -12.8633    0.0000 C   0  0  2  0  0  0  0  0  0  0  0  0
    9.7257  -13.2701    0.0000 C   0  0  1  0  0  0  0  0  0  0  0  0
    9.7192  -14.0951    0.0000 O   0  0  0  0  0  0  0  0  0  0  0  0
    9.0146  -12.8519    0.0000 O   0  0  0  0  0  0  0  0  0  0  0  0
    7.5857  -12.8406    0.0000 C   0  0  1  0  0  0  0  0  0  0  0  0
    8.2968  -13.2587    0.0000 C   0  0  1  0  0  0  0  0  0  0  0  0
    8.2903  -14.0837    0.0000 C   0  0  2  0  0  0  0  0  0  0  0  0
    7.5726  -14.4905    0.0000 C   0  0  1  0  0  0  0  0  0  0  0  0
    6.8614  -14.0724    0.0000 C   0  0  2  0  0  0  0  0  0  0  0  0
    6.8680  -13.2474    0.0000 O   0  0  0  0  0  0  0  0  0  0  0  0
    6.1437  -14.4792    0.0000 C   0  0  0  0  0  0  0  0  0  0  0  0
    5.4325  -14.0610    0.0000 O   0  0  0  0  0  0  0  0  0  0  0  0
    1.8570  -14.4452    0.0000 O   0  0  0  0  0  0  0  0  0  0  0  0
    2.5747  -14.0383    0.0000 C   0  0  0  0  0  0  0  0  0  0  0  0
    2.5616  -15.6883    0.0000 O   0  0  0  0  0  0  0  0  0  0  0  0
    3.9840  -16.5246    0.0000 O   0  0  0  0  0  0  0  0  0  0  0  0
    5.4194  -15.7110    0.0000 O   0  0  0  0  0  0  0  0  0  0  0  0
    3.2859  -14.4565    0.0000 C   0  0  2  0  0  0  0  0  0  0  0  0
    3.2793  -15.2815    0.0000 C   0  0  2  0  0  0  0  0  0  0  0  0
    3.9905  -15.6996    0.0000 C   0  0  1  0  0  0  0  0  0  0  0  0
    4.7082  -15.2928    0.0000 C   0  0  2  0  0  0  0  0  0  0  0  0
    4.7148  -14.4678    0.0000 C   0  0  1  0  0  0  0  0  0  0  0  0
    4.0036  -14.0497    0.0000 O   0  0  0  0  0  0  0  0  0  0  0  0
 17  1  1  6  0  0  0
 16  2  1  6  0  0  0
 61 51  1  1  0  0  0
 48 50  1  1  0  0  0
 44 29  1  1  0  0  0
 29 22  1  0  0  0  0
 13 21  1  6  0  0  0
 15  5  1  6  0  0  0
  6  8  2  0  0  0  0
  3  7  2  0  0  0  0
  4  3  1  0  0  0  0
  5  4  2  0  0  0  0
  6  5  1  0  0  0  0
 11  7  1  0  0  0  0
  8  7  1  0  0  0  0
  9  8  1  0  0  0  0
 10  9  1  0  0  0  0
 11 10  1  0  0  0  0
 12 16  1  0  0  0  0
 13 17  1  0  0  0  0
 14 12  1  0  0  0  0
 14 13  1  0  0  0  0
 19 15  1  0  0  0  0
 16 15  1  0  0  0  0
 17 16  1  0  0  0  0
 18 17  1  0  0  0  0
 19 18  1  0  0  0  0
 23 25  2  0  0  0  0
 20 24  2  0  0  0  0
 21 20  1  0  0  0  0
 22 21  2  0  0  0  0
 23 22  1  0  0  0  0
 28 24  1  0  0  0  0
 25 24  1  0  0  0  0
 26 25  1  0  0  0  0
 27 26  1  0  0  0  0
 28 27  1  0  0  0  0
 47 30  1  6  0  0  0
 46 31  1  1  0  0  0
 45 43  1  6  0  0  0
 41 43  1  1  0  0  0
 40 32  1  6  0  0  0
 39 33  1  1  0  0  0
 38 34  1  6  0  0  0
 37 36  1  1  0  0  0
 36 35  1  0  0  0  0
 42 37  1  0  0  0  0
 38 37  1  0  0  0  0
 39 38  1  0  0  0  0
 40 39  1  0  0  0  0
 41 40  1  0  0  0  0
 42 41  1  0  0  0  0
 49 44  1  0  0  0  0
 45 44  1  0  0  0  0
 46 45  1  0  0  0  0
 47 46  1  0  0  0  0
 48 47  1  0  0  0  0
 49 48  1  0  0  0  0
 51 50  1  0  0  0  0
 57 53  1  1  0  0  0
 53 52  1  0  0  0  0
 58 54  1  6  0  0  0
 59 55  1  1  0  0  0
 60 56  1  6  0  0  0
 62 57  1  0  0  0  0
 58 57  1  0  0  0  0
 59 58  1  0  0  0  0
 60 59  1  0  0  0  0
 61 60  1  0  0  0  0
 62 61  1  0  0  0  0
M  END
>  <cdx:groupId>
241050

>  <cdx:fragmentId>
240961

$$$$
