3948.cdx
  Mrv1902 05222410222D          

 19 20  0  0  0  0            999 V2000
    7.9186   -5.3964    0.0000 C   0  0  0  0  0  0  0  0  0  0  0  0
    7.0936   -6.2214    0.0000 C   0  0  0  0  0  0  0  0  0  0  0  0
    8.7436   -6.2214    0.0000 O   0  0  0  0  0  0  0  0  0  0  0  0
    7.9186   -6.2214    0.0000 C   0  0  0  0  0  0  0  0  0  0  0  0
    7.9186   -7.0464    0.0000 C   0  0  0  0  0  0  0  0  0  0  0  0
    9.3476   -8.6964    0.0000 C   0  0  0  0  0  0  0  0  0  0  0  0
    7.9186   -9.5214    0.0000 C   0  0  0  0  0  0  0  0  0  0  0  0
    7.9186   -8.6964    0.0000 C   0  0  0  0  0  0  0  0  0  0  0  0
    7.2042   -8.2839    0.0000 C   0  0  0  0  0  0  0  0  0  0  0  0
    6.4897   -8.6964    0.0000 C   0  0  0  0  0  0  0  0  0  0  0  0
    6.4897   -9.5214    0.0000 C   0  0  0  0  0  0  0  0  0  0  0  0
    7.2042   -9.9339    0.0000 C   0  0  0  0  0  0  0  0  0  0  0  0
    5.7752   -8.2839    0.0000 O   0  0  0  0  0  0  0  0  0  0  0  0
    5.0608   -8.6964    0.0000 C   0  0  0  0  0  0  0  0  0  0  0  0
    5.0608   -9.5214    0.0000 C   0  0  0  0  0  0  0  0  0  0  0  0
    5.7752   -9.9339    0.0000 C   0  0  0  0  0  0  0  0  0  0  0  0
    8.6331   -8.2839    0.0000 O   0  0  0  0  0  0  0  0  0  0  0  0
    4.3463   -8.2839    0.0000 O   0  0  0  0  0  0  0  0  0  0  0  0
    7.2042   -7.4589    0.0000 C   0  0  0  0  0  0  0  0  0  0  0  0
  4  1  1  0  0  0  0
  4  2  1  0  0  0  0
  4  3  1  0  0  0  0
  5  4  1  0  0  0  0
 19  5  1  0  0  0  0
 17  6  1  0  0  0  0
  7  8  1  0  0  0  0
  8  9  2  0  0  0  0
  9 10  1  0  0  0  0
 10 11  2  0  0  0  0
 11 12  1  0  0  0  0
 12  7  2  0  0  0  0
 10 13  1  0  0  0  0
 13 14  1  0  0  0  0
 14 15  1  0  0  0  0
 15 16  2  0  0  0  0
 16 11  1  0  0  0  0
  8 17  1  0  0  0  0
 14 18  2  0  0  0  0
  9 19  1  0  0  0  0
M  END
>  <cdx:fragmentId>
5

$$$$
