39505.cdx
  Mrv1902 05222410192D          

 23 25  0  0  0  0            999 V2000
    8.1423   -9.5227    0.0000 O   0  0  0  0  0  0  0  0  0  0  0  0
    7.5910   -8.9089    0.0000 C   0  0  0  0  0  0  0  0  0  0  0  0
    6.8370   -9.2436    0.0000 C   0  0  0  0  0  0  0  0  0  0  0  0
    6.9222  -10.0642    0.0000 C   0  0  0  0  0  0  0  0  0  0  0  0
    7.7290  -10.2367    0.0000 C   0  0  0  0  0  0  0  0  0  0  0  0
    8.0637  -10.9907    0.0000 O   0  0  0  0  0  0  0  0  0  0  0  0
    7.7635   -8.1022    0.0000 C   0  0  0  0  0  0  0  0  0  0  0  0
    8.5484   -7.8481    0.0000 C   0  0  0  0  0  0  0  0  0  0  0  0
    9.1609   -8.4009    0.0000 C   0  0  0  0  0  0  0  0  0  0  0  0
    9.9458   -8.1469    0.0000 C   0  0  0  0  0  0  0  0  0  0  0  0
   10.1183   -7.3401    0.0000 C   0  0  0  0  0  0  0  0  0  0  0  0
    9.5058   -6.7874    0.0000 C   0  0  0  0  0  0  0  0  0  0  0  0
    8.7209   -7.0414    0.0000 C   0  0  0  0  0  0  0  0  0  0  0  0
   10.9032   -7.0861    0.0000 O   0  0  0  0  0  0  0  0  0  0  0  0
    6.1230   -8.8303    0.0000 C   0  0  0  0  0  0  0  0  0  0  0  0
    5.4080   -9.2419    0.0000 C   0  0  0  0  0  0  0  0  0  0  0  0
    4.6940   -8.8286    0.0000 C   0  0  0  0  0  0  0  0  0  0  0  0
    4.6950   -8.0036    0.0000 C   0  0  0  0  0  0  0  0  0  0  0  0
    5.4100   -7.5919    0.0000 C   0  0  0  0  0  0  0  0  0  0  0  0
    6.1239   -8.0053    0.0000 C   0  0  0  0  0  0  0  0  0  0  0  0
    3.9810   -7.5902    0.0000 O   0  0  0  0  0  0  0  0  0  0  0  0
    3.9820   -6.7652    0.0000 C   0  0  0  0  0  0  0  0  0  0  0  0
    5.4070  -10.0669    0.0000 O   0  0  0  0  0  0  0  0  0  0  0  0
  1  2  1  0  0  0  0
  2  3  1  0  0  0  0
  3  4  2  0  0  0  0
  4  5  1  0  0  0  0
  1  5  1  0  0  0  0
  5  6  2  0  0  0  0
  8  9  1  0  0  0  0
  9 10  2  0  0  0  0
 10 11  1  0  0  0  0
 11 12  2  0  0  0  0
 12 13  1  0  0  0  0
  8 13  2  0  0  0  0
 11 14  1  0  0  0  0
  7  8  1  0  0  0  0
  2  7  1  0  0  0  0
 15 16  1  0  0  0  0
 16 17  2  0  0  0  0
 17 18  1  0  0  0  0
 18 19  2  0  0  0  0
 19 20  1  0  0  0  0
 15 20  2  0  0  0  0
 21 22  1  0  0  0  0
 18 21  1  0  0  0  0
 16 23  1  0  0  0  0
  3 15  1  0  0  0  0
M  END
>  <cdx:fragmentId>
19

$$$$
