2009.cdx
  Mrv1902 05222410262D          

 26 28  0  0  0  0            999 V2000
   14.2558  -10.8676    0.0000 C   0  0  0  0  0  0  0  0  0  0  0  0
   14.4052  -12.2887    0.0000 N   0  0  0  0  0  0  0  0  0  0  0  0
   13.9203  -11.6213    0.0000 C   0  0  1  0  0  0  0  0  0  0  0  0
   13.0998  -11.7075    0.0000 C   0  0  0  0  0  0  0  0  0  0  0  0
   12.7642  -12.4612    0.0000 C   0  0  0  0  0  0  0  0  0  0  0  0
   11.9573  -12.6327    0.0000 C   0  0  0  0  0  0  0  0  0  0  0  0
   11.8710  -13.4532    0.0000 N   0  0  0  0  0  0  0  0  0  0  0  0
   12.6247  -13.7888    0.0000 C   0  0  0  0  0  0  0  0  0  0  0  0
   12.8797  -14.5734    0.0000 C   0  0  0  0  0  0  0  0  0  0  0  0
   13.6866  -14.7449    0.0000 C   0  0  0  0  0  0  0  0  0  0  0  0
   14.2387  -14.1318    0.0000 C   0  0  0  0  0  0  0  0  0  0  0  0
   13.9837  -13.3472    0.0000 C   0  0  0  0  0  0  0  0  0  0  0  0
   13.1767  -13.1757    0.0000 C   0  0  0  0  0  0  0  0  0  0  0  0
   13.7709  -10.2002    0.0000 O   0  0  0  0  0  0  0  0  0  0  0  0
   15.0763  -10.7814    0.0000 O   0  0  0  0  0  0  0  0  0  0  0  0
   11.1566  -13.8657    0.0000 C   0  0  1  0  0  0  0  0  0  0  0  0
   11.1566  -14.6907    0.0000 C   0  0  2  0  0  0  0  0  0  0  0  0
   11.8710  -15.1032    0.0000 O   0  0  0  0  0  0  0  0  0  0  0  0
   10.4421  -15.1032    0.0000 C   0  0  1  0  0  0  0  0  0  0  0  0
   10.4421  -15.9282    0.0000 O   0  0  0  0  0  0  0  0  0  0  0  0
    9.7276  -14.6907    0.0000 C   0  0  2  0  0  0  0  0  0  0  0  0
    9.0132  -15.1032    0.0000 O   0  0  0  0  0  0  0  0  0  0  0  0
    9.7276  -13.8657    0.0000 C   0  0  2  0  0  0  0  0  0  0  0  0
   10.4421  -13.4532    0.0000 O   0  0  0  0  0  0  0  0  0  0  0  0
    9.0132  -13.4532    0.0000 C   0  0  0  0  0  0  0  0  0  0  0  0
    8.2987  -13.8657    0.0000 O   0  0  0  0  0  0  0  0  0  0  0  0
  3  2  1  1  0  0  0
  1  3  1  0  0  0  0
  3  4  1  0  0  0  0
  4  5  1  0  0  0  0
  5  6  2  0  0  0  0
  6  7  1  0  0  0  0
  7  8  1  0  0  0  0
  8  9  1  0  0  0  0
  9 10  2  0  0  0  0
 10 11  1  0  0  0  0
 11 12  2  0  0  0  0
 12 13  1  0  0  0  0
  5 13  1  0  0  0  0
  8 13  2  0  0  0  0
  1 14  2  0  0  0  0
  1 15  1  0  0  0  0
 16 17  1  0  0  0  0
 17 18  1  6  0  0  0
 17 19  1  0  0  0  0
 19 20  1  1  0  0  0
 19 21  1  0  0  0  0
 21 22  1  6  0  0  0
 21 23  1  0  0  0  0
 23 24  1  0  0  0  0
 23 25  1  1  0  0  0
 25 26  1  0  0  0  0
 16 24  1  0  0  0  0
 16  7  1  1  0  0  0
M  END
>  <cdx:groupId>
89

>  <cdx:fragmentId>
12

$$$$
