39506.cdx
  Mrv1902 05222410202D          

 21 23  0  0  0  0            999 V2000
    7.7891   -5.3381    0.0000 C   0  0  0  0  0  0  0  0  0  0  0  0
    7.7891   -6.1631    0.0000 C   0  0  0  0  0  0  0  0  0  0  0  0
    7.0746   -6.5756    0.0000 C   0  0  0  0  0  0  0  0  0  0  0  0
    7.0746   -7.4006    0.0000 O   0  0  0  0  0  0  0  0  0  0  0  0
    6.3602   -6.1631    0.0000 C   0  0  0  0  0  0  0  0  0  0  0  0
    5.6457   -6.5756    0.0000 C   0  0  0  0  0  0  0  0  0  0  0  0
    4.9312   -6.1631    0.0000 C   0  0  0  0  0  0  0  0  0  0  0  0
    4.9312   -5.3381    0.0000 C   0  0  0  0  0  0  0  0  0  0  0  0
    4.2168   -4.9256    0.0000 O   0  0  0  0  0  0  0  0  0  0  0  0
    5.6457   -4.9256    0.0000 C   0  0  0  0  0  0  0  0  0  0  0  0
    6.3602   -5.3381    0.0000 C   0  0  0  0  0  0  0  0  0  0  0  0
    7.0746   -4.9256    0.0000 O   0  0  0  0  0  0  0  0  0  0  0  0
    8.5036   -6.5756    0.0000 C   0  0  0  0  0  0  0  0  0  0  0  0
    9.2181   -6.1631    0.0000 C   0  0  0  0  0  0  0  0  0  0  0  0
    9.9325   -6.5756    0.0000 C   0  0  0  0  0  0  0  0  0  0  0  0
    9.9325   -7.4006    0.0000 C   0  0  0  0  0  0  0  0  0  0  0  0
   10.6470   -7.8131    0.0000 O   0  0  0  0  0  0  0  0  0  0  0  0
    9.2181   -7.8131    0.0000 C   0  0  0  0  0  0  0  0  0  0  0  0
    8.5036   -7.4006    0.0000 C   0  0  0  0  0  0  0  0  0  0  0  0
    5.6457   -7.4006    0.0000 O   0  0  0  0  0  0  0  0  0  0  0  0
    4.9312   -7.8131    0.0000 C   0  0  0  0  0  0  0  0  0  0  0  0
  1  2  2  0  0  0  0
  2  3  1  0  0  0  0
  3  4  2  0  0  0  0
  3  5  1  0  0  0  0
  5  6  1  0  0  0  0
  6  7  2  0  0  0  0
  7  8  1  0  0  0  0
  8  9  1  0  0  0  0
  8 10  2  0  0  0  0
 10 11  1  0  0  0  0
  5 11  2  0  0  0  0
 11 12  1  0  0  0  0
  1 12  1  0  0  0  0
  2 13  1  0  0  0  0
 13 14  1  0  0  0  0
 14 15  2  0  0  0  0
 15 16  1  0  0  0  0
 16 17  1  0  0  0  0
 16 18  2  0  0  0  0
 18 19  1  0  0  0  0
 13 19  2  0  0  0  0
 20 21  1  0  0  0  0
  6 20  1  0  0  0  0
M  END
>  <cdx:groupId>
71

>  <cdx:fragmentId>
9

$$$$
