39511.cdx
  Mrv1902 05222410192D          

 10  9  0  0  0  0            999 V2000
    9.0354   -9.7009    0.0000 C   0  0  0  0  0  0  0  0  0  0  0  0
    8.3209  -10.1134    0.0000 C   0  0  0  0  0  0  0  0  0  0  0  0
    7.6064   -9.7009    0.0000 C   0  0  0  0  0  0  0  0  0  0  0  0
    6.8919  -10.1134    0.0000 C   0  0  0  0  0  0  0  0  0  0  0  0
    9.0354   -8.8759    0.0000 O   0  0  0  0  0  0  0  0  0  0  0  0
    9.7498  -10.1134    0.0000 O   0  0  0  0  0  0  0  0  0  0  0  0
    6.1775   -9.7009    0.0000 N   0  0  0  0  0  0  0  0  0  0  0  0
    5.4630  -10.1134    0.0000 C   0  0  0  0  0  0  0  0  0  0  0  0
    5.4630  -10.9384    0.0000 N   0  0  0  0  0  0  0  0  0  0  0  0
    4.7485   -9.7009    0.0000 N   0  0  0  0  0  0  0  0  0  0  0  0
  1  2  1  0  0  0  0
  2  3  1  0  0  0  0
  3  4  1  0  0  0  0
  1  5  2  0  0  0  0
  1  6  1  0  0  0  0
  8  9  1  0  0  0  0
  8 10  1  0  0  0  0
  7  8  2  0  0  0  0
  4  7  1  0  0  0  0
M  END
>  <cdx:fragmentId>
5

$$$$
