2019.cdx
  Mrv1902 05222410272D          

 15 15  0  0  0  0            999 V2000
   15.3707  -11.1672    0.0000 C   0  0  0  0  0  0  0  0  0  0  0  0
   14.8438  -12.5397    0.0000 N   0  0  0  0  0  0  0  0  0  0  0  0
   14.7576  -11.7192    0.0000 C   0  0  1  0  0  0  0  0  0  0  0  0
   13.9506  -11.5477    0.0000 C   0  0  0  0  0  0  0  0  0  0  0  0
   13.5381  -12.2622    0.0000 C   0  0  0  0  0  0  0  0  0  0  0  0
   14.0901  -12.8753    0.0000 C   0  0  0  0  0  0  0  0  0  0  0  0
   15.1991  -10.3602    0.0000 O   0  0  0  0  0  0  0  0  0  0  0  0
   16.1553  -11.4222    0.0000 O   0  0  0  0  0  0  0  0  0  0  0  0
   15.5583  -12.9522    0.0000 C   0  0  0  0  0  0  0  0  0  0  0  0
   15.5583  -13.7772    0.0000 O   0  0  0  0  0  0  0  0  0  0  0  0
   16.2728  -12.5397    0.0000 C   0  0  0  0  0  0  0  0  0  0  0  0
   16.9872  -12.9522    0.0000 C   0  0  0  0  0  0  0  0  0  0  0  0
   17.7017  -12.5397    0.0000 C   0  0  0  0  0  0  0  0  0  0  0  0
   17.7017  -11.7147    0.0000 O   0  0  0  0  0  0  0  0  0  0  0  0
   18.4162  -12.9522    0.0000 O   0  0  0  0  0  0  0  0  0  0  0  0
  2  3  1  0  0  0  0
  3  1  1  1  0  0  0
  3  4  1  0  0  0  0
  4  5  1  0  0  0  0
  5  6  1  0  0  0  0
  2  6  1  0  0  0  0
  1  7  2  0  0  0  0
  1  8  1  0  0  0  0
  9 10  2  0  0  0  0
  9 11  1  0  0  0  0
 11 12  1  0  0  0  0
 12 13  1  0  0  0  0
 13 14  2  0  0  0  0
 15 13  1  0  0  0  0
  2  9  1  0  0  0  0
M  END
>  <cdx:groupId>
97

>  <cdx:fragmentId>
57

$$$$
