2014.cdx
  Mrv1902 05222410182D          

 10 10  0  0  0  0            999 V2000
   13.4867  -14.5109    0.0000 N   0  0  0  0  0  0  0  0  0  0  0  0
   14.2012  -14.9234    0.0000 C   0  0  0  0  0  0  0  0  0  0  0  0
   14.2012  -15.7484    0.0000 C   0  0  0  0  0  0  0  0  0  0  0  0
   13.4867  -16.1609    0.0000 C   0  0  0  0  0  0  0  0  0  0  0  0
   12.7722  -15.7484    0.0000 C   0  0  0  0  0  0  0  0  0  0  0  0
   12.7722  -14.9234    0.0000 C   0  0  0  0  0  0  0  0  0  0  0  0
   14.9156  -14.5109    0.0000 C   0  0  0  0  0  0  0  0  0  0  0  0
   14.9156  -13.6859    0.0000 O   0  0  0  0  0  0  0  0  0  0  0  0
   15.6301  -14.9234    0.0000 O   0  0  0  0  0  0  0  0  0  0  0  0
   12.0577  -14.5109    0.0000 O   0  0  0  0  0  0  0  0  0  0  0  0
  1  2  1  0  0  0  0
  2  3  1  0  0  0  0
  3  4  1  0  0  0  0
  4  5  1  0  0  0  0
  5  6  1  0  0  0  0
  1  6  1  0  0  0  0
  7  8  2  0  0  0  0
  7  9  1  0  0  0  0
  2  7  1  0  0  0  0
  6 10  2  0  0  0  0
M  END
>  <cdx:groupId>
36

>  <cdx:fragmentId>
9

$$$$
