39513.cdx
  Mrv1902 05222410202D          

 15 16  0  0  0  0            999 V2000
    5.6383   -6.6500    0.0000 N   0  0  0  0  0  0  0  0  0  0  0  0
    6.3528   -7.8875    0.0000 C   0  0  0  0  0  0  0  0  0  0  0  0
    5.6383   -7.4750    0.0000 C   0  0  0  0  0  0  0  0  0  0  0  0
    4.9238   -7.8875    0.0000 N   0  0  0  0  0  0  0  0  0  0  0  0
    4.9238   -8.7125    0.0000 C   0  0  0  0  0  0  0  0  0  0  0  0
    5.6383   -9.1250    0.0000 N   0  0  0  0  0  0  0  0  0  0  0  0
    6.3528   -8.7125    0.0000 C   0  0  0  0  0  0  0  0  0  0  0  0
    7.1374   -8.9674    0.0000 N   0  0  0  0  0  0  0  0  0  0  0  0
    7.6223   -8.3000    0.0000 C   0  0  0  0  0  0  0  0  0  0  0  0
    7.1374   -7.6325    0.0000 N   0  0  0  0  0  0  0  0  0  0  0  0
    9.2612  -10.8797    0.0000 O   0  0  0  0  0  0  0  0  0  0  0  0
    7.9022  -11.3213    0.0000 O   0  0  0  0  0  0  0  0  0  0  0  0
    7.3923   -9.7520    0.0000 C   0  0  0  0  0  0  0  0  0  0  0  0
    8.1993   -9.9236    0.0000 C   0  0  0  0  0  0  0  0  0  0  0  0
    8.4542  -10.7082    0.0000 C   0  0  0  0  0  0  0  0  0  0  0  0
 13  8  1  0  0  0  0
  3  1  1  0  0  0  0
  7  2  1  0  0  0  0
 10  2  1  0  0  0  0
  3  2  2  0  0  0  0
  4  3  1  0  0  0  0
  5  4  2  0  0  0  0
  6  5  1  0  0  0  0
  7  6  2  0  0  0  0
  8  7  1  0  0  0  0
  9  8  1  0  0  0  0
 10  9  2  0  0  0  0
 15 11  1  0  0  0  0
 15 12  2  0  0  0  0
 14 13  1  0  0  0  0
 15 14  1  0  0  0  0
M  END
>  <cdx:fragmentId>
15

$$$$
