2012.cdx
  Mrv1902 05222410202D          

 17 18  0  0  0  0            999 V2000
   13.8361  -13.6645    0.0000 C   0  0  0  0  0  0  0  0  0  0  0  0
   14.1332  -12.2668    0.0000 N   0  0  0  0  0  0  0  0  0  0  0  0
   13.5812  -12.8799    0.0000 C   0  0  1  0  0  0  0  0  0  0  0  0
   12.7742  -12.7084    0.0000 C   0  0  0  0  0  0  0  0  0  0  0  0
   12.5193  -11.9238    0.0000 C   0  0  0  0  0  0  0  0  0  0  0  0
   13.0042  -11.2563    0.0000 C   0  0  0  0  0  0  0  0  0  0  0  0
   12.5193  -10.5889    0.0000 N   0  0  0  0  0  0  0  0  0  0  0  0
   11.7347  -10.8438    0.0000 C   0  0  0  0  0  0  0  0  0  0  0  0
   11.0202  -10.4313    0.0000 C   0  0  0  0  0  0  0  0  0  0  0  0
   10.3057  -10.8438    0.0000 C   0  0  0  0  0  0  0  0  0  0  0  0
   10.3057  -11.6688    0.0000 C   0  0  0  0  0  0  0  0  0  0  0  0
   11.0202  -12.0813    0.0000 C   0  0  0  0  0  0  0  0  0  0  0  0
   11.7347  -11.6688    0.0000 C   0  0  0  0  0  0  0  0  0  0  0  0
   13.2841  -14.2776    0.0000 O   0  0  0  0  0  0  0  0  0  0  0  0
   14.6431  -13.8361    0.0000 O   0  0  0  0  0  0  0  0  0  0  0  0
    9.5912  -12.0813    0.0000 O   0  0  0  0  0  0  0  0  0  0  0  0
    8.8768  -11.6688    0.0000 C   0  0  0  0  0  0  0  0  0  0  0  0
  3  2  1  6  0  0  0
  1  3  1  0  0  0  0
  3  4  1  0  0  0  0
  4  5  1  0  0  0  0
  5  6  2  0  0  0  0
  6  7  1  0  0  0  0
  7  8  1  0  0  0  0
  8  9  1  0  0  0  0
  9 10  2  0  0  0  0
 10 11  1  0  0  0  0
 11 12  2  0  0  0  0
 12 13  1  0  0  0  0
  5 13  1  0  0  0  0
  8 13  2  0  0  0  0
  1 14  2  0  0  0  0
  1 15  1  0  0  0  0
 16 17  1  0  0  0  0
 11 16  1  0  0  0  0
M  END
>  <cdx:groupId>
58

>  <cdx:fragmentId>
9

$$$$
