2010.cdx
  Mrv1902 05222410202D          

 12 12  0  0  0  0            999 V2000
    8.5508  -10.9875    0.0000 N   0  0  0  0  0  0  0  0  0  0  0  0
    7.8363  -11.4000    0.0000 C   0  0  0  0  0  0  0  0  0  0  0  0
    7.8363  -12.2250    0.0000 C   0  0  0  0  0  0  0  0  0  0  0  0
    8.5508  -12.6375    0.0000 C   0  0  0  0  0  0  0  0  0  0  0  0
    9.2653  -12.2250    0.0000 C   0  0  0  0  0  0  0  0  0  0  0  0
    9.2653  -11.4000    0.0000 C   0  0  0  0  0  0  0  0  0  0  0  0
    7.1218  -10.9875    0.0000 C   0  0  0  0  0  0  0  0  0  0  0  0
    7.1218  -10.1625    0.0000 O   0  0  0  0  0  0  0  0  0  0  0  0
    6.4074  -11.4000    0.0000 O   0  0  0  0  0  0  0  0  0  0  0  0
    9.9797  -10.9875    0.0000 C   0  0  0  0  0  0  0  0  0  0  0  0
    9.9797  -10.1625    0.0000 O   0  0  0  0  0  0  0  0  0  0  0  0
   10.6942  -11.4000    0.0000 O   0  0  0  0  0  0  0  0  0  0  0  0
  1  2  1  0  0  0  0
  2  3  1  0  0  0  0
  3  4  1  0  0  0  0
  4  5  1  0  0  0  0
  5  6  1  0  0  0  0
  1  6  1  0  0  0  0
  7  8  2  0  0  0  0
  7  9  1  0  0  0  0
  2  7  1  0  0  0  0
 10 11  2  0  0  0  0
 10 12  1  0  0  0  0
  6 10  1  0  0  0  0
M  END
>  <cdx:groupId>
42

>  <cdx:fragmentId>
9

$$$$
