39516.cdx
  Mrv1902 05222410182D          

 13 12  0  0  0  0            999 V2000
    8.4464   -8.7649    0.0000 N   0  0  0  0  0  0  0  0  0  0  0  0
    9.1598   -7.5268    0.0000 O   0  0  0  0  0  0  0  0  0  0  0  0
    9.8753   -8.7637    0.0000 C   0  0  0  0  0  0  0  0  0  0  0  0
    9.1605   -8.3518    0.0000 C   0  0  0  0  0  0  0  0  0  0  0  0
    4.8737   -8.3552    0.0000 O   0  0  0  0  0  0  0  0  0  0  0  0
    5.5891   -9.5921    0.0000 O   0  0  0  0  0  0  0  0  0  0  0  0
    8.4450   -7.1149    0.0000 O   0  0  0  0  0  0  0  0  0  0  0  0
    7.0161   -7.1160    0.0000 O   0  0  0  0  0  0  0  0  0  0  0  0
    5.5885   -8.7671    0.0000 C   0  0  0  0  0  0  0  0  0  0  0  0
    6.3026   -8.3541    0.0000 C   0  0  0  0  0  0  0  0  0  0  0  0
    7.0174   -8.7660    0.0000 C   0  0  0  0  0  0  0  0  0  0  0  0
    7.7316   -8.3529    0.0000 C   0  0  1  0  0  0  0  0  0  0  0  0
    7.7309   -7.5279    0.0000 C   0  0  0  0  0  0  0  0  0  0  0  0
 12  1  1  1  0  0  0
  4  1  1  0  0  0  0
  4  2  2  0  0  0  0
  4  3  1  0  0  0  0
  9  5  1  0  0  0  0
  9  6  2  0  0  0  0
 13  7  1  0  0  0  0
 13  8  2  0  0  0  0
 10  9  1  0  0  0  0
 11 10  1  0  0  0  0
 12 11  1  0  0  0  0
 12 13  1  0  0  0  0
M  END
>  <cdx:fragmentId>
3

$$$$
