39515.cdx
  Mrv1902 05222410192D          

 23 24  0  0  0  0            999 V2000
    6.6832   -9.3075    0.0000 C   0  0  1  0  0  0  0  0  0  0  0  0
    5.9689   -9.7203    0.0000 C   0  0  0  0  0  0  0  0  0  0  0  0
    8.1121   -9.3070    0.0000 O   0  0  0  0  0  0  0  0  0  0  0  0
    7.6288   -5.1047    0.0000 C   0  0  0  0  0  0  0  0  0  0  0  0
    5.9692  -10.5453    0.0000 C   0  0  0  0  0  0  0  0  0  0  0  0
    6.6839  -10.9575    0.0000 C   0  0  0  0  0  0  0  0  0  0  0  0
    6.6842  -11.7825    0.0000 C   0  0  0  0  0  0  0  0  0  0  0  0
    5.9699  -12.1953    0.0000 C   0  0  0  0  0  0  0  0  0  0  0  0
    5.2552  -11.7831    0.0000 C   0  0  0  0  0  0  0  0  0  0  0  0
    5.2549  -10.9581    0.0000 C   0  0  0  0  0  0  0  0  0  0  0  0
    7.3982  -10.5447    0.0000 O   0  0  0  0  0  0  0  0  0  0  0  0
    7.3978   -9.7197    0.0000 C   0  0  0  0  0  0  0  0  0  0  0  0
    8.8111   -7.7573    0.0000 O   0  0  0  0  0  0  0  0  0  0  0  0
    9.1836   -6.0015    0.0000 O   0  0  0  0  0  0  0  0  0  0  0  0
    6.8750   -4.7695    0.0000 O   0  0  0  0  0  0  0  0  0  0  0  0
    7.7154   -5.9252    0.0000 C   0  0  2  0  0  0  0  0  0  0  0  0
    8.4300   -6.3374    0.0000 C   0  0  2  0  0  0  0  0  0  0  0  0
    8.2588   -7.1444    0.0000 C   0  0  1  0  0  0  0  0  0  0  0  0
    7.4384   -7.2310    0.0000 C   0  0  0  0  0  0  0  0  0  0  0  0
    7.1025   -6.4775    0.0000 O   0  0  0  0  0  0  0  0  0  0  0  0
    6.6828   -8.4825    0.0000 N   0  0  0  0  0  0  0  0  0  0  0  0
    7.4384   -8.0560    0.0000 C   0  0  0  0  0  0  0  0  0  0  0  0
    6.6315   -7.4027    0.0000 O   0  0  0  0  0  0  0  0  0  0  0  0
 12  3  1  0  0  0  0
 12 11  2  0  0  0  0
 18 13  1  6  0  0  0
 17 14  1  1  0  0  0
 16  4  1  6  0  0  0
 20 16  1  0  0  0  0
 17 16  1  0  0  0  0
 18 17  1  0  0  0  0
 19 18  1  0  0  0  0
 20 19  1  0  0  0  0
 12  1  1  0  0  0  0
  1  2  1  0  0  0  0
  4 15  1  0  0  0  0
  1 21  1  6  0  0  0
  5  6  1  0  0  0  0
  6  7  2  0  0  0  0
  7  8  1  0  0  0  0
  8  9  2  0  0  0  0
  9 10  1  0  0  0  0
  5 10  2  0  0  0  0
  2  5  1  0  0  0  0
 19 22  1  0  0  0  0
 19 23  1  0  0  0  0
 22 21  1  0  0  0  0
M  END
>  <cdx:fragmentId>
19

$$$$
