39525.cdx
  Mrv1902 05222410272D          

 11 10  0  0  0  0            999 V2000
    8.4852   -7.6397    0.0000 S   0  0  0  0  0  0  0  0  0  0  0  0
    8.8977   -8.3542    0.0000 O   0  0  0  0  0  0  0  0  0  0  0  0
    8.0727   -6.9253    0.0000 O   0  0  0  0  0  0  0  0  0  0  0  0
    7.7707   -8.0522    0.0000 O   0  0  0  0  0  0  0  0  0  0  0  0
    9.1997   -7.2272    0.0000 O   0  5  0  0  0  0  0  0  0  0  0  0
    7.0563   -7.6397    0.0000 C   0  0  0  0  0  0  0  0  0  0  0  0
    6.3418   -8.0522    0.0000 C   0  0  0  0  0  0  0  0  0  0  0  0
    5.6273   -7.6397    0.0000 N   0  3  0  0  0  0  0  0  0  0  0  0
    4.9129   -7.2272    0.0000 C   0  0  0  0  0  0  0  0  0  0  0  0
    6.0398   -6.9253    0.0000 C   0  0  0  0  0  0  0  0  0  0  0  0
    5.2148   -8.3542    0.0000 C   0  0  0  0  0  0  0  0  0  0  0  0
  1  2  2  0  0  0  0
  1  3  2  0  0  0  0
  1  4  1  0  0  0  0
  1  5  1  0  0  0  0
  6  7  1  0  0  0  0
  8  9  1  0  0  0  0
  7  8  1  0  0  0  0
  4  6  1  0  0  0  0
  8 10  1  0  0  0  0
  8 11  1  0  0  0  0
M  CHG  2   5  -1   8   1
M  END
>  <cdx:fragmentId>
19

$$$$
