3952.cdx
  Mrv1902 05222410232D          

 16 17  0  0  0  0            999 V2000
    5.6339   -7.4869    0.0000 C   0  0  0  0  0  0  0  0  0  0  0  0
    5.6339   -8.3119    0.0000 C   0  0  0  0  0  0  0  0  0  0  0  0
    6.3484   -8.7244    0.0000 C   0  0  0  0  0  0  0  0  0  0  0  0
    7.0628   -8.3119    0.0000 C   0  0  0  0  0  0  0  0  0  0  0  0
    7.0628   -7.4869    0.0000 C   0  0  0  0  0  0  0  0  0  0  0  0
    6.3484   -7.0744    0.0000 C   0  0  0  0  0  0  0  0  0  0  0  0
    7.7773   -8.7244    0.0000 C   0  0  1  0  0  0  0  0  0  0  0  0
    8.4918   -8.3119    0.0000 C   0  0  0  0  0  0  0  0  0  0  0  0
    8.4918   -7.4869    0.0000 C   0  0  0  0  0  0  0  0  0  0  0  0
    7.7773   -7.0744    0.0000 C   0  0  0  0  0  0  0  0  0  0  0  0
    7.7773   -6.2494    0.0000 O   0  0  0  0  0  0  0  0  0  0  0  0
    4.9194   -7.0744    0.0000 O   0  0  0  0  0  0  0  0  0  0  0  0
    4.9194   -8.7244    0.0000 C   0  0  0  0  0  0  0  0  0  0  0  0
    7.7773   -9.5494    0.0000 C   0  0  0  0  0  0  0  0  0  0  0  0
    7.0628   -9.9619    0.0000 C   0  0  0  0  0  0  0  0  0  0  0  0
    8.4918   -9.9619    0.0000 C   0  0  0  0  0  0  0  0  0  0  0  0
  1  2  2  0  0  0  0
  2  3  1  0  0  0  0
  3  4  2  0  0  0  0
  4  5  1  0  0  0  0
  5  6  2  0  0  0  0
  6  1  1  0  0  0  0
  4  7  1  0  0  0  0
  7  8  1  0  0  0  0
  8  9  1  0  0  0  0
  9 10  1  0  0  0  0
 10  5  1  0  0  0  0
 10 11  2  0  0  0  0
  1 12  1  0  0  0  0
  2 13  1  0  0  0  0
  7 14  1  1  0  0  0
 14 15  1  0  0  0  0
 14 16  1  0  0  0  0
M  END
>  <cdx:fragmentId>
5

$$$$
