39522.cdx
  Mrv1902 05222410262D          

 15 14  0  0  0  0            999 V2000
    7.3450   -9.6808    0.0000 O   0  0  0  0  0  0  0  0  0  0  0  0
    6.6305   -7.6183    0.0000 O   0  0  0  0  0  0  0  0  0  0  0  0
    5.9160   -9.6808    0.0000 O   0  0  0  0  0  0  0  0  0  0  0  0
    4.4871   -8.8558    0.0000 O   0  0  0  0  0  0  0  0  0  0  0  0
    8.7739   -7.2058    0.0000 O   0  0  0  0  0  0  0  0  0  0  0  0
    5.2016   -8.4433    0.0000 C   0  0  0  0  0  0  0  0  0  0  0  0
    5.9160   -8.8558    0.0000 C   0  0  2  0  0  0  0  0  0  0  0  0
    6.6305   -8.4433    0.0000 C   0  0  2  0  0  0  0  0  0  0  0  0
    7.3450   -8.8558    0.0000 C   0  0  1  0  0  0  0  0  0  0  0  0
    8.0595   -8.4433    0.0000 C   0  0  2  0  0  0  0  0  0  0  0  0
    8.0595   -7.6183    0.0000 C   0  0  0  0  0  0  0  0  0  0  0  0
    8.7739   -8.8558    0.0000 N   0  0  0  0  0  0  0  0  0  0  0  0
    9.4884   -7.6183    0.0000 O   0  0  0  0  0  0  0  0  0  0  0  0
   10.2029   -8.8558    0.0000 C   0  0  0  0  0  0  0  0  0  0  0  0
    9.4884   -8.4433    0.0000 C   0  0  0  0  0  0  0  0  0  0  0  0
 10 12  1  6  0  0  0
  9  1  1  1  0  0  0
  8  2  1  1  0  0  0
  7  3  1  6  0  0  0
  6  4  1  0  0  0  0
 11  5  2  0  0  0  0
  7  6  1  0  0  0  0
  8  7  1  0  0  0  0
  9  8  1  0  0  0  0
 10  9  1  0  0  0  0
 10 11  1  0  0  0  0
 15 12  1  0  0  0  0
 15 13  2  0  0  0  0
 15 14  1  0  0  0  0
M  END
>  <cdx:fragmentId>
11

$$$$
