2020.cdx
  Mrv1902 05222410272D          

 15 15  0  0  0  0            999 V2000
   13.9594  -11.0805    0.0000 C   0  0  0  0  0  0  0  0  0  0  0  0
   14.6738  -11.4930    0.0000 C   0  0  0  0  0  0  0  0  0  0  0  0
   15.3883  -11.0805    0.0000 C   0  0  0  0  0  0  0  0  0  0  0  0
   16.1028  -11.4930    0.0000 C   0  0  0  0  0  0  0  0  0  0  0  0
   13.9594  -10.2555    0.0000 O   0  0  0  0  0  0  0  0  0  0  0  0
   14.6738  -13.9680    0.0000 O   0  0  0  0  0  0  0  0  0  0  0  0
   13.9594  -13.5555    0.0000 C   0  0  0  0  0  0  0  0  0  0  0  0
   13.9594  -12.7305    0.0000 C   0  0  0  0  0  0  0  0  0  0  0  0
   14.6738  -12.3180    0.0000 C   0  0  0  0  0  0  0  0  0  0  0  0
   15.3883  -12.7305    0.0000 C   0  0  0  0  0  0  0  0  0  0  0  0
   15.3883  -13.5555    0.0000 C   0  0  0  0  0  0  0  0  0  0  0  0
   13.2449  -13.9680    0.0000 O   0  0  0  0  0  0  0  0  0  0  0  0
   15.3883  -11.9055    0.0000 O   0  0  0  0  0  0  0  0  0  0  0  0
   13.2449  -12.3180    0.0000 C   0  0  0  0  0  0  0  0  0  0  0  0
   13.2449  -11.4930    0.0000 N   0  0  0  0  0  0  0  0  0  0  0  0
  1  2  1  0  0  0  0
  2  3  1  0  0  0  0
  3  4  2  0  0  0  0
  1  5  2  0  0  0  0
  6  7  1  0  0  0  0
  7  8  1  0  0  0  0
  8  9  1  0  0  0  0
  9 10  1  0  0  0  0
 10 11  1  0  0  0  0
  6 11  1  0  0  0  0
  7 12  2  0  0  0  0
  9 13  1  0  0  0  0
 14 15  1  0  0  0  0
  8 14  2  0  0  0  0
  2  9  1  0  0  0  0
M  END
>  <cdx:groupId>
52

>  <cdx:fragmentId>
20

$$$$
