39523.cdx
  Mrv1902 05222410262D          

 50 50  0  0  0  0            999 V2000
   10.8952  -10.1147    0.0000 C   0  0  0  0  0  0  0  0  0  0  0  0
   10.1807  -10.5272    0.0000 C   0  0  1  0  0  0  0  0  0  0  0  0
    9.4663  -10.1147    0.0000 C   0  0  0  0  0  0  0  0  0  0  0  0
    8.7518  -10.5272    0.0000 C   0  0  0  0  0  0  0  0  0  0  0  0
    8.0373  -10.1147    0.0000 C   0  0  0  0  0  0  0  0  0  0  0  0
    7.3228  -10.5272    0.0000 C   0  0  0  0  0  0  0  0  0  0  0  0
    6.6084  -10.1147    0.0000 C   0  0  0  0  0  0  0  0  0  0  0  0
    5.8939  -10.5272    0.0000 C   0  0  0  0  0  0  0  0  0  0  0  0
    5.1794  -10.1147    0.0000 C   0  0  0  0  0  0  0  0  0  0  0  0
    4.4650  -10.5272    0.0000 C   0  0  0  0  0  0  0  0  0  0  0  0
    3.7505  -10.1147    0.0000 C   0  0  0  0  0  0  0  0  0  0  0  0
    3.0360  -10.5272    0.0000 C   0  0  0  0  0  0  0  0  0  0  0  0
    2.3215  -10.1147    0.0000 C   0  0  0  0  0  0  0  0  0  0  0  0
    1.6071  -10.5272    0.0000 C   0  0  0  0  0  0  0  0  0  0  0  0
    0.8926  -10.1147    0.0000 C   0  0  0  0  0  0  0  0  0  0  0  0
    0.1781  -10.5272    0.0000 C   0  0  0  0  0  0  0  0  0  0  0  0
   10.8952   -9.2897    0.0000 O   0  0  0  0  0  0  0  0  0  0  0  0
   11.6097  -10.5272    0.0000 N   0  0  0  0  0  0  0  0  0  0  0  0
   12.3241   -9.2897    0.0000 C   0  0  0  0  0  0  0  0  0  0  0  0
   12.3241  -10.1147    0.0000 C   0  0  1  0  0  0  0  0  0  0  0  0
   13.0386  -10.5272    0.0000 C   0  0  1  0  0  0  0  0  0  0  0  0
   13.7531  -10.1147    0.0000 C   0  0  0  0  0  0  0  0  0  0  0  0
   14.4675  -10.5272    0.0000 C   0  0  0  0  0  0  0  0  0  0  0  0
   15.1820  -10.1147    0.0000 C   0  0  0  0  0  0  0  0  0  0  0  0
   15.8965  -10.5272    0.0000 C   0  0  0  0  0  0  0  0  0  0  0  0
   16.6110  -10.1147    0.0000 C   0  0  0  0  0  0  0  0  0  0  0  0
   17.3254  -10.5272    0.0000 C   0  0  0  0  0  0  0  0  0  0  0  0
   18.0399  -10.1147    0.0000 C   0  0  0  0  0  0  0  0  0  0  0  0
   18.7544  -10.5272    0.0000 C   0  0  0  0  0  0  0  0  0  0  0  0
   19.4688  -10.1147    0.0000 C   0  0  0  0  0  0  0  0  0  0  0  0
   20.1833  -10.5272    0.0000 C   0  0  0  0  0  0  0  0  0  0  0  0
   20.8978  -10.1147    0.0000 C   0  0  0  0  0  0  0  0  0  0  0  0
   21.6123  -10.5272    0.0000 C   0  0  0  0  0  0  0  0  0  0  0  0
   22.3267  -10.1147    0.0000 C   0  0  0  0  0  0  0  0  0  0  0  0
   23.0412  -10.5272    0.0000 C   0  0  0  0  0  0  0  0  0  0  0  0
   23.7557  -10.1147    0.0000 C   0  0  0  0  0  0  0  0  0  0  0  0
   13.0386   -8.8772    0.0000 O   0  0  0  0  0  0  0  0  0  0  0  0
   13.7531   -7.6397    0.0000 O   0  0  0  0  0  0  0  0  0  0  0  0
   13.0386   -8.0522    0.0000 C   0  0  2  0  0  0  0  0  0  0  0  0
   12.3241   -7.6397    0.0000 C   0  0  1  0  0  0  0  0  0  0  0  0
   12.3241   -6.8147    0.0000 C   0  0  2  0  0  0  0  0  0  0  0  0
   13.0386   -6.4022    0.0000 C   0  0  1  0  0  0  0  0  0  0  0  0
   13.7531   -6.8147    0.0000 C   0  0  1  0  0  0  0  0  0  0  0  0
   14.4675   -6.4022    0.0000 C   0  0  0  0  0  0  0  0  0  0  0  0
   14.4675   -5.5772    0.0000 O   0  0  0  0  0  0  0  0  0  0  0  0
   13.0386   -5.5772    0.0000 O   0  0  0  0  0  0  0  0  0  0  0  0
   11.6097   -6.4022    0.0000 O   0  0  0  0  0  0  0  0  0  0  0  0
   11.6097   -8.0522    0.0000 O   0  0  0  0  0  0  0  0  0  0  0  0
   13.0386  -11.3522    0.0000 O   0  0  0  0  0  0  0  0  0  0  0  0
   10.1807  -11.3522    0.0000 O   0  0  0  0  0  0  0  0  0  0  0  0
  1  2  1  0  0  0  0
  2  3  1  0  0  0  0
  3  4  1  0  0  0  0
  4  5  1  0  0  0  0
  5  6  1  0  0  0  0
  6  7  1  0  0  0  0
  7  8  1  0  0  0  0
  8  9  1  0  0  0  0
  9 10  1  0  0  0  0
 10 11  1  0  0  0  0
 11 12  1  0  0  0  0
 12 13  1  0  0  0  0
 13 14  1  0  0  0  0
 14 15  1  0  0  0  0
 15 16  1  0  0  0  0
  1 17  2  0  0  0  0
  1 18  1  0  0  0  0
 20 19  1  1  0  0  0
 20 21  1  0  0  0  0
 21 22  1  0  0  0  0
 22 23  2  0  0  0  0
 23 24  1  0  0  0  0
 24 25  1  0  0  0  0
 25 26  1  0  0  0  0
 26 27  2  0  0  0  0
 27 28  1  0  0  0  0
 28 29  1  0  0  0  0
 29 30  1  0  0  0  0
 30 31  1  0  0  0  0
 31 32  1  0  0  0  0
 32 33  1  0  0  0  0
 33 34  1  0  0  0  0
 34 35  1  0  0  0  0
 35 36  1  0  0  0  0
 38 39  1  0  0  0  0
 39 40  1  0  0  0  0
 40 41  1  0  0  0  0
 41 42  1  0  0  0  0
 42 43  1  0  0  0  0
 38 43  1  0  0  0  0
 44 45  1  0  0  0  0
 43 44  1  1  0  0  0
 42 46  1  6  0  0  0
 41 47  1  1  0  0  0
 40 48  1  6  0  0  0
 39 37  1  1  0  0  0
 19 37  1  0  0  0  0
 21 49  1  1  0  0  0
 18 20  1  0  0  0  0
  2 50  1  6  0  0  0
M  END
>  <cdx:fragmentId>
39

$$$$
