2028.cdx
  Mrv1902 05222410182D          

 19 18  0  0  0  0            999 V2000
   19.9679  -14.3805    0.0000 C   0  0  0  0  0  0  0  0  0  0  0  0
   19.2534  -14.7930    0.0000 C   0  0  0  0  0  0  0  0  0  0  0  0
   18.5390  -14.3805    0.0000 C   0  0  0  0  0  0  0  0  0  0  0  0
   17.8245  -14.7930    0.0000 C   0  0  0  0  0  0  0  0  0  0  0  0
   17.1100  -14.3805    0.0000 C   0  0  0  0  0  0  0  0  0  0  0  0
   16.3956  -14.7930    0.0000 C   0  0  0  0  0  0  0  0  0  0  0  0
   15.6811  -14.3805    0.0000 C   0  0  0  0  0  0  0  0  0  0  0  0
   14.9666  -14.7930    0.0000 C   0  0  0  0  0  0  0  0  0  0  0  0
   14.2521  -14.3805    0.0000 C   0  0  0  0  0  0  0  0  0  0  0  0
   13.5377  -14.7930    0.0000 C   0  0  0  0  0  0  0  0  0  0  0  0
   12.8232  -14.3805    0.0000 C   0  0  0  0  0  0  0  0  0  0  0  0
   12.1087  -14.7930    0.0000 C   0  0  0  0  0  0  0  0  0  0  0  0
   11.3943  -14.3805    0.0000 C   0  0  0  0  0  0  0  0  0  0  0  0
   10.6798  -14.7930    0.0000 C   0  0  0  0  0  0  0  0  0  0  0  0
    9.9653  -14.3805    0.0000 C   0  0  0  0  0  0  0  0  0  0  0  0
    9.2508  -14.7930    0.0000 C   0  0  0  0  0  0  0  0  0  0  0  0
   19.9679  -13.5555    0.0000 O   0  0  0  0  0  0  0  0  0  0  0  0
   20.6824  -14.7930    0.0000 O   0  0  0  0  0  0  0  0  0  0  0  0
    8.5364  -14.3805    0.0000 O   0  0  0  0  0  0  0  0  0  0  0  0
  1  2  1  0  0  0  0
  2  3  1  0  0  0  0
  3  4  1  0  0  0  0
  4  5  1  0  0  0  0
  5  6  1  0  0  0  0
  6  7  1  0  0  0  0
  7  8  1  0  0  0  0
  8  9  1  0  0  0  0
  9 10  1  0  0  0  0
 10 11  1  0  0  0  0
 11 12  1  0  0  0  0
 12 13  1  0  0  0  0
 13 14  1  0  0  0  0
 14 15  1  0  0  0  0
 15 16  1  0  0  0  0
  1 17  2  0  0  0  0
  1 18  1  0  0  0  0
 16 19  1  0  0  0  0
M  END
>  <cdx:groupId>
62

>  <cdx:fragmentId>
9

$$$$
