39526.cdx
  Mrv1902 05222410282D          

 11 10  0  0  0  0            999 V2000
    8.7739   -8.4647    0.0000 N   0  3  0  0  0  0  0  0  0  0  0  0
    8.0595   -8.0522    0.0000 C   0  0  0  0  0  0  0  0  0  0  0  0
    7.3450   -8.4647    0.0000 C   0  0  0  0  0  0  0  0  0  0  0  0
    6.6305   -8.0522    0.0000 O   0  0  0  0  0  0  0  0  0  0  0  0
    5.9160   -8.4647    0.0000 P   0  0  0  0  0  0  0  0  0  0  0  0
    9.4884   -8.8772    0.0000 C   0  0  0  0  0  0  0  0  0  0  0  0
    8.3614   -9.1792    0.0000 C   0  0  0  0  0  0  0  0  0  0  0  0
    9.1864   -7.7503    0.0000 C   0  0  0  0  0  0  0  0  0  0  0  0
    5.2016   -8.8772    0.0000 O   0  0  0  0  0  0  0  0  0  0  0  0
    6.3285   -9.1792    0.0000 O   0  0  0  0  0  0  0  0  0  0  0  0
    5.5035   -7.7503    0.0000 O   0  0  0  0  0  0  0  0  0  0  0  0
  2  3  1  0  0  0  0
  4  5  1  0  0  0  0
  3  4  1  0  0  0  0
  1  2  1  0  0  0  0
  1  6  1  0  0  0  0
  1  7  1  0  0  0  0
  1  8  1  0  0  0  0
  5  9  1  0  0  0  0
  5 10  1  0  0  0  0
  5 11  2  0  0  0  0
M  CHG  1   1   1
M  END
>  <cdx:fragmentId>
13

$$$$
