39521.cdx
  Mrv1902 05222410262D          

 17 17  0  0  0  0            999 V2000
    7.0458   -9.6165    0.0000 O   0  0  0  0  0  0  0  0  0  0  0  0
    7.0512   -7.1415    0.0000 O   0  0  0  0  0  0  0  0  0  0  0  0
    7.7648   -7.5556    0.0000 C   0  0  0  0  0  0  0  0  0  0  0  0
    7.7630   -8.3806    0.0000 C   0  0  1  0  0  0  0  0  0  0  0  0
    7.0476   -8.7915    0.0000 C   0  0  2  0  0  0  0  0  0  0  0  0
    6.3340   -8.3775    0.0000 C   0  0  1  0  0  0  0  0  0  0  0  0
    6.3358   -7.5525    0.0000 C   0  0  1  0  0  0  0  0  0  0  0  0
    5.6223   -7.1384    0.0000 C   0  0  0  0  0  0  0  0  0  0  0  0
    5.6241   -6.3134    0.0000 O   0  0  0  0  0  0  0  0  0  0  0  0
    5.6187   -8.7884    0.0000 O   0  0  0  0  0  0  0  0  0  0  0  0
    8.4802   -7.1447    0.0000 O   0  0  0  0  0  0  0  0  0  0  0  0
    8.4765   -8.7947    0.0000 N   0  0  0  0  0  0  0  0  0  0  0  0
    5.6133  -11.2634    0.0000 O   0  0  0  0  0  0  0  0  0  0  0  0
    7.0422  -11.2665    0.0000 O   0  0  0  0  0  0  0  0  0  0  0  0
    5.6169   -9.6134    0.0000 C   0  0  0  0  0  0  0  0  0  0  0  0
    6.3304  -10.0275    0.0000 C   0  0  2  0  0  0  0  0  0  0  0  0
    6.3286  -10.8525    0.0000 C   0  0  0  0  0  0  0  0  0  0  0  0
 16  1  1  1  0  0  0
 17 13  1  0  0  0  0
 17 14  2  0  0  0  0
 16 15  1  0  0  0  0
 17 16  1  0  0  0  0
  2  3  1  0  0  0  0
  3  4  1  0  0  0  0
  4  5  1  0  0  0  0
  5  6  1  0  0  0  0
  6  7  1  0  0  0  0
  2  7  1  0  0  0  0
  8  9  1  0  0  0  0
  7  8  1  1  0  0  0
  6 10  1  6  0  0  0
  3 11  1  0  0  0  0
  4 12  1  6  0  0  0
  5  1  1  1  0  0  0
M  END
>  <cdx:fragmentId>
17

$$$$
