2027.cdx
  Mrv1902 05222410282D          

 18 17  0  0  0  0            999 V2000
    8.4184  -11.4156    0.0000 C   0  0  0  0  0  0  0  0  0  0  0  0
    9.1329  -11.0031    0.0000 C   0  0  0  0  0  0  0  0  0  0  0  0
    9.8474  -11.4156    0.0000 C   0  0  0  0  0  0  0  0  0  0  0  0
   10.5619  -11.0031    0.0000 C   0  0  0  0  0  0  0  0  0  0  0  0
   11.2763  -11.4156    0.0000 C   0  0  0  0  0  0  0  0  0  0  0  0
   11.9908  -11.0031    0.0000 C   0  0  0  0  0  0  0  0  0  0  0  0
   12.7053  -11.4156    0.0000 C   0  0  0  0  0  0  0  0  0  0  0  0
   13.4197  -11.0031    0.0000 C   0  0  0  0  0  0  0  0  0  0  0  0
   14.1342  -11.4156    0.0000 C   0  0  0  0  0  0  0  0  0  0  0  0
   14.8487  -11.0031    0.0000 C   0  0  0  0  0  0  0  0  0  0  0  0
   15.5632  -11.4156    0.0000 C   0  0  0  0  0  0  0  0  0  0  0  0
   16.2776  -11.0031    0.0000 C   0  0  0  0  0  0  0  0  0  0  0  0
   16.9921  -11.4156    0.0000 C   0  0  0  0  0  0  0  0  0  0  0  0
   17.7066  -11.0031    0.0000 C   0  0  0  0  0  0  0  0  0  0  0  0
    8.4184  -12.2406    0.0000 O   0  0  0  0  0  0  0  0  0  0  0  0
    7.7040  -11.0031    0.0000 O   0  0  0  0  0  0  0  0  0  0  0  0
   17.7066  -10.1781    0.0000 O   0  0  0  0  0  0  0  0  0  0  0  0
   18.4210  -11.4156    0.0000 O   0  0  0  0  0  0  0  0  0  0  0  0
  1  2  1  0  0  0  0
  2  3  1  0  0  0  0
  3  4  1  0  0  0  0
  4  5  1  0  0  0  0
  5  6  1  0  0  0  0
  6  7  1  0  0  0  0
  7  8  1  0  0  0  0
  8  9  1  0  0  0  0
  9 10  1  0  0  0  0
 10 11  1  0  0  0  0
 11 12  1  0  0  0  0
 12 13  1  0  0  0  0
 13 14  1  0  0  0  0
  1 15  2  0  0  0  0
  1 16  1  0  0  0  0
 14 17  2  0  0  0  0
 14 18  1  0  0  0  0
M  END
>  <cdx:groupId>
59

>  <cdx:fragmentId>
9

$$$$
