2029.cdx
  Mrv1902 05222410192D          

 38 42  0  0  0  0            999 V2000
   13.7800  -11.2119    0.0000 C   0  0  0  0  0  0  0  0  0  0  0  0
   13.7800  -12.0369    0.0000 C   0  0  0  0  0  0  0  0  0  0  0  0
   13.0655  -12.4494    0.0000 C   0  0  0  0  0  0  0  0  0  0  0  0
   13.0655  -13.2744    0.0000 O   0  0  0  0  0  0  0  0  0  0  0  0
   12.3510  -12.0369    0.0000 C   0  0  0  0  0  0  0  0  0  0  0  0
   11.6366  -12.4494    0.0000 C   0  0  0  0  0  0  0  0  0  0  0  0
   11.6366  -13.2744    0.0000 O   0  0  0  0  0  0  0  0  0  0  0  0
   10.9221  -12.0369    0.0000 C   0  0  0  0  0  0  0  0  0  0  0  0
   10.9221  -11.2119    0.0000 C   0  0  0  0  0  0  0  0  0  0  0  0
   10.2076  -10.7994    0.0000 O   0  0  0  0  0  0  0  0  0  0  0  0
   11.6366  -10.7994    0.0000 C   0  0  0  0  0  0  0  0  0  0  0  0
   12.3510  -11.2119    0.0000 C   0  0  0  0  0  0  0  0  0  0  0  0
   13.0655  -10.7994    0.0000 O   0  0  0  0  0  0  0  0  0  0  0  0
   14.4945  -10.7994    0.0000 C   0  0  0  0  0  0  0  0  0  0  0  0
   14.4945   -9.9744    0.0000 C   0  0  0  0  0  0  0  0  0  0  0  0
   15.2089   -9.5619    0.0000 C   0  0  0  0  0  0  0  0  0  0  0  0
   15.9234   -9.9744    0.0000 C   0  0  0  0  0  0  0  0  0  0  0  0
   16.6379   -9.5619    0.0000 O   0  0  0  0  0  0  0  0  0  0  0  0
   15.9234  -10.7994    0.0000 C   0  0  0  0  0  0  0  0  0  0  0  0
   15.2089  -11.2119    0.0000 C   0  0  0  0  0  0  0  0  0  0  0  0
   11.6366   -9.9744    0.0000 C   0  0  2  0  0  0  0  0  0  0  0  0
   10.9691   -9.4895    0.0000 C   0  0  2  0  0  0  0  0  0  0  0  0
   10.1845   -9.7444    0.0000 O   0  0  0  0  0  0  0  0  0  0  0  0
   11.2241   -8.7049    0.0000 C   0  0  1  0  0  0  0  0  0  0  0  0
   10.7391   -8.0374    0.0000 O   0  0  0  0  0  0  0  0  0  0  0  0
   12.0491   -8.7049    0.0000 C   0  0  1  0  0  0  0  0  0  0  0  0
   12.3040   -9.4895    0.0000 O   0  0  0  0  0  0  0  0  0  0  0  0
   12.5340   -8.0374    0.0000 C   0  0  0  0  0  0  0  0  0  0  0  0
   13.3545   -8.1237    0.0000 O   0  0  0  0  0  0  0  0  0  0  0  0
   10.2076  -12.4494    0.0000 C   0  0  1  0  0  0  0  0  0  0  0  0
   10.1214  -13.2699    0.0000 C   0  0  2  0  0  0  0  0  0  0  0  0
   10.7345  -13.8219    0.0000 O   0  0  0  0  0  0  0  0  0  0  0  0
    9.3144  -13.4414    0.0000 C   0  0  1  0  0  0  0  0  0  0  0  0
    8.9789  -14.1951    0.0000 O   0  0  0  0  0  0  0  0  0  0  0  0
    8.9019  -12.7269    0.0000 C   0  0  1  0  0  0  0  0  0  0  0  0
    9.4540  -12.1139    0.0000 O   0  0  0  0  0  0  0  0  0  0  0  0
    8.0814  -12.6407    0.0000 C   0  0  0  0  0  0  0  0  0  0  0  0
    7.5965  -13.3081    0.0000 O   0  0  0  0  0  0  0  0  0  0  0  0
  1  2  2  0  0  0  0
  2  3  1  0  0  0  0
  3  4  2  0  0  0  0
  3  5  1  0  0  0  0
  5  6  1  0  0  0  0
  6  7  1  0  0  0  0
  6  8  2  0  0  0  0
  8  9  1  0  0  0  0
  9 10  1  0  0  0  0
  9 11  2  0  0  0  0
 11 12  1  0  0  0  0
  5 12  2  0  0  0  0
 12 13  1  0  0  0  0
  1 13  1  0  0  0  0
  1 14  1  0  0  0  0
 14 15  1  0  0  0  0
 15 16  2  0  0  0  0
 16 17  1  0  0  0  0
 17 18  1  0  0  0  0
 17 19  2  0  0  0  0
 19 20  1  0  0  0  0
 14 20  2  0  0  0  0
 21 22  1  0  0  0  0
 22 23  1  6  0  0  0
 22 24  1  0  0  0  0
 24 25  1  1  0  0  0
 24 26  1  0  0  0  0
 26 27  1  0  0  0  0
 26 28  1  6  0  0  0
 28 29  1  0  0  0  0
 21 27  1  0  0  0  0
 21 11  1  6  0  0  0
 30 31  1  0  0  0  0
 31 32  1  6  0  0  0
 31 33  1  0  0  0  0
 33 34  1  1  0  0  0
 33 35  1  0  0  0  0
 35 36  1  0  0  0  0
 35 37  1  6  0  0  0
 37 38  1  0  0  0  0
 30 36  1  0  0  0  0
 30  8  1  1  0  0  0
M  END
>  <cdx:groupId>
427

>  <cdx:fragmentId>
312

$$$$
