39524.cdx
  Mrv1902 05222410272D          

 18 18  0  0  0  0            999 V2000
    9.9281   -8.8276    0.0000 O   0  0  0  0  0  0  0  0  0  0  0  0
   10.6426   -7.5901    0.0000 O   0  0  0  0  0  0  0  0  0  0  0  0
    6.3558   -7.5901    0.0000 C   0  0  0  0  0  0  0  0  0  0  0  0
    5.9769   -8.7563    0.0000 O   0  0  0  0  0  0  0  0  0  0  0  0
    5.6413   -8.0026    0.0000 C   0  0  1  0  0  0  0  0  0  0  0  0
    4.8208   -8.0889    0.0000 C   0  0  2  0  0  0  0  0  0  0  0  0
    4.6493   -8.8958    0.0000 C   0  0  1  0  0  0  0  0  0  0  0  0
    5.3638   -9.3083    0.0000 C   0  0  1  0  0  0  0  0  0  0  0  0
    5.4500  -10.1288    0.0000 C   0  0  0  0  0  0  0  0  0  0  0  0
    4.7825  -10.6137    0.0000 O   0  0  0  0  0  0  0  0  0  0  0  0
    3.8956   -9.2314    0.0000 O   0  0  0  0  0  0  0  0  0  0  0  0
    4.2688   -7.4758    0.0000 O   0  0  0  0  0  0  0  0  0  0  0  0
    5.6413   -7.1776    0.0000 O   0  0  0  0  0  0  0  0  0  0  0  0
    9.9281   -8.0026    0.0000 C   0  0  0  0  0  0  0  0  0  0  0  0
    7.0703   -8.0026    0.0000 N   0  0  0  0  0  0  0  0  0  0  0  0
    7.7847   -7.5901    0.0000 C   0  0  0  0  0  0  0  0  0  0  0  0
    8.4992   -8.0026    0.0000 C   0  0  0  0  0  0  0  0  0  0  0  0
    9.2137   -7.5901    0.0000 C   0  0  0  0  0  0  0  0  0  0  0  0
 14  1  2  0  0  0  0
 14  2  1  0  0  0  0
 15  3  1  0  0  0  0
 18 14  1  0  0  0  0
 16 15  1  0  0  0  0
 17 16  1  0  0  0  0
 18 17  1  0  0  0  0
  4  5  1  0  0  0  0
  5  6  1  0  0  0  0
  6  7  1  0  0  0  0
  7  8  1  0  0  0  0
  4  8  1  0  0  0  0
  9 10  1  0  0  0  0
  8  9  1  6  0  0  0
  7 11  1  1  0  0  0
  6 12  1  6  0  0  0
  5 13  1  6  0  0  0
  5  3  1  0  0  0  0
M  END
>  <cdx:fragmentId>
21

$$$$
