39533.cdx
  Mrv1902 05222410282D          

 17 17  0  0  0  0            999 V2000
    8.7578   -7.2320    0.0000 C   0  0  0  0  0  0  0  0  0  0  0  0
    8.5733   -8.0361    0.0000 C   0  0  0  0  0  0  0  0  0  0  0  0
    8.1538   -6.6701    0.0000 O   0  0  0  0  0  0  0  0  0  0  0  0
    9.5465   -6.9898    0.0000 O   0  0  0  0  0  0  0  0  0  0  0  0
    7.1251   -7.7826    0.0000 O   0  0  0  0  0  0  0  0  0  0  0  0
    7.7846   -8.2783    0.0000 C   0  0  2  0  0  0  0  0  0  0  0  0
    7.5170   -9.0587    0.0000 C   0  0  0  0  0  0  0  0  0  0  0  0
    6.6921   -9.0453    0.0000 C   0  0  0  0  0  0  0  0  0  0  0  0
    6.4499   -8.2567    0.0000 C   0  0  0  0  0  0  0  0  0  0  0  0
    5.6695   -7.9891    0.0000 O   0  0  0  0  0  0  0  0  0  0  0  0
    7.9911   -9.7339    0.0000 O   0  0  0  0  0  0  0  0  0  0  0  0
    6.1965   -9.7048    0.0000 C   0  0  0  0  0  0  0  0  0  0  0  0
    5.3775   -9.6053    0.0000 C   0  0  0  0  0  0  0  0  0  0  0  0
    4.8818  -10.2648    0.0000 C   0  0  0  0  0  0  0  0  0  0  0  0
    4.0629  -10.1653    0.0000 C   0  0  0  0  0  0  0  0  0  0  0  0
    6.5198  -10.4638    0.0000 O   0  0  0  0  0  0  0  0  0  0  0  0
    9.7310   -6.1857    0.0000 C   0  0  0  0  0  0  0  0  0  0  0  0
  1  2  1  0  0  0  0
  1  3  2  0  0  0  0
  1  4  1  0  0  0  0
  5  6  1  0  0  0  0
  6  7  1  0  0  0  0
  7  8  2  0  0  0  0
  8  9  1  0  0  0  0
  5  9  1  0  0  0  0
  9 10  2  0  0  0  0
  7 11  1  0  0  0  0
 12 13  1  0  0  0  0
 13 14  1  0  0  0  0
 14 15  1  0  0  0  0
 12 16  2  0  0  0  0
  8 12  1  0  0  0  0
  6  2  1  1  0  0  0
  4 17  1  0  0  0  0
M  END
>  <cdx:fragmentId>
13

$$$$
