2034.cdx
  Mrv1902 05222410272D          

 14 14  0  0  0  0            999 V2000
   10.1137   -7.5312    0.0000 C   0  0  0  0  0  0  0  0  0  0  0  0
   10.1137   -8.3562    0.0000 C   0  0  0  0  0  0  0  0  0  0  0  0
   10.8281   -8.7687    0.0000 C   0  0  0  0  0  0  0  0  0  0  0  0
   11.5426   -8.3562    0.0000 C   0  0  0  0  0  0  0  0  0  0  0  0
   11.5426   -7.5312    0.0000 C   0  0  0  0  0  0  0  0  0  0  0  0
   10.8281   -7.1187    0.0000 O   0  0  0  0  0  0  0  0  0  0  0  0
    9.3992   -7.1187    0.0000 C   0  0  0  0  0  0  0  0  0  0  0  0
    9.3992   -6.2937    0.0000 O   0  0  0  0  0  0  0  0  0  0  0  0
    8.6847   -7.5312    0.0000 O   0  0  0  0  0  0  0  0  0  0  0  0
   12.2571   -7.1187    0.0000 C   0  0  0  0  0  0  0  0  0  0  0  0
   12.2571   -6.2937    0.0000 O   0  0  0  0  0  0  0  0  0  0  0  0
   12.9715   -7.5312    0.0000 O   0  0  0  0  0  0  0  0  0  0  0  0
   10.8281   -9.5937    0.0000 O   0  0  0  0  0  0  0  0  0  0  0  0
    9.3992   -8.7687    0.0000 O   0  0  0  0  0  0  0  0  0  0  0  0
  1  2  1  0  0  0  0
  2  3  1  0  0  0  0
  3  4  1  0  0  0  0
  4  5  2  0  0  0  0
  5  6  1  0  0  0  0
  1  6  1  0  0  0  0
  7  8  2  0  0  0  0
  7  9  1  0  0  0  0
  1  7  1  0  0  0  0
 10 11  2  0  0  0  0
 10 12  1  0  0  0  0
  5 10  1  0  0  0  0
  3 13  1  0  0  0  0
  2 14  1  0  0  0  0
M  END
>  <cdx:groupId>
49

>  <cdx:fragmentId>
10

$$$$
