2035.cdx
  Mrv1902 05222410262D          

 25 26  0  0  0  0            999 V2000
   14.6771  -10.6683    0.0000 O   0  0  0  0  0  0  0  0  0  0  0  0
   13.2752  -11.4927    0.0000 O   0  0  0  0  0  0  0  0  0  0  0  0
   11.8459  -10.6683    0.0000 O   0  0  0  0  0  0  0  0  0  0  0  0
   13.2752   -9.0190    0.0000 O   0  0  0  0  0  0  0  0  0  0  0  0
   13.9625   -9.4313    0.0000 C   0  0  1  0  0  0  0  0  0  0  0  0
   13.9625  -10.2559    0.0000 C   0  0  1  0  0  0  0  0  0  0  0  0
   13.2752  -10.6683    0.0000 C   0  0  2  0  0  0  0  0  0  0  0  0
   12.5606  -10.2559    0.0000 C   0  0  2  0  0  0  0  0  0  0  0  0
   12.5606   -9.4313    0.0000 C   0  0  1  0  0  0  0  0  0  0  0  0
   14.6771   -9.0190    0.0000 O   0  0  0  0  0  0  0  0  0  0  0  0
   11.8459   -9.0190    0.0000 C   0  0  0  0  0  0  0  0  0  0  0  0
   11.1313   -9.4313    0.0000 O   0  0  0  0  0  0  0  0  0  0  0  0
   11.8459   -8.1943    0.0000 O   0  0  0  0  0  0  0  0  0  0  0  0
   10.4166  -11.4927    0.0000 O   0  0  0  0  0  0  0  0  0  0  0  0
   10.4166  -13.1420    0.0000 O   0  0  0  0  0  0  0  0  0  0  0  0
   11.8459  -13.9666    0.0000 O   0  0  0  0  0  0  0  0  0  0  0  0
   12.5606  -11.9051    0.0000 O   0  0  0  0  0  0  0  0  0  0  0  0
   11.8459  -11.4927    0.0000 C   0  0  1  0  0  0  0  0  0  0  0  0
   11.1313  -11.9051    0.0000 C   0  0  1  0  0  0  0  0  0  0  0  0
   11.1313  -12.7297    0.0000 C   0  0  2  0  0  0  0  0  0  0  0  0
   11.8459  -13.1420    0.0000 C   0  0  2  0  0  0  0  0  0  0  0  0
   12.5606  -12.7297    0.0000 C   0  0  1  0  0  0  0  0  0  0  0  0
   13.2752  -13.1420    0.0000 C   0  0  0  0  0  0  0  0  0  0  0  0
   13.9625  -12.7297    0.0000 O   0  0  0  0  0  0  0  0  0  0  0  0
   13.2752  -13.9666    0.0000 O   0  0  0  0  0  0  0  0  0  0  0  0
  4  9  1  0  0  0  0
  4  5  1  0  0  0  0
  5  6  1  0  0  0  0
  6  7  1  0  0  0  0
  7  8  1  0  0  0  0
  8  9  1  0  0  0  0
  6  1  1  6  0  0  0
  7  2  1  1  0  0  0
  8  3  1  1  0  0  0
  5 10  1  6  0  0  0
 11 12  1  0  0  0  0
 11 13  2  0  0  0  0
  9 11  1  1  0  0  0
 17 22  1  0  0  0  0
 17 18  1  0  0  0  0
 18 19  1  0  0  0  0
 19 20  1  0  0  0  0
 20 21  1  0  0  0  0
 21 22  1  0  0  0  0
 19 14  1  1  0  0  0
 20 15  1  6  0  0  0
 21 16  1  6  0  0  0
 18  3  1  1  0  0  0
 23 24  1  0  0  0  0
 23 25  2  0  0  0  0
 22 23  1  6  0  0  0
M  END
>  <cdx:fragmentId>
3

$$$$
