39538.cdx
  Mrv1902 05222410202D          

 25 30  0  0  0  0            999 V2000
    7.9631   -8.4194    0.0000 C   0  0  0  0  0  0  0  0  0  0  0  0
    7.2272   -6.3645    0.0000 C   0  0  0  0  0  0  0  0  0  0  0  0
    6.5171   -6.7844    0.0000 C   0  0  0  0  0  0  0  0  0  0  0  0
    5.7983   -6.3794    0.0000 C   0  0  0  0  0  0  0  0  0  0  0  0
    5.0882   -6.7993    0.0000 C   0  0  0  0  0  0  0  0  0  0  0  0
    5.0968   -7.6243    0.0000 C   0  0  0  0  0  0  0  0  0  0  0  0
    4.4895   -8.1827    0.0000 O   0  0  0  0  0  0  0  0  0  0  0  0
    4.8329   -8.9328    0.0000 C   0  0  0  0  0  0  0  0  0  0  0  0
    5.6524   -8.8380    0.0000 O   0  0  0  0  0  0  0  0  0  0  0  0
    5.8155   -8.0293    0.0000 C   0  0  0  0  0  0  0  0  0  0  0  0
    6.5257   -7.6094    0.0000 C   0  0  0  0  0  0  0  0  0  0  0  0
    7.2444   -8.0144    0.0000 C   0  0  0  0  0  0  0  0  0  0  0  0
    7.9545   -7.5945    0.0000 N   0  3  0  0  0  0  0  0  0  0  0  0
    8.6733   -7.9995    0.0000 C   0  0  0  0  0  0  0  0  0  0  0  0
    9.3834   -7.5796    0.0000 C   0  0  0  0  0  0  0  0  0  0  0  0
    9.3748   -6.7546    0.0000 C   0  0  0  0  0  0  0  0  0  0  0  0
   10.0849   -6.3347    0.0000 C   0  0  0  0  0  0  0  0  0  0  0  0
   10.0763   -5.5098    0.0000 C   0  0  0  0  0  0  0  0  0  0  0  0
   10.6836   -4.9514    0.0000 O   0  0  0  0  0  0  0  0  0  0  0  0
   10.3402   -4.2012    0.0000 C   0  0  0  0  0  0  0  0  0  0  0  0
    9.5207   -4.2960    0.0000 O   0  0  0  0  0  0  0  0  0  0  0  0
    9.3576   -5.1047    0.0000 C   0  0  0  0  0  0  0  0  0  0  0  0
    8.6475   -5.5246    0.0000 C   0  0  0  0  0  0  0  0  0  0  0  0
    8.6561   -6.3496    0.0000 C   0  0  0  0  0  0  0  0  0  0  0  0
    7.9459   -6.7695    0.0000 C   0  0  0  0  0  0  0  0  0  0  0  0
 13  1  1  0  0  0  0
 22 18  2  0  0  0  0
 24 16  1  0  0  0  0
 10  6  2  0  0  0  0
 11  3  2  0  0  0  0
 25 13  1  0  0  0  0
 25  2  1  0  0  0  0
  3  2  1  0  0  0  0
  4  3  1  0  0  0  0
  5  4  2  0  0  0  0
  6  5  1  0  0  0  0
  7  6  1  0  0  0  0
  8  7  1  0  0  0  0
  9  8  1  0  0  0  0
 10  9  1  0  0  0  0
 11 10  1  0  0  0  0
 12 11  1  0  0  0  0
 13 12  1  0  0  0  0
 14 13  1  0  0  0  0
 15 14  1  0  0  0  0
 16 15  1  0  0  0  0
 17 16  2  0  0  0  0
 18 17  1  0  0  0  0
 19 18  1  0  0  0  0
 20 19  1  0  0  0  0
 21 20  1  0  0  0  0
 22 21  1  0  0  0  0
 23 22  1  0  0  0  0
 24 23  2  0  0  0  0
 25 24  1  0  0  0  0
M  CHG  1  13   1
M  END
>  <cdx:fragmentId>
11

$$$$
