3954.cdx
  Mrv1902 05222410242D          

 21 24  0  0  0  0            999 V2000
    3.6952   -7.3838    0.0000 C   0  0  0  0  0  0  0  0  0  0  0  0
    3.6952   -8.2088    0.0000 C   0  0  0  0  0  0  0  0  0  0  0  0
    4.4096   -8.6212    0.0000 C   0  0  0  0  0  0  0  0  0  0  0  0
    5.1241   -8.2088    0.0000 C   0  0  0  0  0  0  0  0  0  0  0  0
    5.1241   -7.3838    0.0000 C   0  0  0  0  0  0  0  0  0  0  0  0
    4.4096   -6.9712    0.0000 C   0  0  0  0  0  0  0  0  0  0  0  0
    5.8386   -8.6212    0.0000 C   0  0  0  0  0  0  0  0  0  0  0  0
    6.5530   -8.2088    0.0000 C   0  0  0  0  0  0  0  0  0  0  0  0
    6.5530   -7.3838    0.0000 C   0  0  0  0  0  0  0  0  0  0  0  0
    5.8386   -6.9712    0.0000 C   0  0  0  0  0  0  0  0  0  0  0  0
    7.2675   -8.6212    0.0000 N   0  0  0  0  0  0  0  0  0  0  0  0
    7.9820   -8.2088    0.0000 C   0  0  0  0  0  0  0  0  0  0  0  0
    7.9820   -7.3838    0.0000 C   0  0  0  0  0  0  0  0  0  0  0  0
    7.2675   -6.9712    0.0000 C   0  0  0  0  0  0  0  0  0  0  0  0
    7.2675   -6.1463    0.0000 C   0  0  0  0  0  0  0  0  0  0  0  0
    6.5530   -5.7338    0.0000 C   0  0  0  0  0  0  0  0  0  0  0  0
    5.8386   -6.1463    0.0000 C   0  0  0  0  0  0  0  0  0  0  0  0
    7.2675   -9.4462    0.0000 C   0  0  0  0  0  0  0  0  0  0  0  0
    6.5530   -4.9088    0.0000 O   0  0  0  0  0  0  0  0  0  0  0  0
    5.1241   -5.7338    0.0000 O   0  0  0  0  0  0  0  0  0  0  0  0
    5.1241   -4.9088    0.0000 C   0  0  0  0  0  0  0  0  0  0  0  0
  1  2  2  0  0  0  0
  2  3  1  0  0  0  0
  3  4  2  0  0  0  0
  4  5  1  0  0  0  0
  5  6  2  0  0  0  0
  6  1  1  0  0  0  0
  4  7  1  0  0  0  0
  7  8  1  0  0  0  0
  8  9  1  0  0  0  0
  9 10  2  0  0  0  0
 10  5  1  0  0  0  0
  8 11  1  0  0  0  0
 11 12  1  0  0  0  0
 12 13  1  0  0  0  0
 13 14  1  0  0  0  0
 14  9  1  0  0  0  0
 14 15  2  0  0  0  0
 15 16  1  0  0  0  0
 16 17  2  0  0  0  0
 17 10  1  0  0  0  0
 11 18  1  0  0  0  0
 16 19  1  0  0  0  0
 17 20  1  0  0  0  0
 20 21  1  0  0  0  0
M  END
>  <cdx:fragmentId>
5

$$$$
