2058.cdx
  Mrv1902 05222410232D          

 21 22  0  0  0  0            999 V2000
   13.9084  -13.4094    0.0000 C   0  0  0  0  0  0  0  0  0  0  0  0
   13.1939  -13.8219    0.0000 C   0  0  0  0  0  0  0  0  0  0  0  0
   12.4795  -13.4094    0.0000 C   0  0  0  0  0  0  0  0  0  0  0  0
   13.9084  -12.5844    0.0000 O   0  0  0  0  0  0  0  0  0  0  0  0
   14.6229  -13.8219    0.0000 N   0  0  0  0  0  0  0  0  0  0  0  0
   11.7650  -13.8219    0.0000 C   0  0  0  0  0  0  0  0  0  0  0  0
   11.7650  -14.6469    0.0000 C   0  0  0  0  0  0  0  0  0  0  0  0
   11.0505  -15.0594    0.0000 C   0  0  0  0  0  0  0  0  0  0  0  0
   10.3360  -14.6469    0.0000 C   0  0  0  0  0  0  0  0  0  0  0  0
   10.3360  -13.8219    0.0000 C   0  0  0  0  0  0  0  0  0  0  0  0
   11.0505  -13.4094    0.0000 C   0  0  0  0  0  0  0  0  0  0  0  0
    9.6216  -15.0594    0.0000 O   0  0  0  0  0  0  0  0  0  0  0  0
   15.3373  -13.4094    0.0000 C   0  0  0  0  0  0  0  0  0  0  0  0
   15.3373  -12.5844    0.0000 C   0  0  0  0  0  0  0  0  0  0  0  0
   16.0518  -12.1719    0.0000 C   0  0  0  0  0  0  0  0  0  0  0  0
   16.7663  -12.5844    0.0000 C   0  0  0  0  0  0  0  0  0  0  0  0
   16.7663  -13.4094    0.0000 C   0  0  0  0  0  0  0  0  0  0  0  0
   16.0518  -13.8219    0.0000 C   0  0  0  0  0  0  0  0  0  0  0  0
   17.4807  -12.1719    0.0000 C   0  0  0  0  0  0  0  0  0  0  0  0
   18.1952  -12.5844    0.0000 C   0  0  0  0  0  0  0  0  0  0  0  0
   18.9097  -12.1719    0.0000 O   0  0  0  0  0  0  0  0  0  0  0  0
  1  2  1  0  0  0  0
  2  3  2  0  0  0  0
  1  4  2  0  0  0  0
  1  5  1  0  0  0  0
  6  7  1  0  0  0  0
  7  8  2  0  0  0  0
  8  9  1  0  0  0  0
  9 10  2  0  0  0  0
 10 11  1  0  0  0  0
  6 11  2  0  0  0  0
  9 12  1  0  0  0  0
  3  6  1  0  0  0  0
 13 14  1  0  0  0  0
 14 15  2  0  0  0  0
 15 16  1  0  0  0  0
 16 17  2  0  0  0  0
 17 18  1  0  0  0  0
 13 18  2  0  0  0  0
 19 20  1  0  0  0  0
 20 21  1  0  0  0  0
 16 19  1  0  0  0  0
  5 13  1  0  0  0  0
M  END
>  <cdx:groupId>
71

>  <cdx:fragmentId>
20

$$$$
