39557.cdx
  Mrv1902 05222410242D          

 34 38  0  0  0  0            999 V2000
    5.5378   -9.0037    0.0000 C   0  0  0  0  0  0  0  0  0  0  0  0
    4.8230   -9.4155    0.0000 C   0  0  0  0  0  0  0  0  0  0  0  0
    4.8223  -10.2405    0.0000 C   0  0  0  0  0  0  0  0  0  0  0  0
    5.5364  -10.6537    0.0000 C   0  0  1  0  0  0  0  0  0  0  0  0
    6.2512  -10.2418    0.0000 C   0  0  1  0  0  0  0  0  0  0  0  0
    6.9653  -10.6549    0.0000 C   0  0  0  0  0  0  0  0  0  0  0  0
    7.6801  -10.2430    0.0000 C   0  0  0  0  0  0  0  0  0  0  0  0
    7.6809   -9.4180    0.0000 C   0  0  2  0  0  0  0  0  0  0  0  0
    8.3957   -9.0061    0.0000 C   0  0  1  0  0  0  0  0  0  0  0  0
    9.1098   -9.4193    0.0000 C   0  0  0  0  0  0  0  0  0  0  0  0
    9.8246   -9.0074    0.0000 C   0  0  0  0  0  0  0  0  0  0  0  0
    9.8253   -8.1824    0.0000 C   0  0  1  0  0  0  0  0  0  0  0  0
   10.5402   -7.7705    0.0000 C   0  0  0  0  0  0  0  0  0  0  0  0
   10.5409   -6.9455    0.0000 C   0  0  0  0  0  0  0  0  0  0  0  0
    9.8268   -6.5324    0.0000 C   0  0  0  0  0  0  0  0  0  0  0  0
    9.1119   -6.9443    0.0000 C   0  0  0  0  0  0  0  0  0  0  0  0
    9.1112   -7.7693    0.0000 C   0  0  1  0  0  0  0  0  0  0  0  0
    8.3964   -8.1811    0.0000 C   0  0  2  0  0  0  0  0  0  0  0  0
    7.6823   -7.7680    0.0000 C   0  0  0  0  0  0  0  0  0  0  0  0
    6.9675   -8.1799    0.0000 C   0  0  0  0  0  0  0  0  0  0  0  0
    6.9667   -9.0049    0.0000 C   0  0  1  0  0  0  0  0  0  0  0  0
    6.2519   -9.4168    0.0000 C   0  0  2  0  0  0  0  0  0  0  0  0
    4.1074  -10.6524    0.0000 O   0  0  0  0  0  0  0  0  0  0  0  0
    9.4149   -5.8175    0.0000 C   0  0  0  0  0  0  0  0  0  0  0  0
   10.2399   -5.8183    0.0000 C   0  0  0  0  0  0  0  0  0  0  0  0
   10.5394   -8.5955    0.0000 C   0  0  0  0  0  0  0  0  0  0  0  0
    5.5357  -11.4787    0.0000 C   0  0  0  0  0  0  0  0  0  0  0  0
    6.2505  -11.0668    0.0000 C   0  0  0  0  0  0  0  0  0  0  0  0
    6.9660   -9.8299    0.0000 C   0  0  0  0  0  0  0  0  0  0  0  0
    8.3950   -9.8311    0.0000 C   0  0  0  0  0  0  0  0  0  0  0  0
    9.1112   -8.5943    0.0000 H   0  0  0  0  0  0  0  0  0  0  0  0
    6.2526   -8.5918    0.0000 H   0  0  0  0  0  0  0  0  0  0  0  0
    7.6816   -8.5930    0.0000 H   0  0  0  0  0  0  0  0  0  0  0  0
    8.3971   -7.3561    0.0000 C   0  0  0  0  0  0  0  0  0  0  0  0
  1  2  1  0  0  0  0
  2  3  1  0  0  0  0
  3  4  1  0  0  0  0
  4  5  1  0  0  0  0
  5  6  1  0  0  0  0
  6  7  1  0  0  0  0
  7  8  1  0  0  0  0
  8  9  1  0  0  0  0
  9 10  1  0  0  0  0
 10 11  1  0  0  0  0
 11 12  1  0  0  0  0
 12 13  1  0  0  0  0
 13 14  1  0  0  0  0
 14 15  1  0  0  0  0
 15 16  1  0  0  0  0
 16 17  1  0  0  0  0
 12 17  1  0  0  0  0
 17 18  1  0  0  0  0
  9 18  1  0  0  0  0
 18 19  1  0  0  0  0
 19 20  1  0  0  0  0
 20 21  1  0  0  0  0
  8 21  1  0  0  0  0
 21 22  1  0  0  0  0
  5 22  1  0  0  0  0
  1 22  1  0  0  0  0
  3 23  2  0  0  0  0
 15 24  1  0  0  0  0
 15 25  1  0  0  0  0
 12 26  1  1  0  0  0
  4 27  1  1  0  0  0
  5 28  1  1  0  0  0
 21 29  1  1  0  0  0
  9 30  1  1  0  0  0
 17 31  1  1  0  0  0
 22 32  1  6  0  0  0
  8 33  1  6  0  0  0
 18 34  1  6  0  0  0
M  END
>  <cdx:fragmentId>
5

$$$$
