39551.cdx
  Mrv1902 05222410262D          

 26 27  0  0  0  0            999 V2000
    6.8185   -7.4144    0.0000 C   0  0  1  0  0  0  0  0  0  0  0  0
    6.8185   -8.2390    0.0000 C   0  0  1  0  0  0  0  0  0  0  0  0
    6.1038   -8.6512    0.0000 C   0  0  2  0  0  0  0  0  0  0  0  0
    5.3892   -8.2390    0.0000 C   0  0  1  0  0  0  0  0  0  0  0  0
    5.3892   -7.4144    0.0000 C   0  0  2  0  0  0  0  0  0  0  0  0
    6.1038   -7.0020    0.0000 O   0  0  0  0  0  0  0  0  0  0  0  0
    7.5331   -8.6512    0.0000 O   0  0  0  0  0  0  0  0  0  0  0  0
    4.6745   -8.6512    0.0000 O   0  0  0  0  0  0  0  0  0  0  0  0
    6.1038   -9.4759    0.0000 O   0  0  0  0  0  0  0  0  0  0  0  0
    4.6745   -7.0020    0.0000 C   0  0  0  0  0  0  0  0  0  0  0  0
    3.9599   -7.4144    0.0000 O   0  0  0  0  0  0  0  0  0  0  0  0
    7.5331   -7.0020    0.0000 O   0  0  0  0  0  0  0  0  0  0  0  0
    8.2505   -3.2893    0.0000 O   0  0  0  0  0  0  0  0  0  0  0  0
    6.8219   -3.2891    0.0000 O   0  0  0  0  0  0  0  0  0  0  0  0
    7.5359   -3.7018    0.0000 C   0  0  0  0  0  0  0  0  0  0  0  0
   10.3922   -4.5272    0.0000 O   0  0  0  0  0  0  0  0  0  0  0  0
    9.6776   -4.9397    0.0000 C   0  0  0  0  0  0  0  0  0  0  0  0
    8.9637   -4.5271    0.0000 C   0  0  0  0  0  0  0  0  0  0  0  0
    8.9617   -7.0022    0.0000 C   0  0  0  0  0  0  0  0  0  0  0  0
    8.9623   -6.1772    0.0000 C   0  0  0  0  0  0  0  0  0  0  0  0
    8.2484   -5.7645    0.0000 C   0  0  1  0  0  0  0  0  0  0  0  0
    7.5338   -6.1769    0.0000 C   0  0  1  0  0  0  0  0  0  0  0  0
    6.8199   -5.7643    0.0000 O   0  0  0  0  0  0  0  0  0  0  0  0
    6.8206   -4.9392    0.0000 C   0  0  0  0  0  0  0  0  0  0  0  0
    7.5352   -4.5267    0.0000 C   0  0  0  0  0  0  0  0  0  0  0  0
    8.2491   -4.9394    0.0000 C   0  0  1  0  0  0  0  0  0  0  0  0
 22 12  1  6  0  0  0
 15 13  2  0  0  0  0
 15 14  1  0  0  0  0
 25 15  1  0  0  0  0
 18 17  1  0  0  0  0
 17 16  2  0  0  0  0
 26 18  1  1  0  0  0
 20 19  2  0  0  0  0
 21 20  1  1  0  0  0
 22 21  1  0  0  0  0
 23 22  1  0  0  0  0
 24 23  1  0  0  0  0
 25 24  2  0  0  0  0
 26 25  1  0  0  0  0
 26 21  1  0  0  0  0
  1  6  1  0  0  0  0
  1  2  1  0  0  0  0
  2  3  1  0  0  0  0
  3  4  1  0  0  0  0
  4  5  1  0  0  0  0
  5  6  1  0  0  0  0
  1 12  1  1  0  0  0
  2  7  1  6  0  0  0
  4  8  1  6  0  0  0
  3  9  1  1  0  0  0
  5 10  1  1  0  0  0
 10 11  1  0  0  0  0
M  END
>  <cdx:fragmentId>
3

$$$$
