39552.cdx
  Mrv1902 05222410252D          

 26 27  0  0  0  0            999 V2000
    9.0976   -4.7580    0.0000 C   0  0  0  0  0  0  0  0  0  0  0  0
    9.8144   -5.1665    0.0000 C   0  0  0  0  0  0  0  0  0  0  0  0
    7.6640   -3.9411    0.0000 C   0  0  0  0  0  0  0  0  0  0  0  0
    8.3761   -3.5246    0.0000 O   0  0  0  0  0  0  0  0  0  0  0  0
    6.2537   -7.2491    0.0000 O   0  0  0  0  0  0  0  0  0  0  0  0
    6.9705   -7.6576    0.0000 C   0  0  2  0  0  0  0  0  0  0  0  0
    6.9752   -8.4826    0.0000 C   0  0  1  0  0  0  0  0  0  0  0  0
    6.2631   -8.8991    0.0000 C   0  0  2  0  0  0  0  0  0  0  0  0
    5.5463   -8.4906    0.0000 C   0  0  1  0  0  0  0  0  0  0  0  0
    5.5416   -7.6657    0.0000 C   0  0  1  0  0  0  0  0  0  0  0  0
    4.8248   -7.2572    0.0000 C   0  0  0  0  0  0  0  0  0  0  0  0
    4.1127   -7.6737    0.0000 O   0  0  0  0  0  0  0  0  0  0  0  0
    4.8341   -8.9072    0.0000 O   0  0  0  0  0  0  0  0  0  0  0  0
    6.2677   -9.7241    0.0000 O   0  0  0  0  0  0  0  0  0  0  0  0
    7.6920   -8.8910    0.0000 O   0  0  0  0  0  0  0  0  0  0  0  0
    9.1069   -7.2330    0.0000 C   0  0  0  0  0  0  0  0  0  0  0  0
    9.1069   -6.4080    0.0000 C   0  0  0  0  0  0  0  0  0  0  0  0
   10.5265   -4.7499    0.0000 O   0  0  0  0  0  0  0  0  0  0  0  0
    7.6826   -7.2410    0.0000 O   0  0  0  0  0  0  0  0  0  0  0  0
    6.9472   -3.5326    0.0000 O   0  0  0  0  0  0  0  0  0  0  0  0
    6.9612   -6.0076    0.0000 O   0  0  0  0  0  0  0  0  0  0  0  0
    6.9565   -5.1826    0.0000 C   0  0  0  0  0  0  0  0  0  0  0  0
    7.6686   -4.7661    0.0000 C   0  0  0  0  0  0  0  0  0  0  0  0
    8.3854   -5.1745    0.0000 C   0  0  2  0  0  0  0  0  0  0  0  0
    8.3901   -5.9995    0.0000 C   0  0  2  0  0  0  0  0  0  0  0  0
    7.6780   -6.4161    0.0000 C   0  0  2  0  0  0  0  0  0  0  0  0
 25 17  1  1  0  0  0
 17 16  2  0  0  0  0
 24  1  1  1  0  0  0
 26 19  1  6  0  0  0
 23  3  1  0  0  0  0
 26 21  1  0  0  0  0
 22 21  1  0  0  0  0
 23 22  2  0  0  0  0
 24 23  1  0  0  0  0
 25 24  1  0  0  0  0
 26 25  1  0  0  0  0
  1  2  1  0  0  0  0
  2 18  1  0  0  0  0
  3  4  2  0  0  0  0
  3 20  1  0  0  0  0
  5  6  1  0  0  0  0
  6  7  1  0  0  0  0
  7  8  1  0  0  0  0
  8  9  1  0  0  0  0
  9 10  1  0  0  0  0
  5 10  1  0  0  0  0
 11 12  1  0  0  0  0
 10 11  1  1  0  0  0
  9 13  1  6  0  0  0
  8 14  1  1  0  0  0
  7 15  1  6  0  0  0
  6 19  1  1  0  0  0
M  END
>  <cdx:fragmentId>
56

$$$$
