39569.cdx
  Mrv1902 05222410232D          

 36 39  0  0  0  0            999 V2000
   11.8315   -8.4835    0.0000 O   0  0  0  0  0  0  0  0  0  0  0  0
   11.0065   -8.4835    0.0000 C   0  0  2  0  0  0  0  0  0  0  0  0
   10.5940   -7.7690    0.0000 C   0  0  1  0  0  0  0  0  0  0  0  0
   11.0065   -7.0545    0.0000 C   0  0  1  0  0  0  0  0  0  0  0  0
   11.8315   -7.0545    0.0000 C   0  0  2  0  0  0  0  0  0  0  0  0
   12.2440   -7.7690    0.0000 C   0  0  2  0  0  0  0  0  0  0  0  0
    9.7690   -7.7690    0.0000 O   0  0  0  0  0  0  0  0  0  0  0  0
   10.5940   -6.3401    0.0000 O   0  0  0  0  0  0  0  0  0  0  0  0
   12.2440   -6.3401    0.0000 O   0  0  0  0  0  0  0  0  0  0  0  0
   13.0690   -7.7690    0.0000 C   0  0  0  0  0  0  0  0  0  0  0  0
   10.5940   -9.1979    0.0000 O   0  0  0  0  0  0  0  0  0  0  0  0
    9.7690   -9.1979    0.0000 C   0  0  0  0  0  0  0  0  0  0  0  0
    9.3565   -9.9124    0.0000 C   0  0  0  0  0  0  0  0  0  0  0  0
    8.5315   -9.9124    0.0000 C   0  0  0  0  0  0  0  0  0  0  0  0
    8.1190   -9.1979    0.0000 C   0  0  0  0  0  0  0  0  0  0  0  0
    8.5315   -8.4835    0.0000 C   0  0  0  0  0  0  0  0  0  0  0  0
    9.3565   -8.4835    0.0000 C   0  0  0  0  0  0  0  0  0  0  0  0
    9.7690  -10.6269    0.0000 O   0  0  0  0  0  0  0  0  0  0  0  0
   10.5940  -10.6269    0.0000 C   0  0  0  0  0  0  0  0  0  0  0  0
    6.8090   -9.8654    0.0000 O   0  0  0  0  0  0  0  0  0  0  0  0
    7.2940   -9.1979    0.0000 C   0  0  2  0  0  0  0  0  0  0  0  0
    6.8090   -8.5305    0.0000 C   0  0  1  0  0  0  0  0  0  0  0  0
    6.0244   -8.7854    0.0000 C   0  0  0  0  0  0  0  0  0  0  0  0
    5.3100   -8.3729    0.0000 C   0  0  0  0  0  0  0  0  0  0  0  0
    4.5955   -8.7854    0.0000 C   0  0  0  0  0  0  0  0  0  0  0  0
    4.5955   -9.6104    0.0000 C   0  0  0  0  0  0  0  0  0  0  0  0
    5.3100  -10.0229    0.0000 C   0  0  0  0  0  0  0  0  0  0  0  0
    6.0244   -9.6104    0.0000 C   0  0  0  0  0  0  0  0  0  0  0  0
    5.3100  -10.8479    0.0000 O   0  0  0  0  0  0  0  0  0  0  0  0
    4.5955  -11.2604    0.0000 C   0  0  0  0  0  0  0  0  0  0  0  0
    3.8810   -8.3729    0.0000 C   0  0  0  0  0  0  0  0  0  0  0  0
    3.1665   -8.7854    0.0000 C   0  0  0  0  0  0  0  0  0  0  0  0
    2.4521   -8.3729    0.0000 C   0  0  0  0  0  0  0  0  0  0  0  0
    1.7376   -8.7854    0.0000 O   0  0  0  0  0  0  0  0  0  0  0  0
    7.0640   -7.7459    0.0000 C   0  0  0  0  0  0  0  0  0  0  0  0
    6.4806   -7.1625    0.0000 O   0  0  0  0  0  0  0  0  0  0  0  0
  1  2  1  0  0  0  0
  2  3  1  0  0  0  0
  3  4  1  0  0  0  0
  4  5  1  0  0  0  0
  5  6  1  0  0  0  0
  1  6  1  0  0  0  0
  3  7  1  6  0  0  0
  4  8  1  6  0  0  0
  5  9  1  1  0  0  0
  6 10  1  6  0  0  0
 12 13  1  0  0  0  0
 13 14  2  0  0  0  0
 14 15  1  0  0  0  0
 15 16  2  0  0  0  0
 16 17  1  0  0  0  0
 12 17  2  0  0  0  0
 11 12  1  0  0  0  0
 18 19  1  0  0  0  0
 13 18  1  0  0  0  0
 20 21  1  0  0  0  0
 21 22  1  0  0  0  0
 22 23  1  0  0  0  0
 23 24  1  0  0  0  0
 24 25  2  0  0  0  0
 25 26  1  0  0  0  0
 26 27  2  0  0  0  0
 27 28  1  0  0  0  0
 23 28  2  0  0  0  0
 20 28  1  0  0  0  0
 29 30  1  0  0  0  0
 27 29  1  0  0  0  0
 31 32  1  0  0  0  0
 32 33  1  0  0  0  0
 33 34  1  0  0  0  0
 25 31  1  0  0  0  0
 35 36  1  0  0  0  0
 22 35  1  1  0  0  0
 21 15  1  6  0  0  0
  2 11  1  1  0  0  0
M  END
>  <cdx:fragmentId>
185

$$$$
