39567.cdx
  Mrv1902 05222410222D          

 41 43  0  0  0  0            999 V2000
    7.3159   -8.5143    0.0000 O   0  0  0  0  0  0  0  0  0  0  0  0
    8.0294   -8.1001    0.0000 C   0  0  0  0  0  0  0  0  0  0  0  0
    8.7449   -8.5109    0.0000 C   0  0  0  0  0  0  0  0  0  0  0  0
    9.4583   -8.0967    0.0000 C   0  0  0  0  0  0  0  0  0  0  0  0
    8.0274   -7.2751    0.0000 O   0  0  0  0  0  0  0  0  0  0  0  0
    5.9027   -9.3659    0.0000 O   0  0  0  0  0  0  0  0  0  0  0  0
    5.1960   -9.7917    0.0000 C   0  0  0  0  0  0  0  0  0  0  0  0
    5.2115  -10.6166    0.0000 C   0  0  0  0  0  0  0  0  0  0  0  0
    4.5049  -11.0424    0.0000 C   0  0  0  0  0  0  0  0  0  0  0  0
    4.4740   -9.3927    0.0000 O   0  0  0  0  0  0  0  0  0  0  0  0
    4.5203  -11.8672    0.0000 C   0  0  0  0  0  0  0  0  0  0  0  0
    3.8137  -12.2930    0.0000 C   0  0  0  0  0  0  0  0  0  0  0  0
    3.8291  -13.1179    0.0000 C   0  0  0  0  0  0  0  0  0  0  0  0
    4.5512  -13.5169    0.0000 C   0  0  0  0  0  0  0  0  0  0  0  0
    5.2578  -13.0911    0.0000 C   0  0  0  0  0  0  0  0  0  0  0  0
    5.2424  -12.2663    0.0000 C   0  0  0  0  0  0  0  0  0  0  0  0
    4.5666  -14.3418    0.0000 O   0  0  0  0  0  0  0  0  0  0  0  0
    3.1225  -13.5437    0.0000 O   0  0  0  0  0  0  0  0  0  0  0  0
   12.3162   -8.0898    0.0000 O   0  0  0  0  0  0  0  0  0  0  0  0
   12.3202   -9.7398    0.0000 O   0  0  0  0  0  0  0  0  0  0  0  0
   10.1758   -9.3325    0.0000 C   0  0  0  0  0  0  0  0  0  0  0  0
   10.8912   -9.7433    0.0000 C   0  0  0  0  0  0  0  0  0  0  0  0
   11.6047   -9.3290    0.0000 C   0  0  0  0  0  0  0  0  0  0  0  0
   11.6027   -8.5040    0.0000 C   0  0  0  0  0  0  0  0  0  0  0  0
   10.8873   -8.0933    0.0000 C   0  0  0  0  0  0  0  0  0  0  0  0
   10.1738   -8.5075    0.0000 C   0  0  0  0  0  0  0  0  0  0  0  0
    5.4439   -6.1769    0.0000 O   0  0  0  0  0  0  0  0  0  0  0  0
    4.4585   -8.5678    0.0000 O   0  0  0  0  0  0  0  0  0  0  0  0
    6.2689   -6.1769    0.0000 C   0  0  0  0  0  0  0  0  0  0  0  0
    5.1497   -7.3172    0.0000 C   0  0  0  0  0  0  0  0  0  0  0  0
    5.1652   -8.1420    0.0000 C   0  0  2  0  0  0  0  0  0  0  0  0
    5.8872   -8.5411    0.0000 C   0  0  1  0  0  0  0  0  0  0  0  0
    6.5939   -8.1153    0.0000 C   0  0  1  0  0  0  0  0  0  0  0  0
    6.5784   -7.2904    0.0000 C   0  0  0  0  0  0  0  0  0  0  0  0
    5.8564   -6.8914    0.0000 C   0  0  2  0  0  0  0  0  0  0  0  0
    5.8564   -5.4624    0.0000 O   0  0  0  0  0  0  0  0  0  0  0  0
    7.0939   -6.1769    0.0000 O   0  0  0  0  0  0  0  0  0  0  0  0
    7.5064   -5.4624    0.0000 C   0  0  0  0  0  0  0  0  0  0  0  0
    8.3314   -5.4624    0.0000 C   0  0  0  0  0  0  0  0  0  0  0  0
    8.7439   -4.7480    0.0000 C   0  0  0  0  0  0  0  0  0  0  0  0
    9.5689   -4.7480    0.0000 C   0  0  0  0  0  0  0  0  0  0  0  0
 33  1  1  1  0  0  0
 24 19  1  0  0  0  0
 23 20  1  0  0  0  0
 26 21  2  0  0  0  0
 22 21  1  0  0  0  0
 23 22  2  0  0  0  0
 24 23  1  0  0  0  0
 25 24  2  0  0  0  0
 26 25  1  0  0  0  0
 32  6  1  1  0  0  0
 35 27  1  1  0  0  0
 31 28  1  6  0  0  0
 35 29  1  0  0  0  0
 35 30  1  0  0  0  0
 31 30  1  0  0  0  0
 32 31  1  0  0  0  0
 33 32  1  0  0  0  0
 34 33  1  0  0  0  0
 35 34  1  0  0  0  0
  2  3  1  0  0  0  0
  3  4  2  0  0  0  0
  2  5  2  0  0  0  0
  4 26  1  0  0  0  0
  1  2  1  0  0  0  0
  7  8  1  0  0  0  0
  8  9  2  0  0  0  0
  7 10  2  0  0  0  0
 11 12  1  0  0  0  0
 12 13  2  0  0  0  0
 13 14  1  0  0  0  0
 14 15  2  0  0  0  0
 15 16  1  0  0  0  0
 11 16  2  0  0  0  0
 14 17  1  0  0  0  0
 13 18  1  0  0  0  0
  9 11  1  0  0  0  0
  6  7  1  0  0  0  0
 29 36  2  0  0  0  0
 29 37  1  0  0  0  0
 37 38  1  0  0  0  0
 38 39  1  0  0  0  0
 39 40  1  0  0  0  0
 40 41  1  0  0  0  0
M  END
>  <cdx:fragmentId>
348

$$$$
