2064.cdx
  Mrv1902 05222410232D          

 45 49  0  0  0  0            999 V2000
   17.1825   -8.8626    0.0000 C   0  0  0  0  0  0  0  0  0  0  0  0
   16.4680   -9.2751    0.0000 C   0  0  0  0  0  0  0  0  0  0  0  0
   15.7536   -8.8626    0.0000 C   0  0  0  0  0  0  0  0  0  0  0  0
   15.7536   -8.0376    0.0000 C   0  0  0  0  0  0  0  0  0  0  0  0
   16.4680   -7.6251    0.0000 C   0  0  0  0  0  0  0  0  0  0  0  0
   17.1825   -8.0376    0.0000 O   0  0  0  0  0  0  0  0  0  0  0  0
   16.4680   -6.8001    0.0000 C   0  0  0  0  0  0  0  0  0  0  0  0
   15.7536   -6.3876    0.0000 C   0  0  0  0  0  0  0  0  0  0  0  0
   15.0391   -6.8001    0.0000 C   0  0  0  0  0  0  0  0  0  0  0  0
   15.0391   -7.6251    0.0000 C   0  0  0  0  0  0  0  0  0  0  0  0
   15.0391   -9.2751    0.0000 O   0  0  0  0  0  0  0  0  0  0  0  0
   15.7536   -5.5626    0.0000 O   0  0  0  0  0  0  0  0  0  0  0  0
   15.0391   -5.1501    0.0000 C   0  0  0  0  0  0  0  0  0  0  0  0
   17.8970   -9.2751    0.0000 C   0  0  0  0  0  0  0  0  0  0  0  0
   18.6115   -8.8626    0.0000 C   0  0  0  0  0  0  0  0  0  0  0  0
   19.3259   -9.2751    0.0000 C   0  0  0  0  0  0  0  0  0  0  0  0
   19.3259  -10.1001    0.0000 C   0  0  0  0  0  0  0  0  0  0  0  0
   18.6115  -10.5126    0.0000 C   0  0  0  0  0  0  0  0  0  0  0  0
   17.8970  -10.1001    0.0000 C   0  0  0  0  0  0  0  0  0  0  0  0
   20.0404   -8.8626    0.0000 O   0  0  0  0  0  0  0  0  0  0  0  0
   20.7549   -9.2751    0.0000 C   0  0  0  0  0  0  0  0  0  0  0  0
   20.0404  -10.5126    0.0000 O   0  0  0  0  0  0  0  0  0  0  0  0
   14.3246   -8.0376    0.0000 O   0  0  0  0  0  0  0  0  0  0  0  0
   16.4680  -10.1001    0.0000 O   0  0  0  0  0  0  0  0  0  0  0  0
   15.7536  -10.5126    0.0000 C   0  0  1  0  0  0  0  0  0  0  0  0
   15.7536  -11.3376    0.0000 C   0  0  2  0  0  0  0  0  0  0  0  0
   16.4680  -11.7501    0.0000 O   0  0  0  0  0  0  0  0  0  0  0  0
   15.0391  -11.7501    0.0000 C   0  0  1  0  0  0  0  0  0  0  0  0
   15.0391  -12.5751    0.0000 O   0  0  0  0  0  0  0  0  0  0  0  0
   14.3246  -11.3376    0.0000 C   0  0  2  0  0  0  0  0  0  0  0  0
   13.6102  -11.7501    0.0000 O   0  0  0  0  0  0  0  0  0  0  0  0
   14.3246  -10.5126    0.0000 C   0  0  2  0  0  0  0  0  0  0  0  0
   15.0391  -10.1001    0.0000 O   0  0  0  0  0  0  0  0  0  0  0  0
   13.6102  -10.1001    0.0000 C   0  0  0  0  0  0  0  0  0  0  0  0
   12.8957  -10.5126    0.0000 O   0  0  0  0  0  0  0  0  0  0  0  0
   12.1812  -10.1001    0.0000 C   0  0  1  0  0  0  0  0  0  0  0  0
   12.1812   -9.2751    0.0000 C   0  0  2  0  0  0  0  0  0  0  0  0
   12.8957   -8.8626    0.0000 O   0  0  0  0  0  0  0  0  0  0  0  0
   11.4667   -8.8626    0.0000 C   0  0  2  0  0  0  0  0  0  0  0  0
   11.4667   -8.0376    0.0000 O   0  0  0  0  0  0  0  0  0  0  0  0
   10.7523   -9.2751    0.0000 C   0  0  1  0  0  0  0  0  0  0  0  0
   10.0378   -8.8626    0.0000 O   0  0  0  0  0  0  0  0  0  0  0  0
   10.7523  -10.1001    0.0000 C   0  0  1  0  0  0  0  0  0  0  0  0
   11.4667  -10.5126    0.0000 O   0  0  0  0  0  0  0  0  0  0  0  0
   10.0378  -10.5126    0.0000 C   0  0  0  0  0  0  0  0  0  0  0  0
  1  2  2  0  0  0  0
  2  3  1  0  0  0  0
  3  4  1  0  0  0  0
  4  5  1  0  0  0  0
  5  6  1  0  0  0  0
  1  6  1  0  0  0  0
  7  8  1  0  0  0  0
  8  9  2  0  0  0  0
  9 10  1  0  0  0  0
 10  4  2  0  0  0  0
  7  5  2  0  0  0  0
  3 11  2  0  0  0  0
 12 13  1  0  0  0  0
  8 12  1  0  0  0  0
 14 15  1  0  0  0  0
 15 16  2  0  0  0  0
 16 17  1  0  0  0  0
 17 18  2  0  0  0  0
 18 19  1  0  0  0  0
 14 19  2  0  0  0  0
 20 21  1  0  0  0  0
 16 20  1  0  0  0  0
 17 22  1  0  0  0  0
  1 14  1  0  0  0  0
 10 23  1  0  0  0  0
 25 26  1  0  0  0  0
 26 27  1  6  0  0  0
 26 28  1  0  0  0  0
 28 29  1  1  0  0  0
 28 30  1  0  0  0  0
 30 31  1  6  0  0  0
 30 32  1  0  0  0  0
 32 33  1  0  0  0  0
 32 34  1  1  0  0  0
 34 35  1  0  0  0  0
 25 33  1  0  0  0  0
 36 37  1  0  0  0  0
 37 38  1  1  0  0  0
 37 39  1  0  0  0  0
 39 40  1  1  0  0  0
 39 41  1  0  0  0  0
 41 42  1  6  0  0  0
 41 43  1  0  0  0  0
 43 44  1  0  0  0  0
 43 45  1  1  0  0  0
 36 44  1  0  0  0  0
 36 35  1  6  0  0  0
 25 24  1  1  0  0  0
  2 24  1  0  0  0  0
M  END
>  <cdx:groupId>
310

>  <cdx:fragmentId>
174

$$$$
