2065.cdx
  Mrv1902 05222410222D          

 44 51  0  0  0  0            999 V2000
   12.7945  -10.0474    0.0000 C   0  0  0  0  0  0  0  0  0  0  0  0
   12.2074   -9.4975    0.0000 O   0  0  0  0  0  0  0  0  0  0  0  0
   12.5489   -8.7692    0.0000 C   0  0  0  0  0  0  0  0  0  0  0  0
   12.2362   -8.0281    0.0000 C   0  0  0  0  0  0  0  0  0  0  0  0
   12.7216   -7.3867    0.0000 C   0  0  0  0  0  0  0  0  0  0  0  0
   13.5198   -7.4865    0.0000 C   0  0  0  0  0  0  0  0  0  0  0  0
   14.0053   -6.8451    0.0000 C   0  0  0  0  0  0  0  0  0  0  0  0
   14.8035   -6.9448    0.0000 C   0  0  1  0  0  0  0  0  0  0  0  0
   15.1162   -7.6859    0.0000 C   0  0  2  0  0  0  0  0  0  0  0  0
   14.6307   -8.3273    0.0000 O   0  0  0  0  0  0  0  0  0  0  0  0
   13.8326   -8.2276    0.0000 C   0  0  0  0  0  0  0  0  0  0  0  0
   13.3471   -8.8689    0.0000 C   0  0  0  0  0  0  0  0  0  0  0  0
   13.4989   -9.6589    0.0000 C   0  0  0  0  0  0  0  0  0  0  0  0
   14.1930  -10.0654    0.0000 C   0  0  0  0  0  0  0  0  0  0  0  0
   14.1980  -10.8698    0.0000 C   0  0  0  0  0  0  0  0  0  0  0  0
   13.5090  -11.2849    0.0000 C   0  0  1  0  0  0  0  0  0  0  0  0
   12.7945  -11.6974    0.0000 O   0  0  0  0  0  0  0  0  0  0  0  0
   12.0801  -11.2849    0.0000 C   0  0  1  0  0  0  0  0  0  0  0  0
   11.3656  -11.6974    0.0000 C   0  0  0  0  0  0  0  0  0  0  0  0
   10.6511  -11.2849    0.0000 C   0  0  0  0  0  0  0  0  0  0  0  0
    9.9367  -11.6974    0.0000 C   0  0  0  0  0  0  0  0  0  0  0  0
    9.2222  -11.2849    0.0000 C   0  0  0  0  0  0  0  0  0  0  0  0
    9.2222  -10.4599    0.0000 C   0  0  0  0  0  0  0  0  0  0  0  0
    9.9367  -10.0474    0.0000 C   0  0  0  0  0  0  0  0  0  0  0  0
   10.6511  -10.4599    0.0000 C   0  0  0  0  0  0  0  0  0  0  0  0
   11.3656  -10.0474    0.0000 O   0  0  0  0  0  0  0  0  0  0  0  0
   12.0618  -10.4704    0.0000 C   0  0  2  0  0  0  0  0  0  0  0  0
   13.5090  -10.4599    0.0000 C   0  0  0  0  0  0  0  0  0  0  0  0
   14.9125  -11.2823    0.0000 O   0  0  0  0  0  0  0  0  0  0  0  0
    8.5077  -10.0474    0.0000 O   0  0  0  0  0  0  0  0  0  0  0  0
    9.9367  -12.5224    0.0000 O   0  0  0  0  0  0  0  0  0  0  0  0
   13.9215  -11.9993    0.0000 O   0  0  0  0  0  0  0  0  0  0  0  0
   15.3014   -6.2870    0.0000 O   0  0  0  0  0  0  0  0  0  0  0  0
   12.4009   -6.6266    0.0000 O   0  0  0  0  0  0  0  0  0  0  0  0
   15.9348   -7.7882    0.0000 C   0  0  0  0  0  0  0  0  0  0  0  0
   16.2556   -8.5483    0.0000 C   0  0  0  0  0  0  0  0  0  0  0  0
   17.0742   -8.6506    0.0000 C   0  0  0  0  0  0  0  0  0  0  0  0
   17.5721   -7.9927    0.0000 C   0  0  0  0  0  0  0  0  0  0  0  0
   17.2514   -7.2326    0.0000 C   0  0  0  0  0  0  0  0  0  0  0  0
   16.4327   -7.1304    0.0000 C   0  0  0  0  0  0  0  0  0  0  0  0
   18.3907   -8.0950    0.0000 O   0  0  0  0  0  0  0  0  0  0  0  0
   17.3949   -9.4107    0.0000 O   0  0  0  0  0  0  0  0  0  0  0  0
   12.0801  -12.1099    0.0000 H   0  0  0  0  0  0  0  0  0  0  0  0
   11.7796   -9.6952    0.0000 H   0  0  0  0  0  0  0  0  0  0  0  0
  1  2  1  0  0  0  0
  2  3  1  0  0  0  0
  3  4  1  0  0  0  0
  4  5  2  0  0  0  0
  5  6  1  0  0  0  0
  6  7  1  0  0  0  0
  7  8  1  0  0  0  0
  8  9  1  0  0  0  0
  9 10  1  0  0  0  0
 10 11  1  0  0  0  0
 11 12  1  0  0  0  0
 12 13  1  0  0  0  0
 13 14  2  0  0  0  0
 14 15  1  0  0  0  0
 15 16  1  0  0  0  0
 16 17  1  0  0  0  0
 17 18  1  0  0  0  0
 18 19  1  0  0  0  0
 19 20  1  0  0  0  0
 20 21  2  0  0  0  0
 21 22  1  0  0  0  0
 22 23  2  0  0  0  0
 23 24  1  0  0  0  0
 24 25  2  0  0  0  0
 25 26  1  0  0  0  0
 26 27  1  0  0  0  0
  1 27  1  0  0  0  0
  1 28  1  0  0  0  0
 16 28  1  6  0  0  0
 18 27  1  0  0  0  0
 20 25  1  0  0  0  0
  1 13  1  0  0  0  0
  3 12  2  0  0  0  0
  6 11  2  0  0  0  0
 15 29  2  0  0  0  0
 23 30  1  0  0  0  0
 21 31  1  0  0  0  0
 16 32  1  0  0  0  0
  8 33  1  6  0  0  0
  5 34  1  0  0  0  0
 35 36  1  0  0  0  0
 36 37  2  0  0  0  0
 37 38  1  0  0  0  0
 38 39  2  0  0  0  0
 39 40  1  0  0  0  0
 35 40  2  0  0  0  0
 38 41  1  0  0  0  0
 37 42  1  0  0  0  0
  9 35  1  1  0  0  0
 18 43  1  6  0  0  0
 27 44  1  1  0  0  0
M  END
>  <cdx:groupId>
146

>  <cdx:fragmentId>
10

$$$$
