39563.cdx
  Mrv1902 05222410212D          

 23 25  0  0  0  0            999 V2000
    6.5614   -7.8155    0.0000 C   0  0  0  0  0  0  0  0  0  0  0  0
    5.7364   -7.8155    0.0000 C   0  0  0  0  0  0  0  0  0  0  0  0
    5.3239   -7.1010    0.0000 C   0  0  0  0  0  0  0  0  0  0  0  0
    6.9739   -7.1010    0.0000 O   0  0  0  0  0  0  0  0  0  0  0  0
    6.9739   -8.5299    0.0000 O   0  0  0  0  0  0  0  0  0  0  0  0
    5.3239   -8.5299    0.0000 C   0  0  0  0  0  0  0  0  0  0  0  0
    5.7364   -9.2444    0.0000 C   0  0  0  0  0  0  0  0  0  0  0  0
    5.3239   -9.9589    0.0000 C   0  0  0  0  0  0  0  0  0  0  0  0
    4.4989   -9.9589    0.0000 C   0  0  0  0  0  0  0  0  0  0  0  0
    4.0864   -9.2444    0.0000 C   0  0  0  0  0  0  0  0  0  0  0  0
    4.4989   -8.5299    0.0000 C   0  0  0  0  0  0  0  0  0  0  0  0
    4.4989   -7.1010    0.0000 O   0  0  0  0  0  0  0  0  0  0  0  0
    8.9612   -9.4568    0.0000 C   0  0  2  0  0  0  0  0  0  0  0  0
    8.1568   -9.2732    0.0000 C   0  0  0  0  0  0  0  0  0  0  0  0
    7.7989   -8.5299    0.0000 C   0  0  0  0  0  0  0  0  0  0  0  0
    8.1568   -7.7866    0.0000 C   0  0  0  0  0  0  0  0  0  0  0  0
    8.9612   -7.6030    0.0000 C   0  0  1  0  0  0  0  0  0  0  0  0
    9.6062   -8.1174    0.0000 C   0  0  0  0  0  0  0  0  0  0  0  0
    9.6062   -8.9424    0.0000 C   0  0  0  0  0  0  0  0  0  0  0  0
    9.1447  -10.2611    0.0000 H   0  0  0  0  0  0  0  0  0  0  0  0
    9.1447   -6.7987    0.0000 H   0  0  0  0  0  0  0  0  0  0  0  0
    8.3424   -8.4138    0.0000 N   0  0  0  0  0  0  0  0  0  0  0  0
    7.5455   -8.2002    0.0000 C   0  0  0  0  0  0  0  0  0  0  0  0
  1  2  1  0  0  0  0
  2  3  1  0  0  0  0
  1  4  2  0  0  0  0
  1  5  1  0  0  0  0
  6  7  1  0  0  0  0
  7  8  2  0  0  0  0
  8  9  1  0  0  0  0
  9 10  2  0  0  0  0
 10 11  1  0  0  0  0
  6 11  2  0  0  0  0
  2  6  1  0  0  0  0
  3 12  1  0  0  0  0
 13 14  1  0  0  0  0
 14 15  1  0  0  0  0
 15 16  1  0  0  0  0
 16 17  1  0  0  0  0
 17 18  1  0  0  0  0
 18 19  1  0  0  0  0
 13 19  1  0  0  0  0
  5 15  1  0  0  0  0
 13 20  1  6  0  0  0
 17 21  1  6  0  0  0
 17 22  1  0  0  0  0
 13 22  1  0  0  0  0
 22 23  1  0  0  0  0
M  END
>  <cdx:fragmentId>
15

$$$$
