3957.cdx
  Mrv1902 05222410252D          

 27 30  0  0  0  0            999 V2000
    7.5303   -8.7764    0.0000 N   0  0  0  0  0  0  0  0  0  0  0  0
    6.8158   -8.3639    0.0000 C   0  0  0  0  0  0  0  0  0  0  0  0
    6.8158   -7.5389    0.0000 C   0  0  0  0  0  0  0  0  0  0  0  0
    7.5303   -7.1264    0.0000 C   0  0  0  0  0  0  0  0  0  0  0  0
    8.2448   -7.5389    0.0000 C   0  0  0  0  0  0  0  0  0  0  0  0
    8.2448   -8.3639    0.0000 C   0  0  0  0  0  0  0  0  0  0  0  0
    7.5303   -9.6014    0.0000 C   0  0  0  0  0  0  0  0  0  0  0  0
    6.8158  -10.0139    0.0000 O   0  0  0  0  0  0  0  0  0  0  0  0
    8.2448  -10.0139    0.0000 O   0  0  0  0  0  0  0  0  0  0  0  0
    6.7870   -5.9435    0.0000 C   0  0  0  0  0  0  0  0  0  0  0  0
    7.5303   -6.3014    0.0000 C   0  0  0  0  0  0  0  0  0  0  0  0
    8.2736   -5.9435    0.0000 C   0  0  0  0  0  0  0  0  0  0  0  0
    8.8784   -6.5046    0.0000 N   0  0  0  0  0  0  0  0  0  0  0  0
    9.6667   -6.2615    0.0000 C   0  0  0  0  0  0  0  0  0  0  0  0
    9.8503   -5.4571    0.0000 C   0  0  0  0  0  0  0  0  0  0  0  0
    9.2455   -4.8960    0.0000 C   0  0  0  0  0  0  0  0  0  0  0  0
    8.4572   -5.1392    0.0000 C   0  0  0  0  0  0  0  0  0  0  0  0
    7.9428   -4.4942    0.0000 C   0  0  0  0  0  0  0  0  0  0  0  0
    7.1178   -4.4942    0.0000 C   0  0  0  0  0  0  0  0  0  0  0  0
    6.6034   -5.1392    0.0000 C   0  0  0  0  0  0  0  0  0  0  0  0
    5.8151   -4.8960    0.0000 C   0  0  0  0  0  0  0  0  0  0  0  0
    5.2103   -5.4571    0.0000 C   0  0  0  0  0  0  0  0  0  0  0  0
    5.3939   -6.2615    0.0000 C   0  0  0  0  0  0  0  0  0  0  0  0
    6.1822   -6.5046    0.0000 C   0  0  0  0  0  0  0  0  0  0  0  0
    4.4220   -5.2140    0.0000 Cl  0  0  0  0  0  0  0  0  0  0  0  0
    8.2448  -10.8389    0.0000 C   0  0  0  0  0  0  0  0  0  0  0  0
    8.9593  -11.2514    0.0000 C   0  0  0  0  0  0  0  0  0  0  0  0
  1  2  1  0  0  0  0
  2  3  1  0  0  0  0
  3  4  1  0  0  0  0
  4  5  1  0  0  0  0
  5  6  1  0  0  0  0
  1  6  1  0  0  0  0
  7  8  2  0  0  0  0
  7  9  1  0  0  0  0
  1  7  1  0  0  0  0
 10 11  1  0  0  0  0
 11 12  1  0  0  0  0
 12 13  1  0  0  0  0
 13 14  2  0  0  0  0
 14 15  1  0  0  0  0
 15 16  2  0  0  0  0
 16 17  1  0  0  0  0
 17 18  1  0  0  0  0
 18 19  1  0  0  0  0
 19 20  1  0  0  0  0
 20 21  1  0  0  0  0
 21 22  2  0  0  0  0
 22 23  1  0  0  0  0
 23 24  2  0  0  0  0
 10 24  1  0  0  0  0
 10 20  2  0  0  0  0
 12 17  2  0  0  0  0
 22 25  1  0  0  0  0
  4 11  2  0  0  0  0
 26 27  1  0  0  0  0
  9 26  1  0  0  0  0
M  END
>  <cdx:groupId>
86

>  <cdx:fragmentId>
23

$$$$
