39588.cdx
  Mrv1902 05222410212D          

 34 36  0  0  0  0            999 V2000
    5.6707   -4.6011    0.0000 C   0  0  0  0  0  0  0  0  0  0  0  0
    5.6707   -5.4261    0.0000 C   0  0  0  0  0  0  0  0  0  0  0  0
    6.3852   -5.8386    0.0000 C   0  0  0  0  0  0  0  0  0  0  0  0
    7.0996   -5.4261    0.0000 C   0  0  0  0  0  0  0  0  0  0  0  0
    7.0996   -4.6011    0.0000 C   0  0  0  0  0  0  0  0  0  0  0  0
    6.3852   -4.1886    0.0000 C   0  0  0  0  0  0  0  0  0  0  0  0
    7.8843   -5.6810    0.0000 O   0  0  0  0  0  0  0  0  0  0  0  0
    8.3692   -5.0136    0.0000 C   0  0  0  0  0  0  0  0  0  0  0  0
    7.8843   -4.3462    0.0000 C   0  0  0  0  0  0  0  0  0  0  0  0
    9.1942   -5.0136    0.0000 C   0  0  0  0  0  0  0  0  0  0  0  0
    9.6067   -5.7281    0.0000 C   0  0  0  0  0  0  0  0  0  0  0  0
   10.4317   -5.7281    0.0000 C   0  0  0  0  0  0  0  0  0  0  0  0
   10.8442   -5.0136    0.0000 C   0  0  0  0  0  0  0  0  0  0  0  0
   10.4317   -4.2991    0.0000 C   0  0  0  0  0  0  0  0  0  0  0  0
    9.6067   -4.2991    0.0000 C   0  0  0  0  0  0  0  0  0  0  0  0
    4.9562   -5.8386    0.0000 O   0  0  0  0  0  0  0  0  0  0  0  0
    6.3852   -6.6636    0.0000 C   0  0  0  0  0  0  0  0  0  0  0  0
    5.6707   -7.0761    0.0000 C   0  0  0  0  0  0  0  0  0  0  0  0
    5.6707   -7.9011    0.0000 C   0  0  0  0  0  0  0  0  0  0  0  0
    4.9562   -8.3136    0.0000 C   0  0  0  0  0  0  0  0  0  0  0  0
    4.9562   -9.1386    0.0000 C   0  0  0  0  0  0  0  0  0  0  0  0
    4.2417   -9.5511    0.0000 C   0  0  0  0  0  0  0  0  0  0  0  0
    4.2417  -10.3761    0.0000 C   0  0  0  0  0  0  0  0  0  0  0  0
   10.8442   -3.5847    0.0000 O   0  0  0  0  0  0  0  0  0  0  0  0
   10.8442   -6.4425    0.0000 O   0  0  0  0  0  0  0  0  0  0  0  0
   10.4317   -7.1570    0.0000 C   0  0  0  0  0  0  0  0  0  0  0  0
    9.1942   -6.4425    0.0000 C   0  0  0  0  0  0  0  0  0  0  0  0
    9.6067   -7.1570    0.0000 C   0  0  0  0  0  0  0  0  0  0  0  0
    9.1942   -7.8715    0.0000 C   0  0  0  0  0  0  0  0  0  0  0  0
    9.6067   -8.5859    0.0000 C   0  0  0  0  0  0  0  0  0  0  0  0
    8.3692   -7.8715    0.0000 C   0  0  0  0  0  0  0  0  0  0  0  0
    6.3852   -8.3136    0.0000 C   0  0  0  0  0  0  0  0  0  0  0  0
    3.5273  -10.7886    0.0000 C   0  0  0  0  0  0  0  0  0  0  0  0
    4.9562  -10.7886    0.0000 C   0  0  0  0  0  0  0  0  0  0  0  0
  1  2  2  0  0  0  0
  2  3  1  0  0  0  0
  3  4  2  0  0  0  0
  4  5  1  0  0  0  0
  5  6  2  0  0  0  0
  6  1  1  0  0  0  0
  4  7  1  0  0  0  0
  7  8  1  0  0  0  0
  8  9  2  0  0  0  0
  9  5  1  0  0  0  0
  8 10  1  0  0  0  0
 10 11  2  0  0  0  0
 11 12  1  0  0  0  0
 12 13  2  0  0  0  0
 13 14  1  0  0  0  0
 14 15  2  0  0  0  0
 15 10  1  0  0  0  0
  2 16  1  0  0  0  0
  3 17  1  0  0  0  0
 17 18  1  0  0  0  0
 18 19  2  0  0  0  0
 19 20  1  0  0  0  0
 20 21  1  0  0  0  0
 21 22  1  0  0  0  0
 22 23  2  0  0  0  0
 14 24  1  0  0  0  0
 12 25  1  0  0  0  0
 25 26  1  0  0  0  0
 11 27  1  0  0  0  0
 27 28  1  0  0  0  0
 28 29  2  0  0  0  0
 29 30  1  0  0  0  0
 29 31  1  0  0  0  0
 19 32  1  0  0  0  0
 23 33  1  0  0  0  0
 23 34  1  0  0  0  0
M  END
>  <cdx:fragmentId>
144

$$$$
