39585.cdx
  Mrv1902 05222410252D          

 56 61  0  0  0  0            999 V2000
    3.2862   -6.9634    0.0000 C   0  0  0  0  0  0  0  0  0  0  0  0
    3.2875   -7.7884    0.0000 C   0  0  0  0  0  0  0  0  0  0  0  0
    2.5737   -8.2020    0.0000 C   0  0  0  0  0  0  0  0  0  0  0  0
    1.8586   -7.7907    0.0000 C   0  0  0  0  0  0  0  0  0  0  0  0
   10.8632   -9.1787    0.0000 C   0  0  0  0  0  0  0  0  0  0  0  0
   10.8645  -10.0037    0.0000 C   0  0  0  0  0  0  0  0  0  0  0  0
   11.5796  -10.4151    0.0000 C   0  0  0  0  0  0  0  0  0  0  0  0
   12.2934  -10.0014    0.0000 C   0  0  0  0  0  0  0  0  0  0  0  0
    4.7165   -7.7861    0.0000 O   0  0  0  0  0  0  0  0  0  0  0  0
    3.2836   -5.3134    0.0000 O   0  0  0  0  0  0  0  0  0  0  0  0
    2.5751   -9.0270    0.0000 C   0  0  0  0  0  0  0  0  0  0  0  0
    6.1454   -7.7838    0.0000 O   0  0  0  0  0  0  0  0  0  0  0  0
    5.4276   -5.7225    0.0000 C   0  0  0  0  0  0  0  0  0  0  0  0
    4.7125   -5.3111    0.0000 C   0  0  0  0  0  0  0  0  0  0  0  0
    3.9987   -5.7247    0.0000 C   0  0  0  0  0  0  0  0  0  0  0  0
    4.0000   -6.5497    0.0000 C   0  0  0  0  0  0  0  0  0  0  0  0
    4.7152   -6.9611    0.0000 C   0  0  0  0  0  0  0  0  0  0  0  0
    5.4290   -6.5475    0.0000 C   0  0  0  0  0  0  0  0  0  0  0  0
    6.1441   -6.9588    0.0000 C   0  0  0  0  0  0  0  0  0  0  0  0
    7.2822   -3.8220    0.0000 O   0  0  0  0  0  0  0  0  0  0  0  0
    4.4243   -3.8266    0.0000 O   0  0  0  0  0  0  0  0  0  0  0  0
    5.8559   -5.4743    0.0000 C   0  0  0  0  0  0  0  0  0  0  0  0
    5.1408   -5.0629    0.0000 C   0  0  0  0  0  0  0  0  0  0  0  0
    5.1395   -4.2379    0.0000 C   0  0  0  0  0  0  0  0  0  0  0  0
    5.8533   -3.8243    0.0000 C   0  0  0  0  0  0  0  0  0  0  0  0
    6.5684   -4.2356    0.0000 C   0  0  0  0  0  0  0  0  0  0  0  0
    6.5697   -5.0606    0.0000 C   0  0  0  0  0  0  0  0  0  0  0  0
    9.4276   -5.0560    0.0000 C   0  0  0  0  0  0  0  0  0  0  0  0
    7.2862   -6.2970    0.0000 C   0  0  0  0  0  0  0  0  0  0  0  0
    7.2849   -5.4720    0.0000 C   0  0  0  0  0  0  0  0  0  0  0  0
    7.9987   -5.0583    0.0000 C   0  0  0  0  0  0  0  0  0  0  0  0
    8.7138   -5.4697    0.0000 C   0  0  0  0  0  0  0  0  0  0  0  0
    8.7151   -6.2947    0.0000 C   0  0  0  0  0  0  0  0  0  0  0  0
    8.0013   -6.7083    0.0000 C   0  0  0  0  0  0  0  0  0  0  0  0
   10.1441   -6.2924    0.0000 O   0  0  0  0  0  0  0  0  0  0  0  0
   13.0019   -6.2878    0.0000 O   0  0  0  0  0  0  0  0  0  0  0  0
   11.5757   -7.9401    0.0000 C   0  0  0  0  0  0  0  0  0  0  0  0
   12.2895   -7.5264    0.0000 C   0  0  0  0  0  0  0  0  0  0  0  0
   12.2881   -6.7014    0.0000 C   0  0  0  0  0  0  0  0  0  0  0  0
   11.5730   -6.2901    0.0000 C   0  0  0  0  0  0  0  0  0  0  0  0
   10.8592   -6.7037    0.0000 C   0  0  0  0  0  0  0  0  0  0  0  0
   10.8605   -7.5287    0.0000 C   0  0  0  0  0  0  0  0  0  0  0  0
    8.0066  -10.0083    0.0000 O   0  0  0  0  0  0  0  0  0  0  0  0
    6.5737   -7.5356    0.0000 O   0  0  0  0  0  0  0  0  0  0  0  0
   11.5810  -11.2401    0.0000 C   0  0  0  0  0  0  0  0  0  0  0  0
    9.4356  -10.0060    0.0000 O   0  0  0  0  0  0  0  0  0  0  0  0
    9.4316   -7.5310    0.0000 O   0  0  0  0  0  0  0  0  0  0  0  0
    8.7178   -7.9447    0.0000 C   0  0  0  0  0  0  0  0  0  0  0  0
    8.0026   -7.5333    0.0000 C   0  0  0  0  0  0  0  0  0  0  0  0
    7.2888   -7.9470    0.0000 C   0  0  0  0  0  0  0  0  0  0  0  0
    7.2902   -8.7720    0.0000 C   0  0  0  0  0  0  0  0  0  0  0  0
    8.0053   -9.1833    0.0000 C   0  0  0  0  0  0  0  0  0  0  0  0
    8.7191   -8.7697    0.0000 C   0  0  0  0  0  0  0  0  0  0  0  0
    9.4342   -9.1810    0.0000 C   0  0  0  0  0  0  0  0  0  0  0  0
   10.1480   -8.7674    0.0000 C   0  0  0  0  0  0  0  0  0  0  0  0
   10.1467   -7.9424    0.0000 C   0  0  0  0  0  0  0  0  0  0  0  0
 49 34  1  0  0  0  0
 29 19  1  0  0  0  0
 17  9  1  0  0  0  0
 15 10  1  0  0  0  0
 16  1  1  0  0  0  0
 19 12  2  0  0  0  0
 18 13  2  0  0  0  0
 14 13  1  0  0  0  0
 15 14  2  0  0  0  0
 16 15  1  0  0  0  0
 17 16  2  0  0  0  0
 18 17  1  0  0  0  0
 19 18  1  0  0  0  0
 30 27  1  0  0  0  0
 26 20  1  0  0  0  0
 24 21  1  0  0  0  0
 27 22  2  0  0  0  0
 23 22  1  0  0  0  0
 24 23  2  0  0  0  0
 25 24  1  0  0  0  0
 26 25  2  0  0  0  0
 27 26  1  0  0  0  0
 32 28  1  0  0  0  0
 34 29  1  0  0  0  0
 30 29  1  0  0  0  0
 31 30  1  0  0  0  0
 32 31  1  0  0  0  0
 33 32  2  0  0  0  0
 34 33  1  0  0  0  0
 56 42  1  0  0  0  0
 41 35  1  0  0  0  0
 39 36  1  0  0  0  0
 42 37  2  0  0  0  0
 38 37  1  0  0  0  0
 39 38  2  0  0  0  0
 40 39  1  0  0  0  0
 41 40  2  0  0  0  0
 42 41  1  0  0  0  0
 52 43  1  0  0  0  0
 50 44  1  0  0  0  0
 55  5  1  0  0  0  0
 54 46  2  0  0  0  0
 56 47  1  0  0  0  0
 48 47  1  0  0  0  0
 53 48  2  0  0  0  0
 49 48  1  0  0  0  0
 50 49  2  0  0  0  0
 51 50  1  0  0  0  0
 52 51  2  0  0  0  0
 53 52  1  0  0  0  0
 54 53  1  0  0  0  0
 55 54  1  0  0  0  0
 56 55  2  0  0  0  0
  1  2  1  0  0  0  0
  2  3  2  0  0  0  0
  3  4  1  0  0  0  0
  3 11  1  0  0  0  0
  5  6  1  0  0  0  0
  6  7  2  0  0  0  0
  7  8  1  0  0  0  0
  7 45  1  0  0  0  0
M  END
>  <cdx:fragmentId>
75

$$$$
