39583.cdx
  Mrv1902 05222410242D          

 44 52  0  0  0  0            999 V2000
    9.3225   -8.2500    0.0000 C   0  0  0  0  0  0  0  0  0  0  0  0
    8.6525   -8.8359    0.0000 C   0  0  0  0  0  0  0  0  0  0  0  0
    9.0683   -9.5484    0.0000 O   0  0  0  0  0  0  0  0  0  0  0  0
    8.2433   -9.5522    0.0000 C   0  0  0  0  0  0  0  0  0  0  0  0
    7.4183   -9.5560    0.0000 O   0  0  0  0  0  0  0  0  0  0  0  0
    7.0025   -8.8435    0.0000 C   0  0  0  0  0  0  0  0  0  0  0  0
    6.1775   -8.8473    0.0000 C   0  0  0  0  0  0  0  0  0  0  0  0
    5.7617   -8.1347    0.0000 C   0  0  0  0  0  0  0  0  0  0  0  0
    6.1709   -7.4183    0.0000 C   0  0  0  0  0  0  0  0  0  0  0  0
    6.9959   -7.4145    0.0000 C   0  0  0  0  0  0  0  0  0  0  0  0
    7.4117   -8.1271    0.0000 C   0  0  0  0  0  0  0  0  0  0  0  0
    8.2367   -8.1233    0.0000 C   0  0  0  0  0  0  0  0  0  0  0  0
    8.6459   -7.4069    0.0000 C   0  0  0  0  0  0  0  0  0  0  0  0
    9.4709   -7.4031    0.0000 C   0  0  0  0  0  0  0  0  0  0  0  0
   10.3125   -7.3700    0.0000 O   0  0  0  0  0  0  0  0  0  0  0  0
   10.6763   -8.1125    0.0000 C   0  0  0  0  0  0  0  0  0  0  0  0
   11.4806   -8.1037    0.0000 C   0  0  0  0  0  0  0  0  0  0  0  0
   11.8903   -8.7960    0.0000 C   0  0  0  0  0  0  0  0  0  0  0  0
   11.4957   -9.4969    0.0000 C   0  0  0  0  0  0  0  0  0  0  0  0
   10.6913   -9.5056    0.0000 C   0  0  0  0  0  0  0  0  0  0  0  0
   10.2816   -8.8134    0.0000 C   0  0  0  0  0  0  0  0  0  0  0  0
    9.0200   -6.4075    0.0000 C   0  0  0  0  0  0  0  0  0  0  0  0
    8.2301   -6.6944    0.0000 O   0  0  0  0  0  0  0  0  0  0  0  0
    9.6844   -6.6063    0.0000 C   0  0  0  0  0  0  0  0  0  0  0  0
   12.7153   -8.7922    0.0000 O   0  0  0  0  0  0  0  0  0  0  0  0
    7.4051   -6.6982    0.0000 O   0  0  0  0  0  0  0  0  0  0  0  0
    8.2471  -10.3772    0.0000 C   0  0  0  0  0  0  0  0  0  0  0  0
    7.5345  -10.7930    0.0000 C   0  0  0  0  0  0  0  0  0  0  0  0
    7.5383  -11.6180    0.0000 C   0  0  0  0  0  0  0  0  0  0  0  0
    8.2547  -12.0272    0.0000 C   0  0  0  0  0  0  0  0  0  0  0  0
    8.9672  -11.6114    0.0000 C   0  0  0  0  0  0  0  0  0  0  0  0
    8.9634  -10.7864    0.0000 C   0  0  0  0  0  0  0  0  0  0  0  0
    8.2585  -12.8522    0.0000 O   0  0  0  0  0  0  0  0  0  0  0  0
    6.8181  -10.3838    0.0000 O   0  0  0  0  0  0  0  0  0  0  0  0
    1.5276   -8.9792    0.0000 O   0  0  0  0  0  0  0  0  0  0  0  0
    3.6691   -8.5568    0.0000 C   0  0  0  0  0  0  0  0  0  0  0  0
    2.9565   -8.9726    0.0000 C   0  0  0  0  0  0  0  0  0  0  0  0
    2.2402   -8.5634    0.0000 C   0  0  0  0  0  0  0  0  0  0  0  0
    2.2364   -7.7384    0.0000 C   0  0  0  0  0  0  0  0  0  0  0  0
    2.9489   -7.3226    0.0000 C   0  0  0  0  0  0  0  0  0  0  0  0
    3.6653   -7.7318    0.0000 C   0  0  0  0  0  0  0  0  0  0  0  0
    4.4487   -7.4733    0.0000 C   0  0  0  0  0  0  0  0  0  0  0  0
    4.9367   -8.1385    0.0000 C   0  0  0  0  0  0  0  0  0  0  0  0
    4.4549   -8.8081    0.0000 O   0  0  0  0  0  0  0  0  0  0  0  0
  8 43  1  0  0  0  0
 38 35  1  0  0  0  0
 44 36  1  0  0  0  0
 41 36  2  0  0  0  0
 37 36  1  0  0  0  0
 38 37  2  0  0  0  0
 39 38  1  0  0  0  0
 40 39  2  0  0  0  0
 41 40  1  0  0  0  0
 42 41  1  0  0  0  0
 43 42  2  0  0  0  0
 44 43  1  0  0  0  0
  1  2  1  0  0  0  0
  2  3  1  0  0  0  0
  3  4  1  0  0  0  0
  4  5  1  0  0  0  0
  5  6  1  0  0  0  0
  6  7  2  0  0  0  0
  7  8  1  0  0  0  0
  8  9  2  0  0  0  0
  9 10  1  0  0  0  0
 10 11  2  0  0  0  0
 11 12  1  0  0  0  0
 12 13  1  0  0  0  0
 13 14  1  0  0  0  0
 14 15  1  0  0  0  0
 15 16  1  0  0  0  0
 16 17  1  0  0  0  0
 17 18  2  0  0  0  0
 18 19  1  0  0  0  0
 19 20  2  0  0  0  0
 20 21  1  0  0  0  0
  1 21  1  0  0  0  0
  1 22  1  0  0  0  0
 22 14  1  0  0  0  0
 16 21  2  0  0  0  0
  2 12  1  0  0  0  0
  6 11  1  0  0  0  0
  2  4  1  0  0  0  0
 13 23  2  0  0  0  0
 14 24  1  0  0  0  0
 18 25  1  0  0  0  0
 10 26  1  0  0  0  0
 27 28  1  0  0  0  0
 28 29  2  0  0  0  0
 29 30  1  0  0  0  0
 30 31  2  0  0  0  0
 31 32  1  0  0  0  0
 27 32  2  0  0  0  0
 30 33  1  0  0  0  0
 28 34  1  0  0  0  0
  4 27  1  0  0  0  0
M  END
>  <cdx:fragmentId>
9

$$$$
