39586.cdx
  Mrv1902 05222410262D          

 31 34  0  0  0  0            999 V2000
    5.7537   -7.8011    0.0000 C   0  0  0  0  0  0  0  0  0  0  0  0
    5.7537   -8.6261    0.0000 C   0  0  0  0  0  0  0  0  0  0  0  0
    5.0393   -9.0386    0.0000 C   0  0  0  0  0  0  0  0  0  0  0  0
    4.3248   -8.6261    0.0000 C   0  0  0  0  0  0  0  0  0  0  0  0
    3.6103   -9.0386    0.0000 C   0  0  0  0  0  0  0  0  0  0  0  0
    2.8959   -8.6261    0.0000 C   0  0  0  0  0  0  0  0  0  0  0  0
    2.8959   -7.8011    0.0000 C   0  0  0  0  0  0  0  0  0  0  0  0
    3.6103   -7.3886    0.0000 C   0  0  0  0  0  0  0  0  0  0  0  0
    4.3248   -7.8011    0.0000 C   0  0  0  0  0  0  0  0  0  0  0  0
    5.0393   -7.3886    0.0000 O   0  0  0  0  0  0  0  0  0  0  0  0
    5.0393   -9.8636    0.0000 O   0  0  0  0  0  0  0  0  0  0  0  0
    9.3261   -6.5636    0.0000 C   0  0  0  0  0  0  0  0  0  0  0  0
    9.3261   -7.3886    0.0000 C   0  0  0  0  0  0  0  0  0  0  0  0
    8.6116   -7.8011    0.0000 C   0  0  0  0  0  0  0  0  0  0  0  0
    7.8972   -7.3886    0.0000 C   0  0  0  0  0  0  0  0  0  0  0  0
    7.1827   -7.8011    0.0000 C   0  0  0  0  0  0  0  0  0  0  0  0
    6.4682   -7.3886    0.0000 C   0  0  0  0  0  0  0  0  0  0  0  0
    6.4682   -6.5636    0.0000 C   0  0  0  0  0  0  0  0  0  0  0  0
    7.1827   -6.1511    0.0000 C   0  0  0  0  0  0  0  0  0  0  0  0
    7.8972   -6.5636    0.0000 C   0  0  0  0  0  0  0  0  0  0  0  0
    8.6116   -6.1511    0.0000 O   0  0  0  0  0  0  0  0  0  0  0  0
   10.0406   -6.1511    0.0000 C   0  0  0  0  0  0  0  0  0  0  0  0
   10.7550   -6.5636    0.0000 C   0  0  0  0  0  0  0  0  0  0  0  0
   11.4695   -6.1511    0.0000 C   0  0  0  0  0  0  0  0  0  0  0  0
   12.1840   -6.5636    0.0000 C   0  0  0  0  0  0  0  0  0  0  0  0
   12.8985   -6.1511    0.0000 C   0  0  0  0  0  0  0  0  0  0  0  0
   12.1840   -7.3886    0.0000 C   0  0  0  0  0  0  0  0  0  0  0  0
    9.3261   -5.7386    0.0000 C   0  0  0  0  0  0  0  0  0  0  0  0
    5.7537   -6.1511    0.0000 O   0  0  0  0  0  0  0  0  0  0  0  0
    2.1814   -7.3886    0.0000 O   0  0  0  0  0  0  0  0  0  0  0  0
    3.6103   -9.8636    0.0000 O   0  0  0  0  0  0  0  0  0  0  0  0
  1  2  1  0  0  0  0
  2  3  1  0  0  0  0
  3  4  1  0  0  0  0
  4  5  1  0  0  0  0
  5  6  2  0  0  0  0
  6  7  1  0  0  0  0
  7  8  2  0  0  0  0
  8  9  1  0  0  0  0
  4  9  2  0  0  0  0
  9 10  1  0  0  0  0
  1 10  1  0  0  0  0
  3 11  2  0  0  0  0
 12 13  1  0  0  0  0
 13 14  2  0  0  0  0
 14 15  1  0  0  0  0
 15 16  1  0  0  0  0
 16 17  2  0  0  0  0
 17 18  1  0  0  0  0
 18 19  2  0  0  0  0
 19 20  1  0  0  0  0
 15 20  2  0  0  0  0
 20 21  1  0  0  0  0
 12 21  1  0  0  0  0
 22 23  1  0  0  0  0
 23 24  1  0  0  0  0
 24 25  2  0  0  0  0
 25 26  1  0  0  0  0
 25 27  1  0  0  0  0
 12 22  1  0  0  0  0
 12 28  1  0  0  0  0
 18 29  1  0  0  0  0
  1 17  1  0  0  0  0
  7 30  1  0  0  0  0
  5 31  1  0  0  0  0
M  END
>  <cdx:fragmentId>
31

$$$$
