39587.cdx
  Mrv1902 05222410252D          

 62 69  0  0  0  0            999 V2000
    5.9050   -5.6326    0.0000 C   0  0  0  0  0  0  0  0  0  0  0  0
    6.6194   -5.2201    0.0000 C   0  0  0  0  0  0  0  0  0  0  0  0
    7.3339   -5.6326    0.0000 C   0  0  0  0  0  0  0  0  0  0  0  0
    7.3339   -6.4576    0.0000 C   0  0  0  0  0  0  0  0  0  0  0  0
    8.0484   -6.8701    0.0000 C   0  0  0  0  0  0  0  0  0  0  0  0
    8.0484   -7.6951    0.0000 C   0  0  0  0  0  0  0  0  0  0  0  0
    7.3339   -8.1076    0.0000 C   0  0  0  0  0  0  0  0  0  0  0  0
    6.6194   -7.6951    0.0000 C   0  0  0  0  0  0  0  0  0  0  0  0
    6.6194   -6.8701    0.0000 C   0  0  0  0  0  0  0  0  0  0  0  0
    5.9050   -6.4576    0.0000 O   0  0  0  0  0  0  0  0  0  0  0  0
    7.3339   -8.9326    0.0000 O   0  0  0  0  0  0  0  0  0  0  0  0
    5.9050   -8.1076    0.0000 C   0  0  0  0  0  0  0  0  0  0  0  0
    5.1905   -7.6951    0.0000 C   0  0  0  0  0  0  0  0  0  0  0  0
    4.4760   -8.1076    0.0000 C   0  0  0  0  0  0  0  0  0  0  0  0
    4.4760   -8.9326    0.0000 C   0  0  0  0  0  0  0  0  0  0  0  0
    5.1905   -9.3451    0.0000 C   0  0  0  0  0  0  0  0  0  0  0  0
    5.9050   -8.9326    0.0000 C   0  0  0  0  0  0  0  0  0  0  0  0
    6.6194   -9.3451    0.0000 C   0  0  0  0  0  0  0  0  0  0  0  0
    8.0484   -5.2201    0.0000 O   0  0  0  0  0  0  0  0  0  0  0  0
    6.6194   -4.3951    0.0000 C   0  0  0  0  0  0  0  0  0  0  0  0
    7.3339   -3.9826    0.0000 C   0  0  0  0  0  0  0  0  0  0  0  0
    7.3339   -3.1576    0.0000 C   0  0  0  0  0  0  0  0  0  0  0  0
    6.6194   -2.7451    0.0000 C   0  0  0  0  0  0  0  0  0  0  0  0
    8.0484   -2.7451    0.0000 C   0  0  0  0  0  0  0  0  0  0  0  0
    3.7616   -7.6951    0.0000 C   0  0  0  0  0  0  0  0  0  0  0  0
    5.6030  -10.0596    0.0000 C   0  0  0  0  0  0  0  0  0  0  0  0
    4.7780  -10.0596    0.0000 C   0  0  0  0  0  0  0  0  0  0  0  0
    8.7629   -6.4576    0.0000 O   0  0  0  0  0  0  0  0  0  0  0  0
    8.7629  -10.8301    0.0000 C   0  0  0  0  0  0  0  0  0  0  0  0
    8.7629  -11.6551    0.0000 C   0  0  0  0  0  0  0  0  0  0  0  0
    8.0484  -12.0676    0.0000 C   0  0  0  0  0  0  0  0  0  0  0  0
    7.3339  -11.6551    0.0000 C   0  0  0  0  0  0  0  0  0  0  0  0
    6.6194  -12.0676    0.0000 C   0  0  0  0  0  0  0  0  0  0  0  0
    5.9050  -11.6551    0.0000 C   0  0  0  0  0  0  0  0  0  0  0  0
    5.9050  -10.8301    0.0000 C   0  0  0  0  0  0  0  0  0  0  0  0
    6.6194  -10.4176    0.0000 C   0  0  0  0  0  0  0  0  0  0  0  0
    7.3339  -10.8301    0.0000 C   0  0  0  0  0  0  0  0  0  0  0  0
    8.0484  -10.4176    0.0000 O   0  0  0  0  0  0  0  0  0  0  0  0
    8.0484  -12.8926    0.0000 O   0  0  0  0  0  0  0  0  0  0  0  0
    9.4773  -12.0676    0.0000 C   0  0  0  0  0  0  0  0  0  0  0  0
   10.1918  -11.6551    0.0000 C   0  0  0  0  0  0  0  0  0  0  0  0
   10.9063  -12.0676    0.0000 C   0  0  0  0  0  0  0  0  0  0  0  0
   10.9063  -12.8926    0.0000 C   0  0  0  0  0  0  0  0  0  0  0  0
   11.6207  -11.6551    0.0000 C   0  0  0  0  0  0  0  0  0  0  0  0
    5.1905  -10.4176    0.0000 O   0  0  0  0  0  0  0  0  0  0  0  0
    6.6194  -12.8926    0.0000 O   0  0  0  0  0  0  0  0  0  0  0  0
    9.4773  -10.4176    0.0000 C   0  0  0  0  0  0  0  0  0  0  0  0
    9.4773   -9.5926    0.0000 C   0  0  0  0  0  0  0  0  0  0  0  0
   10.1918   -9.1801    0.0000 C   0  0  0  0  0  0  0  0  0  0  0  0
   10.9063   -9.5926    0.0000 C   0  0  0  0  0  0  0  0  0  0  0  0
   10.9063  -10.4176    0.0000 C   0  0  0  0  0  0  0  0  0  0  0  0
   10.1918  -10.8301    0.0000 C   0  0  0  0  0  0  0  0  0  0  0  0
   11.6207   -9.1801    0.0000 O   0  0  0  0  0  0  0  0  0  0  0  0
    8.7629   -9.1801    0.0000 O   0  0  0  0  0  0  0  0  0  0  0  0
    5.1905   -5.2201    0.0000 C   0  0  0  0  0  0  0  0  0  0  0  0
    5.1905   -4.3951    0.0000 C   0  0  0  0  0  0  0  0  0  0  0  0
    4.4760   -3.9826    0.0000 C   0  0  0  0  0  0  0  0  0  0  0  0
    3.7616   -4.3951    0.0000 C   0  0  0  0  0  0  0  0  0  0  0  0
    3.7616   -5.2201    0.0000 C   0  0  0  0  0  0  0  0  0  0  0  0
    4.4760   -5.6326    0.0000 C   0  0  0  0  0  0  0  0  0  0  0  0
    3.0471   -3.9826    0.0000 O   0  0  0  0  0  0  0  0  0  0  0  0
    5.9050   -3.9826    0.0000 O   0  0  0  0  0  0  0  0  0  0  0  0
  1  2  2  0  0  0  0
  2  3  1  0  0  0  0
  3  4  1  0  0  0  0
  4  5  1  0  0  0  0
  5  6  2  0  0  0  0
  6  7  1  0  0  0  0
  7  8  2  0  0  0  0
  8  9  1  0  0  0  0
  4  9  2  0  0  0  0
  9 10  1  0  0  0  0
  1 10  1  0  0  0  0
 12 13  1  0  0  0  0
 13 14  2  0  0  0  0
 14 15  1  0  0  0  0
 15 16  1  0  0  0  0
 16 17  1  0  0  0  0
 12 17  1  0  0  0  0
 17 18  1  0  0  0  0
 11 18  1  0  0  0  0
 11  7  1  0  0  0  0
 12  8  1  0  0  0  0
  3 19  2  0  0  0  0
 20 21  1  0  0  0  0
 21 22  2  0  0  0  0
 22 23  1  0  0  0  0
 22 24  1  0  0  0  0
  2 20  1  0  0  0  0
 14 25  1  0  0  0  0
 16 26  1  0  0  0  0
 16 27  1  0  0  0  0
  5 28  1  0  0  0  0
 29 30  2  0  0  0  0
 30 31  1  0  0  0  0
 31 32  1  0  0  0  0
 32 33  1  0  0  0  0
 33 34  2  0  0  0  0
 34 35  1  0  0  0  0
 35 36  2  0  0  0  0
 36 37  1  0  0  0  0
 32 37  2  0  0  0  0
 37 38  1  0  0  0  0
 29 38  1  0  0  0  0
 31 39  2  0  0  0  0
 40 41  1  0  0  0  0
 41 42  2  0  0  0  0
 42 43  1  0  0  0  0
 42 44  1  0  0  0  0
 30 40  1  0  0  0  0
 35 45  1  0  0  0  0
 33 46  1  0  0  0  0
 47 48  1  0  0  0  0
 48 49  2  0  0  0  0
 49 50  1  0  0  0  0
 50 51  2  0  0  0  0
 51 52  1  0  0  0  0
 47 52  2  0  0  0  0
 50 53  1  0  0  0  0
 48 54  1  0  0  0  0
 29 47  1  0  0  0  0
 18 36  1  0  0  0  0
 55 56  1  0  0  0  0
 56 57  2  0  0  0  0
 57 58  1  0  0  0  0
 58 59  2  0  0  0  0
 59 60  1  0  0  0  0
 55 60  2  0  0  0  0
 58 61  1  0  0  0  0
 56 62  1  0  0  0  0
  1 55  1  0  0  0  0
M  END
>  <cdx:fragmentId>
9

$$$$
