39593.cdx
  Mrv1902 05222410252D          

 15 16  0  0  0  0            999 V2000
    6.3937   -8.0538    0.0000 C   0  0  1  0  0  0  0  0  0  0  0  0
    6.3937   -7.2288    0.0000 C   0  0  0  0  0  0  0  0  0  0  0  0
    7.1082   -6.8163    0.0000 C   0  0  0  0  0  0  0  0  0  0  0  0
    7.8226   -7.2288    0.0000 C   0  0  2  0  0  0  0  0  0  0  0  0
    8.5371   -6.8163    0.0000 C   0  0  0  0  0  0  0  0  0  0  0  0
    9.2516   -7.2288    0.0000 C   0  0  0  0  0  0  0  0  0  0  0  0
    9.2516   -8.0538    0.0000 C   0  0  0  0  0  0  0  0  0  0  0  0
    8.5371   -8.4663    0.0000 C   0  0  0  0  0  0  0  0  0  0  0  0
    7.8226   -8.0538    0.0000 C   0  0  1  0  0  0  0  0  0  0  0  0
    7.1082   -8.4663    0.0000 O   0  0  0  0  0  0  0  0  0  0  0  0
    7.8226   -8.8788    0.0000 C   0  0  0  0  0  0  0  0  0  0  0  0
    8.1246   -6.1018    0.0000 C   0  0  0  0  0  0  0  0  0  0  0  0
    8.9496   -6.1018    0.0000 C   0  0  0  0  0  0  0  0  0  0  0  0
    5.6792   -8.4663    0.0000 C   0  0  0  0  0  0  0  0  0  0  0  0
    7.8226   -6.4038    0.0000 H   0  0  0  0  0  0  0  0  0  0  0  0
  1  2  1  0  0  0  0
  2  3  1  0  0  0  0
  3  4  1  0  0  0  0
  4  5  1  0  0  0  0
  5  6  1  0  0  0  0
  6  7  1  0  0  0  0
  7  8  2  0  0  0  0
  8  9  1  0  0  0  0
  4  9  1  0  0  0  0
  9 10  1  0  0  0  0
  1 10  1  0  0  0  0
  9 11  1  6  0  0  0
  5 12  1  0  0  0  0
  5 13  1  0  0  0  0
  1 14  1  1  0  0  0
  4 15  1  1  0  0  0
M  END
>  <cdx:fragmentId>
10

$$$$
