39596.cdx
  Mrv1902 05222410232D          

 17 18  0  0  0  0            999 V2000
    8.4591   -6.6992    0.0000 O   0  0  0  0  0  0  0  0  0  0  0  0
    9.1736   -6.2867    0.0000 C   0  0  0  0  0  0  0  0  0  0  0  0
    9.1736   -5.4617    0.0000 C   0  0  2  0  0  0  0  0  0  0  0  0
    8.4591   -5.0492    0.0000 C   0  0  0  0  0  0  0  0  0  0  0  0
    7.7447   -5.4617    0.0000 C   0  0  0  0  0  0  0  0  0  0  0  0
    7.7447   -6.2867    0.0000 C   0  0  1  0  0  0  0  0  0  0  0  0
    9.8881   -5.0492    0.0000 O   0  0  0  0  0  0  0  0  0  0  0  0
    7.0302   -6.6992    0.0000 C   0  0  0  0  0  0  0  0  0  0  0  0
    7.0302   -7.5242    0.0000 C   0  0  0  0  0  0  0  0  0  0  0  0
    6.3157   -7.9367    0.0000 C   0  0  0  0  0  0  0  0  0  0  0  0
    5.6013   -7.5242    0.0000 C   0  0  0  0  0  0  0  0  0  0  0  0
    5.6013   -6.6992    0.0000 C   0  0  0  0  0  0  0  0  0  0  0  0
    6.3157   -6.2867    0.0000 C   0  0  0  0  0  0  0  0  0  0  0  0
    4.8868   -7.9367    0.0000 C   0  0  0  0  0  0  0  0  0  0  0  0
    7.7447   -7.1117    0.0000 C   0  0  0  0  0  0  0  0  0  0  0  0
    9.9986   -6.2867    0.0000 C   0  0  0  0  0  0  0  0  0  0  0  0
    9.5861   -7.0011    0.0000 C   0  0  0  0  0  0  0  0  0  0  0  0
  1  2  1  0  0  0  0
  2  3  1  0  0  0  0
  3  4  1  0  0  0  0
  4  5  1  0  0  0  0
  5  6  1  0  0  0  0
  1  6  1  0  0  0  0
  3  7  1  6  0  0  0
  8  9  1  0  0  0  0
  9 10  1  0  0  0  0
 10 11  2  0  0  0  0
 11 12  1  0  0  0  0
 12 13  1  0  0  0  0
  8 13  1  0  0  0  0
 11 14  1  0  0  0  0
  6  8  1  0  0  0  0
  6 15  1  1  0  0  0
  2 16  1  0  0  0  0
  2 17  1  0  0  0  0
M  END
>  <cdx:fragmentId>
23

$$$$
