396.cdx
  Mrv1902 05222410242D          

 20 24  0  0  0  0            999 V2000
    5.5883   -9.4818    0.0000 C   0  0  2  0  0  0  0  0  0  0  0  0
    5.9707  -10.2128    0.0000 C   0  0  2  0  0  0  0  0  0  0  0  0
    6.7841  -10.0751    0.0000 C   0  0  2  0  0  0  0  0  0  0  0  0
    6.9045   -9.2589    0.0000 C   0  0  1  0  0  0  0  0  0  0  0  0
    6.1654   -8.8922    0.0000 C   0  0  2  0  0  0  0  0  0  0  0  0
    7.5915   -8.8023    0.0000 C   0  0  1  0  0  0  0  0  0  0  0  0
    7.5396   -7.9789    0.0000 C   0  0  2  0  0  0  0  0  0  0  0  0
    6.8006   -7.6122    0.0000 C   0  0  1  0  0  0  0  0  0  0  0  0
    6.1135   -8.0689    0.0000 C   0  0  0  0  0  0  0  0  0  0  0  0
    6.5540  -10.7962    0.0000 O   0  0  0  0  0  0  0  0  0  0  0  0
    4.7914   -9.6953    0.0000 C   0  0  0  0  0  0  0  0  0  0  0  0
    5.0049   -8.8984    0.0000 O   0  0  0  0  0  0  0  0  0  0  0  0
    5.4510   -8.4797    0.0000 C   0  0  0  0  0  0  0  0  0  0  0  0
    7.6189   -9.6714    0.0000 O   0  0  0  0  0  0  0  0  0  0  0  0
    7.5150   -7.1997    0.0000 O   0  0  0  0  0  0  0  0  0  0  0  0
    8.3060   -8.3898    0.0000 C   0  0  0  0  0  0  0  0  0  0  0  0
    8.8141   -8.5827    0.0000 O   0  0  0  0  0  0  0  0  0  0  0  0
    8.2541   -7.5664    0.0000 C   0  0  0  0  0  0  0  0  0  0  0  0
    8.8448   -7.8758    0.0000 C   0  0  0  0  0  0  0  0  0  0  0  0
    8.2541   -6.7414    0.0000 C   0  0  0  0  0  0  0  0  0  0  0  0
  1  2  1  0  0  0  0
  2  3  1  0  0  0  0
  3  4  1  0  0  0  0
  4  5  1  0  0  0  0
  5  1  1  0  0  0  0
  4  6  1  0  0  0  0
  6  7  1  0  0  0  0
  7  8  1  0  0  0  0
  8  9  1  0  0  0  0
  9  5  1  0  0  0  0
  2 10  1  6  0  0  0
  3 10  1  6  0  0  0
  1 11  1  1  0  0  0
  1 12  1  6  0  0  0
 11 12  1  0  0  0  0
  5 13  1  6  0  0  0
  4 14  1  6  0  0  0
  8 15  1  1  0  0  0
  6 16  1  1  0  0  0
 16 17  2  0  0  0  0
  7 18  1  6  0  0  0
 16 15  1  0  0  0  0
 18 19  1  0  0  0  0
 18 20  2  0  0  0  0
M  END
>  <cdx:fragmentId>
5

$$$$
