39601.cdx
  Mrv1902 05222410212D          

 13 13  0  0  0  0            999 V2000
    6.6376   -5.8174    0.0000 O   0  0  0  0  0  0  0  0  0  0  0  0
    6.6346   -9.9424    0.0000 C   0  0  0  0  0  0  0  0  0  0  0  0
    7.3493   -9.5304    0.0000 O   0  0  0  0  0  0  0  0  0  0  0  0
    8.0653   -7.4685    0.0000 C   0  0  0  0  0  0  0  0  0  0  0  0
    8.0647   -8.2935    0.0000 C   0  0  0  0  0  0  0  0  0  0  0  0
    7.3499   -8.7054    0.0000 C   0  0  0  0  0  0  0  0  0  0  0  0
    6.6358   -8.2924    0.0000 C   0  0  0  0  0  0  0  0  0  0  0  0
    6.6364   -7.4674    0.0000 C   0  0  0  0  0  0  0  0  0  0  0  0
    7.3512   -7.0554    0.0000 C   0  0  0  0  0  0  0  0  0  0  0  0
    8.7807   -6.2315    0.0000 C   0  0  0  0  0  0  0  0  0  0  0  0
    8.0666   -5.8185    0.0000 C   0  0  1  0  0  0  0  0  0  0  0  0
    7.3518   -6.2304    0.0000 C   0  0  1  0  0  0  0  0  0  0  0  0
    8.0672   -4.9935    0.0000 O   0  0  0  0  0  0  0  0  0  0  0  0
 11 13  1  1  0  0  0
 12  1  1  6  0  0  0
 12  9  1  0  0  0  0
  6  3  1  0  0  0  0
  3  2  1  0  0  0  0
  9  4  2  0  0  0  0
  5  4  1  0  0  0  0
  6  5  2  0  0  0  0
  7  6  1  0  0  0  0
  8  7  2  0  0  0  0
  9  8  1  0  0  0  0
 11 10  1  0  0  0  0
 12 11  1  0  0  0  0
M  END
>  <cdx:fragmentId>
39

$$$$
