39606.cdx
  Mrv1902 05222410232D          

 13 13  0  0  0  0            999 V2000
    6.2773   -5.7601    0.0000 O   0  0  0  0  0  0  0  0  0  0  0  0
    6.9467   -6.2422    0.0000 C   0  0  0  0  0  0  0  0  0  0  0  0
    6.6951   -7.0279    0.0000 C   0  0  0  0  0  0  0  0  0  0  0  0
    5.8701   -7.0313    0.0000 C   0  0  0  0  0  0  0  0  0  0  0  0
    5.6119   -6.2478    0.0000 C   0  0  0  0  0  0  0  0  0  0  0  0
    4.8262   -5.9962    0.0000 O   0  0  0  0  0  0  0  0  0  0  0  0
    9.6336   -3.8521    0.0000 C   0  0  0  0  0  0  0  0  0  0  0  0
    5.3880   -7.7008    0.0000 C   0  0  0  0  0  0  0  0  0  0  0  0
    7.1828   -7.6933    0.0000 C   0  0  0  0  0  0  0  0  0  0  0  0
    8.8501   -4.1103    0.0000 C   0  0  0  0  0  0  0  0  0  0  0  0
    8.6819   -4.9180    0.0000 C   0  0  0  0  0  0  0  0  0  0  0  0
    7.8984   -5.1762    0.0000 C   0  0  0  0  0  0  0  0  0  0  0  0
    7.7303   -5.9839    0.0000 C   0  0  0  0  0  0  0  0  0  0  0  0
 10  7  1  0  0  0  0
 11 10  1  0  0  0  0
 12 11  1  0  0  0  0
 13 12  1  0  0  0  0
  1  2  1  0  0  0  0
  2  3  1  0  0  0  0
  3  4  2  0  0  0  0
  4  5  1  0  0  0  0
  1  5  1  0  0  0  0
  5  6  2  0  0  0  0
  2 13  1  0  0  0  0
  4  8  1  0  0  0  0
  3  9  1  0  0  0  0
M  END
>  <cdx:fragmentId>
35

$$$$
