39608.cdx
  Mrv1902 05222410242D          

 13 13  0  0  0  0            999 V2000
    5.0475   -9.3612    0.0000 C   0  0  0  0  0  0  0  0  0  0  0  0
    6.8418   -9.3146    0.0000 C   0  0  0  0  0  0  0  0  0  0  0  0
    9.2083   -5.4209    0.0000 C   0  0  0  0  0  0  0  0  0  0  0  0
    8.4306   -5.6962    0.0000 C   0  0  0  0  0  0  0  0  0  0  0  0
    8.2801   -6.5073    0.0000 C   0  0  0  0  0  0  0  0  0  0  0  0
    7.5024   -6.7826    0.0000 C   0  0  0  0  0  0  0  0  0  0  0  0
    7.3519   -7.5937    0.0000 C   0  0  0  0  0  0  0  0  0  0  0  0
    4.4487   -7.6692    0.0000 O   0  0  0  0  0  0  0  0  0  0  0  0
    6.5741   -7.8690    0.0000 C   0  0  0  0  0  0  0  0  0  0  0  0
    6.3397   -8.6600    0.0000 C   0  0  0  0  0  0  0  0  0  0  0  0
    5.5150   -8.6814    0.0000 C   0  0  0  0  0  0  0  0  0  0  0  0
    5.2397   -7.9037    0.0000 C   0  0  0  0  0  0  0  0  0  0  0  0
    5.8943   -7.4016    0.0000 O   0  0  0  0  0  0  0  0  0  0  0  0
 11  1  1  0  0  0  0
 10  2  1  0  0  0  0
  9  7  2  0  0  0  0
  4  3  1  0  0  0  0
  5  4  1  0  0  0  0
  6  5  1  0  0  0  0
  7  6  1  0  0  0  0
 12  8  2  0  0  0  0
 13  9  1  0  0  0  0
 10  9  1  0  0  0  0
 11 10  2  0  0  0  0
 12 11  1  0  0  0  0
 13 12  1  0  0  0  0
M  END
>  <cdx:groupId>
82

>  <cdx:fragmentId>
83

$$$$
