39613.cdx
  Mrv1902 05222410222D          

 14 14  0  0  0  0            999 V2000
    9.8796   -7.4292    0.0000 C   0  0  0  0  0  0  0  0  0  0  0  0
    9.1652   -7.0167    0.0000 C   0  0  0  0  0  0  0  0  0  0  0  0
    8.4507   -7.4292    0.0000 C   0  0  0  0  0  0  0  0  0  0  0  0
    7.7362   -7.0167    0.0000 C   0  0  0  0  0  0  0  0  0  0  0  0
    5.8948   -6.3022    0.0000 C   0  0  0  0  0  0  0  0  0  0  0  0
    6.7198   -6.3022    0.0000 C   0  0  0  0  0  0  0  0  0  0  0  0
    7.7362   -8.6667    0.0000 C   0  0  0  0  0  0  0  0  0  0  0  0
    4.8783   -8.6667    0.0000 O   0  0  0  0  0  0  0  0  0  0  0  0
    6.3073   -8.6667    0.0000 C   0  0  0  0  0  0  0  0  0  0  0  0
    5.5928   -8.2542    0.0000 C   0  0  0  0  0  0  0  0  0  0  0  0
    5.5928   -7.4292    0.0000 C   0  0  0  0  0  0  0  0  0  0  0  0
    6.3073   -7.0167    0.0000 C   0  0  0  0  0  0  0  0  0  0  0  0
    7.0218   -7.4292    0.0000 C   0  0  0  0  0  0  0  0  0  0  0  0
    7.0218   -8.2542    0.0000 C   0  0  0  0  0  0  0  0  0  0  0  0
  2  1  1  0  0  0  0
  3  2  2  0  0  0  0
  4  3  1  0  0  0  0
 13  4  2  0  0  0  0
 12  5  1  0  0  0  0
 12  6  1  0  0  0  0
 14  7  1  0  0  0  0
 10  8  2  0  0  0  0
  9 14  2  0  0  0  0
 10  9  1  0  0  0  0
 11 10  1  0  0  0  0
 12 11  1  0  0  0  0
 13 12  1  0  0  0  0
 14 13  1  0  0  0  0
M  END
>  <cdx:fragmentId>
62

$$$$
