39610.cdx
  Mrv1902 05222410222D          

 15 14  0  0  0  0            999 V2000
    4.9175   -6.0161    0.0000 C   0  0  0  0  0  0  0  0  0  0  0  0
    7.7754   -6.0161    0.0000 C   0  0  0  0  0  0  0  0  0  0  0  0
   10.6332   -6.0161    0.0000 C   0  0  0  0  0  0  0  0  0  0  0  0
   11.3477   -7.2536    0.0000 C   0  0  0  0  0  0  0  0  0  0  0  0
   10.6332   -6.8411    0.0000 C   0  0  0  0  0  0  0  0  0  0  0  0
    9.9188   -7.2536    0.0000 C   0  0  0  0  0  0  0  0  0  0  0  0
    9.2043   -6.8411    0.0000 C   0  0  0  0  0  0  0  0  0  0  0  0
    8.4898   -7.2536    0.0000 C   0  0  0  0  0  0  0  0  0  0  0  0
    7.7754   -6.8411    0.0000 C   0  0  0  0  0  0  0  0  0  0  0  0
    7.0609   -7.2536    0.0000 C   0  0  0  0  0  0  0  0  0  0  0  0
    6.3464   -6.8411    0.0000 C   0  0  0  0  0  0  0  0  0  0  0  0
    5.6320   -7.2536    0.0000 C   0  0  0  0  0  0  0  0  0  0  0  0
    4.9175   -6.8411    0.0000 C   0  0  0  0  0  0  0  0  0  0  0  0
    4.2030   -7.2536    0.0000 C   0  0  0  0  0  0  0  0  0  0  0  0
    3.4885   -6.8411    0.0000 C   0  0  0  0  0  0  0  0  0  0  0  0
 13  1  1  0  0  0  0
  9  2  1  0  0  0  0
  5  3  1  0  0  0  0
  5  4  1  0  0  0  0
  6  5  2  0  0  0  0
  7  6  1  0  0  0  0
  8  7  1  0  0  0  0
  9  8  1  0  0  0  0
 10  9  1  0  0  0  0
 11 10  1  0  0  0  0
 12 11  2  0  0  0  0
 13 12  1  0  0  0  0
 14 13  2  0  0  0  0
 15 14  1  0  0  0  0
M  END
>  <cdx:fragmentId>
9

$$$$
