39616.cdx
  Mrv1902 05222410202D          

 18 17  0  0  0  0            999 V2000
    6.6143   -7.0388    0.0000 C   0  0  0  0  0  0  0  0  0  0  0  0
    5.8998   -7.4513    0.0000 C   0  0  0  0  0  0  0  0  0  0  0  0
    5.1853   -7.0388    0.0000 C   0  0  0  0  0  0  0  0  0  0  0  0
    4.4709   -7.4513    0.0000 C   0  0  0  0  0  0  0  0  0  0  0  0
    3.7564   -7.0388    0.0000 C   0  0  0  0  0  0  0  0  0  0  0  0
    3.0419   -7.4513    0.0000 C   0  0  0  0  0  0  0  0  0  0  0  0
    2.3275   -7.0388    0.0000 C   0  0  0  0  0  0  0  0  0  0  0  0
    1.6130   -7.4513    0.0000 C   0  0  0  0  0  0  0  0  0  0  0  0
    6.6143   -6.2138    0.0000 O   0  0  0  0  0  0  0  0  0  0  0  0
    7.3288   -7.4513    0.0000 O   0  0  0  0  0  0  0  0  0  0  0  0
    8.0432   -7.0388    0.0000 C   0  0  0  0  0  0  0  0  0  0  0  0
    8.7577   -7.4513    0.0000 C   0  0  0  0  0  0  0  0  0  0  0  0
    9.4722   -7.0388    0.0000 C   0  0  0  0  0  0  0  0  0  0  0  0
   10.1866   -7.4513    0.0000 C   0  0  0  0  0  0  0  0  0  0  0  0
   10.9011   -7.0388    0.0000 C   0  0  0  0  0  0  0  0  0  0  0  0
   11.6156   -7.4513    0.0000 C   0  0  0  0  0  0  0  0  0  0  0  0
   12.3301   -7.0388    0.0000 C   0  0  0  0  0  0  0  0  0  0  0  0
   13.0445   -7.4513    0.0000 C   0  0  0  0  0  0  0  0  0  0  0  0
  1  2  1  0  0  0  0
  2  3  1  0  0  0  0
  3  4  1  0  0  0  0
  4  5  1  0  0  0  0
  5  6  1  0  0  0  0
  6  7  1  0  0  0  0
  7  8  1  0  0  0  0
  1  9  2  0  0  0  0
  1 10  1  0  0  0  0
 11 12  1  0  0  0  0
 12 13  1  0  0  0  0
 13 14  1  0  0  0  0
 14 15  1  0  0  0  0
 15 16  1  0  0  0  0
 16 17  1  0  0  0  0
 17 18  1  0  0  0  0
 10 11  1  0  0  0  0
M  END
>  <cdx:fragmentId>
9

$$$$
