39622.cdx
  Mrv1902 05222410232D          

 25 24  0  0  0  0            999 V2000
    5.8223   -9.8179    0.0000 C   0  0  0  0  0  0  0  0  0  0  0  0
   22.2552   -9.4054    0.0000 C   0  0  0  0  0  0  0  0  0  0  0  0
   21.5407   -9.8179    0.0000 C   0  0  0  0  0  0  0  0  0  0  0  0
   20.8262   -9.4054    0.0000 C   0  0  0  0  0  0  0  0  0  0  0  0
   20.1118   -9.8179    0.0000 C   0  0  0  0  0  0  0  0  0  0  0  0
   19.3973   -9.4054    0.0000 C   0  0  0  0  0  0  0  0  0  0  0  0
   18.6828   -9.8179    0.0000 C   0  0  0  0  0  0  0  0  0  0  0  0
   17.9683   -9.4054    0.0000 C   0  0  0  0  0  0  0  0  0  0  0  0
   17.2539   -9.8179    0.0000 C   0  0  0  0  0  0  0  0  0  0  0  0
   16.5394   -9.4054    0.0000 C   0  0  0  0  0  0  0  0  0  0  0  0
   15.8249   -9.8179    0.0000 C   0  0  0  0  0  0  0  0  0  0  0  0
   15.1105   -9.4054    0.0000 C   0  0  0  0  0  0  0  0  0  0  0  0
   14.3960   -9.8179    0.0000 C   0  0  0  0  0  0  0  0  0  0  0  0
   13.6815   -9.4054    0.0000 C   0  0  0  0  0  0  0  0  0  0  0  0
   12.9670   -9.8179    0.0000 C   0  0  0  0  0  0  0  0  0  0  0  0
   12.2526   -9.4054    0.0000 C   0  0  0  0  0  0  0  0  0  0  0  0
   11.5381   -9.8179    0.0000 C   0  0  0  0  0  0  0  0  0  0  0  0
   10.8236   -9.4054    0.0000 C   0  0  0  0  0  0  0  0  0  0  0  0
   10.1092   -9.8179    0.0000 C   0  0  0  0  0  0  0  0  0  0  0  0
    9.3947   -9.4054    0.0000 C   0  0  0  0  0  0  0  0  0  0  0  0
    8.6802   -9.8179    0.0000 C   0  0  0  0  0  0  0  0  0  0  0  0
    7.9658   -9.4054    0.0000 C   0  0  0  0  0  0  0  0  0  0  0  0
    7.2513   -9.8179    0.0000 C   0  0  0  0  0  0  0  0  0  0  0  0
    6.5368   -9.4054    0.0000 C   0  0  0  0  0  0  0  0  0  0  0  0
    6.5368   -8.5804    0.0000 C   0  0  0  0  0  0  0  0  0  0  0  0
 24  1  1  0  0  0  0
  3  2  1  0  0  0  0
  4  3  1  0  0  0  0
  5  4  1  0  0  0  0
  6  5  1  0  0  0  0
  7  6  1  0  0  0  0
  8  7  1  0  0  0  0
  9  8  1  0  0  0  0
 10  9  1  0  0  0  0
 11 10  1  0  0  0  0
 12 11  1  0  0  0  0
 13 12  1  0  0  0  0
 14 13  1  0  0  0  0
 15 14  1  0  0  0  0
 16 15  1  0  0  0  0
 17 16  1  0  0  0  0
 18 17  1  0  0  0  0
 19 18  1  0  0  0  0
 20 19  1  0  0  0  0
 21 20  1  0  0  0  0
 22 21  1  0  0  0  0
 23 22  1  0  0  0  0
 24 23  1  0  0  0  0
 25 24  1  0  0  0  0
M  END
>  <cdx:fragmentId>
9

$$$$
