39621.cdx
  Mrv1902 05222410242D          

 23 22  0  0  0  0            999 V2000
    7.2307   -7.6453    0.0000 O   0  0  0  0  0  0  0  0  0  0  0  0
   21.5201   -8.4703    0.0000 C   0  0  0  0  0  0  0  0  0  0  0  0
   20.8056   -8.8828    0.0000 C   0  0  0  0  0  0  0  0  0  0  0  0
   20.0911   -8.4703    0.0000 C   0  0  0  0  0  0  0  0  0  0  0  0
   19.3767   -8.8828    0.0000 C   0  0  0  0  0  0  0  0  0  0  0  0
   18.6622   -8.4703    0.0000 C   0  0  0  0  0  0  0  0  0  0  0  0
   17.9477   -8.8828    0.0000 C   0  0  0  0  0  0  0  0  0  0  0  0
   17.2332   -8.4703    0.0000 C   0  0  0  0  0  0  0  0  0  0  0  0
   16.5188   -8.8828    0.0000 C   0  0  0  0  0  0  0  0  0  0  0  0
   15.8043   -8.4703    0.0000 C   0  0  0  0  0  0  0  0  0  0  0  0
   15.0898   -8.8828    0.0000 C   0  0  0  0  0  0  0  0  0  0  0  0
   14.3754   -8.4703    0.0000 C   0  0  0  0  0  0  0  0  0  0  0  0
   13.6609   -8.8828    0.0000 C   0  0  0  0  0  0  0  0  0  0  0  0
   12.9464   -8.4703    0.0000 C   0  0  0  0  0  0  0  0  0  0  0  0
   12.2320   -8.8828    0.0000 C   0  0  0  0  0  0  0  0  0  0  0  0
   11.5175   -8.4703    0.0000 C   0  0  0  0  0  0  0  0  0  0  0  0
   10.8030   -8.8828    0.0000 C   0  0  0  0  0  0  0  0  0  0  0  0
   10.0885   -8.4703    0.0000 C   0  0  0  0  0  0  0  0  0  0  0  0
    9.3741   -8.8828    0.0000 C   0  0  0  0  0  0  0  0  0  0  0  0
    8.6596   -8.4703    0.0000 C   0  0  0  0  0  0  0  0  0  0  0  0
    7.9451   -8.8828    0.0000 C   0  0  0  0  0  0  0  0  0  0  0  0
    7.2307   -8.4703    0.0000 C   0  0  0  0  0  0  0  0  0  0  0  0
    6.5162   -8.8828    0.0000 C   0  0  0  0  0  0  0  0  0  0  0  0
 22  1  2  0  0  0  0
  3  2  1  0  0  0  0
  4  3  1  0  0  0  0
  5  4  1  0  0  0  0
  6  5  1  0  0  0  0
  7  6  1  0  0  0  0
  8  7  1  0  0  0  0
  9  8  1  0  0  0  0
 10  9  1  0  0  0  0
 11 10  1  0  0  0  0
 12 11  1  0  0  0  0
 13 12  1  0  0  0  0
 14 13  1  0  0  0  0
 15 14  1  0  0  0  0
 16 15  1  0  0  0  0
 17 16  1  0  0  0  0
 18 17  1  0  0  0  0
 19 18  1  0  0  0  0
 20 19  1  0  0  0  0
 21 20  1  0  0  0  0
 22 21  1  0  0  0  0
 23 22  1  0  0  0  0
M  END
>  <cdx:fragmentId>
9

$$$$
