39623.cdx
  Mrv1902 05222410232D          

 25 24  0  0  0  0            999 V2000
    5.7814   -9.3122    0.0000 C   0  0  0  0  0  0  0  0  0  0  0  0
    6.4958   -8.8997    0.0000 C   0  0  0  0  0  0  0  0  0  0  0  0
    7.2103   -9.3122    0.0000 C   0  0  0  0  0  0  0  0  0  0  0  0
    7.9248   -8.8997    0.0000 C   0  0  0  0  0  0  0  0  0  0  0  0
    8.6392   -9.3122    0.0000 C   0  0  0  0  0  0  0  0  0  0  0  0
    9.3537   -8.8997    0.0000 C   0  0  0  0  0  0  0  0  0  0  0  0
   10.0682   -9.3122    0.0000 C   0  0  0  0  0  0  0  0  0  0  0  0
   10.7827   -8.8997    0.0000 C   0  0  0  0  0  0  0  0  0  0  0  0
   11.4971   -9.3122    0.0000 C   0  0  0  0  0  0  0  0  0  0  0  0
   12.2116   -8.8997    0.0000 C   0  0  0  0  0  0  0  0  0  0  0  0
   12.9261   -9.3122    0.0000 C   0  0  0  0  0  0  0  0  0  0  0  0
   13.6405   -8.8997    0.0000 C   0  0  0  0  0  0  0  0  0  0  0  0
   14.3550   -9.3122    0.0000 C   0  0  0  0  0  0  0  0  0  0  0  0
   15.0695   -8.8997    0.0000 C   0  0  0  0  0  0  0  0  0  0  0  0
   15.7839   -9.3122    0.0000 C   0  0  0  0  0  0  0  0  0  0  0  0
   16.4984   -8.8997    0.0000 C   0  0  0  0  0  0  0  0  0  0  0  0
   17.2129   -9.3122    0.0000 C   0  0  0  0  0  0  0  0  0  0  0  0
   17.9274   -8.8997    0.0000 C   0  0  0  0  0  0  0  0  0  0  0  0
   18.6418   -9.3122    0.0000 C   0  0  0  0  0  0  0  0  0  0  0  0
   19.3563   -8.8997    0.0000 C   0  0  0  0  0  0  0  0  0  0  0  0
   20.0708   -9.3122    0.0000 C   0  0  0  0  0  0  0  0  0  0  0  0
   20.7852   -8.8997    0.0000 C   0  0  0  0  0  0  0  0  0  0  0  0
   21.4997   -9.3122    0.0000 C   0  0  0  0  0  0  0  0  0  0  0  0
   22.2142   -8.8997    0.0000 C   0  0  0  0  0  0  0  0  0  0  0  0
   22.9287   -9.3122    0.0000 C   0  0  0  0  0  0  0  0  0  0  0  0
  1  2  2  0  0  0  0
  2  3  1  0  0  0  0
  3  4  1  0  0  0  0
  4  5  1  0  0  0  0
  5  6  1  0  0  0  0
  6  7  1  0  0  0  0
  7  8  1  0  0  0  0
  8  9  1  0  0  0  0
  9 10  1  0  0  0  0
 10 11  1  0  0  0  0
 11 12  1  0  0  0  0
 12 13  1  0  0  0  0
 13 14  1  0  0  0  0
 14 15  1  0  0  0  0
 15 16  1  0  0  0  0
 16 17  1  0  0  0  0
 17 18  1  0  0  0  0
 18 19  1  0  0  0  0
 19 20  1  0  0  0  0
 20 21  1  0  0  0  0
 21 22  1  0  0  0  0
 22 23  1  0  0  0  0
 23 24  1  0  0  0  0
 24 25  1  0  0  0  0
M  END
>  <cdx:groupId>
80

>  <cdx:fragmentId>
9

$$$$
