39620.cdx
  Mrv1902 05222410242D          

 24 23  0  0  0  0            999 V2000
    7.8904   -8.1541    0.0000 C   0  0  0  0  0  0  0  0  0  0  0  0
   22.1798   -8.9791    0.0000 C   0  0  0  0  0  0  0  0  0  0  0  0
   21.4653   -9.3916    0.0000 C   0  0  0  0  0  0  0  0  0  0  0  0
   20.7509   -8.9791    0.0000 C   0  0  0  0  0  0  0  0  0  0  0  0
   20.0364   -9.3916    0.0000 C   0  0  0  0  0  0  0  0  0  0  0  0
   19.3219   -8.9791    0.0000 C   0  0  0  0  0  0  0  0  0  0  0  0
   18.6075   -9.3916    0.0000 C   0  0  0  0  0  0  0  0  0  0  0  0
   17.8930   -8.9791    0.0000 C   0  0  0  0  0  0  0  0  0  0  0  0
   17.1785   -9.3916    0.0000 C   0  0  0  0  0  0  0  0  0  0  0  0
   16.4640   -8.9791    0.0000 C   0  0  0  0  0  0  0  0  0  0  0  0
   15.7496   -9.3916    0.0000 C   0  0  0  0  0  0  0  0  0  0  0  0
   15.0351   -8.9791    0.0000 C   0  0  0  0  0  0  0  0  0  0  0  0
   14.3206   -9.3916    0.0000 C   0  0  0  0  0  0  0  0  0  0  0  0
   13.6062   -8.9791    0.0000 C   0  0  0  0  0  0  0  0  0  0  0  0
   12.8917   -9.3916    0.0000 C   0  0  0  0  0  0  0  0  0  0  0  0
   12.1772   -8.9791    0.0000 C   0  0  0  0  0  0  0  0  0  0  0  0
   11.4627   -9.3916    0.0000 C   0  0  0  0  0  0  0  0  0  0  0  0
   10.7483   -8.9791    0.0000 C   0  0  0  0  0  0  0  0  0  0  0  0
   10.0338   -9.3916    0.0000 C   0  0  0  0  0  0  0  0  0  0  0  0
    9.3193   -8.9791    0.0000 C   0  0  0  0  0  0  0  0  0  0  0  0
    8.6049   -9.3916    0.0000 C   0  0  0  0  0  0  0  0  0  0  0  0
    7.8904   -8.9791    0.0000 C   0  0  0  0  0  0  0  0  0  0  0  0
    7.1759   -9.3916    0.0000 C   0  0  0  0  0  0  0  0  0  0  0  0
    6.4615   -8.9791    0.0000 C   0  0  0  0  0  0  0  0  0  0  0  0
 22  1  1  0  0  0  0
  3  2  1  0  0  0  0
  4  3  1  0  0  0  0
  5  4  1  0  0  0  0
  6  5  1  0  0  0  0
  7  6  1  0  0  0  0
  8  7  1  0  0  0  0
  9  8  1  0  0  0  0
 10  9  1  0  0  0  0
 11 10  1  0  0  0  0
 12 11  1  0  0  0  0
 13 12  1  0  0  0  0
 14 13  1  0  0  0  0
 15 14  1  0  0  0  0
 16 15  1  0  0  0  0
 17 16  1  0  0  0  0
 18 17  1  0  0  0  0
 19 18  1  0  0  0  0
 20 19  1  0  0  0  0
 21 20  1  0  0  0  0
 22 21  1  0  0  0  0
 23 22  1  0  0  0  0
 24 23  1  0  0  0  0
M  END
>  <cdx:fragmentId>
9

$$$$
