101003962.cdx
  Mrv1902 05222410222D          

 24 24  0  0  0  0            999 V2000
    7.6255  -15.7157    0.0000 C   0  0  0  0  0  0  0  0  0  0  0  0
    6.9110  -16.1282    0.0000 C   0  0  2  0  0  0  0  0  0  0  0  0
    6.1965  -15.7157    0.0000 C   0  0  0  0  0  0  0  0  0  0  0  0
    5.4821  -16.1282    0.0000 C   0  0  0  0  0  0  0  0  0  0  0  0
    7.6255  -14.8907    0.0000 S   0  0  0  0  0  0  0  0  0  0  0  0
    8.3400  -16.1282    0.0000 N   0  0  0  0  0  0  0  0  0  0  0  0
    9.0544  -15.7157    0.0000 O   0  0  0  0  0  0  0  0  0  0  0  0
    9.7689  -16.1282    0.0000 S   0  0  0  0  0  0  0  0  0  0  0  0
   10.1814  -15.4137    0.0000 O   0  0  0  0  0  0  0  0  0  0  0  0
    9.3564  -16.8426    0.0000 O   0  0  0  0  0  0  0  0  0  0  0  0
   10.4834  -16.5407    0.0000 O   0  0  0  0  0  0  0  0  0  0  0  0
    6.9110  -16.9532    0.0000 C   0  0  0  0  0  0  0  0  0  0  0  0
    6.1965  -17.3657    0.0000 O   0  0  0  0  0  0  0  0  0  0  0  0
    6.1965  -14.8907    0.0000 O   0  0  0  0  0  0  0  0  0  0  0  0
    6.9110  -14.4782    0.0000 C   0  0  2  0  0  0  0  0  0  0  0  0
    6.9110  -13.6532    0.0000 C   0  0  1  0  0  0  0  0  0  0  0  0
    6.1965  -13.2407    0.0000 C   0  0  2  0  0  0  0  0  0  0  0  0
    5.4821  -13.6532    0.0000 C   0  0  1  0  0  0  0  0  0  0  0  0
    5.4821  -14.4782    0.0000 C   0  0  1  0  0  0  0  0  0  0  0  0
    4.7676  -14.8907    0.0000 C   0  0  0  0  0  0  0  0  0  0  0  0
    4.0531  -14.4782    0.0000 O   0  0  0  0  0  0  0  0  0  0  0  0
    4.7676  -13.2407    0.0000 O   0  0  0  0  0  0  0  0  0  0  0  0
    6.1965  -12.4157    0.0000 O   0  0  0  0  0  0  0  0  0  0  0  0
    7.6255  -13.2407    0.0000 O   0  0  0  0  0  0  0  0  0  0  0  0
  1  2  1  0  0  0  0
  2  3  1  0  0  0  0
  3  4  1  0  0  0  0
  1  5  1  0  0  0  0
  1  6  2  0  0  0  0
  8  9  2  0  0  0  0
  8 10  2  0  0  0  0
  8 11  1  0  0  0  0
  7  8  1  0  0  0  0
  6  7  1  0  0  0  0
 12 13  1  0  0  0  0
  2 12  1  1  0  0  0
 14 15  1  0  0  0  0
 15 16  1  0  0  0  0
 16 17  1  0  0  0  0
 17 18  1  0  0  0  0
 18 19  1  0  0  0  0
 14 19  1  0  0  0  0
 20 21  1  0  0  0  0
 19 20  1  6  0  0  0
 18 22  1  1  0  0  0
 17 23  1  6  0  0  0
 16 24  1  1  0  0  0
 15  5  1  6  0  0  0
M  END
>  <cdx:groupId>
227665

>  <cdx:fragmentId>
227596

$$$$
