39639.cdx
  Mrv1902 05222410222D          

 26 25  0  0  0  0            999 V2000
    5.1010   -9.5047    0.0000 C   0  0  0  0  0  0  0  0  0  0  0  0
    5.8155   -9.0922    0.0000 C   0  0  0  0  0  0  0  0  0  0  0  0
    6.5299   -9.5047    0.0000 C   0  0  0  0  0  0  0  0  0  0  0  0
    7.2444   -9.0922    0.0000 C   0  0  0  0  0  0  0  0  0  0  0  0
    7.9589   -9.5047    0.0000 C   0  0  0  0  0  0  0  0  0  0  0  0
    8.6733   -9.0922    0.0000 C   0  0  0  0  0  0  0  0  0  0  0  0
    9.3878   -9.5047    0.0000 C   0  0  0  0  0  0  0  0  0  0  0  0
   10.1023   -9.0922    0.0000 C   0  0  0  0  0  0  0  0  0  0  0  0
   10.8168   -9.5047    0.0000 C   0  0  0  0  0  0  0  0  0  0  0  0
   11.5312   -9.0922    0.0000 C   0  0  0  0  0  0  0  0  0  0  0  0
   12.2457   -9.5047    0.0000 C   0  0  0  0  0  0  0  0  0  0  0  0
   12.9602   -9.0922    0.0000 C   0  0  0  0  0  0  0  0  0  0  0  0
   13.6746   -9.5047    0.0000 C   0  0  0  0  0  0  0  0  0  0  0  0
   14.3891   -9.0922    0.0000 C   0  0  0  0  0  0  0  0  0  0  0  0
   15.1036   -9.5047    0.0000 C   0  0  0  0  0  0  0  0  0  0  0  0
   15.8181   -9.0922    0.0000 C   0  0  0  0  0  0  0  0  0  0  0  0
   16.5325   -9.5047    0.0000 C   0  0  0  0  0  0  0  0  0  0  0  0
   17.2470   -9.0922    0.0000 C   0  0  0  0  0  0  0  0  0  0  0  0
   17.9615   -9.5047    0.0000 C   0  0  0  0  0  0  0  0  0  0  0  0
   18.6759   -9.0922    0.0000 C   0  0  0  0  0  0  0  0  0  0  0  0
   19.3904   -9.5047    0.0000 C   0  0  0  0  0  0  0  0  0  0  0  0
   20.1049   -9.0922    0.0000 C   0  0  0  0  0  0  0  0  0  0  0  0
   20.8194   -9.5047    0.0000 C   0  0  0  0  0  0  0  0  0  0  0  0
   21.5338   -9.0922    0.0000 C   0  0  0  0  0  0  0  0  0  0  0  0
   22.2483   -9.5047    0.0000 C   0  0  0  0  0  0  0  0  0  0  0  0
   22.9628   -9.0922    0.0000 C   0  0  0  0  0  0  0  0  0  0  0  0
  1  2  2  0  0  0  0
  2  3  1  0  0  0  0
  3  4  1  0  0  0  0
  4  5  1  0  0  0  0
  5  6  1  0  0  0  0
  6  7  1  0  0  0  0
  7  8  1  0  0  0  0
  8  9  1  0  0  0  0
  9 10  1  0  0  0  0
 10 11  1  0  0  0  0
 11 12  1  0  0  0  0
 12 13  1  0  0  0  0
 13 14  1  0  0  0  0
 14 15  1  0  0  0  0
 15 16  1  0  0  0  0
 16 17  1  0  0  0  0
 17 18  1  0  0  0  0
 18 19  1  0  0  0  0
 19 20  1  0  0  0  0
 20 21  1  0  0  0  0
 21 22  1  0  0  0  0
 22 23  1  0  0  0  0
 23 24  1  0  0  0  0
 24 25  1  0  0  0  0
 25 26  1  0  0  0  0
M  END
>  <cdx:groupId>
242

>  <cdx:fragmentId>
9

$$$$
