39637.cdx
  Mrv1902 05222410232D          

  9  9  0  0  0  0            999 V2000
    9.0436   -6.6997    0.0000 C   0  0  0  0  0  0  0  0  0  0  0  0
    8.3291   -6.2872    0.0000 C   0  0  0  0  0  0  0  0  0  0  0  0
    7.6147   -6.6997    0.0000 C   0  0  0  0  0  0  0  0  0  0  0  0
    6.9002   -6.2872    0.0000 C   0  0  0  0  0  0  0  0  0  0  0  0
    6.1857   -6.6997    0.0000 C   0  0  0  0  0  0  0  0  0  0  0  0
    5.4712   -6.2872    0.0000 C   0  0  0  0  0  0  0  0  0  0  0  0
    5.4712   -5.4622    0.0000 C   0  0  0  0  0  0  0  0  0  0  0  0
    6.1857   -5.0497    0.0000 C   0  0  0  0  0  0  0  0  0  0  0  0
    6.9002   -5.4622    0.0000 C   0  0  0  0  0  0  0  0  0  0  0  0
  1  2  2  0  0  0  0
  2  3  1  0  0  0  0
  4  5  1  0  0  0  0
  5  6  2  0  0  0  0
  6  7  1  0  0  0  0
  7  8  2  0  0  0  0
  8  9  1  0  0  0  0
  4  9  2  0  0  0  0
  3  4  1  0  0  0  0
M  END
>  <cdx:groupId>
41

>  <cdx:fragmentId>
42

$$$$
