39634.cdx
  Mrv1902 05222410242D          

 11 11  0  0  0  0            999 V2000
    4.9009   -5.2991    0.0000 C   0  0  0  0  0  0  0  0  0  0  0  0
    5.6154   -4.8866    0.0000 O   0  0  0  0  0  0  0  0  0  0  0  0
    6.3298   -5.2991    0.0000 C   0  0  0  0  0  0  0  0  0  0  0  0
    7.0443   -4.8866    0.0000 C   0  0  0  0  0  0  0  0  0  0  0  0
    7.7588   -5.2991    0.0000 C   0  0  0  0  0  0  0  0  0  0  0  0
    7.7588   -6.1241    0.0000 C   0  0  0  0  0  0  0  0  0  0  0  0
    8.4732   -6.5366    0.0000 C   0  0  0  0  0  0  0  0  0  0  0  0
    9.1877   -6.1241    0.0000 C   0  0  0  0  0  0  0  0  0  0  0  0
    9.1877   -5.2991    0.0000 C   0  0  0  0  0  0  0  0  0  0  0  0
    7.0443   -6.5366    0.0000 C   0  0  0  0  0  0  0  0  0  0  0  0
    6.3298   -6.1241    0.0000 C   0  0  0  0  0  0  0  0  0  0  0  0
  1  2  1  0  0  0  0
  2  3  1  0  0  0  0
  3  4  1  0  0  0  0
  4  5  2  0  0  0  0
  5  6  1  0  0  0  0
  6  7  1  0  0  0  0
  7  8  2  0  0  0  0
  8  9  1  0  0  0  0
  6 10  2  0  0  0  0
 10 11  1  0  0  0  0
  3 11  2  0  0  0  0
M  END
>  <cdx:fragmentId>
9

$$$$
