39643.cdx
  Mrv1902 05222410262D          

 29 28  0  0  0  0            999 V2000
    5.0603   -9.6048    0.0000 C   0  0  0  0  0  0  0  0  0  0  0  0
   24.3510   -9.1923    0.0000 C   0  0  0  0  0  0  0  0  0  0  0  0
   23.6365   -9.6048    0.0000 C   0  0  0  0  0  0  0  0  0  0  0  0
   22.9220   -9.1923    0.0000 C   0  0  0  0  0  0  0  0  0  0  0  0
   22.2076   -9.6048    0.0000 C   0  0  0  0  0  0  0  0  0  0  0  0
   21.4931   -9.1923    0.0000 C   0  0  0  0  0  0  0  0  0  0  0  0
   20.7786   -9.6048    0.0000 C   0  0  0  0  0  0  0  0  0  0  0  0
   20.0642   -9.1923    0.0000 C   0  0  0  0  0  0  0  0  0  0  0  0
   19.3497   -9.6048    0.0000 C   0  0  0  0  0  0  0  0  0  0  0  0
   18.6352   -9.1923    0.0000 C   0  0  0  0  0  0  0  0  0  0  0  0
   17.9207   -9.6048    0.0000 C   0  0  0  0  0  0  0  0  0  0  0  0
   17.2063   -9.1923    0.0000 C   0  0  0  0  0  0  0  0  0  0  0  0
   16.4918   -9.6048    0.0000 C   0  0  0  0  0  0  0  0  0  0  0  0
   15.7773   -9.1923    0.0000 C   0  0  0  0  0  0  0  0  0  0  0  0
   15.0629   -9.6048    0.0000 C   0  0  0  0  0  0  0  0  0  0  0  0
   14.3484   -9.1923    0.0000 C   0  0  0  0  0  0  0  0  0  0  0  0
   13.6339   -9.6048    0.0000 C   0  0  0  0  0  0  0  0  0  0  0  0
   12.9195   -9.1923    0.0000 C   0  0  0  0  0  0  0  0  0  0  0  0
   12.2050   -9.6048    0.0000 C   0  0  0  0  0  0  0  0  0  0  0  0
   11.4905   -9.1923    0.0000 C   0  0  0  0  0  0  0  0  0  0  0  0
   10.7760   -9.6048    0.0000 C   0  0  0  0  0  0  0  0  0  0  0  0
   10.0616   -9.1923    0.0000 C   0  0  0  0  0  0  0  0  0  0  0  0
    9.3471   -9.6048    0.0000 C   0  0  0  0  0  0  0  0  0  0  0  0
    8.6326   -9.1923    0.0000 C   0  0  0  0  0  0  0  0  0  0  0  0
    7.9182   -9.6048    0.0000 C   0  0  0  0  0  0  0  0  0  0  0  0
    7.2037   -9.1923    0.0000 C   0  0  0  0  0  0  0  0  0  0  0  0
    6.4892   -9.6048    0.0000 C   0  0  0  0  0  0  0  0  0  0  0  0
    5.7747   -9.1923    0.0000 C   0  0  0  0  0  0  0  0  0  0  0  0
    5.7747   -8.3673    0.0000 C   0  0  0  0  0  0  0  0  0  0  0  0
 28  1  1  0  0  0  0
  3  2  1  0  0  0  0
  4  3  1  0  0  0  0
  5  4  1  0  0  0  0
  6  5  1  0  0  0  0
  7  6  1  0  0  0  0
  8  7  1  0  0  0  0
  9  8  1  0  0  0  0
 10  9  1  0  0  0  0
 11 10  1  0  0  0  0
 12 11  1  0  0  0  0
 13 12  1  0  0  0  0
 14 13  1  0  0  0  0
 15 14  1  0  0  0  0
 16 15  1  0  0  0  0
 17 16  1  0  0  0  0
 18 17  1  0  0  0  0
 19 18  1  0  0  0  0
 20 19  1  0  0  0  0
 21 20  1  0  0  0  0
 22 21  1  0  0  0  0
 23 22  1  0  0  0  0
 24 23  1  0  0  0  0
 25 24  1  0  0  0  0
 26 25  1  0  0  0  0
 27 26  1  0  0  0  0
 28 27  1  0  0  0  0
 29 28  1  0  0  0  0
M  END
>  <cdx:fragmentId>
1536

$$$$
