39645.cdx
  Mrv1902 05222410282D          

 30 29  0  0  0  0            999 V2000
    3.0052   -9.0029    0.0000 C   0  0  0  0  0  0  0  0  0  0  0  0
    3.7196   -8.5904    0.0000 C   0  0  0  0  0  0  0  0  0  0  0  0
    4.4341   -9.0029    0.0000 C   0  0  0  0  0  0  0  0  0  0  0  0
    5.1486   -8.5904    0.0000 C   0  0  0  0  0  0  0  0  0  0  0  0
    5.8631   -9.0029    0.0000 C   0  0  0  0  0  0  0  0  0  0  0  0
    6.5775   -8.5904    0.0000 C   0  0  0  0  0  0  0  0  0  0  0  0
    7.2920   -9.0029    0.0000 C   0  0  0  0  0  0  0  0  0  0  0  0
    8.0065   -8.5904    0.0000 C   0  0  0  0  0  0  0  0  0  0  0  0
    8.7209   -9.0029    0.0000 C   0  0  0  0  0  0  0  0  0  0  0  0
    9.4354   -8.5904    0.0000 C   0  0  0  0  0  0  0  0  0  0  0  0
   10.1499   -9.0029    0.0000 C   0  0  0  0  0  0  0  0  0  0  0  0
   10.8644   -8.5904    0.0000 C   0  0  0  0  0  0  0  0  0  0  0  0
   11.5788   -9.0029    0.0000 C   0  0  0  0  0  0  0  0  0  0  0  0
   12.2933   -8.5904    0.0000 C   0  0  0  0  0  0  0  0  0  0  0  0
   13.0078   -9.0029    0.0000 C   0  0  0  0  0  0  0  0  0  0  0  0
   13.7222   -8.5904    0.0000 C   0  0  0  0  0  0  0  0  0  0  0  0
   14.4367   -9.0029    0.0000 C   0  0  0  0  0  0  0  0  0  0  0  0
   15.1512   -8.5904    0.0000 C   0  0  0  0  0  0  0  0  0  0  0  0
   15.8657   -9.0029    0.0000 C   0  0  0  0  0  0  0  0  0  0  0  0
   16.5801   -8.5904    0.0000 C   0  0  0  0  0  0  0  0  0  0  0  0
   17.2946   -9.0029    0.0000 C   0  0  0  0  0  0  0  0  0  0  0  0
   18.0091   -8.5904    0.0000 C   0  0  0  0  0  0  0  0  0  0  0  0
   18.7235   -9.0029    0.0000 C   0  0  0  0  0  0  0  0  0  0  0  0
   19.4380   -8.5904    0.0000 C   0  0  0  0  0  0  0  0  0  0  0  0
   20.1525   -9.0029    0.0000 C   0  0  0  0  0  0  0  0  0  0  0  0
   20.8670   -8.5904    0.0000 C   0  0  0  0  0  0  0  0  0  0  0  0
   21.5814   -9.0029    0.0000 C   0  0  0  0  0  0  0  0  0  0  0  0
   22.2959   -8.5904    0.0000 C   0  0  0  0  0  0  0  0  0  0  0  0
   23.0104   -9.0029    0.0000 C   0  0  0  0  0  0  0  0  0  0  0  0
   23.7248   -8.5904    0.0000 C   0  0  0  0  0  0  0  0  0  0  0  0
  1  2  2  0  0  0  0
  2  3  1  0  0  0  0
  3  4  1  0  0  0  0
  4  5  1  0  0  0  0
  5  6  1  0  0  0  0
  6  7  1  0  0  0  0
  7  8  1  0  0  0  0
  8  9  1  0  0  0  0
  9 10  1  0  0  0  0
 10 11  1  0  0  0  0
 11 12  1  0  0  0  0
 12 13  1  0  0  0  0
 13 14  1  0  0  0  0
 14 15  1  0  0  0  0
 15 16  1  0  0  0  0
 16 17  1  0  0  0  0
 17 18  1  0  0  0  0
 18 19  1  0  0  0  0
 19 20  1  0  0  0  0
 20 21  1  0  0  0  0
 21 22  1  0  0  0  0
 22 23  1  0  0  0  0
 23 24  1  0  0  0  0
 24 25  1  0  0  0  0
 25 26  1  0  0  0  0
 26 27  1  0  0  0  0
 27 28  1  0  0  0  0
 28 29  1  0  0  0  0
 29 30  1  0  0  0  0
M  END
>  <cdx:groupId>
101

>  <cdx:fragmentId>
9

$$$$
