39646.cdx
  Mrv1902 05222410272D          

 30 29  0  0  0  0            999 V2000
    5.8369   -9.4313    0.0000 C   0  0  0  0  0  0  0  0  0  0  0  0
    5.1224   -9.8438    0.0000 C   0  0  0  0  0  0  0  0  0  0  0  0
    5.8369   -8.6063    0.0000 O   0  0  0  0  0  0  0  0  0  0  0  0
    6.5514   -9.8438    0.0000 O   0  0  0  0  0  0  0  0  0  0  0  0
    7.2658   -9.4313    0.0000 C   0  0  0  0  0  0  0  0  0  0  0  0
    7.9803   -9.8438    0.0000 C   0  0  0  0  0  0  0  0  0  0  0  0
    8.6948   -9.4313    0.0000 C   0  0  0  0  0  0  0  0  0  0  0  0
    9.4092   -9.8438    0.0000 C   0  0  0  0  0  0  0  0  0  0  0  0
   10.1237   -9.4313    0.0000 C   0  0  0  0  0  0  0  0  0  0  0  0
   10.8382   -9.8438    0.0000 C   0  0  0  0  0  0  0  0  0  0  0  0
   11.5527   -9.4313    0.0000 C   0  0  0  0  0  0  0  0  0  0  0  0
   12.2671   -9.8438    0.0000 C   0  0  0  0  0  0  0  0  0  0  0  0
   12.9816   -9.4313    0.0000 C   0  0  0  0  0  0  0  0  0  0  0  0
   13.6961   -9.8438    0.0000 C   0  0  0  0  0  0  0  0  0  0  0  0
   14.4105   -9.4313    0.0000 C   0  0  0  0  0  0  0  0  0  0  0  0
   15.1250   -9.8438    0.0000 C   0  0  0  0  0  0  0  0  0  0  0  0
   15.8395   -9.4313    0.0000 C   0  0  0  0  0  0  0  0  0  0  0  0
   16.5539   -9.8438    0.0000 C   0  0  0  0  0  0  0  0  0  0  0  0
   17.2684   -9.4313    0.0000 C   0  0  0  0  0  0  0  0  0  0  0  0
   17.9829   -9.8438    0.0000 C   0  0  0  0  0  0  0  0  0  0  0  0
   18.6974   -9.4313    0.0000 C   0  0  0  0  0  0  0  0  0  0  0  0
   19.4118   -9.8438    0.0000 C   0  0  0  0  0  0  0  0  0  0  0  0
   20.1263   -9.4313    0.0000 C   0  0  0  0  0  0  0  0  0  0  0  0
   20.8408   -9.8438    0.0000 C   0  0  0  0  0  0  0  0  0  0  0  0
   21.5552   -9.4313    0.0000 C   0  0  0  0  0  0  0  0  0  0  0  0
   22.2697   -9.8438    0.0000 C   0  0  0  0  0  0  0  0  0  0  0  0
   22.9842   -9.4313    0.0000 C   0  0  0  0  0  0  0  0  0  0  0  0
   23.6987   -9.8438    0.0000 C   0  0  0  0  0  0  0  0  0  0  0  0
   24.4131   -9.4313    0.0000 C   0  0  0  0  0  0  0  0  0  0  0  0
   25.1276   -9.8438    0.0000 C   0  0  0  0  0  0  0  0  0  0  0  0
  1  2  1  0  0  0  0
  1  3  2  0  0  0  0
  1  4  1  0  0  0  0
  5  6  1  0  0  0  0
  6  7  1  0  0  0  0
  7  8  1  0  0  0  0
  8  9  1  0  0  0  0
  9 10  1  0  0  0  0
 10 11  1  0  0  0  0
 11 12  1  0  0  0  0
 12 13  1  0  0  0  0
 13 14  1  0  0  0  0
 14 15  1  0  0  0  0
 15 16  1  0  0  0  0
 16 17  1  0  0  0  0
 17 18  1  0  0  0  0
 18 19  1  0  0  0  0
 19 20  1  0  0  0  0
 20 21  1  0  0  0  0
 21 22  1  0  0  0  0
 22 23  1  0  0  0  0
 23 24  1  0  0  0  0
 24 25  1  0  0  0  0
 25 26  1  0  0  0  0
 26 27  1  0  0  0  0
 27 28  1  0  0  0  0
 28 29  1  0  0  0  0
 29 30  1  0  0  0  0
  4  5  1  0  0  0  0
M  END
>  <cdx:groupId>
95

>  <cdx:fragmentId>
17

$$$$
