39644.cdx
  Mrv1902 05222410282D          

 30 29  0  0  0  0            999 V2000
    6.2970   -7.1779    0.0000 C   0  0  0  0  0  0  0  0  0  0  0  0
   24.8732   -8.0029    0.0000 C   0  0  0  0  0  0  0  0  0  0  0  0
   24.1588   -8.4154    0.0000 C   0  0  0  0  0  0  0  0  0  0  0  0
   23.4443   -8.0029    0.0000 C   0  0  0  0  0  0  0  0  0  0  0  0
   22.7298   -8.4154    0.0000 C   0  0  0  0  0  0  0  0  0  0  0  0
   22.0153   -8.0029    0.0000 C   0  0  0  0  0  0  0  0  0  0  0  0
   21.3009   -8.4154    0.0000 C   0  0  0  0  0  0  0  0  0  0  0  0
   20.5864   -8.0029    0.0000 C   0  0  0  0  0  0  0  0  0  0  0  0
   19.8719   -8.4154    0.0000 C   0  0  0  0  0  0  0  0  0  0  0  0
   19.1575   -8.0029    0.0000 C   0  0  0  0  0  0  0  0  0  0  0  0
   18.4430   -8.4154    0.0000 C   0  0  0  0  0  0  0  0  0  0  0  0
   17.7285   -8.0029    0.0000 C   0  0  0  0  0  0  0  0  0  0  0  0
   17.0140   -8.4154    0.0000 C   0  0  0  0  0  0  0  0  0  0  0  0
   16.2996   -8.0029    0.0000 C   0  0  0  0  0  0  0  0  0  0  0  0
   15.5851   -8.4154    0.0000 C   0  0  0  0  0  0  0  0  0  0  0  0
   14.8706   -8.0029    0.0000 C   0  0  0  0  0  0  0  0  0  0  0  0
   14.1562   -8.4154    0.0000 C   0  0  0  0  0  0  0  0  0  0  0  0
   13.4417   -8.0029    0.0000 C   0  0  0  0  0  0  0  0  0  0  0  0
   12.7272   -8.4154    0.0000 C   0  0  0  0  0  0  0  0  0  0  0  0
   12.0127   -8.0029    0.0000 C   0  0  0  0  0  0  0  0  0  0  0  0
   11.2983   -8.4154    0.0000 C   0  0  0  0  0  0  0  0  0  0  0  0
   10.5838   -8.0029    0.0000 C   0  0  0  0  0  0  0  0  0  0  0  0
    9.8693   -8.4154    0.0000 C   0  0  0  0  0  0  0  0  0  0  0  0
    9.1549   -8.0029    0.0000 C   0  0  0  0  0  0  0  0  0  0  0  0
    8.4404   -8.4154    0.0000 C   0  0  0  0  0  0  0  0  0  0  0  0
    7.7259   -8.0029    0.0000 C   0  0  0  0  0  0  0  0  0  0  0  0
    7.0115   -8.4154    0.0000 C   0  0  0  0  0  0  0  0  0  0  0  0
    6.2970   -8.0029    0.0000 C   0  0  0  0  0  0  0  0  0  0  0  0
    5.5825   -8.4154    0.0000 C   0  0  0  0  0  0  0  0  0  0  0  0
    4.8680   -8.0029    0.0000 C   0  0  0  0  0  0  0  0  0  0  0  0
 28  1  1  0  0  0  0
  3  2  1  0  0  0  0
  4  3  1  0  0  0  0
  5  4  1  0  0  0  0
  6  5  1  0  0  0  0
  7  6  1  0  0  0  0
  8  7  1  0  0  0  0
  9  8  1  0  0  0  0
 10  9  1  0  0  0  0
 11 10  1  0  0  0  0
 12 11  1  0  0  0  0
 13 12  1  0  0  0  0
 14 13  1  0  0  0  0
 15 14  1  0  0  0  0
 16 15  1  0  0  0  0
 17 16  1  0  0  0  0
 18 17  1  0  0  0  0
 19 18  1  0  0  0  0
 20 19  1  0  0  0  0
 21 20  1  0  0  0  0
 22 21  1  0  0  0  0
 23 22  1  0  0  0  0
 24 23  1  0  0  0  0
 25 24  1  0  0  0  0
 26 25  1  0  0  0  0
 27 26  1  0  0  0  0
 28 27  1  0  0  0  0
 29 28  1  0  0  0  0
 30 29  1  0  0  0  0
M  END
>  <cdx:fragmentId>
1754

$$$$
