39641.cdx
  Mrv1902 05222410262D          

 28 27  0  0  0  0            999 V2000
    5.8496   -6.5729    0.0000 C   0  0  0  0  0  0  0  0  0  0  0  0
   22.9969   -7.3979    0.0000 C   0  0  0  0  0  0  0  0  0  0  0  0
   22.2824   -7.8104    0.0000 C   0  0  0  0  0  0  0  0  0  0  0  0
   21.5679   -7.3979    0.0000 C   0  0  0  0  0  0  0  0  0  0  0  0
   20.8535   -7.8104    0.0000 C   0  0  0  0  0  0  0  0  0  0  0  0
   20.1390   -7.3979    0.0000 C   0  0  0  0  0  0  0  0  0  0  0  0
   19.4245   -7.8104    0.0000 C   0  0  0  0  0  0  0  0  0  0  0  0
   18.7101   -7.3979    0.0000 C   0  0  0  0  0  0  0  0  0  0  0  0
   17.9956   -7.8104    0.0000 C   0  0  0  0  0  0  0  0  0  0  0  0
   17.2811   -7.3979    0.0000 C   0  0  0  0  0  0  0  0  0  0  0  0
   16.5666   -7.8104    0.0000 C   0  0  0  0  0  0  0  0  0  0  0  0
   15.8522   -7.3979    0.0000 C   0  0  0  0  0  0  0  0  0  0  0  0
   15.1377   -7.8104    0.0000 C   0  0  0  0  0  0  0  0  0  0  0  0
   14.4232   -7.3979    0.0000 C   0  0  0  0  0  0  0  0  0  0  0  0
   13.7088   -7.8104    0.0000 C   0  0  0  0  0  0  0  0  0  0  0  0
   12.9943   -7.3979    0.0000 C   0  0  0  0  0  0  0  0  0  0  0  0
   12.2798   -7.8104    0.0000 C   0  0  0  0  0  0  0  0  0  0  0  0
   11.5653   -7.3979    0.0000 C   0  0  0  0  0  0  0  0  0  0  0  0
   10.8509   -7.8104    0.0000 C   0  0  0  0  0  0  0  0  0  0  0  0
   10.1364   -7.3979    0.0000 C   0  0  0  0  0  0  0  0  0  0  0  0
    9.4219   -7.8104    0.0000 C   0  0  0  0  0  0  0  0  0  0  0  0
    8.7075   -7.3979    0.0000 C   0  0  0  0  0  0  0  0  0  0  0  0
    7.9930   -7.8104    0.0000 C   0  0  0  0  0  0  0  0  0  0  0  0
    7.2785   -7.3979    0.0000 C   0  0  0  0  0  0  0  0  0  0  0  0
    6.5640   -7.8104    0.0000 C   0  0  0  0  0  0  0  0  0  0  0  0
    5.8496   -7.3979    0.0000 C   0  0  0  0  0  0  0  0  0  0  0  0
    5.1351   -7.8104    0.0000 C   0  0  0  0  0  0  0  0  0  0  0  0
    4.4206   -7.3979    0.0000 C   0  0  0  0  0  0  0  0  0  0  0  0
 26  1  1  0  0  0  0
  3  2  1  0  0  0  0
  4  3  1  0  0  0  0
  5  4  1  0  0  0  0
  6  5  1  0  0  0  0
  7  6  1  0  0  0  0
  8  7  1  0  0  0  0
  9  8  1  0  0  0  0
 10  9  1  0  0  0  0
 11 10  1  0  0  0  0
 12 11  1  0  0  0  0
 13 12  1  0  0  0  0
 14 13  1  0  0  0  0
 15 14  1  0  0  0  0
 16 15  1  0  0  0  0
 17 16  1  0  0  0  0
 18 17  1  0  0  0  0
 19 18  1  0  0  0  0
 20 19  1  0  0  0  0
 21 20  1  0  0  0  0
 22 21  1  0  0  0  0
 23 22  1  0  0  0  0
 24 23  1  0  0  0  0
 25 24  1  0  0  0  0
 26 25  1  0  0  0  0
 27 26  1  0  0  0  0
 28 27  1  0  0  0  0
M  END
>  <cdx:fragmentId>
9

$$$$
