39640.cdx
  Mrv1902 05222410262D          

 27 26  0  0  0  0            999 V2000
    4.3863   -9.4429    0.0000 C   0  0  0  0  0  0  0  0  0  0  0  0
    5.1007   -9.0304    0.0000 C   0  0  0  0  0  0  0  0  0  0  0  0
    5.8152   -9.4429    0.0000 C   0  0  0  0  0  0  0  0  0  0  0  0
    6.5297   -9.0304    0.0000 C   0  0  0  0  0  0  0  0  0  0  0  0
    7.2441   -9.4429    0.0000 C   0  0  0  0  0  0  0  0  0  0  0  0
    7.9586   -9.0304    0.0000 C   0  0  0  0  0  0  0  0  0  0  0  0
    8.6731   -9.4429    0.0000 C   0  0  0  0  0  0  0  0  0  0  0  0
    9.3876   -9.0304    0.0000 C   0  0  0  0  0  0  0  0  0  0  0  0
   10.1020   -9.4429    0.0000 C   0  0  0  0  0  0  0  0  0  0  0  0
   10.8165   -9.0304    0.0000 C   0  0  0  0  0  0  0  0  0  0  0  0
   11.5310   -9.4429    0.0000 C   0  0  0  0  0  0  0  0  0  0  0  0
   12.2454   -9.0304    0.0000 C   0  0  0  0  0  0  0  0  0  0  0  0
   12.9599   -9.4429    0.0000 C   0  0  0  0  0  0  0  0  0  0  0  0
   13.6744   -9.0304    0.0000 C   0  0  0  0  0  0  0  0  0  0  0  0
   14.3889   -9.4429    0.0000 C   0  0  0  0  0  0  0  0  0  0  0  0
   15.1033   -9.0304    0.0000 C   0  0  0  0  0  0  0  0  0  0  0  0
   15.8178   -9.4429    0.0000 C   0  0  0  0  0  0  0  0  0  0  0  0
   16.5323   -9.0304    0.0000 C   0  0  0  0  0  0  0  0  0  0  0  0
   17.2467   -9.4429    0.0000 C   0  0  0  0  0  0  0  0  0  0  0  0
   17.9612   -9.0304    0.0000 C   0  0  0  0  0  0  0  0  0  0  0  0
   18.6757   -9.4429    0.0000 C   0  0  0  0  0  0  0  0  0  0  0  0
   19.3901   -9.0304    0.0000 C   0  0  0  0  0  0  0  0  0  0  0  0
   20.1046   -9.4429    0.0000 C   0  0  0  0  0  0  0  0  0  0  0  0
   20.8191   -9.0304    0.0000 C   0  0  0  0  0  0  0  0  0  0  0  0
   21.5336   -9.4429    0.0000 C   0  0  0  0  0  0  0  0  0  0  0  0
   22.2480   -9.0304    0.0000 C   0  0  0  0  0  0  0  0  0  0  0  0
   22.9625   -9.4429    0.0000 C   0  0  0  0  0  0  0  0  0  0  0  0
  1  2  2  0  0  0  0
  2  3  1  0  0  0  0
  3  4  1  0  0  0  0
  4  5  1  0  0  0  0
  5  6  1  0  0  0  0
  6  7  1  0  0  0  0
  7  8  1  0  0  0  0
  8  9  1  0  0  0  0
  9 10  1  0  0  0  0
 10 11  1  0  0  0  0
 11 12  1  0  0  0  0
 12 13  1  0  0  0  0
 13 14  1  0  0  0  0
 14 15  1  0  0  0  0
 15 16  1  0  0  0  0
 16 17  1  0  0  0  0
 17 18  1  0  0  0  0
 18 19  1  0  0  0  0
 19 20  1  0  0  0  0
 20 21  1  0  0  0  0
 21 22  1  0  0  0  0
 22 23  1  0  0  0  0
 23 24  1  0  0  0  0
 24 25  1  0  0  0  0
 25 26  1  0  0  0  0
 26 27  1  0  0  0  0
M  END
>  <cdx:groupId>
86

>  <cdx:fragmentId>
175

$$$$
