39648.cdx
  Mrv1902 05222410182D          

 32 31  0  0  0  0            999 V2000
    2.9392   -9.9606    0.0000 C   0  0  0  0  0  0  0  0  0  0  0  0
    3.6535   -9.5482    0.0000 C   0  0  0  0  0  0  0  0  0  0  0  0
    4.3677   -9.9606    0.0000 C   0  0  0  0  0  0  0  0  0  0  0  0
    5.0820   -9.5482    0.0000 C   0  0  0  0  0  0  0  0  0  0  0  0
    5.7962   -9.9606    0.0000 C   0  0  0  0  0  0  0  0  0  0  0  0
    6.5105   -9.5482    0.0000 C   0  0  0  0  0  0  0  0  0  0  0  0
    7.2247   -9.9606    0.0000 C   0  0  0  0  0  0  0  0  0  0  0  0
    7.9390   -9.5482    0.0000 C   0  0  0  0  0  0  0  0  0  0  0  0
    8.6532   -9.9606    0.0000 C   0  0  0  0  0  0  0  0  0  0  0  0
    9.3675   -9.5482    0.0000 C   0  0  0  0  0  0  0  0  0  0  0  0
   10.0817   -9.9606    0.0000 C   0  0  0  0  0  0  0  0  0  0  0  0
   10.7960   -9.5482    0.0000 C   0  0  0  0  0  0  0  0  0  0  0  0
   11.5102   -9.9606    0.0000 C   0  0  0  0  0  0  0  0  0  0  0  0
   12.2244   -9.5482    0.0000 C   0  0  0  0  0  0  0  0  0  0  0  0
   12.9387   -9.9606    0.0000 C   0  0  0  0  0  0  0  0  0  0  0  0
   13.6529   -9.5482    0.0000 C   0  0  0  0  0  0  0  0  0  0  0  0
   14.3672   -9.9606    0.0000 C   0  0  0  0  0  0  0  0  0  0  0  0
   15.0814   -9.5482    0.0000 C   0  0  0  0  0  0  0  0  0  0  0  0
   15.7957   -9.9606    0.0000 C   0  0  0  0  0  0  0  0  0  0  0  0
   16.5099   -9.5482    0.0000 C   0  0  0  0  0  0  0  0  0  0  0  0
   17.2242   -9.9606    0.0000 C   0  0  0  0  0  0  0  0  0  0  0  0
   17.9384   -9.5482    0.0000 C   0  0  0  0  0  0  0  0  0  0  0  0
   18.6527   -9.9606    0.0000 C   0  0  0  0  0  0  0  0  0  0  0  0
   19.3669   -9.5482    0.0000 C   0  0  0  0  0  0  0  0  0  0  0  0
   20.0811   -9.9606    0.0000 C   0  0  0  0  0  0  0  0  0  0  0  0
   20.7954   -9.5482    0.0000 C   0  0  0  0  0  0  0  0  0  0  0  0
   21.5096   -9.9606    0.0000 C   0  0  0  0  0  0  0  0  0  0  0  0
   22.2239   -9.5482    0.0000 C   0  0  0  0  0  0  0  0  0  0  0  0
   22.9381   -9.9606    0.0000 C   0  0  0  0  0  0  0  0  0  0  0  0
   23.6524   -9.5482    0.0000 C   0  0  0  0  0  0  0  0  0  0  0  0
   24.3666   -9.9606    0.0000 C   0  0  0  0  0  0  0  0  0  0  0  0
   25.0809   -9.5482    0.0000 C   0  0  0  0  0  0  0  0  0  0  0  0
  1  2  2  0  0  0  0
  2  3  1  0  0  0  0
  3  4  1  0  0  0  0
  4  5  1  0  0  0  0
  5  6  1  0  0  0  0
  6  7  1  0  0  0  0
  7  8  1  0  0  0  0
  8  9  1  0  0  0  0
  9 10  1  0  0  0  0
 10 11  1  0  0  0  0
 11 12  1  0  0  0  0
 12 13  1  0  0  0  0
 13 14  1  0  0  0  0
 14 15  1  0  0  0  0
 15 16  1  0  0  0  0
 16 17  1  0  0  0  0
 17 18  1  0  0  0  0
 18 19  1  0  0  0  0
 19 20  1  0  0  0  0
 20 21  1  0  0  0  0
 21 22  1  0  0  0  0
 22 23  1  0  0  0  0
 23 24  1  0  0  0  0
 24 25  1  0  0  0  0
 25 26  1  0  0  0  0
 26 27  1  0  0  0  0
 27 28  1  0  0  0  0
 28 29  1  0  0  0  0
 29 30  1  0  0  0  0
 30 31  1  0  0  0  0
 31 32  1  0  0  0  0
M  END
>  <cdx:groupId>
116

>  <cdx:fragmentId>
9

$$$$
