39647.cdx
  Mrv1902 05222410272D          

 31 30  0  0  0  0            999 V2000
    4.3252   -9.0341    0.0000 C   0  0  0  0  0  0  0  0  0  0  0  0
   25.0448   -8.6216    0.0000 C   0  0  0  0  0  0  0  0  0  0  0  0
   24.3304   -9.0341    0.0000 C   0  0  0  0  0  0  0  0  0  0  0  0
   23.6159   -8.6216    0.0000 C   0  0  0  0  0  0  0  0  0  0  0  0
   22.9014   -9.0341    0.0000 C   0  0  0  0  0  0  0  0  0  0  0  0
   22.1870   -8.6216    0.0000 C   0  0  0  0  0  0  0  0  0  0  0  0
   21.4725   -9.0341    0.0000 C   0  0  0  0  0  0  0  0  0  0  0  0
   20.7580   -8.6216    0.0000 C   0  0  0  0  0  0  0  0  0  0  0  0
   20.0435   -9.0341    0.0000 C   0  0  0  0  0  0  0  0  0  0  0  0
   19.3291   -8.6216    0.0000 C   0  0  0  0  0  0  0  0  0  0  0  0
   18.6146   -9.0341    0.0000 C   0  0  0  0  0  0  0  0  0  0  0  0
   17.9001   -8.6216    0.0000 C   0  0  0  0  0  0  0  0  0  0  0  0
   17.1857   -9.0341    0.0000 C   0  0  0  0  0  0  0  0  0  0  0  0
   16.4712   -8.6216    0.0000 C   0  0  0  0  0  0  0  0  0  0  0  0
   15.7567   -9.0341    0.0000 C   0  0  0  0  0  0  0  0  0  0  0  0
   15.0422   -8.6216    0.0000 C   0  0  0  0  0  0  0  0  0  0  0  0
   14.3278   -9.0341    0.0000 C   0  0  0  0  0  0  0  0  0  0  0  0
   13.6133   -8.6216    0.0000 C   0  0  0  0  0  0  0  0  0  0  0  0
   12.8988   -9.0341    0.0000 C   0  0  0  0  0  0  0  0  0  0  0  0
   12.1844   -8.6216    0.0000 C   0  0  0  0  0  0  0  0  0  0  0  0
   11.4699   -9.0341    0.0000 C   0  0  0  0  0  0  0  0  0  0  0  0
   10.7554   -8.6216    0.0000 C   0  0  0  0  0  0  0  0  0  0  0  0
   10.0409   -9.0341    0.0000 C   0  0  0  0  0  0  0  0  0  0  0  0
    9.3265   -8.6216    0.0000 C   0  0  0  0  0  0  0  0  0  0  0  0
    8.6120   -9.0341    0.0000 C   0  0  0  0  0  0  0  0  0  0  0  0
    7.8975   -8.6216    0.0000 C   0  0  0  0  0  0  0  0  0  0  0  0
    7.1831   -9.0341    0.0000 C   0  0  0  0  0  0  0  0  0  0  0  0
    6.4686   -8.6216    0.0000 C   0  0  0  0  0  0  0  0  0  0  0  0
    5.7541   -9.0341    0.0000 C   0  0  0  0  0  0  0  0  0  0  0  0
    5.0396   -8.6216    0.0000 C   0  0  0  0  0  0  0  0  0  0  0  0
    5.0396   -7.7966    0.0000 C   0  0  0  0  0  0  0  0  0  0  0  0
 30  1  1  0  0  0  0
  3  2  1  0  0  0  0
  4  3  1  0  0  0  0
  5  4  1  0  0  0  0
  6  5  1  0  0  0  0
  7  6  1  0  0  0  0
  8  7  1  0  0  0  0
  9  8  1  0  0  0  0
 10  9  1  0  0  0  0
 11 10  1  0  0  0  0
 12 11  1  0  0  0  0
 13 12  1  0  0  0  0
 14 13  1  0  0  0  0
 15 14  1  0  0  0  0
 16 15  1  0  0  0  0
 17 16  1  0  0  0  0
 18 17  1  0  0  0  0
 19 18  1  0  0  0  0
 20 19  1  0  0  0  0
 21 20  1  0  0  0  0
 22 21  1  0  0  0  0
 23 22  1  0  0  0  0
 24 23  1  0  0  0  0
 25 24  1  0  0  0  0
 26 25  1  0  0  0  0
 27 26  1  0  0  0  0
 28 27  1  0  0  0  0
 29 28  1  0  0  0  0
 30 29  1  0  0  0  0
 31 30  1  0  0  0  0
M  END
>  <cdx:fragmentId>
1638

$$$$
