39659.cdx
  Mrv1902 05222410202D          

 13 12  0  0  0  0            999 V2000
    3.3477   -5.2444    0.0000 O   0  0  0  0  0  0  0  0  0  0  0  0
    4.0622   -6.4819    0.0000 O   0  0  0  0  0  0  0  0  0  0  0  0
   11.2069   -5.6569    0.0000 C   0  0  0  0  0  0  0  0  0  0  0  0
   10.4924   -5.2444    0.0000 C   0  0  0  0  0  0  0  0  0  0  0  0
    9.7779   -5.6569    0.0000 C   0  0  0  0  0  0  0  0  0  0  0  0
    9.0635   -5.2444    0.0000 C   0  0  0  0  0  0  0  0  0  0  0  0
    8.3490   -5.6569    0.0000 C   0  0  0  0  0  0  0  0  0  0  0  0
    7.6345   -5.2444    0.0000 C   0  0  0  0  0  0  0  0  0  0  0  0
    6.9201   -5.6569    0.0000 C   0  0  0  0  0  0  0  0  0  0  0  0
    6.2056   -5.2444    0.0000 C   0  0  0  0  0  0  0  0  0  0  0  0
    5.4911   -5.6569    0.0000 C   0  0  0  0  0  0  0  0  0  0  0  0
    4.7766   -5.2444    0.0000 C   0  0  0  0  0  0  0  0  0  0  0  0
    4.0622   -5.6569    0.0000 C   0  0  0  0  0  0  0  0  0  0  0  0
 13  1  1  0  0  0  0
 13  2  2  0  0  0  0
  4  3  2  0  0  0  0
  5  4  1  0  0  0  0
  6  5  1  0  0  0  0
  7  6  1  0  0  0  0
  8  7  1  0  0  0  0
  9  8  1  0  0  0  0
 10  9  1  0  0  0  0
 11 10  1  0  0  0  0
 12 11  1  0  0  0  0
 13 12  1  0  0  0  0
M  END
>  <cdx:fragmentId>
52

$$$$
