39651.cdx
  Mrv1902 05222410282D          

 16 16  0  0  0  0            999 V2000
    6.0347   -5.1963    0.0000 C   0  0  0  0  0  0  0  0  0  0  0  0
    5.3203   -5.6088    0.0000 C   0  0  0  0  0  0  0  0  0  0  0  0
    5.3203   -6.4338    0.0000 C   0  0  0  0  0  0  0  0  0  0  0  0
    4.6058   -6.8463    0.0000 C   0  0  0  0  0  0  0  0  0  0  0  0
    3.8913   -6.4338    0.0000 C   0  0  0  0  0  0  0  0  0  0  0  0
    3.8913   -5.6088    0.0000 C   0  0  0  0  0  0  0  0  0  0  0  0
    4.6058   -5.1963    0.0000 C   0  0  0  0  0  0  0  0  0  0  0  0
    6.0347   -4.3713    0.0000 O   0  0  0  0  0  0  0  0  0  0  0  0
    6.7492   -5.6088    0.0000 O   0  0  0  0  0  0  0  0  0  0  0  0
    6.0347   -6.8463    0.0000 O   0  0  0  0  0  0  0  0  0  0  0  0
    7.4637   -5.1963    0.0000 C   0  0  0  0  0  0  0  0  0  0  0  0
    8.1781   -5.6088    0.0000 C   0  0  0  0  0  0  0  0  0  0  0  0
    8.8926   -5.1963    0.0000 C   0  0  0  0  0  0  0  0  0  0  0  0
    9.6071   -5.6088    0.0000 C   0  0  0  0  0  0  0  0  0  0  0  0
   10.3216   -5.1963    0.0000 C   0  0  0  0  0  0  0  0  0  0  0  0
   11.0360   -5.6088    0.0000 C   0  0  0  0  0  0  0  0  0  0  0  0
  1  2  1  0  0  0  0
  2  3  1  0  0  0  0
  3  4  2  0  0  0  0
  4  5  1  0  0  0  0
  5  6  2  0  0  0  0
  6  7  1  0  0  0  0
  2  7  2  0  0  0  0
  1  8  2  0  0  0  0
  1  9  1  0  0  0  0
  3 10  1  0  0  0  0
 11 12  1  0  0  0  0
 12 13  1  0  0  0  0
 13 14  1  0  0  0  0
 14 15  1  0  0  0  0
 15 16  1  0  0  0  0
  9 11  1  0  0  0  0
M  END
>  <cdx:fragmentId>
115

$$$$
