39660.cdx
  Mrv1902 05222410182D          

 43 47  0  0  0  0            999 V2000
    5.7588   -7.9299    0.0000 O   0  0  0  0  0  0  0  0  0  0  0  0
    5.0296   -6.7011    0.0000 O   0  0  0  0  0  0  0  0  0  0  0  0
    5.0395   -7.5261    0.0000 C   0  0  2  0  0  0  0  0  0  0  0  0
    4.3300   -7.9471    0.0000 C   0  0  1  0  0  0  0  0  0  0  0  0
    3.6106   -7.5432    0.0000 C   0  0  2  0  0  0  0  0  0  0  0  0
    3.6007   -6.7183    0.0000 C   0  0  1  0  0  0  0  0  0  0  0  0
    4.3102   -6.2972    0.0000 C   0  0  1  0  0  0  0  0  0  0  0  0
    4.3003   -5.4723    0.0000 C   0  0  0  0  0  0  0  0  0  0  0  0
    3.5809   -5.0684    0.0000 O   0  0  0  0  0  0  0  0  0  0  0  0
    2.8814   -6.3144    0.0000 O   0  0  0  0  0  0  0  0  0  0  0  0
    2.9012   -7.9643    0.0000 O   0  0  0  0  0  0  0  0  0  0  0  0
    4.3399   -8.7720    0.0000 O   0  0  0  0  0  0  0  0  0  0  0  0
    6.4736   -5.8684    0.0000 H   0  0  0  0  0  0  0  0  0  0  0  0
    7.9025   -8.3434    0.0000 H   0  0  0  0  0  0  0  0  0  0  0  0
    9.3315   -8.3434    0.0000 H   0  0  0  0  0  0  0  0  0  0  0  0
    8.6170   -7.1059    0.0000 H   0  0  0  0  0  0  0  0  0  0  0  0
    9.3315   -5.0434    0.0000 O   0  0  0  0  0  0  0  0  0  0  0  0
   12.1894   -6.6934    0.0000 C   0  0  0  0  0  0  0  0  0  0  0  0
   11.4749   -6.2809    0.0000 O   0  0  0  0  0  0  0  0  0  0  0  0
    7.1881   -3.8059    0.0000 C   0  0  0  0  0  0  0  0  0  0  0  0
    7.9025   -4.2184    0.0000 O   0  0  0  0  0  0  0  0  0  0  0  0
    9.3315   -5.8684    0.0000 C   0  0  0  0  0  0  0  0  0  0  0  0
   10.0459   -8.7559    0.0000 C   0  0  0  0  0  0  0  0  0  0  0  0
    6.4736   -5.0434    0.0000 C   0  0  0  0  0  0  0  0  0  0  0  0
    7.9025   -5.8684    0.0000 C   0  0  0  0  0  0  0  0  0  0  0  0
   10.0459   -5.4559    0.0000 O   0  0  0  0  0  0  0  0  0  0  0  0
    7.9025   -6.6934    0.0000 C   0  0  1  0  0  0  0  0  0  0  0  0
    8.6170   -5.4559    0.0000 C   0  0  2  0  0  0  0  0  0  0  0  0
    7.9025   -5.0434    0.0000 C   0  0  2  0  0  0  0  0  0  0  0  0
    7.1881   -5.4559    0.0000 C   0  0  1  0  0  0  0  0  0  0  0  0
    7.1881   -6.2809    0.0000 C   0  0  2  0  0  0  0  0  0  0  0  0
    6.4730   -6.6924    0.0000 C   0  0  0  0  0  0  0  0  0  0  0  0
    6.4733   -7.5174    0.0000 C   0  0  1  0  0  0  0  0  0  0  0  0
    7.1877   -7.9302    0.0000 O   0  0  0  0  0  0  0  0  0  0  0  0
    7.9025   -7.5184    0.0000 C   0  0  2  0  0  0  0  0  0  0  0  0
    8.6170   -7.9309    0.0000 C   0  0  0  0  0  0  0  0  0  0  0  0
    9.3315   -7.5184    0.0000 C   0  0  1  0  0  0  0  0  0  0  0  0
   10.0459   -7.9309    0.0000 C   0  0  1  0  0  0  0  0  0  0  0  0
   10.7604   -7.5184    0.0000 C   0  0  0  0  0  0  0  0  0  0  0  0
   10.7604   -6.6934    0.0000 C   0  0  0  0  0  0  0  0  0  0  0  0
   10.0459   -6.2809    0.0000 C   0  0  0  0  0  0  0  0  0  0  0  0
    9.3315   -6.6934    0.0000 C   0  0  1  0  0  0  0  0  0  0  0  0
    8.6170   -6.2809    0.0000 C   0  0  2  0  0  0  0  0  0  0  0  0
 31 13  1  6  0  0  0
 35 14  1  6  0  0  0
 37 15  1  1  0  0  0
 43 16  1  1  0  0  0
 28 17  1  1  0  0  0
 40 19  1  0  0  0  0
 19 18  1  0  0  0  0
 29 21  1  6  0  0  0
 21 20  1  0  0  0  0
 42 22  1  6  0  0  0
 38 23  1  1  0  0  0
 30 24  1  1  0  0  0
 27 25  1  6  0  0  0
 33  1  1  1  0  0  0
 41 26  2  0  0  0  0
 31 27  1  0  0  0  0
 42 37  1  0  0  0  0
 27 35  1  0  0  0  0
 43 27  1  0  0  0  0
 43 28  1  0  0  0  0
 29 28  1  0  0  0  0
 30 29  1  0  0  0  0
 31 30  1  0  0  0  0
 32 31  1  0  0  0  0
 33 32  1  0  0  0  0
 34 33  1  0  0  0  0
 35 34  1  0  0  0  0
 36 35  1  0  0  0  0
 37 36  1  0  0  0  0
 38 37  1  0  0  0  0
 39 38  1  0  0  0  0
 40 39  2  0  0  0  0
 41 40  1  0  0  0  0
 42 41  1  0  0  0  0
 43 42  1  0  0  0  0
  2  3  1  0  0  0  0
  3  4  1  0  0  0  0
  4  5  1  0  0  0  0
  5  6  1  0  0  0  0
  6  7  1  0  0  0  0
  2  7  1  0  0  0  0
  8  9  1  0  0  0  0
  7  8  1  1  0  0  0
  6 10  1  6  0  0  0
  5 11  1  1  0  0  0
  4 12  1  6  0  0  0
  3  1  1  1  0  0  0
M  END
>  <cdx:fragmentId>
88

$$$$
