2164.cdx
  Mrv1902 05222410202D          

  8  8  0  0  0  0            999 V2000
   12.0819   -5.4537    0.0000 C   0  0  0  0  0  0  0  0  0  0  0  0
   12.6653   -4.8703    0.0000 C   0  0  0  0  0  0  0  0  0  0  0  0
   13.2486   -5.4537    0.0000 C   0  0  0  0  0  0  0  0  0  0  0  0
   12.6653   -6.0370    0.0000 C   0  0  0  0  0  0  0  0  0  0  0  0
   13.9631   -5.0412    0.0000 C   0  0  0  0  0  0  0  0  0  0  0  0
   12.6653   -4.0453    0.0000 C   0  0  0  0  0  0  0  0  0  0  0  0
   13.9631   -5.8662    0.0000 O   0  0  0  0  0  0  0  0  0  0  0  0
   14.6776   -5.4537    0.0000 C   0  0  0  0  0  0  0  0  0  0  0  0
  1  2  2  0  0  0  0
  2  3  1  0  0  0  0
  3  4  1  0  0  0  0
  1  4  1  0  0  0  0
  3  5  1  0  0  0  0
  2  6  1  0  0  0  0
  7  8  1  0  0  0  0
  3  7  1  0  0  0  0
M  END
>  <cdx:groupId>
30

>  <cdx:fragmentId>
9

$$$$
