39674.cdx
  Mrv1902 05222410182D          

 19 20  0  0  0  0            999 V2000
    7.2377   -5.6982    0.0000 O   0  0  0  0  0  0  0  0  0  0  0  0
    7.9522   -5.2857    0.0000 C   0  0  0  0  0  0  0  0  0  0  0  0
    8.6666   -5.6982    0.0000 C   0  0  0  0  0  0  0  0  0  0  0  0
    9.3811   -5.2857    0.0000 C   0  0  0  0  0  0  0  0  0  0  0  0
   10.0956   -5.6982    0.0000 C   0  0  0  0  0  0  0  0  0  0  0  0
   10.8100   -5.2857    0.0000 O   0  0  0  0  0  0  0  0  0  0  0  0
   11.5245   -5.6982    0.0000 C   0  0  0  0  0  0  0  0  0  0  0  0
   10.0956   -6.5232    0.0000 C   0  0  0  0  0  0  0  0  0  0  0  0
   10.8100   -6.9357    0.0000 O   0  0  0  0  0  0  0  0  0  0  0  0
    9.3811   -6.9357    0.0000 C   0  0  0  0  0  0  0  0  0  0  0  0
    8.6666   -6.5232    0.0000 C   0  0  0  0  0  0  0  0  0  0  0  0
    6.5232   -5.2857    0.0000 C   0  0  0  0  0  0  0  0  0  0  0  0
    5.8087   -5.6982    0.0000 C   0  0  0  0  0  0  0  0  0  0  0  0
    5.0943   -5.2857    0.0000 C   0  0  0  0  0  0  0  0  0  0  0  0
    4.3798   -5.6982    0.0000 C   0  0  0  0  0  0  0  0  0  0  0  0
    4.3798   -6.5232    0.0000 C   0  0  0  0  0  0  0  0  0  0  0  0
    5.0943   -6.9357    0.0000 C   0  0  0  0  0  0  0  0  0  0  0  0
    5.8087   -6.5232    0.0000 C   0  0  0  0  0  0  0  0  0  0  0  0
    3.6653   -6.9357    0.0000 O   0  0  0  0  0  0  0  0  0  0  0  0
  2  3  1  0  0  0  0
  3  4  1  0  0  0  0
  4  5  2  0  0  0  0
  5  6  1  0  0  0  0
  6  7  1  0  0  0  0
  5  8  1  0  0  0  0
  8  9  1  0  0  0  0
  8 10  2  0  0  0  0
 10 11  1  0  0  0  0
  3 11  2  0  0  0  0
  1  2  1  0  0  0  0
 12 13  1  0  0  0  0
 13 14  1  0  0  0  0
 14 15  2  0  0  0  0
 15 16  1  0  0  0  0
 16 17  2  0  0  0  0
 17 18  1  0  0  0  0
 13 18  2  0  0  0  0
 16 19  1  0  0  0  0
  1 12  1  0  0  0  0
M  END
>  <cdx:fragmentId>
11

$$$$
