2179.cdx
  Mrv1902 05222410282D          

  7  7  0  0  0  0            999 V2000
   15.0225   -4.3429    0.0000 N   0  0  0  0  0  0  0  0  0  0  0  0
   15.6899   -4.8278    0.0000 C   0  0  0  0  0  0  0  0  0  0  0  0
   15.4350   -5.6125    0.0000 C   0  0  0  0  0  0  0  0  0  0  0  0
   14.6100   -5.6125    0.0000 C   0  0  0  0  0  0  0  0  0  0  0  0
   14.3551   -4.8278    0.0000 C   0  0  1  0  0  0  0  0  0  0  0  0
   16.4746   -4.5729    0.0000 O   0  0  0  0  0  0  0  0  0  0  0  0
   13.5704   -4.5729    0.0000 O   0  0  0  0  0  0  0  0  0  0  0  0
  1  2  1  0  0  0  0
  2  3  1  0  0  0  0
  3  4  1  0  0  0  0
  4  5  1  0  0  0  0
  1  5  1  0  0  0  0
  2  6  2  0  0  0  0
  5  7  1  1  0  0  0
M  END
>  <cdx:groupId>
27

>  <cdx:fragmentId>
9

$$$$
