39677.cdx
  Mrv1902 05222410192D          

 26 29  0  0  0  0            999 V2000
    8.2481  -10.2045    0.0000 O   0  0  0  0  0  0  0  0  0  0  0  0
    7.4701   -9.9301    0.0000 C   0  0  1  0  0  0  0  0  0  0  0  0
    7.4906   -9.1054    0.0000 C   0  0  1  0  0  0  0  0  0  0  0  0
    8.2814   -8.8701    0.0000 C   0  0  0  0  0  0  0  0  0  0  0  0
    8.7495   -9.5494    0.0000 C   0  0  0  0  0  0  0  0  0  0  0  0
    6.7126   -8.8309    0.0000 C   0  0  0  0  0  0  0  0  0  0  0  0
    6.2112   -9.4860    0.0000 C   0  0  0  0  0  0  0  0  0  0  0  0
    5.3888   -9.5518    0.0000 C   0  0  0  0  0  0  0  0  0  0  0  0
    5.0346  -10.2968    0.0000 C   0  0  0  0  0  0  0  0  0  0  0  0
    5.5027  -10.9762    0.0000 C   0  0  0  0  0  0  0  0  0  0  0  0
    6.3250  -10.9104    0.0000 C   0  0  0  0  0  0  0  0  0  0  0  0
    6.6793  -10.1654    0.0000 C   0  0  0  0  0  0  0  0  0  0  0  0
    9.5742   -9.5700    0.0000 O   0  0  0  0  0  0  0  0  0  0  0  0
    8.5558   -8.0921    0.0000 C   0  0  0  0  0  0  0  0  0  0  0  0
    8.0193   -7.4654    0.0000 O   0  0  0  0  0  0  0  0  0  0  0  0
    9.0845   -6.4521    0.0000 O   0  0  0  0  0  0  0  0  0  0  0  0
    8.2937   -6.6874    0.0000 C   0  0  2  0  0  0  0  0  0  0  0  0
    7.8256   -6.0080    0.0000 C   0  0  0  0  0  0  0  0  0  0  0  0
    8.3270   -5.3529    0.0000 C   0  0  0  0  0  0  0  0  0  0  0  0
    9.1051   -5.6274    0.0000 C   0  0  0  0  0  0  0  0  0  0  0  0
    9.7844   -5.1593    0.0000 O   0  0  0  0  0  0  0  0  0  0  0  0
    8.0918   -4.5622    0.0000 C   0  0  0  0  0  0  0  0  0  0  0  0
    7.0701  -11.2647    0.0000 C   0  0  0  0  0  0  0  0  0  0  0  0
    6.3908  -11.7328    0.0000 C   0  0  0  0  0  0  0  0  0  0  0  0
    7.5112   -8.2806    0.0000 H   0  0  0  0  0  0  0  0  0  0  0  0
    7.4495  -10.7548    0.0000 H   0  0  0  0  0  0  0  0  0  0  0  0
  1  2  1  0  0  0  0
  2  3  1  0  0  0  0
  3  4  1  0  0  0  0
  4  5  1  0  0  0  0
  1  5  1  0  0  0  0
  6  7  1  0  0  0  0
  7  8  1  0  0  0  0
  8  9  1  0  0  0  0
  9 10  1  0  0  0  0
 10 11  1  0  0  0  0
 11 12  1  0  0  0  0
  7 12  2  0  0  0  0
 12  2  1  0  0  0  0
  6  3  1  0  0  0  0
  5 13  2  0  0  0  0
 16 17  1  0  0  0  0
 17 18  1  0  0  0  0
 18 19  2  0  0  0  0
 19 20  1  0  0  0  0
 16 20  1  0  0  0  0
 20 21  2  0  0  0  0
 19 22  1  0  0  0  0
 17 15  1  1  0  0  0
 14 15  1  0  0  0  0
  4 14  2  0  0  0  0
 11 23  1  0  0  0  0
 11 24  1  0  0  0  0
  3 25  1  1  0  0  0
  2 26  1  1  0  0  0
M  END
>  <cdx:groupId>
88

>  <cdx:fragmentId>
20

$$$$
