2171.cdx
  Mrv1902 05222410202D          

 34 37  0  0  0  0            999 V2000
   12.4685   -5.5003    0.0000 C   0  0  0  0  0  0  0  0  0  0  0  0
   12.4685   -6.3253    0.0000 C   0  0  0  0  0  0  0  0  0  0  0  0
   11.7540   -6.7378    0.0000 C   0  0  0  0  0  0  0  0  0  0  0  0
   11.0395   -6.3253    0.0000 C   0  0  0  0  0  0  0  0  0  0  0  0
   11.0395   -5.5003    0.0000 C   0  0  0  0  0  0  0  0  0  0  0  0
   11.7540   -5.0878    0.0000 C   0  0  0  0  0  0  0  0  0  0  0  0
   13.1829   -5.0878    0.0000 O   0  0  0  0  0  0  0  0  0  0  0  0
   10.3250   -6.7378    0.0000 C   0  0  0  0  0  0  0  0  0  0  0  0
    9.6106   -6.3253    0.0000 O   0  0  0  0  0  0  0  0  0  0  0  0
    8.8961   -6.7378    0.0000 C   0  0  0  0  0  0  0  0  0  0  0  0
   13.1829   -6.7378    0.0000 C   0  0  0  0  0  0  0  0  0  0  0  0
   13.8974   -6.3253    0.0000 C   0  0  0  0  0  0  0  0  0  0  0  0
   14.6119   -6.7378    0.0000 C   0  0  0  0  0  0  0  0  0  0  0  0
   15.3263   -6.3253    0.0000 C   0  0  0  0  0  0  0  0  0  0  0  0
   15.3263   -5.5003    0.0000 C   0  0  0  0  0  0  0  0  0  0  0  0
   14.6119   -5.0878    0.0000 C   0  0  0  0  0  0  0  0  0  0  0  0
   13.8974   -5.5003    0.0000 C   0  0  0  0  0  0  0  0  0  0  0  0
   16.0408   -6.7378    0.0000 C   0  0  0  0  0  0  0  0  0  0  0  0
   16.7553   -6.3253    0.0000 C   0  0  0  0  0  0  0  0  0  0  0  0
   17.4698   -6.7378    0.0000 C   0  0  0  0  0  0  0  0  0  0  0  0
   18.1842   -6.3253    0.0000 C   0  0  0  0  0  0  0  0  0  0  0  0
   18.1842   -5.5003    0.0000 C   0  0  0  0  0  0  0  0  0  0  0  0
   17.4698   -5.0878    0.0000 C   0  0  0  0  0  0  0  0  0  0  0  0
   16.7553   -5.5003    0.0000 C   0  0  0  0  0  0  0  0  0  0  0  0
   18.8987   -6.7378    0.0000 C   0  0  0  0  0  0  0  0  0  0  0  0
   19.6132   -6.3253    0.0000 C   0  0  0  0  0  0  0  0  0  0  0  0
   19.6132   -5.5003    0.0000 C   0  0  0  0  0  0  0  0  0  0  0  0
   20.3276   -5.0878    0.0000 C   0  0  0  0  0  0  0  0  0  0  0  0
   21.0421   -5.5003    0.0000 C   0  0  0  0  0  0  0  0  0  0  0  0
   21.0421   -6.3253    0.0000 C   0  0  0  0  0  0  0  0  0  0  0  0
   20.3276   -6.7378    0.0000 C   0  0  0  0  0  0  0  0  0  0  0  0
   21.7566   -5.0878    0.0000 O   0  0  0  0  0  0  0  0  0  0  0  0
   18.8987   -5.0878    0.0000 O   0  0  0  0  0  0  0  0  0  0  0  0
   16.0408   -5.0878    0.0000 O   0  0  0  0  0  0  0  0  0  0  0  0
  1  2  1  0  0  0  0
  2  3  2  0  0  0  0
  3  4  1  0  0  0  0
  4  5  2  0  0  0  0
  5  6  1  0  0  0  0
  1  6  2  0  0  0  0
  1  7  1  0  0  0  0
  9 10  1  0  0  0  0
  8  9  1  0  0  0  0
  4  8  1  0  0  0  0
 11 12  1  0  0  0  0
 12 13  1  0  0  0  0
 13 14  2  0  0  0  0
 14 15  1  0  0  0  0
 15 16  2  0  0  0  0
 16 17  1  0  0  0  0
 12 17  2  0  0  0  0
 18 19  1  0  0  0  0
 19 20  1  0  0  0  0
 20 21  2  0  0  0  0
 21 22  1  0  0  0  0
 22 23  2  0  0  0  0
 23 24  1  0  0  0  0
 19 24  2  0  0  0  0
 25 26  1  0  0  0  0
 26 27  1  0  0  0  0
 27 28  2  0  0  0  0
 28 29  1  0  0  0  0
 29 30  2  0  0  0  0
 30 31  1  0  0  0  0
 26 31  2  0  0  0  0
 29 32  1  0  0  0  0
 21 25  1  0  0  0  0
 22 33  1  0  0  0  0
 14 18  1  0  0  0  0
 15 34  1  0  0  0  0
  2 11  1  0  0  0  0
M  END
>  <cdx:groupId>
236

>  <cdx:fragmentId>
182

$$$$
