39676.cdx
  Mrv1902 05222410182D          

 27 30  0  0  0  0            999 V2000
    7.3304  -12.6670    0.0000 O   0  0  0  0  0  0  0  0  0  0  0  0
    6.6629  -12.1821    0.0000 C   0  0  1  0  0  0  0  0  0  0  0  0
    6.9179  -11.3975    0.0000 C   0  0  1  0  0  0  0  0  0  0  0  0
    7.7429  -11.3975    0.0000 C   0  0  0  0  0  0  0  0  0  0  0  0
    7.9978  -12.1821    0.0000 C   0  0  0  0  0  0  0  0  0  0  0  0
    6.2504  -10.9125    0.0000 C   0  0  0  0  0  0  0  0  0  0  0  0
    5.5830  -11.3975    0.0000 C   0  0  0  0  0  0  0  0  0  0  0  0
    4.7760  -11.2259    0.0000 C   0  0  0  0  0  0  0  0  0  0  0  0
    4.2240  -11.8390    0.0000 C   0  0  0  0  0  0  0  0  0  0  0  0
    4.4789  -12.6237    0.0000 C   0  0  0  0  0  0  0  0  0  0  0  0
    5.2859  -12.7952    0.0000 C   0  0  1  0  0  0  0  0  0  0  0  0
    5.8379  -12.1821    0.0000 C   0  0  0  0  0  0  0  0  0  0  0  0
    8.7824  -12.4370    0.0000 O   0  0  0  0  0  0  0  0  0  0  0  0
    8.2278  -10.7300    0.0000 C   0  0  0  0  0  0  0  0  0  0  0  0
    7.8922   -9.9764    0.0000 O   0  0  0  0  0  0  0  0  0  0  0  0
    9.2021   -9.3089    0.0000 O   0  0  0  0  0  0  0  0  0  0  0  0
    8.3771   -9.3089    0.0000 C   0  0  2  0  0  0  0  0  0  0  0  0
    8.1222   -8.5243    0.0000 C   0  0  0  0  0  0  0  0  0  0  0  0
    8.7896   -8.0394    0.0000 C   0  0  0  0  0  0  0  0  0  0  0  0
    9.4571   -8.5243    0.0000 C   0  0  0  0  0  0  0  0  0  0  0  0
   10.2417   -8.2694    0.0000 O   0  0  0  0  0  0  0  0  0  0  0  0
    8.7896   -7.2144    0.0000 C   0  0  0  0  0  0  0  0  0  0  0  0
    5.8990  -13.3472    0.0000 C   0  0  0  0  0  0  0  0  0  0  0  0
    5.1144  -13.6022    0.0000 C   0  0  0  0  0  0  0  0  0  0  0  0
    4.3297  -13.8571    0.0000 O   0  0  0  0  0  0  0  0  0  0  0  0
    7.1728  -10.6128    0.0000 H   0  0  0  0  0  0  0  0  0  0  0  0
    6.4080  -12.9667    0.0000 H   0  0  0  0  0  0  0  0  0  0  0  0
  1  2  1  0  0  0  0
  2  3  1  0  0  0  0
  3  4  1  0  0  0  0
  4  5  1  0  0  0  0
  1  5  1  0  0  0  0
  6  7  1  0  0  0  0
  7  8  1  0  0  0  0
  8  9  1  0  0  0  0
  9 10  1  0  0  0  0
 10 11  1  0  0  0  0
 11 12  1  0  0  0  0
  7 12  2  0  0  0  0
 12  2  1  0  0  0  0
  6  3  1  0  0  0  0
  5 13  2  0  0  0  0
 16 17  1  0  0  0  0
 17 18  1  0  0  0  0
 18 19  2  0  0  0  0
 19 20  1  0  0  0  0
 16 20  1  0  0  0  0
 20 21  2  0  0  0  0
 19 22  1  0  0  0  0
 17 15  1  1  0  0  0
 14 15  1  0  0  0  0
  4 14  2  0  0  0  0
 11 23  1  1  0  0  0
 24 25  1  0  0  0  0
 11 24  1  6  0  0  0
  3 26  1  1  0  0  0
  2 27  1  1  0  0  0
M  END
>  <cdx:groupId>
1095

>  <cdx:fragmentId>
1096

$$$$
