396771.cdx
  Mrv1902 05222410222D          

 39 42  0  0  0  0            999 V2000
   10.2589   -5.5846    0.0000 C   0  0  0  0  0  0  0  0  0  0  0  0
   10.0039   -6.3693    0.0000 C   0  0  0  0  0  0  0  0  0  0  0  0
    9.1969   -6.5408    0.0000 C   0  0  0  0  0  0  0  0  0  0  0  0
    8.9420   -7.3254    0.0000 C   0  0  0  0  0  0  0  0  0  0  0  0
    8.1350   -7.4969    0.0000 C   0  0  1  0  0  0  0  0  0  0  0  0
    7.5830   -6.8839    0.0000 C   0  0  0  0  0  0  0  0  0  0  0  0
   11.3208   -4.6285    0.0000 O   0  0  0  0  0  0  0  0  0  0  0  0
    4.2376   -9.3615    0.0000 C   0  0  0  0  0  0  0  0  0  0  0  0
    3.5231   -9.7740    0.0000 C   0  0  0  0  0  0  0  0  0  0  0  0
    3.5231  -10.5990    0.0000 C   0  0  1  0  0  0  0  0  0  0  0  0
    4.2376  -11.0115    0.0000 C   0  0  0  0  0  0  0  0  0  0  0  0
    4.9521  -10.5990    0.0000 C   0  0  2  0  0  0  0  0  0  0  0  0
    5.6665  -11.0115    0.0000 C   0  0  0  0  0  0  0  0  0  0  0  0
    6.3810  -10.5990    0.0000 C   0  0  1  0  0  0  0  0  0  0  0  0
    6.3810   -9.7740    0.0000 C   0  0  0  0  0  0  0  0  0  0  0  0
    7.0955   -9.3615    0.0000 C   0  0  2  0  0  0  0  0  0  0  0  0
    7.8801   -9.6164    0.0000 C   0  0  2  0  0  0  0  0  0  0  0  0
    8.3650   -8.9490    0.0000 C   0  0  0  0  0  0  0  0  0  0  0  0
    7.8801   -8.2816    0.0000 C   0  0  1  0  0  0  0  0  0  0  0  0
    7.0955   -8.5365    0.0000 C   0  0  1  0  0  0  0  0  0  0  0  0
    6.3810   -8.1240    0.0000 C   0  0  0  0  0  0  0  0  0  0  0  0
    5.6665   -8.5365    0.0000 C   0  0  0  0  0  0  0  0  0  0  0  0
    5.6665   -9.3615    0.0000 C   0  0  0  0  0  0  0  0  0  0  0  0
    4.9521   -9.7740    0.0000 C   0  0  1  0  0  0  0  0  0  0  0  0
    4.9521   -8.1240    0.0000 O   0  0  0  0  0  0  0  0  0  0  0  0
    7.0955  -10.1865    0.0000 C   0  0  0  0  0  0  0  0  0  0  0  0
    7.0955   -7.7115    0.0000 C   0  0  0  0  0  0  0  0  0  0  0  0
    4.9521   -8.9490    0.0000 C   0  0  0  0  0  0  0  0  0  0  0  0
    4.6501  -11.7260    0.0000 C   0  0  0  0  0  0  0  0  0  0  0  0
    3.8251  -11.7260    0.0000 C   0  0  0  0  0  0  0  0  0  0  0  0
    8.1350  -10.4011    0.0000 O   0  0  0  0  0  0  0  0  0  0  0  0
    7.0955  -11.0115    0.0000 O   0  0  0  0  0  0  0  0  0  0  0  0
    2.8086  -11.0115    0.0000 O   0  0  0  0  0  0  0  0  0  0  0  0
    8.6449   -5.9277    0.0000 O   0  0  0  0  0  0  0  0  0  0  0  0
    9.7068   -4.9716    0.0000 C   0  0  0  0  0  0  0  0  0  0  0  0
    4.9521  -11.4240    0.0000 H   0  0  0  0  0  0  0  0  0  0  0  0
   11.6179   -6.0262    0.0000 O   0  0  0  0  0  0  0  0  0  0  0  0
   11.0658   -5.4131    0.0000 C   0  0  0  0  0  0  0  0  0  0  0  0
    8.6770   -8.0680    0.0000 H   0  0  0  0  0  0  0  0  0  0  0  0
 38  7  1  0  0  0  0
 38 37  2  0  0  0  0
 38  1  1  0  0  0  0
  1  2  1  0  0  0  0
  2  3  1  0  0  0  0
  3  4  1  0  0  0  0
  4  5  1  0  0  0  0
  5  6  1  6  0  0  0
  8  9  1  0  0  0  0
  9 10  1  0  0  0  0
 10 11  1  0  0  0  0
 11 12  1  0  0  0  0
 12 13  1  0  0  0  0
 13 14  1  0  0  0  0
 14 15  1  0  0  0  0
 15 16  1  0  0  0  0
 16 17  1  0  0  0  0
 17 18  1  0  0  0  0
 19 18  1  0  0  0  0
 19 20  1  0  0  0  0
 16 20  1  0  0  0  0
 20 21  1  0  0  0  0
 21 22  1  0  0  0  0
 22 23  1  0  0  0  0
 15 23  2  0  0  0  0
 23 24  1  0  0  0  0
 12 24  1  0  0  0  0
  8 24  1  0  0  0  0
 22 25  2  0  0  0  0
 16 26  1  6  0  0  0
 20 27  1  1  0  0  0
 24 28  1  1  0  0  0
 11 29  1  0  0  0  0
 11 30  1  0  0  0  0
 17 31  1  6  0  0  0
 14 32  1  1  0  0  0
 10 33  1  1  0  0  0
  5 19  1  0  0  0  0
  3 34  2  0  0  0  0
  1 35  1  0  0  0  0
 12 36  1  6  0  0  0
 19 39  1  6  0  0  0
M  END
>  <cdx:fragmentId>
193085

$$$$
