2178.cdx
  Mrv1902 05222410282D          

 11 12  0  0  0  0            999 V2000
   14.5931   -6.4705    0.0000 O   0  0  0  0  0  0  0  0  0  0  0  0
   15.0780   -5.8031    0.0000 C   0  0  0  0  0  0  0  0  0  0  0  0
   14.5931   -5.1356    0.0000 C   0  0  0  0  0  0  0  0  0  0  0  0
   13.8085   -5.3906    0.0000 C   0  0  0  0  0  0  0  0  0  0  0  0
   13.8085   -6.2156    0.0000 C   0  0  0  0  0  0  0  0  0  0  0  0
   13.0940   -4.9781    0.0000 C   0  0  0  0  0  0  0  0  0  0  0  0
   12.3795   -5.3906    0.0000 C   0  0  0  0  0  0  0  0  0  0  0  0
   12.3795   -6.2156    0.0000 C   0  0  0  0  0  0  0  0  0  0  0  0
   13.0940   -6.6281    0.0000 C   0  0  0  0  0  0  0  0  0  0  0  0
   14.8481   -4.3510    0.0000 C   0  0  0  0  0  0  0  0  0  0  0  0
   15.6550   -4.1795    0.0000 O   0  0  0  0  0  0  0  0  0  0  0  0
  1  2  1  0  0  0  0
  2  3  2  0  0  0  0
  3  4  1  0  0  0  0
  4  5  1  0  0  0  0
  1  5  1  0  0  0  0
  6  7  1  0  0  0  0
  7  8  2  0  0  0  0
  8  9  1  0  0  0  0
  9  5  2  0  0  0  0
  6  4  2  0  0  0  0
 10 11  2  0  0  0  0
  3 10  1  0  0  0  0
M  END
>  <cdx:groupId>
40

>  <cdx:fragmentId>
9

$$$$
