39689.cdx
  Mrv1902 05222410192D          

 10 10  0  0  0  0            999 V2000
    8.6718  -11.0628    0.0000 O   0  0  0  0  0  0  0  0  0  0  0  0
    8.0133  -10.5658    0.0000 C   0  0  0  0  0  0  0  0  0  0  0  0
    7.3371  -11.0385    0.0000 C   0  0  0  0  0  0  0  0  0  0  0  0
    7.5778  -11.8276    0.0000 C   0  0  0  0  0  0  0  0  0  0  0  0
    8.4026  -11.8426    0.0000 C   0  0  0  0  0  0  0  0  0  0  0  0
    6.5573  -10.7693    0.0000 S   0  0  0  0  0  0  0  0  0  0  0  0
    6.4005   -9.9594    0.0000 C   0  0  0  0  0  0  0  0  0  0  0  0
    7.0235   -9.4186    0.0000 O   0  0  0  0  0  0  0  0  0  0  0  0
    5.6206   -9.6902    0.0000 C   0  0  0  0  0  0  0  0  0  0  0  0
    8.0283   -9.7409    0.0000 C   0  0  0  0  0  0  0  0  0  0  0  0
  1  2  1  0  0  0  0
  2  3  2  0  0  0  0
  3  4  1  0  0  0  0
  4  5  1  0  0  0  0
  1  5  1  0  0  0  0
  7  8  2  0  0  0  0
  7  9  1  0  0  0  0
  6  7  1  0  0  0  0
  3  6  1  0  0  0  0
  2 10  1  0  0  0  0
M  END
>  <cdx:groupId>
39

>  <cdx:fragmentId>
9

$$$$
