39686.cdx
  Mrv1902 05222410282D          

  8  8  0  0  0  0            999 V2000
    8.2959   -9.5006    0.0000 C   0  0  0  0  0  0  0  0  0  0  0  0
    6.7153   -8.0657    0.0000 C   0  0  0  0  0  0  0  0  0  0  0  0
    6.9788   -8.8475    0.0000 C   0  0  0  0  0  0  0  0  0  0  0  0
    7.8038   -8.8385    0.0000 C   0  0  0  0  0  0  0  0  0  0  0  0
    8.0501   -8.0511    0.0000 C   0  0  0  0  0  0  0  0  0  0  0  0
    7.9608   -6.9901    0.0000 O   0  0  0  0  0  0  0  0  0  0  0  0
    6.7941   -6.9901    0.0000 O   0  0  0  0  0  0  0  0  0  0  0  0
    7.3774   -7.5735    0.0000 S   0  0  0  0  0  0  0  0  0  0  0  0
  4  1  1  0  0  0  0
  8  2  1  0  0  0  0
  3  2  1  0  0  0  0
  4  3  2  0  0  0  0
  5  4  1  0  0  0  0
  8  5  1  0  0  0  0
  8  6  2  0  0  0  0
  8  7  2  0  0  0  0
M  END
>  <cdx:groupId>
30

>  <cdx:fragmentId>
9

$$$$
