39688.cdx
  Mrv1902 05222410192D          

 10  9  0  0  0  0            999 V2000
    5.8833   -6.7810    0.0000 C   0  0  0  0  0  0  0  0  0  0  0  0
    6.5977   -6.3685    0.0000 C   0  0  0  0  0  0  0  0  0  0  0  0
    7.3122   -6.7810    0.0000 C   0  0  0  0  0  0  0  0  0  0  0  0
    5.8833   -7.6060    0.0000 O   0  0  0  0  0  0  0  0  0  0  0  0
    5.1688   -6.3685    0.0000 O   0  5  0  0  0  0  0  0  0  0  0  0
    7.3122   -7.6060    0.0000 O   0  0  0  0  0  0  0  0  0  0  0  0
    8.0267   -6.3685    0.0000 N   0  0  0  0  0  0  0  0  0  0  0  0
    8.7412   -6.7810    0.0000 C   0  0  0  0  0  0  0  0  0  0  0  0
    9.4556   -6.3685    0.0000 N   0  0  0  0  0  0  0  0  0  0  0  0
    8.7412   -7.6060    0.0000 O   0  0  0  0  0  0  0  0  0  0  0  0
  1  2  1  0  0  0  0
  2  3  1  0  0  0  0
  1  4  2  0  0  0  0
  1  5  1  0  0  0  0
  3  6  2  0  0  0  0
  8  9  1  0  0  0  0
  8 10  2  0  0  0  0
  7  8  1  0  0  0  0
  3  7  1  0  0  0  0
M  CHG  1   5  -1
M  END
>  <cdx:groupId>
68

>  <cdx:fragmentId>
42

$$$$
