39685.cdx
  Mrv1902 05222410272D          

 11 11  0  0  0  0            999 V2000
    5.8141   -8.8442    0.0000 O   0  0  0  0  0  0  0  0  0  0  0  0
    5.4016   -8.1298    0.0000 C   0  0  0  0  0  0  0  0  0  0  0  0
    6.2266   -8.1298    0.0000 C   0  0  0  0  0  0  0  0  0  0  0  0
    6.9411   -7.7173    0.0000 C   0  0  0  0  0  0  0  0  0  0  0  0
    7.6556   -8.1298    0.0000 C   0  0  0  0  0  0  0  0  0  0  0  0
    8.3700   -7.7173    0.0000 C   0  0  0  0  0  0  0  0  0  0  0  0
    9.0845   -8.1298    0.0000 C   0  0  0  0  0  0  0  0  0  0  0  0
    9.7990   -7.7173    0.0000 C   0  0  0  0  0  0  0  0  0  0  0  0
    8.3700   -6.8923    0.0000 C   0  0  0  0  0  0  0  0  0  0  0  0
    4.5766   -8.1298    0.0000 C   0  0  0  0  0  0  0  0  0  0  0  0
    4.9891   -7.4153    0.0000 C   0  0  0  0  0  0  0  0  0  0  0  0
  1  2  1  0  0  0  0
  2  3  1  0  0  0  0
  1  3  1  0  0  0  0
  4  5  1  0  0  0  0
  5  6  2  0  0  0  0
  6  7  1  0  0  0  0
  7  8  2  0  0  0  0
  6  9  1  0  0  0  0
  3  4  1  0  0  0  0
  2 10  1  0  0  0  0
  2 11  1  0  0  0  0
M  END
>  <cdx:groupId>
363

>  <cdx:fragmentId>
67

$$$$
