39693.cdx
  Mrv1902 05222410282D          

 13 14  0  0  0  0            999 V2000
    7.7984   -9.7359    0.0000 C   0  0  0  0  0  0  0  0  0  0  0  0
    8.5129  -10.1484    0.0000 C   0  0  0  0  0  0  0  0  0  0  0  0
    8.5129  -10.9734    0.0000 C   0  0  0  0  0  0  0  0  0  0  0  0
    7.7984  -11.3859    0.0000 C   0  0  0  0  0  0  0  0  0  0  0  0
    7.0839  -10.9734    0.0000 C   0  0  0  0  0  0  0  0  0  0  0  0
    6.3695  -11.3859    0.0000 C   0  0  0  0  0  0  0  0  0  0  0  0
    5.6550  -10.9734    0.0000 C   0  0  0  0  0  0  0  0  0  0  0  0
    5.6550  -10.1484    0.0000 C   0  0  0  0  0  0  0  0  0  0  0  0
    6.3695   -9.7359    0.0000 C   0  0  0  0  0  0  0  0  0  0  0  0
    7.0839  -10.1484    0.0000 C   0  0  0  0  0  0  0  0  0  0  0  0
    7.7984   -8.9109    0.0000 C   0  0  0  0  0  0  0  0  0  0  0  0
    7.0839   -8.4984    0.0000 O   0  0  0  0  0  0  0  0  0  0  0  0
    8.5129   -8.4984    0.0000 O   0  0  0  0  0  0  0  0  0  0  0  0
  1  2  1  0  0  0  0
  2  3  2  0  0  0  0
  3  4  1  0  0  0  0
  4  5  2  0  0  0  0
  5  6  1  0  0  0  0
  6  7  2  0  0  0  0
  7  8  1  0  0  0  0
  8  9  2  0  0  0  0
  9 10  1  0  0  0  0
  1 10  2  0  0  0  0
  5 10  1  0  0  0  0
  1 11  1  0  0  0  0
 11 12  2  0  0  0  0
 11 13  1  0  0  0  0
M  END
>  <cdx:groupId>
46

>  <cdx:fragmentId>
9

$$$$
