39695.cdx
  Mrv1902 05222410272D          

 15 16  0  0  0  0            999 V2000
    7.0491   -6.2971    0.0000 C   0  0  0  0  0  0  0  0  0  0  0  0
    7.0517   -7.1221    0.0000 C   0  0  0  0  0  0  0  0  0  0  0  0
    7.7675   -7.5323    0.0000 C   0  0  0  0  0  0  0  0  0  0  0  0
    7.7701   -8.3573    0.0000 C   0  0  0  0  0  0  0  0  0  0  0  0
    7.0569   -8.7721    0.0000 C   0  0  0  0  0  0  0  0  0  0  0  0
    6.3411   -8.3618    0.0000 C   0  0  0  0  0  0  0  0  0  0  0  0
    6.3385   -7.5368    0.0000 C   0  0  0  0  0  0  0  0  0  0  0  0
    6.3334   -5.8868    0.0000 O   0  0  0  0  0  0  0  0  0  0  0  0
    7.7623   -5.8823    0.0000 C   0  0  0  0  0  0  0  0  0  0  0  0
    7.7597   -5.0573    0.0000 C   0  0  0  0  0  0  0  0  0  0  0  0
    8.4729   -4.6426    0.0000 C   0  0  0  0  0  0  0  0  0  0  0  0
    9.1887   -5.0529    0.0000 C   0  0  0  0  0  0  0  0  0  0  0  0
    9.1912   -5.8779    0.0000 C   0  0  0  0  0  0  0  0  0  0  0  0
    8.4781   -6.2926    0.0000 C   0  0  0  0  0  0  0  0  0  0  0  0
    7.0595   -9.5971    0.0000 O   0  0  0  0  0  0  0  0  0  0  0  0
  1  2  1  0  0  0  0
  2  3  1  0  0  0  0
  3  4  2  0  0  0  0
  4  5  1  0  0  0  0
  5  6  2  0  0  0  0
  6  7  1  0  0  0  0
  2  7  2  0  0  0  0
  9 10  1  0  0  0  0
 10 11  2  0  0  0  0
 11 12  1  0  0  0  0
 12 13  2  0  0  0  0
 13 14  1  0  0  0  0
  9 14  2  0  0  0  0
  1  8  2  0  0  0  0
  1  9  1  0  0  0  0
  5 15  1  0  0  0  0
M  END
>  <cdx:groupId>
94

>  <cdx:fragmentId>
9

$$$$
