39699.cdx
  Mrv1902 05222410192D          

 16 16  0  0  0  0            999 V2000
    5.2936   -7.7598    0.0000 C   0  0  0  0  0  0  0  0  0  0  0  0
    5.7720   -7.0877    0.0000 C   0  0  0  0  0  0  0  0  0  0  0  0
    6.5933   -7.1659    0.0000 C   0  0  0  0  0  0  0  0  0  0  0  0
    5.6364   -8.5102    0.0000 O   0  0  0  0  0  0  0  0  0  0  0  0
    4.4723   -7.6815    0.0000 O   0  0  0  0  0  0  0  0  0  0  0  0
    7.4718   -5.2203    0.0000 N   0  0  0  0  0  0  0  0  0  0  0  0
    6.8091   -5.7117    0.0000 C   0  0  0  0  0  0  0  0  0  0  0  0
    7.0717   -6.4938    0.0000 C   0  0  0  0  0  0  0  0  0  0  0  0
    7.8966   -6.4858    0.0000 C   0  0  0  0  0  0  0  0  0  0  0  0
    8.1439   -5.6987    0.0000 C   0  0  0  0  0  0  0  0  0  0  0  0
    8.3880   -7.1485    0.0000 C   0  0  0  0  0  0  0  0  0  0  0  0
    8.0598   -7.9054    0.0000 C   0  0  0  0  0  0  0  0  0  0  0  0
    7.2402   -7.9996    0.0000 O   0  0  0  0  0  0  0  0  0  0  0  0
    8.5512   -8.5680    0.0000 O   0  0  0  0  0  0  0  0  0  0  0  0
    8.9260   -5.4361    0.0000 C   0  0  0  0  0  0  0  0  0  0  0  0
    9.0897   -4.6275    0.0000 N   0  0  0  0  0  0  0  0  0  0  0  0
  1  2  1  0  0  0  0
  2  3  1  0  0  0  0
  1  4  2  0  0  0  0
  1  5  1  0  0  0  0
  6  7  1  0  0  0  0
  7  8  2  0  0  0  0
  8  9  1  0  0  0  0
  9 10  2  0  0  0  0
  6 10  1  0  0  0  0
 12 13  2  0  0  0  0
 12 14  1  0  0  0  0
 11 12  1  0  0  0  0
  9 11  1  0  0  0  0
 15 16  1  0  0  0  0
 10 15  1  0  0  0  0
  3  8  1  0  0  0  0
M  END
>  <cdx:groupId>
1155

>  <cdx:fragmentId>
20

$$$$
