39697.cdx
  Mrv1902 05222410262D          

 13 14  0  0  0  0            999 V2000
    6.8183   -8.5203    0.0000 N   0  0  0  0  0  0  0  0  0  0  0  0
    6.1293   -8.9354    0.0000 C   0  0  0  0  0  0  0  0  0  0  0  0
    6.1343   -9.7397    0.0000 N   0  0  0  0  0  0  0  0  0  0  0  0
    6.8284  -10.1462    0.0000 C   0  0  0  0  0  0  0  0  0  0  0  0
    7.5328   -9.7578    0.0000 N   0  0  0  0  0  0  0  0  0  0  0  0
    8.2472   -9.3453    0.0000 C   0  0  0  0  0  0  0  0  0  0  0  0
    8.2472   -8.5203    0.0000 N   0  0  0  0  0  0  0  0  0  0  0  0
    7.5328   -8.1078    0.0000 C   0  0  0  0  0  0  0  0  0  0  0  0
    6.8183   -9.3453    0.0000 C   0  0  0  0  0  0  0  0  0  0  0  0
    8.9617   -8.1078    0.0000 N   0  0  0  0  0  0  0  0  0  0  0  0
    9.6762   -8.5203    0.0000 O   0  0  0  0  0  0  0  0  0  0  0  0
    5.4198  -10.1522    0.0000 N   0  0  0  0  0  0  0  0  0  0  0  0
    4.7054   -9.7397    0.0000 O   0  0  0  0  0  0  0  0  0  0  0  0
  1  2  1  0  0  0  0
  2  3  1  0  0  0  0
  3  4  1  0  0  0  0
  4  5  1  0  0  0  0
  5  6  1  0  0  0  0
  6  7  1  0  0  0  0
  7  8  1  0  0  0  0
  1  8  1  0  0  0  0
  1  9  1  0  0  0  0
  9  5  1  0  0  0  0
 10 11  2  0  0  0  0
  7 10  1  0  0  0  0
 12 13  2  0  0  0  0
  3 12  1  0  0  0  0
M  END
>  <cdx:groupId>
91

>  <cdx:fragmentId>
54

$$$$
