39698.cdx
  Mrv1902 05222410192D          

 13 12  0  0  0  0            999 V2000
    7.4099   -7.8387    0.0000 C   0  0  0  0  0  0  0  0  0  0  0  0
    5.9810   -7.8438    0.0000 N   0  0  0  0  0  0  0  0  0  0  0  0
    7.4070   -7.0137    0.0000 O   0  0  0  0  0  0  0  0  0  0  0  0
    8.1259   -8.2486    0.0000 O   0  0  0  0  0  0  0  0  0  0  0  0
    5.2680   -8.2589    0.0000 C   0  0  0  0  0  0  0  0  0  0  0  0
    5.2710   -9.0839    0.0000 O   0  0  0  0  0  0  0  0  0  0  0  0
    4.5521   -7.8490    0.0000 C   0  0  0  0  0  0  0  0  0  0  0  0
    8.1348  -10.7236    0.0000 N   0  0  0  0  0  0  0  0  0  0  0  0
    6.7058  -10.7288    0.0000 O   0  0  0  0  0  0  0  0  0  0  0  0
    7.4188  -10.3137    0.0000 C   0  0  0  0  0  0  0  0  0  0  0  0
    7.4159   -9.4887    0.0000 C   0  0  0  0  0  0  0  0  0  0  0  0
    6.6999   -9.0788    0.0000 C   0  0  0  0  0  0  0  0  0  0  0  0
    6.6970   -8.2538    0.0000 C   0  0  1  0  0  0  0  0  0  0  0  0
 10  8  1  0  0  0  0
 10  9  2  0  0  0  0
 11 10  1  0  0  0  0
 12 11  1  0  0  0  0
 13 12  1  0  0  0  0
 13  1  1  0  0  0  0
 13  2  1  6  0  0  0
  1  3  2  0  0  0  0
  1  4  1  0  0  0  0
  5  6  2  0  0  0  0
  5  7  1  0  0  0  0
  2  5  1  0  0  0  0
M  END
>  <cdx:groupId>
44

>  <cdx:fragmentId>
11

$$$$
