39694.cdx
  Mrv1902 05222410262D          

 14 16  0  0  0  0            999 V2000
    7.9057  -10.9983    0.0000 C   0  0  0  0  0  0  0  0  0  0  0  0
    7.9057  -10.1733    0.0000 C   0  0  0  0  0  0  0  0  0  0  0  0
    7.1913   -9.7608    0.0000 O   0  0  0  0  0  0  0  0  0  0  0  0
    6.4768  -10.1733    0.0000 C   0  0  0  0  0  0  0  0  0  0  0  0
    6.4768  -10.9983    0.0000 C   0  0  0  0  0  0  0  0  0  0  0  0
    7.1913  -11.4108    0.0000 O   0  0  0  0  0  0  0  0  0  0  0  0
    8.6202   -9.7608    0.0000 C   0  0  0  0  0  0  0  0  0  0  0  0
    9.3347  -10.1733    0.0000 C   0  0  0  0  0  0  0  0  0  0  0  0
    9.3347  -10.9983    0.0000 C   0  0  0  0  0  0  0  0  0  0  0  0
    8.6202  -11.4108    0.0000 C   0  0  0  0  0  0  0  0  0  0  0  0
    5.7623  -11.4108    0.0000 C   0  0  0  0  0  0  0  0  0  0  0  0
    5.0478  -10.9983    0.0000 C   0  0  0  0  0  0  0  0  0  0  0  0
    5.0478  -10.1733    0.0000 C   0  0  0  0  0  0  0  0  0  0  0  0
    5.7623   -9.7608    0.0000 C   0  0  0  0  0  0  0  0  0  0  0  0
  1  2  1  0  0  0  0
  2  3  1  0  0  0  0
  3  4  1  0  0  0  0
  4  5  1  0  0  0  0
  5  6  1  0  0  0  0
  1  6  1  0  0  0  0
  7  8  1  0  0  0  0
  8  9  2  0  0  0  0
  9 10  1  0  0  0  0
 10  1  2  0  0  0  0
  7  2  2  0  0  0  0
 11 12  1  0  0  0  0
 12 13  2  0  0  0  0
 13 14  1  0  0  0  0
 14  4  2  0  0  0  0
 11  5  2  0  0  0  0
M  END
>  <cdx:fragmentId>
626

$$$$
