39692.cdx
  Mrv1902 05222410282D          

 11  8  0  0  0  0            999 V2000
    7.0343   -7.4479    0.0000 Mg  0  2  0  0  0  0  0  0  0  0  0  0
    8.6676   -7.7229    0.0000 C   0  0  0  0  0  0  0  0  0  0  0  0
    9.3821   -8.1354    0.0000 C   0  0  0  0  0  0  0  0  0  0  0  0
   10.0966   -7.7229    0.0000 C   0  0  0  0  0  0  0  0  0  0  0  0
    8.6676   -6.8979    0.0000 O   0  0  0  0  0  0  0  0  0  0  0  0
    7.9532   -8.1354    0.0000 O   0  5  0  0  0  0  0  0  0  0  0  0
    5.6324   -7.7091    0.0000 C   0  0  0  0  0  0  0  0  0  0  0  0
    4.9179   -8.1216    0.0000 C   0  0  0  0  0  0  0  0  0  0  0  0
    4.2034   -7.7091    0.0000 C   0  0  0  0  0  0  0  0  0  0  0  0
    5.6324   -6.8841    0.0000 O   0  0  0  0  0  0  0  0  0  0  0  0
    6.3468   -8.1216    0.0000 O   0  5  0  0  0  0  0  0  0  0  0  0
  2  3  1  0  0  0  0
  3  4  1  0  0  0  0
  2  5  2  0  0  0  0
  2  6  1  0  0  0  0
  7  8  1  0  0  0  0
  8  9  1  0  0  0  0
  7 10  2  0  0  0  0
  7 11  1  0  0  0  0
M  CHG  3   1   2   6  -1  11  -1
M  END
>  <cdx:fragmentId>
21

$$$$
