39696.cdx
  Mrv1902 05222410262D          

 12 12  0  0  0  0            999 V2000
    4.6294   -7.5862    0.0000 C   0  0  0  0  0  0  0  0  0  0  0  0
    5.2520   -7.0449    0.0000 C   0  0  0  0  0  0  0  0  0  0  0  0
    9.5584   -6.8228    0.0000 N   0  0  0  0  0  0  0  0  0  0  0  0
    7.1795   -8.4886    0.0000 C   0  0  0  0  0  0  0  0  0  0  0  0
    6.0321   -7.3134    0.0000 O   0  0  0  0  0  0  0  0  0  0  0  0
    6.4973   -5.9623    0.0000 O   0  0  0  0  0  0  0  0  0  0  0  0
    6.6547   -6.7722    0.0000 C   0  0  0  0  0  0  0  0  0  0  0  0
    7.4348   -7.0407    0.0000 C   0  0  0  0  0  0  0  0  0  0  0  0
    7.6760   -7.8297    0.0000 C   0  0  0  0  0  0  0  0  0  0  0  0
    8.5009   -7.8441    0.0000 N   0  0  0  0  0  0  0  0  0  0  0  0
    8.7695   -7.0640    0.0000 C   0  0  0  0  0  0  0  0  0  0  0  0
    8.1106   -6.5675    0.0000 S   0  0  0  0  0  0  0  0  0  0  0  0
  5  2  1  0  0  0  0
  2  1  1  0  0  0  0
 11  3  1  0  0  0  0
  9  4  1  0  0  0  0
  8  7  1  0  0  0  0
  7  5  1  0  0  0  0
  7  6  2  0  0  0  0
 12  8  1  0  0  0  0
  9  8  2  0  0  0  0
 10  9  1  0  0  0  0
 11 10  2  0  0  0  0
 12 11  1  0  0  0  0
M  END
>  <cdx:groupId>
42

>  <cdx:fragmentId>
9

$$$$
