397.cdx
  Mrv1902 05222410252D          

 22 24  0  0  0  0            999 V2000
    6.0201   -7.2084    0.0000 C   0  0  0  0  0  0  0  0  0  0  0  0
    6.0201   -8.0334    0.0000 C   0  0  0  0  0  0  0  0  0  0  0  0
    6.7346   -8.4459    0.0000 C   0  0  0  0  0  0  0  0  0  0  0  0
    7.4491   -8.0334    0.0000 C   0  0  0  0  0  0  0  0  0  0  0  0
    7.4491   -7.2084    0.0000 C   0  0  0  0  0  0  0  0  0  0  0  0
    6.7346   -6.7959    0.0000 C   0  0  0  0  0  0  0  0  0  0  0  0
    8.8780   -8.0334    0.0000 C   0  0  0  0  0  0  0  0  0  0  0  0
    8.8780   -7.2084    0.0000 C   0  0  0  0  0  0  0  0  0  0  0  0
    8.1636   -6.7959    0.0000 C   0  0  0  0  0  0  0  0  0  0  0  0
    5.3057   -8.4459    0.0000 O   0  0  0  0  0  0  0  0  0  0  0  0
    5.3057   -9.2709    0.0000 O   0  0  0  0  0  0  0  0  0  0  0  0
    6.0201   -9.6834    0.0000 C   0  0  0  0  0  0  0  0  0  0  0  0
    6.7346   -9.2709    0.0000 C   0  0  0  0  0  0  0  0  0  0  0  0
    6.0201  -10.5084    0.0000 C   0  0  0  0  0  0  0  0  0  0  0  0
    6.7346  -10.9209    0.0000 C   0  0  0  0  0  0  0  0  0  0  0  0
    7.4491  -10.5084    0.0000 C   0  0  0  0  0  0  0  0  0  0  0  0
    7.4491   -9.6834    0.0000 C   0  0  0  0  0  0  0  0  0  0  0  0
    8.1636  -10.9209    0.0000 C   0  0  0  0  0  0  0  0  0  0  0  0
    8.8780  -10.5084    0.0000 C   0  0  0  0  0  0  0  0  0  0  0  0
    8.8780   -9.6834    0.0000 C   0  0  0  0  0  0  0  0  0  0  0  0
    9.2905   -8.7479    0.0000 C   0  0  0  0  0  0  0  0  0  0  0  0
    8.1636   -9.2709    0.0000 O   0  0  0  0  0  0  0  0  0  0  0  0
  1  2  2  0  0  0  0
  2  3  1  0  0  0  0
  3  4  2  0  0  0  0
  4  5  1  0  0  0  0
  5  6  2  0  0  0  0
  6  1  1  0  0  0  0
  7  8  1  0  0  0  0
  8  9  1  0  0  0  0
  9  5  1  0  0  0  0
  2 10  1  0  0  0  0
 11 12  1  0  0  0  0
 12 13  2  0  0  0  0
 13  3  1  0  0  0  0
 12 14  1  0  0  0  0
 14 15  2  0  0  0  0
 15 16  1  0  0  0  0
 16 17  2  0  0  0  0
 17 13  1  0  0  0  0
 16 18  1  0  0  0  0
 18 19  1  0  0  0  0
 19 20  1  0  0  0  0
  7 21  2  0  0  0  0
 21 20  1  0  0  0  0
 20 22  2  0  0  0  0
M  END
>  <cdx:fragmentId>
5

$$$$
