39700.cdx
  Mrv1902 05222410182D          

 16 17  0  0  0  0            999 V2000
    5.2216   -8.0060    0.0000 O   0  0  0  0  0  0  0  0  0  0  0  0
    6.0105   -8.2474    0.0000 C   0  0  0  0  0  0  0  0  0  0  0  0
    6.0246   -9.0723    0.0000 C   0  0  0  0  0  0  0  0  0  0  0  0
    5.2445   -9.3407    0.0000 C   0  0  0  0  0  0  0  0  0  0  0  0
   10.1652   -6.9074    0.0000 C   0  0  0  0  0  0  0  0  0  0  0  0
    4.2748   -9.3573    0.0000 C   0  0  0  0  0  0  0  0  0  0  0  0
    3.4859   -9.1159    0.0000 C   0  0  0  0  0  0  0  0  0  0  0  0
    3.4718   -8.2910    0.0000 C   0  0  0  0  0  0  0  0  0  0  0  0
    4.2519   -8.0226    0.0000 O   0  0  0  0  0  0  0  0  0  0  0  0
    4.7482   -8.6816    0.0000 C   0  0  0  0  0  0  0  0  0  0  0  0
    9.5062   -7.4037    0.0000 S   0  0  0  0  0  0  0  0  0  0  0  0
    9.6065   -8.2226    0.0000 C   0  0  0  0  0  0  0  0  0  0  0  0
    8.9475   -8.7189    0.0000 C   0  0  0  0  0  0  0  0  0  0  0  0
    8.1882   -8.3963    0.0000 C   0  0  0  0  0  0  0  0  0  0  0  0
    7.4288   -8.0737    0.0000 C   0  0  0  0  0  0  0  0  0  0  0  0
    6.6695   -7.7511    0.0000 C   0  0  0  0  0  0  0  0  0  0  0  0
  6 10  1  0  0  0  0
  7  6  1  0  0  0  0
  8  7  1  0  0  0  0
  9  8  1  0  0  0  0
 10  9  1  0  0  0  0
 12 11  1  0  0  0  0
 11  5  1  0  0  0  0
 13 12  2  0  0  0  0
 14 13  1  0  0  0  0
 15 14  3  0  0  0  0
 16 15  1  0  0  0  0
  1  2  1  0  0  0  0
  2  3  1  0  0  0  0
  3  4  2  0  0  0  0
  4 10  1  0  0  0  0
  1 10  1  0  0  0  0
  2 16  2  0  0  0  0
M  END
>  <cdx:groupId>
55

>  <cdx:fragmentId>
272

$$$$
