39703.cdx
  Mrv1902 05222410192D          

 18 17  0  0  0  0            999 V2000
   11.6714   -8.2621    0.0000 C   0  0  0  0  0  0  0  0  0  0  0  0
   10.9569   -7.8496    0.0000 S   0  0  0  0  0  0  0  0  0  0  0  0
   10.2425   -8.2621    0.0000 C   0  0  0  0  0  0  0  0  0  0  0  0
    9.5280   -7.8496    0.0000 C   0  0  0  0  0  0  0  0  0  0  0  0
    8.8135   -8.2621    0.0000 C   0  0  0  0  0  0  0  0  0  0  0  0
    8.0990   -7.8496    0.0000 C   0  0  0  0  0  0  0  0  0  0  0  0
    7.3846   -8.2621    0.0000 C   0  0  0  0  0  0  0  0  0  0  0  0
    6.6701   -7.8496    0.0000 C   0  0  0  0  0  0  0  0  0  0  0  0
    5.9556   -8.2621    0.0000 C   0  0  0  0  0  0  0  0  0  0  0  0
    3.0977   -8.2621    0.0000 O   0  0  0  0  0  0  0  0  0  0  0  0
    3.8122   -7.0246    0.0000 O   0  0  0  0  0  0  0  0  0  0  0  0
    4.5267   -6.6121    0.0000 O   0  0  0  0  0  0  0  0  0  0  0  0
    5.9556   -6.6121    0.0000 O   0  0  0  0  0  0  0  0  0  0  0  0
    3.8122   -7.8496    0.0000 C   0  0  0  0  0  0  0  0  0  0  0  0
    4.5267   -8.2621    0.0000 C   0  0  0  0  0  0  0  0  0  0  0  0
    5.2412   -8.6746    0.0000 O   0  0  0  0  0  0  0  0  0  0  0  0
    5.2412   -7.8496    0.0000 C   0  0  0  0  0  0  0  0  0  0  0  0
    5.2412   -7.0246    0.0000 C   0  0  0  0  0  0  0  0  0  0  0  0
 17  9  1  0  0  0  0
  3  2  1  0  0  0  0
  2  1  1  0  0  0  0
  4  3  1  0  0  0  0
  5  4  1  0  0  0  0
  6  5  1  0  0  0  0
  7  6  1  0  0  0  0
  8  7  1  0  0  0  0
  9  8  1  0  0  0  0
 14 10  1  0  0  0  0
 14 11  2  0  0  0  0
 18 12  1  0  0  0  0
 18 13  2  0  0  0  0
 15 14  1  0  0  0  0
 17 15  1  0  0  0  0
 17 16  1  0  0  0  0
 18 17  1  0  0  0  0
M  END
>  <cdx:groupId>
59

>  <cdx:fragmentId>
27

$$$$
