39708.cdx
  Mrv1902 05222410262D          

 23 25  0  0  0  0            999 V2000
    7.7727   -9.4964    0.0000 O   0  0  0  0  0  0  0  0  0  0  0  0
    7.2878   -8.8290    0.0000 C   0  0  0  0  0  0  0  0  0  0  0  0
    6.5032   -9.0839    0.0000 C   0  0  0  0  0  0  0  0  0  0  0  0
    6.5032   -9.9089    0.0000 C   0  0  0  0  0  0  0  0  0  0  0  0
    7.2878  -10.1639    0.0000 C   0  0  0  0  0  0  0  0  0  0  0  0
    5.7887  -10.3214    0.0000 C   0  0  0  0  0  0  0  0  0  0  0  0
    5.0743   -9.9089    0.0000 C   0  0  0  0  0  0  0  0  0  0  0  0
    5.0743   -9.0839    0.0000 C   0  0  0  0  0  0  0  0  0  0  0  0
    5.7887   -8.6714    0.0000 C   0  0  0  0  0  0  0  0  0  0  0  0
    4.3598  -10.3214    0.0000 C   0  0  0  0  0  0  0  0  0  0  0  0
    3.6453  -10.7339    0.0000 N   0  0  0  0  0  0  0  0  0  0  0  0
    7.9009   -8.2769    0.0000 C   0  0  0  0  0  0  0  0  0  0  0  0
    8.6855   -8.5319    0.0000 C   0  0  0  0  0  0  0  0  0  0  0  0
    9.2986   -7.9798    0.0000 C   0  0  0  0  0  0  0  0  0  0  0  0
   10.0832   -8.2348    0.0000 N   0  0  0  0  0  0  0  0  0  0  0  0
   10.6963   -7.6828    0.0000 C   0  0  0  0  0  0  0  0  0  0  0  0
    7.1163   -8.0220    0.0000 C   0  0  0  0  0  0  0  0  0  0  0  0
    6.3317   -7.7671    0.0000 C   0  0  0  0  0  0  0  0  0  0  0  0
    6.1601   -6.9601    0.0000 C   0  0  0  0  0  0  0  0  0  0  0  0
    6.7732   -6.4081    0.0000 C   0  0  0  0  0  0  0  0  0  0  0  0
    7.5579   -6.6630    0.0000 C   0  0  0  0  0  0  0  0  0  0  0  0
    7.7294   -7.4700    0.0000 C   0  0  0  0  0  0  0  0  0  0  0  0
    6.6017   -5.6011    0.0000 F   0  0  0  0  0  0  0  0  0  0  0  0
  1  2  1  0  0  0  0
  2  3  1  0  0  0  0
  3  4  1  0  0  0  0
  4  5  1  0  0  0  0
  1  5  1  0  0  0  0
  6  7  1  0  0  0  0
  7  8  2  0  0  0  0
  8  9  1  0  0  0  0
  9  3  2  0  0  0  0
  6  4  2  0  0  0  0
 10 11  3  0  0  0  0
  7 10  1  0  0  0  0
 12 13  1  0  0  0  0
 13 14  1  0  0  0  0
 15 16  1  0  0  0  0
 14 15  1  0  0  0  0
  2 12  1  0  0  0  0
 17 18  1  0  0  0  0
 18 19  2  0  0  0  0
 19 20  1  0  0  0  0
 20 21  2  0  0  0  0
 21 22  1  0  0  0  0
 17 22  2  0  0  0  0
 20 23  1  0  0  0  0
  2 17  1  0  0  0  0
M  END
>  <cdx:groupId>
77

>  <cdx:fragmentId>
9

$$$$
