39705.cdx
  Mrv1902 05222410202D          

 22 24  0  0  0  0            999 V2000
    7.1407   -6.9143    0.0000 C   0  0  0  0  0  0  0  0  0  0  0  0
    7.8551   -7.3268    0.0000 C   0  0  0  0  0  0  0  0  0  0  0  0
    8.5696   -6.9143    0.0000 C   0  0  0  0  0  0  0  0  0  0  0  0
    7.1407   -6.0893    0.0000 O   0  0  0  0  0  0  0  0  0  0  0  0
    9.2841   -7.3268    0.0000 C   0  0  0  0  0  0  0  0  0  0  0  0
    9.9986   -6.9143    0.0000 C   0  0  0  0  0  0  0  0  0  0  0  0
   10.7130   -7.3268    0.0000 C   0  0  0  0  0  0  0  0  0  0  0  0
   10.7130   -8.1518    0.0000 C   0  0  0  0  0  0  0  0  0  0  0  0
    9.9986   -8.5643    0.0000 C   0  0  0  0  0  0  0  0  0  0  0  0
    9.2841   -8.1518    0.0000 C   0  0  0  0  0  0  0  0  0  0  0  0
    7.8551   -8.1518    0.0000 C   0  0  0  0  0  0  0  0  0  0  0  0
    4.2126   -8.4067    0.0000 O   0  0  0  0  0  0  0  0  0  0  0  0
    3.7277   -7.7393    0.0000 C   0  0  0  0  0  0  0  0  0  0  0  0
    4.2126   -7.0718    0.0000 C   0  0  0  0  0  0  0  0  0  0  0  0
    4.9973   -7.3268    0.0000 C   0  0  0  0  0  0  0  0  0  0  0  0
    5.7117   -6.9143    0.0000 C   0  0  0  0  0  0  0  0  0  0  0  0
    6.4262   -7.3268    0.0000 C   0  0  0  0  0  0  0  0  0  0  0  0
    6.4262   -8.1518    0.0000 C   0  0  0  0  0  0  0  0  0  0  0  0
    5.7117   -8.5643    0.0000 C   0  0  0  0  0  0  0  0  0  0  0  0
    4.9973   -8.1518    0.0000 C   0  0  0  0  0  0  0  0  0  0  0  0
    5.7117   -6.0893    0.0000 O   0  0  0  0  0  0  0  0  0  0  0  0
    6.4262   -5.6768    0.0000 C   0  0  0  0  0  0  0  0  0  0  0  0
  1  2  1  0  0  0  0
  2  3  2  0  0  0  0
  1  4  2  0  0  0  0
  5  6  1  0  0  0  0
  6  7  2  0  0  0  0
  7  8  1  0  0  0  0
  8  9  2  0  0  0  0
  9 10  1  0  0  0  0
  5 10  2  0  0  0  0
  3  5  1  0  0  0  0
  2 11  1  0  0  0  0
 12 13  1  0  0  0  0
 13 14  2  0  0  0  0
 14 15  1  0  0  0  0
 15 16  1  0  0  0  0
 16 17  2  0  0  0  0
 17 18  1  0  0  0  0
 18 19  2  0  0  0  0
 19 20  1  0  0  0  0
 15 20  2  0  0  0  0
 12 20  1  0  0  0  0
 21 22  1  0  0  0  0
 16 21  1  0  0  0  0
  1 17  1  0  0  0  0
M  END
>  <cdx:groupId>
75

>  <cdx:fragmentId>
32

$$$$
