39706.cdx
  Mrv1902 05222410192D          

 20 20  0  0  0  0            999 V2000
    7.9636   -6.3895    0.0000 C   0  0  0  0  0  0  0  0  0  0  0  0
    8.6807   -5.9816    0.0000 C   0  0  0  0  0  0  0  0  0  0  0  0
    9.3925   -6.3987    0.0000 C   0  0  0  0  0  0  0  0  0  0  0  0
   10.1096   -5.9908    0.0000 C   0  0  0  0  0  0  0  0  0  0  0  0
    7.9583   -7.2145    0.0000 O   0  0  0  0  0  0  0  0  0  0  0  0
    7.2518   -5.9724    0.0000 O   0  0  0  0  0  0  0  0  0  0  0  0
    8.6860   -5.1567    0.0000 C   0  0  0  0  0  0  0  0  0  0  0  0
   10.8214   -6.4079    0.0000 O   0  0  0  0  0  0  0  0  0  0  0  0
    9.3872   -7.2237    0.0000 O   0  0  0  0  0  0  0  0  0  0  0  0
    5.8229   -5.9632    0.0000 O   0  0  0  0  0  0  0  0  0  0  0  0
    6.5347   -6.3803    0.0000 C   0  0  2  0  0  0  0  0  0  0  0  0
    6.5294   -7.2053    0.0000 C   0  0  1  0  0  0  0  0  0  0  0  0
    5.8123   -7.6132    0.0000 C   0  0  2  0  0  0  0  0  0  0  0  0
    5.1005   -7.1961    0.0000 C   0  0  1  0  0  0  0  0  0  0  0  0
    5.1058   -6.3711    0.0000 C   0  0  1  0  0  0  0  0  0  0  0  0
    4.3940   -5.9540    0.0000 C   0  0  0  0  0  0  0  0  0  0  0  0
    3.6769   -6.3619    0.0000 O   0  0  0  0  0  0  0  0  0  0  0  0
    4.3834   -7.6040    0.0000 O   0  0  0  0  0  0  0  0  0  0  0  0
    5.8070   -8.4382    0.0000 O   0  0  0  0  0  0  0  0  0  0  0  0
    7.2412   -7.6224    0.0000 O   0  0  0  0  0  0  0  0  0  0  0  0
  1  2  1  0  0  0  0
  2  3  1  0  0  0  0
  3  4  1  0  0  0  0
  1  5  2  0  0  0  0
  1  6  1  0  0  0  0
  2  7  2  0  0  0  0
  4  8  1  0  0  0  0
  3  9  1  0  0  0  0
 10 11  1  0  0  0  0
 11 12  1  0  0  0  0
 12 13  1  0  0  0  0
 13 14  1  0  0  0  0
 14 15  1  0  0  0  0
 10 15  1  0  0  0  0
 16 17  1  0  0  0  0
 15 16  1  1  0  0  0
 14 18  1  6  0  0  0
 13 19  1  1  0  0  0
 12 20  1  6  0  0  0
 11  6  1  1  0  0  0
M  END
>  <cdx:groupId>
66

>  <cdx:fragmentId>
27

$$$$
