39701.cdx
  Mrv1902 05222410182D          

 14 14  0  0  0  0            999 V2000
    8.9435  -10.1734    0.0000 C   0  0  0  0  0  0  0  0  0  0  0  0
    8.2290  -10.5859    0.0000 C   0  0  0  0  0  0  0  0  0  0  0  0
    8.6415  -11.3003    0.0000 C   0  0  0  0  0  0  0  0  0  0  0  0
    8.9435   -9.3484    0.0000 O   0  0  0  0  0  0  0  0  0  0  0  0
    9.6579  -10.5859    0.0000 O   0  0  0  0  0  0  0  0  0  0  0  0
    7.8165  -11.3003    0.0000 C   0  0  0  0  0  0  0  0  0  0  0  0
    7.5145  -10.1734    0.0000 O   0  0  0  0  0  0  0  0  0  0  0  0
    6.8000  -10.5859    0.0000 C   0  0  0  0  0  0  0  0  0  0  0  0
    6.8000  -11.4109    0.0000 C   0  0  0  0  0  0  0  0  0  0  0  0
    6.0856  -11.8234    0.0000 C   0  0  0  0  0  0  0  0  0  0  0  0
    5.3711  -11.4109    0.0000 C   0  0  0  0  0  0  0  0  0  0  0  0
    5.3711  -10.5859    0.0000 C   0  0  0  0  0  0  0  0  0  0  0  0
    6.0856  -10.1734    0.0000 C   0  0  0  0  0  0  0  0  0  0  0  0
    4.6566  -11.8234    0.0000 Cl  0  0  0  0  0  0  0  0  0  0  0  0
  1  2  1  0  0  0  0
  2  3  1  0  0  0  0
  1  4  2  0  0  0  0
  1  5  1  0  0  0  0
  2  6  1  0  0  0  0
  8  9  1  0  0  0  0
  9 10  2  0  0  0  0
 10 11  1  0  0  0  0
 11 12  2  0  0  0  0
 12 13  1  0  0  0  0
  8 13  2  0  0  0  0
  7  8  1  0  0  0  0
 11 14  1  0  0  0  0
  2  7  1  0  0  0  0
M  END
>  <cdx:groupId>
48

>  <cdx:fragmentId>
484

$$$$
