3970.cdx
  Mrv1902 05222410212D          

 11 11  0  0  0  0            999 V2000
    7.9474   -7.8099    0.0000 C   0  0  0  0  0  0  0  0  0  0  0  0
    7.2276   -7.4069    0.0000 C   0  0  0  0  0  0  0  0  0  0  0  0
    6.5186   -7.8287    0.0000 C   0  0  0  0  0  0  0  0  0  0  0  0
    6.5295   -8.6537    0.0000 C   0  0  0  0  0  0  0  0  0  0  0  0
    7.2493   -9.0567    0.0000 C   0  0  0  0  0  0  0  0  0  0  0  0
    7.9583   -8.6348    0.0000 C   0  0  0  0  0  0  0  0  0  0  0  0
    8.6564   -7.3880    0.0000 O   0  0  0  0  0  0  0  0  0  0  0  0
    5.7988   -7.4257    0.0000 C   0  0  0  0  0  0  0  0  0  0  0  0
    7.2167   -6.5819    0.0000 O   0  0  0  0  0  0  0  0  0  0  0  0
    7.8403   -9.6324    0.0000 C   0  0  0  0  0  0  0  0  0  0  0  0
    6.6737   -9.6477    0.0000 C   0  0  0  0  0  0  0  0  0  0  0  0
  1  2  1  0  0  0  0
  2  3  1  0  0  0  0
  3  4  2  0  0  0  0
  4  5  1  0  0  0  0
  5  6  1  0  0  0  0
  6  1  2  0  0  0  0
  1  7  1  0  0  0  0
  3  8  1  0  0  0  0
  2  9  2  0  0  0  0
  5 10  1  0  0  0  0
  5 11  1  0  0  0  0
M  END
>  <cdx:fragmentId>
5

$$$$
