39709.cdx
  Mrv1902 05222410262D          

 22 24  0  0  0  0            999 V2000
    7.3288   -7.9233    0.0000 C   0  0  0  0  0  0  0  0  0  0  0  0
    8.0432   -7.5108    0.0000 C   0  0  0  0  0  0  0  0  0  0  0  0
    8.7577   -7.9233    0.0000 C   0  0  0  0  0  0  0  0  0  0  0  0
    8.0432   -6.6858    0.0000 N   0  0  0  0  0  0  0  0  0  0  0  0
    8.7577   -8.7483    0.0000 C   0  0  0  0  0  0  0  0  0  0  0  0
    9.4722   -9.1608    0.0000 C   0  0  0  0  0  0  0  0  0  0  0  0
    9.4722   -9.9858    0.0000 C   0  0  0  0  0  0  0  0  0  0  0  0
    8.7577  -10.3983    0.0000 C   0  0  0  0  0  0  0  0  0  0  0  0
    8.0432   -9.9858    0.0000 C   0  0  0  0  0  0  0  0  0  0  0  0
    7.3288  -10.3983    0.0000 S   0  0  0  0  0  0  0  0  0  0  0  0
    6.6143   -9.9858    0.0000 C   0  0  0  0  0  0  0  0  0  0  0  0
    5.8998  -10.3983    0.0000 C   0  0  0  0  0  0  0  0  0  0  0  0
    5.1853   -9.9858    0.0000 C   0  0  0  0  0  0  0  0  0  0  0  0
    5.1853   -9.1608    0.0000 C   0  0  0  0  0  0  0  0  0  0  0  0
    5.8998   -8.7483    0.0000 C   0  0  0  0  0  0  0  0  0  0  0  0
    6.6143   -9.1608    0.0000 C   0  0  0  0  0  0  0  0  0  0  0  0
    7.3288   -8.7483    0.0000 N   0  0  0  0  0  0  0  0  0  0  0  0
    8.0432   -9.1608    0.0000 C   0  0  0  0  0  0  0  0  0  0  0  0
    8.7577   -6.2733    0.0000 C   0  0  0  0  0  0  0  0  0  0  0  0
    8.7577   -5.4483    0.0000 C   0  0  0  0  0  0  0  0  0  0  0  0
    7.3288   -6.2733    0.0000 C   0  0  0  0  0  0  0  0  0  0  0  0
    7.3288   -5.4483    0.0000 C   0  0  0  0  0  0  0  0  0  0  0  0
  1  2  1  0  0  0  0
  2  3  1  0  0  0  0
  2  4  1  0  0  0  0
  5  6  1  0  0  0  0
  6  7  2  0  0  0  0
  7  8  1  0  0  0  0
  8  9  2  0  0  0  0
  9 10  1  0  0  0  0
 10 11  1  0  0  0  0
 11 12  1  0  0  0  0
 12 13  2  0  0  0  0
 13 14  1  0  0  0  0
 14 15  2  0  0  0  0
 15 16  1  0  0  0  0
 11 16  2  0  0  0  0
 16 17  1  0  0  0  0
 17 18  1  0  0  0  0
  9 18  1  0  0  0  0
  5 18  2  0  0  0  0
  1 17  1  0  0  0  0
 19 20  1  0  0  0  0
  4 19  1  0  0  0  0
 21 22  1  0  0  0  0
  4 21  1  0  0  0  0
M  END
>  <cdx:groupId>
75

>  <cdx:fragmentId>
18

$$$$
