39702.cdx
  Mrv1902 05222410182D          

 16 16  0  0  0  0            999 V2000
   10.0492  -10.5858    0.0000 O   0  0  0  0  0  0  0  0  0  0  0  0
    7.9058   -9.3483    0.0000 O   0  0  0  0  0  0  0  0  0  0  0  0
    6.4768  -11.8233    0.0000 O   0  0  0  0  0  0  0  0  0  0  0  0
    5.0479  -10.9983    0.0000 O   0  0  0  0  0  0  0  0  0  0  0  0
    4.3334   -9.7608    0.0000 O   0  0  0  0  0  0  0  0  0  0  0  0
    5.0479   -9.3483    0.0000 C   0  0  0  0  0  0  0  0  0  0  0  0
    5.7624   -9.7608    0.0000 C   0  0  2  0  0  0  0  0  0  0  0  0
    5.7624  -10.5858    0.0000 C   0  0  2  0  0  0  0  0  0  0  0  0
    6.4768  -10.9983    0.0000 C   0  0  1  0  0  0  0  0  0  0  0  0
    7.1913  -10.5858    0.0000 C   0  0  2  0  0  0  0  0  0  0  0  0
    7.1913   -9.7608    0.0000 C   0  0  1  0  0  0  0  0  0  0  0  0
    6.4768   -9.3483    0.0000 O   0  0  0  0  0  0  0  0  0  0  0  0
    7.9058  -10.9983    0.0000 N   0  0  0  0  0  0  0  0  0  0  0  0
    8.6203   -9.7608    0.0000 O   0  0  0  0  0  0  0  0  0  0  0  0
    9.3347  -10.9983    0.0000 C   0  0  0  0  0  0  0  0  0  0  0  0
    8.6203  -10.5858    0.0000 C   0  0  0  0  0  0  0  0  0  0  0  0
 15  1  1  0  0  0  0
 10 13  1  6  0  0  0
 11  2  1  1  0  0  0
  9  3  1  1  0  0  0
  8  4  1  6  0  0  0
  7  6  1  1  0  0  0
  6  5  1  0  0  0  0
 12  7  1  0  0  0  0
  8  7  1  0  0  0  0
  9  8  1  0  0  0  0
 10  9  1  0  0  0  0
 11 10  1  0  0  0  0
 12 11  1  0  0  0  0
 16 13  1  0  0  0  0
 16 14  2  0  0  0  0
 16 15  1  0  0  0  0
M  END
>  <cdx:fragmentId>
503

$$$$
