39714.cdx
  Mrv1902 05222410182D          

 18 19  0  0  0  0            999 V2000
    6.7598   -7.8338    0.0000 C   0  0  0  0  0  0  0  0  0  0  0  0
    5.9348   -7.8338    0.0000 C   0  0  0  0  0  0  0  0  0  0  0  0
    5.5223   -7.1193    0.0000 C   0  0  0  0  0  0  0  0  0  0  0  0
    5.9348   -6.4049    0.0000 C   0  0  0  0  0  0  0  0  0  0  0  0
    6.7598   -6.4049    0.0000 C   0  0  0  0  0  0  0  0  0  0  0  0
    7.1723   -7.1193    0.0000 C   0  0  2  0  0  0  0  0  0  0  0  0
    7.5848   -7.8338    0.0000 C   0  0  0  0  0  0  0  0  0  0  0  0
    8.4098   -7.8338    0.0000 C   0  0  0  0  0  0  0  0  0  0  0  0
    8.8223   -7.1193    0.0000 C   0  0  1  0  0  0  0  0  0  0  0  0
    8.4098   -6.4049    0.0000 C   0  0  0  0  0  0  0  0  0  0  0  0
    7.5848   -6.4049    0.0000 C   0  0  0  0  0  0  0  0  0  0  0  0
    4.6973   -7.1193    0.0000 O   0  0  0  0  0  0  0  0  0  0  0  0
    8.8223   -5.6904    0.0000 C   0  0  0  0  0  0  0  0  0  0  0  0
    6.7598   -5.5799    0.0000 C   0  0  0  0  0  0  0  0  0  0  0  0
    7.4743   -5.9924    0.0000 C   0  0  0  0  0  0  0  0  0  0  0  0
    7.1723   -8.5483    0.0000 C   0  0  0  0  0  0  0  0  0  0  0  0
    9.5368   -7.5318    0.0000 Cl  0  0  0  0  0  0  0  0  0  0  0  0
    9.5368   -6.7068    0.0000 Br  0  0  0  0  0  0  0  0  0  0  0  0
  1  2  2  0  0  0  0
  2  3  1  0  0  0  0
  3  4  1  0  0  0  0
  4  5  1  0  0  0  0
  5  6  1  0  0  0  0
  6  7  1  6  0  0  0
  7  8  1  0  0  0  0
  8  9  1  0  0  0  0
  9 10  1  0  0  0  0
 10 11  1  0  0  0  0
  1  6  1  0  0  0  0
  6 11  1  1  0  0  0
  3 12  2  0  0  0  0
 10 13  1  0  0  0  0
  5 14  1  0  0  0  0
  5 15  1  0  0  0  0
  1 16  1  0  0  0  0
  9 17  1  1  0  0  0
  9 18  1  6  0  0  0
M  END
>  <cdx:groupId>
61

>  <cdx:fragmentId>
9

$$$$
