39713.cdx
  Mrv1902 05222410192D          

 19 19  0  0  0  0            999 V2000
    5.3614   -9.5856    0.0000 O   0  0  0  0  0  0  0  0  0  0  0  0
    6.7999  -10.3938    0.0000 O   0  0  0  0  0  0  0  0  0  0  0  0
    5.6695  -12.1370    0.0000 C   0  0  0  0  0  0  0  0  0  0  0  0
    4.6499  -10.0033    0.0000 C   0  0  0  0  0  0  0  0  0  0  0  0
    3.9325   -9.5959    0.0000 C   0  0  0  0  0  0  0  0  0  0  0  0
    6.0810  -11.4219    0.0000 C   0  0  0  0  0  0  0  0  0  0  0  0
    5.6674  -10.7081    0.0000 O   0  0  0  0  0  0  0  0  0  0  0  0
    8.2010   -7.9029    0.0000 C   0  0  0  0  0  0  0  0  0  0  0  0
   10.3674   -9.9413    0.0000 C   0  0  0  0  0  0  0  0  0  0  0  0
    9.6576  -10.3618    0.0000 C   0  0  0  0  0  0  0  0  0  0  0  0
    9.6669  -11.1867    0.0000 C   0  0  0  0  0  0  0  0  0  0  0  0
    8.9293   -9.1323    0.0000 N   0  0  0  0  0  0  0  0  0  0  0  0
    8.2103   -8.7279    0.0000 C   0  0  0  0  0  0  0  0  0  0  0  0
    7.5005   -9.1484    0.0000 C   0  0  0  0  0  0  0  0  0  0  0  0
    7.5097   -9.9733    0.0000 C   0  0  0  0  0  0  0  0  0  0  0  0
    8.2288  -10.3778    0.0000 N   0  0  0  0  0  0  0  0  0  0  0  0
    8.9386   -9.9573    0.0000 C   0  0  0  0  0  0  0  0  0  0  0  0
    6.4913   -9.2785    0.0000 S   0  0  0  0  0  0  0  0  0  0  0  0
    6.0788   -9.9930    0.0000 P   0  0  0  0  0  0  0  0  0  0  0  0
 19  1  1  0  0  0  0
  7  6  1  0  0  0  0
  6  3  1  0  0  0  0
  2 15  1  0  0  0  0
 13  8  1  0  0  0  0
 17 10  1  0  0  0  0
 10  9  1  0  0  0  0
 11 10  1  0  0  0  0
 17 12  2  0  0  0  0
 13 12  1  0  0  0  0
 14 13  2  0  0  0  0
 15 14  1  0  0  0  0
 16 15  2  0  0  0  0
 17 16  1  0  0  0  0
 19 18  2  0  0  0  0
  4  5  1  0  0  0  0
 19  2  1  0  0  0  0
 19  7  1  0  0  0  0
  1  4  1  0  0  0  0
M  END
>  <cdx:groupId>
553

>  <cdx:fragmentId>
16

$$$$
