39718.cdx
  Mrv1902 05222410282D          

 24 23  0  0  0  0            999 V2000
   12.7413   -8.5233    0.0000 C   0  0  0  0  0  0  0  0  0  0  0  0
   12.0268   -8.9358    0.0000 C   0  0  0  0  0  0  0  0  0  0  0  0
   11.3123   -8.5233    0.0000 C   0  0  0  0  0  0  0  0  0  0  0  0
   10.5978   -8.9358    0.0000 C   0  0  0  0  0  0  0  0  0  0  0  0
    9.8834   -8.5233    0.0000 C   0  0  0  0  0  0  0  0  0  0  0  0
    9.1689   -8.9358    0.0000 C   0  0  0  0  0  0  0  0  0  0  0  0
    8.4544   -8.5233    0.0000 C   0  0  0  0  0  0  0  0  0  0  0  0
    7.7400   -8.9358    0.0000 C   0  0  0  0  0  0  0  0  0  0  0  0
    7.0255   -8.5233    0.0000 C   0  0  0  0  0  0  0  0  0  0  0  0
    6.3110   -8.9358    0.0000 C   0  0  0  0  0  0  0  0  0  0  0  0
    5.5965   -8.5233    0.0000 C   0  0  0  0  0  0  0  0  0  0  0  0
    4.8821   -8.9358    0.0000 C   0  0  0  0  0  0  0  0  0  0  0  0
    4.1676   -8.5233    0.0000 C   0  0  0  0  0  0  0  0  0  0  0  0
    3.4531   -8.9358    0.0000 C   0  0  0  0  0  0  0  0  0  0  0  0
    2.7387   -8.5233    0.0000 C   0  0  0  0  0  0  0  0  0  0  0  0
    2.0242   -8.9358    0.0000 C   0  0  0  0  0  0  0  0  0  0  0  0
    1.3097   -8.5233    0.0000 C   0  0  0  0  0  0  0  0  0  0  0  0
    0.5953   -8.9358    0.0000 C   0  0  0  0  0  0  0  0  0  0  0  0
   12.7413   -7.6983    0.0000 O   0  0  0  0  0  0  0  0  0  0  0  0
   13.4557   -8.9358    0.0000 O   0  0  0  0  0  0  0  0  0  0  0  0
    4.1676   -7.6983    0.0000 O   0  0  0  0  0  0  0  0  0  0  0  0
    4.8821   -9.7608    0.0000 O   0  0  0  0  0  0  0  0  0  0  0  0
    7.0255   -7.6983    0.0000 O   0  0  0  0  0  0  0  0  0  0  0  0
    7.7400   -7.2858    0.0000 O   0  0  0  0  0  0  0  0  0  0  0  0
  1  2  1  0  0  0  0
  2  3  1  0  0  0  0
  3  4  1  0  0  0  0
  4  5  1  0  0  0  0
  5  6  1  0  0  0  0
  6  7  1  0  0  0  0
  7  8  1  0  0  0  0
  8  9  1  0  0  0  0
  9 10  1  0  0  0  0
 10 11  2  0  0  0  0
 11 12  1  0  0  0  0
 12 13  1  0  0  0  0
 13 14  1  0  0  0  0
 14 15  1  0  0  0  0
 15 16  1  0  0  0  0
 16 17  1  0  0  0  0
 17 18  1  0  0  0  0
  1 19  2  0  0  0  0
  1 20  1  0  0  0  0
 13 21  1  0  0  0  0
 12 22  1  0  0  0  0
 23 24  1  0  0  0  0
  9 23  1  0  0  0  0
M  END
>  <cdx:groupId>
77

>  <cdx:fragmentId>
9

$$$$
