39719.cdx
  Mrv1902 05222410282D          

 87 96  0  0  0  0            999 V2000
    7.2330   -8.8275    0.0000 C   0  0  0  0  0  0  0  0  0  0  0  0
    7.2330   -9.6525    0.0000 C   0  0  1  0  0  0  0  0  0  0  0  0
    7.9475  -10.0650    0.0000 C   0  0  2  0  0  0  0  0  0  0  0  0
    8.6620   -9.6525    0.0000 C   0  0  1  0  0  0  0  0  0  0  0  0
    8.6620   -8.8275    0.0000 C   0  0  2  0  0  0  0  0  0  0  0  0
    7.9475   -8.4150    0.0000 C   0  0  0  0  0  0  0  0  0  0  0  0
    9.3764  -10.0650    0.0000 C   0  0  0  0  0  0  0  0  0  0  0  0
   10.0909   -9.6525    0.0000 C   0  0  0  0  0  0  0  0  0  0  0  0
   10.0909   -8.8275    0.0000 C   0  0  2  0  0  0  0  0  0  0  0  0
    9.3764   -8.4150    0.0000 C   0  0  2  0  0  0  0  0  0  0  0  0
   10.8054   -8.4150    0.0000 C   0  0  1  0  0  0  0  0  0  0  0  0
   10.8054   -7.5900    0.0000 C   0  0  0  0  0  0  0  0  0  0  0  0
   10.0909   -7.1775    0.0000 C   0  0  0  0  0  0  0  0  0  0  0  0
    9.3764   -7.5900    0.0000 C   0  0  0  0  0  0  0  0  0  0  0  0
   11.5199   -8.8275    0.0000 C   0  0  0  0  0  0  0  0  0  0  0  0
   12.2343   -8.4150    0.0000 C   0  0  0  0  0  0  0  0  0  0  0  0
   12.2343   -7.5900    0.0000 C   0  0  2  0  0  0  0  0  0  0  0  0
   11.5199   -7.1775    0.0000 C   0  0  1  0  0  0  0  0  0  0  0  0
   12.9488   -7.1775    0.0000 C   0  0  0  0  0  0  0  0  0  0  0  0
   12.9488   -6.3525    0.0000 C   0  0  0  0  0  0  0  0  0  0  0  0
   12.2343   -5.9400    0.0000 C   0  0  0  0  0  0  0  0  0  0  0  0
   11.5199   -6.3525    0.0000 C   0  0  0  0  0  0  0  0  0  0  0  0
   12.2343   -5.1150    0.0000 C   0  0  0  0  0  0  0  0  0  0  0  0
   11.5199   -8.0025    0.0000 H   0  0  0  0  0  0  0  0  0  0  0  0
   12.9488   -8.0025    0.0000 C   0  0  0  0  0  0  0  0  0  0  0  0
   13.6633   -7.5900    0.0000 O   0  0  0  0  0  0  0  0  0  0  0  0
   12.9488   -8.8275    0.0000 O   0  0  0  0  0  0  0  0  0  0  0  0
   10.8054   -9.2400    0.0000 C   0  0  0  0  0  0  0  0  0  0  0  0
   10.0909   -8.0025    0.0000 C   0  0  0  0  0  0  0  0  0  0  0  0
    9.3764   -9.2400    0.0000 H   0  0  0  0  0  0  0  0  0  0  0  0
    8.6620   -8.0025    0.0000 C   0  0  0  0  0  0  0  0  0  0  0  0
    8.6620  -10.4775    0.0000 H   0  0  0  0  0  0  0  0  0  0  0  0
    8.3600  -10.7795    0.0000 C   0  0  0  0  0  0  0  0  0  0  0  0
    7.5350  -10.7795    0.0000 C   0  0  0  0  0  0  0  0  0  0  0  0
    6.5186  -10.0650    0.0000 O   0  0  0  0  0  0  0  0  0  0  0  0
    7.9475  -11.4939    0.0000 O   0  0  0  0  0  0  0  0  0  0  0  0
    5.8041   -9.6525    0.0000 C   0  0  2  0  0  0  0  0  0  0  0  0
    5.8041   -8.8275    0.0000 O   0  0  0  0  0  0  0  0  0  0  0  0
    5.0896   -8.4150    0.0000 C   0  0  0  0  0  0  0  0  0  0  0  0
    4.3751   -8.8275    0.0000 C   0  0  1  0  0  0  0  0  0  0  0  0
    4.3751   -9.6525    0.0000 C   0  0  1  0  0  0  0  0  0  0  0  0
    5.0896  -10.0650    0.0000 C   0  0  1  0  0  0  0  0  0  0  0  0
    5.0896  -10.8900    0.0000 O   0  0  0  0  0  0  0  0  0  0  0  0
    3.6607  -10.0650    0.0000 O   0  0  0  0  0  0  0  0  0  0  0  0
    3.6607   -8.4150    0.0000 O   0  0  0  0  0  0  0  0  0  0  0  0
    4.6945  -11.6143    0.0000 C   0  0  2  0  0  0  0  0  0  0  0  0
    3.8698  -11.6342    0.0000 O   0  0  0  0  0  0  0  0  0  0  0  0
    3.4747  -12.3585    0.0000 C   0  0  2  0  0  0  0  0  0  0  0  0
    3.9044  -13.0628    0.0000 C   0  0  1  0  0  0  0  0  0  0  0  0
    4.7291  -13.0428    0.0000 C   0  0  2  0  0  0  0  0  0  0  0  0
    5.1242  -12.3185    0.0000 C   0  0  1  0  0  0  0  0  0  0  0  0
    3.5093  -13.7870    0.0000 O   0  0  0  0  0  0  0  0  0  0  0  0
    5.1588  -13.7470    0.0000 O   0  0  0  0  0  0  0  0  0  0  0  0
    5.9490  -12.2985    0.0000 O   0  0  0  0  0  0  0  0  0  0  0  0
    2.6499  -12.3785    0.0000 C   0  0  0  0  0  0  0  0  0  0  0  0
   14.3777   -8.0025    0.0000 C   0  0  2  0  0  0  0  0  0  0  0  0
   14.3777   -8.8275    0.0000 O   0  0  0  0  0  0  0  0  0  0  0  0
   15.0922   -9.2400    0.0000 C   0  0  1  0  0  0  0  0  0  0  0  0
   15.8067   -8.8275    0.0000 C   0  0  2  0  0  0  0  0  0  0  0  0
   15.8067   -8.0025    0.0000 C   0  0  1  0  0  0  0  0  0  0  0  0
   15.0922   -7.5900    0.0000 C   0  0  1  0  0  0  0  0  0  0  0  0
   15.0922  -10.0650    0.0000 C   0  0  0  0  0  0  0  0  0  0  0  0
   16.5212   -7.5900    0.0000 O   0  0  0  0  0  0  0  0  0  0  0  0
   16.5212   -9.2400    0.0000 O   0  0  0  0  0  0  0  0  0  0  0  0
   15.0922   -6.7650    0.0000 O   0  0  0  0  0  0  0  0  0  0  0  0
   15.8067  -10.4775    0.0000 O   0  0  0  0  0  0  0  0  0  0  0  0
   15.8067  -11.3025    0.0000 C   0  0  2  0  0  0  0  0  0  0  0  0
   15.0922  -11.7150    0.0000 O   0  0  0  0  0  0  0  0  0  0  0  0
   15.0922  -12.5400    0.0000 C   0  0  1  0  0  0  0  0  0  0  0  0
   15.8067  -12.9525    0.0000 C   0  0  2  0  0  0  0  0  0  0  0  0
   16.5212  -12.5400    0.0000 C   0  0  1  0  0  0  0  0  0  0  0  0
   16.5212  -11.7150    0.0000 C   0  0  1  0  0  0  0  0  0  0  0  0
   14.3777  -12.9525    0.0000 C   0  0  0  0  0  0  0  0  0  0  0  0
   17.2356  -12.9525    0.0000 O   0  0  0  0  0  0  0  0  0  0  0  0
   17.2356  -11.3025    0.0000 O   0  0  0  0  0  0  0  0  0  0  0  0
   15.8067  -13.7775    0.0000 O   0  0  0  0  0  0  0  0  0  0  0  0
   14.3777  -13.7775    0.0000 O   0  0  0  0  0  0  0  0  0  0  0  0
   16.2217  -14.4905    0.0000 C   0  0  2  0  0  0  0  0  0  0  0  0
   15.8117  -15.2064    0.0000 O   0  0  0  0  0  0  0  0  0  0  0  0
   16.2267  -15.9194    0.0000 C   0  0  2  0  0  0  0  0  0  0  0  0
   17.0517  -15.9165    0.0000 C   0  0  1  0  0  0  0  0  0  0  0  0
   17.4617  -15.2006    0.0000 C   0  0  2  0  0  0  0  0  0  0  0  0
   17.0467  -14.4876    0.0000 C   0  0  1  0  0  0  0  0  0  0  0  0
   17.4667  -16.6296    0.0000 O   0  0  0  0  0  0  0  0  0  0  0  0
   15.8167  -16.6354    0.0000 C   0  0  0  0  0  0  0  0  0  0  0  0
   18.2867  -15.1977    0.0000 O   0  0  0  0  0  0  0  0  0  0  0  0
   17.4567  -13.7717    0.0000 O   0  0  0  0  0  0  0  0  0  0  0  0
  1  2  1  0  0  0  0
  2  3  1  0  0  0  0
  3  4  1  0  0  0  0
  4  5  1  0  0  0  0
  5  6  1  0  0  0  0
  6  1  1  0  0  0  0
  4  7  1  0  0  0  0
  7  8  1  0  0  0  0
  8  9  1  0  0  0  0
  9 10  1  0  0  0  0
 10  5  1  0  0  0  0
  9 11  1  0  0  0  0
 11 12  1  0  0  0  0
 12 13  2  0  0  0  0
 13 14  1  0  0  0  0
 14 10  1  0  0  0  0
 11 15  1  0  0  0  0
 15 16  1  0  0  0  0
 16 17  1  0  0  0  0
 17 18  1  0  0  0  0
 18 12  1  0  0  0  0
 17 19  1  0  0  0  0
 19 20  1  0  0  0  0
 20 21  1  0  0  0  0
 21 22  1  0  0  0  0
 22 18  1  0  0  0  0
 21 23  2  0  0  0  0
 18 24  1  1  0  0  0
 17 25  1  1  0  0  0
 25 26  1  0  0  0  0
 25 27  2  0  0  0  0
 11 28  1  6  0  0  0
  9 29  1  1  0  0  0
 10 30  1  6  0  0  0
  5 31  1  1  0  0  0
  4 32  1  6  0  0  0
  3 33  1  6  0  0  0
  3 34  1  1  0  0  0
  2 35  1  1  0  0  0
 33 36  1  0  0  0  0
 37 35  1  1  0  0  0
 37 38  1  0  0  0  0
 38 39  1  0  0  0  0
 39 40  1  0  0  0  0
 40 41  1  0  0  0  0
 41 42  1  0  0  0  0
 42 37  1  0  0  0  0
 42 43  1  6  0  0  0
 41 44  1  1  0  0  0
 40 45  1  1  0  0  0
 46 43  1  1  0  0  0
 46 47  1  0  0  0  0
 47 48  1  0  0  0  0
 48 49  1  0  0  0  0
 49 50  1  0  0  0  0
 50 51  1  0  0  0  0
 51 46  1  0  0  0  0
 49 52  1  1  0  0  0
 50 53  1  6  0  0  0
 51 54  1  6  0  0  0
 48 55  1  6  0  0  0
 56 26  1  1  0  0  0
 56 57  1  0  0  0  0
 57 58  1  0  0  0  0
 58 59  1  0  0  0  0
 59 60  1  0  0  0  0
 60 61  1  0  0  0  0
 61 56  1  0  0  0  0
 58 62  1  1  0  0  0
 60 63  1  1  0  0  0
 59 64  1  6  0  0  0
 61 65  1  6  0  0  0
 62 66  1  0  0  0  0
 67 66  1  1  0  0  0
 67 68  1  0  0  0  0
 68 69  1  0  0  0  0
 69 70  1  0  0  0  0
 70 71  1  0  0  0  0
 71 72  1  0  0  0  0
 72 67  1  0  0  0  0
 69 73  1  1  0  0  0
 71 74  1  1  0  0  0
 72 75  1  6  0  0  0
 70 76  1  6  0  0  0
 73 77  1  0  0  0  0
 78 76  1  1  0  0  0
 78 79  1  0  0  0  0
 79 80  1  0  0  0  0
 80 81  1  0  0  0  0
 81 82  1  0  0  0  0
 82 83  1  0  0  0  0
 83 78  1  0  0  0  0
 81 84  1  1  0  0  0
 80 85  1  6  0  0  0
 82 86  1  6  0  0  0
 83 87  1  6  0  0  0
M  END
>  <cdx:fragmentId>
272

$$$$
