2216.cdx
  Mrv1902 05222410182D          

 13 14  0  0  0  0            999 V2000
   15.0233   -5.6949    0.0000 N   0  0  0  0  0  0  0  0  0  0  0  0
   15.8450   -5.7689    0.0000 C   0  0  0  0  0  0  0  0  0  0  0  0
   16.0286   -6.5732    0.0000 N   0  0  0  0  0  0  0  0  0  0  0  0
   15.3204   -6.9963    0.0000 C   0  0  0  0  0  0  0  0  0  0  0  0
   14.6991   -6.4535    0.0000 C   0  0  0  0  0  0  0  0  0  0  0  0
   14.5155   -7.2578    0.0000 C   0  0  0  0  0  0  0  0  0  0  0  0
   13.7722   -7.6158    0.0000 C   0  0  0  0  0  0  0  0  0  0  0  0
   13.0289   -7.2578    0.0000 C   0  0  0  0  0  0  0  0  0  0  0  0
   12.8453   -6.4535    0.0000 C   0  0  0  0  0  0  0  0  0  0  0  0
   13.3597   -5.8085    0.0000 C   0  0  0  0  0  0  0  0  0  0  0  0
   14.1847   -5.8085    0.0000 C   0  0  0  0  0  0  0  0  0  0  0  0
   16.3878   -5.1476    0.0000 O   0  0  0  0  0  0  0  0  0  0  0  0
   15.2464   -7.8180    0.0000 O   0  0  0  0  0  0  0  0  0  0  0  0
  1  2  1  0  0  0  0
  2  3  1  0  0  0  0
  3  4  1  0  0  0  0
  4  5  1  0  0  0  0
  5  6  1  0  0  0  0
  6  7  1  0  0  0  0
  7  8  1  0  0  0  0
  8  9  1  0  0  0  0
  9 10  1  0  0  0  0
 10 11  1  0  0  0  0
  1  5  1  0  0  0  0
 11  5  1  0  0  0  0
  2 12  2  0  0  0  0
  4 13  2  0  0  0  0
M  END
>  <cdx:groupId>
46

>  <cdx:fragmentId>
9

$$$$
