39715.cdx
  Mrv1902 05222410182D          

 25 27  0  0  0  0            999 V2000
    8.8677   -8.7571    0.0000 C   0  0  0  0  0  0  0  0  0  0  0  0
    8.8677   -7.9321    0.0000 C   0  0  0  0  0  0  0  0  0  0  0  0
    8.1532   -7.5196    0.0000 C   0  0  0  0  0  0  0  0  0  0  0  0
    7.4388   -7.9321    0.0000 C   0  0  0  0  0  0  0  0  0  0  0  0
    6.7243   -7.5196    0.0000 C   0  0  0  0  0  0  0  0  0  0  0  0
    6.0098   -7.9321    0.0000 C   0  0  0  0  0  0  0  0  0  0  0  0
    6.0098   -8.7571    0.0000 C   0  0  0  0  0  0  0  0  0  0  0  0
    6.7243   -9.1696    0.0000 C   0  0  0  0  0  0  0  0  0  0  0  0
    7.4388   -8.7571    0.0000 C   0  0  0  0  0  0  0  0  0  0  0  0
    8.1532   -9.1696    0.0000 O   0  0  0  0  0  0  0  0  0  0  0  0
    8.1532   -6.6946    0.0000 O   0  0  0  0  0  0  0  0  0  0  0  0
    5.2953   -9.1696    0.0000 O   0  0  0  0  0  0  0  0  0  0  0  0
    4.5809   -8.7571    0.0000 C   0  0  0  0  0  0  0  0  0  0  0  0
    3.8664   -9.1696    0.0000 C   0  0  0  0  0  0  0  0  0  0  0  0
    3.1519   -8.7571    0.0000 C   0  0  0  0  0  0  0  0  0  0  0  0
    2.4375   -9.1696    0.0000 C   0  0  0  0  0  0  0  0  0  0  0  0
    3.1519   -7.9321    0.0000 C   0  0  0  0  0  0  0  0  0  0  0  0
    9.5822   -7.5196    0.0000 C   0  0  0  0  0  0  0  0  0  0  0  0
    9.5822   -6.6946    0.0000 C   0  0  0  0  0  0  0  0  0  0  0  0
   10.2966   -6.2821    0.0000 C   0  0  0  0  0  0  0  0  0  0  0  0
   11.0111   -6.6946    0.0000 C   0  0  0  0  0  0  0  0  0  0  0  0
   11.0111   -7.5196    0.0000 C   0  0  0  0  0  0  0  0  0  0  0  0
   10.2966   -7.9321    0.0000 C   0  0  0  0  0  0  0  0  0  0  0  0
   11.7256   -6.2821    0.0000 O   0  0  0  0  0  0  0  0  0  0  0  0
   12.4400   -6.6946    0.0000 C   0  0  0  0  0  0  0  0  0  0  0  0
  1  2  2  0  0  0  0
  2  3  1  0  0  0  0
  3  4  1  0  0  0  0
  4  5  1  0  0  0  0
  5  6  2  0  0  0  0
  6  7  1  0  0  0  0
  7  8  2  0  0  0  0
  8  9  1  0  0  0  0
  4  9  2  0  0  0  0
  9 10  1  0  0  0  0
  1 10  1  0  0  0  0
  3 11  2  0  0  0  0
 13 14  1  0  0  0  0
 14 15  2  0  0  0  0
 15 16  1  0  0  0  0
 12 13  1  0  0  0  0
 15 17  1  0  0  0  0
  7 12  1  0  0  0  0
 18 19  1  0  0  0  0
 19 20  2  0  0  0  0
 20 21  1  0  0  0  0
 21 22  2  0  0  0  0
 22 23  1  0  0  0  0
 18 23  2  0  0  0  0
 24 25  1  0  0  0  0
 21 24  1  0  0  0  0
  2 18  1  0  0  0  0
M  END
>  <cdx:groupId>
83

>  <cdx:fragmentId>
9

$$$$
