39717.cdx
  Mrv1902 05222410192D          

 31 36  0  0  0  0            999 V2000
    6.0449   -9.4248    0.0000 H   0  0  0  0  0  0  0  0  0  0  0  0
    6.7368   -8.1746    0.0000 H   0  0  0  0  0  0  0  0  0  0  0  0
    8.4716   -5.5441    0.0000 H   0  0  0  0  0  0  0  0  0  0  0  0
    9.9243   -7.5468    0.0000 H   0  0  0  0  0  0  0  0  0  0  0  0
    8.1655   -8.1487    0.0000 H   0  0  0  0  0  0  0  0  0  0  0  0
    7.4586   -6.9241    0.0000 H   0  0  0  0  0  0  0  0  0  0  0  0
    6.7667   -9.8243    0.0000 O   0  0  0  0  0  0  0  0  0  0  0  0
    8.0960   -5.6756    0.0000 C   0  0  0  0  0  0  0  0  0  0  0  0
    6.0299   -6.9499    0.0000 C   0  0  0  0  0  0  0  0  0  0  0  0
   10.8509   -5.2974    0.0000 O   0  0  0  0  0  0  0  0  0  0  0  0
    7.4736   -8.5739    0.0000 C   0  0  0  0  0  0  0  0  0  0  0  0
    6.7667   -8.9993    0.0000 C   0  0  1  0  0  0  0  0  0  0  0  0
    6.0449   -8.5998    0.0000 C   0  0  1  0  0  0  0  0  0  0  0  0
    6.0299   -7.7749    0.0000 C   0  0  2  0  0  0  0  0  0  0  0  0
    6.7368   -7.3496    0.0000 C   0  0  1  0  0  0  0  0  0  0  0  0
    6.7219   -6.5247    0.0000 C   0  0  0  0  0  0  0  0  0  0  0  0
    7.4287   -6.0993    0.0000 C   0  0  0  0  0  0  0  0  0  0  0  0
    8.1506   -6.4988    0.0000 C   0  0  1  0  0  0  0  0  0  0  0  0
    8.9304   -6.2297    0.0000 C   0  0  1  0  0  0  0  0  0  0  0  0
    9.4032   -5.5536    0.0000 C   0  0  0  0  0  0  0  0  0  0  0  0
   10.1923   -5.7943    0.0000 C   0  0  0  0  0  0  0  0  0  0  0  0
   10.2072   -6.6191    0.0000 O   0  0  0  0  0  0  0  0  0  0  0  0
    9.4274   -6.8883    0.0000 C   0  0  1  0  0  0  0  0  0  0  0  0
    8.9546   -7.5644    0.0000 C   0  0  0  0  0  0  0  0  0  0  0  0
    8.1655   -7.3237    0.0000 C   0  0  1  0  0  0  0  0  0  0  0  0
    7.4586   -7.7491    0.0000 C   0  0  2  0  0  0  0  0  0  0  0  0
    5.3757   -7.2723    0.0000 C   0  0  0  0  0  0  0  0  0  0  0  0
    4.5748   -7.4704    0.0000 C   0  0  0  0  0  0  0  0  0  0  0  0
    4.2304   -8.2201    0.0000 N   0  0  0  0  0  0  0  0  0  0  0  0
    4.5748   -8.9568    0.0000 C   0  0  0  0  0  0  0  0  0  0  0  0
    5.3757   -9.1258    0.0000 C   0  0  0  0  0  0  0  0  0  0  0  0
 13  1  1  1  0  0  0
 15  2  1  6  0  0  0
 19  3  1  6  0  0  0
 23  4  1  6  0  0  0
 25  5  1  6  0  0  0
 26  6  1  1  0  0  0
 12  7  1  1  0  0  0
 18  8  1  1  0  0  0
 14  9  1  1  0  0  0
 21 10  2  0  0  0  0
 23 19  1  0  0  0  0
 25 18  1  0  0  0  0
 14 13  1  0  0  0  0
 26 15  1  0  0  0  0
 26 11  1  0  0  0  0
 12 11  1  0  0  0  0
 13 12  1  0  0  0  0
 15 14  1  0  0  0  0
 16 15  1  0  0  0  0
 17 16  1  0  0  0  0
 18 17  1  0  0  0  0
 19 18  1  0  0  0  0
 20 19  1  0  0  0  0
 21 20  1  0  0  0  0
 22 21  1  0  0  0  0
 23 22  1  0  0  0  0
 24 23  1  0  0  0  0
 25 24  1  0  0  0  0
 26 25  1  0  0  0  0
 14 27  1  0  0  0  0
 27 28  1  0  0  0  0
 28 29  1  0  0  0  0
 29 30  1  0  0  0  0
 30 31  1  0  0  0  0
 31 13  1  0  0  0  0
 12 29  1  6  0  0  0
M  END
>  <cdx:groupId>
23168

>  <cdx:fragmentId>
23169

$$$$
