39712.cdx
  Mrv1902 05222410192D          

 22 24  0  0  0  0            999 V2000
    8.5614   -7.2996    0.0000 C   0  0  0  0  0  0  0  0  0  0  0  0
    9.2758   -7.7121    0.0000 C   0  0  0  0  0  0  0  0  0  0  0  0
    9.2758   -8.5371    0.0000 C   0  0  0  0  0  0  0  0  0  0  0  0
    8.5614   -8.9496    0.0000 C   0  0  0  0  0  0  0  0  0  0  0  0
    7.8469   -8.5371    0.0000 C   0  0  0  0  0  0  0  0  0  0  0  0
    7.1324   -8.9496    0.0000 O   0  0  0  0  0  0  0  0  0  0  0  0
    6.4179   -8.5371    0.0000 C   0  0  0  0  0  0  0  0  0  0  0  0
    5.7035   -8.9496    0.0000 C   0  0  0  0  0  0  0  0  0  0  0  0
    4.9890   -8.5371    0.0000 C   0  0  0  0  0  0  0  0  0  0  0  0
    4.9890   -7.7121    0.0000 C   0  0  0  0  0  0  0  0  0  0  0  0
    5.7035   -7.2996    0.0000 C   0  0  0  0  0  0  0  0  0  0  0  0
    6.4179   -7.7121    0.0000 C   0  0  0  0  0  0  0  0  0  0  0  0
    7.1324   -7.2996    0.0000 N   0  0  0  0  0  0  0  0  0  0  0  0
    7.8469   -7.7121    0.0000 C   0  0  0  0  0  0  0  0  0  0  0  0
    8.5614   -6.4746    0.0000 C   0  0  0  0  0  0  0  0  0  0  0  0
    7.8469   -6.0621    0.0000 O   0  0  0  0  0  0  0  0  0  0  0  0
    9.2758   -6.0621    0.0000 O   0  0  0  0  0  0  0  0  0  0  0  0
    5.7035   -6.4746    0.0000 C   0  0  0  0  0  0  0  0  0  0  0  0
    6.4179   -6.0621    0.0000 O   0  0  0  0  0  0  0  0  0  0  0  0
    4.9890   -6.0621    0.0000 O   0  0  0  0  0  0  0  0  0  0  0  0
    9.9903   -8.9496    0.0000 O   0  0  0  0  0  0  0  0  0  0  0  0
    9.9903   -7.2996    0.0000 N   0  0  0  0  0  0  0  0  0  0  0  0
  1  2  2  0  0  0  0
  2  3  1  0  0  0  0
  3  4  1  0  0  0  0
  4  5  2  0  0  0  0
  5  6  1  0  0  0  0
  6  7  1  0  0  0  0
  7  8  1  0  0  0  0
  8  9  2  0  0  0  0
  9 10  1  0  0  0  0
 10 11  2  0  0  0  0
 11 12  1  0  0  0  0
  7 12  2  0  0  0  0
 12 13  1  0  0  0  0
 13 14  2  0  0  0  0
  5 14  1  0  0  0  0
  1 14  1  0  0  0  0
 15 16  2  0  0  0  0
 15 17  1  0  0  0  0
  1 15  1  0  0  0  0
 18 19  2  0  0  0  0
 18 20  1  0  0  0  0
 11 18  1  0  0  0  0
  3 21  2  0  0  0  0
  2 22  1  0  0  0  0
M  END
>  <cdx:groupId>
364

>  <cdx:fragmentId>
365

$$$$
