39710.cdx
  Mrv1902 05222410202D          

 22 22  0  0  0  0            999 V2000
    9.8283   -9.4996    0.0000 C   0  0  0  0  0  0  0  0  0  0  0  0
    9.1138   -9.9121    0.0000 C   0  0  0  0  0  0  0  0  0  0  0  0
    8.3993   -9.4996    0.0000 C   0  0  0  0  0  0  0  0  0  0  0  0
    7.6848   -9.9121    0.0000 C   0  0  0  0  0  0  0  0  0  0  0  0
    6.9704   -9.4996    0.0000 C   0  0  0  0  0  0  0  0  0  0  0  0
    9.8283   -8.6746    0.0000 O   0  0  0  0  0  0  0  0  0  0  0  0
   10.5427   -9.9121    0.0000 O   0  0  0  0  0  0  0  0  0  0  0  0
    6.9704   -8.6746    0.0000 C   0  0  0  0  0  0  0  0  0  0  0  0
    6.2559   -8.2621    0.0000 C   0  0  0  0  0  0  0  0  0  0  0  0
    6.2559   -7.4371    0.0000 C   0  0  0  0  0  0  0  0  0  0  0  0
    6.9704   -7.0246    0.0000 C   0  0  0  0  0  0  0  0  0  0  0  0
    7.6848   -7.4371    0.0000 C   0  0  0  0  0  0  0  0  0  0  0  0
    7.6848   -8.2621    0.0000 C   0  0  0  0  0  0  0  0  0  0  0  0
    6.9704   -6.1996    0.0000 C   0  0  0  0  0  0  0  0  0  0  0  0
    7.7954   -6.1996    0.0000 F   0  0  0  0  0  0  0  0  0  0  0  0
    6.9704   -5.3746    0.0000 F   0  0  0  0  0  0  0  0  0  0  0  0
    6.1454   -6.1996    0.0000 F   0  0  0  0  0  0  0  0  0  0  0  0
    6.2559   -9.9121    0.0000 N   0  0  0  0  0  0  0  0  0  0  0  0
    6.2559  -10.7371    0.0000 O   0  0  0  0  0  0  0  0  0  0  0  0
    5.5414  -11.1496    0.0000 C   0  0  0  0  0  0  0  0  0  0  0  0
    5.5414  -11.9746    0.0000 C   0  0  0  0  0  0  0  0  0  0  0  0
    4.8270  -12.3871    0.0000 N   0  0  0  0  0  0  0  0  0  0  0  0
  1  2  1  0  0  0  0
  2  3  1  0  0  0  0
  3  4  1  0  0  0  0
  4  5  1  0  0  0  0
  1  6  2  0  0  0  0
  1  7  1  0  0  0  0
  8  9  1  0  0  0  0
  9 10  2  0  0  0  0
 10 11  1  0  0  0  0
 11 12  2  0  0  0  0
 12 13  1  0  0  0  0
  8 13  2  0  0  0  0
 14 15  1  0  0  0  0
 14 16  1  0  0  0  0
 14 17  1  0  0  0  0
 11 14  1  0  0  0  0
  5  8  1  0  0  0  0
 18 19  1  0  0  0  0
 20 21  1  0  0  0  0
 19 20  1  0  0  0  0
 21 22  1  0  0  0  0
  5 18  2  0  0  0  0
M  END
>  <cdx:groupId>
72

>  <cdx:fragmentId>
22893

$$$$
