3972.cdx
  Mrv1902 05222410212D          

 13 13  0  0  0  0            999 V2000
    6.4658   -6.9575    0.0000 C   0  0  0  0  0  0  0  0  0  0  0  0
    6.4658   -7.7825    0.0000 C   0  0  0  0  0  0  0  0  0  0  0  0
    7.1802   -8.1950    0.0000 C   0  0  0  0  0  0  0  0  0  0  0  0
    7.8947   -7.7825    0.0000 C   0  0  0  0  0  0  0  0  0  0  0  0
    7.8947   -6.9575    0.0000 C   0  0  0  0  0  0  0  0  0  0  0  0
    7.1802   -6.5450    0.0000 C   0  0  0  0  0  0  0  0  0  0  0  0
    5.7513   -6.5450    0.0000 O   0  0  0  0  0  0  0  0  0  0  0  0
    7.1802   -5.7200    0.0000 C   0  0  0  0  0  0  0  0  0  0  0  0
    7.8947   -5.3075    0.0000 C   0  0  0  0  0  0  0  0  0  0  0  0
    7.8947   -4.4825    0.0000 C   0  0  0  0  0  0  0  0  0  0  0  0
    8.6092   -4.0700    0.0000 O   0  0  0  0  0  0  0  0  0  0  0  0
    7.1802   -9.0200    0.0000 O   0  0  0  0  0  0  0  0  0  0  0  0
    7.8947   -9.4325    0.0000 C   0  0  0  0  0  0  0  0  0  0  0  0
  1  2  2  0  0  0  0
  2  3  1  0  0  0  0
  3  4  2  0  0  0  0
  4  5  1  0  0  0  0
  5  6  2  0  0  0  0
  6  1  1  0  0  0  0
  1  7  1  0  0  0  0
  6  8  1  0  0  0  0
  8  9  2  0  0  0  0
  9 10  1  0  0  0  0
 10 11  2  0  0  0  0
  3 12  1  0  0  0  0
 12 13  1  0  0  0  0
M  END
>  <cdx:fragmentId>
5

$$$$
