39721.cdx
  Mrv1902 05222410262D          

 31 35  0  0  0  0            999 V2000
    6.4241   -5.8996    0.0000 C   0  0  0  0  0  0  0  0  0  0  0  0
    6.4288   -6.7246    0.0000 C   0  0  0  0  0  0  0  0  0  0  0  0
    5.7168   -7.1412    0.0000 C   0  0  0  0  0  0  0  0  0  0  0  0
    4.9999   -6.7328    0.0000 C   0  0  0  0  0  0  0  0  0  0  0  0
    4.2878   -7.1494    0.0000 C   0  0  0  0  0  0  0  0  0  0  0  0
    3.5710   -6.7410    0.0000 C   0  0  0  0  0  0  0  0  0  0  0  0
    3.5663   -5.9160    0.0000 C   0  0  0  0  0  0  0  0  0  0  0  0
    4.2784   -5.4994    0.0000 C   0  0  0  0  0  0  0  0  0  0  0  0
    4.9952   -5.9078    0.0000 C   0  0  0  0  0  0  0  0  0  0  0  0
    5.7073   -5.4912    0.0000 O   0  0  0  0  0  0  0  0  0  0  0  0
    5.7215   -7.9662    0.0000 O   0  0  0  0  0  0  0  0  0  0  0  0
    2.8495   -5.5076    0.0000 O   0  0  0  0  0  0  0  0  0  0  0  0
    2.8589   -7.1576    0.0000 O   0  0  0  0  0  0  0  0  0  0  0  0
    6.4383   -8.3746    0.0000 O   0  0  0  0  0  0  0  0  0  0  0  0
   10.8332   -7.9369    0.0000 C   0  0  0  0  0  0  0  0  0  0  0  0
   10.4248   -8.6537    0.0000 C   0  0  0  0  0  0  0  0  0  0  0  0
    9.9893   -4.6417    0.0000 C   0  0  0  0  0  0  0  0  0  0  0  0
   10.7156   -6.7000    0.0000 C   0  0  0  0  0  0  0  0  0  0  0  0
   10.7109   -5.8751    0.0000 C   0  0  0  0  0  0  0  0  0  0  0  0
    9.9941   -5.4667    0.0000 C   0  0  0  0  0  0  0  0  0  0  0  0
    9.2820   -5.8832    0.0000 C   0  0  0  0  0  0  0  0  0  0  0  0
    9.2961   -8.3582    0.0000 O   0  0  0  0  0  0  0  0  0  0  0  0
    8.5793   -7.9498    0.0000 C   0  0  0  0  0  0  0  0  0  0  0  0
    7.8672   -8.3664    0.0000 C   0  0  0  0  0  0  0  0  0  0  0  0
    7.1504   -7.9580    0.0000 C   0  0  0  0  0  0  0  0  0  0  0  0
    7.1457   -7.1330    0.0000 C   0  0  0  0  0  0  0  0  0  0  0  0
    7.8578   -6.7164    0.0000 C   0  0  0  0  0  0  0  0  0  0  0  0
    8.5746   -7.1248    0.0000 C   0  0  0  0  0  0  0  0  0  0  0  0
    9.2867   -6.7082    0.0000 C   0  0  0  0  0  0  0  0  0  0  0  0
   10.0035   -7.1166    0.0000 C   0  0  0  0  0  0  0  0  0  0  0  0
   10.0082   -7.9416    0.0000 C   0  0  0  0  0  0  0  0  0  0  0  0
 25 14  1  0  0  0  0
 31 15  1  0  0  0  0
 31 16  1  0  0  0  0
 20 17  1  0  0  0  0
 21 29  2  0  0  0  0
 18 30  2  0  0  0  0
 19 18  1  0  0  0  0
 20 19  2  0  0  0  0
 21 20  1  0  0  0  0
 31 22  1  0  0  0  0
 23 22  1  0  0  0  0
 28 23  2  0  0  0  0
 24 23  1  0  0  0  0
 25 24  2  0  0  0  0
 26 25  1  0  0  0  0
 27 26  2  0  0  0  0
 28 27  1  0  0  0  0
 29 28  1  0  0  0  0
  1  2  1  0  0  0  0
  2  3  1  0  0  0  0
  3  4  1  0  0  0  0
  4  5  1  0  0  0  0
  5  6  2  0  0  0  0
  6  7  1  0  0  0  0
  7  8  2  0  0  0  0
  8  9  1  0  0  0  0
  4  9  2  0  0  0  0
  9 10  1  0  0  0  0
  1 10  1  0  0  0  0
  3 11  2  0  0  0  0
 30 29  1  0  0  0  0
 31 30  1  0  0  0  0
  2 26  1  0  0  0  0
  7 12  1  0  0  0  0
  6 13  1  0  0  0  0
M  END
>  <cdx:fragmentId>
31

$$$$
