39728.cdx
  Mrv1902 05222410182D          

 26 28  0  0  0  0            999 V2000
    8.4933   -9.6937    0.0000 C   0  0  2  0  0  0  0  0  0  0  0  0
    8.4933   -8.8687    0.0000 C   0  0  0  0  0  0  0  0  0  0  0  0
    7.7788   -8.4562    0.0000 C   0  0  2  0  0  0  0  0  0  0  0  0
    7.0643   -8.8687    0.0000 C   0  0  0  0  0  0  0  0  0  0  0  0
    6.3499   -8.4562    0.0000 C   0  0  0  0  0  0  0  0  0  0  0  0
    5.6354   -8.8687    0.0000 C   0  0  0  0  0  0  0  0  0  0  0  0
    5.6354   -9.6937    0.0000 C   0  0  0  0  0  0  0  0  0  0  0  0
    6.3499  -10.1063    0.0000 C   0  0  0  0  0  0  0  0  0  0  0  0
    7.0643   -9.6937    0.0000 C   0  0  0  0  0  0  0  0  0  0  0  0
    7.7788  -10.1063    0.0000 O   0  0  0  0  0  0  0  0  0  0  0  0
    7.7788   -7.6313    0.0000 O   0  0  0  0  0  0  0  0  0  0  0  0
    9.2077  -10.1063    0.0000 C   0  0  0  0  0  0  0  0  0  0  0  0
    9.9222   -9.6937    0.0000 C   0  0  0  0  0  0  0  0  0  0  0  0
   10.6367  -10.1063    0.0000 C   0  0  0  0  0  0  0  0  0  0  0  0
   10.6367  -10.9313    0.0000 C   0  0  0  0  0  0  0  0  0  0  0  0
    9.9222  -11.3438    0.0000 C   0  0  0  0  0  0  0  0  0  0  0  0
    9.2077  -10.9313    0.0000 C   0  0  0  0  0  0  0  0  0  0  0  0
    6.3499  -10.9313    0.0000 C   0  0  0  0  0  0  0  0  0  0  0  0
    5.6354  -11.3438    0.0000 C   0  0  0  0  0  0  0  0  0  0  0  0
    5.6354  -12.1687    0.0000 C   0  0  0  0  0  0  0  0  0  0  0  0
    6.3499  -12.5812    0.0000 C   0  0  0  0  0  0  0  0  0  0  0  0
    4.9209  -12.5812    0.0000 C   0  0  0  0  0  0  0  0  0  0  0  0
    4.9209  -10.1063    0.0000 O   0  0  0  0  0  0  0  0  0  0  0  0
    4.2064   -9.6937    0.0000 C   0  0  0  0  0  0  0  0  0  0  0  0
    6.3499   -7.6313    0.0000 O   0  0  0  0  0  0  0  0  0  0  0  0
    5.6354   -7.2188    0.0000 C   0  0  0  0  0  0  0  0  0  0  0  0
  1  2  1  0  0  0  0
  2  3  1  0  0  0  0
  3  4  1  0  0  0  0
  4  5  1  0  0  0  0
  5  6  2  0  0  0  0
  6  7  1  0  0  0  0
  7  8  2  0  0  0  0
  8  9  1  0  0  0  0
  4  9  2  0  0  0  0
  9 10  1  0  0  0  0
  1 10  1  0  0  0  0
  3 11  1  6  0  0  0
 12 13  1  0  0  0  0
 13 14  2  0  0  0  0
 14 15  1  0  0  0  0
 15 16  2  0  0  0  0
 16 17  1  0  0  0  0
 12 17  2  0  0  0  0
  1 12  1  1  0  0  0
 18 19  1  0  0  0  0
 19 20  2  0  0  0  0
 20 21  1  0  0  0  0
 20 22  1  0  0  0  0
  8 18  1  0  0  0  0
 23 24  1  0  0  0  0
  7 23  1  0  0  0  0
 25 26  1  0  0  0  0
  5 25  1  0  0  0  0
M  END
>  <cdx:groupId>
86

>  <cdx:fragmentId>
9

$$$$
