39720.cdx
  Mrv1902 05222410262D          

 31 34  0  0  0  0            999 V2000
    5.2251   -8.6703    0.0000 O   0  0  0  0  0  0  0  0  0  0  0  0
    3.7756   -6.2073    0.0000 O   0  0  0  0  0  0  0  0  0  0  0  0
    8.7870   -7.4030    0.0000 O   0  0  0  0  0  0  0  0  0  0  0  0
   11.3197   -4.6049    0.0000 C   0  0  0  0  0  0  0  0  0  0  0  0
   11.7381   -5.3159    0.0000 C   0  0  0  0  0  0  0  0  0  0  0  0
   10.1953   -4.9162    0.0000 O   0  0  0  0  0  0  0  0  0  0  0  0
    9.4843   -5.3347    0.0000 C   0  0  0  0  0  0  0  0  0  0  0  0
    8.7664   -4.9281    0.0000 C   0  0  0  0  0  0  0  0  0  0  0  0
    8.0554   -5.3466    0.0000 C   0  0  0  0  0  0  0  0  0  0  0  0
    8.0622   -6.1715    0.0000 C   0  0  0  0  0  0  0  0  0  0  0  0
    8.7801   -6.5781    0.0000 C   0  0  0  0  0  0  0  0  0  0  0  0
    9.4911   -6.1596    0.0000 C   0  0  0  0  0  0  0  0  0  0  0  0
   10.2090   -6.5662    0.0000 C   0  0  0  0  0  0  0  0  0  0  0  0
   10.9200   -6.1477    0.0000 C   0  0  0  0  0  0  0  0  0  0  0  0
   10.9131   -5.3228    0.0000 C   0  0  0  0  0  0  0  0  0  0  0  0
    8.8076   -9.8780    0.0000 C   0  0  0  0  0  0  0  0  0  0  0  0
    9.5118   -8.6345    0.0000 C   0  0  0  0  0  0  0  0  0  0  0  0
    8.8008   -9.0530    0.0000 C   0  0  0  0  0  0  0  0  0  0  0  0
    8.0829   -8.6465    0.0000 C   0  0  0  0  0  0  0  0  0  0  0  0
    8.0760   -7.8215    0.0000 C   0  0  0  0  0  0  0  0  0  0  0  0
    6.6540   -8.6584    0.0000 O   0  0  0  0  0  0  0  0  0  0  0  0
    6.6333   -6.1835    0.0000 O   0  0  0  0  0  0  0  0  0  0  0  0
    5.9223   -6.6019    0.0000 C   0  0  0  0  0  0  0  0  0  0  0  0
    5.2045   -6.1954    0.0000 C   0  0  0  0  0  0  0  0  0  0  0  0
    4.4934   -6.6138    0.0000 C   0  0  0  0  0  0  0  0  0  0  0  0
    4.5003   -7.4388    0.0000 C   0  0  0  0  0  0  0  0  0  0  0  0
    5.2182   -7.8453    0.0000 C   0  0  0  0  0  0  0  0  0  0  0  0
    5.9292   -7.4269    0.0000 C   0  0  0  0  0  0  0  0  0  0  0  0
    6.6471   -7.8334    0.0000 C   0  0  0  0  0  0  0  0  0  0  0  0
    7.3581   -7.4150    0.0000 C   0  0  0  0  0  0  0  0  0  0  0  0
    7.3512   -6.5900    0.0000 C   0  0  0  0  0  0  0  0  0  0  0  0
 27  1  1  0  0  0  0
 25  2  1  0  0  0  0
 31 10  1  0  0  0  0
 11  3  1  0  0  0  0
 15  4  1  0  0  0  0
 15  5  1  0  0  0  0
 15  6  1  0  0  0  0
  7  6  1  0  0  0  0
 12  7  2  0  0  0  0
  8  7  1  0  0  0  0
  9  8  2  0  0  0  0
 10  9  1  0  0  0  0
 11 10  2  0  0  0  0
 12 11  1  0  0  0  0
 13 12  1  0  0  0  0
 14 13  2  0  0  0  0
 15 14  1  0  0  0  0
 30 20  1  0  0  0  0
 18 16  1  0  0  0  0
 18 17  1  0  0  0  0
 19 18  2  0  0  0  0
 20 19  1  0  0  0  0
 29 21  2  0  0  0  0
 31 22  1  0  0  0  0
 23 22  1  0  0  0  0
 28 23  2  0  0  0  0
 24 23  1  0  0  0  0
 25 24  2  0  0  0  0
 26 25  1  0  0  0  0
 27 26  2  0  0  0  0
 28 27  1  0  0  0  0
 29 28  1  0  0  0  0
 30 29  1  0  0  0  0
 31 30  2  0  0  0  0
M  END
>  <cdx:fragmentId>
44456

$$$$
