39729.cdx
  Mrv1902 05222410182D          

 28 31  0  0  0  0            999 V2000
    6.5643  -10.3481    0.0000 O   0  0  0  0  0  0  0  0  0  0  0  0
    7.2317   -9.8632    0.0000 C   0  0  0  0  0  0  0  0  0  0  0  0
    7.8991  -10.3481    0.0000 C   0  0  0  0  0  0  0  0  0  0  0  0
    7.6442  -11.1327    0.0000 C   0  0  0  0  0  0  0  0  0  0  0  0
    8.0567  -11.8472    0.0000 C   0  0  0  0  0  0  0  0  0  0  0  0
    7.6442  -12.5617    0.0000 C   0  0  0  0  0  0  0  0  0  0  0  0
    6.8192  -12.5617    0.0000 C   0  0  0  0  0  0  0  0  0  0  0  0
    6.4067  -11.8472    0.0000 C   0  0  0  0  0  0  0  0  0  0  0  0
    6.8192  -11.1327    0.0000 C   0  0  0  0  0  0  0  0  0  0  0  0
    8.0567  -13.2762    0.0000 C   0  0  0  0  0  0  0  0  0  0  0  0
    8.8817  -13.2762    0.0000 C   0  0  0  0  0  0  0  0  0  0  0  0
    9.2942  -13.9906    0.0000 C   0  0  0  0  0  0  0  0  0  0  0  0
    8.8817  -14.7051    0.0000 C   0  0  0  0  0  0  0  0  0  0  0  0
   10.1192  -13.9906    0.0000 C   0  0  0  0  0  0  0  0  0  0  0  0
    6.4067  -13.2762    0.0000 O   0  0  0  0  0  0  0  0  0  0  0  0
   10.2001   -8.6257    0.0000 C   0  0  0  0  0  0  0  0  0  0  0  0
    9.7876   -9.3402    0.0000 C   0  0  0  0  0  0  0  0  0  0  0  0
    7.2317   -6.5632    0.0000 O   0  0  0  0  0  0  0  0  0  0  0  0
    8.6606   -9.0382    0.0000 O   0  0  0  0  0  0  0  0  0  0  0  0
    7.9462   -8.6257    0.0000 C   0  0  0  0  0  0  0  0  0  0  0  0
    7.2317   -9.0382    0.0000 C   0  0  0  0  0  0  0  0  0  0  0  0
    6.5172   -8.6257    0.0000 C   0  0  0  0  0  0  0  0  0  0  0  0
    6.5172   -7.8007    0.0000 C   0  0  0  0  0  0  0  0  0  0  0  0
    7.2317   -7.3882    0.0000 C   0  0  0  0  0  0  0  0  0  0  0  0
    7.9462   -7.8007    0.0000 C   0  0  0  0  0  0  0  0  0  0  0  0
    8.6606   -7.3882    0.0000 C   0  0  0  0  0  0  0  0  0  0  0  0
    9.3751   -7.8007    0.0000 C   0  0  0  0  0  0  0  0  0  0  0  0
    9.3751   -8.6257    0.0000 C   0  0  0  0  0  0  0  0  0  0  0  0
 28 16  1  0  0  0  0
 28 17  1  0  0  0  0
 24 18  1  0  0  0  0
 28 19  1  0  0  0  0
 20 19  1  0  0  0  0
 25 20  2  0  0  0  0
 21 20  1  0  0  0  0
 22 21  2  0  0  0  0
 23 22  1  0  0  0  0
 24 23  2  0  0  0  0
 25 24  1  0  0  0  0
 26 25  1  0  0  0  0
 27 26  2  0  0  0  0
 28 27  1  0  0  0  0
  1  2  1  0  0  0  0
  2  3  2  0  0  0  0
  3  4  1  0  0  0  0
  4  5  1  0  0  0  0
  5  6  2  0  0  0  0
  6  7  1  0  0  0  0
  7  8  2  0  0  0  0
  8  9  1  0  0  0  0
  4  9  2  0  0  0  0
  1  9  1  0  0  0  0
 10 11  1  0  0  0  0
 11 12  2  0  0  0  0
 12 13  1  0  0  0  0
 12 14  1  0  0  0  0
  6 10  1  0  0  0  0
  7 15  1  0  0  0  0
 21  2  1  0  0  0  0
M  END
>  <cdx:groupId>
93

>  <cdx:fragmentId>
35

$$$$
