102397297.cdx
  Mrv1902 05222410222D          

 28 29  0  0  0  0            999 V2000
    8.6724  -15.8559    0.0000 C   0  0  0  0  0  0  0  0  0  0  0  0
    7.9580  -15.4434    0.0000 C   0  0  1  0  0  0  0  0  0  0  0  0
    7.2435  -15.8559    0.0000 C   0  0  2  0  0  0  0  0  0  0  0  0
    7.2435  -16.6809    0.0000 C   0  0  0  0  0  0  0  0  0  0  0  0
    8.6724  -16.6809    0.0000 O   0  0  0  0  0  0  0  0  0  0  0  0
    9.3869  -15.4434    0.0000 O   0  0  0  0  0  0  0  0  0  0  0  0
    7.9580  -14.6184    0.0000 C   0  0  0  0  0  0  0  0  0  0  0  0
    8.6724  -14.2059    0.0000 C   0  0  0  0  0  0  0  0  0  0  0  0
    9.3869  -14.6184    0.0000 C   0  0  0  0  0  0  0  0  0  0  0  0
   10.1014  -14.2059    0.0000 C   0  0  0  0  0  0  0  0  0  0  0  0
   10.1014  -13.3809    0.0000 C   0  0  0  0  0  0  0  0  0  0  0  0
    9.3869  -12.9684    0.0000 C   0  0  0  0  0  0  0  0  0  0  0  0
    8.6724  -13.3809    0.0000 C   0  0  0  0  0  0  0  0  0  0  0  0
   10.8159  -14.6184    0.0000 O   0  0  0  0  0  0  0  0  0  0  0  0
   11.5303  -14.2059    0.0000 C   0  0  0  0  0  0  0  0  0  0  0  0
   10.8159  -12.9684    0.0000 O   0  0  0  0  0  0  0  0  0  0  0  0
    7.9580  -17.0934    0.0000 O   0  0  0  0  0  0  0  0  0  0  0  0
    6.5290  -15.4434    0.0000 C   0  0  0  0  0  0  0  0  0  0  0  0
    5.8146  -15.8559    0.0000 C   0  0  0  0  0  0  0  0  0  0  0  0
    5.1001  -15.4434    0.0000 C   0  0  0  0  0  0  0  0  0  0  0  0
    4.3856  -15.8559    0.0000 C   0  0  0  0  0  0  0  0  0  0  0  0
    4.3856  -16.6809    0.0000 C   0  0  0  0  0  0  0  0  0  0  0  0
    5.1001  -17.0934    0.0000 C   0  0  0  0  0  0  0  0  0  0  0  0
    5.8146  -16.6809    0.0000 C   0  0  0  0  0  0  0  0  0  0  0  0
    3.6711  -17.0934    0.0000 O   0  0  0  0  0  0  0  0  0  0  0  0
    2.9567  -16.6809    0.0000 C   0  0  0  0  0  0  0  0  0  0  0  0
    3.6711  -15.4434    0.0000 O   0  0  0  0  0  0  0  0  0  0  0  0
    2.9567  -15.8559    0.0000 C   0  0  0  0  0  0  0  0  0  0  0  0
  1  2  1  0  0  0  0
  2  3  1  0  0  0  0
  3  4  1  6  0  0  0
  1  5  2  0  0  0  0
  1  6  1  0  0  0  0
  8  9  1  0  0  0  0
  9 10  2  0  0  0  0
 10 11  1  0  0  0  0
 11 12  2  0  0  0  0
 12 13  1  0  0  0  0
  8 13  2  0  0  0  0
 14 15  1  0  0  0  0
 10 14  1  0  0  0  0
 11 16  1  0  0  0  0
  7  8  1  0  0  0  0
  2  7  1  1  0  0  0
  4 17  1  0  0  0  0
 19 20  1  0  0  0  0
 20 21  2  0  0  0  0
 21 22  1  0  0  0  0
 22 23  2  0  0  0  0
 23 24  1  0  0  0  0
 19 24  2  0  0  0  0
 25 26  1  0  0  0  0
 22 25  1  0  0  0  0
 27 28  1  0  0  0  0
 21 27  1  0  0  0  0
 18 19  1  0  0  0  0
  3 18  1  0  0  0  0
M  END
>  <cdx:groupId>
38134

>  <cdx:fragmentId>
38066

$$$$
