39724.cdx
  Mrv1902 05222410282D          

 45 51  0  0  0  0            999 V2000
    5.9070   -7.0001    0.0000 C   0  0  1  0  0  0  0  0  0  0  0  0
    5.1925   -7.4126    0.0000 O   0  0  0  0  0  0  0  0  0  0  0  0
    4.4780   -7.0001    0.0000 C   0  0  0  0  0  0  0  0  0  0  0  0
    3.7635   -7.4126    0.0000 C   0  0  0  0  0  0  0  0  0  0  0  0
    3.0491   -7.0001    0.0000 C   0  0  0  0  0  0  0  0  0  0  0  0
    3.0491   -6.1751    0.0000 C   0  0  0  0  0  0  0  0  0  0  0  0
    3.7635   -5.7626    0.0000 C   0  0  0  0  0  0  0  0  0  0  0  0
    4.4780   -6.1751    0.0000 C   0  0  0  0  0  0  0  0  0  0  0  0
    5.1925   -5.7626    0.0000 C   0  0  1  0  0  0  0  0  0  0  0  0
    5.1914   -4.9376    0.0000 C   0  0  0  0  0  0  0  0  0  0  0  0
    5.9060   -4.5253    0.0000 C   0  0  0  0  0  0  0  0  0  0  0  0
    6.6206   -4.9376    0.0000 C   0  0  0  0  0  0  0  0  0  0  0  0
    6.6214   -5.7626    0.0000 C   0  0  2  0  0  0  0  0  0  0  0  0
    7.3359   -6.1751    0.0000 C   0  0  0  0  0  0  0  0  0  0  0  0
    8.0504   -5.7626    0.0000 C   0  0  0  0  0  0  0  0  0  0  0  0
    8.7648   -6.1751    0.0000 C   0  0  0  0  0  0  0  0  0  0  0  0
    8.7648   -7.0001    0.0000 C   0  0  0  0  0  0  0  0  0  0  0  0
    8.0504   -7.4126    0.0000 C   0  0  0  0  0  0  0  0  0  0  0  0
    7.3359   -7.0001    0.0000 C   0  0  0  0  0  0  0  0  0  0  0  0
    6.6214   -7.4126    0.0000 O   0  0  0  0  0  0  0  0  0  0  0  0
    5.9070   -6.1751    0.0000 C   0  0  2  0  0  0  0  0  0  0  0  0
    2.3346   -7.4126    0.0000 O   0  0  0  0  0  0  0  0  0  0  0  0
    8.0504   -4.9376    0.0000 O   0  0  0  0  0  0  0  0  0  0  0  0
    5.9060   -3.7003    0.0000 C   0  0  0  0  0  0  0  0  0  0  0  0
    9.4793   -7.4126    0.0000 C   0  0  0  0  0  0  0  0  0  0  0  0
   10.1938   -7.0001    0.0000 C   0  0  0  0  0  0  0  0  0  0  0  0
   10.9082   -7.4126    0.0000 C   0  0  0  0  0  0  0  0  0  0  0  0
   10.9082   -8.2376    0.0000 C   0  0  0  0  0  0  0  0  0  0  0  0
   11.6227   -8.6501    0.0000 C   0  0  0  0  0  0  0  0  0  0  0  0
   12.3372   -8.2376    0.0000 C   0  0  0  0  0  0  0  0  0  0  0  0
   12.3372   -7.4126    0.0000 C   0  0  0  0  0  0  0  0  0  0  0  0
   11.6227   -7.0001    0.0000 C   0  0  0  0  0  0  0  0  0  0  0  0
   13.0517   -8.6501    0.0000 O   0  0  0  0  0  0  0  0  0  0  0  0
   10.1938   -8.6501    0.0000 O   0  0  0  0  0  0  0  0  0  0  0  0
    5.9070   -7.8251    0.0000 C   0  0  0  0  0  0  0  0  0  0  0  0
    6.6214   -8.2376    0.0000 C   0  0  0  0  0  0  0  0  0  0  0  0
    6.6214   -9.0626    0.0000 C   0  0  0  0  0  0  0  0  0  0  0  0
    5.9070   -9.4751    0.0000 C   0  0  0  0  0  0  0  0  0  0  0  0
    5.1925   -9.0626    0.0000 C   0  0  0  0  0  0  0  0  0  0  0  0
    5.1925   -8.2376    0.0000 C   0  0  0  0  0  0  0  0  0  0  0  0
    5.9070  -10.3001    0.0000 O   0  0  0  0  0  0  0  0  0  0  0  0
    7.3359   -7.8251    0.0000 O   0  0  0  0  0  0  0  0  0  0  0  0
    4.4780   -5.3501    0.0000 H   0  0  0  0  0  0  0  0  0  0  0  0
    7.3359   -5.3501    0.0000 H   0  0  0  0  0  0  0  0  0  0  0  0
    5.9070   -5.3501    0.0000 H   0  0  0  0  0  0  0  0  0  0  0  0
  1  2  1  0  0  0  0
  2  3  1  0  0  0  0
  3  4  1  0  0  0  0
  4  5  2  0  0  0  0
  5  6  1  0  0  0  0
  6  7  2  0  0  0  0
  7  8  1  0  0  0  0
  8  9  1  0  0  0  0
  9 10  1  0  0  0  0
 10 11  1  0  0  0  0
 11 12  2  0  0  0  0
 12 13  1  0  0  0  0
 13 14  1  0  0  0  0
 14 15  2  0  0  0  0
 15 16  1  0  0  0  0
 16 17  2  0  0  0  0
 17 18  1  0  0  0  0
 18 19  2  0  0  0  0
 19 20  1  0  0  0  0
  1 20  1  0  0  0  0
  1 21  1  0  0  0  0
 21 13  1  0  0  0  0
 14 19  1  0  0  0  0
  3  8  2  0  0  0  0
  9 21  1  0  0  0  0
  5 22  1  0  0  0  0
 15 23  1  0  0  0  0
 11 24  1  0  0  0  0
 25 26  2  0  0  0  0
 27 28  1  0  0  0  0
 28 29  2  0  0  0  0
 29 30  1  0  0  0  0
 30 31  2  0  0  0  0
 31 32  1  0  0  0  0
 27 32  2  0  0  0  0
 30 33  1  0  0  0  0
 28 34  1  0  0  0  0
 26 27  1  0  0  0  0
 17 25  1  0  0  0  0
 35 36  1  0  0  0  0
 36 37  2  0  0  0  0
 37 38  1  0  0  0  0
 38 39  2  0  0  0  0
 39 40  1  0  0  0  0
 35 40  2  0  0  0  0
 38 41  1  0  0  0  0
 36 42  1  0  0  0  0
  1 35  1  1  0  0  0
  9 43  1  6  0  0  0
 13 44  1  1  0  0  0
 21 45  1  1  0  0  0
M  END
>  <cdx:fragmentId>
9

$$$$
