39727.cdx
  Mrv1902 05222410272D          

 29 34  0  0  0  0            999 V2000
    7.2834   -7.9594    0.0000 C   0  0  2  0  0  0  0  0  0  0  0  0
    7.4625   -8.7648    0.0000 C   0  0  0  0  0  0  0  0  0  0  0  0
    6.9839   -9.4367    0.0000 C   0  0  0  0  0  0  0  0  0  0  0  0
    7.3265  -10.1872    0.0000 C   0  0  0  0  0  0  0  0  0  0  0  0
    8.1477  -10.2657    0.0000 C   0  0  0  0  0  0  0  0  0  0  0  0
    8.6264   -9.5938    0.0000 C   0  0  0  0  0  0  0  0  0  0  0  0
    8.2838   -8.8433    0.0000 C   0  0  0  0  0  0  0  0  0  0  0  0
    8.6122   -8.0865    0.0000 N   0  0  0  0  0  0  0  0  0  0  0  0
    7.9940   -7.5402    0.0000 C   0  0  0  0  0  0  0  0  0  0  0  0
    7.9863   -6.7153    0.0000 C   0  0  0  0  0  0  0  0  0  0  0  0
    7.2679   -6.3095    0.0000 C   0  0  0  0  0  0  0  0  0  0  0  0
    6.5574   -6.7287    0.0000 C   0  0  2  0  0  0  0  0  0  0  0  0
    5.8391   -6.3229    0.0000 C   0  0  1  0  0  0  0  0  0  0  0  0
    5.1208   -5.9171    0.0000 O   0  0  0  0  0  0  0  0  0  0  0  0
    5.1285   -6.7421    0.0000 C   0  0  1  0  0  0  0  0  0  0  0  0
    5.1362   -7.5670    0.0000 C   0  0  0  0  0  0  0  0  0  0  0  0
    5.8545   -7.9728    0.0000 N   0  0  0  0  0  0  0  0  0  0  0  0
    6.1650   -8.7382    0.0000 C   0  0  0  0  0  0  0  0  0  0  0  0
    6.9900   -8.7305    0.0000 C   0  0  0  0  0  0  0  0  0  0  0  0
    6.5651   -7.5536    0.0000 C   0  0  2  0  0  0  0  0  0  0  0  0
    8.6968   -6.2961    0.0000 C   0  0  0  0  0  0  0  0  0  0  0  0
    9.4151   -6.7019    0.0000 O   0  0  0  0  0  0  0  0  0  0  0  0
    8.6891   -5.4711    0.0000 O   0  0  0  0  0  0  0  0  0  0  0  0
    6.5496   -5.9037    0.0000 C   0  0  0  0  0  0  0  0  0  0  0  0
    7.2373   -5.4479    0.0000 C   0  0  0  0  0  0  0  0  0  0  0  0
    6.2448   -5.6046    0.0000 H   0  0  0  0  0  0  0  0  0  0  0  0
    4.3035   -6.7498    0.0000 H   0  0  0  0  0  0  0  0  0  0  0  0
    7.2796   -7.1411    0.0000 H   0  0  0  0  0  0  0  0  0  0  0  0
    9.3997   -5.0520    0.0000 C   0  0  0  0  0  0  0  0  0  0  0  0
  1  2  1  0  0  0  0
  2  3  2  0  0  0  0
  3  4  1  0  0  0  0
  4  5  2  0  0  0  0
  5  6  1  0  0  0  0
  6  7  2  0  0  0  0
  7  8  1  0  0  0  0
  8  9  1  0  0  0  0
  9 10  2  0  0  0  0
 10 11  1  0  0  0  0
 11 12  1  0  0  0  0
 12 13  1  0  0  0  0
 13 14  1  0  0  0  0
 14 15  1  0  0  0  0
 15 16  1  0  0  0  0
 16 17  1  0  0  0  0
 17 18  1  0  0  0  0
 18 19  1  0  0  0  0
  1 19  1  1  0  0  0
  1 20  1  0  0  0  0
 20 12  1  0  0  0  0
 13 15  1  0  0  0  0
  1  9  1  0  0  0  0
  2  7  1  0  0  0  0
 17 20  1  0  0  0  0
 21 22  2  0  0  0  0
 21 23  1  0  0  0  0
 10 21  1  0  0  0  0
 24 25  1  0  0  0  0
 12 24  1  6  0  0  0
 13 26  1  1  0  0  0
 15 27  1  1  0  0  0
 20 28  1  6  0  0  0
 23 29  1  0  0  0  0
M  END
>  <cdx:groupId>
233

>  <cdx:fragmentId>
9

$$$$
