39730.cdx
  Mrv1902 05222410282D          

 30 29  0  0  0  0            999 V2000
    2.7401  -11.8437    0.0000 C   0  0  0  0  0  0  0  0  0  0  0  0
    3.4573  -11.4418    0.0000 C   0  0  0  0  0  0  0  0  0  0  0  0
    4.1640  -11.8619    0.0000 C   0  0  0  0  0  0  0  0  0  0  0  0
    4.8811  -11.4599    0.0000 C   0  0  0  0  0  0  0  0  0  0  0  0
    5.5878  -11.8800    0.0000 C   0  0  1  0  0  0  0  0  0  0  0  0
    6.3050  -11.4780    0.0000 C   0  0  1  0  0  0  0  0  0  0  0  0
    7.0117  -11.8981    0.0000 C   0  0  0  0  0  0  0  0  0  0  0  0
    7.7289  -11.4961    0.0000 C   0  0  0  0  0  0  0  0  0  0  0  0
    8.4356  -11.9162    0.0000 C   0  0  0  0  0  0  0  0  0  0  0  0
    9.1527  -11.5143    0.0000 C   0  0  0  0  0  0  0  0  0  0  0  0
    9.8594  -11.9343    0.0000 C   0  0  0  0  0  0  0  0  0  0  0  0
   10.5616  -10.6817    0.0000 C   0  0  0  0  0  0  0  0  0  0  0  0
   11.2744  -10.2721    0.0000 C   0  0  0  0  0  0  0  0  0  0  0  0
   11.2762   -9.4500    0.0000 C   0  0  2  0  0  0  0  0  0  0  0  0
   11.9890   -9.0404    0.0000 C   0  0  0  0  0  0  0  0  0  0  0  0
   11.9907   -8.2183    0.0000 C   0  0  0  0  0  0  0  0  0  0  0  0
   12.7036   -7.8087    0.0000 C   0  0  0  0  0  0  0  0  0  0  0  0
   12.7053   -6.9866    0.0000 C   0  0  0  0  0  0  0  0  0  0  0  0
   12.6947   -6.1645    0.0000 C   0  0  0  0  0  0  0  0  0  0  0  0
   11.8697   -6.1645    0.0000 D   0  0  0  0  0  0  0  0  0  0  0  0
    2.7296  -12.6658    0.0000 O   0  0  0  0  0  0  0  0  0  0  0  0
    2.0334  -11.4236    0.0000 O   0  0  0  0  0  0  0  0  0  0  0  0
   13.5197   -6.1645    0.0000 D   0  0  0  0  0  0  0  0  0  0  0  0
   12.6842   -5.3424    0.0000 D   0  0  0  0  0  0  0  0  0  0  0  0
   13.5303   -6.9866    0.0000 D   0  0  0  0  0  0  0  0  0  0  0  0
   11.8832   -6.9848    0.0000 D   0  0  0  0  0  0  0  0  0  0  0  0
   10.5650   -9.0374    0.0000 O   0  0  0  0  0  0  0  0  0  0  0  0
    6.3155  -10.6559    0.0000 O   0  0  0  0  0  0  0  0  0  0  0  0
    5.5774  -12.7020    0.0000 O   0  0  0  0  0  0  0  0  0  0  0  0
   10.5598  -11.5038    0.0000 C   0  0  0  0  0  0  0  0  0  0  0  0
 30 12  1  0  0  0  0
  1  2  1  0  0  0  0
  2  3  1  0  0  0  0
  3  4  1  0  0  0  0
  4  5  1  0  0  0  0
  5  6  1  0  0  0  0
  6  7  1  0  0  0  0
  7  8  2  0  0  0  0
  8  9  1  0  0  0  0
  9 10  2  0  0  0  0
 10 11  1  0  0  0  0
 11 30  2  0  0  0  0
 12 13  2  0  0  0  0
 13 14  1  0  0  0  0
 14 15  1  0  0  0  0
 15 16  1  0  0  0  0
 16 17  1  0  0  0  0
 17 18  1  0  0  0  0
 18 19  1  0  0  0  0
 19 20  1  0  0  0  0
  1 21  2  0  0  0  0
  1 22  1  0  0  0  0
 19 23  1  0  0  0  0
 19 24  1  0  0  0  0
 18 25  1  0  0  0  0
 18 26  1  0  0  0  0
 14 27  1  1  0  0  0
  6 28  1  6  0  0  0
  5 29  1  1  0  0  0
M  END
>  <cdx:groupId>
134

>  <cdx:fragmentId>
135

$$$$
