39738.cdx
  Mrv1902 05222410202D          

 27 29  0  0  0  0            999 V2000
    8.2595  -10.3812    0.0000 C   0  0  2  0  0  0  0  0  0  0  0  0
    8.2595   -9.5563    0.0000 C   0  0  0  0  0  0  0  0  0  0  0  0
    7.5450   -9.1438    0.0000 C   0  0  2  0  0  0  0  0  0  0  0  0
    6.8306   -9.5563    0.0000 C   0  0  0  0  0  0  0  0  0  0  0  0
    6.1161   -9.1438    0.0000 C   0  0  0  0  0  0  0  0  0  0  0  0
    5.4016   -9.5563    0.0000 C   0  0  0  0  0  0  0  0  0  0  0  0
    5.4016  -10.3812    0.0000 C   0  0  0  0  0  0  0  0  0  0  0  0
    6.1161  -10.7937    0.0000 C   0  0  0  0  0  0  0  0  0  0  0  0
    6.8306  -10.3812    0.0000 C   0  0  0  0  0  0  0  0  0  0  0  0
    7.5450  -10.7937    0.0000 O   0  0  0  0  0  0  0  0  0  0  0  0
    8.9740  -10.7937    0.0000 C   0  0  0  0  0  0  0  0  0  0  0  0
    9.6885  -10.3812    0.0000 C   0  0  0  0  0  0  0  0  0  0  0  0
   10.4029  -10.7937    0.0000 C   0  0  0  0  0  0  0  0  0  0  0  0
   10.4029  -11.6187    0.0000 C   0  0  0  0  0  0  0  0  0  0  0  0
    9.6885  -12.0313    0.0000 C   0  0  0  0  0  0  0  0  0  0  0  0
    8.9740  -11.6187    0.0000 C   0  0  0  0  0  0  0  0  0  0  0  0
    6.1161  -11.6187    0.0000 C   0  0  0  0  0  0  0  0  0  0  0  0
    5.4016  -12.0313    0.0000 C   0  0  0  0  0  0  0  0  0  0  0  0
    5.4016  -12.8563    0.0000 C   0  0  0  0  0  0  0  0  0  0  0  0
    6.1161  -13.2688    0.0000 C   0  0  0  0  0  0  0  0  0  0  0  0
    4.6872  -13.2688    0.0000 C   0  0  0  0  0  0  0  0  0  0  0  0
    4.6872  -10.7937    0.0000 O   0  0  0  0  0  0  0  0  0  0  0  0
    3.9727  -10.3812    0.0000 C   0  0  0  0  0  0  0  0  0  0  0  0
    6.1161   -8.3187    0.0000 O   0  0  0  0  0  0  0  0  0  0  0  0
    5.4016   -7.9063    0.0000 C   0  0  0  0  0  0  0  0  0  0  0  0
    7.5450   -8.3187    0.0000 O   0  0  0  0  0  0  0  0  0  0  0  0
    8.2595   -7.9063    0.0000 C   0  0  0  0  0  0  0  0  0  0  0  0
  1  2  1  0  0  0  0
  2  3  1  0  0  0  0
  3  4  1  0  0  0  0
  4  5  1  0  0  0  0
  5  6  2  0  0  0  0
  6  7  1  0  0  0  0
  7  8  2  0  0  0  0
  8  9  1  0  0  0  0
  4  9  2  0  0  0  0
  9 10  1  0  0  0  0
  1 10  1  0  0  0  0
 11 12  1  0  0  0  0
 12 13  2  0  0  0  0
 13 14  1  0  0  0  0
 14 15  2  0  0  0  0
 15 16  1  0  0  0  0
 11 16  2  0  0  0  0
  1 11  1  1  0  0  0
 17 18  1  0  0  0  0
 18 19  2  0  0  0  0
 19 20  1  0  0  0  0
 19 21  1  0  0  0  0
  8 17  1  0  0  0  0
 22 23  1  0  0  0  0
  7 22  1  0  0  0  0
 24 25  1  0  0  0  0
  5 24  1  0  0  0  0
 26 27  1  0  0  0  0
  3 26  1  6  0  0  0
M  END
>  <cdx:groupId>
90

>  <cdx:fragmentId>
10

$$$$
