39737.cdx
  Mrv1902 05222410262D          

 31 34  0  0  0  0            999 V2000
    4.3497   -9.8343    0.0000 C   0  0  0  0  0  0  0  0  0  0  0  0
    4.3497   -9.0093    0.0000 C   0  0  0  0  0  0  0  0  0  0  0  0
    5.0642   -8.5968    0.0000 C   0  0  0  0  0  0  0  0  0  0  0  0
    5.0642  -10.2468    0.0000 C   0  0  0  0  0  0  0  0  0  0  0  0
    5.7786   -9.8343    0.0000 C   0  0  0  0  0  0  0  0  0  0  0  0
    6.4931  -10.2468    0.0000 C   0  0  0  0  0  0  0  0  0  0  0  0
    7.2076   -9.8343    0.0000 C   0  0  0  0  0  0  0  0  0  0  0  0
    7.2076   -9.0093    0.0000 C   0  0  1  0  0  0  0  0  0  0  0  0
    7.9221   -8.5968    0.0000 C   0  0  2  0  0  0  0  0  0  0  0  0
    8.7067   -8.8517    0.0000 C   0  0  0  0  0  0  0  0  0  0  0  0
    9.1916   -8.1843    0.0000 C   0  0  0  0  0  0  0  0  0  0  0  0
    8.7067   -7.5168    0.0000 C   0  0  2  0  0  0  0  0  0  0  0  0
    8.9616   -6.7322    0.0000 C   0  0  1  0  0  0  0  0  0  0  0  0
    9.7686   -6.5607    0.0000 C   0  0  0  0  0  0  0  0  0  0  0  0
   10.0235   -5.7760    0.0000 C   0  0  0  0  0  0  0  0  0  0  0  0
    8.4096   -6.1191    0.0000 C   0  0  0  0  0  0  0  0  0  0  0  0
    7.9221   -7.7718    0.0000 C   0  0  2  0  0  0  0  0  0  0  0  0
    7.9221   -6.9468    0.0000 C   0  0  0  0  0  0  0  0  0  0  0  0
    7.2076   -7.3593    0.0000 C   0  0  0  0  0  0  0  0  0  0  0  0
    6.4931   -7.7718    0.0000 C   0  0  0  0  0  0  0  0  0  0  0  0
    6.4931   -8.5968    0.0000 C   0  0  0  0  0  0  0  0  0  0  0  0
    5.7786   -9.0093    0.0000 C   0  0  1  0  0  0  0  0  0  0  0  0
    5.7786   -8.1843    0.0000 C   0  0  0  0  0  0  0  0  0  0  0  0
   11.0854   -4.8199    0.0000 O   0  0  0  0  0  0  0  0  0  0  0  0
    7.2076   -6.5343    0.0000 O   0  0  0  0  0  0  0  0  0  0  0  0
    3.6352  -10.2468    0.0000 O   0  0  0  0  0  0  0  0  0  0  0  0
    7.2076   -8.1843    0.0000 H   0  0  0  0  0  0  0  0  0  0  0  0
    7.9221   -9.4218    0.0000 H   0  0  0  0  0  0  0  0  0  0  0  0
   11.3825   -6.2176    0.0000 O   0  0  0  0  0  0  0  0  0  0  0  0
   10.8305   -5.6045    0.0000 C   0  0  0  0  0  0  0  0  0  0  0  0
    9.4913   -7.2619    0.0000 H   0  0  0  0  0  0  0  0  0  0  0  0
 30 24  1  0  0  0  0
 30 29  2  0  0  0  0
  1  2  1  0  0  0  0
  2  3  2  0  0  0  0
  1  4  1  0  0  0  0
  4  5  2  0  0  0  0
  5  6  1  0  0  0  0
  6  7  1  0  0  0  0
  7  8  1  0  0  0  0
  8  9  1  0  0  0  0
  9 10  1  0  0  0  0
 10 11  1  0  0  0  0
 12 11  1  0  0  0  0
 12 13  1  0  0  0  0
 13 14  1  0  0  0  0
 14 15  1  0  0  0  0
 15 30  1  0  0  0  0
 13 16  1  6  0  0  0
 12 17  1  0  0  0  0
  9 17  1  0  0  0  0
 17 18  1  1  0  0  0
 17 19  1  0  0  0  0
 19 20  1  0  0  0  0
 20 21  2  0  0  0  0
  8 21  1  0  0  0  0
 21 22  1  0  0  0  0
  3 22  1  0  0  0  0
  5 22  1  0  0  0  0
 22 23  1  1  0  0  0
 19 25  2  0  0  0  0
  1 26  2  0  0  0  0
  8 27  1  1  0  0  0
  9 28  1  6  0  0  0
 12 31  1  6  0  0  0
M  END
>  <cdx:groupId>
99

>  <cdx:fragmentId>
251

$$$$
