39735.cdx
  Mrv1902 05222410262D          

 29 32  0  0  0  0            999 V2000
    5.3142   -8.5328    0.0000 C   0  0  0  0  0  0  0  0  0  0  0  0
    4.5997   -8.9453    0.0000 C   0  0  0  0  0  0  0  0  0  0  0  0
    4.5997   -9.7703    0.0000 C   0  0  0  0  0  0  0  0  0  0  0  0
    3.8853  -10.1828    0.0000 O   0  0  0  0  0  0  0  0  0  0  0  0
    5.3142  -10.1828    0.0000 C   0  0  0  0  0  0  0  0  0  0  0  0
    6.0287   -9.7703    0.0000 C   0  0  0  0  0  0  0  0  0  0  0  0
    6.7431  -10.1828    0.0000 C   0  0  0  0  0  0  0  0  0  0  0  0
    7.4576   -9.7703    0.0000 C   0  0  0  0  0  0  0  0  0  0  0  0
    7.4576   -8.9453    0.0000 C   0  0  1  0  0  0  0  0  0  0  0  0
    8.1721   -8.5328    0.0000 C   0  0  2  0  0  0  0  0  0  0  0  0
    8.9567   -8.7877    0.0000 C   0  0  0  0  0  0  0  0  0  0  0  0
    9.4416   -8.1203    0.0000 C   0  0  0  0  0  0  0  0  0  0  0  0
    8.9567   -7.4529    0.0000 C   0  0  1  0  0  0  0  0  0  0  0  0
    9.5698   -6.9008    0.0000 C   0  0  0  0  0  0  0  0  0  0  0  0
    9.3983   -6.0938    0.0000 O   0  0  0  0  0  0  0  0  0  0  0  0
   10.3544   -7.1558    0.0000 C   0  0  0  0  0  0  0  0  0  0  0  0
   10.9675   -6.6037    0.0000 O   0  0  0  0  0  0  0  0  0  0  0  0
    8.7852   -6.6459    0.0000 O   0  0  0  0  0  0  0  0  0  0  0  0
    8.1721   -7.7078    0.0000 C   0  0  2  0  0  0  0  0  0  0  0  0
    8.1721   -6.8828    0.0000 C   0  0  0  0  0  0  0  0  0  0  0  0
    7.4576   -7.2953    0.0000 C   0  0  0  0  0  0  0  0  0  0  0  0
    6.7431   -7.7078    0.0000 C   0  0  2  0  0  0  0  0  0  0  0  0
    6.0287   -7.2953    0.0000 O   0  0  0  0  0  0  0  0  0  0  0  0
    6.7431   -8.5328    0.0000 C   0  0  2  0  0  0  0  0  0  0  0  0
    6.0287   -8.9453    0.0000 C   0  0  1  0  0  0  0  0  0  0  0  0
    6.0287   -8.1203    0.0000 C   0  0  0  0  0  0  0  0  0  0  0  0
    6.7431   -9.3578    0.0000 F   0  0  0  0  0  0  0  0  0  0  0  0
    7.4576   -8.1203    0.0000 H   0  0  0  0  0  0  0  0  0  0  0  0
    8.1721   -9.3578    0.0000 H   0  0  0  0  0  0  0  0  0  0  0  0
  1  2  1  0  0  0  0
  2  3  1  0  0  0  0
  3  4  2  0  0  0  0
  3  5  1  0  0  0  0
  5  6  2  0  0  0  0
  6  7  1  0  0  0  0
  7  8  1  0  0  0  0
  8  9  1  0  0  0  0
  9 10  1  0  0  0  0
 10 11  1  0  0  0  0
 11 12  1  0  0  0  0
 12 13  1  0  0  0  0
 13 14  1  0  0  0  0
 14 15  2  0  0  0  0
 14 16  1  0  0  0  0
 16 17  1  0  0  0  0
 13 18  1  6  0  0  0
 13 19  1  0  0  0  0
 10 19  1  0  0  0  0
 19 20  1  1  0  0  0
 19 21  1  0  0  0  0
 21 22  1  0  0  0  0
 22 23  1  1  0  0  0
 22 24  1  0  0  0  0
  9 24  1  0  0  0  0
 24 25  1  0  0  0  0
  1 25  1  0  0  0  0
  6 25  1  0  0  0  0
 25 26  1  1  0  0  0
 24 27  1  6  0  0  0
  9 28  1  1  0  0  0
 10 29  1  6  0  0  0
M  END
>  <cdx:groupId>
96

>  <cdx:fragmentId>
22792

$$$$
