39733.cdx
  Mrv1902 05222410272D          

 24 23  0  0  0  0            999 V2000
    1.0805  -10.7921    0.0000 C   0  0  0  0  0  0  0  0  0  0  0  0
    1.7950  -10.3796    0.0000 C   0  0  0  0  0  0  0  0  0  0  0  0
    2.5094  -10.7921    0.0000 C   0  0  0  0  0  0  0  0  0  0  0  0
    3.2239  -10.3796    0.0000 C   0  0  0  0  0  0  0  0  0  0  0  0
    3.9384  -10.7921    0.0000 C   0  0  0  0  0  0  0  0  0  0  0  0
    4.6529  -10.3796    0.0000 C   0  0  0  0  0  0  0  0  0  0  0  0
    5.3673  -10.7921    0.0000 C   0  0  0  0  0  0  0  0  0  0  0  0
    6.0818  -10.3796    0.0000 C   0  0  0  0  0  0  0  0  0  0  0  0
    6.7963  -10.7921    0.0000 C   0  0  0  0  0  0  0  0  0  0  0  0
    7.5107  -10.3796    0.0000 C   0  0  0  0  0  0  0  0  0  0  0  0
    8.2252  -10.7921    0.0000 C   0  0  0  0  0  0  0  0  0  0  0  0
    8.9397  -10.3796    0.0000 C   0  0  0  0  0  0  0  0  0  0  0  0
    9.6541  -10.7921    0.0000 C   0  0  0  0  0  0  0  0  0  0  0  0
   10.3686  -10.3796    0.0000 C   0  0  0  0  0  0  0  0  0  0  0  0
   11.0831  -10.7921    0.0000 C   0  0  0  0  0  0  0  0  0  0  0  0
   11.7976  -10.3796    0.0000 C   0  0  0  0  0  0  0  0  0  0  0  0
   12.5120  -10.7921    0.0000 C   0  0  0  0  0  0  0  0  0  0  0  0
   13.2265  -10.3796    0.0000 C   0  0  0  0  0  0  0  0  0  0  0  0
    1.0805  -11.6171    0.0000 O   0  0  0  0  0  0  0  0  0  0  0  0
    0.3660  -10.3796    0.0000 O   0  0  0  0  0  0  0  0  0  0  0  0
   13.2265   -9.5546    0.0000 O   0  0  0  0  0  0  0  0  0  0  0  0
   13.9410  -10.7921    0.0000 O   0  0  0  0  0  0  0  0  0  0  0  0
    7.5107   -9.5546    0.0000 O   0  0  0  0  0  0  0  0  0  0  0  0
    6.7963  -11.6171    0.0000 O   0  0  0  0  0  0  0  0  0  0  0  0
  1  2  1  0  0  0  0
  2  3  1  0  0  0  0
  3  4  1  0  0  0  0
  4  5  1  0  0  0  0
  5  6  1  0  0  0  0
  6  7  1  0  0  0  0
  7  8  1  0  0  0  0
  8  9  1  0  0  0  0
  9 10  1  0  0  0  0
 10 11  1  0  0  0  0
 11 12  1  0  0  0  0
 12 13  1  0  0  0  0
 13 14  1  0  0  0  0
 14 15  1  0  0  0  0
 15 16  1  0  0  0  0
 16 17  1  0  0  0  0
 17 18  1  0  0  0  0
  1 19  2  0  0  0  0
  1 20  1  0  0  0  0
 18 21  2  0  0  0  0
 18 22  1  0  0  0  0
 10 23  1  0  0  0  0
  9 24  1  0  0  0  0
M  END
>  <cdx:groupId>
77

>  <cdx:fragmentId>
9

$$$$
