39734.cdx
  Mrv1902 05222410262D          

 29 30  0  0  0  0            999 V2000
   10.0766   -4.7671    0.0000 N   0  0  0  0  0  0  0  0  0  0  0  0
   10.0766   -3.9421    0.0000 C   0  0  0  0  0  0  0  0  0  0  0  0
   10.7911   -5.1796    0.0000 C   0  0  0  0  0  0  0  0  0  0  0  0
    9.3622   -5.1796    0.0000 C   0  0  0  0  0  0  0  0  0  0  0  0
    9.3622   -6.0046    0.0000 C   0  0  0  0  0  0  0  0  0  0  0  0
    8.6477   -6.4171    0.0000 C   0  0  0  0  0  0  0  0  0  0  0  0
    7.9332   -6.0046    0.0000 C   0  0  0  0  0  0  0  0  0  0  0  0
    7.9332   -5.1796    0.0000 C   0  0  0  0  0  0  0  0  0  0  0  0
    8.6477   -4.7671    0.0000 C   0  0  0  0  0  0  0  0  0  0  0  0
    7.2188   -6.4171    0.0000 C   0  0  0  0  0  0  0  0  0  0  0  0
    7.2188   -7.2421    0.0000 C   0  0  0  0  0  0  0  0  0  0  0  0
    7.9332   -7.6546    0.0000 C   0  0  0  0  0  0  0  0  0  0  0  0
    7.9332   -8.4796    0.0000 C   0  0  0  0  0  0  0  0  0  0  0  0
    7.2187   -8.8921    0.0000 C   0  0  0  0  0  0  0  0  0  0  0  0
    6.5043   -8.4796    0.0000 C   0  0  0  0  0  0  0  0  0  0  0  0
    6.5043   -7.6546    0.0000 C   0  0  0  0  0  0  0  0  0  0  0  0
    7.2187   -9.7171    0.0000 N   0  3  0  0  0  0  0  0  0  0  0  0
    6.5043  -10.1296    0.0000 C   0  0  0  0  0  0  0  0  0  0  0  0
    7.9332  -10.1296    0.0000 C   0  0  0  0  0  0  0  0  0  0  0  0
    6.5043   -6.0046    0.0000 C   0  0  0  0  0  0  0  0  0  0  0  0
    5.7898   -6.4171    0.0000 C   0  0  0  0  0  0  0  0  0  0  0  0
    5.0753   -6.0046    0.0000 C   0  0  0  0  0  0  0  0  0  0  0  0
    5.0753   -5.1796    0.0000 C   0  0  0  0  0  0  0  0  0  0  0  0
    5.7898   -4.7671    0.0000 C   0  0  0  0  0  0  0  0  0  0  0  0
    6.5043   -5.1796    0.0000 C   0  0  0  0  0  0  0  0  0  0  0  0
    4.3609   -4.7671    0.0000 N   0  0  0  0  0  0  0  0  0  0  0  0
    4.3609   -3.9421    0.0000 C   0  0  0  0  0  0  0  0  0  0  0  0
    3.6464   -5.1796    0.0000 C   0  0  0  0  0  0  0  0  0  0  0  0
    7.2550  -10.8595    0.0000 Cl  0  5  0  0  0  0  0  0  0  0  0  0
  1  2  1  0  0  0  0
  1  3  1  0  0  0  0
  4  5  1  0  0  0  0
  5  6  2  0  0  0  0
  6  7  1  0  0  0  0
  7  8  2  0  0  0  0
  8  9  1  0  0  0  0
  4  9  2  0  0  0  0
 11 12  1  0  0  0  0
 12 13  2  0  0  0  0
 13 14  1  0  0  0  0
 14 15  1  0  0  0  0
 15 16  2  0  0  0  0
 11 16  1  0  0  0  0
 17 18  1  0  0  0  0
 17 19  1  0  0  0  0
 14 17  2  0  0  0  0
 10 11  2  0  0  0  0
 20 21  1  0  0  0  0
 21 22  2  0  0  0  0
 22 23  1  0  0  0  0
 23 24  2  0  0  0  0
 24 25  1  0  0  0  0
 20 25  2  0  0  0  0
 26 27  1  0  0  0  0
 26 28  1  0  0  0  0
 23 26  1  0  0  0  0
 10 20  1  0  0  0  0
  7 10  1  0  0  0  0
  1  4  1  0  0  0  0
M  CHG  2  17   1  29  -1
M  END
>  <cdx:groupId>
94

>  <cdx:fragmentId>
63

$$$$
