39732.cdx
  Mrv1902 05222410272D          

 26 27  0  0  0  0            999 V2000
    9.6681   -5.0421    0.0000 N   0  0  0  0  0  0  0  0  0  0  0  0
    9.6681   -4.2171    0.0000 C   0  0  0  0  0  0  0  0  0  0  0  0
   10.3826   -5.4546    0.0000 C   0  0  0  0  0  0  0  0  0  0  0  0
    8.9536   -5.4546    0.0000 C   0  0  0  0  0  0  0  0  0  0  0  0
    8.9536   -6.2796    0.0000 C   0  0  0  0  0  0  0  0  0  0  0  0
    8.2392   -6.6921    0.0000 C   0  0  0  0  0  0  0  0  0  0  0  0
    7.5247   -6.2796    0.0000 C   0  0  0  0  0  0  0  0  0  0  0  0
    7.5247   -5.4546    0.0000 C   0  0  0  0  0  0  0  0  0  0  0  0
    8.2392   -5.0421    0.0000 C   0  0  0  0  0  0  0  0  0  0  0  0
    6.8102   -6.6921    0.0000 C   0  0  0  0  0  0  0  0  0  0  0  0
    6.8102   -7.5171    0.0000 C   0  0  0  0  0  0  0  0  0  0  0  0
    7.5247   -7.9296    0.0000 C   0  0  0  0  0  0  0  0  0  0  0  0
    7.5247   -8.7546    0.0000 C   0  0  0  0  0  0  0  0  0  0  0  0
    6.8102   -9.1671    0.0000 C   0  0  0  0  0  0  0  0  0  0  0  0
    6.0957   -8.7546    0.0000 C   0  0  0  0  0  0  0  0  0  0  0  0
    6.0957   -7.9296    0.0000 C   0  0  0  0  0  0  0  0  0  0  0  0
    6.8102   -9.9921    0.0000 N   0  3  0  0  0  0  0  0  0  0  0  0
    6.0957  -10.4046    0.0000 C   0  0  0  0  0  0  0  0  0  0  0  0
    7.5247  -10.4046    0.0000 C   0  0  0  0  0  0  0  0  0  0  0  0
    6.0957   -6.2796    0.0000 C   0  0  0  0  0  0  0  0  0  0  0  0
    5.3813   -6.6921    0.0000 C   0  0  0  0  0  0  0  0  0  0  0  0
    4.6668   -6.2796    0.0000 C   0  0  0  0  0  0  0  0  0  0  0  0
    4.6668   -5.4546    0.0000 C   0  0  0  0  0  0  0  0  0  0  0  0
    5.3813   -5.0421    0.0000 C   0  0  0  0  0  0  0  0  0  0  0  0
    6.0957   -5.4546    0.0000 C   0  0  0  0  0  0  0  0  0  0  0  0
    6.8190  -11.2995    0.0000 Cl  0  5  0  0  0  0  0  0  0  0  0  0
  1  2  1  0  0  0  0
  1  3  1  0  0  0  0
  4  5  1  0  0  0  0
  5  6  2  0  0  0  0
  6  7  1  0  0  0  0
  7  8  2  0  0  0  0
  8  9  1  0  0  0  0
  4  9  2  0  0  0  0
 11 12  1  0  0  0  0
 12 13  2  0  0  0  0
 13 14  1  0  0  0  0
 14 15  1  0  0  0  0
 15 16  2  0  0  0  0
 11 16  1  0  0  0  0
 17 18  1  0  0  0  0
 17 19  1  0  0  0  0
 14 17  2  0  0  0  0
 10 11  2  0  0  0  0
 20 21  1  0  0  0  0
 21 22  2  0  0  0  0
 22 23  1  0  0  0  0
 23 24  2  0  0  0  0
 24 25  1  0  0  0  0
 20 25  2  0  0  0  0
 10 20  1  0  0  0  0
  7 10  1  0  0  0  0
  1  4  1  0  0  0  0
M  CHG  2  17   1  26  -1
M  END
>  <cdx:groupId>
113

>  <cdx:fragmentId>
169

$$$$
