39731.cdx
  Mrv1902 05222410282D          

 27 29  0  0  0  0            999 V2000
    8.3662   -8.4271    0.0000 C   0  0  1  0  0  0  0  0  0  0  0  0
    9.0807   -8.0146    0.0000 C   0  0  1  0  0  0  0  0  0  0  0  0
    9.0807   -7.1896    0.0000 C   0  0  1  0  0  0  0  0  0  0  0  0
    8.3662   -6.7771    0.0000 C   0  0  0  0  0  0  0  0  0  0  0  0
    7.6517   -7.1896    0.0000 C   0  0  0  0  0  0  0  0  0  0  0  0
    7.6517   -8.0146    0.0000 O   0  0  0  0  0  0  0  0  0  0  0  0
    9.8653   -6.9346    0.0000 C   0  0  0  0  0  0  0  0  0  0  0  0
   10.3502   -7.6021    0.0000 C   0  0  0  0  0  0  0  0  0  0  0  0
    9.8653   -8.2695    0.0000 C   0  0  0  0  0  0  0  0  0  0  0  0
    8.3662   -5.9521    0.0000 C   0  0  0  0  0  0  0  0  0  0  0  0
    9.0807   -5.5396    0.0000 O   0  0  0  0  0  0  0  0  0  0  0  0
    7.6517   -5.5396    0.0000 O   0  0  0  0  0  0  0  0  0  0  0  0
    8.3662   -9.2521    0.0000 O   0  0  0  0  0  0  0  0  0  0  0  0
    6.9372   -9.2521    0.0000 O   0  0  0  0  0  0  0  0  0  0  0  0
    7.6517   -9.6646    0.0000 C   0  0  2  0  0  0  0  0  0  0  0  0
    7.6517  -10.4896    0.0000 C   0  0  1  0  0  0  0  0  0  0  0  0
    6.9372  -10.9021    0.0000 C   0  0  2  0  0  0  0  0  0  0  0  0
    6.2228  -10.4896    0.0000 C   0  0  1  0  0  0  0  0  0  0  0  0
    6.2228   -9.6646    0.0000 C   0  0  1  0  0  0  0  0  0  0  0  0
    5.5083   -9.2521    0.0000 C   0  0  0  0  0  0  0  0  0  0  0  0
    4.7938   -9.6646    0.0000 O   0  0  0  0  0  0  0  0  0  0  0  0
    5.5083  -10.9021    0.0000 O   0  0  0  0  0  0  0  0  0  0  0  0
    6.9372  -11.7271    0.0000 O   0  0  0  0  0  0  0  0  0  0  0  0
    8.3662  -10.9021    0.0000 O   0  0  0  0  0  0  0  0  0  0  0  0
   10.1202   -9.0541    0.0000 C   0  0  0  0  0  0  0  0  0  0  0  0
    9.1669   -6.3691    0.0000 H   0  0  0  0  0  0  0  0  0  0  0  0
    9.1669   -8.8351    0.0000 H   0  0  0  0  0  0  0  0  0  0  0  0
  1  2  1  0  0  0  0
  2  3  1  0  0  0  0
  3  4  1  0  0  0  0
  4  5  2  0  0  0  0
  5  6  1  0  0  0  0
  1  6  1  0  0  0  0
  7  8  1  0  0  0  0
  8  9  2  0  0  0  0
  9  2  1  0  0  0  0
  7  3  1  0  0  0  0
 10 11  2  0  0  0  0
 10 12  1  0  0  0  0
  4 10  1  0  0  0  0
 14 15  1  0  0  0  0
 15 16  1  0  0  0  0
 16 17  1  0  0  0  0
 17 18  1  0  0  0  0
 18 19  1  0  0  0  0
 14 19  1  0  0  0  0
 20 21  1  0  0  0  0
 19 20  1  1  0  0  0
 18 22  1  6  0  0  0
 17 23  1  1  0  0  0
 16 24  1  6  0  0  0
 15 13  1  1  0  0  0
  1 13  1  6  0  0  0
  9 25  1  0  0  0  0
  3 26  1  6  0  0  0
  2 27  1  6  0  0  0
M  END
>  <cdx:groupId>
90

>  <cdx:fragmentId>
10

$$$$
