39743.cdx
  Mrv1902 05222410232D          

 30 29  0  0  0  0            999 V2000
   15.4233   -9.6921    0.0000 C   0  0  0  0  0  0  0  0  0  0  0  0
   14.7088  -10.1046    0.0000 C   0  0  0  0  0  0  0  0  0  0  0  0
   13.9943   -9.6921    0.0000 C   0  0  0  0  0  0  0  0  0  0  0  0
   13.2799  -10.1046    0.0000 C   0  0  0  0  0  0  0  0  0  0  0  0
   12.5654   -9.6921    0.0000 C   0  0  0  0  0  0  0  0  0  0  0  0
   11.8509  -10.1046    0.0000 C   0  0  0  0  0  0  0  0  0  0  0  0
   11.1364   -9.6921    0.0000 C   0  0  0  0  0  0  0  0  0  0  0  0
   10.4220  -10.1046    0.0000 C   0  0  0  0  0  0  0  0  0  0  0  0
    9.7075   -9.6921    0.0000 C   0  0  0  0  0  0  0  0  0  0  0  0
    8.9930  -10.1046    0.0000 C   0  0  0  0  0  0  0  0  0  0  0  0
    8.2786   -9.6921    0.0000 C   0  0  0  0  0  0  0  0  0  0  0  0
    7.5641  -10.1046    0.0000 C   0  0  0  0  0  0  0  0  0  0  0  0
    6.8496   -9.6921    0.0000 C   0  0  0  0  0  0  0  0  0  0  0  0
    6.1351  -10.1046    0.0000 C   0  0  0  0  0  0  0  0  0  0  0  0
    5.4207   -9.6921    0.0000 C   0  0  0  0  0  0  0  0  0  0  0  0
    4.7062  -10.1046    0.0000 C   0  0  0  0  0  0  0  0  0  0  0  0
    3.9917   -9.6921    0.0000 C   0  0  0  0  0  0  0  0  0  0  0  0
    3.2773  -10.1046    0.0000 C   0  0  0  0  0  0  0  0  0  0  0  0
    2.5628   -9.6921    0.0000 C   0  0  0  0  0  0  0  0  0  0  0  0
    1.8483  -10.1046    0.0000 C   0  0  0  0  0  0  0  0  0  0  0  0
   15.4233   -8.8671    0.0000 O   0  0  0  0  0  0  0  0  0  0  0  0
   16.1377  -10.1046    0.0000 O   0  0  0  0  0  0  0  0  0  0  0  0
    1.8483  -10.9296    0.0000 O   0  0  0  0  0  0  0  0  0  0  0  0
    1.1338   -9.6921    0.0000 O   0  0  0  0  0  0  0  0  0  0  0  0
    3.9917   -8.8671    0.0000 C   0  0  0  0  0  0  0  0  0  0  0  0
    6.8496   -8.8671    0.0000 C   0  0  0  0  0  0  0  0  0  0  0  0
   10.4220  -10.9296    0.0000 C   0  0  0  0  0  0  0  0  0  0  0  0
   13.2799  -10.9296    0.0000 C   0  0  0  0  0  0  0  0  0  0  0  0
   16.8522   -9.6921    0.0000 C   0  0  0  0  0  0  0  0  0  0  0  0
    0.4194  -10.1046    0.0000 C   0  0  0  0  0  0  0  0  0  0  0  0
  1  2  1  0  0  0  0
  2  3  2  0  0  0  0
  3  4  1  0  0  0  0
  4  5  2  0  0  0  0
  5  6  1  0  0  0  0
  6  7  2  0  0  0  0
  7  8  1  0  0  0  0
  8  9  2  0  0  0  0
  9 10  1  0  0  0  0
 10 11  2  0  0  0  0
 11 12  1  0  0  0  0
 12 13  2  0  0  0  0
 13 14  1  0  0  0  0
 14 15  2  0  0  0  0
 15 16  1  0  0  0  0
 16 17  2  0  0  0  0
 17 18  1  0  0  0  0
 18 19  2  0  0  0  0
 19 20  1  0  0  0  0
  1 21  2  0  0  0  0
  1 22  1  0  0  0  0
 20 23  2  0  0  0  0
 20 24  1  0  0  0  0
 17 25  1  0  0  0  0
 13 26  1  0  0  0  0
  8 27  1  0  0  0  0
  4 28  1  0  0  0  0
 22 29  1  0  0  0  0
 24 30  1  0  0  0  0
M  END
>  <cdx:groupId>
95

>  <cdx:fragmentId>
238

$$$$
