39749.cdx
  Mrv1902 05222410212D          

 34 40  0  0  0  0            999 V2000
    6.9080   -9.1002    0.0000 C   0  0  0  0  0  0  0  0  0  0  0  0
    6.6531   -9.8848    0.0000 C   0  0  0  0  0  0  0  0  0  0  0  0
    7.2051  -10.4979    0.0000 C   0  0  0  0  0  0  0  0  0  0  0  0
    8.0121  -10.3264    0.0000 C   0  0  0  0  0  0  0  0  0  0  0  0
    8.2670   -9.5418    0.0000 N   0  0  0  0  0  0  0  0  0  0  0  0
    9.0740   -9.3702    0.0000 C   0  0  0  0  0  0  0  0  0  0  0  0
    9.3289   -8.5856    0.0000 C   0  0  0  0  0  0  0  0  0  0  0  0
    8.7769   -7.9725    0.0000 C   0  0  2  0  0  0  0  0  0  0  0  0
    7.9699   -8.1440    0.0000 C   0  0  0  0  0  0  0  0  0  0  0  0
    7.7150   -8.9287    0.0000 C   0  0  1  0  0  0  0  0  0  0  0  0
    6.2406   -8.6153    0.0000 N   0  0  0  0  0  0  0  0  0  0  0  0
    5.8281   -9.8848    0.0000 C   0  0  0  0  0  0  0  0  0  0  0  0
    5.2760  -10.4979    0.0000 C   0  0  0  0  0  0  0  0  0  0  0  0
    4.4691  -10.3264    0.0000 C   0  0  0  0  0  0  0  0  0  0  0  0
    4.2141   -9.5418    0.0000 C   0  0  0  0  0  0  0  0  0  0  0  0
    4.7662   -8.9287    0.0000 C   0  0  0  0  0  0  0  0  0  0  0  0
    5.5731   -9.1002    0.0000 C   0  0  0  0  0  0  0  0  0  0  0  0
    9.0318   -7.1879    0.0000 C   0  0  0  0  0  0  0  0  0  0  0  0
    7.2603   -7.4608    0.0000 N   0  0  0  0  0  0  0  0  0  0  0  0
    7.6728   -6.7463    0.0000 C   0  0  0  0  0  0  0  0  0  0  0  0
    7.1208   -6.1332    0.0000 C   0  0  0  0  0  0  0  0  0  0  0  0
    6.3671   -6.4688    0.0000 C   0  0  0  0  0  0  0  0  0  0  0  0
    5.6134   -6.1332    0.0000 C   0  0  0  0  0  0  0  0  0  0  0  0
    4.9460   -6.6182    0.0000 C   0  0  0  0  0  0  0  0  0  0  0  0
    5.0322   -7.4386    0.0000 C   0  0  0  0  0  0  0  0  0  0  0  0
    5.7859   -7.7742    0.0000 C   0  0  0  0  0  0  0  0  0  0  0  0
    6.4534   -7.2893    0.0000 C   0  0  0  0  0  0  0  0  0  0  0  0
    8.4798   -6.5748    0.0000 C   0  0  0  0  0  0  0  0  0  0  0  0
    7.3757   -5.3486    0.0000 C   0  0  0  0  0  0  0  0  0  0  0  0
    8.1827   -5.1771    0.0000 C   0  0  0  0  0  0  0  0  0  0  0  0
    8.7347   -5.7902    0.0000 N   0  0  0  0  0  0  0  0  0  0  0  0
   10.1359   -8.4141    0.0000 C   0  0  0  0  0  0  0  0  0  0  0  0
   10.3908   -7.6295    0.0000 C   0  0  0  0  0  0  0  0  0  0  0  0
    7.1629   -8.3156    0.0000 H   0  0  0  0  0  0  0  0  0  0  0  0
  1  2  2  0  0  0  0
  2  3  1  0  0  0  0
  3  4  1  0  0  0  0
  4  5  1  0  0  0  0
  5  6  1  0  0  0  0
  6  7  1  0  0  0  0
  7  8  1  0  0  0  0
  8  9  1  0  0  0  0
  9 10  1  0  0  0  0
  5 10  1  0  0  0  0
  1 10  1  0  0  0  0
 12 13  1  0  0  0  0
 13 14  2  0  0  0  0
 14 15  1  0  0  0  0
 15 16  2  0  0  0  0
 16 17  1  0  0  0  0
 11 17  1  0  0  0  0
 12 17  2  0  0  0  0
 11  1  1  0  0  0  0
 12  2  1  0  0  0  0
 19 20  1  0  0  0  0
 20 21  2  0  0  0  0
 21 22  1  0  0  0  0
 22 23  1  0  0  0  0
 23 24  2  0  0  0  0
 24 25  1  0  0  0  0
 25 26  2  0  0  0  0
 26 27  1  0  0  0  0
 19 27  1  0  0  0  0
 22 27  2  0  0  0  0
 29 30  2  0  0  0  0
 30 31  1  0  0  0  0
 28 31  2  0  0  0  0
 28 20  1  0  0  0  0
 29 21  1  0  0  0  0
 18 28  1  0  0  0  0
  8 18  1  6  0  0  0
 32 33  1  0  0  0  0
  7 32  2  0  0  0  0
 10 34  1  1  0  0  0
M  END
>  <cdx:groupId>
114

>  <cdx:fragmentId>
9

$$$$
