39746.cdx
  Mrv1902 05222410252D          

 33 40  0  0  0  0            999 V2000
    7.1697  -12.1827    0.0000 N   0  0  0  0  0  0  0  0  0  0  0  0
    6.9848  -11.3787    0.0000 C   0  0  0  0  0  0  0  0  0  0  0  0
    6.2636  -10.9781    0.0000 C   0  0  1  0  0  0  0  0  0  0  0  0
    6.2499  -10.1532    0.0000 C   0  0  2  0  0  0  0  0  0  0  0  0
    6.9574   -9.7289    0.0000 C   0  0  1  0  0  0  0  0  0  0  0  0
    7.6787  -10.1295    0.0000 C   0  0  0  0  0  0  0  0  0  0  0  0
    7.6924  -10.9544    0.0000 C   0  0  0  0  0  0  0  0  0  0  0  0
    8.3145  -11.4962    0.0000 C   0  0  0  0  0  0  0  0  0  0  0  0
    9.1335  -11.3963    0.0000 C   0  0  0  0  0  0  0  0  0  0  0  0
    9.6294  -12.0556    0.0000 C   0  0  0  0  0  0  0  0  0  0  0  0
    9.3064  -12.8148    0.0000 C   0  0  0  0  0  0  0  0  0  0  0  0
    8.4875  -12.9146    0.0000 C   0  0  0  0  0  0  0  0  0  0  0  0
    7.9915  -12.2553    0.0000 C   0  0  0  0  0  0  0  0  0  0  0  0
    6.9438   -8.9040    0.0000 C   0  0  2  0  0  0  0  0  0  0  0  0
    7.1225  -10.5325    0.0000 C   0  0  0  0  0  0  0  0  0  0  0  0
    8.1950  -10.1200    0.0000 C   0  0  0  0  0  0  0  0  0  0  0  0
    7.7900   -9.2856    0.0000 N   0  0  0  0  0  0  0  0  0  0  0  0
    5.2795  -11.0545    0.0000 O   0  0  0  0  0  0  0  0  0  0  0  0
    5.5287   -9.7526    0.0000 C   0  0  0  0  0  0  0  0  0  0  0  0
    4.8212  -10.1769    0.0000 C   0  0  0  0  0  0  0  0  0  0  0  0
    5.5150   -8.9277    0.0000 C   0  0  0  0  0  0  0  0  0  0  0  0
    4.7938   -8.5272    0.0000 C   0  0  0  0  0  0  0  0  0  0  0  0
    4.0863   -8.9515    0.0000 C   0  0  0  0  0  0  0  0  0  0  0  0
    4.1000   -9.7763    0.0000 C   0  0  0  0  0  0  0  0  0  0  0  0
    6.2225   -8.5034    0.0000 C   0  0  0  0  0  0  0  0  0  0  0  0
    3.3924  -10.2006    0.0000 O   0  0  0  0  0  0  0  0  0  0  0  0
    6.2362   -9.3283    0.0000 O   0  0  0  0  0  0  0  0  0  0  0  0
    8.4975   -8.8613    0.0000 C   0  0  0  0  0  0  0  0  0  0  0  0
    9.2187   -9.2619    0.0000 C   0  0  0  0  0  0  0  0  0  0  0  0
   10.0436   -9.2482    0.0000 C   0  0  0  0  0  0  0  0  0  0  0  0
    9.6430   -9.9695    0.0000 C   0  0  0  0  0  0  0  0  0  0  0  0
    7.3443   -8.1828    0.0000 H   0  0  0  0  0  0  0  0  0  0  0  0
    6.0878  -11.7841    0.0000 H   0  0  0  0  0  0  0  0  0  0  0  0
  1  2  1  0  0  0  0
  2  3  1  0  0  0  0
  3  4  1  0  0  0  0
  4  5  1  0  0  0  0
  5  6  1  0  0  0  0
  6  7  1  0  0  0  0
  2  7  2  0  0  0  0
  7  8  1  0  0  0  0
  8  9  1  0  0  0  0
  9 10  2  0  0  0  0
 10 11  1  0  0  0  0
 11 12  2  0  0  0  0
 12 13  1  0  0  0  0
  8 13  2  0  0  0  0
  1 13  1  0  0  0  0
 15 16  1  0  0  0  0
 16 17  1  0  0  0  0
 14 17  1  0  0  0  0
  4 15  1  1  0  0  0
 14  5  1  0  0  0  0
 19 20  1  0  0  0  0
 18 20  1  0  0  0  0
 21 22  1  0  0  0  0
 22 23  2  0  0  0  0
 23 24  1  0  0  0  0
 24 20  2  0  0  0  0
 21 19  2  0  0  0  0
 18  3  1  0  0  0  0
 19  4  1  0  0  0  0
 21 25  1  0  0  0  0
 14 25  1  0  0  0  0
 24 26  1  0  0  0  0
  5 27  1  1  0  0  0
 29 30  1  0  0  0  0
 30 31  1  0  0  0  0
 29 31  1  0  0  0  0
 28 29  1  0  0  0  0
 17 28  1  0  0  0  0
 14 32  1  6  0  0  0
  3 33  1  1  0  0  0
M  END
>  <cdx:groupId>
117

>  <cdx:fragmentId>
14

$$$$
