397445.cdx
  Mrv1902 05222410232D          

 35 38  0  0  0  0            999 V2000
   10.3441   -5.8899    0.0000 C   0  0  0  0  0  0  0  0  0  0  0  0
   10.0892   -6.6745    0.0000 C   0  0  0  0  0  0  0  0  0  0  0  0
    9.2822   -6.8460    0.0000 C   0  0  0  0  0  0  0  0  0  0  0  0
    9.0273   -7.6307    0.0000 C   0  0  0  0  0  0  0  0  0  0  0  0
    8.2203   -7.8022    0.0000 C   0  0  1  0  0  0  0  0  0  0  0  0
    7.6682   -7.1891    0.0000 C   0  0  0  0  0  0  0  0  0  0  0  0
   11.4060   -4.9337    0.0000 O   0  0  0  0  0  0  0  0  0  0  0  0
    9.7921   -5.2768    0.0000 C   0  0  0  0  0  0  0  0  0  0  0  0
    4.3228   -9.6668    0.0000 C   0  0  0  0  0  0  0  0  0  0  0  0
    3.6084  -10.0793    0.0000 C   0  0  0  0  0  0  0  0  0  0  0  0
    3.6084  -10.9043    0.0000 C   0  0  1  0  0  0  0  0  0  0  0  0
    4.3228  -11.3168    0.0000 C   0  0  0  0  0  0  0  0  0  0  0  0
    5.0373  -10.9043    0.0000 C   0  0  2  0  0  0  0  0  0  0  0  0
    5.7518  -11.3168    0.0000 C   0  0  0  0  0  0  0  0  0  0  0  0
    6.4662  -10.9043    0.0000 C   0  0  0  0  0  0  0  0  0  0  0  0
    6.4662  -10.0793    0.0000 C   0  0  0  0  0  0  0  0  0  0  0  0
    7.1807   -9.6668    0.0000 C   0  0  2  0  0  0  0  0  0  0  0  0
    7.9653   -9.9217    0.0000 C   0  0  0  0  0  0  0  0  0  0  0  0
    8.4503   -9.2543    0.0000 C   0  0  0  0  0  0  0  0  0  0  0  0
    7.9653   -8.5868    0.0000 C   0  0  1  0  0  0  0  0  0  0  0  0
    7.1807   -8.8418    0.0000 C   0  0  1  0  0  0  0  0  0  0  0  0
    6.4662   -8.4293    0.0000 C   0  0  0  0  0  0  0  0  0  0  0  0
    5.7518   -8.8418    0.0000 C   0  0  0  0  0  0  0  0  0  0  0  0
    5.7518   -9.6668    0.0000 C   0  0  0  0  0  0  0  0  0  0  0  0
    5.0373  -10.0793    0.0000 C   0  0  1  0  0  0  0  0  0  0  0  0
    7.1807  -10.4918    0.0000 C   0  0  0  0  0  0  0  0  0  0  0  0
    7.1807   -8.0168    0.0000 C   0  0  0  0  0  0  0  0  0  0  0  0
    5.0373   -9.2543    0.0000 C   0  0  0  0  0  0  0  0  0  0  0  0
    4.7353  -12.0312    0.0000 C   0  0  0  0  0  0  0  0  0  0  0  0
    3.9103  -12.0312    0.0000 C   0  0  0  0  0  0  0  0  0  0  0  0
    2.8939  -11.3168    0.0000 O   0  0  0  0  0  0  0  0  0  0  0  0
    5.0373  -11.7293    0.0000 H   0  0  0  0  0  0  0  0  0  0  0  0
   11.7031   -6.3315    0.0000 O   0  0  0  0  0  0  0  0  0  0  0  0
   11.1511   -5.7184    0.0000 C   0  0  0  0  0  0  0  0  0  0  0  0
    8.7500   -8.3319    0.0000 H   0  0  0  0  0  0  0  0  0  0  0  0
 34  7  1  0  0  0  0
 34 33  2  0  0  0  0
 34  1  1  0  0  0  0
  1  2  2  0  0  0  0
  2  3  1  0  0  0  0
  3  4  1  0  0  0  0
  4  5  1  0  0  0  0
  5  6  1  6  0  0  0
  1  8  1  0  0  0  0
  9 10  1  0  0  0  0
 10 11  1  0  0  0  0
 11 12  1  0  0  0  0
 12 13  1  0  0  0  0
 13 14  1  0  0  0  0
 14 15  1  0  0  0  0
 15 16  2  0  0  0  0
 16 17  1  0  0  0  0
 17 18  1  0  0  0  0
 18 19  1  0  0  0  0
 20 19  1  0  0  0  0
 20 21  1  0  0  0  0
 17 21  1  0  0  0  0
 21 22  1  0  0  0  0
 22 23  1  0  0  0  0
 23 24  2  0  0  0  0
 16 24  1  0  0  0  0
 24 25  1  0  0  0  0
 13 25  1  0  0  0  0
  9 25  1  0  0  0  0
 17 26  1  6  0  0  0
 21 27  1  1  0  0  0
 25 28  1  1  0  0  0
 12 29  1  0  0  0  0
 12 30  1  0  0  0  0
 11 31  1  1  0  0  0
  5 20  1  0  0  0  0
 13 32  1  6  0  0  0
 20 35  1  6  0  0  0
M  END
>  <cdx:groupId>
48506

>  <cdx:fragmentId>
48424

$$$$
