39747.cdx
  Mrv1902 05222410262D          

 32 35  0  0  0  0            999 V2000
    4.5339   -8.1663    0.0000 C   0  0  0  0  0  0  0  0  0  0  0  0
    4.5339   -8.9913    0.0000 C   0  0  0  0  0  0  0  0  0  0  0  0
    5.2484   -9.4038    0.0000 C   0  0  0  0  0  0  0  0  0  0  0  0
    5.9629   -8.9913    0.0000 C   0  0  0  0  0  0  0  0  0  0  0  0
    5.9629   -8.1663    0.0000 C   0  0  2  0  0  0  0  0  0  0  0  0
    5.2484   -7.7538    0.0000 C   0  0  0  0  0  0  0  0  0  0  0  0
    6.6773   -9.4038    0.0000 C   0  0  2  0  0  0  0  0  0  0  0  0
    7.3918   -8.9913    0.0000 C   0  0  0  0  0  0  0  0  0  0  0  0
    7.3918   -8.1663    0.0000 C   0  0  2  0  0  0  0  0  0  0  0  0
    6.6773   -7.7538    0.0000 C   0  0  2  0  0  0  0  0  0  0  0  0
    8.1063   -7.7538    0.0000 C   0  0  1  0  0  0  0  0  0  0  0  0
    8.1063   -6.9288    0.0000 C   0  0  2  0  0  0  0  0  0  0  0  0
    7.3918   -6.5163    0.0000 C   0  0  0  0  0  0  0  0  0  0  0  0
    6.6773   -6.9288    0.0000 C   0  0  2  0  0  0  0  0  0  0  0  0
    8.8909   -8.0087    0.0000 C   0  0  0  0  0  0  0  0  0  0  0  0
    9.3758   -7.3413    0.0000 C   0  0  0  0  0  0  0  0  0  0  0  0
    8.8909   -6.6739    0.0000 C   0  0  2  0  0  0  0  0  0  0  0  0
    3.8194   -9.4038    0.0000 O   0  0  0  0  0  0  0  0  0  0  0  0
    5.9629   -6.5163    0.0000 O   0  0  0  0  0  0  0  0  0  0  0  0
    8.1063   -6.1038    0.0000 C   0  0  0  0  0  0  0  0  0  0  0  0
    9.1872   -5.9039    0.0000 C   0  0  0  0  0  0  0  0  0  0  0  0
    8.6685   -5.2623    0.0000 O   0  0  0  0  0  0  0  0  0  0  0  0
   10.0021   -5.7755    0.0000 C   0  0  0  0  0  0  0  0  0  0  0  0
    6.6773   -8.5788    0.0000 F   0  0  0  0  0  0  0  0  0  0  0  0
    6.6773  -10.2288    0.0000 C   0  0  0  0  0  0  0  0  0  0  0  0
   10.4189   -7.7844    0.0000 O   0  0  0  0  0  0  0  0  0  0  0  0
    5.9629   -7.3413    0.0000 C   0  0  0  0  0  0  0  0  0  0  0  0
   11.1349   -6.5478    0.0000 C   0  0  0  0  0  0  0  0  0  0  0  0
   10.4199   -6.9594    0.0000 C   0  0  0  0  0  0  0  0  0  0  0  0
    9.7059   -6.5460    0.0000 O   0  0  0  0  0  0  0  0  0  0  0  0
    7.3918   -7.3413    0.0000 H   0  0  0  0  0  0  0  0  0  0  0  0
    8.1063   -8.5788    0.0000 H   0  0  0  0  0  0  0  0  0  0  0  0
 29 26  2  0  0  0  0
 29 28  1  0  0  0  0
 30 29  1  0  0  0  0
  1  2  1  0  0  0  0
  2  3  1  0  0  0  0
  3  4  2  0  0  0  0
  4  5  1  0  0  0  0
  5  6  1  0  0  0  0
  6  1  2  0  0  0  0
  4  7  1  0  0  0  0
  7  8  1  0  0  0  0
  8  9  1  0  0  0  0
  9 10  1  0  0  0  0
 10  5  1  0  0  0  0
  9 11  1  0  0  0  0
 11 12  1  0  0  0  0
 12 13  1  0  0  0  0
 13 14  1  0  0  0  0
 14 10  1  0  0  0  0
 11 15  1  0  0  0  0
 15 16  1  0  0  0  0
 16 17  1  0  0  0  0
 17 12  1  0  0  0  0
  2 18  2  0  0  0  0
 14 19  1  1  0  0  0
 12 20  1  1  0  0  0
 17 21  1  1  0  0  0
 21 22  2  0  0  0  0
 21 23  1  0  0  0  0
 10 24  1  6  0  0  0
  7 25  1  6  0  0  0
 17 30  1  6  0  0  0
  5 27  1  1  0  0  0
  9 31  1  1  0  0  0
 11 32  1  6  0  0  0
M  END
>  <cdx:fragmentId>
3

$$$$
