39744.cdx
  Mrv1902 05222410252D          

 33 36  0  0  0  0            999 V2000
    9.7335   -6.0510    0.0000 C   0  0  0  0  0  0  0  0  0  0  0  0
    9.4785   -6.8357    0.0000 C   0  0  0  0  0  0  0  0  0  0  0  0
    8.6716   -7.0072    0.0000 C   0  0  1  0  0  0  0  0  0  0  0  0
    8.1195   -6.3941    0.0000 C   0  0  0  0  0  0  0  0  0  0  0  0
   10.7954   -5.0949    0.0000 O   0  0  0  0  0  0  0  0  0  0  0  0
    4.7741   -8.8718    0.0000 C   0  0  0  0  0  0  0  0  0  0  0  0
    4.0596   -9.2843    0.0000 C   0  0  0  0  0  0  0  0  0  0  0  0
    4.0596  -10.1093    0.0000 C   0  0  1  0  0  0  0  0  0  0  0  0
    4.7741  -10.5218    0.0000 C   0  0  0  0  0  0  0  0  0  0  0  0
    5.4886  -10.1093    0.0000 C   0  0  2  0  0  0  0  0  0  0  0  0
    6.2030  -10.5218    0.0000 C   0  0  0  0  0  0  0  0  0  0  0  0
    6.9175  -10.1093    0.0000 C   0  0  0  0  0  0  0  0  0  0  0  0
    6.9175   -9.2843    0.0000 C   0  0  1  0  0  0  0  0  0  0  0  0
    7.6320   -8.8718    0.0000 C   0  0  2  0  0  0  0  0  0  0  0  0
    8.4166   -9.1267    0.0000 C   0  0  0  0  0  0  0  0  0  0  0  0
    8.9015   -8.4593    0.0000 C   0  0  0  0  0  0  0  0  0  0  0  0
    8.4166   -7.7918    0.0000 C   0  0  1  0  0  0  0  0  0  0  0  0
    7.6320   -8.0468    0.0000 C   0  0  1  0  0  0  0  0  0  0  0  0
    6.9175   -7.6343    0.0000 C   0  0  0  0  0  0  0  0  0  0  0  0
    6.2030   -8.0468    0.0000 C   0  0  0  0  0  0  0  0  0  0  0  0
    6.2030   -8.8718    0.0000 C   0  0  2  0  0  0  0  0  0  0  0  0
    5.4886   -9.2843    0.0000 C   0  0  1  0  0  0  0  0  0  0  0  0
    6.2030  -11.3468    0.0000 O   0  0  0  0  0  0  0  0  0  0  0  0
    7.6320   -7.2218    0.0000 C   0  0  0  0  0  0  0  0  0  0  0  0
    5.4886   -8.4593    0.0000 C   0  0  0  0  0  0  0  0  0  0  0  0
    3.3452  -10.5218    0.0000 O   0  0  0  0  0  0  0  0  0  0  0  0
    5.4886  -10.9343    0.0000 H   0  0  0  0  0  0  0  0  0  0  0  0
    6.9175   -8.4593    0.0000 H   0  0  0  0  0  0  0  0  0  0  0  0
    6.2030   -9.6968    0.0000 H   0  0  0  0  0  0  0  0  0  0  0  0
    7.6320   -9.6968    0.0000 H   0  0  0  0  0  0  0  0  0  0  0  0
   11.0925   -6.4926    0.0000 O   0  0  0  0  0  0  0  0  0  0  0  0
   10.5404   -5.8795    0.0000 C   0  0  0  0  0  0  0  0  0  0  0  0
    9.2012   -7.5369    0.0000 H   0  0  0  0  0  0  0  0  0  0  0  0
 32  5  1  0  0  0  0
 32 31  2  0  0  0  0
 32  1  1  0  0  0  0
  1  2  1  0  0  0  0
  2  3  1  0  0  0  0
  3  4  1  6  0  0  0
  6  7  1  0  0  0  0
  7  8  1  0  0  0  0
  8  9  1  0  0  0  0
  9 10  1  0  0  0  0
 10 11  1  0  0  0  0
 11 12  1  0  0  0  0
 12 13  1  0  0  0  0
 13 14  1  0  0  0  0
 14 15  1  0  0  0  0
 15 16  1  0  0  0  0
 17 16  1  0  0  0  0
 17 18  1  0  0  0  0
 14 18  1  0  0  0  0
 18 19  1  0  0  0  0
 19 20  1  0  0  0  0
 20 21  1  0  0  0  0
 13 21  1  0  0  0  0
 21 22  1  0  0  0  0
 10 22  1  0  0  0  0
  6 22  1  0  0  0  0
 11 23  2  0  0  0  0
 18 24  1  1  0  0  0
 22 25  1  1  0  0  0
  8 26  1  1  0  0  0
  3 17  1  0  0  0  0
 10 27  1  6  0  0  0
 13 28  1  1  0  0  0
 21 29  1  6  0  0  0
 14 30  1  6  0  0  0
 17 33  1  6  0  0  0
M  END
>  <cdx:groupId>
133

>  <cdx:fragmentId>
23

$$$$
