39741.cdx
  Mrv1902 05222410242D          

 29 32  0  0  0  0            999 V2000
    8.4814   -8.3244    0.0000 C   0  0  0  0  0  0  0  0  0  0  0  0
    8.4814   -7.4994    0.0000 C   0  0  0  0  0  0  0  0  0  0  0  0
    7.7669   -7.0869    0.0000 C   0  0  0  0  0  0  0  0  0  0  0  0
    7.0524   -7.4994    0.0000 C   0  0  0  0  0  0  0  0  0  0  0  0
    7.0524   -8.3244    0.0000 C   0  0  0  0  0  0  0  0  0  0  0  0
    7.7669   -8.7369    0.0000 O   0  0  0  0  0  0  0  0  0  0  0  0
    6.3379   -8.7369    0.0000 C   0  0  0  0  0  0  0  0  0  0  0  0
    5.6235   -8.3244    0.0000 C   0  0  0  0  0  0  0  0  0  0  0  0
    5.6235   -7.4994    0.0000 C   0  0  0  0  0  0  0  0  0  0  0  0
    6.3379   -7.0869    0.0000 C   0  0  0  0  0  0  0  0  0  0  0  0
    4.9090   -8.7369    0.0000 O   0  0  0  0  0  0  0  0  0  0  0  0
    4.9090   -7.0869    0.0000 C   0  0  0  0  0  0  0  0  0  0  0  0
    4.1945   -7.4994    0.0000 N   0  0  0  0  0  0  0  0  0  0  0  0
    4.1083   -8.3199    0.0000 C   0  0  0  0  0  0  0  0  0  0  0  0
    3.3013   -8.4914    0.0000 C   0  0  0  0  0  0  0  0  0  0  0  0
    2.8888   -7.7769    0.0000 C   0  0  0  0  0  0  0  0  0  0  0  0
    3.4409   -7.1639    0.0000 C   0  0  0  0  0  0  0  0  0  0  0  0
    7.7669   -6.2619    0.0000 C   0  0  0  0  0  0  0  0  0  0  0  0
    7.0524   -5.8494    0.0000 C   0  0  0  0  0  0  0  0  0  0  0  0
    9.1958   -7.0869    0.0000 C   0  0  0  0  0  0  0  0  0  0  0  0
    9.1958   -6.2619    0.0000 C   0  0  0  0  0  0  0  0  0  0  0  0
    9.9103   -5.8494    0.0000 C   0  0  0  0  0  0  0  0  0  0  0  0
   10.6248   -6.2619    0.0000 C   0  0  0  0  0  0  0  0  0  0  0  0
   10.6248   -7.0869    0.0000 C   0  0  0  0  0  0  0  0  0  0  0  0
    9.9103   -7.4994    0.0000 C   0  0  0  0  0  0  0  0  0  0  0  0
   11.3392   -5.8494    0.0000 O   0  0  0  0  0  0  0  0  0  0  0  0
   12.0537   -6.2619    0.0000 C   0  0  0  0  0  0  0  0  0  0  0  0
    9.3064   -8.3244    0.0000 C   0  0  0  0  0  0  0  0  0  0  0  0
    8.8939   -9.0389    0.0000 C   0  0  0  0  0  0  0  0  0  0  0  0
  1  2  1  0  0  0  0
  2  3  2  0  0  0  0
  3  4  1  0  0  0  0
  4  5  1  0  0  0  0
  5  6  1  0  0  0  0
  1  6  1  0  0  0  0
  7  8  1  0  0  0  0
  8  9  2  0  0  0  0
  9 10  1  0  0  0  0
 10  4  2  0  0  0  0
  7  5  2  0  0  0  0
  8 11  1  0  0  0  0
 13 14  1  0  0  0  0
 14 15  1  0  0  0  0
 15 16  1  0  0  0  0
 16 17  1  0  0  0  0
 13 17  1  0  0  0  0
 12 13  1  0  0  0  0
  9 12  1  0  0  0  0
 18 19  1  0  0  0  0
  3 18  1  0  0  0  0
 20 21  1  0  0  0  0
 21 22  2  0  0  0  0
 22 23  1  0  0  0  0
 23 24  2  0  0  0  0
 24 25  1  0  0  0  0
 20 25  2  0  0  0  0
 26 27  1  0  0  0  0
 23 26  1  0  0  0  0
  2 20  1  0  0  0  0
  1 28  1  0  0  0  0
  1 29  1  0  0  0  0
M  END
>  <cdx:groupId>
96

>  <cdx:fragmentId>
9

$$$$
