39742.cdx
  Mrv1902 05222410242D          

 27 27  0  0  0  0            999 V2000
    6.4162   -9.9557    0.0000 C   0  0  1  0  0  0  0  0  0  0  0  0
    5.7084  -10.3795    0.0000 C   0  0  0  0  0  0  0  0  0  0  0  0
    7.1372  -10.3567    0.0000 C   0  0  0  0  0  0  0  0  0  0  0  0
    7.1504  -11.1816    0.0000 C   0  0  0  0  0  0  0  0  0  0  0  0
    7.8714  -11.5826    0.0000 C   0  0  0  0  0  0  0  0  0  0  0  0
    7.8846  -12.4075    0.0000 C   0  0  0  0  0  0  0  0  0  0  0  0
    8.6056  -12.8085    0.0000 C   0  0  0  0  0  0  0  0  0  0  0  0
    5.0271  -12.4532    0.0000 O   0  0  0  0  0  0  0  0  0  0  0  0
    9.8445   -5.8182    0.0000 O   0  0  0  0  0  0  0  0  0  0  0  0
    9.2403   -6.3800    0.0000 C   0  0  0  0  0  0  0  0  0  0  0  0
    7.1170   -6.1590    0.0000 C   0  0  0  0  0  0  0  0  0  0  0  0
    7.3594   -5.3704    0.0000 C   0  0  0  0  0  0  0  0  0  0  0  0
    8.1843   -5.3572    0.0000 C   0  0  0  0  0  0  0  0  0  0  0  0
    8.4517   -6.1377    0.0000 C   0  0  2  0  0  0  0  0  0  0  0  0
    7.7921   -6.6332    0.0000 N   0  0  0  0  0  0  0  0  0  0  0  0
    5.6688   -7.9049    0.0000 C   0  0  0  0  0  0  0  0  0  0  0  0
    8.5263   -7.8591    0.0000 O   0  0  0  0  0  0  0  0  0  0  0  0
    6.3634   -6.6561    0.0000 C   0  0  0  0  0  0  0  0  0  0  0  0
    6.3766   -7.4810    0.0000 C   0  0  0  0  0  0  0  0  0  0  0  0
    7.0976   -7.8820    0.0000 C   0  0  1  0  0  0  0  0  0  0  0  0
    7.8053   -7.4581    0.0000 C   0  0  0  0  0  0  0  0  0  0  0  0
    5.0139  -11.6283    0.0000 N   0  0  0  0  0  0  0  0  0  0  0  0
    6.4426  -11.6054    0.0000 O   0  0  0  0  0  0  0  0  0  0  0  0
    7.1108   -8.7069    0.0000 N   0  0  0  0  0  0  0  0  0  0  0  0
    5.6820   -8.7298    0.0000 O   0  0  0  0  0  0  0  0  0  0  0  0
    5.7216  -11.2044    0.0000 C   0  0  0  0  0  0  0  0  0  0  0  0
    6.4030   -9.1308    0.0000 C   0  0  0  0  0  0  0  0  0  0  0  0
 20 24  1  1  0  0  0
 21 15  1  0  0  0  0
 14 10  1  1  0  0  0
 10  9  1  0  0  0  0
 15 11  1  0  0  0  0
 12 11  1  0  0  0  0
 13 12  1  0  0  0  0
 14 13  1  0  0  0  0
 15 14  1  0  0  0  0
 19 16  1  0  0  0  0
 21 17  2  0  0  0  0
 19 18  1  0  0  0  0
 20 19  1  0  0  0  0
 21 20  1  0  0  0  0
 22  8  1  0  0  0  0
 26 22  1  0  0  0  0
 26 23  2  0  0  0  0
 27 24  1  0  0  0  0
 27 25  2  0  0  0  0
 27  1  1  0  0  0  0
  1  2  1  0  0  0  0
  2 26  1  0  0  0  0
  3  4  1  0  0  0  0
  4  5  1  0  0  0  0
  5  6  1  0  0  0  0
  6  7  1  0  0  0  0
  1  3  1  6  0  0  0
M  END
>  <cdx:groupId>
87

>  <cdx:fragmentId>
47

$$$$
