39745.cdx
  Mrv1902 05222410242D          

 30 34  0  0  0  0            999 V2000
    6.9206   -8.8509    0.0000 N   0  0  0  0  0  0  0  0  0  0  0  0
    7.4055   -8.1835    0.0000 C   0  0  0  0  0  0  0  0  0  0  0  0
    6.9206   -7.5160    0.0000 C   0  0  0  0  0  0  0  0  0  0  0  0
    6.1359   -7.7710    0.0000 C   0  0  0  0  0  0  0  0  0  0  0  0
    5.4215   -7.3585    0.0000 C   0  0  0  0  0  0  0  0  0  0  0  0
    4.7070   -7.7710    0.0000 C   0  0  0  0  0  0  0  0  0  0  0  0
    4.7070   -8.5960    0.0000 C   0  0  0  0  0  0  0  0  0  0  0  0
    5.4215   -9.0085    0.0000 C   0  0  0  0  0  0  0  0  0  0  0  0
    6.1359   -8.5960    0.0000 C   0  0  0  0  0  0  0  0  0  0  0  0
    8.0242   -8.1835    0.0000 O   0  0  0  0  0  0  0  0  0  0  0  0
    6.7490   -6.7091    0.0000 C   0  0  0  0  0  0  0  0  0  0  0  0
    8.7126   -5.7559    0.0000 C   0  0  0  0  0  0  0  0  0  0  0  0
    8.1293   -6.3392    0.0000 C   0  0  0  0  0  0  0  0  0  0  0  0
    7.3324   -6.1257    0.0000 C   0  0  0  0  0  0  0  0  0  0  0  0
    7.1189   -5.3288    0.0000 C   0  0  0  0  0  0  0  0  0  0  0  0
    7.7022   -4.7455    0.0000 C   0  0  0  0  0  0  0  0  0  0  0  0
    8.4991   -4.9590    0.0000 N   0  0  0  0  0  0  0  0  0  0  0  0
    7.5337   -6.9640    0.0000 C   0  0  0  0  0  0  0  0  0  0  0  0
    9.2744   -8.2809    0.0000 C   0  0  0  0  0  0  0  0  0  0  0  0
    8.4898   -8.0259    0.0000 C   0  0  0  0  0  0  0  0  0  0  0  0
    8.3183   -7.2189    0.0000 C   0  0  0  0  0  0  0  0  0  0  0  0
    8.9314   -6.6669    0.0000 C   0  0  0  0  0  0  0  0  0  0  0  0
    9.7160   -6.9219    0.0000 C   0  0  0  0  0  0  0  0  0  0  0  0
    9.8875   -7.7288    0.0000 N   0  0  0  0  0  0  0  0  0  0  0  0
    7.1755   -9.6355    0.0000 C   0  0  0  0  0  0  0  0  0  0  0  0
    7.9825   -9.8071    0.0000 C   0  0  0  0  0  0  0  0  0  0  0  0
    8.2374  -10.5917    0.0000 C   0  0  0  0  0  0  0  0  0  0  0  0
    7.6854  -11.2048    0.0000 C   0  0  0  0  0  0  0  0  0  0  0  0
    6.8784  -11.0333    0.0000 C   0  0  0  0  0  0  0  0  0  0  0  0
    6.6235  -10.2486    0.0000 C   0  0  0  0  0  0  0  0  0  0  0  0
  1  2  1  0  0  0  0
  2  3  1  0  0  0  0
  3  4  1  0  0  0  0
  4  5  1  0  0  0  0
  5  6  2  0  0  0  0
  6  7  1  0  0  0  0
  7  8  2  0  0  0  0
  8  9  1  0  0  0  0
  1  9  1  0  0  0  0
  4  9  2  0  0  0  0
  2 10  2  0  0  0  0
 12 13  1  0  0  0  0
 13 14  2  0  0  0  0
 14 15  1  0  0  0  0
 15 16  2  0  0  0  0
 16 17  1  0  0  0  0
 12 17  2  0  0  0  0
 11 14  1  0  0  0  0
  3 11  1  0  0  0  0
 19 20  1  0  0  0  0
 20 21  2  0  0  0  0
 21 22  1  0  0  0  0
 22 23  2  0  0  0  0
 23 24  1  0  0  0  0
 19 24  2  0  0  0  0
 18 21  1  0  0  0  0
  3 18  1  0  0  0  0
 25 26  1  0  0  0  0
 26 27  2  0  0  0  0
 27 28  1  0  0  0  0
 28 29  2  0  0  0  0
 29 30  1  0  0  0  0
 25 30  2  0  0  0  0
  1 25  1  0  0  0  0
M  END
>  <cdx:groupId>
101

>  <cdx:fragmentId>
190

$$$$
