39740.cdx
  Mrv1902 05222410242D          

 29 32  0  0  0  0            999 V2000
   11.9404   -5.7792    0.0000 F   0  0  0  0  0  0  0  0  0  0  0  0
    9.1144   -8.2906    0.0000 O   0  0  0  0  0  0  0  0  0  0  0  0
    9.8024   -6.2191    0.0000 C   0  0  0  0  0  0  0  0  0  0  0  0
   10.5115   -5.7975    0.0000 C   0  0  0  0  0  0  0  0  0  0  0  0
   11.2312   -6.2008    0.0000 C   0  0  0  0  0  0  0  0  0  0  0  0
   11.2418   -7.0258    0.0000 C   0  0  0  0  0  0  0  0  0  0  0  0
   10.5327   -7.4474    0.0000 C   0  0  0  0  0  0  0  0  0  0  0  0
    9.8130   -7.0440    0.0000 C   0  0  0  0  0  0  0  0  0  0  0  0
    9.1038   -7.4657    0.0000 C   0  0  0  0  0  0  0  0  0  0  0  0
    7.6539   -5.8341    0.0000 C   0  0  0  0  0  0  0  0  0  0  0  0
    8.3736   -6.2374    0.0000 C   0  0  0  0  0  0  0  0  0  0  0  0
    8.3841   -7.0623    0.0000 C   0  0  0  0  0  0  0  0  0  0  0  0
    7.6750   -7.4840    0.0000 C   0  0  0  0  0  0  0  0  0  0  0  0
    6.9553   -7.0806    0.0000 C   0  0  0  0  0  0  0  0  0  0  0  0
    6.9448   -6.2557    0.0000 N   0  0  0  0  0  0  0  0  0  0  0  0
    6.2251   -5.8524    0.0000 C   0  0  0  0  0  0  0  0  0  0  0  0
    5.5159   -6.2740    0.0000 C   0  0  0  0  0  0  0  0  0  0  0  0
    5.4948   -4.6241    0.0000 C   0  0  0  0  0  0  0  0  0  0  0  0
    4.0977   -7.1172    0.0000 O   0  0  0  0  0  0  0  0  0  0  0  0
    2.6583   -6.3106    0.0000 C   0  0  0  0  0  0  0  0  0  0  0  0
    1.9386   -5.9073    0.0000 C   0  0  0  0  0  0  0  0  0  0  0  0
    1.9280   -5.0823    0.0000 C   0  0  0  0  0  0  0  0  0  0  0  0
    2.6372   -4.6607    0.0000 C   0  0  0  0  0  0  0  0  0  0  0  0
    3.3674   -5.8890    0.0000 N   0  0  0  0  0  0  0  0  0  0  0  0
    4.0871   -6.2923    0.0000 C   0  0  0  0  0  0  0  0  0  0  0  0
    4.7962   -5.8707    0.0000 C   0  0  0  0  0  0  0  0  0  0  0  0
    4.7857   -5.0457    0.0000 C   0  0  0  0  0  0  0  0  0  0  0  0
    4.0660   -4.6424    0.0000 N   0  0  0  0  0  0  0  0  0  0  0  0
    3.3569   -5.0640    0.0000 C   0  0  0  0  0  0  0  0  0  0  0  0
 26 17  1  0  0  0  0
 16 15  1  0  0  0  0
 12  9  1  0  0  0  0
  5  1  1  0  0  0  0
  9  2  2  0  0  0  0
  8  3  2  0  0  0  0
  4  3  1  0  0  0  0
  5  4  2  0  0  0  0
  6  5  1  0  0  0  0
  7  6  2  0  0  0  0
  8  7  1  0  0  0  0
  9  8  1  0  0  0  0
 15 10  1  0  0  0  0
 11 10  1  0  0  0  0
 12 11  1  0  0  0  0
 13 12  1  0  0  0  0
 14 13  1  0  0  0  0
 15 14  1  0  0  0  0
 17 16  1  0  0  0  0
 27 18  1  0  0  0  0
 25 19  2  0  0  0  0
 23 29  1  0  0  0  0
 20 24  1  0  0  0  0
 21 20  2  0  0  0  0
 22 21  1  0  0  0  0
 23 22  2  0  0  0  0
 29 24  1  0  0  0  0
 25 24  1  0  0  0  0
 26 25  1  0  0  0  0
 27 26  2  0  0  0  0
 28 27  1  0  0  0  0
 29 28  2  0  0  0  0
M  END
>  <cdx:groupId>
96

>  <cdx:fragmentId>
49

$$$$
