39756.cdx
  Mrv1902 05222410242D          

 33 34  0  0  0  0            999 V2000
    7.9416   -6.2858    0.0000 C   0  0  0  0  0  0  0  0  0  0  0  0
    7.2678   -6.7619    0.0000 C   0  0  0  0  0  0  0  0  0  0  0  0
    7.3432   -7.5834    0.0000 C   0  0  0  0  0  0  0  0  0  0  0  0
    6.6695   -8.0595    0.0000 C   0  0  0  0  0  0  0  0  0  0  0  0
    6.7449   -8.8811    0.0000 C   0  0  0  0  0  0  0  0  0  0  0  0
    6.0711   -9.3571    0.0000 C   0  0  0  0  0  0  0  0  0  0  0  0
    5.3219   -9.0117    0.0000 C   0  0  0  0  0  0  0  0  0  0  0  0
    4.6481   -9.4877    0.0000 C   0  0  1  0  0  0  0  0  0  0  0  0
    3.8669   -9.2225    0.0000 C   0  0  2  0  0  0  0  0  0  0  0  0
    3.3733   -9.8835    0.0000 C   0  0  0  0  0  0  0  0  0  0  0  0
    3.8493  -10.5572    0.0000 C   0  0  2  0  0  0  0  0  0  0  0  0
    4.6373  -10.3127    0.0000 C   0  0  2  0  0  0  0  0  0  0  0  0
    5.2982  -10.8064    0.0000 C   0  0  0  0  0  0  0  0  0  0  0  0
    6.0563  -10.4808    0.0000 C   0  0  0  0  0  0  0  0  0  0  0  0
    6.7173  -10.9745    0.0000 C   0  0  2  0  0  0  0  0  0  0  0  0
    7.4753  -10.6489    0.0000 C   0  0  0  0  0  0  0  0  0  0  0  0
    8.1363  -11.1426    0.0000 C   0  0  0  0  0  0  0  0  0  0  0  0
    7.8662   -5.4643    0.0000 O   0  0  0  0  0  0  0  0  0  0  0  0
    8.6908   -6.6313    0.0000 N   0  0  0  0  0  0  0  0  0  0  0  0
    8.8943  -10.8170    0.0000 C   0  0  0  0  0  0  0  0  0  0  0  0
    8.9914   -9.9977    0.0000 C   0  0  0  0  0  0  0  0  0  0  0  0
    9.7494   -9.6721    0.0000 C   0  0  0  0  0  0  0  0  0  0  0  0
   10.4104  -10.1658    0.0000 C   0  0  0  0  0  0  0  0  0  0  0  0
   10.3133  -10.9851    0.0000 C   0  0  0  0  0  0  0  0  0  0  0  0
    9.5553  -11.3106    0.0000 C   0  0  0  0  0  0  0  0  0  0  0  0
    6.6202  -11.7937    0.0000 O   0  0  0  0  0  0  0  0  0  0  0  0
    3.5841  -11.3384    0.0000 O   0  0  0  0  0  0  0  0  0  0  0  0
    3.6224   -8.4346    0.0000 O   0  0  0  0  0  0  0  0  0  0  0  0
    9.3646   -6.1552    0.0000 C   0  0  0  0  0  0  0  0  0  0  0  0
   10.1138   -6.5007    0.0000 C   0  0  0  0  0  0  0  0  0  0  0  0
    9.2892   -5.3337    0.0000 C   0  0  0  0  0  0  0  0  0  0  0  0
    9.8725   -4.7503    0.0000 O   0  0  0  0  0  0  0  0  0  0  0  0
   10.7875   -6.0246    0.0000 O   0  0  0  0  0  0  0  0  0  0  0  0
  1  2  1  0  0  0  0
  2  3  1  0  0  0  0
  3  4  1  0  0  0  0
  4  5  1  0  0  0  0
  5  6  2  0  0  0  0
  6  7  1  0  0  0  0
  8  7  1  6  0  0  0
  8  9  1  0  0  0  0
  9 10  1  0  0  0  0
 10 11  1  0  0  0  0
  8 12  1  0  0  0  0
 11 12  1  0  0  0  0
 12 13  1  1  0  0  0
 13 14  2  0  0  0  0
 14 15  1  0  0  0  0
 15 16  1  0  0  0  0
 16 17  1  0  0  0  0
  1 18  2  0  0  0  0
  1 19  1  0  0  0  0
 20 21  1  0  0  0  0
 21 22  2  0  0  0  0
 22 23  1  0  0  0  0
 23 24  2  0  0  0  0
 24 25  1  0  0  0  0
 20 25  2  0  0  0  0
 17 20  1  0  0  0  0
 15 26  1  6  0  0  0
 11 27  1  6  0  0  0
  9 28  1  6  0  0  0
 29 30  1  0  0  0  0
 31 32  1  0  0  0  0
 29 31  1  0  0  0  0
 30 33  1  0  0  0  0
 19 29  1  0  0  0  0
M  END
>  <cdx:groupId>
107

>  <cdx:fragmentId>
158

$$$$
