39750.cdx
  Mrv1902 05222410252D          

 33 36  0  0  0  0            999 V2000
    3.9579   -8.6343    0.0000 C   0  0  0  0  0  0  0  0  0  0  0  0
    3.2434   -9.0468    0.0000 C   0  0  0  0  0  0  0  0  0  0  0  0
    3.2434   -9.8718    0.0000 C   0  0  0  0  0  0  0  0  0  0  0  0
    3.9579  -10.2843    0.0000 C   0  0  0  0  0  0  0  0  0  0  0  0
    4.6724   -9.8718    0.0000 C   0  0  0  0  0  0  0  0  0  0  0  0
    5.3869  -10.2843    0.0000 C   0  0  0  0  0  0  0  0  0  0  0  0
    6.1013   -9.8718    0.0000 C   0  0  0  0  0  0  0  0  0  0  0  0
    6.1013   -9.0468    0.0000 C   0  0  1  0  0  0  0  0  0  0  0  0
    6.8158   -8.6343    0.0000 C   0  0  2  0  0  0  0  0  0  0  0  0
    7.6004   -8.8893    0.0000 C   0  0  0  0  0  0  0  0  0  0  0  0
    8.0853   -8.2218    0.0000 C   0  0  0  0  0  0  0  0  0  0  0  0
    7.6004   -7.5544    0.0000 C   0  0  1  0  0  0  0  0  0  0  0  0
    6.8158   -7.8093    0.0000 C   0  0  1  0  0  0  0  0  0  0  0  0
    6.1013   -7.3968    0.0000 C   0  0  0  0  0  0  0  0  0  0  0  0
    5.3869   -7.8093    0.0000 C   0  0  0  0  0  0  0  0  0  0  0  0
    5.3869   -8.6343    0.0000 C   0  0  2  0  0  0  0  0  0  0  0  0
    4.6724   -9.0468    0.0000 C   0  0  1  0  0  0  0  0  0  0  0  0
    2.5290  -10.2843    0.0000 O   0  0  0  0  0  0  0  0  0  0  0  0
    6.8158   -6.9843    0.0000 C   0  0  0  0  0  0  0  0  0  0  0  0
    4.6724   -8.2218    0.0000 C   0  0  0  0  0  0  0  0  0  0  0  0
    7.8554   -6.7698    0.0000 O   0  0  0  0  0  0  0  0  0  0  0  0
    6.1013   -8.2218    0.0000 H   0  0  0  0  0  0  0  0  0  0  0  0
    5.3869   -9.4593    0.0000 H   0  0  0  0  0  0  0  0  0  0  0  0
    6.8158   -9.4593    0.0000 H   0  0  0  0  0  0  0  0  0  0  0  0
    5.3869  -11.1093    0.0000 O   0  0  0  0  0  0  0  0  0  0  0  0
    8.6623   -6.5983    0.0000 C   0  0  0  0  0  0  0  0  0  0  0  0
    9.2144   -7.2113    0.0000 O   0  0  0  0  0  0  0  0  0  0  0  0
    8.9173   -5.8136    0.0000 C   0  0  0  0  0  0  0  0  0  0  0  0
    9.7242   -5.6421    0.0000 C   0  0  0  0  0  0  0  0  0  0  0  0
    9.9792   -4.8575    0.0000 C   0  0  0  0  0  0  0  0  0  0  0  0
   10.7862   -4.6860    0.0000 C   0  0  0  0  0  0  0  0  0  0  0  0
   11.0411   -3.9013    0.0000 C   0  0  0  0  0  0  0  0  0  0  0  0
   11.8481   -3.7298    0.0000 C   0  0  0  0  0  0  0  0  0  0  0  0
  1  2  1  0  0  0  0
  2  3  1  0  0  0  0
  3  4  1  0  0  0  0
  4  5  2  0  0  0  0
  5  6  1  0  0  0  0
  6  7  1  0  0  0  0
  7  8  1  0  0  0  0
  8  9  1  0  0  0  0
  9 10  1  0  0  0  0
 10 11  1  0  0  0  0
 11 12  1  0  0  0  0
 12 13  1  0  0  0  0
  9 13  1  0  0  0  0
 13 14  1  0  0  0  0
 14 15  1  0  0  0  0
 15 16  1  0  0  0  0
  8 16  1  0  0  0  0
 16 17  1  0  0  0  0
  5 17  1  0  0  0  0
  1 17  1  0  0  0  0
  3 18  2  0  0  0  0
 13 19  1  1  0  0  0
 17 20  1  1  0  0  0
 12 21  1  1  0  0  0
  8 22  1  1  0  0  0
 16 23  1  6  0  0  0
  9 24  1  6  0  0  0
  6 25  2  0  0  0  0
 21 26  1  0  0  0  0
 26 27  2  0  0  0  0
 26 28  1  0  0  0  0
 28 29  1  0  0  0  0
 29 30  1  0  0  0  0
 30 31  1  0  0  0  0
 31 32  1  0  0  0  0
 32 33  1  0  0  0  0
M  END
>  <cdx:fragmentId>
3698

$$$$
