39753.cdx
  Mrv1902 05222410262D          

 28 27  0  0  0  0            999 V2000
    3.6163   -8.8337    0.0000 O   0  0  0  0  0  0  0  0  0  0  0  0
    2.4496  -10.0004    0.0000 O   0  0  0  0  0  0  0  0  0  0  0  0
    3.7474   -9.8296    0.0000 O   0  0  0  0  0  0  0  0  0  0  0  0
    2.4496   -8.8337    0.0000 O   0  0  0  0  0  0  0  0  0  0  0  0
    3.0329   -9.4171    0.0000 P   0  0  0  0  0  0  0  0  0  0  0  0
    7.3198   -8.5921    0.0000 O   0  0  0  0  0  0  0  0  0  0  0  0
   18.7513   -9.4171    0.0000 C   0  0  0  0  0  0  0  0  0  0  0  0
   18.0368   -9.8296    0.0000 C   0  0  0  0  0  0  0  0  0  0  0  0
   17.3223   -9.4171    0.0000 C   0  0  0  0  0  0  0  0  0  0  0  0
   16.6079   -9.8296    0.0000 C   0  0  0  0  0  0  0  0  0  0  0  0
   15.8934   -9.4171    0.0000 C   0  0  0  0  0  0  0  0  0  0  0  0
   15.1789   -9.8296    0.0000 C   0  0  0  0  0  0  0  0  0  0  0  0
   14.4645   -9.4171    0.0000 C   0  0  0  0  0  0  0  0  0  0  0  0
   13.7500   -9.8296    0.0000 C   0  0  0  0  0  0  0  0  0  0  0  0
   13.0355   -9.4171    0.0000 C   0  0  0  0  0  0  0  0  0  0  0  0
   12.3211   -9.8296    0.0000 C   0  0  0  0  0  0  0  0  0  0  0  0
   11.6066   -9.4171    0.0000 C   0  0  0  0  0  0  0  0  0  0  0  0
   10.8921   -9.8296    0.0000 C   0  0  0  0  0  0  0  0  0  0  0  0
   10.1776   -9.4171    0.0000 C   0  0  0  0  0  0  0  0  0  0  0  0
    9.4632   -9.8296    0.0000 C   0  0  0  0  0  0  0  0  0  0  0  0
    8.7487   -9.4171    0.0000 C   0  0  0  0  0  0  0  0  0  0  0  0
    8.0342   -9.8296    0.0000 C   0  0  0  0  0  0  0  0  0  0  0  0
    7.3198   -9.4171    0.0000 C   0  0  0  0  0  0  0  0  0  0  0  0
    4.4619   -9.4171    0.0000 C   0  0  0  0  0  0  0  0  0  0  0  0
    5.1763  -10.6546    0.0000 O   0  0  0  0  0  0  0  0  0  0  0  0
    5.1763   -9.8296    0.0000 C   0  0  2  0  0  0  0  0  0  0  0  0
    5.8908   -9.4171    0.0000 C   0  0  0  0  0  0  0  0  0  0  0  0
    6.6053   -9.8296    0.0000 O   0  0  0  0  0  0  0  0  0  0  0  0
 24  3  1  0  0  0  0
  5  1  1  0  0  0  0
  5  2  1  0  0  0  0
  5  3  1  0  0  0  0
  5  4  2  0  0  0  0
 28 23  1  0  0  0  0
 23  6  2  0  0  0  0
  8  7  1  0  0  0  0
  9  8  1  0  0  0  0
 10  9  1  0  0  0  0
 11 10  1  0  0  0  0
 12 11  1  0  0  0  0
 13 12  1  0  0  0  0
 14 13  1  0  0  0  0
 15 14  1  0  0  0  0
 16 15  1  0  0  0  0
 17 16  1  0  0  0  0
 18 17  1  0  0  0  0
 19 18  1  0  0  0  0
 20 19  1  0  0  0  0
 21 20  1  0  0  0  0
 22 21  1  0  0  0  0
 23 22  1  0  0  0  0
 26 24  1  0  0  0  0
 26 25  1  1  0  0  0
 27 26  1  0  0  0  0
 28 27  1  0  0  0  0
M  END
>  <cdx:groupId>
89

>  <cdx:fragmentId>
19

$$$$
