39755.cdx
  Mrv1902 05222410242D          

 34 38  0  0  0  0            999 V2000
    5.6500  -10.0018    0.0000 C   0  0  0  0  0  0  0  0  0  0  0  0
    4.9367  -10.4164    0.0000 C   0  0  1  0  0  0  0  0  0  0  0  0
    4.9392  -11.2414    0.0000 C   0  0  0  0  0  0  0  0  0  0  0  0
    5.6549  -11.6518    0.0000 C   0  0  0  0  0  0  0  0  0  0  0  0
    6.3681  -11.2372    0.0000 C   0  0  2  0  0  0  0  0  0  0  0  0
    7.0838  -11.6475    0.0000 C   0  0  0  0  0  0  0  0  0  0  0  0
    7.7971  -11.2329    0.0000 C   0  0  0  0  0  0  0  0  0  0  0  0
    7.7946  -10.4079    0.0000 C   0  0  2  0  0  0  0  0  0  0  0  0
    8.5079   -9.9933    0.0000 C   0  0  0  0  0  0  0  0  0  0  0  0
    9.2235  -10.4037    0.0000 C   0  0  0  0  0  0  0  0  0  0  0  0
    9.9368   -9.9891    0.0000 C   0  0  0  0  0  0  0  0  0  0  0  0
    9.9344   -9.1641    0.0000 C   0  0  0  0  0  0  0  0  0  0  0  0
   10.6476   -8.7495    0.0000 C   0  0  0  0  0  0  0  0  0  0  0  0
   10.6452   -7.9245    0.0000 C   0  0  0  0  0  0  0  0  0  0  0  0
    9.9295   -7.5141    0.0000 C   0  0  0  0  0  0  0  0  0  0  0  0
    9.2162   -7.9287    0.0000 C   0  0  0  0  0  0  0  0  0  0  0  0
    9.2187   -8.7537    0.0000 C   0  0  0  0  0  0  0  0  0  0  0  0
    8.5054   -9.1683    0.0000 C   0  0  2  0  0  0  0  0  0  0  0  0
    7.7897   -8.7579    0.0000 C   0  0  0  0  0  0  0  0  0  0  0  0
    7.0765   -9.1726    0.0000 C   0  0  0  0  0  0  0  0  0  0  0  0
    7.0789   -9.9976    0.0000 C   0  0  1  0  0  0  0  0  0  0  0  0
    6.3657  -10.4122    0.0000 C   0  0  2  0  0  0  0  0  0  0  0  0
    4.2211  -10.0060    0.0000 C   0  0  0  0  0  0  0  0  0  0  0  0
    4.2186   -9.1810    0.0000 O   0  0  0  0  0  0  0  0  0  0  0  0
    3.5078  -10.4206    0.0000 O   0  0  0  0  0  0  0  0  0  0  0  0
    7.0789  -10.8226    0.0000 C   0  0  0  0  0  0  0  0  0  0  0  0
   11.3633   -9.1599    0.0000 C   0  0  0  0  0  0  0  0  0  0  0  0
    6.3706  -12.0622    0.0000 C   0  0  0  0  0  0  0  0  0  0  0  0
    4.2235  -10.8310    0.0000 C   0  0  0  0  0  0  0  0  0  0  0  0
    9.9270   -6.6891    0.0000 O   0  0  0  0  0  0  0  0  0  0  0  0
   11.3584   -7.5099    0.0000 O   0  0  0  0  0  0  0  0  0  0  0  0
    6.3657   -9.5872    0.0000 H   0  0  0  0  0  0  0  0  0  0  0  0
    7.7704   -9.7003    0.0000 C   0  0  0  0  0  0  0  0  0  0  0  0
    8.5030   -8.3433    0.0000 C   0  0  0  0  0  0  0  0  0  0  0  0
  1  2  1  0  0  0  0
  2  3  1  0  0  0  0
  3  4  1  0  0  0  0
  4  5  1  0  0  0  0
  5  6  1  0  0  0  0
  6  7  1  0  0  0  0
  7  8  1  0  0  0  0
  8  9  1  0  0  0  0
  9 10  2  0  0  0  0
 10 11  1  0  0  0  0
 11 12  1  0  0  0  0
 12 13  1  0  0  0  0
 13 14  2  0  0  0  0
 14 15  1  0  0  0  0
 15 16  2  0  0  0  0
 16 17  1  0  0  0  0
 12 17  2  0  0  0  0
 17 18  1  0  0  0  0
  9 18  1  0  0  0  0
 18 19  1  0  0  0  0
 19 20  1  0  0  0  0
 20 21  1  0  0  0  0
  8 21  1  0  0  0  0
 21 22  1  0  0  0  0
  5 22  1  0  0  0  0
  1 22  1  0  0  0  0
 23 24  2  0  0  0  0
 23 25  1  0  0  0  0
  2 23  1  0  0  0  0
 21 26  1  1  0  0  0
 13 27  1  0  0  0  0
  5 28  1  6  0  0  0
  2 29  1  6  0  0  0
 15 30  1  0  0  0  0
 14 31  1  0  0  0  0
 22 32  1  6  0  0  0
  8 33  1  6  0  0  0
 18 34  1  6  0  0  0
M  END
>  <cdx:groupId>
113

>  <cdx:fragmentId>
10

$$$$
