39754.cdx
  Mrv1902 05222410242D          

 34 37  0  0  0  0            999 V2000
    3.8225  -13.1478    0.0000 C   0  0  0  0  0  0  0  0  0  0  0  0
    3.8225  -12.3228    0.0000 C   0  0  0  0  0  0  0  0  0  0  0  0
    4.5370  -11.9103    0.0000 C   0  0  0  0  0  0  0  0  0  0  0  0
    4.5370  -13.5603    0.0000 C   0  0  0  0  0  0  0  0  0  0  0  0
    5.2515  -13.1478    0.0000 C   0  0  0  0  0  0  0  0  0  0  0  0
    5.9659  -13.5603    0.0000 C   0  0  0  0  0  0  0  0  0  0  0  0
    6.6804  -13.1478    0.0000 C   0  0  0  0  0  0  0  0  0  0  0  0
    6.6804  -12.3228    0.0000 C   0  0  1  0  0  0  0  0  0  0  0  0
    7.3949  -11.9103    0.0000 C   0  0  0  0  0  0  0  0  0  0  0  0
    8.1795  -12.1653    0.0000 C   0  0  0  0  0  0  0  0  0  0  0  0
    8.6644  -11.4978    0.0000 C   0  0  0  0  0  0  0  0  0  0  0  0
    8.1795  -10.8304    0.0000 C   0  0  2  0  0  0  0  0  0  0  0  0
    8.4344  -10.0458    0.0000 C   0  0  1  0  0  0  0  0  0  0  0  0
    9.2414   -9.8742    0.0000 C   0  0  0  0  0  0  0  0  0  0  0  0
    9.4964   -9.0896    0.0000 C   0  0  0  0  0  0  0  0  0  0  0  0
   10.3033   -8.9181    0.0000 C   0  0  0  0  0  0  0  0  0  0  0  0
   10.5583   -8.1335    0.0000 C   0  0  0  0  0  0  0  0  0  0  0  0
   10.0062   -7.5204    0.0000 C   0  0  0  0  0  0  0  0  0  0  0  0
   11.3652   -7.9619    0.0000 C   0  0  0  0  0  0  0  0  0  0  0  0
    8.2629   -9.2388    0.0000 C   0  0  0  0  0  0  0  0  0  0  0  0
    7.3949  -11.0853    0.0000 C   0  0  2  0  0  0  0  0  0  0  0  0
    7.3949  -10.2603    0.0000 C   0  0  0  0  0  0  0  0  0  0  0  0
    6.6804  -10.6728    0.0000 C   0  0  0  0  0  0  0  0  0  0  0  0
    5.9659  -11.0853    0.0000 C   0  0  0  0  0  0  0  0  0  0  0  0
    5.9659  -11.9103    0.0000 C   0  0  2  0  0  0  0  0  0  0  0  0
    5.2515  -12.3228    0.0000 C   0  0  1  0  0  0  0  0  0  0  0  0
    5.2515  -11.4978    0.0000 C   0  0  0  0  0  0  0  0  0  0  0  0
    8.4344  -12.9499    0.0000 O   0  0  0  0  0  0  0  0  0  0  0  0
    7.6498   -9.7908    0.0000 O   0  0  0  0  0  0  0  0  0  0  0  0
    3.1081  -13.5603    0.0000 O   0  0  0  0  0  0  0  0  0  0  0  0
    9.4894  -11.4978    0.0000 O   0  0  0  0  0  0  0  0  0  0  0  0
    5.9659  -12.7353    0.0000 H   0  0  0  0  0  0  0  0  0  0  0  0
    6.6804  -11.4978    0.0000 H   0  0  0  0  0  0  0  0  0  0  0  0
    8.9764  -10.6168    0.0000 H   0  0  0  0  0  0  0  0  0  0  0  0
  1  2  1  0  0  0  0
  2  3  1  0  0  0  0
  1  4  1  0  0  0  0
  4  5  2  0  0  0  0
  5  6  1  0  0  0  0
  6  7  1  0  0  0  0
  7  8  1  0  0  0  0
  8  9  1  0  0  0  0
  9 10  2  0  0  0  0
 10 11  1  0  0  0  0
 12 11  1  0  0  0  0
 12 13  1  0  0  0  0
 13 14  1  0  0  0  0
 14 15  1  0  0  0  0
 15 16  1  0  0  0  0
 16 17  1  0  0  0  0
 17 18  1  0  0  0  0
 17 19  1  0  0  0  0
 13 20  1  6  0  0  0
 12 21  1  0  0  0  0
  9 21  1  0  0  0  0
 21 22  1  1  0  0  0
 21 23  1  0  0  0  0
 23 24  1  0  0  0  0
 24 25  1  0  0  0  0
  8 25  1  0  0  0  0
 25 26  1  0  0  0  0
  3 26  1  0  0  0  0
  5 26  1  0  0  0  0
 26 27  1  1  0  0  0
 10 28  1  0  0  0  0
 13 29  1  0  0  0  0
  1 30  2  0  0  0  0
 11 31  2  0  0  0  0
 25 32  1  6  0  0  0
  8 33  1  1  0  0  0
 12 34  1  6  0  0  0
M  END
>  <cdx:groupId>
108

>  <cdx:fragmentId>
9

$$$$
