39751.cdx
  Mrv1902 05222410242D          

 28 29  0  0  0  0            999 V2000
    5.5799   -9.3087    0.0000 N   0  0  0  0  0  0  0  0  0  0  0  0
    6.2464   -9.7950    0.0000 C   0  0  0  0  0  0  0  0  0  0  0  0
    6.9148   -9.3115    0.0000 C   0  0  0  0  0  0  0  0  0  0  0  0
    6.6615   -8.5263    0.0000 C   0  0  0  0  0  0  0  0  0  0  0  0
    5.8365   -8.5246    0.0000 C   0  0  0  0  0  0  0  0  0  0  0  0
    6.2447  -10.6200    0.0000 C   0  0  0  0  0  0  0  0  0  0  0  0
    6.9583  -11.0340    0.0000 O   0  0  0  0  0  0  0  0  0  0  0  0
    5.5293  -11.0310    0.0000 N   0  0  0  0  0  0  0  0  0  0  0  0
    7.1478   -7.8599    0.0000 C   0  0  0  0  0  0  0  0  0  0  0  0
    6.8138   -7.1055    0.0000 C   0  0  0  0  0  0  0  0  0  0  0  0
    7.3001   -6.4391    0.0000 C   0  0  0  0  0  0  0  0  0  0  0  0
    4.7948   -9.5620    0.0000 C   0  0  0  0  0  0  0  0  0  0  0  0
    5.5276  -11.8560    0.0000 C   0  0  0  0  0  0  0  0  0  0  0  0
    4.8123  -12.2670    0.0000 C   0  0  0  0  0  0  0  0  0  0  0  0
    4.8106  -13.0920    0.0000 C   0  0  0  0  0  0  0  0  0  0  0  0
    6.9566  -11.8590    0.0000 O   0  0  0  0  0  0  0  0  0  0  0  0
    6.2412  -12.2700    0.0000 C   0  0  0  0  0  0  0  0  0  0  0  0
    6.2395  -13.0950    0.0000 C   0  0  0  0  0  0  0  0  0  0  0  0
    6.9532  -13.5090    0.0000 C   0  0  0  0  0  0  0  0  0  0  0  0
    7.6685  -13.0980    0.0000 C   0  0  0  0  0  0  0  0  0  0  0  0
    7.6702  -12.2730    0.0000 C   0  0  0  0  0  0  0  0  0  0  0  0
    8.3855  -11.8619    0.0000 S   0  0  0  0  0  0  0  0  0  0  0  0
    9.0991  -12.2759    0.0000 O   0  0  0  0  0  0  0  0  0  0  0  0
    8.3872  -11.0370    0.0000 C   0  0  0  0  0  0  0  0  0  0  0  0
    8.3821  -13.5119    0.0000 O   0  0  0  0  0  0  0  0  0  0  0  0
    6.9514  -14.3340    0.0000 O   0  0  0  0  0  0  0  0  0  0  0  0
    5.5242  -13.5060    0.0000 O   0  0  0  0  0  0  0  0  0  0  0  0
    4.0987  -11.8531    0.0000 Cl  0  0  0  0  0  0  0  0  0  0  0  0
  1  2  1  0  0  0  0
  2  3  1  0  0  0  0
  3  4  1  0  0  0  0
  4  5  1  0  0  0  0
  1  5  1  0  0  0  0
  6  7  2  0  0  0  0
  6  8  1  0  0  0  0
  2  6  1  0  0  0  0
  9 10  1  0  0  0  0
 10 11  1  0  0  0  0
  4  9  1  0  0  0  0
  1 12  1  0  0  0  0
 13 14  1  0  0  0  0
 14 15  1  0  0  0  0
 16 17  1  0  0  0  0
 17 18  1  0  0  0  0
 18 19  1  0  0  0  0
 19 20  1  0  0  0  0
 20 21  1  0  0  0  0
 16 21  1  0  0  0  0
 22 23  2  0  0  0  0
 22 24  1  0  0  0  0
 21 22  1  0  0  0  0
 20 25  1  0  0  0  0
 19 26  1  0  0  0  0
 18 27  1  0  0  0  0
 13 17  1  0  0  0  0
 14 28  1  0  0  0  0
  8 13  1  0  0  0  0
M  END
>  <cdx:groupId>
92

>  <cdx:fragmentId>
40

$$$$
