39752.cdx
  Mrv1902 05222410252D          

 32 32  0  0  0  0            999 V2000
    2.2048  -11.7546    0.0000 O   0  0  0  0  0  0  0  0  0  0  0  0
    0.7759  -10.9296    0.0000 O   0  0  0  0  0  0  0  0  0  0  0  0
    5.0627  -11.7546    0.0000 C   0  0  0  0  0  0  0  0  0  0  0  0
    7.9206  -11.7546    0.0000 C   0  0  0  0  0  0  0  0  0  0  0  0
   10.7784  -11.7546    0.0000 C   0  0  0  0  0  0  0  0  0  0  0  0
   14.3508  -10.5171    0.0000 C   0  0  0  0  0  0  0  0  0  0  0  0
   13.6363  -11.7546    0.0000 C   0  0  0  0  0  0  0  0  0  0  0  0
   13.6363  -10.9296    0.0000 C   0  0  0  0  0  0  0  0  0  0  0  0
   12.9219  -10.5171    0.0000 C   0  0  0  0  0  0  0  0  0  0  0  0
   12.2074  -10.9296    0.0000 C   0  0  0  0  0  0  0  0  0  0  0  0
   11.4929  -10.5171    0.0000 C   0  0  0  0  0  0  0  0  0  0  0  0
   10.7784  -10.9296    0.0000 C   0  0  0  0  0  0  0  0  0  0  0  0
   10.0640  -10.5171    0.0000 C   0  0  0  0  0  0  0  0  0  0  0  0
    9.3495  -10.9296    0.0000 C   0  0  0  0  0  0  0  0  0  0  0  0
    8.6350  -10.5171    0.0000 C   0  0  0  0  0  0  0  0  0  0  0  0
    7.9206  -10.9296    0.0000 C   0  0  0  0  0  0  0  0  0  0  0  0
    7.2061  -10.5171    0.0000 C   0  0  0  0  0  0  0  0  0  0  0  0
    6.4916  -10.9296    0.0000 C   0  0  0  0  0  0  0  0  0  0  0  0
    5.7771  -10.5171    0.0000 C   0  0  0  0  0  0  0  0  0  0  0  0
    5.0627  -10.9296    0.0000 C   0  0  0  0  0  0  0  0  0  0  0  0
    4.3482  -10.5171    0.0000 C   0  0  0  0  0  0  0  0  0  0  0  0
    3.6337  -10.9296    0.0000 C   0  0  0  0  0  0  0  0  0  0  0  0
    2.2048   -9.2796    0.0000 C   0  0  0  0  0  0  0  0  0  0  0  0
    1.4903   -9.6921    0.0000 C   0  0  0  0  0  0  0  0  0  0  0  0
    1.4903  -10.5171    0.0000 C   0  0  0  0  0  0  0  0  0  0  0  0
    2.2048  -10.9296    0.0000 C   0  0  0  0  0  0  0  0  0  0  0  0
    2.9193  -10.5171    0.0000 C   0  0  0  0  0  0  0  0  0  0  0  0
    2.9193   -9.6921    0.0000 C   0  0  0  0  0  0  0  0  0  0  0  0
    3.6337   -9.2796    0.0000 O   0  0  0  0  0  0  0  0  0  0  0  0
    2.9193   -8.0421    0.0000 O   0  0  0  0  0  0  0  0  0  0  0  0
    4.3482   -8.0421    0.0000 C   0  0  0  0  0  0  0  0  0  0  0  0
    3.6337   -8.4546    0.0000 C   0  0  0  0  0  0  0  0  0  0  0  0
 29 28  1  0  0  0  0
 26  1  1  0  0  0  0
 25  2  1  0  0  0  0
 27 22  1  0  0  0  0
 20  3  1  0  0  0  0
 16  4  1  0  0  0  0
 12  5  1  0  0  0  0
  8  6  1  0  0  0  0
  8  7  1  0  0  0  0
  9  8  2  0  0  0  0
 10  9  1  0  0  0  0
 11 10  1  0  0  0  0
 12 11  1  0  0  0  0
 13 12  2  0  0  0  0
 14 13  1  0  0  0  0
 15 14  1  0  0  0  0
 16 15  1  0  0  0  0
 17 16  2  0  0  0  0
 18 17  1  0  0  0  0
 19 18  1  0  0  0  0
 20 19  1  0  0  0  0
 21 20  2  0  0  0  0
 22 21  1  0  0  0  0
 28 23  2  0  0  0  0
 24 23  1  0  0  0  0
 25 24  2  0  0  0  0
 26 25  1  0  0  0  0
 27 26  2  0  0  0  0
 28 27  1  0  0  0  0
 32 29  1  0  0  0  0
 32 30  2  0  0  0  0
 32 31  1  0  0  0  0
M  END
>  <cdx:groupId>
121

>  <cdx:fragmentId>
29

$$$$
