39757.cdx
  Mrv1902 05222410232D          

 28 28  0  0  0  0            999 V2000
   10.7800   -8.4434    0.0000 C   0  0  0  0  0  0  0  0  0  0  0  0
   11.4945   -8.8559    0.0000 C   0  0  0  0  0  0  0  0  0  0  0  0
   12.2089   -8.4434    0.0000 C   0  0  0  0  0  0  0  0  0  0  0  0
   12.9234   -8.8559    0.0000 C   0  0  0  0  0  0  0  0  0  0  0  0
   13.6379   -8.4434    0.0000 C   0  0  0  0  0  0  0  0  0  0  0  0
   14.3524   -8.8559    0.0000 C   0  0  0  0  0  0  0  0  0  0  0  0
   15.0668   -8.4434    0.0000 C   0  0  0  0  0  0  0  0  0  0  0  0
   15.7813   -8.8559    0.0000 C   0  0  0  0  0  0  0  0  0  0  0  0
   16.4958   -8.4434    0.0000 C   0  0  0  0  0  0  0  0  0  0  0  0
   17.2102   -8.8559    0.0000 C   0  0  0  0  0  0  0  0  0  0  0  0
   10.7800   -7.6184    0.0000 O   0  0  0  0  0  0  0  0  0  0  0  0
   10.0655   -9.6809    0.0000 C   0  0  0  0  0  0  0  0  0  0  0  0
   10.0655   -8.8559    0.0000 C   0  0  0  0  0  0  0  0  0  0  0  0
    9.3511   -8.4434    0.0000 C   0  0  0  0  0  0  0  0  0  0  0  0
    8.6366   -8.8559    0.0000 C   0  0  0  0  0  0  0  0  0  0  0  0
    8.6366   -9.6809    0.0000 C   0  0  0  0  0  0  0  0  0  0  0  0
    9.3511  -10.0934    0.0000 N   0  0  0  0  0  0  0  0  0  0  0  0
    7.9221   -8.4434    0.0000 C   0  0  0  0  0  0  0  0  0  0  0  0
    7.2076   -8.8559    0.0000 C   0  0  0  0  0  0  0  0  0  0  0  0
    6.4932   -8.4434    0.0000 C   0  0  0  0  0  0  0  0  0  0  0  0
    5.7787   -8.8559    0.0000 C   0  0  0  0  0  0  0  0  0  0  0  0
    5.0642   -8.4434    0.0000 C   0  0  0  0  0  0  0  0  0  0  0  0
    4.3498   -8.8559    0.0000 C   0  0  0  0  0  0  0  0  0  0  0  0
    3.6353   -8.4434    0.0000 C   0  0  0  0  0  0  0  0  0  0  0  0
    2.9208   -8.8559    0.0000 C   0  0  0  0  0  0  0  0  0  0  0  0
    2.2063   -8.4434    0.0000 C   0  0  0  0  0  0  0  0  0  0  0  0
    1.4919   -8.8559    0.0000 C   0  0  0  0  0  0  0  0  0  0  0  0
    7.9221   -7.6184    0.0000 O   0  0  0  0  0  0  0  0  0  0  0  0
  1  2  1  0  0  0  0
  2  3  1  0  0  0  0
  3  4  1  0  0  0  0
  4  5  1  0  0  0  0
  5  6  1  0  0  0  0
  6  7  1  0  0  0  0
  7  8  1  0  0  0  0
  8  9  1  0  0  0  0
  9 10  1  0  0  0  0
  1 11  2  0  0  0  0
 12 13  1  0  0  0  0
 13 14  2  0  0  0  0
 14 15  1  0  0  0  0
 15 16  2  0  0  0  0
 16 17  1  0  0  0  0
 12 17  2  0  0  0  0
 18 19  1  0  0  0  0
 19 20  1  0  0  0  0
 20 21  1  0  0  0  0
 21 22  1  0  0  0  0
 22 23  1  0  0  0  0
 23 24  1  0  0  0  0
 24 25  1  0  0  0  0
 25 26  1  0  0  0  0
 26 27  1  0  0  0  0
 18 28  2  0  0  0  0
 15 18  1  0  0  0  0
  1 13  1  0  0  0  0
M  END
>  <cdx:groupId>
308

>  <cdx:fragmentId>
45

$$$$
