39765.cdx
  Mrv1902 05222410222D          

 36 42  0  0  0  0            999 V2000
    7.8504   -3.7584    0.0000 C   0  0  0  0  0  0  0  0  0  0  0  0
    7.0460   -3.9286    0.0000 C   0  0  0  0  0  0  0  0  0  0  0  0
    6.7912   -4.7102    0.0000 C   0  0  0  0  0  0  0  0  0  0  0  0
    9.6160   -3.4882    0.0000 N   0  0  0  0  0  0  0  0  0  0  0  0
    9.2042   -4.1998    0.0000 C   0  0  0  0  0  0  0  0  0  0  0  0
    9.7537   -4.8113    0.0000 C   0  0  0  0  0  0  0  0  0  0  0  0
   10.5047   -4.4769    0.0000 C   0  0  0  0  0  0  0  0  0  0  0  0
   11.2558   -4.8128    0.0000 C   0  0  0  0  0  0  0  0  0  0  0  0
   11.9214   -4.3302    0.0000 C   0  0  0  0  0  0  0  0  0  0  0  0
   11.8363   -3.5125    0.0000 C   0  0  0  0  0  0  0  0  0  0  0  0
   11.0856   -3.1774    0.0000 C   0  0  0  0  0  0  0  0  0  0  0  0
   10.4200   -3.6600    0.0000 C   0  0  0  0  0  0  0  0  0  0  0  0
    8.3999   -4.3700    0.0000 C   0  0  0  0  0  0  0  0  0  0  0  0
    9.4989   -5.5930    0.0000 C   0  0  0  0  0  0  0  0  0  0  0  0
    8.6946   -5.7631    0.0000 C   0  0  0  0  0  0  0  0  0  0  0  0
    8.1450   -5.1516    0.0000 N   0  3  0  0  0  0  0  0  0  0  0  0
    5.6177   -5.7899    0.0000 N   0  0  0  0  0  0  0  0  0  0  0  0
    6.2826   -6.2747    0.0000 C   0  0  0  0  0  0  0  0  0  0  0  0
    6.0276   -7.0554    0.0000 C   0  0  0  0  0  0  0  0  0  0  0  0
    5.2054   -7.0546    0.0000 C   0  0  0  0  0  0  0  0  0  0  0  0
    4.6547   -7.6650    0.0000 C   0  0  0  0  0  0  0  0  0  0  0  0
    3.8507   -7.4933    0.0000 C   0  0  0  0  0  0  0  0  0  0  0  0
    3.5974   -6.7112    0.0000 C   0  0  0  0  0  0  0  0  0  0  0  0
    4.1481   -6.1007    0.0000 C   0  0  0  0  0  0  0  0  0  0  0  0
    4.9521   -6.2725    0.0000 C   0  0  0  0  0  0  0  0  0  0  0  0
    7.0867   -6.1037    0.0000 C   0  0  0  0  0  0  0  0  0  0  0  0
    6.5771   -7.6669    0.0000 C   0  0  0  0  0  0  0  0  0  0  0  0
    7.3814   -7.4968    0.0000 C   0  0  0  0  0  0  0  0  0  0  0  0
    7.6362   -6.7152    0.0000 N   0  0  0  0  0  0  0  0  0  0  0  0
    6.3231   -8.4489    0.0000 O   0  0  0  0  0  0  0  0  0  0  0  0
    5.5189   -8.6199    0.0000 C   0  0  0  0  0  0  0  0  0  0  0  0
   10.0491   -6.2039    0.0000 O   0  0  0  0  0  0  0  0  0  0  0  0
    9.7951   -6.9858    0.0000 C   0  0  0  0  0  0  0  0  0  0  0  0
    7.3407   -5.3217    0.0000 C   0  0  1  0  0  0  0  0  0  0  0  0
   11.0002   -2.3568    0.0000 O   0  0  0  0  0  0  0  0  0  0  0  0
   10.2468   -2.0205    0.0000 C   0  0  0  0  0  0  0  0  0  0  0  0
  1  2  1  0  0  0  0
  2  3  1  0  0  0  0
  4  5  1  0  0  0  0
  5  6  2  0  0  0  0
  6  7  1  0  0  0  0
  7  8  1  0  0  0  0
  8  9  2  0  0  0  0
  9 10  1  0  0  0  0
 10 11  2  0  0  0  0
 11 12  1  0  0  0  0
  4 12  1  0  0  0  0
  7 12  2  0  0  0  0
 14 15  2  0  0  0  0
 15 16  1  0  0  0  0
 13 16  2  0  0  0  0
 13  5  1  0  0  0  0
 14  6  1  0  0  0  0
  1 13  1  0  0  0  0
 17 18  1  0  0  0  0
 18 19  2  0  0  0  0
 19 20  1  0  0  0  0
 20 21  1  0  0  0  0
 21 22  2  0  0  0  0
 22 23  1  0  0  0  0
 23 24  2  0  0  0  0
 24 25  1  0  0  0  0
 17 25  1  0  0  0  0
 20 25  2  0  0  0  0
 27 28  2  0  0  0  0
 28 29  1  0  0  0  0
 26 29  2  0  0  0  0
 26 18  1  0  0  0  0
 27 19  1  0  0  0  0
 30 31  1  0  0  0  0
 27 30  1  0  0  0  0
 14 32  1  0  0  0  0
 32 33  1  0  0  0  0
  3 34  1  0  0  0  0
 34 16  1  0  0  0  0
 34 26  1  1  0  0  0
 11 35  1  0  0  0  0
 35 36  1  0  0  0  0
M  CHG  1  16   1
M  END
>  <cdx:fragmentId>
174

$$$$
