39762.cdx
  Mrv1902 05222410202D          

 34 40  0  0  0  0            999 V2000
    7.3898   -4.0887    0.0000 C   0  0  0  0  0  0  0  0  0  0  0  0
    6.5841   -4.2522    0.0000 C   0  0  0  0  0  0  0  0  0  0  0  0
    6.3229   -5.0318    0.0000 C   0  0  0  0  0  0  0  0  0  0  0  0
    9.1576   -3.8328    0.0000 N   0  0  0  0  0  0  0  0  0  0  0  0
    8.7400   -4.5410    0.0000 C   0  0  0  0  0  0  0  0  0  0  0  0
    9.2845   -5.1570    0.0000 C   0  0  0  0  0  0  0  0  0  0  0  0
   10.0383   -4.8287    0.0000 C   0  0  0  0  0  0  0  0  0  0  0  0
   10.7866   -5.1707    0.0000 C   0  0  0  0  0  0  0  0  0  0  0  0
   11.4561   -4.6936    0.0000 C   0  0  0  0  0  0  0  0  0  0  0  0
   11.3776   -3.8752    0.0000 C   0  0  0  0  0  0  0  0  0  0  0  0
   10.6297   -3.5340    0.0000 C   0  0  0  0  0  0  0  0  0  0  0  0
    9.9601   -4.0111    0.0000 C   0  0  0  0  0  0  0  0  0  0  0  0
    7.9343   -4.7046    0.0000 C   0  0  0  0  0  0  0  0  0  0  0  0
    9.0233   -5.9366    0.0000 C   0  0  0  0  0  0  0  0  0  0  0  0
    8.2176   -6.1001    0.0000 C   0  0  0  0  0  0  0  0  0  0  0  0
    7.6731   -5.4842    0.0000 N   0  3  0  0  0  0  0  0  0  0  0  0
    5.1407   -6.1019    0.0000 N   0  0  0  0  0  0  0  0  0  0  0  0
    5.8016   -6.5920    0.0000 C   0  0  0  0  0  0  0  0  0  0  0  0
    5.5402   -7.3707    0.0000 C   0  0  0  0  0  0  0  0  0  0  0  0
    4.7181   -7.3632    0.0000 C   0  0  0  0  0  0  0  0  0  0  0  0
    4.1624   -7.9691    0.0000 C   0  0  0  0  0  0  0  0  0  0  0  0
    3.3599   -7.7908    0.0000 C   0  0  0  0  0  0  0  0  0  0  0  0
    3.1130   -7.0067    0.0000 C   0  0  0  0  0  0  0  0  0  0  0  0
    3.6686   -6.4007    0.0000 C   0  0  0  0  0  0  0  0  0  0  0  0
    4.4712   -6.5790    0.0000 C   0  0  0  0  0  0  0  0  0  0  0  0
    6.6071   -6.4276    0.0000 C   0  0  0  0  0  0  0  0  0  0  0  0
    6.0847   -7.9867    0.0000 C   0  0  0  0  0  0  0  0  0  0  0  0
    6.8904   -7.8231    0.0000 C   0  0  0  0  0  0  0  0  0  0  0  0
    7.1516   -7.0435    0.0000 N   0  0  0  0  0  0  0  0  0  0  0  0
    5.8244   -8.7665    0.0000 O   0  0  0  0  0  0  0  0  0  0  0  0
    5.0189   -8.9309    0.0000 C   0  0  0  0  0  0  0  0  0  0  0  0
    9.5685   -6.5519    0.0000 O   0  0  0  0  0  0  0  0  0  0  0  0
    9.3082   -7.3318    0.0000 C   0  0  0  0  0  0  0  0  0  0  0  0
    6.8674   -5.6477    0.0000 C   0  0  0  0  0  0  0  0  0  0  0  0
  1  2  1  0  0  0  0
  2  3  1  0  0  0  0
  4  5  1  0  0  0  0
  5  6  2  0  0  0  0
  6  7  1  0  0  0  0
  7  8  1  0  0  0  0
  8  9  2  0  0  0  0
  9 10  1  0  0  0  0
 10 11  2  0  0  0  0
 11 12  1  0  0  0  0
  4 12  1  0  0  0  0
  7 12  2  0  0  0  0
 14 15  2  0  0  0  0
 15 16  1  0  0  0  0
 13 16  2  0  0  0  0
 13  5  1  0  0  0  0
 14  6  1  0  0  0  0
  1 13  1  0  0  0  0
 17 18  1  0  0  0  0
 18 19  2  0  0  0  0
 19 20  1  0  0  0  0
 20 21  1  0  0  0  0
 21 22  2  0  0  0  0
 22 23  1  0  0  0  0
 23 24  2  0  0  0  0
 24 25  1  0  0  0  0
 17 25  1  0  0  0  0
 20 25  2  0  0  0  0
 27 28  2  0  0  0  0
 28 29  1  0  0  0  0
 26 29  2  0  0  0  0
 26 18  1  0  0  0  0
 27 19  1  0  0  0  0
 30 31  1  0  0  0  0
 27 30  1  0  0  0  0
 14 32  1  0  0  0  0
 32 33  1  0  0  0  0
  3 34  1  0  0  0  0
 34 16  1  0  0  0  0
 34 26  1  0  0  0  0
M  CHG  1  16   1
M  END
>  <cdx:fragmentId>
333

$$$$
