39761.cdx
  Mrv1902 05222410212D          

 37 42  0  0  0  0            999 V2000
    8.1740   -4.2530    0.0000 C   0  0  0  0  0  0  0  0  0  0  0  0
    7.3670   -4.4246    0.0000 C   0  0  0  0  0  0  0  0  0  0  0  0
    7.1121   -5.2092    0.0000 C   0  0  0  0  0  0  0  0  0  0  0  0
    6.3051   -5.3807    0.0000 C   0  0  0  0  0  0  0  0  0  0  0  0
    8.4289   -3.4684    0.0000 O   0  0  0  0  0  0  0  0  0  0  0  0
    9.9455   -3.9801    0.0000 N   0  0  0  0  0  0  0  0  0  0  0  0
    9.5330   -4.6946    0.0000 C   0  0  0  0  0  0  0  0  0  0  0  0
   10.0850   -5.3077    0.0000 C   0  0  0  0  0  0  0  0  0  0  0  0
   10.8387   -4.9721    0.0000 C   0  0  0  0  0  0  0  0  0  0  0  0
   11.5924   -5.3077    0.0000 C   0  0  0  0  0  0  0  0  0  0  0  0
   12.2598   -4.8228    0.0000 C   0  0  0  0  0  0  0  0  0  0  0  0
   12.1736   -4.0023    0.0000 C   0  0  0  0  0  0  0  0  0  0  0  0
   11.4199   -3.6667    0.0000 C   0  0  0  0  0  0  0  0  0  0  0  0
   10.7524   -4.1517    0.0000 C   0  0  0  0  0  0  0  0  0  0  0  0
    8.7260   -4.8661    0.0000 C   0  0  0  0  0  0  0  0  0  0  0  0
    9.8301   -6.0923    0.0000 C   0  0  0  0  0  0  0  0  0  0  0  0
    9.0231   -6.2638    0.0000 C   0  0  0  0  0  0  0  0  0  0  0  0
    8.4711   -5.6508    0.0000 N   0  0  0  0  0  0  0  0  0  0  0  0
    6.8150   -3.8115    0.0000 O   0  0  0  0  0  0  0  0  0  0  0  0
    6.0080   -3.9830    0.0000 C   0  0  0  0  0  0  0  0  0  0  0  0
    4.5757   -5.8519    0.0000 N   0  0  0  0  0  0  0  0  0  0  0  0
    5.2432   -6.3369    0.0000 C   0  0  0  0  0  0  0  0  0  0  0  0
    4.9882   -7.1215    0.0000 C   0  0  0  0  0  0  0  0  0  0  0  0
    4.1632   -7.1215    0.0000 C   0  0  0  0  0  0  0  0  0  0  0  0
    3.6112   -7.7346    0.0000 C   0  0  0  0  0  0  0  0  0  0  0  0
    2.8042   -7.5631    0.0000 C   0  0  0  0  0  0  0  0  0  0  0  0
    2.5493   -6.7784    0.0000 C   0  0  0  0  0  0  0  0  0  0  0  0
    3.1013   -6.1653    0.0000 C   0  0  0  0  0  0  0  0  0  0  0  0
    3.9083   -6.3369    0.0000 C   0  0  0  0  0  0  0  0  0  0  0  0
    6.0501   -6.1653    0.0000 C   0  0  0  0  0  0  0  0  0  0  0  0
    5.5403   -7.7346    0.0000 C   0  0  0  0  0  0  0  0  0  0  0  0
    6.3472   -7.5631    0.0000 C   0  0  0  0  0  0  0  0  0  0  0  0
    6.6022   -6.7784    0.0000 N   0  0  0  0  0  0  0  0  0  0  0  0
    2.8464   -5.3807    0.0000 O   0  0  0  0  0  0  0  0  0  0  0  0
    2.0394   -5.2092    0.0000 C   0  0  0  0  0  0  0  0  0  0  0  0
    5.2853   -8.5192    0.0000 O   0  0  0  0  0  0  0  0  0  0  0  0
    4.4784   -8.6907    0.0000 C   0  0  0  0  0  0  0  0  0  0  0  0
  1  2  1  0  0  0  0
  2  3  1  0  0  0  0
  3  4  1  0  0  0  0
  1  5  2  0  0  0  0
  6  7  1  0  0  0  0
  7  8  2  0  0  0  0
  8  9  1  0  0  0  0
  9 10  1  0  0  0  0
 10 11  2  0  0  0  0
 11 12  1  0  0  0  0
 12 13  2  0  0  0  0
 13 14  1  0  0  0  0
  6 14  1  0  0  0  0
  9 14  2  0  0  0  0
 16 17  2  0  0  0  0
 17 18  1  0  0  0  0
 15 18  2  0  0  0  0
 15  7  1  0  0  0  0
 16  8  1  0  0  0  0
  1 15  1  0  0  0  0
 19 20  1  0  0  0  0
  2 19  1  0  0  0  0
 21 22  1  0  0  0  0
 22 23  2  0  0  0  0
 23 24  1  0  0  0  0
 24 25  1  0  0  0  0
 25 26  2  0  0  0  0
 26 27  1  0  0  0  0
 27 28  2  0  0  0  0
 28 29  1  0  0  0  0
 21 29  1  0  0  0  0
 24 29  2  0  0  0  0
 31 32  2  0  0  0  0
 32 33  1  0  0  0  0
 30 33  2  0  0  0  0
 30 22  1  0  0  0  0
 31 23  1  0  0  0  0
 34 35  1  0  0  0  0
 28 34  1  0  0  0  0
 36 37  1  0  0  0  0
 31 36  1  0  0  0  0
  4 30  1  0  0  0  0
M  END
>  <cdx:fragmentId>
19

$$$$
