39764.cdx
  Mrv1902 05222410222D          

 36 42  0  0  0  0            999 V2000
    7.8519   -3.7629    0.0000 C   0  0  0  0  0  0  0  0  0  0  0  0
    7.0471   -3.9310    0.0000 C   0  0  0  0  0  0  0  0  0  0  0  0
    6.7904   -4.7120    0.0000 C   0  0  0  0  0  0  0  0  0  0  0  0
    9.6182   -3.4970    0.0000 N   0  0  0  0  0  0  0  0  0  0  0  0
    9.2046   -4.2076    0.0000 C   0  0  0  0  0  0  0  0  0  0  0  0
    9.7526   -4.8205    0.0000 C   0  0  0  0  0  0  0  0  0  0  0  0
   10.5045   -4.4879    0.0000 C   0  0  0  0  0  0  0  0  0  0  0  0
   11.2547   -4.8257    0.0000 C   0  0  0  0  0  0  0  0  0  0  0  0
   11.9215   -4.3448    0.0000 C   0  0  0  0  0  0  0  0  0  0  0  0
   11.8384   -3.5268    0.0000 C   0  0  0  0  0  0  0  0  0  0  0  0
   11.0885   -3.1898    0.0000 C   0  0  0  0  0  0  0  0  0  0  0  0
   10.4217   -3.6708    0.0000 C   0  0  0  0  0  0  0  0  0  0  0  0
    8.3999   -4.3757    0.0000 C   0  0  0  0  0  0  0  0  0  0  0  0
    9.4959   -5.6015    0.0000 C   0  0  0  0  0  0  0  0  0  0  0  0
    8.6911   -5.7696    0.0000 C   0  0  0  0  0  0  0  0  0  0  0  0
    8.1431   -5.1568    0.0000 N   0  3  0  0  0  0  0  0  0  0  0  0
    5.6142   -5.7888    0.0000 N   0  0  0  0  0  0  0  0  0  0  0  0
    6.2779   -6.2752    0.0000 C   0  0  0  0  0  0  0  0  0  0  0  0
    6.0209   -7.0553    0.0000 C   0  0  0  0  0  0  0  0  0  0  0  0
    5.1988   -7.0525    0.0000 C   0  0  0  0  0  0  0  0  0  0  0  0
    4.6465   -7.6615    0.0000 C   0  0  0  0  0  0  0  0  0  0  0  0
    3.8430   -7.4878    0.0000 C   0  0  0  0  0  0  0  0  0  0  0  0
    3.5916   -6.7050    0.0000 C   0  0  0  0  0  0  0  0  0  0  0  0
    4.1439   -6.0960    0.0000 C   0  0  0  0  0  0  0  0  0  0  0  0
    4.9474   -6.2697    0.0000 C   0  0  0  0  0  0  0  0  0  0  0  0
    7.0824   -6.1062    0.0000 C   0  0  0  0  0  0  0  0  0  0  0  0
    6.5689   -7.6682    0.0000 C   0  0  0  0  0  0  0  0  0  0  0  0
    7.3737   -7.5001    0.0000 C   0  0  0  0  0  0  0  0  0  0  0  0
    7.6304   -6.7191    0.0000 N   0  0  0  0  0  0  0  0  0  0  0  0
    6.3130   -8.4495    0.0000 O   0  0  0  0  0  0  0  0  0  0  0  0
    5.5084   -8.6185    0.0000 C   0  0  0  0  0  0  0  0  0  0  0  0
   10.0445   -6.2138    0.0000 O   0  0  0  0  0  0  0  0  0  0  0  0
    9.7886   -6.9951    0.0000 C   0  0  0  0  0  0  0  0  0  0  0  0
    7.3384   -5.3249    0.0000 C   0  0  2  0  0  0  0  0  0  0  0  0
   11.0051   -2.3691    0.0000 O   0  0  0  0  0  0  0  0  0  0  0  0
   10.2526   -2.0309    0.0000 C   0  0  0  0  0  0  0  0  0  0  0  0
  1  2  1  0  0  0  0
  2  3  1  0  0  0  0
  4  5  1  0  0  0  0
  5  6  2  0  0  0  0
  6  7  1  0  0  0  0
  7  8  1  0  0  0  0
  8  9  2  0  0  0  0
  9 10  1  0  0  0  0
 10 11  2  0  0  0  0
 11 12  1  0  0  0  0
  4 12  1  0  0  0  0
  7 12  2  0  0  0  0
 14 15  2  0  0  0  0
 15 16  1  0  0  0  0
 13 16  2  0  0  0  0
 13  5  1  0  0  0  0
 14  6  1  0  0  0  0
  1 13  1  0  0  0  0
 17 18  1  0  0  0  0
 18 19  2  0  0  0  0
 19 20  1  0  0  0  0
 20 21  1  0  0  0  0
 21 22  2  0  0  0  0
 22 23  1  0  0  0  0
 23 24  2  0  0  0  0
 24 25  1  0  0  0  0
 17 25  1  0  0  0  0
 20 25  2  0  0  0  0
 27 28  2  0  0  0  0
 28 29  1  0  0  0  0
 26 29  2  0  0  0  0
 26 18  1  0  0  0  0
 27 19  1  0  0  0  0
 30 31  1  0  0  0  0
 27 30  1  0  0  0  0
 14 32  1  0  0  0  0
 32 33  1  0  0  0  0
  3 34  1  0  0  0  0
 34 16  1  0  0  0  0
 34 26  1  6  0  0  0
 11 35  1  0  0  0  0
 35 36  1  0  0  0  0
M  CHG  1  16   1
M  END
>  <cdx:fragmentId>
174

$$$$
