39769.cdx
  Mrv1902 05222410242D          

 36 41  0  0  0  0            999 V2000
    9.2449   -6.2847    0.0000 C   0  0  0  0  0  0  0  0  0  0  0  0
    8.9778   -7.0622    0.0000 C   0  0  0  0  0  0  0  0  0  0  0  0
    8.1709   -7.2198    0.0000 C   0  0  0  0  0  0  0  0  0  0  0  0
   10.0518   -6.1271    0.0000 O   0  0  0  0  0  0  0  0  0  0  0  0
    9.7285   -4.5652    0.0000 N   0  0  0  0  0  0  0  0  0  0  0  0
    8.9720   -4.8871    0.0000 C   0  0  0  0  0  0  0  0  0  0  0  0
    8.4321   -4.2670    0.0000 C   0  0  0  0  0  0  0  0  0  0  0  0
    8.8550   -3.5620    0.0000 C   0  0  0  0  0  0  0  0  0  0  0  0
    8.6140   -2.7760    0.0000 C   0  0  0  0  0  0  0  0  0  0  0  0
    9.1742   -2.1742    0.0000 C   0  0  0  0  0  0  0  0  0  0  0  0
    9.9754   -2.3585    0.0000 C   0  0  0  0  0  0  0  0  0  0  0  0
   10.2164   -3.1445    0.0000 C   0  0  0  0  0  0  0  0  0  0  0  0
    9.6562   -3.7463    0.0000 C   0  0  0  0  0  0  0  0  0  0  0  0
    8.7050   -5.6646    0.0000 C   0  0  0  0  0  0  0  0  0  0  0  0
    7.6252   -4.4246    0.0000 C   0  0  0  0  0  0  0  0  0  0  0  0
    7.3582   -5.2021    0.0000 C   0  0  0  0  0  0  0  0  0  0  0  0
    7.8981   -5.8222    0.0000 N   0  0  0  0  0  0  0  0  0  0  0  0
    9.5177   -7.6823    0.0000 C   0  0  0  0  0  0  0  0  0  0  0  0
    9.3042   -8.4792    0.0000 O   0  0  0  0  0  0  0  0  0  0  0  0
    6.4400   -7.6606    0.0000 N   0  0  0  0  0  0  0  0  0  0  0  0
    7.0970   -8.1548    0.0000 C   0  0  0  0  0  0  0  0  0  0  0  0
    6.8300   -8.9324    0.0000 C   0  0  0  0  0  0  0  0  0  0  0  0
    6.0079   -8.9187    0.0000 C   0  0  0  0  0  0  0  0  0  0  0  0
    5.4477   -9.5204    0.0000 C   0  0  0  0  0  0  0  0  0  0  0  0
    4.6465   -9.3362    0.0000 C   0  0  0  0  0  0  0  0  0  0  0  0
    4.4055   -8.5501    0.0000 C   0  0  0  0  0  0  0  0  0  0  0  0
    4.9657   -7.9484    0.0000 C   0  0  0  0  0  0  0  0  0  0  0  0
    5.7669   -8.1327    0.0000 C   0  0  0  0  0  0  0  0  0  0  0  0
    7.9039   -7.9973    0.0000 C   0  0  0  0  0  0  0  0  0  0  0  0
    7.3698   -9.5524    0.0000 C   0  0  0  0  0  0  0  0  0  0  0  0
    8.1767   -9.3949    0.0000 C   0  0  0  0  0  0  0  0  0  0  0  0
    8.4438   -8.6174    0.0000 N   0  0  0  0  0  0  0  0  0  0  0  0
    7.1028  -10.3300    0.0000 O   0  0  0  0  0  0  0  0  0  0  0  0
    6.2959  -10.4875    0.0000 C   0  0  0  0  0  0  0  0  0  0  0  0
    7.0835   -3.8024    0.0000 O   0  0  0  0  0  0  0  0  0  0  0  0
    7.3514   -3.0221    0.0000 C   0  0  0  0  0  0  0  0  0  0  0  0
  1  2  1  0  0  0  0
  1  4  2  0  0  0  0
  5  6  1  0  0  0  0
  6  7  2  0  0  0  0
  7  8  1  0  0  0  0
  8  9  1  0  0  0  0
  9 10  2  0  0  0  0
 10 11  1  0  0  0  0
 11 12  2  0  0  0  0
 12 13  1  0  0  0  0
  5 13  1  0  0  0  0
  8 13  2  0  0  0  0
 15 16  2  0  0  0  0
 16 17  1  0  0  0  0
 14 17  2  0  0  0  0
 14  6  1  0  0  0  0
 15  7  1  0  0  0  0
  1 14  1  0  0  0  0
 18 19  1  0  0  0  0
  2 18  1  0  0  0  0
 20 21  1  0  0  0  0
 21 22  2  0  0  0  0
 22 23  1  0  0  0  0
 23 24  1  0  0  0  0
 24 25  2  0  0  0  0
 25 26  1  0  0  0  0
 26 27  2  0  0  0  0
 27 28  1  0  0  0  0
 20 28  1  0  0  0  0
 23 28  2  0  0  0  0
 30 31  2  0  0  0  0
 31 32  1  0  0  0  0
 29 32  2  0  0  0  0
 29 21  1  0  0  0  0
 30 22  1  0  0  0  0
 33 34  1  0  0  0  0
 30 33  1  0  0  0  0
  3 29  1  0  0  0  0
  3  2  1  0  0  0  0
 15 35  1  0  0  0  0
 35 36  1  0  0  0  0
M  END
>  <cdx:fragmentId>
19

$$$$
