39767.cdx
  Mrv1902 05222410222D          

 36 42  0  0  0  0            999 V2000
    8.0530   -3.5161    0.0000 C   0  0  0  0  0  0  0  0  0  0  0  0
    7.2475   -3.6803    0.0000 C   0  0  0  0  0  0  0  0  0  0  0  0
    6.9869   -4.4600    0.0000 C   0  0  0  0  0  0  0  0  0  0  0  0
    9.8206   -3.2590    0.0000 N   0  0  0  0  0  0  0  0  0  0  0  0
    9.4036   -3.9675    0.0000 C   0  0  0  0  0  0  0  0  0  0  0  0
    9.9485   -4.5831    0.0000 C   0  0  0  0  0  0  0  0  0  0  0  0
   10.7020   -4.2542    0.0000 C   0  0  0  0  0  0  0  0  0  0  0  0
   11.4506   -4.5957    0.0000 C   0  0  0  0  0  0  0  0  0  0  0  0
   12.1198   -4.1181    0.0000 C   0  0  0  0  0  0  0  0  0  0  0  0
   12.0407   -3.2998    0.0000 C   0  0  0  0  0  0  0  0  0  0  0  0
   11.2925   -2.9591    0.0000 C   0  0  0  0  0  0  0  0  0  0  0  0
   10.6233   -3.4367    0.0000 C   0  0  0  0  0  0  0  0  0  0  0  0
    8.5980   -4.1317    0.0000 C   0  0  0  0  0  0  0  0  0  0  0  0
    9.6879   -5.3628    0.0000 C   0  0  0  0  0  0  0  0  0  0  0  0
    8.8824   -5.5270    0.0000 C   0  0  0  0  0  0  0  0  0  0  0  0
    8.3374   -4.9114    0.0000 N   0  3  0  0  0  0  0  0  0  0  0  0
    5.8054   -5.5310    0.0000 N   0  0  0  0  0  0  0  0  0  0  0  0
    6.4666   -6.0207    0.0000 C   0  0  0  0  0  0  0  0  0  0  0  0
    6.2059   -6.7995    0.0000 C   0  0  0  0  0  0  0  0  0  0  0  0
    5.3837   -6.7926    0.0000 C   0  0  0  0  0  0  0  0  0  0  0  0
    4.8285   -7.3989    0.0000 C   0  0  0  0  0  0  0  0  0  0  0  0
    4.0258   -7.2212    0.0000 C   0  0  0  0  0  0  0  0  0  0  0  0
    3.7783   -6.4372    0.0000 C   0  0  0  0  0  0  0  0  0  0  0  0
    4.3336   -5.8309    0.0000 C   0  0  0  0  0  0  0  0  0  0  0  0
    5.1363   -6.0086    0.0000 C   0  0  0  0  0  0  0  0  0  0  0  0
    7.2720   -5.8556    0.0000 C   0  0  0  0  0  0  0  0  0  0  0  0
    6.7508   -7.4151    0.0000 C   0  0  0  0  0  0  0  0  0  0  0  0
    7.5564   -7.2509    0.0000 C   0  0  0  0  0  0  0  0  0  0  0  0
    7.8170   -6.4712    0.0000 N   0  0  0  0  0  0  0  0  0  0  0  0
    6.4910   -8.1951    0.0000 O   0  0  0  0  0  0  0  0  0  0  0  0
    5.6856   -8.3601    0.0000 C   0  0  0  0  0  0  0  0  0  0  0  0
   10.2336   -5.9778    0.0000 O   0  0  0  0  0  0  0  0  0  0  0  0
    9.9738   -6.7578    0.0000 C   0  0  0  0  0  0  0  0  0  0  0  0
    7.5318   -5.0756    0.0000 C   0  0  0  0  0  0  0  0  0  0  0  0
    5.8127   -4.7060    0.0000 O   0  0  0  0  0  0  0  0  0  0  0  0
    5.1018   -4.2872    0.0000 C   0  0  0  0  0  0  0  0  0  0  0  0
  1  2  1  0  0  0  0
  2  3  1  0  0  0  0
  4  5  1  0  0  0  0
  5  6  2  0  0  0  0
  6  7  1  0  0  0  0
  7  8  1  0  0  0  0
  8  9  2  0  0  0  0
  9 10  1  0  0  0  0
 10 11  2  0  0  0  0
 11 12  1  0  0  0  0
  4 12  1  0  0  0  0
  7 12  2  0  0  0  0
 14 15  2  0  0  0  0
 15 16  1  0  0  0  0
 13 16  2  0  0  0  0
 13  5  1  0  0  0  0
 14  6  1  0  0  0  0
  1 13  1  0  0  0  0
 17 18  1  0  0  0  0
 18 19  2  0  0  0  0
 19 20  1  0  0  0  0
 20 21  1  0  0  0  0
 21 22  2  0  0  0  0
 22 23  1  0  0  0  0
 23 24  2  0  0  0  0
 24 25  1  0  0  0  0
 17 25  1  0  0  0  0
 20 25  2  0  0  0  0
 27 28  2  0  0  0  0
 28 29  1  0  0  0  0
 26 29  2  0  0  0  0
 26 18  1  0  0  0  0
 27 19  1  0  0  0  0
 30 31  1  0  0  0  0
 27 30  1  0  0  0  0
 14 32  1  0  0  0  0
 32 33  1  0  0  0  0
  3 34  1  0  0  0  0
 34 16  1  0  0  0  0
 34 26  1  0  0  0  0
 17 35  1  0  0  0  0
 35 36  1  0  0  0  0
M  CHG  1  16   1
M  END
>  <cdx:fragmentId>
19

$$$$
