39768.cdx
  Mrv1902 05222410242D          

 19 21  0  0  0  0            999 V2000
    7.9107   -2.9124    0.0000 C   0  0  0  0  0  0  0  0  0  0  0  0
    7.1940   -3.3209    0.0000 O   0  0  0  0  0  0  0  0  0  0  0  0
    8.4270   -7.4221    0.0000 C   0  0  0  0  0  0  0  0  0  0  0  0
    7.8810   -6.8075    0.0000 O   0  0  0  0  0  0  0  0  0  0  0  0
    9.2037   -5.0803    0.0000 N   0  0  0  0  0  0  0  0  0  0  0  0
    8.9453   -5.8608    0.0000 C   0  0  0  0  0  0  0  0  0  0  0  0
    8.1402   -6.0273    0.0000 C   0  0  0  0  0  0  0  0  0  0  0  0
    8.6569   -4.4663    0.0000 C   0  0  0  0  0  0  0  0  0  0  0  0
    6.5216   -4.6255    0.0000 C   0  0  0  0  0  0  0  0  0  0  0  0
    5.7184   -4.4501    0.0000 C   0  0  0  0  0  0  0  0  0  0  0  0
    5.1649   -5.0580    0.0000 C   0  0  0  0  0  0  0  0  0  0  0  0
    5.4146   -5.8413    0.0000 C   0  0  0  0  0  0  0  0  0  0  0  0
    6.2179   -6.0167    0.0000 C   0  0  0  0  0  0  0  0  0  0  0  0
    6.7713   -5.4079    0.0000 C   0  0  0  0  0  0  0  0  0  0  0  0
    7.5935   -5.4133    0.0000 C   0  0  0  0  0  0  0  0  0  0  0  0
    7.8518   -4.6328    0.0000 C   0  0  0  0  0  0  0  0  0  0  0  0
    7.1894   -4.1459    0.0000 N   0  0  0  0  0  0  0  0  0  0  0  0
    9.7204   -3.5194    0.0000 C   0  0  0  0  0  0  0  0  0  0  0  0
    8.9153   -3.6859    0.0000 C   0  0  0  0  0  0  0  0  0  0  0  0
  2  1  1  0  0  0  0
 17  2  1  0  0  0  0
  4  3  1  0  0  0  0
  7  4  1  0  0  0  0
 19  8  1  0  0  0  0
  7 15  1  0  0  0  0
  8 16  1  0  0  0  0
  8  5  2  0  0  0  0
  6  5  1  0  0  0  0
  7  6  2  0  0  0  0
 14  9  2  0  0  0  0
 17  9  1  0  0  0  0
 10  9  1  0  0  0  0
 11 10  2  0  0  0  0
 12 11  1  0  0  0  0
 13 12  2  0  0  0  0
 14 13  1  0  0  0  0
 15 14  1  0  0  0  0
 16 15  2  0  0  0  0
 17 16  1  0  0  0  0
 19 18  2  0  0  0  0
M  END
>  <cdx:fragmentId>
268

$$$$
