39760.cdx
  Mrv1902 05222410212D          

 34 39  0  0  0  0            999 V2000
    8.4394   -4.3852    0.0000 C   0  0  0  0  0  0  0  0  0  0  0  0
    8.1845   -5.1698    0.0000 C   0  0  0  0  0  0  0  0  0  0  0  0
    7.3775   -5.3413    0.0000 C   0  0  0  0  0  0  0  0  0  0  0  0
    7.8874   -3.7721    0.0000 O   0  0  0  0  0  0  0  0  0  0  0  0
    9.7122   -5.6472    0.0000 N   0  0  0  0  0  0  0  0  0  0  0  0
    9.7984   -4.8267    0.0000 C   0  0  0  0  0  0  0  0  0  0  0  0
   10.6054   -4.6552    0.0000 C   0  0  0  0  0  0  0  0  0  0  0  0
   11.0179   -5.3697    0.0000 C   0  0  0  0  0  0  0  0  0  0  0  0
   11.8249   -5.5412    0.0000 C   0  0  0  0  0  0  0  0  0  0  0  0
   12.0798   -6.3258    0.0000 C   0  0  0  0  0  0  0  0  0  0  0  0
   11.5278   -6.9389    0.0000 C   0  0  0  0  0  0  0  0  0  0  0  0
   10.7208   -6.7674    0.0000 C   0  0  0  0  0  0  0  0  0  0  0  0
   10.4659   -5.9828    0.0000 C   0  0  0  0  0  0  0  0  0  0  0  0
    9.2464   -4.2136    0.0000 C   0  0  0  0  0  0  0  0  0  0  0  0
   10.8603   -3.8706    0.0000 C   0  0  0  0  0  0  0  0  0  0  0  0
   10.3083   -3.2575    0.0000 C   0  0  0  0  0  0  0  0  0  0  0  0
    9.5013   -3.4290    0.0000 N   0  0  0  0  0  0  0  0  0  0  0  0
    5.6482   -5.8126    0.0000 N   0  0  0  0  0  0  0  0  0  0  0  0
    6.3156   -6.2975    0.0000 C   0  0  0  0  0  0  0  0  0  0  0  0
    6.0607   -7.0821    0.0000 C   0  0  0  0  0  0  0  0  0  0  0  0
    5.2357   -7.0821    0.0000 C   0  0  0  0  0  0  0  0  0  0  0  0
    4.6836   -7.6952    0.0000 C   0  0  0  0  0  0  0  0  0  0  0  0
    3.8767   -7.5237    0.0000 C   0  0  0  0  0  0  0  0  0  0  0  0
    3.6217   -6.7390    0.0000 C   0  0  0  0  0  0  0  0  0  0  0  0
    4.1738   -6.1259    0.0000 C   0  0  0  0  0  0  0  0  0  0  0  0
    4.9807   -6.2975    0.0000 C   0  0  0  0  0  0  0  0  0  0  0  0
    7.1226   -6.1259    0.0000 C   0  0  0  0  0  0  0  0  0  0  0  0
    6.6127   -7.6952    0.0000 C   0  0  0  0  0  0  0  0  0  0  0  0
    7.4197   -7.5237    0.0000 C   0  0  0  0  0  0  0  0  0  0  0  0
    7.6746   -6.7390    0.0000 N   0  0  0  0  0  0  0  0  0  0  0  0
    3.9188   -5.3413    0.0000 O   0  0  0  0  0  0  0  0  0  0  0  0
    3.1119   -5.1698    0.0000 C   0  0  0  0  0  0  0  0  0  0  0  0
    6.3578   -8.4798    0.0000 O   0  0  0  0  0  0  0  0  0  0  0  0
    5.5508   -8.6513    0.0000 C   0  0  0  0  0  0  0  0  0  0  0  0
  1  2  1  0  0  0  0
  2  3  1  0  0  0  0
  1  4  2  0  0  0  0
  5  6  1  0  0  0  0
  6  7  2  0  0  0  0
  7  8  1  0  0  0  0
  8  9  1  0  0  0  0
  9 10  2  0  0  0  0
 10 11  1  0  0  0  0
 11 12  2  0  0  0  0
 12 13  1  0  0  0  0
  5 13  1  0  0  0  0
  8 13  2  0  0  0  0
 15 16  2  0  0  0  0
 16 17  1  0  0  0  0
 14 17  2  0  0  0  0
 14  6  1  0  0  0  0
 15  7  1  0  0  0  0
  1 14  1  0  0  0  0
 18 19  1  0  0  0  0
 19 20  2  0  0  0  0
 20 21  1  0  0  0  0
 21 22  1  0  0  0  0
 22 23  2  0  0  0  0
 23 24  1  0  0  0  0
 24 25  2  0  0  0  0
 25 26  1  0  0  0  0
 18 26  1  0  0  0  0
 21 26  2  0  0  0  0
 28 29  2  0  0  0  0
 29 30  1  0  0  0  0
 27 30  2  0  0  0  0
 27 19  1  0  0  0  0
 28 20  1  0  0  0  0
 31 32  1  0  0  0  0
 25 31  1  0  0  0  0
 33 34  1  0  0  0  0
 28 33  1  0  0  0  0
  3 27  1  0  0  0  0
M  END
>  <cdx:fragmentId>
79

$$$$
