39766.cdx
  Mrv1902 05222410232D          

 35 41  0  0  0  0            999 V2000
    8.8807   -7.5209    0.0000 C   0  0  0  0  0  0  0  0  0  0  0  0
    8.0753   -7.6862    0.0000 N   0  3  0  0  0  0  0  0  0  0  0  0
    7.8158   -8.4663    0.0000 C   0  0  0  0  0  0  0  0  0  0  0  0
    9.4265   -8.1357    0.0000 C   0  0  0  0  0  0  0  0  0  0  0  0
    9.1670   -8.9158    0.0000 C   0  0  0  0  0  0  0  0  0  0  0  0
    6.6359   -9.5388    0.0000 N   0  0  0  0  0  0  0  0  0  0  0  0
    7.2978  -10.0276    0.0000 C   0  0  0  0  0  0  0  0  0  0  0  0
    7.0380  -10.8068    0.0000 C   0  0  0  0  0  0  0  0  0  0  0  0
    6.2159  -10.8011    0.0000 C   0  0  0  0  0  0  0  0  0  0  0  0
    5.6615  -11.4081    0.0000 C   0  0  0  0  0  0  0  0  0  0  0  0
    4.8586  -11.2316    0.0000 C   0  0  0  0  0  0  0  0  0  0  0  0
    4.6100  -10.4479    0.0000 C   0  0  0  0  0  0  0  0  0  0  0  0
    5.1644   -9.8408    0.0000 C   0  0  0  0  0  0  0  0  0  0  0  0
    5.9674  -10.0174    0.0000 C   0  0  0  0  0  0  0  0  0  0  0  0
    8.1029   -9.8614    0.0000 C   0  0  0  0  0  0  0  0  0  0  0  0
    7.5839  -11.4216    0.0000 C   0  0  0  0  0  0  0  0  0  0  0  0
    8.3892  -11.2564    0.0000 C   0  0  0  0  0  0  0  0  0  0  0  0
    8.6487  -10.4763    0.0000 N   0  0  0  0  0  0  0  0  0  0  0  0
    7.3252  -12.2020    0.0000 O   0  0  0  0  0  0  0  0  0  0  0  0
    6.5200  -12.3682    0.0000 C   0  0  0  0  0  0  0  0  0  0  0  0
    8.3616   -9.0811    0.0000 C   0  0  0  0  0  0  0  0  0  0  0  0
    9.1402   -6.7408    0.0000 C   0  0  0  0  0  0  0  0  0  0  0  0
    8.5944   -6.1260    0.0000 C   0  0  0  0  0  0  0  0  0  0  0  0
    7.7891   -6.2913    0.0000 C   0  0  0  0  0  0  0  0  0  0  0  0
    7.5295   -7.0713    0.0000 C   0  0  0  0  0  0  0  0  0  0  0  0
    9.8936   -6.4117    0.0000 N   0  0  0  0  0  0  0  0  0  0  0  0
    9.8134   -5.5935    0.0000 C   0  0  0  0  0  0  0  0  0  0  0  0
    9.0105   -5.4169    0.0000 C   0  0  0  0  0  0  0  0  0  0  0  0
   10.3678   -4.9864    0.0000 C   0  0  0  0  0  0  0  0  0  0  0  0
   10.1192   -4.2027    0.0000 C   0  0  0  0  0  0  0  0  0  0  0  0
    9.3163   -4.0261    0.0000 C   0  0  0  0  0  0  0  0  0  0  0  0
    8.7619   -4.6332    0.0000 C   0  0  0  0  0  0  0  0  0  0  0  0
   11.1735   -5.1636    0.0000 O   0  0  0  0  0  0  0  0  0  0  0  0
    7.2413   -5.6743    0.0000 O   0  0  0  0  0  0  0  0  0  0  0  0
    6.4332   -5.8402    0.0000 C   0  0  0  0  0  0  0  0  0  0  0  0
  1  2  2  0  0  0  0
  2  3  1  0  0  0  0
  4  5  1  0  0  0  0
  1  4  1  0  0  0  0
  6  7  1  0  0  0  0
  7  8  2  0  0  0  0
  8  9  1  0  0  0  0
  9 10  1  0  0  0  0
 10 11  2  0  0  0  0
 11 12  1  0  0  0  0
 12 13  2  0  0  0  0
 13 14  1  0  0  0  0
  6 14  1  0  0  0  0
  9 14  2  0  0  0  0
 16 17  2  0  0  0  0
 17 18  1  0  0  0  0
 15 18  2  0  0  0  0
 15  7  1  0  0  0  0
 16  8  1  0  0  0  0
 19 20  1  0  0  0  0
 16 19  1  0  0  0  0
  3 21  1  0  0  0  0
 21  5  1  0  0  0  0
 21 15  1  0  0  0  0
  1 22  1  0  0  0  0
 22 23  2  0  0  0  0
 23 24  1  0  0  0  0
 24 25  2  0  0  0  0
 25  2  1  0  0  0  0
 22 26  1  0  0  0  0
 26 27  1  0  0  0  0
 27 28  2  0  0  0  0
 28 23  1  0  0  0  0
 27 29  1  0  0  0  0
 29 30  2  0  0  0  0
 30 31  1  0  0  0  0
 31 32  2  0  0  0  0
 32 28  1  0  0  0  0
 29 33  1  0  0  0  0
 24 34  1  0  0  0  0
 34 35  1  0  0  0  0
M  CHG  1   2   1
M  END
>  <cdx:fragmentId>
192

$$$$
