39763.cdx
  Mrv1902 05222410212D          

 38 44  0  0  0  0            999 V2000
    5.3563   -6.3385    0.0000 N   0  0  0  0  0  0  0  0  0  0  0  0
    6.0321   -6.8118    0.0000 C   0  0  0  0  0  0  0  0  0  0  0  0
    5.7908   -7.6007    0.0000 C   0  0  0  0  0  0  0  0  0  0  0  0
    4.9659   -7.6150    0.0000 C   0  0  0  0  0  0  0  0  0  0  0  0
    4.4246   -8.2376    0.0000 C   0  0  0  0  0  0  0  0  0  0  0  0
    3.6148   -8.0801    0.0000 C   0  0  0  0  0  0  0  0  0  0  0  0
    3.3463   -7.3001    0.0000 C   0  0  0  0  0  0  0  0  0  0  0  0
    3.8876   -6.6775    0.0000 C   0  0  0  0  0  0  0  0  0  0  0  0
    4.6974   -6.8350    0.0000 C   0  0  0  0  0  0  0  0  0  0  0  0
    6.8360   -6.6263    0.0000 C   0  0  0  0  0  0  0  0  0  0  0  0
    6.3534   -8.2041    0.0000 C   0  0  0  0  0  0  0  0  0  0  0  0
    7.1573   -8.0186    0.0000 C   0  0  0  0  0  0  0  0  0  0  0  0
    7.3985   -7.2297    0.0000 N   0  0  0  0  0  0  0  0  0  0  0  0
    7.0772   -5.8373    0.0000 C   0  0  1  0  0  0  0  0  0  0  0  0
    7.8057   -5.4501    0.0000 C   0  0  1  0  0  0  0  0  0  0  0  0
    7.4184   -4.7216    0.0000 C   0  0  0  0  0  0  0  0  0  0  0  0
    6.6900   -5.1089    0.0000 C   0  0  0  0  0  0  0  0  0  0  0  0
    9.1837   -4.3039    0.0000 N   0  0  0  0  0  0  0  0  0  0  0  0
    9.1980   -5.1288    0.0000 C   0  0  0  0  0  0  0  0  0  0  0  0
    9.9870   -5.3701    0.0000 C   0  0  0  0  0  0  0  0  0  0  0  0
   10.4602   -4.6943    0.0000 C   0  0  0  0  0  0  0  0  0  0  0  0
   11.2791   -4.5938    0.0000 C   0  0  0  0  0  0  0  0  0  0  0  0
   11.6015   -3.8344    0.0000 C   0  0  0  0  0  0  0  0  0  0  0  0
   11.1051   -3.1755    0.0000 C   0  0  0  0  0  0  0  0  0  0  0  0
   10.2862   -3.2760    0.0000 C   0  0  0  0  0  0  0  0  0  0  0  0
    9.9638   -4.0354    0.0000 C   0  0  0  0  0  0  0  0  0  0  0  0
    8.5946   -5.6914    0.0000 C   0  0  0  0  0  0  0  0  0  0  0  0
   10.1725   -6.1739    0.0000 C   0  0  0  0  0  0  0  0  0  0  0  0
    9.5691   -6.7365    0.0000 C   0  0  0  0  0  0  0  0  0  0  0  0
    8.7801   -6.4952    0.0000 N   0  0  0  0  0  0  0  0  0  0  0  0
   10.9614   -6.4152    0.0000 O   0  0  0  0  0  0  0  0  0  0  0  0
   11.5346   -5.8218    0.0000 C   0  0  0  0  0  0  0  0  0  0  0  0
    3.6191   -5.8974    0.0000 O   0  0  0  0  0  0  0  0  0  0  0  0
    2.8092   -5.7399    0.0000 C   0  0  0  0  0  0  0  0  0  0  0  0
    6.1121   -8.9931    0.0000 O   0  0  0  0  0  0  0  0  0  0  0  0
    5.3082   -9.1786    0.0000 C   0  0  0  0  0  0  0  0  0  0  0  0
    7.6421   -6.4386    0.0000 H   0  0  0  0  0  0  0  0  0  0  0  0
    8.4070   -4.8852    0.0000 H   0  0  0  0  0  0  0  0  0  0  0  0
  1  2  1  0  0  0  0
  2  3  2  0  0  0  0
  3  4  1  0  0  0  0
  4  5  1  0  0  0  0
  5  6  2  0  0  0  0
  6  7  1  0  0  0  0
  7  8  2  0  0  0  0
  8  9  1  0  0  0  0
  1  9  1  0  0  0  0
  4  9  2  0  0  0  0
 11 12  2  0  0  0  0
 12 13  1  0  0  0  0
 10 13  2  0  0  0  0
 10  2  1  0  0  0  0
 11  3  1  0  0  0  0
 14 15  1  0  0  0  0
 15 16  1  0  0  0  0
 16 17  1  0  0  0  0
 14 17  1  0  0  0  0
 18 19  1  0  0  0  0
 19 20  2  0  0  0  0
 20 21  1  0  0  0  0
 21 22  1  0  0  0  0
 22 23  2  0  0  0  0
 23 24  1  0  0  0  0
 24 25  2  0  0  0  0
 25 26  1  0  0  0  0
 18 26  1  0  0  0  0
 21 26  2  0  0  0  0
 28 29  2  0  0  0  0
 29 30  1  0  0  0  0
 27 30  2  0  0  0  0
 27 19  1  0  0  0  0
 28 20  1  0  0  0  0
 31 32  1  0  0  0  0
 28 31  1  0  0  0  0
 15 27  1  0  0  0  0
 14 10  1  0  0  0  0
 33 34  1  0  0  0  0
  8 33  1  0  0  0  0
 35 36  1  0  0  0  0
 11 35  1  0  0  0  0
 14 37  1  1  0  0  0
 15 38  1  6  0  0  0
M  END
>  <cdx:fragmentId>
43

$$$$
