39774.cdx
  Mrv1902 05222410212D          

 34 35  0  0  0  0            999 V2000
    5.6649   -8.4522    0.0000 C   0  0  0  0  0  0  0  0  0  0  0  0
    6.0774   -9.1667    0.0000 N   0  0  0  0  0  0  0  0  0  0  0  0
    5.9593   -9.9878    0.0000 C   0  0  0  0  0  0  0  0  0  0  0  0
    6.6738  -10.4003    0.0000 C   0  0  0  0  0  0  0  0  0  0  0  0
    7.3149   -9.8811    0.0000 C   0  0  0  0  0  0  0  0  0  0  0  0
    8.1399   -9.8811    0.0000 C   0  0  0  0  0  0  0  0  0  0  0  0
    8.5524   -9.1667    0.0000 C   0  0  0  0  0  0  0  0  0  0  0  0
    9.3774   -9.1667    0.0000 C   0  0  1  0  0  0  0  0  0  0  0  0
    9.7899   -8.4522    0.0000 C   0  0  2  0  0  0  0  0  0  0  0  0
    9.3774   -7.7377    0.0000 C   0  0  0  0  0  0  0  0  0  0  0  0
    9.7899   -7.0233    0.0000 C   0  0  0  0  0  0  0  0  0  0  0  0
    9.3774   -6.3088    0.0000 C   0  0  0  0  0  0  0  0  0  0  0  0
    8.5524   -6.3088    0.0000 C   0  0  2  0  0  0  0  0  0  0  0  0
    8.1399   -5.5943    0.0000 C   0  0  2  0  0  0  0  0  0  0  0  0
    7.3149   -5.5943    0.0000 C   0  0  0  0  0  0  0  0  0  0  0  0
    6.9024   -6.3088    0.0000 C   0  0  1  0  0  0  0  0  0  0  0  0
    6.0774   -6.3088    0.0000 C   0  0  0  0  0  0  0  0  0  0  0  0
    5.6649   -7.0233    0.0000 C   0  0  0  0  0  0  0  0  0  0  0  0
    4.8400   -7.0222    0.0000 C   0  0  0  0  0  0  0  0  0  0  0  0
    4.4277   -7.7368    0.0000 C   0  0  0  0  0  0  0  0  0  0  0  0
    4.8400   -8.4514    0.0000 C   0  0  0  0  0  0  0  0  0  0  0  0
    6.0774   -7.7377    0.0000 C   0  0  0  0  0  0  0  0  0  0  0  0
    5.2449  -10.4003    0.0000 O   0  0  0  0  0  0  0  0  0  0  0  0
    7.3149   -7.0233    0.0000 C   0  0  0  0  0  0  0  0  0  0  0  0
    9.7899   -5.5943    0.0000 C   0  0  0  0  0  0  0  0  0  0  0  0
    8.5524   -7.7377    0.0000 C   0  0  0  0  0  0  0  0  0  0  0  0
    6.6738  -11.2253    0.0000 C   0  0  0  0  0  0  0  0  0  0  0  0
    8.5524   -4.8798    0.0000 O   0  0  0  0  0  0  0  0  0  0  0  0
    9.3774   -4.8798    0.0000 C   0  0  0  0  0  0  0  0  0  0  0  0
    9.7899   -9.8811    0.0000 O   0  0  0  0  0  0  0  0  0  0  0  0
   10.6149   -9.8811    0.0000 C   0  0  0  0  0  0  0  0  0  0  0  0
    3.6027   -7.7368    0.0000 O   0  0  0  0  0  0  0  0  0  0  0  0
    8.1399   -7.0233    0.0000 O   0  0  0  0  0  0  0  0  0  0  0  0
   10.6149   -8.4522    0.0000 O   0  0  0  0  0  0  0  0  0  0  0  0
  1  2  1  0  0  0  0
  2  3  1  0  0  0  0
  3  4  1  0  0  0  0
  4  5  2  0  0  0  0
  5  6  1  0  0  0  0
  6  7  1  0  0  0  0
  7  8  1  0  0  0  0
  8  9  1  0  0  0  0
  9 10  1  0  0  0  0
 10 11  2  0  0  0  0
 11 12  1  0  0  0  0
 12 13  1  0  0  0  0
 13 14  1  0  0  0  0
 14 15  1  0  0  0  0
 15 16  1  0  0  0  0
 16 17  1  0  0  0  0
 17 18  1  0  0  0  0
 18 19  1  0  0  0  0
 19 20  2  0  0  0  0
 20 21  1  0  0  0  0
  1 21  2  0  0  0  0
  1 22  1  0  0  0  0
 22 18  2  0  0  0  0
  3 23  2  0  0  0  0
 16 24  1  6  0  0  0
 12 25  1  0  0  0  0
 10 26  1  0  0  0  0
  4 27  1  0  0  0  0
 28 29  1  0  0  0  0
 14 28  1  6  0  0  0
 30 31  1  0  0  0  0
  8 30  1  1  0  0  0
 20 32  1  0  0  0  0
 13 33  1  1  0  0  0
  9 34  1  6  0  0  0
M  END
>  <cdx:groupId>
158

>  <cdx:fragmentId>
9

$$$$
