39778.cdx
  Mrv1902 05222410252D          

 36 39  0  0  0  0            999 V2000
    7.7685   -7.1346    0.0000 C   0  0  0  0  0  0  0  0  0  0  0  0
    7.0540   -7.5471    0.0000 N   0  0  0  0  0  0  0  0  0  0  0  0
    7.0540   -8.3721    0.0000 C   0  0  0  0  0  0  0  0  0  0  0  0
    7.7685   -8.7846    0.0000 C   0  0  0  0  0  0  0  0  0  0  0  0
    8.4830   -8.3721    0.0000 C   0  0  0  0  0  0  0  0  0  0  0  0
    8.4830   -7.5471    0.0000 N   0  0  0  0  0  0  0  0  0  0  0  0
    7.0540  -10.0221    0.0000 C   0  0  0  0  0  0  0  0  0  0  0  0
    7.7685   -9.6096    0.0000 N   0  0  0  0  0  0  0  0  0  0  0  0
    6.3395   -8.7846    0.0000 C   0  0  0  0  0  0  0  0  0  0  0  0
    6.3395   -9.6096    0.0000 N   0  0  0  0  0  0  0  0  0  0  0  0
    5.6251   -8.3721    0.0000 N   0  0  0  0  0  0  0  0  0  0  0  0
    4.9106   -8.7846    0.0000 C   0  0  0  0  0  0  0  0  0  0  0  0
    4.1961   -8.3721    0.0000 C   0  0  0  0  0  0  0  0  0  0  0  0
    4.1961   -7.5471    0.0000 C   0  0  0  0  0  0  0  0  0  0  0  0
    4.9106   -7.1346    0.0000 C   0  0  0  0  0  0  0  0  0  0  0  0
    5.6251   -7.5471    0.0000 C   0  0  0  0  0  0  0  0  0  0  0  0
    9.1974   -8.7846    0.0000 N   0  0  0  0  0  0  0  0  0  0  0  0
    9.9119   -8.3721    0.0000 C   0  0  0  0  0  0  0  0  0  0  0  0
   10.6264   -8.7846    0.0000 C   0  0  0  0  0  0  0  0  0  0  0  0
   10.6264   -9.6096    0.0000 C   0  0  0  0  0  0  0  0  0  0  0  0
    9.9119  -10.0221    0.0000 C   0  0  0  0  0  0  0  0  0  0  0  0
    9.1974   -9.6096    0.0000 C   0  0  0  0  0  0  0  0  0  0  0  0
    7.7685   -6.3096    0.0000 N   0  0  0  0  0  0  0  0  0  0  0  0
    7.0540  -10.8471    0.0000 N   0  0  0  0  0  0  0  0  0  0  0  0
    9.1974   -6.3096    0.0000 C   0  0  0  0  0  0  0  0  0  0  0  0
    8.4830   -5.8971    0.0000 C   0  0  0  0  0  0  0  0  0  0  0  0
    9.9119   -5.8971    0.0000 O   0  0  0  0  0  0  0  0  0  0  0  0
    6.3395   -6.3096    0.0000 C   0  0  0  0  0  0  0  0  0  0  0  0
    7.0540   -5.8971    0.0000 C   0  0  0  0  0  0  0  0  0  0  0  0
    5.6251   -5.8971    0.0000 O   0  0  0  0  0  0  0  0  0  0  0  0
    5.6251  -10.8471    0.0000 C   0  0  0  0  0  0  0  0  0  0  0  0
    6.3395  -11.2596    0.0000 C   0  0  0  0  0  0  0  0  0  0  0  0
    4.9106  -11.2596    0.0000 O   0  0  0  0  0  0  0  0  0  0  0  0
    8.4830  -10.8471    0.0000 C   0  0  0  0  0  0  0  0  0  0  0  0
    7.7685  -11.2596    0.0000 C   0  0  0  0  0  0  0  0  0  0  0  0
    9.1974  -11.2596    0.0000 O   0  0  0  0  0  0  0  0  0  0  0  0
  1  2  1  0  0  0  0
  2  3  2  0  0  0  0
  3  4  1  0  0  0  0
  4  5  2  0  0  0  0
  5  6  1  0  0  0  0
  1  6  2  0  0  0  0
  7  8  2  0  0  0  0
  9 10  2  0  0  0  0
  7 10  1  0  0  0  0
  9  3  1  0  0  0  0
  8  4  1  0  0  0  0
 11 12  1  0  0  0  0
 12 13  1  0  0  0  0
 13 14  1  0  0  0  0
 14 15  1  0  0  0  0
 15 16  1  0  0  0  0
 11 16  1  0  0  0  0
  9 11  1  0  0  0  0
 17 18  1  0  0  0  0
 18 19  1  0  0  0  0
 19 20  1  0  0  0  0
 20 21  1  0  0  0  0
 21 22  1  0  0  0  0
 17 22  1  0  0  0  0
  5 17  1  0  0  0  0
  1 23  1  0  0  0  0
  7 24  1  0  0  0  0
 25 26  1  0  0  0  0
 25 27  1  0  0  0  0
 23 26  1  0  0  0  0
 28 29  1  0  0  0  0
 28 30  1  0  0  0  0
 23 29  1  0  0  0  0
 31 32  1  0  0  0  0
 31 33  1  0  0  0  0
 24 32  1  0  0  0  0
 34 35  1  0  0  0  0
 34 36  1  0  0  0  0
 24 35  1  0  0  0  0
M  END
>  <cdx:groupId>
118

>  <cdx:fragmentId>
10

$$$$
