39776.cdx
  Mrv1902 05222410202D          

 37 38  0  0  0  0            999 V2000
    7.3304   -6.5230    0.0000 C   0  0  1  0  0  0  0  0  0  0  0  0
    6.6629   -7.0079    0.0000 C   0  0  1  0  0  0  0  0  0  0  0  0
    5.9955   -6.5230    0.0000 C   0  0  0  0  0  0  0  0  0  0  0  0
    6.2504   -5.7384    0.0000 C   0  0  0  0  0  0  0  0  0  0  0  0
    7.0754   -5.7384    0.0000 C   0  0  0  0  0  0  0  0  0  0  0  0
    8.1150   -6.7779    0.0000 C   0  0  0  0  0  0  0  0  0  0  0  0
    8.2865   -7.5849    0.0000 O   0  0  0  0  0  0  0  0  0  0  0  0
    8.7281   -6.2259    0.0000 O   0  0  0  0  0  0  0  0  0  0  0  0
    5.9485   -8.4929    0.0000 O   0  0  0  0  0  0  0  0  0  0  0  0
    6.6629   -8.0804    0.0000 C   0  0  1  0  0  0  0  0  0  0  0  0
    7.3774   -8.4929    0.0000 C   0  0  0  0  0  0  0  0  0  0  0  0
    8.0919   -8.0804    0.0000 C   0  0  0  0  0  0  0  0  0  0  0  0
    8.8063   -8.4929    0.0000 C   0  0  0  0  0  0  0  0  0  0  0  0
    9.5208   -8.0804    0.0000 C   0  0  0  0  0  0  0  0  0  0  0  0
   10.2353   -8.4929    0.0000 C   0  0  0  0  0  0  0  0  0  0  0  0
   10.2353   -9.3179    0.0000 C   0  0  1  0  0  0  0  0  0  0  0  0
    9.5208   -9.7304    0.0000 C   0  0  2  0  0  0  0  0  0  0  0  0
    8.8063   -9.3179    0.0000 C   0  0  0  0  0  0  0  0  0  0  0  0
    8.0919   -9.7304    0.0000 C   0  0  1  0  0  0  0  0  0  0  0  0
    7.3774   -9.3179    0.0000 C   0  0  0  0  0  0  0  0  0  0  0  0
    6.6629   -9.7304    0.0000 C   0  0  1  0  0  0  0  0  0  0  0  0
    5.9485   -9.3179    0.0000 C   0  0  0  0  0  0  0  0  0  0  0  0
    5.2340   -9.7304    0.0000 C   0  0  1  0  0  0  0  0  0  0  0  0
    4.5195   -9.3179    0.0000 C   0  0  2  0  0  0  0  0  0  0  0  0
    4.5195   -8.4929    0.0000 C   0  0  0  0  0  0  0  0  0  0  0  0
    5.2340   -8.0804    0.0000 C   0  0  0  0  0  0  0  0  0  0  0  0
    5.2340   -7.2554    0.0000 O   0  0  0  0  0  0  0  0  0  0  0  0
    5.2340  -10.5554    0.0000 C   0  0  0  0  0  0  0  0  0  0  0  0
    6.6629  -10.5554    0.0000 C   0  0  0  0  0  0  0  0  0  0  0  0
    8.0919  -10.5554    0.0000 C   0  0  0  0  0  0  0  0  0  0  0  0
    9.5208  -10.5554    0.0000 C   0  0  0  0  0  0  0  0  0  0  0  0
    3.8051   -9.7304    0.0000 O   0  0  0  0  0  0  0  0  0  0  0  0
   10.9498   -9.7304    0.0000 O   0  0  0  0  0  0  0  0  0  0  0  0
   10.9498   -8.0804    0.0000 C   0  0  0  0  0  0  0  0  0  0  0  0
   11.6642   -7.6679    0.0000 N   0  0  0  0  0  0  0  0  0  0  0  0
    5.9485   -7.4204    0.0000 H   0  0  0  0  0  0  0  0  0  0  0  0
    7.3774   -7.6679    0.0000 H   0  0  0  0  0  0  0  0  0  0  0  0
  1  2  1  0  0  0  0
  2  3  1  0  0  0  0
  3  4  1  0  0  0  0
  4  5  1  0  0  0  0
  1  5  1  0  0  0  0
  6  7  2  0  0  0  0
  6  8  1  0  0  0  0
  1  6  1  1  0  0  0
 10  9  1  0  0  0  0
 10 11  1  0  0  0  0
 11 12  1  0  0  0  0
 12 13  2  0  0  0  0
 13 14  1  0  0  0  0
 14 15  2  0  0  0  0
 15 16  1  0  0  0  0
 16 17  1  0  0  0  0
 17 18  1  0  0  0  0
 18 19  1  0  0  0  0
 19 20  1  0  0  0  0
 20 21  1  0  0  0  0
 21 22  1  0  0  0  0
 22 23  1  0  0  0  0
 23 24  1  0  0  0  0
 24 25  1  0  0  0  0
 25 26  1  0  0  0  0
  9 26  1  0  0  0  0
 26 27  2  0  0  0  0
 23 28  1  6  0  0  0
 21 29  1  6  0  0  0
 19 30  1  6  0  0  0
 17 31  1  1  0  0  0
 24 32  1  1  0  0  0
 16 33  1  6  0  0  0
 34 35  3  0  0  0  0
 15 34  1  0  0  0  0
  2 10  1  0  0  0  0
  2 36  1  1  0  0  0
 10 37  1  1  0  0  0
M  END
>  <cdx:groupId>
112

>  <cdx:fragmentId>
23

$$$$
