39773.cdx
  Mrv1902 05222410222D          

 33 32  0  0  0  0            999 V2000
   11.6971  -11.2504    0.0000 C   0  0  0  0  0  0  0  0  0  0  0  0
   10.9826  -10.8379    0.0000 C   0  0  2  0  0  0  0  0  0  0  0  0
   10.9826  -10.0129    0.0000 C   0  0  0  0  0  0  0  0  0  0  0  0
   11.6971   -9.6004    0.0000 C   0  0  0  0  0  0  0  0  0  0  0  0
   11.6971  -12.0754    0.0000 O   0  0  0  0  0  0  0  0  0  0  0  0
   12.4115  -10.8379    0.0000 O   0  0  0  0  0  0  0  0  0  0  0  0
   11.6971   -8.7754    0.0000 O   0  0  0  0  0  0  0  0  0  0  0  0
   12.4115  -10.0129    0.0000 O   0  0  0  0  0  0  0  0  0  0  0  0
   10.2681  -11.2504    0.0000 N   0  0  0  0  0  0  0  0  0  0  0  0
    9.5536  -10.8379    0.0000 C   0  0  0  0  0  0  0  0  0  0  0  0
    8.8392  -11.2504    0.0000 C   0  0  2  0  0  0  0  0  0  0  0  0
    8.8392  -12.0754    0.0000 C   0  0  0  0  0  0  0  0  0  0  0  0
    9.5536  -12.4879    0.0000 C   0  0  0  0  0  0  0  0  0  0  0  0
    9.5536  -10.0129    0.0000 O   0  0  0  0  0  0  0  0  0  0  0  0
    8.1247  -12.4879    0.0000 C   0  0  0  0  0  0  0  0  0  0  0  0
    8.1247  -10.8379    0.0000 N   0  0  0  0  0  0  0  0  0  0  0  0
    7.4102  -11.2504    0.0000 C   0  0  0  0  0  0  0  0  0  0  0  0
    6.6958  -10.8379    0.0000 C   0  0  2  0  0  0  0  0  0  0  0  0
    6.6958  -10.0129    0.0000 C   0  0  0  0  0  0  0  0  0  0  0  0
    5.9813   -9.6004    0.0000 C   0  0  0  0  0  0  0  0  0  0  0  0
    7.4102  -12.0754    0.0000 O   0  0  0  0  0  0  0  0  0  0  0  0
    7.4102   -9.6004    0.0000 C   0  0  0  0  0  0  0  0  0  0  0  0
    5.9813  -11.2504    0.0000 N   0  0  0  0  0  0  0  0  0  0  0  0
    5.2668  -10.8379    0.0000 C   0  0  0  0  0  0  0  0  0  0  0  0
    4.5523  -11.2504    0.0000 C   0  0  2  0  0  0  0  0  0  0  0  0
    3.8379  -10.8379    0.0000 C   0  0  1  0  0  0  0  0  0  0  0  0
    3.1234  -11.2504    0.0000 C   0  0  0  0  0  0  0  0  0  0  0  0
    2.4089  -10.8379    0.0000 C   0  0  0  0  0  0  0  0  0  0  0  0
    2.4089  -10.0129    0.0000 C   0  0  0  0  0  0  0  0  0  0  0  0
    5.2668  -10.0129    0.0000 O   0  0  0  0  0  0  0  0  0  0  0  0
    1.6945  -11.2504    0.0000 C   0  0  0  0  0  0  0  0  0  0  0  0
    4.5523  -12.0754    0.0000 O   0  0  0  0  0  0  0  0  0  0  0  0
    3.8379  -10.0129    0.0000 N   0  0  0  0  0  0  0  0  0  0  0  0
  1  2  1  0  0  0  0
  2  3  1  1  0  0  0
  3  4  1  0  0  0  0
  1  5  2  0  0  0  0
  1  6  1  0  0  0  0
  4  7  2  0  0  0  0
  4  8  1  0  0  0  0
 10 11  1  0  0  0  0
 11 12  1  6  0  0  0
 12 13  1  0  0  0  0
 10 14  2  0  0  0  0
 12 15  1  0  0  0  0
 17 18  1  0  0  0  0
 18 19  1  1  0  0  0
 19 20  1  0  0  0  0
 17 21  2  0  0  0  0
 19 22  1  0  0  0  0
 24 25  1  0  0  0  0
 25 26  1  0  0  0  0
 26 27  1  0  0  0  0
 27 28  1  0  0  0  0
 28 29  1  0  0  0  0
 24 30  2  0  0  0  0
 28 31  1  0  0  0  0
 25 32  1  1  0  0  0
 26 33  1  1  0  0  0
 23 24  1  0  0  0  0
 18 23  1  0  0  0  0
 16 17  1  0  0  0  0
 11 16  1  0  0  0  0
  9 10  1  0  0  0  0
  2  9  1  0  0  0  0
M  END
>  <cdx:groupId>
105

>  <cdx:fragmentId>
56

$$$$
