39775.cdx
  Mrv1902 05222410212D          

 33 33  0  0  0  0            999 V2000
   11.7914   -9.7608    0.0000 C   0  0  1  0  0  0  0  0  0  0  0  0
   11.0770   -9.3483    0.0000 C   0  0  0  0  0  0  0  0  0  0  0  0
   11.0770   -8.5233    0.0000 C   0  0  0  0  0  0  0  0  0  0  0  0
   11.7914   -8.1108    0.0000 C   0  0  0  0  0  0  0  0  0  0  0  0
   12.5059   -8.5233    0.0000 C   0  0  0  0  0  0  0  0  0  0  0  0
   12.5059   -9.3483    0.0000 O   0  0  0  0  0  0  0  0  0  0  0  0
   13.2204   -8.1108    0.0000 O   0  0  0  0  0  0  0  0  0  0  0  0
   11.7914  -10.5858    0.0000 C   0  0  0  0  0  0  0  0  0  0  0  0
   11.0770  -10.9983    0.0000 C   0  0  0  0  0  0  0  0  0  0  0  0
   11.0770  -11.8233    0.0000 C   0  0  0  0  0  0  0  0  0  0  0  0
   10.3625  -12.2358    0.0000 C   0  0  0  0  0  0  0  0  0  0  0  0
    9.6480  -11.8233    0.0000 C   0  0  1  0  0  0  0  0  0  0  0  0
    8.9336  -12.2358    0.0000 C   0  0  0  0  0  0  0  0  0  0  0  0
    8.2191  -11.8233    0.0000 C   0  0  0  0  0  0  0  0  0  0  0  0
    7.5046  -12.2358    0.0000 C   0  0  0  0  0  0  0  0  0  0  0  0
    6.7902  -11.8233    0.0000 C   0  0  0  0  0  0  0  0  0  0  0  0
    6.0757  -12.2358    0.0000 C   0  0  0  0  0  0  0  0  0  0  0  0
    5.3612  -11.8233    0.0000 C   0  0  2  0  0  0  0  0  0  0  0  0
    4.6467  -12.2358    0.0000 C   0  0  0  0  0  0  0  0  0  0  0  0
    3.9323  -11.8233    0.0000 C   0  0  2  0  0  0  0  0  0  0  0  0
    3.2178  -12.2358    0.0000 C   0  0  1  0  0  0  0  0  0  0  0  0
    2.5033  -11.8233    0.0000 C   0  0  2  0  0  0  0  0  0  0  0  0
    1.7889  -12.2358    0.0000 C   0  0  0  0  0  0  0  0  0  0  0  0
    1.0744  -11.8233    0.0000 C   0  0  0  0  0  0  0  0  0  0  0  0
    4.6467  -13.0608    0.0000 O   0  0  0  0  0  0  0  0  0  0  0  0
    2.5033  -10.9983    0.0000 C   0  0  0  0  0  0  0  0  0  0  0  0
    3.9323  -10.9983    0.0000 C   0  0  0  0  0  0  0  0  0  0  0  0
    5.3612  -10.9983    0.0000 C   0  0  0  0  0  0  0  0  0  0  0  0
    6.7902  -10.9983    0.0000 C   0  0  0  0  0  0  0  0  0  0  0  0
    9.6480  -10.9983    0.0000 C   0  0  0  0  0  0  0  0  0  0  0  0
    3.2178  -13.0608    0.0000 O   0  0  0  0  0  0  0  0  0  0  0  0
   11.7914  -12.2358    0.0000 C   0  0  0  0  0  0  0  0  0  0  0  0
   12.5059  -11.8233    0.0000 C   0  0  0  0  0  0  0  0  0  0  0  0
  1  2  1  0  0  0  0
  2  3  1  0  0  0  0
  3  4  2  0  0  0  0
  4  5  1  0  0  0  0
  5  6  1  0  0  0  0
  1  6  1  0  0  0  0
  5  7  2  0  0  0  0
  8  9  2  0  0  0  0
  9 10  1  0  0  0  0
 10 11  2  0  0  0  0
 11 12  1  0  0  0  0
 12 13  1  0  0  0  0
 13 14  1  0  0  0  0
 14 15  2  0  0  0  0
 15 16  1  0  0  0  0
 16 17  2  0  0  0  0
 17 18  1  0  0  0  0
 18 19  1  0  0  0  0
 19 20  1  0  0  0  0
 20 21  1  0  0  0  0
 21 22  1  0  0  0  0
 22 23  1  0  0  0  0
 23 24  1  0  0  0  0
 19 25  2  0  0  0  0
 22 26  1  6  0  0  0
 20 27  1  6  0  0  0
 18 28  1  6  0  0  0
 16 29  1  0  0  0  0
 12 30  1  1  0  0  0
 21 31  1  6  0  0  0
 32 33  1  0  0  0  0
 10 32  1  0  0  0  0
  1  8  1  1  0  0  0
M  END
>  <cdx:groupId>
216

>  <cdx:fragmentId>
217

$$$$
