39777.cdx
  Mrv1902 05222410212D          

 34 39  0  0  0  0            999 V2000
    8.4490   -8.3440    0.0000 O   0  0  0  0  0  0  0  0  0  0  0  0
    7.9641   -9.0115    0.0000 C   0  0  0  0  0  0  0  0  0  0  0  0
    8.4490   -9.6789    0.0000 C   0  0  0  0  0  0  0  0  0  0  0  0
    9.2336   -9.4240    0.0000 C   0  0  0  0  0  0  0  0  0  0  0  0
    9.2336   -8.5990    0.0000 C   0  0  0  0  0  0  0  0  0  0  0  0
    7.1391   -9.0115    0.0000 O   0  0  0  0  0  0  0  0  0  0  0  0
    4.5515  -11.5435    0.0000 C   0  0  0  0  0  0  0  0  0  0  0  0
    3.8371  -11.9560    0.0000 C   0  0  0  0  0  0  0  0  0  0  0  0
    3.8371  -12.7810    0.0000 C   0  0  0  0  0  0  0  0  0  0  0  0
    4.5515  -13.1935    0.0000 C   0  0  0  0  0  0  0  0  0  0  0  0
    5.2660  -12.7810    0.0000 C   0  0  0  0  0  0  0  0  0  0  0  0
    5.9805  -13.1935    0.0000 C   0  0  0  0  0  0  0  0  0  0  0  0
    6.6949  -12.7810    0.0000 C   0  0  0  0  0  0  0  0  0  0  0  0
    6.6949  -11.9560    0.0000 C   0  0  0  0  0  0  0  0  0  0  0  0
    7.4094  -11.5435    0.0000 C   0  0  0  0  0  0  0  0  0  0  0  0
    8.1940  -11.7984    0.0000 C   0  0  0  0  0  0  0  0  0  0  0  0
    8.6790  -11.1310    0.0000 C   0  0  0  0  0  0  0  0  0  0  0  0
    8.1940  -10.4635    0.0000 C   0  0  0  0  0  0  0  0  0  0  0  0
    7.4094  -10.7185    0.0000 C   0  0  0  0  0  0  0  0  0  0  0  0
    6.6949  -10.3060    0.0000 C   0  0  0  0  0  0  0  0  0  0  0  0
    5.9805  -10.7185    0.0000 C   0  0  0  0  0  0  0  0  0  0  0  0
    5.9805  -11.5435    0.0000 C   0  0  0  0  0  0  0  0  0  0  0  0
    5.2660  -11.9560    0.0000 C   0  0  0  0  0  0  0  0  0  0  0  0
    7.4094  -12.3685    0.0000 C   0  0  0  0  0  0  0  0  0  0  0  0
    7.4094   -9.8935    0.0000 C   0  0  0  0  0  0  0  0  0  0  0  0
    5.2660  -11.1310    0.0000 C   0  0  0  0  0  0  0  0  0  0  0  0
    4.9640  -13.9079    0.0000 C   0  0  0  0  0  0  0  0  0  0  0  0
    4.1390  -13.9079    0.0000 C   0  0  0  0  0  0  0  0  0  0  0  0
    3.1226  -13.1935    0.0000 O   0  0  0  0  0  0  0  0  0  0  0  0
   10.2366   -7.3604    0.0000 O   0  0  0  0  0  0  0  0  0  0  0  0
    9.9010   -8.1140    0.0000 C   0  0  0  0  0  0  0  0  0  0  0  0
   10.7215   -8.0278    0.0000 C   0  0  0  0  0  0  0  0  0  0  0  0
   11.5420   -7.9416    0.0000 C   0  0  0  0  0  0  0  0  0  0  0  0
   11.2064   -8.6952    0.0000 C   0  0  0  0  0  0  0  0  0  0  0  0
  1  2  1  0  0  0  0
  2  3  1  0  0  0  0
  3  4  1  0  0  0  0
  4  5  1  0  0  0  0
  1  5  1  0  0  0  0
  2  6  1  0  0  0  0
  7  8  2  0  0  0  0
  8  9  1  0  0  0  0
  9 10  1  0  0  0  0
 10 11  1  0  0  0  0
 11 12  1  0  0  0  0
 12 13  1  0  0  0  0
 13 14  2  0  0  0  0
 14 15  1  0  0  0  0
 15 16  1  0  0  0  0
 16 17  1  0  0  0  0
 17 18  1  0  0  0  0
 18 19  1  0  0  0  0
 15 19  1  0  0  0  0
 19 20  1  0  0  0  0
 20 21  1  0  0  0  0
 21 22  1  0  0  0  0
 14 22  1  0  0  0  0
 22 23  1  0  0  0  0
 11 23  1  0  0  0  0
  7 23  1  0  0  0  0
 15 24  1  0  0  0  0
 19 25  1  0  0  0  0
 23 26  1  0  0  0  0
 10 27  1  0  0  0  0
 10 28  1  0  0  0  0
  9 29  1  0  0  0  0
  3 18  1  0  0  0  0
 30 31  1  0  0  0  0
 31 32  1  0  0  0  0
 30 32  1  0  0  0  0
 32 33  1  0  0  0  0
 32 34  1  0  0  0  0
  5 31  1  0  0  0  0
M  END
>  <cdx:groupId>
113

>  <cdx:fragmentId>
21

$$$$
