39779.cdx
  Mrv1902 05222410242D          

 42 43  0  0  0  0            999 V2000
    1.9081  -10.6563    0.0000 C   0  0  0  0  0  0  0  0  0  0  0  0
    1.9081   -9.8312    0.0000 C   0  0  0  0  0  0  0  0  0  0  0  0
    2.6226   -9.4187    0.0000 C   0  0  0  0  0  0  0  0  0  0  0  0
    3.3371   -9.8312    0.0000 C   0  0  0  0  0  0  0  0  0  0  0  0
    3.3371  -10.6563    0.0000 C   0  0  0  0  0  0  0  0  0  0  0  0
    2.6226  -11.0688    0.0000 C   0  0  0  0  0  0  0  0  0  0  0  0
    1.1937  -11.0688    0.0000 O   0  0  0  0  0  0  0  0  0  0  0  0
    4.0515   -9.4187    0.0000 C   0  0  0  0  0  0  0  0  0  0  0  0
    4.7660   -9.8312    0.0000 C   0  0  0  0  0  0  0  0  0  0  0  0
    5.4805   -9.4187    0.0000 C   0  0  0  0  0  0  0  0  0  0  0  0
    6.1950   -9.8312    0.0000 C   0  0  0  0  0  0  0  0  0  0  0  0
    6.9094   -9.4187    0.0000 C   0  0  0  0  0  0  0  0  0  0  0  0
    7.6239   -9.8312    0.0000 C   0  0  0  0  0  0  0  0  0  0  0  0
    8.3384   -9.4187    0.0000 C   0  0  0  0  0  0  0  0  0  0  0  0
    9.0528   -9.8312    0.0000 C   0  0  0  0  0  0  0  0  0  0  0  0
    9.7673   -9.4187    0.0000 C   0  0  0  0  0  0  0  0  0  0  0  0
   10.4818   -9.8312    0.0000 C   0  0  0  0  0  0  0  0  0  0  0  0
   11.1963   -9.4187    0.0000 C   0  0  0  0  0  0  0  0  0  0  0  0
   11.9107   -9.8312    0.0000 C   0  0  0  0  0  0  0  0  0  0  0  0
   12.6252   -9.4187    0.0000 C   0  0  0  0  0  0  0  0  0  0  0  0
   13.3397   -9.8312    0.0000 C   0  0  0  0  0  0  0  0  0  0  0  0
   14.0541   -9.4187    0.0000 C   0  0  0  0  0  0  0  0  0  0  0  0
   14.7686   -9.8312    0.0000 C   0  0  0  0  0  0  0  0  0  0  0  0
   15.4831   -9.4187    0.0000 C   0  0  0  0  0  0  0  0  0  0  0  0
   16.1975   -9.8312    0.0000 C   0  0  0  0  0  0  0  0  0  0  0  0
   16.9120   -9.4187    0.0000 C   0  0  0  0  0  0  0  0  0  0  0  0
   17.6265   -9.8312    0.0000 C   0  0  0  0  0  0  0  0  0  0  0  0
   18.3410   -9.4187    0.0000 C   0  0  0  0  0  0  0  0  0  0  0  0
   18.3410   -8.5938    0.0000 C   0  0  0  0  0  0  0  0  0  0  0  0
   17.6265   -8.1813    0.0000 C   0  0  0  0  0  0  0  0  0  0  0  0
   16.9120   -8.5938    0.0000 C   0  0  0  0  0  0  0  0  0  0  0  0
   19.0554   -8.1813    0.0000 O   0  0  0  0  0  0  0  0  0  0  0  0
   16.0870   -8.5938    0.0000 C   0  0  0  0  0  0  0  0  0  0  0  0
   16.4995   -7.8793    0.0000 C   0  0  0  0  0  0  0  0  0  0  0  0
   17.6265  -10.6563    0.0000 C   0  0  0  0  0  0  0  0  0  0  0  0
   14.7686  -10.6563    0.0000 C   0  0  0  0  0  0  0  0  0  0  0  0
   11.9107  -10.6563    0.0000 C   0  0  0  0  0  0  0  0  0  0  0  0
    8.3384   -8.5938    0.0000 C   0  0  0  0  0  0  0  0  0  0  0  0
    5.4805   -8.5938    0.0000 C   0  0  0  0  0  0  0  0  0  0  0  0
    4.1621  -10.6563    0.0000 C   0  0  0  0  0  0  0  0  0  0  0  0
    3.7496  -11.3707    0.0000 C   0  0  0  0  0  0  0  0  0  0  0  0
    2.6226   -8.5938    0.0000 C   0  0  0  0  0  0  0  0  0  0  0  0
  1  2  1  0  0  0  0
  2  3  2  0  0  0  0
  3  4  1  0  0  0  0
  4  5  1  0  0  0  0
  5  6  1  0  0  0  0
  1  6  1  0  0  0  0
  1  7  2  0  0  0  0
  8  9  1  0  0  0  0
  9 10  2  0  0  0  0
 10 11  1  0  0  0  0
 11 12  2  0  0  0  0
 12 13  1  0  0  0  0
 13 14  2  0  0  0  0
 14 15  1  0  0  0  0
 15 16  2  0  0  0  0
 16 17  1  0  0  0  0
 17 18  2  0  0  0  0
 18 19  1  0  0  0  0
 19 20  2  0  0  0  0
 20 21  1  0  0  0  0
 21 22  2  0  0  0  0
 22 23  1  0  0  0  0
 23 24  2  0  0  0  0
 24 25  1  0  0  0  0
 26 27  1  0  0  0  0
 27 28  2  0  0  0  0
 28 29  1  0  0  0  0
 29 30  1  0  0  0  0
 30 31  1  0  0  0  0
 26 31  1  0  0  0  0
 29 32  2  0  0  0  0
 31 33  1  0  0  0  0
 31 34  1  0  0  0  0
 27 35  1  0  0  0  0
 25 26  2  0  0  0  0
 23 36  1  0  0  0  0
 19 37  1  0  0  0  0
 14 38  1  0  0  0  0
 10 39  1  0  0  0  0
  4  8  2  0  0  0  0
  5 40  1  0  0  0  0
  5 41  1  0  0  0  0
  3 42  1  0  0  0  0
M  END
>  <cdx:groupId>
133

>  <cdx:fragmentId>
378

$$$$
