39772.cdx
  Mrv1902 05222410232D          

 38 44  0  0  0  0            999 V2000
    7.6500   -5.1369    0.0000 C   0  0  0  0  0  0  0  0  0  0  0  0
    6.8453   -5.3055    0.0000 C   0  0  0  0  0  0  0  0  0  0  0  0
    6.5890   -6.0867    0.0000 C   0  0  0  0  0  0  0  0  0  0  0  0
    9.4161   -4.8701    0.0000 N   0  0  0  0  0  0  0  0  0  0  0  0
    9.0030   -5.5809    0.0000 C   0  0  0  0  0  0  0  0  0  0  0  0
    9.5513   -6.1934    0.0000 C   0  0  0  0  0  0  0  0  0  0  0  0
   10.3030   -5.8604    0.0000 C   0  0  0  0  0  0  0  0  0  0  0  0
   11.0534   -6.1978    0.0000 C   0  0  0  0  0  0  0  0  0  0  0  0
   11.7199   -5.7165    0.0000 C   0  0  0  0  0  0  0  0  0  0  0  0
   11.6364   -4.8986    0.0000 C   0  0  0  0  0  0  0  0  0  0  0  0
   10.8863   -4.5620    0.0000 C   0  0  0  0  0  0  0  0  0  0  0  0
   10.2198   -5.0433    0.0000 C   0  0  0  0  0  0  0  0  0  0  0  0
    8.1983   -5.7495    0.0000 C   0  0  0  0  0  0  0  0  0  0  0  0
    9.2950   -6.9746    0.0000 C   0  0  0  0  0  0  0  0  0  0  0  0
    8.4903   -7.1432    0.0000 C   0  0  0  0  0  0  0  0  0  0  0  0
    7.9420   -6.5306    0.0000 N   0  3  0  0  0  0  0  0  0  0  0  0
    5.4135   -7.1641    0.0000 N   0  0  0  0  0  0  0  0  0  0  0  0
    6.0774   -7.6501    0.0000 C   0  0  0  0  0  0  0  0  0  0  0  0
    5.8209   -8.4304    0.0000 C   0  0  0  0  0  0  0  0  0  0  0  0
    4.9987   -8.4280    0.0000 C   0  0  0  0  0  0  0  0  0  0  0  0
    4.4468   -9.0374    0.0000 C   0  0  0  0  0  0  0  0  0  0  0  0
    3.6432   -8.8641    0.0000 C   0  0  0  0  0  0  0  0  0  0  0  0
    3.3914   -8.0815    0.0000 C   0  0  0  0  0  0  0  0  0  0  0  0
    3.9433   -7.4721    0.0000 C   0  0  0  0  0  0  0  0  0  0  0  0
    4.7469   -7.6454    0.0000 C   0  0  0  0  0  0  0  0  0  0  0  0
    6.8818   -7.4807    0.0000 C   0  0  0  0  0  0  0  0  0  0  0  0
    6.3692   -9.0430    0.0000 C   0  0  0  0  0  0  0  0  0  0  0  0
    7.1739   -8.8744    0.0000 C   0  0  0  0  0  0  0  0  0  0  0  0
    7.4302   -8.0932    0.0000 N   0  0  0  0  0  0  0  0  0  0  0  0
    6.1137   -9.8244    0.0000 O   0  0  0  0  0  0  0  0  0  0  0  0
    5.3092   -9.9939    0.0000 C   0  0  0  0  0  0  0  0  0  0  0  0
    9.8440   -7.5866    0.0000 O   0  0  0  0  0  0  0  0  0  0  0  0
    9.5885   -8.3680    0.0000 C   0  0  0  0  0  0  0  0  0  0  0  0
    7.1373   -6.6992    0.0000 C   0  0  0  0  0  0  0  0  0  0  0  0
    5.4162   -6.3391    0.0000 O   0  0  0  0  0  0  0  0  0  0  0  0
    4.7030   -5.9242    0.0000 C   0  0  0  0  0  0  0  0  0  0  0  0
    9.0827   -4.1154    0.0000 O   0  0  0  0  0  0  0  0  0  0  0  0
    8.2625   -4.0268    0.0000 C   0  0  0  0  0  0  0  0  0  0  0  0
  1  2  1  0  0  0  0
  2  3  1  0  0  0  0
  4  5  1  0  0  0  0
  5  6  2  0  0  0  0
  6  7  1  0  0  0  0
  7  8  1  0  0  0  0
  8  9  2  0  0  0  0
  9 10  1  0  0  0  0
 10 11  2  0  0  0  0
 11 12  1  0  0  0  0
  4 12  1  0  0  0  0
  7 12  2  0  0  0  0
 14 15  2  0  0  0  0
 15 16  1  0  0  0  0
 13 16  2  0  0  0  0
 13  5  1  0  0  0  0
 14  6  1  0  0  0  0
  1 13  1  0  0  0  0
 17 18  1  0  0  0  0
 18 19  2  0  0  0  0
 19 20  1  0  0  0  0
 20 21  1  0  0  0  0
 21 22  2  0  0  0  0
 22 23  1  0  0  0  0
 23 24  2  0  0  0  0
 24 25  1  0  0  0  0
 17 25  1  0  0  0  0
 20 25  2  0  0  0  0
 27 28  2  0  0  0  0
 28 29  1  0  0  0  0
 26 29  2  0  0  0  0
 26 18  1  0  0  0  0
 27 19  1  0  0  0  0
 30 31  1  0  0  0  0
 27 30  1  0  0  0  0
 14 32  1  0  0  0  0
 32 33  1  0  0  0  0
  3 34  1  0  0  0  0
 34 16  1  0  0  0  0
 34 26  1  0  0  0  0
 17 35  1  0  0  0  0
 35 36  1  0  0  0  0
  4 37  1  0  0  0  0
 37 38  1  0  0  0  0
M  CHG  1  16   1
M  END
>  <cdx:fragmentId>
383

$$$$
