39781.cdx
  Mrv1902 05222410232D          

  7  6  0  0  0  0            999 V2000
    7.5213   -7.6267    0.0000 C   0  0  0  0  0  0  0  0  0  0  0  0
    8.2357   -8.0392    0.0000 C   0  0  0  0  0  0  0  0  0  0  0  0
    8.9502   -7.6267    0.0000 C   0  0  0  0  0  0  0  0  0  0  0  0
    6.8068   -8.0392    0.0000 O   0  0  0  0  0  0  0  0  0  0  0  0
    6.0923   -7.6267    0.0000 C   0  0  0  0  0  0  0  0  0  0  0  0
    7.5213   -6.8017    0.0000 O   0  0  0  0  0  0  0  0  0  0  0  0
    6.8068   -6.3892    0.0000 C   0  0  0  0  0  0  0  0  0  0  0  0
  1  2  1  0  0  0  0
  2  3  1  0  0  0  0
  4  5  1  0  0  0  0
  1  4  1  0  0  0  0
  6  7  1  0  0  0  0
  1  6  1  0  0  0  0
M  END
>  <cdx:groupId>
26

>  <cdx:fragmentId>
229

$$$$
