39789.cdx
  Mrv1902 05222410202D          

 17 16  0  0  0  0            999 V2000
   11.5517   -6.5895    0.0000 C   0  0  0  0  0  0  0  0  0  0  0  0
   11.5517   -7.4145    0.0000 C   0  0  0  0  0  0  0  0  0  0  0  0
   10.8372   -7.8270    0.0000 C   0  0  0  0  0  0  0  0  0  0  0  0
   10.1227   -7.4145    0.0000 C   0  0  0  0  0  0  0  0  0  0  0  0
    9.4083   -7.8270    0.0000 C   0  0  0  0  0  0  0  0  0  0  0  0
    8.6938   -7.4145    0.0000 C   0  0  0  0  0  0  0  0  0  0  0  0
    7.9793   -7.8270    0.0000 C   0  0  0  0  0  0  0  0  0  0  0  0
    7.2648   -7.4145    0.0000 C   0  0  0  0  0  0  0  0  0  0  0  0
    6.5504   -7.8270    0.0000 C   0  0  0  0  0  0  0  0  0  0  0  0
    5.8359   -7.4145    0.0000 C   0  0  0  0  0  0  0  0  0  0  0  0
    5.1214   -7.8270    0.0000 C   0  0  0  0  0  0  0  0  0  0  0  0
    4.4070   -7.4145    0.0000 C   0  0  0  0  0  0  0  0  0  0  0  0
    3.6925   -7.8270    0.0000 C   0  0  0  0  0  0  0  0  0  0  0  0
    2.9780   -7.4145    0.0000 C   0  0  0  0  0  0  0  0  0  0  0  0
   10.8372   -8.6520    0.0000 O   0  0  0  0  0  0  0  0  0  0  0  0
   12.2661   -7.8270    0.0000 C   0  0  0  0  0  0  0  0  0  0  0  0
    2.2636   -7.8270    0.0000 Br  0  0  0  0  0  0  0  0  0  0  0  0
  1  2  2  0  0  0  0
  2  3  1  0  0  0  0
  3  4  1  0  0  0  0
  4  5  1  0  0  0  0
  5  6  1  0  0  0  0
  6  7  1  0  0  0  0
  7  8  1  0  0  0  0
  8  9  1  0  0  0  0
  9 10  1  0  0  0  0
 10 11  1  0  0  0  0
 11 12  1  0  0  0  0
 12 13  1  0  0  0  0
 13 14  1  0  0  0  0
  3 15  1  0  0  0  0
  2 16  1  0  0  0  0
 14 17  1  0  0  0  0
M  END
>  <cdx:groupId>
137

>  <cdx:fragmentId>
9

$$$$
