39784.cdx
  Mrv1902 05222410252D          

 11 10  0  0  0  0            999 V2000
    8.3455   -8.0421    0.0000 C   0  0  0  0  0  0  0  0  0  0  0  0
    7.6310   -8.4546    0.0000 C   0  0  0  0  0  0  0  0  0  0  0  0
    7.6310   -9.2796    0.0000 O   0  0  0  0  0  0  0  0  0  0  0  0
    6.9165   -8.0421    0.0000 C   0  0  0  0  0  0  0  0  0  0  0  0
    6.2020   -8.4546    0.0000 C   0  0  0  0  0  0  0  0  0  0  0  0
    8.3455   -7.2171    0.0000 O   0  0  0  0  0  0  0  0  0  0  0  0
    9.0599   -8.4546    0.0000 O   0  0  0  0  0  0  0  0  0  0  0  0
    6.2020   -9.2796    0.0000 O   0  0  0  0  0  0  0  0  0  0  0  0
    5.4876   -8.0421    0.0000 O   0  0  0  0  0  0  0  0  0  0  0  0
    9.7744   -8.0421    0.0000 C   0  0  0  0  0  0  0  0  0  0  0  0
    4.7731   -8.4546    0.0000 C   0  0  0  0  0  0  0  0  0  0  0  0
  1  2  1  0  0  0  0
  2  3  1  0  0  0  0
  2  4  1  0  0  0  0
  4  5  1  0  0  0  0
  1  6  2  0  0  0  0
  1  7  1  0  0  0  0
  5  8  2  0  0  0  0
  5  9  1  0  0  0  0
  7 10  1  0  0  0  0
  9 11  1  0  0  0  0
M  END
>  <cdx:groupId>
38

>  <cdx:fragmentId>
136

$$$$
