39780.cdx
  Mrv1902 05222410232D          

 45 50  0  0  0  0            999 V2000
    5.9300  -10.0433    0.0000 C   0  0  1  0  0  0  0  0  0  0  0  0
    5.9300   -9.2183    0.0000 C   0  0  0  0  0  0  0  0  0  0  0  0
    6.6445   -8.8058    0.0000 C   0  0  0  0  0  0  0  0  0  0  0  0
    6.6445  -10.4558    0.0000 C   0  0  0  0  0  0  0  0  0  0  0  0
    7.0570  -11.1703    0.0000 C   0  0  0  0  0  0  0  0  0  0  0  0
    6.2320  -11.1703    0.0000 C   0  0  0  0  0  0  0  0  0  0  0  0
    7.3589  -10.0433    0.0000 C   0  0  2  0  0  0  0  0  0  0  0  0
    7.3589  -10.8683    0.0000 H   0  0  0  0  0  0  0  0  0  0  0  0
    8.0734  -10.4558    0.0000 C   0  0  0  0  0  0  0  0  0  0  0  0
    8.7879  -10.0433    0.0000 C   0  0  0  0  0  0  0  0  0  0  0  0
    8.7879   -9.2183    0.0000 C   0  0  1  0  0  0  0  0  0  0  0  0
    8.7879   -8.3933    0.0000 C   0  0  0  0  0  0  0  0  0  0  0  0
    9.5023   -8.8058    0.0000 C   0  0  2  0  0  0  0  0  0  0  0  0
    9.5023   -9.6308    0.0000 C   0  0  0  0  0  0  0  0  0  0  0  0
   10.2168   -9.2183    0.0000 C   0  0  0  0  0  0  0  0  0  0  0  0
   10.9313   -8.8058    0.0000 C   0  0  0  0  0  0  0  0  0  0  0  0
   10.9313   -7.9808    0.0000 C   0  0  1  0  0  0  0  0  0  0  0  0
   11.6458   -8.3933    0.0000 C   0  0  0  0  0  0  0  0  0  0  0  0
   11.6458   -7.5683    0.0000 C   0  0  0  0  0  0  0  0  0  0  0  0
   11.6458   -6.7433    0.0000 C   0  0  0  0  0  0  0  0  0  0  0  0
   10.9313   -6.3308    0.0000 C   0  0  1  0  0  0  0  0  0  0  0  0
   10.9313   -5.5058    0.0000 C   0  0  0  0  0  0  0  0  0  0  0  0
   10.2168   -6.7433    0.0000 C   0  0  2  0  0  0  0  0  0  0  0  0
    9.5023   -6.3308    0.0000 C   0  0  0  0  0  0  0  0  0  0  0  0
   10.2168   -7.5683    0.0000 C   0  0  1  0  0  0  0  0  0  0  0  0
   10.2168   -8.3933    0.0000 H   0  0  0  0  0  0  0  0  0  0  0  0
    9.5023   -7.9808    0.0000 C   0  0  0  0  0  0  0  0  0  0  0  0
    8.7879   -7.5683    0.0000 C   0  0  0  0  0  0  0  0  0  0  0  0
    8.0734   -7.9808    0.0000 C   0  0  0  0  0  0  0  0  0  0  0  0
    8.0734   -8.8058    0.0000 C   0  0  2  0  0  0  0  0  0  0  0  0
    7.3589   -9.2183    0.0000 C   0  0  1  0  0  0  0  0  0  0  0  0
    7.3589   -8.3933    0.0000 C   0  0  0  0  0  0  0  0  0  0  0  0
   11.6458   -9.2183    0.0000 O   0  0  0  0  0  0  0  0  0  0  0  0
   12.3602   -7.9808    0.0000 O   0  0  0  0  0  0  0  0  0  0  0  0
    8.0734  -11.2808    0.0000 O   0  0  0  0  0  0  0  0  0  0  0  0
    5.2155  -10.4558    0.0000 O   0  0  0  0  0  0  0  0  0  0  0  0
    4.5010  -10.0433    0.0000 C   0  0  0  0  0  0  0  0  0  0  0  0
    3.7866  -10.4558    0.0000 C   0  0  0  0  0  0  0  0  0  0  0  0
    3.7866  -11.2808    0.0000 C   0  0  0  0  0  0  0  0  0  0  0  0
    3.0721  -11.6933    0.0000 C   0  0  0  0  0  0  0  0  0  0  0  0
    2.3576  -11.2808    0.0000 C   0  0  0  0  0  0  0  0  0  0  0  0
    2.3576  -10.4558    0.0000 C   0  0  0  0  0  0  0  0  0  0  0  0
    3.0721  -10.0433    0.0000 C   0  0  0  0  0  0  0  0  0  0  0  0
    4.5010   -9.2183    0.0000 O   0  0  0  0  0  0  0  0  0  0  0  0
    8.0734   -9.6308    0.0000 H   0  0  0  0  0  0  0  0  0  0  0  0
  1  2  1  0  0  0  0
  2  3  1  0  0  0  0
  1  4  1  0  0  0  0
  4  5  1  0  0  0  0
  4  6  1  0  0  0  0
  4  7  1  0  0  0  0
  7  8  1  6  0  0  0
  7  9  1  0  0  0  0
  9 10  1  0  0  0  0
 10 11  1  0  0  0  0
 11 12  1  1  0  0  0
 11 13  1  0  0  0  0
 13 14  1  6  0  0  0
 13 15  1  0  0  0  0
 15 16  1  0  0  0  0
 16 17  1  0  0  0  0
 17 18  1  1  0  0  0
 17 19  1  0  0  0  0
 19 20  1  0  0  0  0
 20 21  1  0  0  0  0
 21 22  1  6  0  0  0
 21 23  1  0  0  0  0
 23 24  1  1  0  0  0
 23 25  1  0  0  0  0
 25 26  1  1  0  0  0
 17 25  1  0  0  0  0
 25 27  1  0  0  0  0
 13 27  1  0  0  0  0
 27 28  2  0  0  0  0
 28 29  1  0  0  0  0
 29 30  1  0  0  0  0
 11 30  1  0  0  0  0
 30 31  1  0  0  0  0
  3 31  1  0  0  0  0
  7 31  1  0  0  0  0
 31 32  1  1  0  0  0
 18 33  2  0  0  0  0
 18 34  1  0  0  0  0
  9 35  2  0  0  0  0
 37 38  1  0  0  0  0
 38 39  1  0  0  0  0
 39 40  2  0  0  0  0
 40 41  1  0  0  0  0
 41 42  2  0  0  0  0
 42 43  1  0  0  0  0
 38 43  2  0  0  0  0
 37 44  2  0  0  0  0
 36 37  1  0  0  0  0
  1 36  1  1  0  0  0
 30 45  1  6  0  0  0
M  END
>  <cdx:groupId>
146

>  <cdx:fragmentId>
9

$$$$
