39787.cdx
  Mrv1902 05222410252D          

 13 12  0  0  0  0            999 V2000
    5.5566   -6.6917    0.0000 C   0  0  0  0  0  0  0  0  0  0  0  0
    6.2711   -7.1042    0.0000 C   0  0  0  0  0  0  0  0  0  0  0  0
    6.9855   -6.6917    0.0000 C   0  0  0  0  0  0  0  0  0  0  0  0
    7.7000   -7.1042    0.0000 C   0  0  0  0  0  0  0  0  0  0  0  0
    8.4145   -6.6917    0.0000 C   0  0  0  0  0  0  0  0  0  0  0  0
    9.1289   -7.1042    0.0000 C   0  0  0  0  0  0  0  0  0  0  0  0
    9.8434   -6.6917    0.0000 C   0  0  0  0  0  0  0  0  0  0  0  0
   10.5579   -7.1042    0.0000 C   0  0  0  0  0  0  0  0  0  0  0  0
   11.2724   -6.6917    0.0000 C   0  0  0  0  0  0  0  0  0  0  0  0
    4.8421   -7.1042    0.0000 O   0  0  0  0  0  0  0  0  0  0  0  0
    4.1276   -6.6917    0.0000 C   0  0  0  0  0  0  0  0  0  0  0  0
    5.5566   -5.8667    0.0000 O   0  0  0  0  0  0  0  0  0  0  0  0
    4.8421   -5.4542    0.0000 C   0  0  0  0  0  0  0  0  0  0  0  0
  1  2  1  0  0  0  0
  2  3  1  0  0  0  0
  3  4  1  0  0  0  0
  4  5  1  0  0  0  0
  5  6  1  0  0  0  0
  6  7  1  0  0  0  0
  7  8  1  0  0  0  0
  8  9  1  0  0  0  0
 10 11  1  0  0  0  0
  1 10  1  0  0  0  0
 12 13  1  0  0  0  0
  1 12  1  0  0  0  0
M  END
>  <cdx:groupId>
70

>  <cdx:fragmentId>
9

$$$$
