39782.cdx
  Mrv1902 05222410242D          

 10  9  0  0  0  0            999 V2000
    6.5870   -7.1071    0.0000 C   0  0  0  0  0  0  0  0  0  0  0  0
    7.3015   -6.6946    0.0000 C   0  0  0  0  0  0  0  0  0  0  0  0
    8.0160   -7.1071    0.0000 C   0  0  0  0  0  0  0  0  0  0  0  0
    8.7305   -6.6946    0.0000 C   0  0  0  0  0  0  0  0  0  0  0  0
    6.5870   -7.9321    0.0000 O   0  0  0  0  0  0  0  0  0  0  0  0
    5.8726   -6.6946    0.0000 O   0  0  0  0  0  0  0  0  0  0  0  0
    8.7305   -5.8696    0.0000 O   0  0  0  0  0  0  0  0  0  0  0  0
    9.4449   -7.1071    0.0000 O   0  0  0  0  0  0  0  0  0  0  0  0
    5.1581   -7.1071    0.0000 C   0  0  0  0  0  0  0  0  0  0  0  0
   10.1594   -6.6946    0.0000 C   0  0  0  0  0  0  0  0  0  0  0  0
  1  2  1  0  0  0  0
  2  3  2  0  0  0  0
  3  4  1  0  0  0  0
  1  5  2  0  0  0  0
  1  6  1  0  0  0  0
  4  7  2  0  0  0  0
  4  8  1  0  0  0  0
  6  9  1  0  0  0  0
  8 10  1  0  0  0  0
M  END
>  <cdx:groupId>
102

>  <cdx:fragmentId>
9

$$$$
