39794.cdx
  Mrv1902 05222410232D          

 24 23  0  0  0  0            999 V2000
    3.0557   -8.2071    0.0000 C   0  0  0  0  0  0  0  0  0  0  0  0
    3.7701   -8.6196    0.0000 C   0  0  0  0  0  0  0  0  0  0  0  0
    4.4846   -8.2071    0.0000 C   0  0  0  0  0  0  0  0  0  0  0  0
    5.1991   -8.6196    0.0000 C   0  0  0  0  0  0  0  0  0  0  0  0
    5.9136   -8.2071    0.0000 C   0  0  0  0  0  0  0  0  0  0  0  0
    6.6280   -8.6196    0.0000 C   0  0  0  0  0  0  0  0  0  0  0  0
    7.3425   -8.2071    0.0000 C   0  0  1  0  0  0  0  0  0  0  0  0
    8.0570   -8.6196    0.0000 C   0  0  0  0  0  0  0  0  0  0  0  0
    8.7714   -8.2071    0.0000 C   0  0  0  0  0  0  0  0  0  0  0  0
    9.4859   -8.6196    0.0000 C   0  0  0  0  0  0  0  0  0  0  0  0
   10.2004   -8.2071    0.0000 C   0  0  1  0  0  0  0  0  0  0  0  0
   10.9149   -8.6196    0.0000 C   0  0  0  0  0  0  0  0  0  0  0  0
   11.6293   -8.2071    0.0000 C   0  0  0  0  0  0  0  0  0  0  0  0
   12.3438   -8.6196    0.0000 C   0  0  0  0  0  0  0  0  0  0  0  0
   13.0583   -8.2071    0.0000 C   0  0  0  0  0  0  0  0  0  0  0  0
   13.0583   -7.3821    0.0000 C   0  0  0  0  0  0  0  0  0  0  0  0
   13.7727   -8.6196    0.0000 C   0  0  0  0  0  0  0  0  0  0  0  0
   10.2004   -7.3821    0.0000 C   0  0  0  0  0  0  0  0  0  0  0  0
    7.3425   -7.3821    0.0000 C   0  0  0  0  0  0  0  0  0  0  0  0
    4.4846   -7.3821    0.0000 C   0  0  0  0  0  0  0  0  0  0  0  0
    1.6267   -8.2071    0.0000 C   0  0  0  0  0  0  0  0  0  0  0  0
    0.9123   -8.6196    0.0000 C   0  0  0  0  0  0  0  0  0  0  0  0
    1.6267   -7.3821    0.0000 O   0  0  0  0  0  0  0  0  0  0  0  0
    2.3412   -8.6196    0.0000 O   0  0  0  0  0  0  0  0  0  0  0  0
  1  2  1  0  0  0  0
  2  3  2  0  0  0  0
  3  4  1  0  0  0  0
  4  5  1  0  0  0  0
  5  6  1  0  0  0  0
  6  7  1  0  0  0  0
  7  8  1  0  0  0  0
  8  9  1  0  0  0  0
  9 10  1  0  0  0  0
 10 11  1  0  0  0  0
 11 12  1  0  0  0  0
 12 13  1  0  0  0  0
 13 14  1  0  0  0  0
 14 15  1  0  0  0  0
 15 16  1  0  0  0  0
 15 17  1  0  0  0  0
 11 18  1  6  0  0  0
  7 19  1  6  0  0  0
  3 20  1  0  0  0  0
 21 22  1  0  0  0  0
 21 23  2  0  0  0  0
 21 24  1  0  0  0  0
  1 24  1  0  0  0  0
M  END
>  <cdx:groupId>
77

>  <cdx:fragmentId>
9

$$$$
