39790.cdx
  Mrv1902 05222410252D          

 18 18  0  0  0  0            999 V2000
    8.5105   -7.1758    0.0000 C   0  0  0  0  0  0  0  0  0  0  0  0
    7.7960   -7.5883    0.0000 C   0  0  0  0  0  0  0  0  0  0  0  0
    7.7960   -8.4133    0.0000 C   0  0  0  0  0  0  0  0  0  0  0  0
    7.0815   -8.8258    0.0000 C   0  0  0  0  0  0  0  0  0  0  0  0
    6.3670   -8.4133    0.0000 C   0  0  0  0  0  0  0  0  0  0  0  0
    6.3670   -7.5883    0.0000 C   0  0  0  0  0  0  0  0  0  0  0  0
    7.0815   -7.1758    0.0000 C   0  0  0  0  0  0  0  0  0  0  0  0
    8.5105   -6.3508    0.0000 O   0  0  0  0  0  0  0  0  0  0  0  0
    9.2249   -7.5883    0.0000 O   0  0  0  0  0  0  0  0  0  0  0  0
    5.6526   -8.8258    0.0000 O   0  0  0  0  0  0  0  0  0  0  0  0
    4.9381   -8.4133    0.0000 Si  0  0  0  0  0  0  0  0  0  0  0  0
    5.3506   -7.6989    0.0000 C   0  0  0  0  0  0  0  0  0  0  0  0
    4.2236   -8.0008    0.0000 C   0  0  0  0  0  0  0  0  0  0  0  0
    4.5256   -9.1278    0.0000 C   0  0  0  0  0  0  0  0  0  0  0  0
    9.9394   -7.1758    0.0000 Si  0  0  0  0  0  0  0  0  0  0  0  0
   10.6539   -6.7633    0.0000 C   0  0  0  0  0  0  0  0  0  0  0  0
    9.5269   -6.4614    0.0000 C   0  0  0  0  0  0  0  0  0  0  0  0
   10.3519   -7.8903    0.0000 C   0  0  0  0  0  0  0  0  0  0  0  0
  1  2  1  0  0  0  0
  2  3  1  0  0  0  0
  3  4  2  0  0  0  0
  4  5  1  0  0  0  0
  5  6  2  0  0  0  0
  6  7  1  0  0  0  0
  2  7  2  0  0  0  0
  1  8  2  0  0  0  0
  1  9  1  0  0  0  0
 11 12  1  0  0  0  0
 11 13  1  0  0  0  0
 11 14  1  0  0  0  0
 10 11  1  0  0  0  0
  5 10  1  0  0  0  0
 15 16  1  0  0  0  0
 15 17  1  0  0  0  0
 15 18  1  0  0  0  0
  9 15  1  0  0  0  0
M  END
>  <cdx:groupId>
60

>  <cdx:fragmentId>
1155

$$$$
