39793.cdx
  Mrv1902 05222410252D          

 16 15  0  0  0  0            999 V2000
    3.4267   -5.8392    0.0000 C   0  0  0  0  0  0  0  0  0  0  0  0
    2.7122   -7.0767    0.0000 C   0  0  0  0  0  0  0  0  0  0  0  0
    4.1411   -6.2517    0.0000 O   0  0  0  0  0  0  0  0  0  0  0  0
    3.4267   -7.4892    0.0000 O   0  0  0  0  0  0  0  0  0  0  0  0
   12.0003   -7.4892    0.0000 C   0  0  0  0  0  0  0  0  0  0  0  0
   11.2858   -7.0767    0.0000 C   0  0  0  0  0  0  0  0  0  0  0  0
   10.5714   -7.4892    0.0000 C   0  0  0  0  0  0  0  0  0  0  0  0
    9.8569   -7.0767    0.0000 C   0  0  0  0  0  0  0  0  0  0  0  0
    9.1424   -7.4892    0.0000 C   0  0  0  0  0  0  0  0  0  0  0  0
    8.4280   -7.0767    0.0000 C   0  0  0  0  0  0  0  0  0  0  0  0
    7.7135   -7.4892    0.0000 C   0  0  0  0  0  0  0  0  0  0  0  0
    6.9990   -7.0767    0.0000 C   0  0  0  0  0  0  0  0  0  0  0  0
    6.2845   -7.4892    0.0000 C   0  0  0  0  0  0  0  0  0  0  0  0
    5.5701   -7.0767    0.0000 C   0  0  0  0  0  0  0  0  0  0  0  0
    4.8556   -7.4892    0.0000 C   0  0  0  0  0  0  0  0  0  0  0  0
    4.1411   -7.0767    0.0000 C   0  0  0  0  0  0  0  0  0  0  0  0
 16  3  1  0  0  0  0
 16  4  1  0  0  0  0
  3  1  1  0  0  0  0
  4  2  1  0  0  0  0
  6  5  1  0  0  0  0
  7  6  1  0  0  0  0
  8  7  1  0  0  0  0
  9  8  1  0  0  0  0
 10  9  1  0  0  0  0
 11 10  1  0  0  0  0
 12 11  1  0  0  0  0
 13 12  1  0  0  0  0
 14 13  1  0  0  0  0
 15 14  1  0  0  0  0
 16 15  1  0  0  0  0
M  END
>  <cdx:groupId>
164

>  <cdx:fragmentId>
9

$$$$
