39796.cdx
  Mrv1902 05222410242D          

 27 26  0  0  0  0            999 V2000
    2.2176   -8.5559    0.0000 C   0  0  0  0  0  0  0  0  0  0  0  0
    1.5032   -8.9684    0.0000 C   0  0  0  0  0  0  0  0  0  0  0  0
    2.2176   -7.7309    0.0000 O   0  0  0  0  0  0  0  0  0  0  0  0
    2.9321   -8.9684    0.0000 O   0  0  0  0  0  0  0  0  0  0  0  0
    0.7887   -9.3809    0.0000 F   0  0  0  0  0  0  0  0  0  0  0  0
    1.5032   -9.7934    0.0000 F   0  0  0  0  0  0  0  0  0  0  0  0
    0.7887   -8.5559    0.0000 F   0  0  0  0  0  0  0  0  0  0  0  0
    3.6466   -8.5559    0.0000 C   0  0  0  0  0  0  0  0  0  0  0  0
    4.3610   -8.9684    0.0000 C   0  0  0  0  0  0  0  0  0  0  0  0
    5.0755   -8.5559    0.0000 C   0  0  0  0  0  0  0  0  0  0  0  0
    5.7900   -8.9684    0.0000 C   0  0  0  0  0  0  0  0  0  0  0  0
    6.5045   -8.5559    0.0000 C   0  0  0  0  0  0  0  0  0  0  0  0
    7.2189   -8.9684    0.0000 C   0  0  0  0  0  0  0  0  0  0  0  0
    7.9334   -8.5559    0.0000 C   0  0  0  0  0  0  0  0  0  0  0  0
    8.6479   -8.9684    0.0000 C   0  0  0  0  0  0  0  0  0  0  0  0
    9.3623   -8.5559    0.0000 C   0  0  0  0  0  0  0  0  0  0  0  0
   10.0768   -8.9684    0.0000 C   0  0  0  0  0  0  0  0  0  0  0  0
   10.7913   -8.5559    0.0000 C   0  0  0  0  0  0  0  0  0  0  0  0
   11.5058   -8.9684    0.0000 C   0  0  0  0  0  0  0  0  0  0  0  0
   12.2202   -8.5559    0.0000 C   0  0  0  0  0  0  0  0  0  0  0  0
   12.9347   -8.9684    0.0000 C   0  0  0  0  0  0  0  0  0  0  0  0
   13.6492   -8.5559    0.0000 C   0  0  0  0  0  0  0  0  0  0  0  0
   14.3636   -8.9684    0.0000 C   0  0  0  0  0  0  0  0  0  0  0  0
   15.0781   -8.5559    0.0000 C   0  0  0  0  0  0  0  0  0  0  0  0
   15.7926   -8.9684    0.0000 C   0  0  0  0  0  0  0  0  0  0  0  0
   16.5071   -8.5559    0.0000 C   0  0  0  0  0  0  0  0  0  0  0  0
   17.2215   -8.9684    0.0000 C   0  0  0  0  0  0  0  0  0  0  0  0
  1  2  1  0  0  0  0
  1  3  2  0  0  0  0
  1  4  1  0  0  0  0
  2  5  1  0  0  0  0
  2  6  1  0  0  0  0
  2  7  1  0  0  0  0
  8  9  1  0  0  0  0
  9 10  1  0  0  0  0
 10 11  1  0  0  0  0
 11 12  1  0  0  0  0
 12 13  1  0  0  0  0
 13 14  1  0  0  0  0
 14 15  1  0  0  0  0
 15 16  1  0  0  0  0
 16 17  1  0  0  0  0
 17 18  1  0  0  0  0
 18 19  1  0  0  0  0
 19 20  1  0  0  0  0
 20 21  1  0  0  0  0
 21 22  1  0  0  0  0
 22 23  1  0  0  0  0
 23 24  1  0  0  0  0
 24 25  1  0  0  0  0
 25 26  1  0  0  0  0
 26 27  1  0  0  0  0
  4  8  1  0  0  0  0
M  END
>  <cdx:fragmentId>
23

$$$$
