39797.cdx
  Mrv1902 05222410242D          

 13 13  0  0  0  0            999 V2000
   10.7984   -9.2217    0.0000 C   0  0  0  0  0  0  0  0  0  0  0  0
   10.0839   -8.8092    0.0000 C   0  0  0  0  0  0  0  0  0  0  0  0
    9.3694   -9.2217    0.0000 C   0  0  0  0  0  0  0  0  0  0  0  0
    8.6550   -8.8092    0.0000 C   0  0  0  0  0  0  0  0  0  0  0  0
    7.9405   -9.2217    0.0000 C   0  0  0  0  0  0  0  0  0  0  0  0
    7.2260   -8.8092    0.0000 C   0  0  0  0  0  0  0  0  0  0  0  0
    6.5116   -9.2217    0.0000 C   0  0  0  0  0  0  0  0  0  0  0  0
    3.6709   -8.6179    0.0000 O   0  0  0  0  0  0  0  0  0  0  0  0
    5.7971   -8.8092    0.0000 C   0  0  0  0  0  0  0  0  0  0  0  0
    5.7109   -7.9887    0.0000 C   0  0  0  0  0  0  0  0  0  0  0  0
    4.9039   -7.8172    0.0000 C   0  0  0  0  0  0  0  0  0  0  0  0
    4.4914   -8.5317    0.0000 C   0  0  0  0  0  0  0  0  0  0  0  0
    5.0434   -9.1448    0.0000 O   0  0  0  0  0  0  0  0  0  0  0  0
  9  7  1  0  0  0  0
  2  1  1  0  0  0  0
  3  2  1  0  0  0  0
  4  3  1  0  0  0  0
  5  4  1  0  0  0  0
  6  5  1  0  0  0  0
  7  6  1  0  0  0  0
 12  8  2  0  0  0  0
 13  9  1  0  0  0  0
 10  9  1  0  0  0  0
 11 10  1  0  0  0  0
 12 11  1  0  0  0  0
 13 12  1  0  0  0  0
M  END
>  <cdx:groupId>
45

>  <cdx:fragmentId>
21

$$$$
