2303.cdx
  Mrv1902 05222410252D          

 40 39  0  0  0  0            999 V2000
    6.9785  -14.1453    0.0000 C   0  0  0  0  0  0  0  0  0  0  0  0
    6.9785  -13.3203    0.0000 C   0  0  0  0  0  0  0  0  0  0  0  0
    7.6930  -12.9078    0.0000 C   0  0  0  0  0  0  0  0  0  0  0  0
    8.4075  -13.3203    0.0000 C   0  0  0  0  0  0  0  0  0  0  0  0
    9.1219  -12.9078    0.0000 C   0  0  0  0  0  0  0  0  0  0  0  0
    9.8364  -13.3203    0.0000 C   0  0  0  0  0  0  0  0  0  0  0  0
   10.5509  -12.9078    0.0000 C   0  0  0  0  0  0  0  0  0  0  0  0
   11.2654  -13.3203    0.0000 C   0  0  0  0  0  0  0  0  0  0  0  0
   11.9798  -12.9078    0.0000 C   0  0  0  0  0  0  0  0  0  0  0  0
   12.6943  -13.3203    0.0000 C   0  0  0  0  0  0  0  0  0  0  0  0
   13.4088  -12.9078    0.0000 C   0  0  0  0  0  0  0  0  0  0  0  0
   14.1232  -13.3203    0.0000 C   0  0  0  0  0  0  0  0  0  0  0  0
   14.8377  -12.9078    0.0000 C   0  0  0  0  0  0  0  0  0  0  0  0
   15.5522  -13.3203    0.0000 C   0  0  0  0  0  0  0  0  0  0  0  0
   16.2667  -12.9078    0.0000 C   0  0  0  0  0  0  0  0  0  0  0  0
   16.2667  -12.0828    0.0000 C   0  0  0  0  0  0  0  0  0  0  0  0
   16.9811  -11.6703    0.0000 C   0  0  0  0  0  0  0  0  0  0  0  0
   16.9811  -10.8453    0.0000 C   0  0  0  0  0  0  0  0  0  0  0  0
   17.6956  -10.4328    0.0000 C   0  0  0  0  0  0  0  0  0  0  0  0
   17.6956   -9.6078    0.0000 C   0  0  0  0  0  0  0  0  0  0  0  0
   18.4101   -9.1953    0.0000 C   0  0  0  0  0  0  0  0  0  0  0  0
   18.4101   -8.3703    0.0000 C   0  0  0  0  0  0  0  0  0  0  0  0
   19.1245   -7.9578    0.0000 C   0  0  0  0  0  0  0  0  0  0  0  0
   19.1245   -7.1328    0.0000 C   0  0  0  0  0  0  0  0  0  0  0  0
   19.8390   -6.7203    0.0000 C   0  0  0  0  0  0  0  0  0  0  0  0
   19.8390   -5.8953    0.0000 C   0  0  0  0  0  0  0  0  0  0  0  0
   20.5535   -5.4828    0.0000 C   0  0  0  0  0  0  0  0  0  0  0  0
   20.5535   -4.6578    0.0000 C   0  0  0  0  0  0  0  0  0  0  0  0
   21.2679   -4.2453    0.0000 C   0  0  0  0  0  0  0  0  0  0  0  0
   21.2679   -3.4203    0.0000 C   0  0  0  0  0  0  0  0  0  0  0  0
   21.9824   -3.0078    0.0000 C   0  0  0  0  0  0  0  0  0  0  0  0
   21.9824   -2.1828    0.0000 C   0  0  0  0  0  0  0  0  0  0  0  0
   22.6969   -3.4203    0.0000 C   0  0  0  0  0  0  0  0  0  0  0  0
   21.2679   -5.8953    0.0000 C   0  0  0  0  0  0  0  0  0  0  0  0
   19.8390   -8.3703    0.0000 C   0  0  0  0  0  0  0  0  0  0  0  0
   18.4101  -10.8453    0.0000 C   0  0  0  0  0  0  0  0  0  0  0  0
   15.5522  -14.1453    0.0000 C   0  0  0  0  0  0  0  0  0  0  0  0
   12.6943  -14.1453    0.0000 C   0  0  0  0  0  0  0  0  0  0  0  0
    9.8364  -14.1453    0.0000 C   0  0  0  0  0  0  0  0  0  0  0  0
    6.2641  -12.9078    0.0000 C   0  0  0  0  0  0  0  0  0  0  0  0
  1  2  1  0  0  0  0
  2  3  2  0  0  0  0
  3  4  1  0  0  0  0
  4  5  1  0  0  0  0
  5  6  1  0  0  0  0
  6  7  2  0  0  0  0
  7  8  1  0  0  0  0
  8  9  2  0  0  0  0
  9 10  1  0  0  0  0
 10 11  2  0  0  0  0
 11 12  1  0  0  0  0
 12 13  2  0  0  0  0
 13 14  1  0  0  0  0
 14 15  2  0  0  0  0
 15 16  1  0  0  0  0
 16 17  2  0  0  0  0
 17 18  1  0  0  0  0
 18 19  2  0  0  0  0
 19 20  1  0  0  0  0
 20 21  2  0  0  0  0
 21 22  1  0  0  0  0
 22 23  2  0  0  0  0
 23 24  1  0  0  0  0
 24 25  2  0  0  0  0
 25 26  1  0  0  0  0
 26 27  2  0  0  0  0
 27 28  1  0  0  0  0
 28 29  1  0  0  0  0
 29 30  1  0  0  0  0
 30 31  2  0  0  0  0
 31 32  1  0  0  0  0
 31 33  1  0  0  0  0
 27 34  1  0  0  0  0
 23 35  1  0  0  0  0
 19 36  1  0  0  0  0
 14 37  1  0  0  0  0
 10 38  1  0  0  0  0
  6 39  1  0  0  0  0
  2 40  1  0  0  0  0
M  END
>  <cdx:groupId>
126

>  <cdx:fragmentId>
10

$$$$
