2301.cdx
  Mrv1902 05222410252D          

 41 41  0  0  0  0            999 V2000
   23.0246   -7.2365    0.0000 C   0  0  2  0  0  0  0  0  0  0  0  0
   23.0246   -8.0615    0.0000 C   0  0  0  0  0  0  0  0  0  0  0  0
   22.3101   -8.4740    0.0000 C   0  0  0  0  0  0  0  0  0  0  0  0
   21.5957   -8.0615    0.0000 C   0  0  0  0  0  0  0  0  0  0  0  0
   21.5957   -7.2365    0.0000 C   0  0  0  0  0  0  0  0  0  0  0  0
   22.3101   -6.8240    0.0000 C   0  0  0  0  0  0  0  0  0  0  0  0
   23.7391   -6.8240    0.0000 O   0  0  0  0  0  0  0  0  0  0  0  0
   20.7707   -7.2365    0.0000 C   0  0  0  0  0  0  0  0  0  0  0  0
   21.1832   -6.5221    0.0000 C   0  0  0  0  0  0  0  0  0  0  0  0
   22.3101   -9.2990    0.0000 C   0  0  0  0  0  0  0  0  0  0  0  0
   20.8812   -8.4740    0.0000 C   0  0  0  0  0  0  0  0  0  0  0  0
   20.1667   -8.0615    0.0000 C   0  0  0  0  0  0  0  0  0  0  0  0
   19.4523   -8.4740    0.0000 C   0  0  0  0  0  0  0  0  0  0  0  0
   18.7378   -8.0615    0.0000 C   0  0  0  0  0  0  0  0  0  0  0  0
   18.0233   -8.4740    0.0000 C   0  0  0  0  0  0  0  0  0  0  0  0
   17.3088   -8.0615    0.0000 C   0  0  0  0  0  0  0  0  0  0  0  0
   16.5944   -8.4740    0.0000 C   0  0  0  0  0  0  0  0  0  0  0  0
   15.8799   -8.0615    0.0000 C   0  0  0  0  0  0  0  0  0  0  0  0
   15.1654   -8.4740    0.0000 C   0  0  0  0  0  0  0  0  0  0  0  0
   14.4510   -8.0615    0.0000 C   0  0  0  0  0  0  0  0  0  0  0  0
   13.7365   -8.4740    0.0000 C   0  0  0  0  0  0  0  0  0  0  0  0
   13.0220   -8.0615    0.0000 C   0  0  0  0  0  0  0  0  0  0  0  0
   12.3076   -8.4740    0.0000 C   0  0  0  0  0  0  0  0  0  0  0  0
   11.5931   -8.0615    0.0000 C   0  0  0  0  0  0  0  0  0  0  0  0
   10.8786   -8.4740    0.0000 C   0  0  0  0  0  0  0  0  0  0  0  0
   10.1641   -8.0615    0.0000 C   0  0  0  0  0  0  0  0  0  0  0  0
    9.4497   -8.4740    0.0000 C   0  0  0  0  0  0  0  0  0  0  0  0
    8.7352   -8.0615    0.0000 C   0  0  0  0  0  0  0  0  0  0  0  0
    8.0207   -8.4740    0.0000 C   0  0  0  0  0  0  0  0  0  0  0  0
    7.3063   -8.0615    0.0000 C   0  0  0  0  0  0  0  0  0  0  0  0
    6.5918   -8.4740    0.0000 C   0  0  0  0  0  0  0  0  0  0  0  0
    5.8773   -8.0615    0.0000 C   0  0  0  0  0  0  0  0  0  0  0  0
    5.1628   -8.4740    0.0000 C   0  0  0  0  0  0  0  0  0  0  0  0
    4.4484   -8.0615    0.0000 C   0  0  0  0  0  0  0  0  0  0  0  0
    3.7339   -8.4740    0.0000 C   0  0  0  0  0  0  0  0  0  0  0  0
    4.4484   -7.2365    0.0000 C   0  0  0  0  0  0  0  0  0  0  0  0
    7.3063   -7.2365    0.0000 C   0  0  0  0  0  0  0  0  0  0  0  0
   10.1641   -7.2365    0.0000 C   0  0  0  0  0  0  0  0  0  0  0  0
   13.0220   -7.2365    0.0000 C   0  0  0  0  0  0  0  0  0  0  0  0
   16.5944   -9.2990    0.0000 C   0  0  0  0  0  0  0  0  0  0  0  0
   19.4523   -9.2990    0.0000 C   0  0  0  0  0  0  0  0  0  0  0  0
  1  2  1  0  0  0  0
  2  3  1  0  0  0  0
  3  4  2  0  0  0  0
  4  5  1  0  0  0  0
  5  6  1  0  0  0  0
  1  6  1  0  0  0  0
  1  7  1  6  0  0  0
  5  8  1  0  0  0  0
  5  9  1  0  0  0  0
  3 10  1  0  0  0  0
 11 12  2  0  0  0  0
 12 13  1  0  0  0  0
 13 14  2  0  0  0  0
 14 15  1  0  0  0  0
 15 16  2  0  0  0  0
 16 17  1  0  0  0  0
 17 18  2  0  0  0  0
 18 19  1  0  0  0  0
 19 20  2  0  0  0  0
 20 21  1  0  0  0  0
 21 22  2  0  0  0  0
 22 23  1  0  0  0  0
 23 24  2  0  0  0  0
 24 25  1  0  0  0  0
 25 26  2  0  0  0  0
 26 27  1  0  0  0  0
 27 28  2  0  0  0  0
 28 29  1  0  0  0  0
 29 30  2  0  0  0  0
 30 31  1  0  0  0  0
 31 32  1  0  0  0  0
 32 33  1  0  0  0  0
 33 34  2  0  0  0  0
 34 35  1  0  0  0  0
 34 36  1  0  0  0  0
 30 37  1  0  0  0  0
 26 38  1  0  0  0  0
 22 39  1  0  0  0  0
 17 40  1  0  0  0  0
 13 41  1  0  0  0  0
  4 11  1  0  0  0  0
M  END
>  <cdx:groupId>
129

>  <cdx:fragmentId>
29

$$$$
