2305.cdx
  Mrv1902 05222410232D          

 40 39  0  0  0  0            999 V2000
    4.9800   -7.7344    0.0000 C   0  0  0  0  0  0  0  0  0  0  0  0
    5.6945   -7.3219    0.0000 C   0  0  0  0  0  0  0  0  0  0  0  0
    6.4090   -7.7344    0.0000 C   0  0  0  0  0  0  0  0  0  0  0  0
    6.4090   -8.5594    0.0000 C   0  0  0  0  0  0  0  0  0  0  0  0
    7.1234   -8.9719    0.0000 C   0  0  0  0  0  0  0  0  0  0  0  0
    7.1234   -9.7969    0.0000 C   0  0  0  0  0  0  0  0  0  0  0  0
    7.8379  -10.2094    0.0000 C   0  0  0  0  0  0  0  0  0  0  0  0
    8.5524   -9.7969    0.0000 C   0  0  0  0  0  0  0  0  0  0  0  0
    9.2668  -10.2094    0.0000 C   0  0  0  0  0  0  0  0  0  0  0  0
    9.9813   -9.7969    0.0000 C   0  0  0  0  0  0  0  0  0  0  0  0
   10.6958  -10.2094    0.0000 C   0  0  0  0  0  0  0  0  0  0  0  0
   11.4103   -9.7969    0.0000 C   0  0  0  0  0  0  0  0  0  0  0  0
   12.1247  -10.2094    0.0000 C   0  0  0  0  0  0  0  0  0  0  0  0
   12.8392   -9.7969    0.0000 C   0  0  0  0  0  0  0  0  0  0  0  0
   13.5537  -10.2094    0.0000 C   0  0  0  0  0  0  0  0  0  0  0  0
   14.2681   -9.7969    0.0000 C   0  0  0  0  0  0  0  0  0  0  0  0
   14.9826  -10.2094    0.0000 C   0  0  0  0  0  0  0  0  0  0  0  0
   15.6971   -9.7969    0.0000 C   0  0  0  0  0  0  0  0  0  0  0  0
   16.4116  -10.2094    0.0000 C   0  0  0  0  0  0  0  0  0  0  0  0
   17.1260   -9.7969    0.0000 C   0  0  0  0  0  0  0  0  0  0  0  0
   17.8405  -10.2094    0.0000 C   0  0  0  0  0  0  0  0  0  0  0  0
   18.5550   -9.7969    0.0000 C   0  0  0  0  0  0  0  0  0  0  0  0
   19.2694  -10.2094    0.0000 C   0  0  0  0  0  0  0  0  0  0  0  0
   19.9839   -9.7969    0.0000 C   0  0  0  0  0  0  0  0  0  0  0  0
   20.6984  -10.2094    0.0000 C   0  0  0  0  0  0  0  0  0  0  0  0
   21.4129   -9.7969    0.0000 C   0  0  0  0  0  0  0  0  0  0  0  0
   22.1273  -10.2094    0.0000 C   0  0  0  0  0  0  0  0  0  0  0  0
   22.8418   -9.7969    0.0000 C   0  0  0  0  0  0  0  0  0  0  0  0
   23.5563  -10.2094    0.0000 C   0  0  0  0  0  0  0  0  0  0  0  0
   24.2707   -9.7969    0.0000 C   0  0  0  0  0  0  0  0  0  0  0  0
   24.9852  -10.2094    0.0000 C   0  0  0  0  0  0  0  0  0  0  0  0
   25.6997   -9.7969    0.0000 C   0  0  0  0  0  0  0  0  0  0  0  0
   24.9852  -11.0344    0.0000 C   0  0  0  0  0  0  0  0  0  0  0  0
   22.1273  -11.0344    0.0000 C   0  0  0  0  0  0  0  0  0  0  0  0
   19.2694  -11.0344    0.0000 C   0  0  0  0  0  0  0  0  0  0  0  0
   16.4116  -11.0344    0.0000 C   0  0  0  0  0  0  0  0  0  0  0  0
   12.8392   -8.9719    0.0000 C   0  0  0  0  0  0  0  0  0  0  0  0
    9.9813   -8.9719    0.0000 C   0  0  0  0  0  0  0  0  0  0  0  0
    6.4090  -10.2094    0.0000 C   0  0  0  0  0  0  0  0  0  0  0  0
    5.6945   -6.4969    0.0000 C   0  0  0  0  0  0  0  0  0  0  0  0
  1  2  1  0  0  0  0
  2  3  2  0  0  0  0
  3  4  1  0  0  0  0
  4  5  1  0  0  0  0
  5  6  1  0  0  0  0
  6  7  2  0  0  0  0
  7  8  1  0  0  0  0
  8  9  2  0  0  0  0
  9 10  1  0  0  0  0
 10 11  2  0  0  0  0
 11 12  1  0  0  0  0
 12 13  2  0  0  0  0
 13 14  1  0  0  0  0
 14 15  2  0  0  0  0
 15 16  1  0  0  0  0
 16 17  2  0  0  0  0
 17 18  1  0  0  0  0
 18 19  2  0  0  0  0
 19 20  1  0  0  0  0
 20 21  2  0  0  0  0
 21 22  1  0  0  0  0
 22 23  2  0  0  0  0
 23 24  1  0  0  0  0
 24 25  2  0  0  0  0
 25 26  1  0  0  0  0
 26 27  2  0  0  0  0
 27 28  1  0  0  0  0
 28 29  1  0  0  0  0
 29 30  1  0  0  0  0
 30 31  2  0  0  0  0
 31 32  1  0  0  0  0
 31 33  1  0  0  0  0
 27 34  1  0  0  0  0
 23 35  1  0  0  0  0
 19 36  1  0  0  0  0
 14 37  1  0  0  0  0
 10 38  1  0  0  0  0
  6 39  1  0  0  0  0
  2 40  1  0  0  0  0
M  END
>  <cdx:groupId>
125

>  <cdx:fragmentId>
9

$$$$
