2306.cdx
  Mrv1902 05222410242D          

 41 41  0  0  0  0            999 V2000
   22.7398   -9.1867    0.0000 C   0  0  2  0  0  0  0  0  0  0  0  0
   22.7398  -10.0117    0.0000 C   0  0  0  0  0  0  0  0  0  0  0  0
   22.0254  -10.4242    0.0000 C   0  0  0  0  0  0  0  0  0  0  0  0
   21.3109  -10.0117    0.0000 C   0  0  0  0  0  0  0  0  0  0  0  0
   21.3109   -9.1867    0.0000 C   0  0  0  0  0  0  0  0  0  0  0  0
   22.0254   -8.7742    0.0000 C   0  0  0  0  0  0  0  0  0  0  0  0
   20.4859   -9.1867    0.0000 C   0  0  0  0  0  0  0  0  0  0  0  0
   20.8984   -8.4723    0.0000 C   0  0  0  0  0  0  0  0  0  0  0  0
   22.0254  -11.2492    0.0000 C   0  0  0  0  0  0  0  0  0  0  0  0
   20.5964  -10.4242    0.0000 C   0  0  0  0  0  0  0  0  0  0  0  0
   19.8819  -10.0117    0.0000 C   0  0  0  0  0  0  0  0  0  0  0  0
   19.1675  -10.4242    0.0000 C   0  0  0  0  0  0  0  0  0  0  0  0
   18.4530  -10.0117    0.0000 C   0  0  0  0  0  0  0  0  0  0  0  0
   17.7385  -10.4242    0.0000 C   0  0  0  0  0  0  0  0  0  0  0  0
   17.0241  -10.0117    0.0000 C   0  0  0  0  0  0  0  0  0  0  0  0
   16.3096  -10.4242    0.0000 C   0  0  0  0  0  0  0  0  0  0  0  0
   15.5951  -10.0117    0.0000 C   0  0  0  0  0  0  0  0  0  0  0  0
   14.8807  -10.4242    0.0000 C   0  0  0  0  0  0  0  0  0  0  0  0
   14.1662  -10.0117    0.0000 C   0  0  0  0  0  0  0  0  0  0  0  0
   13.4517  -10.4242    0.0000 C   0  0  0  0  0  0  0  0  0  0  0  0
   12.7372  -10.0117    0.0000 C   0  0  0  0  0  0  0  0  0  0  0  0
   12.0228  -10.4242    0.0000 C   0  0  0  0  0  0  0  0  0  0  0  0
   11.3083  -10.0117    0.0000 C   0  0  0  0  0  0  0  0  0  0  0  0
   10.5938  -10.4242    0.0000 C   0  0  0  0  0  0  0  0  0  0  0  0
    9.8794  -10.0117    0.0000 C   0  0  0  0  0  0  0  0  0  0  0  0
    9.1649  -10.4242    0.0000 C   0  0  0  0  0  0  0  0  0  0  0  0
    8.4504  -10.0117    0.0000 C   0  0  0  0  0  0  0  0  0  0  0  0
    7.7359  -10.4242    0.0000 C   0  0  0  0  0  0  0  0  0  0  0  0
    7.0215  -10.0117    0.0000 C   0  0  0  0  0  0  0  0  0  0  0  0
    7.0215   -9.1867    0.0000 C   0  0  0  0  0  0  0  0  0  0  0  0
    6.3070   -8.7742    0.0000 C   0  0  0  0  0  0  0  0  0  0  0  0
    6.3070   -7.9492    0.0000 C   0  0  0  0  0  0  0  0  0  0  0  0
    5.5925   -7.5367    0.0000 C   0  0  0  0  0  0  0  0  0  0  0  0
    4.8781   -7.9492    0.0000 C   0  0  0  0  0  0  0  0  0  0  0  0
    5.5925   -6.7117    0.0000 C   0  0  0  0  0  0  0  0  0  0  0  0
    6.3070  -10.4242    0.0000 C   0  0  0  0  0  0  0  0  0  0  0  0
    9.8794   -9.1867    0.0000 C   0  0  0  0  0  0  0  0  0  0  0  0
   12.7372   -9.1867    0.0000 C   0  0  0  0  0  0  0  0  0  0  0  0
   16.3096  -11.2492    0.0000 C   0  0  0  0  0  0  0  0  0  0  0  0
   19.1675  -11.2492    0.0000 C   0  0  0  0  0  0  0  0  0  0  0  0
   23.4543   -8.7742    0.0000 O   0  0  0  0  0  0  0  0  0  0  0  0
  1  2  1  0  0  0  0
  2  3  1  0  0  0  0
  3  4  2  0  0  0  0
  4  5  1  0  0  0  0
  5  6  1  0  0  0  0
  1  6  1  0  0  0  0
  5  7  1  0  0  0  0
  5  8  1  0  0  0  0
  3  9  1  0  0  0  0
 10 11  2  0  0  0  0
 11 12  1  0  0  0  0
 12 13  2  0  0  0  0
 13 14  1  0  0  0  0
 14 15  2  0  0  0  0
 15 16  1  0  0  0  0
 16 17  2  0  0  0  0
 17 18  1  0  0  0  0
 18 19  2  0  0  0  0
 19 20  1  0  0  0  0
 20 21  2  0  0  0  0
 21 22  1  0  0  0  0
 22 23  2  0  0  0  0
 23 24  1  0  0  0  0
 24 25  2  0  0  0  0
 25 26  1  0  0  0  0
 26 27  2  0  0  0  0
 27 28  1  0  0  0  0
 28 29  2  0  0  0  0
 29 30  1  0  0  0  0
 30 31  1  0  0  0  0
 31 32  1  0  0  0  0
 32 33  2  0  0  0  0
 33 34  1  0  0  0  0
 33 35  1  0  0  0  0
 29 36  1  0  0  0  0
 25 37  1  0  0  0  0
 21 38  1  0  0  0  0
 16 39  1  0  0  0  0
 12 40  1  0  0  0  0
  4 10  1  0  0  0  0
  1 41  1  6  0  0  0
M  END
>  <cdx:groupId>
129

>  <cdx:fragmentId>
27

$$$$
