39804.cdx
  Mrv1902 05222410232D          

 40 39  0  0  0  0            999 V2000
    3.3214  -11.6187    0.0000 C   0  0  0  0  0  0  0  0  0  0  0  0
    3.3214  -10.7937    0.0000 C   0  0  0  0  0  0  0  0  0  0  0  0
    4.0359  -10.3812    0.0000 C   0  0  0  0  0  0  0  0  0  0  0  0
    4.7504  -10.7937    0.0000 C   0  0  0  0  0  0  0  0  0  0  0  0
    5.4648  -10.3812    0.0000 C   0  0  0  0  0  0  0  0  0  0  0  0
    6.1793  -10.7937    0.0000 C   0  0  0  0  0  0  0  0  0  0  0  0
    6.8938  -10.3812    0.0000 C   0  0  0  0  0  0  0  0  0  0  0  0
    7.6082  -10.7937    0.0000 C   0  0  0  0  0  0  0  0  0  0  0  0
    8.3227  -10.3812    0.0000 C   0  0  0  0  0  0  0  0  0  0  0  0
    9.0372  -10.7937    0.0000 C   0  0  0  0  0  0  0  0  0  0  0  0
    9.7517  -10.3812    0.0000 C   0  0  0  0  0  0  0  0  0  0  0  0
   10.4661  -10.7937    0.0000 C   0  0  0  0  0  0  0  0  0  0  0  0
   11.1806  -10.3812    0.0000 C   0  0  0  0  0  0  0  0  0  0  0  0
   11.8951  -10.7937    0.0000 C   0  0  0  0  0  0  0  0  0  0  0  0
   12.6095  -10.3812    0.0000 C   0  0  0  0  0  0  0  0  0  0  0  0
   13.3240  -10.7937    0.0000 C   0  0  0  0  0  0  0  0  0  0  0  0
   14.0385  -10.3812    0.0000 C   0  0  0  0  0  0  0  0  0  0  0  0
   14.7530  -10.7937    0.0000 C   0  0  0  0  0  0  0  0  0  0  0  0
   15.4674  -10.3812    0.0000 C   0  0  0  0  0  0  0  0  0  0  0  0
   16.1819  -10.7937    0.0000 C   0  0  0  0  0  0  0  0  0  0  0  0
   16.8964  -10.3812    0.0000 C   0  0  0  0  0  0  0  0  0  0  0  0
   17.6108  -10.7937    0.0000 C   0  0  0  0  0  0  0  0  0  0  0  0
   18.3253  -10.3812    0.0000 C   0  0  0  0  0  0  0  0  0  0  0  0
   19.0398  -10.7937    0.0000 C   0  0  0  0  0  0  0  0  0  0  0  0
   19.7543  -10.3812    0.0000 C   0  0  0  0  0  0  0  0  0  0  0  0
   20.4687  -10.7937    0.0000 C   0  0  0  0  0  0  0  0  0  0  0  0
   21.1832  -10.3812    0.0000 C   0  0  0  0  0  0  0  0  0  0  0  0
   21.8977  -10.7937    0.0000 C   0  0  0  0  0  0  0  0  0  0  0  0
   22.6121  -10.3812    0.0000 C   0  0  0  0  0  0  0  0  0  0  0  0
   23.3266  -10.7937    0.0000 C   0  0  0  0  0  0  0  0  0  0  0  0
   24.0411  -10.3812    0.0000 C   0  0  0  0  0  0  0  0  0  0  0  0
   24.0411   -9.5563    0.0000 C   0  0  0  0  0  0  0  0  0  0  0  0
   24.7555  -10.7937    0.0000 C   0  0  0  0  0  0  0  0  0  0  0  0
   21.1832   -9.5563    0.0000 C   0  0  0  0  0  0  0  0  0  0  0  0
   18.3253   -9.5563    0.0000 C   0  0  0  0  0  0  0  0  0  0  0  0
   15.4674   -9.5563    0.0000 C   0  0  0  0  0  0  0  0  0  0  0  0
   11.8951  -11.6187    0.0000 C   0  0  0  0  0  0  0  0  0  0  0  0
    9.0372  -11.6187    0.0000 C   0  0  0  0  0  0  0  0  0  0  0  0
    6.1793  -11.6187    0.0000 C   0  0  0  0  0  0  0  0  0  0  0  0
    2.6069  -10.3812    0.0000 C   0  0  0  0  0  0  0  0  0  0  0  0
  1  2  1  0  0  0  0
  2  3  2  0  0  0  0
  3  4  1  0  0  0  0
  4  5  1  0  0  0  0
  5  6  1  0  0  0  0
  6  7  2  0  0  0  0
  7  8  1  0  0  0  0
  8  9  2  0  0  0  0
  9 10  1  0  0  0  0
 10 11  2  0  0  0  0
 11 12  1  0  0  0  0
 12 13  2  0  0  0  0
 13 14  1  0  0  0  0
 14 15  2  0  0  0  0
 15 16  1  0  0  0  0
 16 17  2  0  0  0  0
 17 18  1  0  0  0  0
 18 19  2  0  0  0  0
 19 20  1  0  0  0  0
 20 21  2  0  0  0  0
 21 22  1  0  0  0  0
 22 23  2  0  0  0  0
 23 24  1  0  0  0  0
 24 25  2  0  0  0  0
 25 26  1  0  0  0  0
 26 27  2  0  0  0  0
 27 28  1  0  0  0  0
 28 29  1  0  0  0  0
 29 30  1  0  0  0  0
 30 31  2  0  0  0  0
 31 32  1  0  0  0  0
 31 33  1  0  0  0  0
 27 34  1  0  0  0  0
 23 35  1  0  0  0  0
 19 36  1  0  0  0  0
 14 37  1  0  0  0  0
 10 38  1  0  0  0  0
  6 39  1  0  0  0  0
  2 40  1  0  0  0  0
M  END
>  <cdx:fragmentId>
1903

$$$$
