39800.cdx
  Mrv1902 05222410252D          

 40 41  0  0  0  0            999 V2000
    1.2459  -13.4189    0.0000 C   0  0  0  0  0  0  0  0  0  0  0  0
    1.2459  -14.2439    0.0000 C   0  0  0  0  0  0  0  0  0  0  0  0
    1.9603  -14.6564    0.0000 C   0  0  0  0  0  0  0  0  0  0  0  0
    2.6748  -14.2439    0.0000 C   0  0  0  0  0  0  0  0  0  0  0  0
    2.6748  -13.4189    0.0000 C   0  0  0  0  0  0  0  0  0  0  0  0
    1.9603  -13.0064    0.0000 C   0  0  0  0  0  0  0  0  0  0  0  0
    1.9641  -12.1966    0.0000 C   0  0  0  0  0  0  0  0  0  0  0  0
    2.6797  -11.7861    0.0000 C   0  0  0  0  0  0  0  0  0  0  0  0
    2.6820  -10.9611    0.0000 C   0  0  0  0  0  0  0  0  0  0  0  0
    3.3976  -10.5505    0.0000 C   0  0  0  0  0  0  0  0  0  0  0  0
    3.3999   -9.7255    0.0000 C   0  0  0  0  0  0  0  0  0  0  0  0
    4.1155   -9.3150    0.0000 C   0  0  0  0  0  0  0  0  0  0  0  0
    4.1178   -8.4900    0.0000 C   0  0  0  0  0  0  0  0  0  0  0  0
    4.8334   -8.0795    0.0000 C   0  0  0  0  0  0  0  0  0  0  0  0
    4.8357   -7.2545    0.0000 C   0  0  0  0  0  0  0  0  0  0  0  0
    5.5513   -6.8440    0.0000 C   0  0  0  0  0  0  0  0  0  0  0  0
    7.0117   -6.8185    0.0000 C   0  0  0  0  0  0  0  0  0  0  0  0
    7.0140   -5.9935    0.0000 C   0  0  0  0  0  0  0  0  0  0  0  0
    7.7250   -7.2329    0.0000 C   0  0  0  0  0  0  0  0  0  0  0  0
    8.4406   -6.8224    0.0000 C   0  0  0  0  0  0  0  0  0  0  0  0
    9.1539   -7.2369    0.0000 C   0  0  0  0  0  0  0  0  0  0  0  0
    9.8695   -6.8264    0.0000 C   0  0  0  0  0  0  0  0  0  0  0  0
   10.5829   -7.2409    0.0000 C   0  0  0  0  0  0  0  0  0  0  0  0
   11.2985   -6.8303    0.0000 C   0  0  0  0  0  0  0  0  0  0  0  0
   12.0118   -7.2448    0.0000 C   0  0  0  0  0  0  0  0  0  0  0  0
   12.0084   -8.0698    0.0000 C   0  0  0  0  0  0  0  0  0  0  0  0
   12.7211   -8.4853    0.0000 C   0  0  0  0  0  0  0  0  0  0  0  0
   13.4373   -8.0698    0.0000 C   0  0  0  0  0  0  0  0  0  0  0  0
   13.4373   -7.2448    0.0000 C   0  0  0  0  0  0  0  0  0  0  0  0
   12.7211   -6.8293    0.0000 C   0  0  0  0  0  0  0  0  0  0  0  0
    3.3893  -13.0064    0.0000 C   0  0  0  0  0  0  0  0  0  0  0  0
    0.4209  -13.4189    0.0000 C   0  0  0  0  0  0  0  0  0  0  0  0
    0.8334  -12.7044    0.0000 C   0  0  0  0  0  0  0  0  0  0  0  0
   11.2922   -8.4793    0.0000 C   0  0  0  0  0  0  0  0  0  0  0  0
   12.3086   -6.1149    0.0000 C   0  0  0  0  0  0  0  0  0  0  0  0
   13.1336   -6.1149    0.0000 C   0  0  0  0  0  0  0  0  0  0  0  0
    1.9687  -10.5466    0.0000 C   0  0  0  0  0  0  0  0  0  0  0  0
    3.4045   -8.0755    0.0000 C   0  0  0  0  0  0  0  0  0  0  0  0
    9.8718   -6.0014    0.0000 C   0  0  0  0  0  0  0  0  0  0  0  0
    6.2646   -7.2585    0.0000 C   0  0  0  0  0  0  0  0  0  0  0  0
  1  2  1  0  0  0  0
  2  3  1  0  0  0  0
  3  4  1  0  0  0  0
  4  5  1  0  0  0  0
  5  6  2  0  0  0  0
  6  1  1  0  0  0  0
  7  8  2  0  0  0  0
  8  9  1  0  0  0  0
  9 10  2  0  0  0  0
 10 11  1  0  0  0  0
 11 12  2  0  0  0  0
 12 13  1  0  0  0  0
 13 14  2  0  0  0  0
 14 15  1  0  0  0  0
 15 16  2  0  0  0  0
  7  6  1  0  0  0  0
 17 18  1  0  0  0  0
 17 19  1  0  0  0  0
 19 20  2  0  0  0  0
 20 21  1  0  0  0  0
 21 22  2  0  0  0  0
 22 23  1  0  0  0  0
 23 24  2  0  0  0  0
 24 25  1  0  0  0  0
 25 26  2  0  0  0  0
 26 27  1  0  0  0  0
 27 28  1  0  0  0  0
 28 29  1  0  0  0  0
 29 30  1  0  0  0  0
 30 25  1  0  0  0  0
  5 31  1  0  0  0  0
  1 32  1  0  0  0  0
  1 33  1  0  0  0  0
 26 34  1  0  0  0  0
 30 35  1  0  0  0  0
 30 36  1  0  0  0  0
  9 37  1  0  0  0  0
 13 38  1  0  0  0  0
 22 39  1  0  0  0  0
 16 40  1  0  0  0  0
 17 40  2  0  0  0  0
M  END
>  <cdx:fragmentId>
21

$$$$
