39815.cdx
  Mrv1902 05222410252D          

 20 19  0  0  0  0            999 V2000
    1.1182  -10.3796    0.0000 C   0  0  0  0  0  0  0  0  0  0  0  0
    3.2617  -11.6171    0.0000 O   0  0  0  0  0  0  0  0  0  0  0  0
    1.8327  -10.7921    0.0000 O   0  0  0  0  0  0  0  0  0  0  0  0
    2.5472   -9.5546    0.0000 O   0  0  0  0  0  0  0  0  0  0  0  0
   13.2643  -10.7921    0.0000 C   0  0  0  0  0  0  0  0  0  0  0  0
   12.5498  -10.3796    0.0000 C   0  0  0  0  0  0  0  0  0  0  0  0
   11.8353  -10.7921    0.0000 C   0  0  0  0  0  0  0  0  0  0  0  0
   11.1208  -10.3796    0.0000 C   0  0  0  0  0  0  0  0  0  0  0  0
   10.4064  -10.7921    0.0000 C   0  0  0  0  0  0  0  0  0  0  0  0
    9.6919  -10.3796    0.0000 C   0  0  0  0  0  0  0  0  0  0  0  0
    8.9774  -10.7921    0.0000 C   0  0  0  0  0  0  0  0  0  0  0  0
    8.2630  -10.3796    0.0000 C   0  0  0  0  0  0  0  0  0  0  0  0
    7.5485  -10.7921    0.0000 C   0  0  0  0  0  0  0  0  0  0  0  0
    6.8340  -10.3796    0.0000 C   0  0  0  0  0  0  0  0  0  0  0  0
    6.1195  -10.7921    0.0000 C   0  0  0  0  0  0  0  0  0  0  0  0
    5.4051  -10.3796    0.0000 C   0  0  0  0  0  0  0  0  0  0  0  0
    4.6906  -10.7921    0.0000 C   0  0  0  0  0  0  0  0  0  0  0  0
    3.9761  -10.3796    0.0000 C   0  0  0  0  0  0  0  0  0  0  0  0
    3.2617  -10.7921    0.0000 C   0  0  0  0  0  0  0  0  0  0  0  0
    2.5472  -10.3796    0.0000 C   0  0  0  0  0  0  0  0  0  0  0  0
  3  1  1  0  0  0  0
 19  2  1  0  0  0  0
 20  3  1  0  0  0  0
 20  4  2  0  0  0  0
  6  5  1  0  0  0  0
  7  6  1  0  0  0  0
  8  7  1  0  0  0  0
  9  8  1  0  0  0  0
 10  9  1  0  0  0  0
 11 10  1  0  0  0  0
 12 11  1  0  0  0  0
 13 12  1  0  0  0  0
 14 13  1  0  0  0  0
 15 14  1  0  0  0  0
 16 15  1  0  0  0  0
 17 16  1  0  0  0  0
 18 17  1  0  0  0  0
 19 18  1  0  0  0  0
 20 19  1  0  0  0  0
M  END
>  <cdx:groupId>
65

>  <cdx:fragmentId>
9

$$$$
