39811.cdx
  Mrv1902 05222410232D          

 21 20  0  0  0  0            999 V2000
    2.7569  -11.0946    0.0000 C   0  0  0  0  0  0  0  0  0  0  0  0
    3.4713  -11.5071    0.0000 O   0  0  0  0  0  0  0  0  0  0  0  0
    4.1858  -10.2696    0.0000 O   0  0  0  0  0  0  0  0  0  0  0  0
   11.8866   -4.0124    0.0000 C   0  0  0  0  0  0  0  0  0  0  0  0
   11.9060   -4.8371    0.0000 C   0  0  0  0  0  0  0  0  0  0  0  0
   11.2013   -5.2663    0.0000 C   0  0  0  0  0  0  0  0  0  0  0  0
   11.2207   -6.0910    0.0000 C   0  0  0  0  0  0  0  0  0  0  0  0
   10.5160   -6.5201    0.0000 C   0  0  0  0  0  0  0  0  0  0  0  0
   10.5354   -7.3449    0.0000 C   0  0  0  0  0  0  0  0  0  0  0  0
    9.8307   -7.7740    0.0000 C   0  0  0  0  0  0  0  0  0  0  0  0
    9.8501   -8.5988    0.0000 C   0  0  0  0  0  0  0  0  0  0  0  0
    9.1454   -9.0279    0.0000 C   0  0  0  0  0  0  0  0  0  0  0  0
    9.1647   -9.8527    0.0000 C   0  0  0  0  0  0  0  0  0  0  0  0
    8.4601  -10.2818    0.0000 C   0  0  0  0  0  0  0  0  0  0  0  0
    8.4794  -11.1066    0.0000 C   0  0  0  0  0  0  0  0  0  0  0  0
    7.7582  -11.5071    0.0000 C   0  0  0  0  0  0  0  0  0  0  0  0
    7.0437  -11.0946    0.0000 C   0  0  0  0  0  0  0  0  0  0  0  0
    6.3292  -11.5071    0.0000 C   0  0  0  0  0  0  0  0  0  0  0  0
    5.6148  -11.0946    0.0000 C   0  0  0  0  0  0  0  0  0  0  0  0
    4.9003  -11.5071    0.0000 C   0  0  0  0  0  0  0  0  0  0  0  0
    4.1858  -11.0946    0.0000 C   0  0  0  0  0  0  0  0  0  0  0  0
  2  1  1  0  0  0  0
 21  2  1  0  0  0  0
 21  3  2  0  0  0  0
  5  4  1  0  0  0  0
  6  5  1  0  0  0  0
  7  6  1  0  0  0  0
  8  7  1  0  0  0  0
  9  8  1  0  0  0  0
 10  9  1  0  0  0  0
 11 10  1  0  0  0  0
 12 11  1  0  0  0  0
 13 12  1  0  0  0  0
 14 13  1  0  0  0  0
 15 14  1  0  0  0  0
 16 15  2  0  0  0  0
 17 16  1  0  0  0  0
 18 17  1  0  0  0  0
 19 18  1  0  0  0  0
 20 19  1  0  0  0  0
 21 20  1  0  0  0  0
M  END
>  <cdx:groupId>
68

>  <cdx:fragmentId>
9

$$$$
