39816.cdx
  Mrv1902 05222410252D          

 23 25  0  0  0  0            999 V2000
    7.2462   -8.2480    0.0000 C   0  0  0  0  0  0  0  0  0  0  0  0
    7.2462   -9.0730    0.0000 N   0  0  0  0  0  0  0  0  0  0  0  0
    7.9607   -9.4855    0.0000 C   0  0  0  0  0  0  0  0  0  0  0  0
    8.6752   -9.0730    0.0000 C   0  0  0  0  0  0  0  0  0  0  0  0
    8.6752   -8.2480    0.0000 C   0  0  0  0  0  0  0  0  0  0  0  0
    9.3897   -7.8355    0.0000 C   0  0  0  0  0  0  0  0  0  0  0  0
    9.3897   -7.0105    0.0000 C   0  0  0  0  0  0  0  0  0  0  0  0
    8.6752   -6.5980    0.0000 C   0  0  0  0  0  0  0  0  0  0  0  0
    7.9607   -7.0105    0.0000 C   0  0  0  0  0  0  0  0  0  0  0  0
    7.9607   -7.8355    0.0000 C   0  0  0  0  0  0  0  0  0  0  0  0
    6.5318   -7.8355    0.0000 C   0  0  0  0  0  0  0  0  0  0  0  0
    5.8173   -8.2480    0.0000 C   0  0  0  0  0  0  0  0  0  0  0  0
    5.8173   -9.0730    0.0000 C   0  0  0  0  0  0  0  0  0  0  0  0
    6.5318   -9.4855    0.0000 C   0  0  0  0  0  0  0  0  0  0  0  0
    5.1028   -7.8355    0.0000 N   0  0  0  0  0  0  0  0  0  0  0  0
    8.6752   -5.7730    0.0000 O   0  0  0  0  0  0  0  0  0  0  0  0
    9.3897   -5.3605    0.0000 C   0  0  0  0  0  0  0  0  0  0  0  0
   10.1041   -6.5980    0.0000 O   0  0  0  0  0  0  0  0  0  0  0  0
   10.8186   -7.0105    0.0000 C   0  0  0  0  0  0  0  0  0  0  0  0
    4.3884  -10.7230    0.0000 C   0  0  0  0  0  0  0  0  0  0  0  0
    5.8173  -10.7230    0.0000 C   0  0  0  0  0  0  0  0  0  0  0  0
    5.1028  -10.3105    0.0000 C   0  0  0  0  0  0  0  0  0  0  0  0
    5.1028   -9.4855    0.0000 C   0  0  0  0  0  0  0  0  0  0  0  0
 20 22  1  0  0  0  0
 22 21  1  0  0  0  0
 23 22  1  0  0  0  0
  1  2  1  0  0  0  0
  2  3  1  0  0  0  0
  3  4  1  0  0  0  0
  4  5  1  0  0  0  0
  5  6  1  0  0  0  0
  6  7  2  0  0  0  0
  7  8  1  0  0  0  0
  8  9  2  0  0  0  0
  9 10  1  0  0  0  0
  1 10  1  0  0  0  0
  5 10  2  0  0  0  0
 11 12  1  0  0  0  0
 12 13  1  0  0  0  0
 13 14  1  0  0  0  0
 11  1  1  0  0  0  0
 14  2  1  0  0  0  0
 12 15  1  0  0  0  0
 16 17  1  0  0  0  0
  8 16  1  0  0  0  0
 18 19  1  0  0  0  0
  7 18  1  0  0  0  0
 13 23  1  0  0  0  0
M  END
>  <cdx:groupId>
77

>  <cdx:fragmentId>
386

$$$$
