39818.cdx
  Mrv1902 05222410212D          

 21 20  0  0  0  0            999 V2000
    0.8435   -7.7946    0.0000 C   0  0  0  0  0  0  0  0  0  0  0  0
    2.9869   -9.0321    0.0000 O   0  0  0  0  0  0  0  0  0  0  0  0
    1.5580   -8.2071    0.0000 O   0  0  0  0  0  0  0  0  0  0  0  0
    2.2725   -6.9696    0.0000 O   0  0  0  0  0  0  0  0  0  0  0  0
   13.7040   -7.7946    0.0000 C   0  0  0  0  0  0  0  0  0  0  0  0
   12.9895   -8.2071    0.0000 C   0  0  0  0  0  0  0  0  0  0  0  0
   12.2750   -7.7946    0.0000 C   0  0  0  0  0  0  0  0  0  0  0  0
   11.5606   -8.2071    0.0000 C   0  0  0  0  0  0  0  0  0  0  0  0
   10.8461   -7.7946    0.0000 C   0  0  0  0  0  0  0  0  0  0  0  0
   10.1316   -8.2071    0.0000 C   0  0  0  0  0  0  0  0  0  0  0  0
    9.4172   -7.7946    0.0000 C   0  0  0  0  0  0  0  0  0  0  0  0
    8.7027   -8.2071    0.0000 C   0  0  0  0  0  0  0  0  0  0  0  0
    7.9882   -7.7946    0.0000 C   0  0  0  0  0  0  0  0  0  0  0  0
    7.2737   -8.2071    0.0000 C   0  0  0  0  0  0  0  0  0  0  0  0
    6.5593   -7.7946    0.0000 C   0  0  0  0  0  0  0  0  0  0  0  0
    5.8448   -8.2071    0.0000 C   0  0  0  0  0  0  0  0  0  0  0  0
    5.1303   -7.7946    0.0000 C   0  0  0  0  0  0  0  0  0  0  0  0
    4.4159   -8.2071    0.0000 C   0  0  0  0  0  0  0  0  0  0  0  0
    3.7014   -7.7946    0.0000 C   0  0  0  0  0  0  0  0  0  0  0  0
    2.9869   -8.2071    0.0000 C   0  0  0  0  0  0  0  0  0  0  0  0
    2.2725   -7.7946    0.0000 C   0  0  0  0  0  0  0  0  0  0  0  0
  3  1  1  0  0  0  0
 20  2  1  0  0  0  0
 21  3  1  0  0  0  0
 21  4  2  0  0  0  0
  6  5  1  0  0  0  0
  7  6  1  0  0  0  0
  8  7  1  0  0  0  0
  9  8  1  0  0  0  0
 10  9  1  0  0  0  0
 11 10  1  0  0  0  0
 12 11  1  0  0  0  0
 13 12  1  0  0  0  0
 14 13  1  0  0  0  0
 15 14  1  0  0  0  0
 16 15  1  0  0  0  0
 17 16  1  0  0  0  0
 18 17  1  0  0  0  0
 19 18  1  0  0  0  0
 20 19  1  0  0  0  0
 21 20  1  0  0  0  0
M  END
>  <cdx:groupId>
1222

>  <cdx:fragmentId>
1223

$$$$
