39812.cdx
  Mrv1902 05222410242D          

 21 20  0  0  0  0            999 V2000
    1.4369   -8.5371    0.0000 C   0  0  0  0  0  0  0  0  0  0  0  0
    2.1513   -8.9496    0.0000 O   0  0  0  0  0  0  0  0  0  0  0  0
    2.8658   -7.7121    0.0000 O   0  0  0  0  0  0  0  0  0  0  0  0
   12.8211  -12.6626    0.0000 C   0  0  0  0  0  0  0  0  0  0  0  0
   12.1143  -12.2372    0.0000 C   0  0  0  0  0  0  0  0  0  0  0  0
   12.1293  -11.4124    0.0000 C   0  0  0  0  0  0  0  0  0  0  0  0
   11.4224  -10.9870    0.0000 C   0  0  0  0  0  0  0  0  0  0  0  0
   11.4374  -10.1621    0.0000 C   0  0  0  0  0  0  0  0  0  0  0  0
   10.7305   -9.7367    0.0000 C   0  0  0  0  0  0  0  0  0  0  0  0
   10.7800   -8.9650    0.0000 C   0  0  0  0  0  0  0  0  0  0  0  0
   10.0105   -8.5371    0.0000 C   0  0  0  0  0  0  0  0  0  0  0  0
    9.2961   -8.9496    0.0000 C   0  0  0  0  0  0  0  0  0  0  0  0
    8.5816   -8.5371    0.0000 C   0  0  0  0  0  0  0  0  0  0  0  0
    7.8671   -8.9496    0.0000 C   0  0  0  0  0  0  0  0  0  0  0  0
    7.1526   -8.5371    0.0000 C   0  0  0  0  0  0  0  0  0  0  0  0
    6.4382   -8.9496    0.0000 C   0  0  0  0  0  0  0  0  0  0  0  0
    5.7237   -8.5371    0.0000 C   0  0  0  0  0  0  0  0  0  0  0  0
    5.0092   -8.9496    0.0000 C   0  0  0  0  0  0  0  0  0  0  0  0
    4.2948   -8.5371    0.0000 C   0  0  0  0  0  0  0  0  0  0  0  0
    3.5803   -8.9496    0.0000 C   0  0  0  0  0  0  0  0  0  0  0  0
    2.8658   -8.5371    0.0000 C   0  0  0  0  0  0  0  0  0  0  0  0
  2  1  1  0  0  0  0
 21  2  1  0  0  0  0
 21  3  2  0  0  0  0
  5  4  1  0  0  0  0
  6  5  1  0  0  0  0
  7  6  1  0  0  0  0
  8  7  1  0  0  0  0
  9  8  1  0  0  0  0
 10  9  1  0  0  0  0
 11 10  2  0  0  0  0
 12 11  1  0  0  0  0
 13 12  1  0  0  0  0
 14 13  1  0  0  0  0
 15 14  1  0  0  0  0
 16 15  1  0  0  0  0
 17 16  1  0  0  0  0
 18 17  1  0  0  0  0
 19 18  1  0  0  0  0
 20 19  1  0  0  0  0
 21 20  1  0  0  0  0
M  END
>  <cdx:groupId>
392

>  <cdx:fragmentId>
9

$$$$
