39817.cdx
  Mrv1902 05222410252D          

 11 12  0  0  0  0            999 V2000
    6.1942  -10.5875    0.0000 N   0  0  0  0  0  0  0  0  0  0  0  0
    6.1942  -11.4125    0.0000 C   0  0  0  0  0  0  0  0  0  0  0  0
    6.9087  -11.8250    0.0000 N   0  0  0  0  0  0  0  0  0  0  0  0
    7.6231  -11.4125    0.0000 C   0  0  0  0  0  0  0  0  0  0  0  0
    7.6231  -10.5875    0.0000 C   0  0  0  0  0  0  0  0  0  0  0  0
    6.9087  -10.1750    0.0000 C   0  0  0  0  0  0  0  0  0  0  0  0
    6.9087   -9.3500    0.0000 N   0  0  0  0  0  0  0  0  0  0  0  0
    8.4077  -11.6674    0.0000 N   0  0  0  0  0  0  0  0  0  0  0  0
    8.8927  -11.0000    0.0000 C   0  0  0  0  0  0  0  0  0  0  0  0
    8.4077  -10.3326    0.0000 N   0  0  0  0  0  0  0  0  0  0  0  0
    5.4797  -10.1750    0.0000 C   0  0  0  0  0  0  0  0  0  0  0  0
  1  2  1  0  0  0  0
  2  3  1  0  0  0  0
  3  4  2  0  0  0  0
  4  5  1  0  0  0  0
  5  6  2  0  0  0  0
  6  7  1  0  0  0  0
  1  6  1  0  0  0  0
  4  8  1  0  0  0  0
  8  9  2  0  0  0  0
  9 10  1  0  0  0  0
  5 10  1  0  0  0  0
  1 11  1  0  0  0  0
M  END
>  <cdx:groupId>
146

>  <cdx:fragmentId>
147

$$$$
