398102.cdx
  Mrv1902 05222410182D          

 31 34  0  0  0  0            999 V2000
    2.0002   -6.7864    0.0000 O   0  0  0  0  0  0  0  0  0  0  0  0
    4.8581   -9.2614    0.0000 O   0  0  0  0  0  0  0  0  0  0  0  0
    8.4304   -8.0239    0.0000 O   0  0  0  0  0  0  0  0  0  0  0  0
    9.8594   -7.1989    0.0000 O   0  0  0  0  0  0  0  0  0  0  0  0
   11.2883   -8.0239    0.0000 O   0  0  0  0  0  0  0  0  0  0  0  0
   12.0028   -9.2614    0.0000 O   0  0  0  0  0  0  0  0  0  0  0  0
   11.2883   -9.6739    0.0000 C   0  0  0  0  0  0  0  0  0  0  0  0
   10.5739   -9.2614    0.0000 C   0  0  2  0  0  0  0  0  0  0  0  0
   10.5739   -8.4364    0.0000 C   0  0  2  0  0  0  0  0  0  0  0  0
    9.8594   -8.0239    0.0000 C   0  0  1  0  0  0  0  0  0  0  0  0
    9.1449   -8.4364    0.0000 C   0  0  2  0  0  0  0  0  0  0  0  0
    9.1449   -9.2614    0.0000 C   0  0  1  0  0  0  0  0  0  0  0  0
    9.8594   -9.6739    0.0000 O   0  0  0  0  0  0  0  0  0  0  0  0
    8.4304   -9.6739    0.0000 O   0  0  0  0  0  0  0  0  0  0  0  0
    7.0015   -8.0239    0.0000 C   0  0  0  0  0  0  0  0  0  0  0  0
    7.7160   -8.4364    0.0000 C   0  0  0  0  0  0  0  0  0  0  0  0
    7.7160   -9.2614    0.0000 C   0  0  0  0  0  0  0  0  0  0  0  0
    7.0015   -9.6739    0.0000 C   0  0  0  0  0  0  0  0  0  0  0  0
    6.2870   -9.2614    0.0000 C   0  0  0  0  0  0  0  0  0  0  0  0
    6.2870   -8.4364    0.0000 C   0  0  0  0  0  0  0  0  0  0  0  0
    3.4291   -9.2614    0.0000 O   0  0  0  0  0  0  0  0  0  0  0  0
    4.8581   -6.7864    0.0000 O   0  0  0  0  0  0  0  0  0  0  0  0
    4.1436   -7.1989    0.0000 C   0  0  0  0  0  0  0  0  0  0  0  0
    3.4291   -6.7864    0.0000 C   0  0  0  0  0  0  0  0  0  0  0  0
    2.7147   -7.1989    0.0000 C   0  0  0  0  0  0  0  0  0  0  0  0
    2.7147   -8.0239    0.0000 C   0  0  0  0  0  0  0  0  0  0  0  0
    3.4291   -8.4364    0.0000 C   0  0  0  0  0  0  0  0  0  0  0  0
    4.1436   -8.0239    0.0000 C   0  0  0  0  0  0  0  0  0  0  0  0
    4.8581   -8.4364    0.0000 C   0  0  0  0  0  0  0  0  0  0  0  0
    5.5726   -8.0239    0.0000 C   0  0  0  0  0  0  0  0  0  0  0  0
    5.5726   -7.1989    0.0000 C   0  0  0  0  0  0  0  0  0  0  0  0
 25  1  1  0  0  0  0
 29  2  2  0  0  0  0
 30 20  1  0  0  0  0
 17 14  1  0  0  0  0
 12 14  1  1  0  0  0
 11  3  1  6  0  0  0
 10  4  1  1  0  0  0
  9  5  1  6  0  0  0
  8  7  1  1  0  0  0
  7  6  1  0  0  0  0
 13  8  1  0  0  0  0
  9  8  1  0  0  0  0
 10  9  1  0  0  0  0
 11 10  1  0  0  0  0
 12 11  1  0  0  0  0
 13 12  1  0  0  0  0
 20 15  2  0  0  0  0
 16 15  1  0  0  0  0
 17 16  2  0  0  0  0
 18 17  1  0  0  0  0
 19 18  2  0  0  0  0
 20 19  1  0  0  0  0
 27 21  1  0  0  0  0
 31 22  1  0  0  0  0
 23 22  1  0  0  0  0
 28 23  2  0  0  0  0
 24 23  1  0  0  0  0
 25 24  2  0  0  0  0
 26 25  1  0  0  0  0
 27 26  2  0  0  0  0
 28 27  1  0  0  0  0
 29 28  1  0  0  0  0
 30 29  1  0  0  0  0
 31 30  2  0  0  0  0
M  END
>  <cdx:fragmentId>
80767

$$$$
