39813.cdx
  Mrv1902 05222410242D          

 20 19  0  0  0  0            999 V2000
    0.7610  -11.2046    0.0000 C   0  0  0  0  0  0  0  0  0  0  0  0
    1.4755  -10.7921    0.0000 C   0  0  0  0  0  0  0  0  0  0  0  0
    2.1900  -11.2046    0.0000 O   0  0  0  0  0  0  0  0  0  0  0  0
    2.9044   -9.9671    0.0000 O   0  0  0  0  0  0  0  0  0  0  0  0
   13.6215  -11.2046    0.0000 C   0  0  0  0  0  0  0  0  0  0  0  0
   12.9070  -10.7921    0.0000 C   0  0  0  0  0  0  0  0  0  0  0  0
   12.1925  -11.2046    0.0000 C   0  0  0  0  0  0  0  0  0  0  0  0
   11.4781  -10.7921    0.0000 C   0  0  0  0  0  0  0  0  0  0  0  0
   10.7636  -11.2046    0.0000 C   0  0  0  0  0  0  0  0  0  0  0  0
   10.0491  -10.7921    0.0000 C   0  0  0  0  0  0  0  0  0  0  0  0
    9.3347  -11.2046    0.0000 C   0  0  0  0  0  0  0  0  0  0  0  0
    8.6202  -10.7921    0.0000 C   0  0  0  0  0  0  0  0  0  0  0  0
    7.9057  -11.2046    0.0000 C   0  0  0  0  0  0  0  0  0  0  0  0
    7.1912  -10.7921    0.0000 C   0  0  0  0  0  0  0  0  0  0  0  0
    6.4768  -11.2046    0.0000 C   0  0  0  0  0  0  0  0  0  0  0  0
    5.7623  -10.7921    0.0000 C   0  0  0  0  0  0  0  0  0  0  0  0
    5.0478  -11.2046    0.0000 C   0  0  0  0  0  0  0  0  0  0  0  0
    4.3334  -10.7921    0.0000 C   0  0  0  0  0  0  0  0  0  0  0  0
    3.6189  -11.2046    0.0000 C   0  0  0  0  0  0  0  0  0  0  0  0
    2.9044  -10.7921    0.0000 C   0  0  0  0  0  0  0  0  0  0  0  0
  3  2  1  0  0  0  0
  2  1  1  0  0  0  0
 20  3  1  0  0  0  0
 20  4  2  0  0  0  0
  6  5  1  0  0  0  0
  7  6  1  0  0  0  0
  8  7  1  0  0  0  0
  9  8  2  0  0  0  0
 10  9  1  0  0  0  0
 11 10  1  0  0  0  0
 12 11  2  0  0  0  0
 13 12  1  0  0  0  0
 14 13  1  0  0  0  0
 15 14  1  0  0  0  0
 16 15  1  0  0  0  0
 17 16  1  0  0  0  0
 18 17  1  0  0  0  0
 19 18  1  0  0  0  0
 20 19  1  0  0  0  0
M  END
>  <cdx:groupId>
3900

>  <cdx:fragmentId>
3901

$$$$
