39819.cdx
  Mrv1902 05222410202D          

 18 20  0  0  0  0            999 V2000
   11.0901   -6.2590    0.0000 C   0  0  0  0  0  0  0  0  0  0  0  0
   10.3727   -5.8515    0.0000 O   0  0  0  0  0  0  0  0  0  0  0  0
    8.9555   -7.5117    0.0000 C   0  0  0  0  0  0  0  0  0  0  0  0
    9.6671   -7.0941    0.0000 C   0  0  0  0  0  0  0  0  0  0  0  0
    9.6612   -6.2691    0.0000 C   0  0  0  0  0  0  0  0  0  0  0  0
    8.9438   -5.8617    0.0000 C   0  0  0  0  0  0  0  0  0  0  0  0
    8.2323   -6.2793    0.0000 C   0  0  0  0  0  0  0  0  0  0  0  0
    8.2382   -7.1042    0.0000 C   0  0  0  0  0  0  0  0  0  0  0  0
    5.3804   -7.1245    0.0000 C   0  0  0  0  0  0  0  0  0  0  0  0
    4.6688   -7.5421    0.0000 C   0  0  0  0  0  0  0  0  0  0  0  0
    4.6747   -8.3671    0.0000 C   0  0  0  0  0  0  0  0  0  0  0  0
    5.3921   -8.7745    0.0000 C   0  0  0  0  0  0  0  0  0  0  0  0
    6.0977   -7.5319    0.0000 C   0  0  0  0  0  0  0  0  0  0  0  0
    6.1036   -8.3569    0.0000 C   0  0  0  0  0  0  0  0  0  0  0  0
    6.8210   -8.7643    0.0000 C   0  0  0  0  0  0  0  0  0  0  0  0
    7.5325   -8.3468    0.0000 N   0  0  0  0  0  0  0  0  0  0  0  0
    7.5266   -7.5218    0.0000 C   0  0  0  0  0  0  0  0  0  0  0  0
    6.8093   -7.1144    0.0000 O   0  0  0  0  0  0  0  0  0  0  0  0
 17  8  1  0  0  0  0
  5  2  1  0  0  0  0
  2  1  1  0  0  0  0
  8  3  2  0  0  0  0
  4  3  1  0  0  0  0
  5  4  2  0  0  0  0
  6  5  1  0  0  0  0
  7  6  2  0  0  0  0
  8  7  1  0  0  0  0
 12 14  1  0  0  0  0
  9 13  1  0  0  0  0
 10  9  1  0  0  0  0
 11 10  1  0  0  0  0
 12 11  1  0  0  0  0
 18 13  1  0  0  0  0
 14 13  1  0  0  0  0
 15 14  1  0  0  0  0
 16 15  1  0  0  0  0
 17 16  1  0  0  0  0
 18 17  1  0  0  0  0
M  END
>  <cdx:groupId>
223

>  <cdx:fragmentId>
9

$$$$
