39822.cdx
  Mrv1902 05222410222D          

 42 41  0  0  0  0            999 V2000
    1.6305   -9.4299    0.0000 C   0  0  0  0  0  0  0  0  0  0  0  0
    2.3450   -9.8424    0.0000 C   0  0  0  0  0  0  0  0  0  0  0  0
    3.0594   -9.4299    0.0000 C   0  0  0  0  0  0  0  0  0  0  0  0
    3.7739   -9.8424    0.0000 C   0  0  0  0  0  0  0  0  0  0  0  0
    4.4884   -9.4299    0.0000 C   0  0  0  0  0  0  0  0  0  0  0  0
    5.2029   -9.8424    0.0000 C   0  0  0  0  0  0  0  0  0  0  0  0
    5.9173   -9.4299    0.0000 C   0  0  0  0  0  0  0  0  0  0  0  0
    6.6318   -9.8424    0.0000 C   0  0  0  0  0  0  0  0  0  0  0  0
    7.3463   -9.4299    0.0000 C   0  0  0  0  0  0  0  0  0  0  0  0
    8.0607   -9.8424    0.0000 C   0  0  0  0  0  0  0  0  0  0  0  0
    8.7752   -9.4299    0.0000 C   0  0  0  0  0  0  0  0  0  0  0  0
    9.4897   -9.8424    0.0000 C   0  0  0  0  0  0  0  0  0  0  0  0
   10.2041   -9.4299    0.0000 C   0  0  0  0  0  0  0  0  0  0  0  0
   10.9186   -9.8424    0.0000 C   0  0  0  0  0  0  0  0  0  0  0  0
   11.6331   -9.4299    0.0000 C   0  0  0  0  0  0  0  0  0  0  0  0
   12.3476   -9.8424    0.0000 C   0  0  0  0  0  0  0  0  0  0  0  0
   13.0620   -9.4299    0.0000 C   0  0  0  0  0  0  0  0  0  0  0  0
   13.7765   -9.8424    0.0000 C   0  0  0  0  0  0  0  0  0  0  0  0
   14.4910   -9.4299    0.0000 C   0  0  0  0  0  0  0  0  0  0  0  0
   15.2054   -9.8424    0.0000 C   0  0  0  0  0  0  0  0  0  0  0  0
   15.9199   -9.4299    0.0000 C   0  0  0  0  0  0  0  0  0  0  0  0
   16.6344   -9.8424    0.0000 C   0  0  0  0  0  0  0  0  0  0  0  0
   17.3489   -9.4299    0.0000 C   0  0  0  0  0  0  0  0  0  0  0  0
   18.0633   -9.8424    0.0000 C   0  0  0  0  0  0  0  0  0  0  0  0
   18.7778   -9.4299    0.0000 C   0  0  0  0  0  0  0  0  0  0  0  0
   19.4923   -9.8424    0.0000 C   0  0  0  0  0  0  0  0  0  0  0  0
   20.2067   -9.4299    0.0000 C   0  0  0  0  0  0  0  0  0  0  0  0
   20.9212   -9.8424    0.0000 C   0  0  0  0  0  0  0  0  0  0  0  0
   21.6357   -9.4299    0.0000 C   0  0  0  0  0  0  0  0  0  0  0  0
   22.3502   -9.8424    0.0000 C   0  0  0  0  0  0  0  0  0  0  0  0
   23.0646   -9.4299    0.0000 C   0  0  0  0  0  0  0  0  0  0  0  0
   23.7791   -9.8424    0.0000 C   0  0  0  0  0  0  0  0  0  0  0  0
   24.4936   -9.4299    0.0000 C   0  0  0  0  0  0  0  0  0  0  0  0
   25.2080   -9.8424    0.0000 C   0  0  0  0  0  0  0  0  0  0  0  0
   25.9225   -9.4299    0.0000 C   0  0  0  0  0  0  0  0  0  0  0  0
   26.6370   -9.8424    0.0000 C   0  0  0  0  0  0  0  0  0  0  0  0
   27.3515   -9.4299    0.0000 C   0  0  0  0  0  0  0  0  0  0  0  0
   28.0659   -9.8424    0.0000 C   0  0  0  0  0  0  0  0  0  0  0  0
   28.7804   -9.4299    0.0000 C   0  0  0  0  0  0  0  0  0  0  0  0
   29.4949   -9.8424    0.0000 C   0  0  0  0  0  0  0  0  0  0  0  0
   30.2093   -9.4299    0.0000 C   0  0  0  0  0  0  0  0  0  0  0  0
    0.9160   -9.8424    0.0000 O   0  0  0  0  0  0  0  0  0  0  0  0
  1  2  1  0  0  0  0
  2  3  1  0  0  0  0
  3  4  1  0  0  0  0
  4  5  1  0  0  0  0
  5  6  1  0  0  0  0
  6  7  1  0  0  0  0
  7  8  1  0  0  0  0
  8  9  1  0  0  0  0
  9 10  1  0  0  0  0
 10 11  1  0  0  0  0
 11 12  1  0  0  0  0
 12 13  1  0  0  0  0
 13 14  1  0  0  0  0
 14 15  1  0  0  0  0
 15 16  1  0  0  0  0
 16 17  1  0  0  0  0
 17 18  1  0  0  0  0
 18 19  1  0  0  0  0
 19 20  1  0  0  0  0
 20 21  1  0  0  0  0
 21 22  1  0  0  0  0
 22 23  1  0  0  0  0
 23 24  1  0  0  0  0
 24 25  1  0  0  0  0
 25 26  1  0  0  0  0
 26 27  1  0  0  0  0
 27 28  1  0  0  0  0
 28 29  1  0  0  0  0
 29 30  1  0  0  0  0
 30 31  1  0  0  0  0
 31 32  1  0  0  0  0
 32 33  1  0  0  0  0
 33 34  1  0  0  0  0
 34 35  1  0  0  0  0
 35 36  1  0  0  0  0
 36 37  1  0  0  0  0
 37 38  1  0  0  0  0
 38 39  1  0  0  0  0
 39 40  1  0  0  0  0
 40 41  1  0  0  0  0
  1 42  1  0  0  0  0
M  END
>  <cdx:groupId>
131

>  <cdx:fragmentId>
9

$$$$
