39824.cdx
  Mrv1902 05222410212D          

 29 28  0  0  0  0            999 V2000
    1.0794   -9.3346    0.0000 C   0  0  0  0  0  0  0  0  0  0  0  0
    1.7938   -9.7471    0.0000 O   0  0  0  0  0  0  0  0  0  0  0  0
    2.5083   -8.5096    0.0000 O   0  0  0  0  0  0  0  0  0  0  0  0
   20.3701   -9.7471    0.0000 C   0  0  0  0  0  0  0  0  0  0  0  0
   19.6556   -9.3346    0.0000 C   0  0  0  0  0  0  0  0  0  0  0  0
   18.9411   -9.7471    0.0000 C   0  0  0  0  0  0  0  0  0  0  0  0
   18.2267   -9.3346    0.0000 C   0  0  0  0  0  0  0  0  0  0  0  0
   17.5122   -9.7471    0.0000 C   0  0  0  0  0  0  0  0  0  0  0  0
   16.7977   -9.3346    0.0000 C   0  0  0  0  0  0  0  0  0  0  0  0
   16.0833   -9.7471    0.0000 C   0  0  0  0  0  0  0  0  0  0  0  0
   15.3688   -9.3346    0.0000 C   0  0  0  0  0  0  0  0  0  0  0  0
   14.6543   -9.7471    0.0000 C   0  0  0  0  0  0  0  0  0  0  0  0
   13.9399   -9.3346    0.0000 C   0  0  0  0  0  0  0  0  0  0  0  0
   13.2254   -9.7471    0.0000 C   0  0  0  0  0  0  0  0  0  0  0  0
   12.5109   -9.3346    0.0000 C   0  0  0  0  0  0  0  0  0  0  0  0
   11.7964   -9.7471    0.0000 C   0  0  0  0  0  0  0  0  0  0  0  0
   11.0820   -9.3346    0.0000 C   0  0  0  0  0  0  0  0  0  0  0  0
   10.3675   -9.7471    0.0000 C   0  0  0  0  0  0  0  0  0  0  0  0
    9.6530   -9.3346    0.0000 C   0  0  0  0  0  0  0  0  0  0  0  0
    8.9386   -9.7471    0.0000 C   0  0  0  0  0  0  0  0  0  0  0  0
    8.2241   -9.3346    0.0000 C   0  0  0  0  0  0  0  0  0  0  0  0
    7.5096   -9.7471    0.0000 C   0  0  0  0  0  0  0  0  0  0  0  0
    6.7951   -9.3346    0.0000 C   0  0  0  0  0  0  0  0  0  0  0  0
    6.0807   -9.7471    0.0000 C   0  0  0  0  0  0  0  0  0  0  0  0
    5.3662   -9.3346    0.0000 C   0  0  0  0  0  0  0  0  0  0  0  0
    4.6517   -9.7471    0.0000 C   0  0  0  0  0  0  0  0  0  0  0  0
    3.9373   -9.3346    0.0000 C   0  0  0  0  0  0  0  0  0  0  0  0
    3.2228   -9.7471    0.0000 C   0  0  0  0  0  0  0  0  0  0  0  0
    2.5083   -9.3346    0.0000 C   0  0  0  0  0  0  0  0  0  0  0  0
  2  1  1  0  0  0  0
 29  2  1  0  0  0  0
 29  3  2  0  0  0  0
  5  4  1  0  0  0  0
  6  5  1  0  0  0  0
  7  6  1  0  0  0  0
  8  7  1  0  0  0  0
  9  8  1  0  0  0  0
 10  9  1  0  0  0  0
 11 10  1  0  0  0  0
 12 11  1  0  0  0  0
 13 12  1  0  0  0  0
 14 13  1  0  0  0  0
 15 14  1  0  0  0  0
 16 15  1  0  0  0  0
 17 16  1  0  0  0  0
 18 17  1  0  0  0  0
 19 18  1  0  0  0  0
 20 19  1  0  0  0  0
 21 20  1  0  0  0  0
 22 21  1  0  0  0  0
 23 22  1  0  0  0  0
 24 23  1  0  0  0  0
 25 24  1  0  0  0  0
 26 25  1  0  0  0  0
 27 26  1  0  0  0  0
 28 27  1  0  0  0  0
 29 28  1  0  0  0  0
M  END
>  <cdx:groupId>
22991

>  <cdx:fragmentId>
9

$$$$
