39827.cdx
  Mrv1902 05222410212D          

 33 36  0  0  0  0            999 V2000
    6.3341   -8.2088    0.0000 C   0  0  2  0  0  0  0  0  0  0  0  0
    6.3341   -9.0337    0.0000 C   0  0  0  0  0  0  0  0  0  0  0  0
    5.6196   -9.4462    0.0000 C   0  0  0  0  0  0  0  0  0  0  0  0
    4.9052   -9.0337    0.0000 C   0  0  0  0  0  0  0  0  0  0  0  0
    4.1907   -9.4462    0.0000 C   0  0  0  0  0  0  0  0  0  0  0  0
    3.4763   -9.0337    0.0000 C   0  0  2  0  0  0  0  0  0  0  0  0
    3.4763   -8.2088    0.0000 C   0  0  0  0  0  0  0  0  0  0  0  0
    4.1907   -7.7963    0.0000 C   0  0  0  0  0  0  0  0  0  0  0  0
    4.9052   -8.2088    0.0000 C   0  0  2  0  0  0  0  0  0  0  0  0
    5.6196   -7.7963    0.0000 C   0  0  1  0  0  0  0  0  0  0  0  0
    5.6196   -6.9712    0.0000 C   0  0  0  0  0  0  0  0  0  0  0  0
    6.3341   -6.5587    0.0000 C   0  0  0  0  0  0  0  0  0  0  0  0
    2.7618   -9.4462    0.0000 O   0  0  0  0  0  0  0  0  0  0  0  0
    7.0485   -6.9712    0.0000 C   0  0  2  0  0  0  0  0  0  0  0  0
    7.0485   -7.7963    0.0000 C   0  0  1  0  0  0  0  0  0  0  0  0
    7.8342   -8.0539    0.0000 C   0  0  0  0  0  0  0  0  0  0  0  0
    8.3226   -7.3851    0.0000 C   0  0  0  0  0  0  0  0  0  0  0  0
    4.9052   -7.3838    0.0000 C   0  0  0  0  0  0  0  0  0  0  0  0
    7.0485   -6.1463    0.0000 C   0  0  0  0  0  0  0  0  0  0  0  0
    7.8358   -6.7171    0.0000 C   0  0  2  0  0  0  0  0  0  0  0  0
    6.3341   -7.3838    0.0000 H   0  0  0  0  0  0  0  0  0  0  0  0
    5.6196   -8.6212    0.0000 H   0  0  0  0  0  0  0  0  0  0  0  0
    7.0485   -8.6212    0.0000 H   0  0  0  0  0  0  0  0  0  0  0  0
    8.0910   -5.9326    0.0000 C   0  0  2  0  0  0  0  0  0  0  0  0
    7.5392   -5.3193    0.0000 C   0  0  0  0  0  0  0  0  0  0  0  0
    8.8980   -5.7613    0.0000 C   0  0  0  0  0  0  0  0  0  0  0  0
    9.1532   -4.9768    0.0000 C   0  0  0  0  0  0  0  0  0  0  0  0
    9.9602   -4.8055    0.0000 C   0  0  1  0  0  0  0  0  0  0  0  0
   10.5121   -5.4187    0.0000 C   0  0  0  0  0  0  0  0  0  0  0  0
   10.2154   -4.0209    0.0000 C   0  0  0  0  0  0  0  0  0  0  0  0
    9.6635   -3.4077    0.0000 C   0  0  0  0  0  0  0  0  0  0  0  0
   11.0224   -3.8496    0.0000 C   0  0  0  0  0  0  0  0  0  0  0  0
    8.6232   -6.4630    0.0000 H   0  0  0  0  0  0  0  0  0  0  0  0
 15  1  1  0  0  0  0
  1  2  1  0  0  0  0
  2  3  1  0  0  0  0
  3  4  2  0  0  0  0
  4  5  1  0  0  0  0
  5  6  1  0  0  0  0
  6  7  1  0  0  0  0
  7  8  1  0  0  0  0
  8  9  1  0  0  0  0
  4  9  1  0  0  0  0
  9 10  1  0  0  0  0
  1 10  1  0  0  0  0
 10 11  1  0  0  0  0
 11 12  1  0  0  0  0
 12 14  1  0  0  0  0
  6 13  1  1  0  0  0
 20 14  1  0  0  0  0
 14 15  1  0  0  0  0
 15 16  1  0  0  0  0
 16 17  1  0  0  0  0
 20 17  1  0  0  0  0
  9 18  1  1  0  0  0
 14 19  1  1  0  0  0
  1 21  1  1  0  0  0
 10 22  1  6  0  0  0
 15 23  1  6  0  0  0
 20 24  1  0  0  0  0
 24 25  1  6  0  0  0
 24 26  1  0  0  0  0
 26 27  1  0  0  0  0
 27 28  1  0  0  0  0
 28 29  1  6  0  0  0
 28 30  1  0  0  0  0
 30 31  1  0  0  0  0
 30 32  1  0  0  0  0
 20 33  1  6  0  0  0
M  END
>  <cdx:groupId>
3465

>  <cdx:fragmentId>
3466

$$$$
