39823.cdx
  Mrv1902 05222410222D          

 16 16  0  0  0  0            999 V2000
    7.0678   -6.4608    0.0000 C   0  0  0  0  0  0  0  0  0  0  0  0
    7.7822   -6.8733    0.0000 C   0  0  0  0  0  0  0  0  0  0  0  0
    7.7822   -7.6983    0.0000 C   0  0  0  0  0  0  0  0  0  0  0  0
    8.4967   -8.1108    0.0000 C   0  0  0  0  0  0  0  0  0  0  0  0
    9.2112   -7.6983    0.0000 C   0  0  0  0  0  0  0  0  0  0  0  0
    9.2112   -6.8733    0.0000 C   0  0  0  0  0  0  0  0  0  0  0  0
    8.4967   -6.4608    0.0000 C   0  0  0  0  0  0  0  0  0  0  0  0
    6.3533   -6.8733    0.0000 O   0  0  0  0  0  0  0  0  0  0  0  0
    9.9256   -6.4608    0.0000 O   0  0  0  0  0  0  0  0  0  0  0  0
   10.6401   -6.8733    0.0000 C   0  0  0  0  0  0  0  0  0  0  0  0
    7.0678   -8.1108    0.0000 O   0  0  0  0  0  0  0  0  0  0  0  0
    6.3533   -7.6983    0.0000 C   0  0  0  0  0  0  0  0  0  0  0  0
    5.6388   -8.1108    0.0000 C   0  0  0  0  0  0  0  0  0  0  0  0
    4.9244   -7.6983    0.0000 C   0  0  0  0  0  0  0  0  0  0  0  0
    4.2099   -8.1108    0.0000 C   0  0  0  0  0  0  0  0  0  0  0  0
    4.9244   -6.8733    0.0000 C   0  0  0  0  0  0  0  0  0  0  0  0
  1  2  1  0  0  0  0
  2  3  1  0  0  0  0
  3  4  2  0  0  0  0
  4  5  1  0  0  0  0
  5  6  2  0  0  0  0
  6  7  1  0  0  0  0
  2  7  2  0  0  0  0
  1  8  2  0  0  0  0
  9 10  1  0  0  0  0
  6  9  1  0  0  0  0
  3 11  1  0  0  0  0
 12 13  1  0  0  0  0
 13 14  1  0  0  0  0
 14 15  1  0  0  0  0
 14 16  1  0  0  0  0
 11 12  1  0  0  0  0
M  END
>  <cdx:groupId>
54

>  <cdx:fragmentId>
125

$$$$
