39821.cdx
  Mrv1902 05222410232D          

 28 27  0  0  0  0            999 V2000
    0.8869   -9.2796    0.0000 C   0  0  0  0  0  0  0  0  0  0  0  0
    3.0303  -10.5171    0.0000 O   0  0  0  0  0  0  0  0  0  0  0  0
    1.6013   -9.6921    0.0000 O   0  0  0  0  0  0  0  0  0  0  0  0
    2.3158   -8.4546    0.0000 O   0  0  0  0  0  0  0  0  0  0  0  0
   18.7486   -9.6921    0.0000 C   0  0  0  0  0  0  0  0  0  0  0  0
   18.0342   -9.2796    0.0000 C   0  0  0  0  0  0  0  0  0  0  0  0
   17.3197   -9.6921    0.0000 C   0  0  0  0  0  0  0  0  0  0  0  0
   16.6052   -9.2796    0.0000 C   0  0  0  0  0  0  0  0  0  0  0  0
   15.8908   -9.6921    0.0000 C   0  0  0  0  0  0  0  0  0  0  0  0
   15.1763   -9.2796    0.0000 C   0  0  0  0  0  0  0  0  0  0  0  0
   14.4618   -9.6921    0.0000 C   0  0  0  0  0  0  0  0  0  0  0  0
   13.7474   -9.2796    0.0000 C   0  0  0  0  0  0  0  0  0  0  0  0
   13.0329   -9.6921    0.0000 C   0  0  0  0  0  0  0  0  0  0  0  0
   12.3184   -9.2796    0.0000 C   0  0  0  0  0  0  0  0  0  0  0  0
   11.6039   -9.6921    0.0000 C   0  0  0  0  0  0  0  0  0  0  0  0
   10.8895   -9.2796    0.0000 C   0  0  0  0  0  0  0  0  0  0  0  0
   10.1750   -9.6921    0.0000 C   0  0  0  0  0  0  0  0  0  0  0  0
    9.4605   -9.2796    0.0000 C   0  0  0  0  0  0  0  0  0  0  0  0
    8.7461   -9.6921    0.0000 C   0  0  0  0  0  0  0  0  0  0  0  0
    8.0316   -9.2796    0.0000 C   0  0  0  0  0  0  0  0  0  0  0  0
    7.3171   -9.6921    0.0000 C   0  0  0  0  0  0  0  0  0  0  0  0
    6.6026   -9.2796    0.0000 C   0  0  0  0  0  0  0  0  0  0  0  0
    5.8882   -9.6921    0.0000 C   0  0  0  0  0  0  0  0  0  0  0  0
    5.1737   -9.2796    0.0000 C   0  0  0  0  0  0  0  0  0  0  0  0
    4.4592   -9.6921    0.0000 C   0  0  0  0  0  0  0  0  0  0  0  0
    3.7448   -9.2796    0.0000 C   0  0  0  0  0  0  0  0  0  0  0  0
    3.0303   -9.6921    0.0000 C   0  0  0  0  0  0  0  0  0  0  0  0
    2.3158   -9.2796    0.0000 C   0  0  0  0  0  0  0  0  0  0  0  0
  3  1  1  0  0  0  0
 27  2  1  0  0  0  0
 28  3  1  0  0  0  0
 28  4  2  0  0  0  0
  6  5  1  0  0  0  0
  7  6  1  0  0  0  0
  8  7  1  0  0  0  0
  9  8  1  0  0  0  0
 10  9  1  0  0  0  0
 11 10  1  0  0  0  0
 12 11  1  0  0  0  0
 13 12  1  0  0  0  0
 14 13  1  0  0  0  0
 15 14  1  0  0  0  0
 16 15  1  0  0  0  0
 17 16  1  0  0  0  0
 18 17  1  0  0  0  0
 19 18  1  0  0  0  0
 20 19  1  0  0  0  0
 21 20  1  0  0  0  0
 22 21  1  0  0  0  0
 23 22  1  0  0  0  0
 24 23  1  0  0  0  0
 25 24  1  0  0  0  0
 26 25  1  0  0  0  0
 27 26  1  0  0  0  0
 28 27  1  0  0  0  0
M  END
>  <cdx:groupId>
89

>  <cdx:fragmentId>
9

$$$$
