39820.cdx
  Mrv1902 05222410222D          

 28 27  0  0  0  0            999 V2000
    1.1619  -10.2696    0.0000 C   0  0  0  0  0  0  0  0  0  0  0  0
    1.8763  -10.6821    0.0000 O   0  0  0  0  0  0  0  0  0  0  0  0
    2.5908   -9.4446    0.0000 O   0  0  0  0  0  0  0  0  0  0  0  0
   19.7381  -10.2696    0.0000 C   0  0  0  0  0  0  0  0  0  0  0  0
   19.0236  -10.6821    0.0000 C   0  0  0  0  0  0  0  0  0  0  0  0
   18.3092  -10.2696    0.0000 C   0  0  0  0  0  0  0  0  0  0  0  0
   17.5947  -10.6821    0.0000 C   0  0  0  0  0  0  0  0  0  0  0  0
   16.8802  -10.2696    0.0000 C   0  0  0  0  0  0  0  0  0  0  0  0
   16.1658  -10.6821    0.0000 C   0  0  0  0  0  0  0  0  0  0  0  0
   15.4513  -10.2696    0.0000 C   0  0  0  0  0  0  0  0  0  0  0  0
   14.7368  -10.6821    0.0000 C   0  0  0  0  0  0  0  0  0  0  0  0
   14.0224  -10.2696    0.0000 C   0  0  0  0  0  0  0  0  0  0  0  0
   13.3079  -10.6821    0.0000 C   0  0  0  0  0  0  0  0  0  0  0  0
   12.5934  -10.2696    0.0000 C   0  0  0  0  0  0  0  0  0  0  0  0
   11.8789  -10.6821    0.0000 C   0  0  0  0  0  0  0  0  0  0  0  0
   11.1645  -10.2696    0.0000 C   0  0  0  0  0  0  0  0  0  0  0  0
   10.4500  -10.6821    0.0000 C   0  0  0  0  0  0  0  0  0  0  0  0
    9.7355  -10.2696    0.0000 C   0  0  0  0  0  0  0  0  0  0  0  0
    9.0211  -10.6821    0.0000 C   0  0  0  0  0  0  0  0  0  0  0  0
    8.3066  -10.2696    0.0000 C   0  0  0  0  0  0  0  0  0  0  0  0
    7.5921  -10.6821    0.0000 C   0  0  0  0  0  0  0  0  0  0  0  0
    6.8776  -10.2696    0.0000 C   0  0  0  0  0  0  0  0  0  0  0  0
    6.1632  -10.6821    0.0000 C   0  0  0  0  0  0  0  0  0  0  0  0
    5.4487  -10.2696    0.0000 C   0  0  0  0  0  0  0  0  0  0  0  0
    4.7342  -10.6821    0.0000 C   0  0  0  0  0  0  0  0  0  0  0  0
    4.0198  -10.2696    0.0000 C   0  0  0  0  0  0  0  0  0  0  0  0
    3.3053  -10.6821    0.0000 C   0  0  0  0  0  0  0  0  0  0  0  0
    2.5908  -10.2696    0.0000 C   0  0  0  0  0  0  0  0  0  0  0  0
  2  1  1  0  0  0  0
 28  2  1  0  0  0  0
 28  3  2  0  0  0  0
  5  4  1  0  0  0  0
  6  5  1  0  0  0  0
  7  6  1  0  0  0  0
  8  7  1  0  0  0  0
  9  8  1  0  0  0  0
 10  9  1  0  0  0  0
 11 10  1  0  0  0  0
 12 11  1  0  0  0  0
 13 12  1  0  0  0  0
 14 13  1  0  0  0  0
 15 14  1  0  0  0  0
 16 15  1  0  0  0  0
 17 16  1  0  0  0  0
 18 17  1  0  0  0  0
 19 18  1  0  0  0  0
 20 19  1  0  0  0  0
 21 20  1  0  0  0  0
 22 21  1  0  0  0  0
 23 22  1  0  0  0  0
 24 23  1  0  0  0  0
 25 24  1  0  0  0  0
 26 25  1  0  0  0  0
 27 26  1  0  0  0  0
 28 27  1  0  0  0  0
M  END
>  <cdx:groupId>
164

>  <cdx:fragmentId>
9

$$$$
