39826.cdx
  Mrv1902 05222410212D          

 31 30  0  0  0  0            999 V2000
    0.4194  -10.7921    0.0000 C   0  0  0  0  0  0  0  0  0  0  0  0
    1.1338  -11.2046    0.0000 O   0  0  0  0  0  0  0  0  0  0  0  0
    1.8483   -9.9671    0.0000 O   0  0  0  0  0  0  0  0  0  0  0  0
   21.1390  -11.2046    0.0000 C   0  0  0  0  0  0  0  0  0  0  0  0
   20.4246  -10.7921    0.0000 C   0  0  0  0  0  0  0  0  0  0  0  0
   19.7101  -11.2046    0.0000 C   0  0  0  0  0  0  0  0  0  0  0  0
   18.9956  -10.7921    0.0000 C   0  0  0  0  0  0  0  0  0  0  0  0
   18.2811  -11.2046    0.0000 C   0  0  0  0  0  0  0  0  0  0  0  0
   17.5667  -10.7921    0.0000 C   0  0  0  0  0  0  0  0  0  0  0  0
   16.8522  -11.2046    0.0000 C   0  0  0  0  0  0  0  0  0  0  0  0
   16.1377  -10.7921    0.0000 C   0  0  0  0  0  0  0  0  0  0  0  0
   15.4233  -11.2046    0.0000 C   0  0  0  0  0  0  0  0  0  0  0  0
   14.7088  -10.7921    0.0000 C   0  0  0  0  0  0  0  0  0  0  0  0
   13.9943  -11.2046    0.0000 C   0  0  0  0  0  0  0  0  0  0  0  0
   13.2799  -10.7921    0.0000 C   0  0  0  0  0  0  0  0  0  0  0  0
   12.5654  -11.2046    0.0000 C   0  0  0  0  0  0  0  0  0  0  0  0
   11.8509  -10.7921    0.0000 C   0  0  0  0  0  0  0  0  0  0  0  0
   11.1364  -11.2046    0.0000 C   0  0  0  0  0  0  0  0  0  0  0  0
   10.4220  -10.7921    0.0000 C   0  0  0  0  0  0  0  0  0  0  0  0
    9.7075  -11.2046    0.0000 C   0  0  0  0  0  0  0  0  0  0  0  0
    8.9930  -10.7921    0.0000 C   0  0  0  0  0  0  0  0  0  0  0  0
    8.2786  -11.2046    0.0000 C   0  0  0  0  0  0  0  0  0  0  0  0
    7.5641  -10.7921    0.0000 C   0  0  0  0  0  0  0  0  0  0  0  0
    6.8496  -11.2046    0.0000 C   0  0  0  0  0  0  0  0  0  0  0  0
    6.1351  -10.7921    0.0000 C   0  0  0  0  0  0  0  0  0  0  0  0
    5.4207  -11.2046    0.0000 C   0  0  0  0  0  0  0  0  0  0  0  0
    4.7062  -10.7921    0.0000 C   0  0  0  0  0  0  0  0  0  0  0  0
    3.9917  -11.2046    0.0000 C   0  0  0  0  0  0  0  0  0  0  0  0
    3.2773  -10.7921    0.0000 C   0  0  0  0  0  0  0  0  0  0  0  0
    2.5628  -11.2046    0.0000 C   0  0  0  0  0  0  0  0  0  0  0  0
    1.8483  -10.7921    0.0000 C   0  0  0  0  0  0  0  0  0  0  0  0
  2  1  1  0  0  0  0
 31  2  1  0  0  0  0
 31  3  2  0  0  0  0
  5  4  1  0  0  0  0
  6  5  1  0  0  0  0
  7  6  1  0  0  0  0
  8  7  1  0  0  0  0
  9  8  1  0  0  0  0
 10  9  1  0  0  0  0
 11 10  1  0  0  0  0
 12 11  1  0  0  0  0
 13 12  1  0  0  0  0
 14 13  1  0  0  0  0
 15 14  1  0  0  0  0
 16 15  1  0  0  0  0
 17 16  1  0  0  0  0
 18 17  1  0  0  0  0
 19 18  1  0  0  0  0
 20 19  1  0  0  0  0
 21 20  1  0  0  0  0
 22 21  1  0  0  0  0
 23 22  1  0  0  0  0
 24 23  1  0  0  0  0
 25 24  1  0  0  0  0
 26 25  1  0  0  0  0
 27 26  1  0  0  0  0
 28 27  1  0  0  0  0
 29 28  1  0  0  0  0
 30 29  1  0  0  0  0
 31 30  1  0  0  0  0
M  END
>  <cdx:groupId>
98

>  <cdx:fragmentId>
9

$$$$
