39829.cdx
  Mrv1902 05222410252D          

 37 36  0  0  0  0            999 V2000
   26.5285  -11.1545    0.0000 C   0  0  0  0  0  0  0  0  0  0  0  0
   25.8140  -10.7420    0.0000 C   0  0  0  0  0  0  0  0  0  0  0  0
   25.0996  -11.1545    0.0000 C   0  0  0  0  0  0  0  0  0  0  0  0
   24.3851  -10.7420    0.0000 C   0  0  0  0  0  0  0  0  0  0  0  0
   23.6706  -11.1545    0.0000 C   0  0  0  0  0  0  0  0  0  0  0  0
   22.9562  -10.7420    0.0000 C   0  0  0  0  0  0  0  0  0  0  0  0
   22.2417  -11.1545    0.0000 C   0  0  0  0  0  0  0  0  0  0  0  0
   21.5272  -10.7420    0.0000 C   0  0  0  0  0  0  0  0  0  0  0  0
   20.8127  -11.1545    0.0000 C   0  0  0  0  0  0  0  0  0  0  0  0
   20.0983  -10.7420    0.0000 C   0  0  0  0  0  0  0  0  0  0  0  0
   19.3838  -11.1545    0.0000 C   0  0  0  0  0  0  0  0  0  0  0  0
   18.6693  -10.7420    0.0000 C   0  0  0  0  0  0  0  0  0  0  0  0
   17.9549  -11.1545    0.0000 C   0  0  0  0  0  0  0  0  0  0  0  0
   17.2404  -10.7420    0.0000 C   0  0  0  0  0  0  0  0  0  0  0  0
   16.5259  -11.1545    0.0000 C   0  0  0  0  0  0  0  0  0  0  0  0
   15.8114  -10.7420    0.0000 C   0  0  0  0  0  0  0  0  0  0  0  0
   15.0970  -11.1545    0.0000 C   0  0  0  0  0  0  0  0  0  0  0  0
   14.3825  -10.7420    0.0000 C   0  0  0  0  0  0  0  0  0  0  0  0
   13.6680  -11.1545    0.0000 C   0  0  0  0  0  0  0  0  0  0  0  0
   12.9536  -10.7420    0.0000 C   0  0  0  0  0  0  0  0  0  0  0  0
   12.2391  -11.1545    0.0000 C   0  0  0  0  0  0  0  0  0  0  0  0
   11.5246  -10.7420    0.0000 C   0  0  0  0  0  0  0  0  0  0  0  0
   10.8101  -11.1545    0.0000 C   0  0  0  0  0  0  0  0  0  0  0  0
   10.0957  -10.7420    0.0000 C   0  0  0  0  0  0  0  0  0  0  0  0
    9.3812  -11.1545    0.0000 C   0  0  0  0  0  0  0  0  0  0  0  0
    8.6667  -10.7420    0.0000 C   0  0  0  0  0  0  0  0  0  0  0  0
    7.9523  -11.1545    0.0000 C   0  0  0  0  0  0  0  0  0  0  0  0
    7.2378  -10.7420    0.0000 C   0  0  0  0  0  0  0  0  0  0  0  0
    6.5233  -11.1545    0.0000 C   0  0  0  0  0  0  0  0  0  0  0  0
    5.8088  -10.7420    0.0000 C   0  0  0  0  0  0  0  0  0  0  0  0
    5.0944  -11.1545    0.0000 C   0  0  0  0  0  0  0  0  0  0  0  0
    4.3799  -10.7420    0.0000 C   0  0  0  0  0  0  0  0  0  0  0  0
    3.6654  -11.1545    0.0000 O   0  0  0  0  0  0  0  0  0  0  0  0
    2.5385  -11.4565    0.0000 C   0  0  0  0  0  0  0  0  0  0  0  0
    3.3635  -10.0275    0.0000 C   0  0  0  0  0  0  0  0  0  0  0  0
    2.2365  -10.3295    0.0000 C   0  0  0  0  0  0  0  0  0  0  0  0
    2.9510  -10.7420    0.0000 Si  0  0  0  0  0  0  0  0  0  0  0  0
 37 33  1  0  0  0  0
 33 32  1  0  0  0  0
  2  1  1  0  0  0  0
  3  2  1  0  0  0  0
  4  3  1  0  0  0  0
  5  4  1  0  0  0  0
  6  5  1  0  0  0  0
  7  6  1  0  0  0  0
  8  7  1  0  0  0  0
  9  8  1  0  0  0  0
 10  9  1  0  0  0  0
 11 10  1  0  0  0  0
 12 11  1  0  0  0  0
 13 12  1  0  0  0  0
 14 13  1  0  0  0  0
 15 14  1  0  0  0  0
 16 15  1  0  0  0  0
 17 16  1  0  0  0  0
 18 17  1  0  0  0  0
 19 18  1  0  0  0  0
 20 19  1  0  0  0  0
 21 20  1  0  0  0  0
 22 21  1  0  0  0  0
 23 22  1  0  0  0  0
 24 23  1  0  0  0  0
 25 24  1  0  0  0  0
 26 25  1  0  0  0  0
 27 26  1  0  0  0  0
 28 27  1  0  0  0  0
 29 28  1  0  0  0  0
 30 29  1  0  0  0  0
 31 30  1  0  0  0  0
 32 31  1  0  0  0  0
 37 34  1  0  0  0  0
 37 35  1  0  0  0  0
 37 36  1  0  0  0  0
M  END
>  <cdx:groupId>
430

>  <cdx:fragmentId>
19

$$$$
