39832.cdx
  Mrv1902 05222410212D          

 14 14  0  0  0  0            999 V2000
    6.7539   -7.5883    0.0000 C   0  0  0  0  0  0  0  0  0  0  0  0
    6.7539   -6.7633    0.0000 C   0  0  0  0  0  0  0  0  0  0  0  0
    6.0395   -6.3508    0.0000 C   0  0  0  0  0  0  0  0  0  0  0  0
    5.3250   -6.7633    0.0000 C   0  0  0  0  0  0  0  0  0  0  0  0
    5.3250   -7.5883    0.0000 C   0  0  0  0  0  0  0  0  0  0  0  0
    6.0395   -8.0008    0.0000 C   0  0  0  0  0  0  0  0  0  0  0  0
    7.4684   -8.0008    0.0000 C   0  0  0  0  0  0  0  0  0  0  0  0
    7.4684   -8.8258    0.0000 O   0  0  0  0  0  0  0  0  0  0  0  0
    8.1829   -7.5883    0.0000 O   0  0  0  0  0  0  0  0  0  0  0  0
    7.4684   -6.3508    0.0000 C   0  0  0  0  0  0  0  0  0  0  0  0
    7.4684   -5.5258    0.0000 O   0  0  0  0  0  0  0  0  0  0  0  0
    8.1829   -6.7633    0.0000 O   0  0  0  0  0  0  0  0  0  0  0  0
    6.0395   -8.8258    0.0000 O   0  0  0  0  0  0  0  0  0  0  0  0
    6.0395   -5.5258    0.0000 O   0  0  0  0  0  0  0  0  0  0  0  0
  1  2  1  0  0  0  0
  2  3  2  0  0  0  0
  3  4  1  0  0  0  0
  4  5  2  0  0  0  0
  5  6  1  0  0  0  0
  1  6  2  0  0  0  0
  7  8  2  0  0  0  0
  7  9  1  0  0  0  0
  1  7  1  0  0  0  0
 10 11  2  0  0  0  0
 10 12  1  0  0  0  0
  2 10  1  0  0  0  0
  6 13  1  0  0  0  0
  3 14  1  0  0  0  0
M  END
>  <cdx:groupId>
107

>  <cdx:fragmentId>
9

$$$$
