39833.cdx
  Mrv1902 05222410212D          

 12 12  0  0  0  0            999 V2000
    7.7126   -7.5866    0.0000 C   0  0  0  0  0  0  0  0  0  0  0  0
    7.9736   -8.3693    0.0000 C   0  0  0  0  0  0  0  0  0  0  0  0
    8.7985   -8.3630    0.0000 C   0  0  0  0  0  0  0  0  0  0  0  0
    9.0475   -7.5764    0.0000 O   0  0  0  0  0  0  0  0  0  0  0  0
    8.3763   -7.0966    0.0000 C   0  0  0  0  0  0  0  0  0  0  0  0
    9.2885   -9.0267    0.0000 O   0  0  0  0  0  0  0  0  0  0  0  0
    7.4937   -9.0404    0.0000 O   0  0  0  0  0  0  0  0  0  0  0  0
    6.9261   -7.3377    0.0000 O   0  0  0  0  0  0  0  0  0  0  0  0
    8.3700   -6.2716    0.0000 C   0  0  0  0  0  0  0  0  0  0  0  0
    7.6524   -5.8646    0.0000 O   0  0  0  0  0  0  0  0  0  0  0  0
    9.0813   -5.8537    0.0000 C   0  0  0  0  0  0  0  0  0  0  0  0
    9.0813   -5.0287    0.0000 O   0  0  0  0  0  0  0  0  0  0  0  0
  1  2  1  0  0  0  0
  2  3  1  0  0  0  0
  3  4  1  0  0  0  0
  4  5  1  0  0  0  0
  5  1  1  0  0  0  0
  3  6  2  0  0  0  0
  2  7  2  0  0  0  0
  1  8  1  0  0  0  0
  5  9  1  0  0  0  0
  9 10  1  0  0  0  0
  9 11  1  0  0  0  0
 11 12  1  0  0  0  0
M  END
>  <cdx:fragmentId>
152

$$$$
