2339.cdx
  Mrv1902 05222410232D          

 12 13  0  0  0  0            999 V2000
   11.9158   -8.5066    0.0000 C   0  0  0  0  0  0  0  0  0  0  0  0
   11.2014   -8.9191    0.0000 C   0  0  0  0  0  0  0  0  0  0  0  0
   10.4869   -8.5066    0.0000 C   0  0  0  0  0  0  0  0  0  0  0  0
   10.4869   -7.6816    0.0000 C   0  0  0  0  0  0  0  0  0  0  0  0
   11.2014   -7.2691    0.0000 C   0  0  0  0  0  0  0  0  0  0  0  0
   11.9158   -7.6816    0.0000 C   0  0  0  0  0  0  0  0  0  0  0  0
   12.6303   -8.0941    0.0000 C   0  0  0  0  0  0  0  0  0  0  0  0
   11.2014   -9.7441    0.0000 O   0  0  0  0  0  0  0  0  0  0  0  0
   11.2014   -6.4441    0.0000 O   0  0  0  0  0  0  0  0  0  0  0  0
   13.3448   -7.6816    0.0000 C   0  0  0  0  0  0  0  0  0  0  0  0
   13.3448   -8.5066    0.0000 C   0  0  0  0  0  0  0  0  0  0  0  0
    9.7724   -8.9191    0.0000 C   0  0  0  0  0  0  0  0  0  0  0  0
  1  2  1  0  0  0  0
  2  3  1  0  0  0  0
  3  4  2  0  0  0  0
  4  5  1  0  0  0  0
  5  6  1  0  0  0  0
  6  7  1  0  0  0  0
  1  7  1  0  0  0  0
  1  6  1  0  0  0  0
  2  8  2  0  0  0  0
  5  9  2  0  0  0  0
  7 10  1  0  0  0  0
  7 11  1  0  0  0  0
  3 12  1  0  0  0  0
M  END
>  <cdx:groupId>
43

>  <cdx:fragmentId>
9

$$$$
