39831.cdx
  Mrv1902 05222410202D          

 13 12  0  0  0  0            999 V2000
    7.1590   -7.6231    0.0000 C   0  0  1  0  0  0  0  0  0  0  0  0
    7.1685   -8.4481    0.0000 C   0  0  0  0  0  0  0  0  0  0  0  0
    7.8877   -8.8523    0.0000 C   0  0  0  0  0  0  0  0  0  0  0  0
    7.8971   -9.6773    0.0000 C   0  0  0  0  0  0  0  0  0  0  0  0
    8.5879   -7.6067    0.0000 O   0  0  0  0  0  0  0  0  0  0  0  0
    7.1874  -10.0980    0.0000 O   0  0  0  0  0  0  0  0  0  0  0  0
    8.6163  -10.0816    0.0000 O   0  0  0  0  0  0  0  0  0  0  0  0
    6.4399   -7.2188    0.0000 N   0  0  0  0  0  0  0  0  0  0  0  0
    7.8593   -6.3775    0.0000 O   0  0  0  0  0  0  0  0  0  0  0  0
    7.8687   -7.2024    0.0000 C   0  0  0  0  0  0  0  0  0  0  0  0
    5.7397   -8.4645    0.0000 O   0  0  0  0  0  0  0  0  0  0  0  0
    5.0110   -7.2352    0.0000 C   0  0  0  0  0  0  0  0  0  0  0  0
    5.7302   -7.6395    0.0000 C   0  0  0  0  0  0  0  0  0  0  0  0
 10  5  1  0  0  0  0
 10  9  2  0  0  0  0
 13  8  1  0  0  0  0
 13 11  2  0  0  0  0
 13 12  1  0  0  0  0
  1 10  1  0  0  0  0
  1  2  1  0  0  0  0
  2  3  1  0  0  0  0
  3  4  1  0  0  0  0
  4  6  2  0  0  0  0
  4  7  1  0  0  0  0
  1  8  1  1  0  0  0
M  END
>  <cdx:groupId>
323

>  <cdx:fragmentId>
7

$$$$
