2338.cdx
  Mrv1902 05222410232D          

 11 12  0  0  0  0            999 V2000
   13.0760   -9.0047    0.0000 C   0  0  0  0  0  0  0  0  0  0  0  0
   12.3615   -9.4172    0.0000 C   0  0  0  0  0  0  0  0  0  0  0  0
   11.6470   -9.0047    0.0000 C   0  0  0  0  0  0  0  0  0  0  0  0
   11.6470   -8.1797    0.0000 C   0  0  0  0  0  0  0  0  0  0  0  0
   12.3615   -7.7672    0.0000 C   0  0  0  0  0  0  0  0  0  0  0  0
   13.0760   -8.1797    0.0000 C   0  0  0  0  0  0  0  0  0  0  0  0
   13.7905   -8.5922    0.0000 C   0  0  0  0  0  0  0  0  0  0  0  0
   12.3615  -10.2422    0.0000 O   0  0  0  0  0  0  0  0  0  0  0  0
   14.5049   -8.1797    0.0000 C   0  0  0  0  0  0  0  0  0  0  0  0
   14.5049   -9.0047    0.0000 C   0  0  0  0  0  0  0  0  0  0  0  0
   10.9326   -7.7672    0.0000 C   0  0  0  0  0  0  0  0  0  0  0  0
  1  2  1  0  0  0  0
  2  3  1  0  0  0  0
  3  4  2  0  0  0  0
  4  5  1  0  0  0  0
  5  6  1  0  0  0  0
  6  7  1  0  0  0  0
  1  7  1  0  0  0  0
  1  6  1  0  0  0  0
  2  8  2  0  0  0  0
  7  9  1  0  0  0  0
  7 10  1  0  0  0  0
  4 11  1  0  0  0  0
M  END
>  <cdx:groupId>
40

>  <cdx:fragmentId>
9

$$$$
