39834.cdx
  Mrv1902 05222410222D          

 29 30  0  0  0  0            999 V2000
    8.1881   -9.9805    0.0000 C   0  0  0  0  0  0  0  0  0  0  0  0
    8.9108  -10.3784    0.0000 O   0  0  0  0  0  0  0  0  0  0  0  0
    7.4821  -10.4075    0.0000 N   0  0  0  0  0  0  0  0  0  0  0  0
    8.8772   -8.7287    0.0000 N   0  0  0  0  0  0  0  0  0  0  0  0
    8.9276  -11.2032    0.0000 C   0  0  0  0  0  0  0  0  0  0  0  0
    6.0703  -11.2614    0.0000 C   0  0  0  0  0  0  0  0  0  0  0  0
    6.7930  -11.6593    0.0000 C   0  0  0  0  0  0  0  0  0  0  0  0
    6.8098  -12.4841    0.0000 C   0  0  0  0  0  0  0  0  0  0  0  0
    7.5325  -12.8820    0.0000 C   0  0  0  0  0  0  0  0  0  0  0  0
    8.2384  -12.4550    0.0000 C   0  0  0  0  0  0  0  0  0  0  0  0
    8.2216  -11.6302    0.0000 C   0  0  0  0  0  0  0  0  0  0  0  0
    7.4989  -11.2323    0.0000 C   0  0  0  0  0  0  0  0  0  0  0  0
    7.4485   -8.7578    0.0000 C   0  0  0  0  0  0  0  0  0  0  0  0
    8.1713   -9.1557    0.0000 C   0  0  0  0  0  0  0  0  0  0  0  0
    6.7594  -10.0096    0.0000 C   0  0  0  0  0  0  0  0  0  0  0  0
    6.0535  -10.4366    0.0000 O   0  0  0  0  0  0  0  0  0  0  0  0
    6.7426   -9.1848    0.0000 O   0  0  0  0  0  0  0  0  0  0  0  0
    5.3308  -10.0387    0.0000 C   0  0  2  0  0  0  0  0  0  0  0  0
    5.3054   -9.2141    0.0000 O   0  0  0  0  0  0  0  0  0  0  0  0
    4.5786   -8.8237    0.0000 C   0  0  1  0  0  0  0  0  0  0  0  0
    3.8772   -9.2580    0.0000 C   0  0  2  0  0  0  0  0  0  0  0  0
    3.8772  -10.0826    0.0000 C   0  0  1  0  0  0  0  0  0  0  0  0
    4.5786  -10.4730    0.0000 C   0  0  1  0  0  0  0  0  0  0  0  0
    4.5533   -7.9991    0.0000 C   0  0  0  0  0  0  0  0  0  0  0  0
    3.1660  -10.5007    0.0000 O   0  0  0  0  0  0  0  0  0  0  0  0
    4.5851  -11.2979    0.0000 O   0  0  0  0  0  0  0  0  0  0  0  0
    3.1564   -8.8565    0.0000 O   0  0  0  0  0  0  0  0  0  0  0  0
    5.2548   -7.5649    0.0000 O   0  0  0  0  0  0  0  0  0  0  0  0
    3.8265   -7.6088    0.0000 O   0  0  0  0  0  0  0  0  0  0  0  0
  3 12  1  0  0  0  0
 11  5  1  0  0  0  0
  7  6  1  0  0  0  0
 12  7  2  0  0  0  0
  8  7  1  0  0  0  0
  9  8  2  0  0  0  0
 10  9  1  0  0  0  0
 11 10  2  0  0  0  0
 12 11  1  0  0  0  0
 14  4  1  0  0  0  0
 14 13  1  0  0  0  0
  1 14  1  0  0  0  0
  1  2  2  0  0  0  0
  1  3  1  0  0  0  0
  3 15  1  0  0  0  0
 15 16  1  0  0  0  0
 15 17  2  0  0  0  0
 18 16  1  1  0  0  0
 18 19  1  0  0  0  0
 19 20  1  0  0  0  0
 20 21  1  0  0  0  0
 21 22  1  0  0  0  0
 22 23  1  0  0  0  0
 23 18  1  0  0  0  0
 20 24  1  1  0  0  0
 22 25  1  1  0  0  0
 23 26  1  6  0  0  0
 21 27  1  6  0  0  0
 24 28  2  0  0  0  0
 24 29  1  0  0  0  0
M  END
>  <cdx:fragmentId>
381

$$$$
