2341.cdx
  Mrv1902 05222410192D          

 15 15  0  0  0  0            999 V2000
   12.4113   -9.0899    0.0000 C   0  0  0  0  0  0  0  0  0  0  0  0
   13.1258   -8.6774    0.0000 C   0  0  0  0  0  0  0  0  0  0  0  0
   13.1258   -7.8524    0.0000 C   0  0  0  0  0  0  0  0  0  0  0  0
   12.4113   -7.4399    0.0000 C   0  0  0  0  0  0  0  0  0  0  0  0
   11.6968   -7.8524    0.0000 C   0  0  0  0  0  0  0  0  0  0  0  0
   11.6968   -8.6774    0.0000 C   0  0  0  0  0  0  0  0  0  0  0  0
   13.8402   -9.0899    0.0000 C   0  0  0  0  0  0  0  0  0  0  0  0
   14.5547   -8.6774    0.0000 C   0  0  0  0  0  0  0  0  0  0  0  0
   15.2692   -9.0899    0.0000 C   0  0  0  0  0  0  0  0  0  0  0  0
   15.9837   -8.6774    0.0000 C   0  0  0  0  0  0  0  0  0  0  0  0
   15.2692   -9.9149    0.0000 O   0  0  0  0  0  0  0  0  0  0  0  0
   13.8402   -9.9149    0.0000 C   0  0  0  0  0  0  0  0  0  0  0  0
   13.5383   -7.1379    0.0000 C   0  0  0  0  0  0  0  0  0  0  0  0
   13.9508   -7.8524    0.0000 C   0  0  0  0  0  0  0  0  0  0  0  0
   12.4113   -9.9149    0.0000 C   0  0  0  0  0  0  0  0  0  0  0  0
  1  2  2  0  0  0  0
  2  3  1  0  0  0  0
  3  4  1  0  0  0  0
  4  5  1  0  0  0  0
  5  6  1  0  0  0  0
  1  6  1  0  0  0  0
  7  8  2  0  0  0  0
  8  9  1  0  0  0  0
  9 10  1  0  0  0  0
  9 11  2  0  0  0  0
  7 12  1  0  0  0  0
  2  7  1  0  0  0  0
  3 13  1  0  0  0  0
  3 14  1  0  0  0  0
  1 15  1  0  0  0  0
M  END
>  <cdx:groupId>
52

>  <cdx:fragmentId>
10

$$$$
