2346.cdx
  Mrv1902 05222410182D          

  9  8  0  0  0  0            999 V2000
   14.3490   -6.6676    0.0000 C   0  0  0  0  0  0  0  0  0  0  0  0
   13.6346   -7.0801    0.0000 C   0  0  0  0  0  0  0  0  0  0  0  0
   12.9201   -6.6676    0.0000 C   0  0  0  0  0  0  0  0  0  0  0  0
   12.2056   -7.0801    0.0000 C   0  0  0  0  0  0  0  0  0  0  0  0
   11.4911   -6.6676    0.0000 C   0  0  0  0  0  0  0  0  0  0  0  0
   10.7767   -7.0801    0.0000 C   0  0  0  0  0  0  0  0  0  0  0  0
   14.3490   -5.8426    0.0000 O   0  0  0  0  0  0  0  0  0  0  0  0
   15.0635   -7.0801    0.0000 O   0  0  0  0  0  0  0  0  0  0  0  0
   12.9201   -5.8426    0.0000 O   0  0  0  0  0  0  0  0  0  0  0  0
  1  2  1  0  0  0  0
  2  3  1  0  0  0  0
  3  4  1  0  0  0  0
  4  5  1  0  0  0  0
  5  6  1  0  0  0  0
  1  7  2  0  0  0  0
  1  8  1  0  0  0  0
  3  9  1  0  0  0  0
M  END
>  <cdx:groupId>
32

>  <cdx:fragmentId>
9

$$$$
