39849.cdx
  Mrv1902 05222410272D          

 12 11  0  0  0  0            999 V2000
    8.7302   -8.7021    0.0000 C   0  0  0  0  0  0  0  0  0  0  0  0
    8.0157   -8.2896    0.0000 C   0  0  0  0  0  0  0  0  0  0  0  0
    7.3013   -8.7021    0.0000 C   0  0  0  0  0  0  0  0  0  0  0  0
    6.5868   -8.2896    0.0000 C   0  0  0  0  0  0  0  0  0  0  0  0
    8.7302   -9.5271    0.0000 O   0  0  0  0  0  0  0  0  0  0  0  0
    9.4447   -8.2896    0.0000 O   0  0  0  0  0  0  0  0  0  0  0  0
    7.3013   -9.5271    0.0000 O   0  0  0  0  0  0  0  0  0  0  0  0
    5.8723   -8.7021    0.0000 O   0  0  0  0  0  0  0  0  0  0  0  0
    5.1578   -8.2896    0.0000 C   0  0  0  0  0  0  0  0  0  0  0  0
    5.1578   -7.4646    0.0000 O   0  0  0  0  0  0  0  0  0  0  0  0
    4.4434   -8.7021    0.0000 C   0  0  0  0  0  0  0  0  0  0  0  0
   10.1591   -8.7021    0.0000 C   0  0  0  0  0  0  0  0  0  0  0  0
  1  2  1  0  0  0  0
  2  3  1  0  0  0  0
  3  4  1  0  0  0  0
  1  5  2  0  0  0  0
  1  6  1  0  0  0  0
  3  7  1  0  0  0  0
  9 10  2  0  0  0  0
  9 11  1  0  0  0  0
  8  9  1  0  0  0  0
  4  8  1  0  0  0  0
  6 12  1  0  0  0  0
M  END
>  <cdx:groupId>
41

>  <cdx:fragmentId>
296

$$$$
