39847.cdx
  Mrv1902 05222410182D          

 22 23  0  0  0  0            999 V2000
   10.0228   -6.4411    0.0000 C   0  0  0  0  0  0  0  0  0  0  0  0
    9.3077   -6.8525    0.0000 C   0  0  0  0  0  0  0  0  0  0  0  0
    9.3065   -7.6775    0.0000 C   0  0  0  0  0  0  0  0  0  0  0  0
    8.5913   -8.0889    0.0000 C   0  0  0  0  0  0  0  0  0  0  0  0
    7.8775   -7.6753    0.0000 C   0  0  0  0  0  0  0  0  0  0  0  0
    7.8788   -6.8503    0.0000 C   0  0  0  0  0  0  0  0  0  0  0  0
    8.5939   -6.4389    0.0000 C   0  0  0  0  0  0  0  0  0  0  0  0
   10.0241   -5.6161    0.0000 O   0  0  0  0  0  0  0  0  0  0  0  0
   10.7367   -6.8547    0.0000 O   0  0  0  0  0  0  0  0  0  0  0  0
    7.1650   -6.4367    0.0000 O   0  0  0  0  0  0  0  0  0  0  0  0
    5.7360   -6.4345    0.0000 O   0  0  0  0  0  0  0  0  0  0  0  0
    6.4499   -6.8481    0.0000 C   0  0  2  0  0  0  0  0  0  0  0  0
    6.4486   -7.6731    0.0000 C   0  0  1  0  0  0  0  0  0  0  0  0
    5.7335   -8.0845    0.0000 C   0  0  2  0  0  0  0  0  0  0  0  0
    5.0196   -7.6709    0.0000 C   0  0  1  0  0  0  0  0  0  0  0  0
    5.0209   -6.8459    0.0000 C   0  0  1  0  0  0  0  0  0  0  0  0
    4.3071   -6.4322    0.0000 C   0  0  0  0  0  0  0  0  0  0  0  0
    3.5920   -6.8436    0.0000 O   0  0  0  0  0  0  0  0  0  0  0  0
    4.3045   -8.0822    0.0000 O   0  0  0  0  0  0  0  0  0  0  0  0
    5.7322   -8.9095    0.0000 O   0  0  0  0  0  0  0  0  0  0  0  0
    7.1624   -8.0867    0.0000 O   0  0  0  0  0  0  0  0  0  0  0  0
   10.0203   -8.0911    0.0000 O   0  0  0  0  0  0  0  0  0  0  0  0
  1  2  1  0  0  0  0
  2  3  1  0  0  0  0
  3  4  2  0  0  0  0
  4  5  1  0  0  0  0
  5  6  2  0  0  0  0
  6  7  1  0  0  0  0
  2  7  2  0  0  0  0
  1  8  2  0  0  0  0
  1  9  1  0  0  0  0
 11 12  1  0  0  0  0
 12 13  1  0  0  0  0
 13 14  1  0  0  0  0
 14 15  1  0  0  0  0
 15 16  1  0  0  0  0
 11 16  1  0  0  0  0
 17 18  1  0  0  0  0
 16 17  1  1  0  0  0
 15 19  1  6  0  0  0
 14 20  1  1  0  0  0
 13 21  1  6  0  0  0
 12 10  1  1  0  0  0
  6 10  1  0  0  0  0
  3 22  1  0  0  0  0
M  END
>  <cdx:groupId>
73

>  <cdx:fragmentId>
172

$$$$
