398499.cdx
  Mrv1902 05222410182D          

 47 53  0  0  0  0            999 V2000
    9.8449   -8.6955    0.0000 O   0  0  0  0  0  0  0  0  0  0  0  0
    8.9435   -8.6465    0.0000 C   0  0  0  0  0  0  0  0  0  0  0  0
    9.2842   -9.3978    0.0000 C   0  0  0  0  0  0  0  0  0  0  0  0
    3.5464  -13.4696    0.0000 O   0  0  0  0  0  0  0  0  0  0  0  0
    3.5428  -12.6446    0.0000 C   0  0  2  0  0  0  0  0  0  0  0  0
    2.1139  -12.6508    0.0000 O   0  0  0  0  0  0  0  0  0  0  0  0
    2.8266  -12.2352    0.0000 C   0  0  1  0  0  0  0  0  0  0  0  0
    2.1067  -11.0008    0.0000 O   0  0  0  0  0  0  0  0  0  0  0  0
    2.8229  -11.4102    0.0000 C   0  0  2  0  0  0  0  0  0  0  0  0
    2.8158   -9.7603    0.0000 O   0  0  0  0  0  0  0  0  0  0  0  0
    3.5321  -10.1696    0.0000 C   0  0  0  0  0  0  0  0  0  0  0  0
    3.5356  -10.9946    0.0000 C   0  0  1  0  0  0  0  0  0  0  0  0
    4.2519  -11.4040    0.0000 O   0  0  0  0  0  0  0  0  0  0  0  0
    4.2555  -12.2290    0.0000 C   0  0  1  0  0  0  0  0  0  0  0  0
    4.9718  -12.6384    0.0000 O   0  0  0  0  0  0  0  0  0  0  0  0
    7.1065  -10.5611    0.0000 C   0  0  0  0  0  0  0  0  0  0  0  0
    7.1065  -11.3861    0.0000 C   0  0  2  0  0  0  0  0  0  0  0  0
    6.3893  -10.9786    0.0000 C   0  0  0  0  0  0  0  0  0  0  0  0
    5.6777  -11.3960    0.0000 C   0  0  0  0  0  0  0  0  0  0  0  0
    5.6834  -12.2210    0.0000 C   0  0  1  0  0  0  0  0  0  0  0  0
    6.4007  -12.6285    0.0000 C   0  0  0  0  0  0  0  0  0  0  0  0
    7.1122  -12.2111    0.0000 C   0  0  0  0  0  0  0  0  0  0  0  0
    7.8296  -12.6186    0.0000 C   0  0  0  0  0  0  0  0  0  0  0  0
    8.5412  -12.2012    0.0000 C   0  0  0  0  0  0  0  0  0  0  0  0
    9.2499  -11.7887    0.0000 H   0  0  0  0  0  0  0  0  0  0  0  0
    8.5354  -11.3762    0.0000 C   0  0  2  0  0  0  0  0  0  0  0  0
    7.8181  -11.7937    0.0000 H   0  0  0  0  0  0  0  0  0  0  0  0
    7.8181  -10.9687    0.0000 C   0  0  2  0  0  0  0  0  0  0  0  0
    7.4278   -9.5513    0.0000 O   0  0  0  0  0  0  0  0  0  0  0  0
    7.9841  -10.1605    0.0000 C   0  0  0  0  0  0  0  0  0  0  0  0
    8.8040  -10.0686    0.0000 C   0  0  0  0  0  0  0  0  0  0  0  0
    9.5572  -11.5344    0.0000 H   0  0  0  0  0  0  0  0  0  0  0  0
    9.1447  -10.8200    0.0000 C   0  0  1  0  0  0  0  0  0  0  0  0
    9.9658  -10.9005    0.0000 C   0  0  0  0  0  0  0  0  0  0  0  0
   10.4460  -10.2297    0.0000 C   0  0  0  0  0  0  0  0  0  0  0  0
   10.1053   -9.4783    0.0000 C   0  0  2  0  0  0  0  0  0  0  0  0
   11.4198  -10.1368    0.0000 C   0  0  0  0  0  0  0  0  0  0  0  0
   10.9303   -9.4726    0.0000 C   0  0  2  0  0  0  0  0  0  0  0  0
   11.7967   -9.2341    0.0000 H   0  0  0  0  0  0  0  0  0  0  0  0
   11.1798   -8.6863    0.0000 C   0  0  2  0  0  0  0  0  0  0  0  0
   11.9311   -8.3455    0.0000 N   0  0  0  0  0  0  0  0  0  0  0  0
   12.0117   -7.5245    0.0000 C   0  0  0  0  0  0  0  0  0  0  0  0
   11.4215   -6.2231    0.0000 C   0  0  0  0  0  0  0  0  0  0  0  0
   11.3409   -7.0442    0.0000 C   0  0  1  0  0  0  0  0  0  0  0  0
   10.5895   -7.3849    0.0000 C   0  0  0  0  0  0  0  0  0  0  0  0
   10.5090   -8.2060    0.0000 C   0  0  1  0  0  0  0  0  0  0  0  0
    9.9256   -7.6226    0.0000 H   0  0  0  0  0  0  0  0  0  0  0  0
 46  1  1  0  0  0  0
 36  1  1  1  0  0  0
  3  2  1  0  0  0  0
 36  3  1  0  0  0  0
 31  3  2  0  0  0  0
  5  4  1  6  0  0  0
 14  5  1  0  0  0  0
  7  5  1  0  0  0  0
  7  6  1  1  0  0  0
  9  7  1  0  0  0  0
  9  8  1  6  0  0  0
 12  9  1  0  0  0  0
 11 10  1  0  0  0  0
 12 11  1  1  0  0  0
 13 12  1  0  0  0  0
 14 13  1  0  0  0  0
 14 15  1  1  0  0  0
 20 15  1  1  0  0  0
 17 16  1  1  0  0  0
 22 17  1  0  0  0  0
 28 17  1  0  0  0  0
 18 17  1  0  0  0  0
 19 18  1  0  0  0  0
 20 19  1  0  0  0  0
 21 20  1  0  0  0  0
 22 21  1  0  0  0  0
 23 22  2  0  0  0  0
 24 23  1  0  0  0  0
 26 24  1  0  0  0  0
 26 25  1  1  0  0  0
 33 26  1  0  0  0  0
 28 26  1  0  0  0  0
 28 27  1  6  0  0  0
 30 28  1  0  0  0  0
 30 29  2  0  0  0  0
 31 30  1  0  0  0  0
 33 31  1  0  0  0  0
 33 32  1  6  0  0  0
 34 33  1  0  0  0  0
 35 34  1  0  0  0  0
 36 35  1  0  0  0  0
 38 36  1  0  0  0  0
 38 37  1  1  0  0  0
 40 38  1  0  0  0  0
 40 39  1  6  0  0  0
 46 40  1  0  0  0  0
 41 40  1  0  0  0  0
 42 41  1  0  0  0  0
 44 42  1  0  0  0  0
 44 43  1  6  0  0  0
 45 44  1  0  0  0  0
 46 45  1  0  0  0  0
 46 47  1  1  0  0  0
M  END
>  <cdx:fragmentId>
47591

$$$$
