2342.cdx
  Mrv1902 05222410202D          

  8  8  0  0  0  0            999 V2000
   10.6606   -8.6625    0.0000 C   0  0  0  0  0  0  0  0  0  0  0  0
    9.9461   -9.0750    0.0000 C   0  0  0  0  0  0  0  0  0  0  0  0
    9.2316   -8.6625    0.0000 C   0  0  0  0  0  0  0  0  0  0  0  0
    9.2316   -7.8375    0.0000 C   0  0  0  0  0  0  0  0  0  0  0  0
    9.9461   -7.4250    0.0000 C   0  0  0  0  0  0  0  0  0  0  0  0
   10.6606   -7.8375    0.0000 C   0  0  0  0  0  0  0  0  0  0  0  0
   11.3750   -9.0750    0.0000 C   0  0  0  0  0  0  0  0  0  0  0  0
   12.0895   -8.6625    0.0000 C   0  0  0  0  0  0  0  0  0  0  0  0
  1  2  1  0  0  0  0
  2  3  1  0  0  0  0
  3  4  1  0  0  0  0
  4  5  1  0  0  0  0
  5  6  1  0  0  0  0
  1  6  1  0  0  0  0
  7  8  2  0  0  0  0
  1  7  1  0  0  0  0
M  END
>  <cdx:groupId>
30

>  <cdx:fragmentId>
9

$$$$
