2345.cdx
  Mrv1902 05222410192D          

 23 26  0  0  0  0            999 V2000
   11.4597   -6.7896    0.0000 C   0  0  0  0  0  0  0  0  0  0  0  0
   12.1742   -7.2021    0.0000 C   0  0  0  0  0  0  0  0  0  0  0  0
   12.8887   -6.7896    0.0000 C   0  0  0  0  0  0  0  0  0  0  0  0
   12.8887   -5.9646    0.0000 C   0  0  0  0  0  0  0  0  0  0  0  0
   13.6031   -5.5521    0.0000 C   0  0  0  0  0  0  0  0  0  0  0  0
   13.6031   -4.7271    0.0000 C   0  0  0  0  0  0  0  0  0  0  0  0
   12.8887   -4.3146    0.0000 C   0  0  0  0  0  0  0  0  0  0  0  0
   12.1742   -4.7271    0.0000 C   0  0  0  0  0  0  0  0  0  0  0  0
   12.1742   -5.5521    0.0000 C   0  0  0  0  0  0  0  0  0  0  0  0
   11.4597   -5.9646    0.0000 C   0  0  0  0  0  0  0  0  0  0  0  0
   10.8147   -5.4502    0.0000 C   0  0  0  0  0  0  0  0  0  0  0  0
   10.0104   -5.6338    0.0000 C   0  0  0  0  0  0  0  0  0  0  0  0
    9.6525   -6.3771    0.0000 C   0  0  0  0  0  0  0  0  0  0  0  0
   10.0104   -7.1204    0.0000 C   0  0  0  0  0  0  0  0  0  0  0  0
   10.8147   -7.3040    0.0000 C   0  0  0  0  0  0  0  0  0  0  0  0
   10.6741   -6.0619    0.0000 C   0  0  0  0  0  0  0  0  0  0  0  0
   14.3176   -5.9646    0.0000 C   0  0  0  0  0  0  0  0  0  0  0  0
   14.3176   -6.7896    0.0000 O   0  0  0  0  0  0  0  0  0  0  0  0
   15.0321   -5.5521    0.0000 O   0  0  0  0  0  0  0  0  0  0  0  0
    9.4960   -7.7654    0.0000 C   0  0  0  0  0  0  0  0  0  0  0  0
   11.4597   -5.1396    0.0000 C   0  0  0  0  0  0  0  0  0  0  0  0
   13.6031   -6.3771    0.0000 C   0  0  0  0  0  0  0  0  0  0  0  0
   15.7466   -5.9646    0.0000 C   0  0  0  0  0  0  0  0  0  0  0  0
  1  2  1  0  0  0  0
  2  3  1  0  0  0  0
  3  4  1  0  0  0  0
  4  5  1  0  0  0  0
  5  6  1  0  0  0  0
  6  7  1  0  0  0  0
  7  8  1  0  0  0  0
  8  9  1  0  0  0  0
  9 10  1  0  0  0  0
 10 11  1  0  0  0  0
 11 12  1  0  0  0  0
 12 13  1  0  0  0  0
 13 14  1  0  0  0  0
 14 15  1  0  0  0  0
  1 15  1  0  0  0  0
  1 16  1  0  0  0  0
 16 13  1  0  0  0  0
  1 10  1  0  0  0  0
  4  9  1  0  0  0  0
 17 18  2  0  0  0  0
 17 19  1  0  0  0  0
  5 17  1  0  0  0  0
 14 20  2  0  0  0  0
  9 21  1  0  0  0  0
  5 22  1  0  0  0  0
 19 23  1  0  0  0  0
M  END
>  <cdx:groupId>
160

>  <cdx:fragmentId>
91

$$$$
