2343.cdx
  Mrv1902 05222410202D          

 24 27  0  0  0  0            999 V2000
   16.4294   -5.2084    0.0000 C   0  0  0  0  0  0  0  0  0  0  0  0
   16.8419   -4.4939    0.0000 O   0  0  0  0  0  0  0  0  0  0  0  0
   13.4610   -6.4459    0.0000 C   0  0  1  0  0  0  0  0  0  0  0  0
   14.1755   -6.8584    0.0000 C   0  0  0  0  0  0  0  0  0  0  0  0
   14.8899   -6.4459    0.0000 C   0  0  0  0  0  0  0  0  0  0  0  0
   14.8899   -5.6209    0.0000 C   0  0  2  0  0  0  0  0  0  0  0  0
   15.6044   -5.2084    0.0000 C   0  0  1  0  0  0  0  0  0  0  0  0
   15.6044   -4.3834    0.0000 C   0  0  0  0  0  0  0  0  0  0  0  0
   14.8899   -3.9709    0.0000 C   0  0  0  0  0  0  0  0  0  0  0  0
   14.1755   -4.3834    0.0000 C   0  0  0  0  0  0  0  0  0  0  0  0
   14.1755   -5.2084    0.0000 C   0  0  1  0  0  0  0  0  0  0  0  0
   13.4610   -5.6209    0.0000 C   0  0  2  0  0  0  0  0  0  0  0  0
   12.8160   -5.1065    0.0000 C   0  0  0  0  0  0  0  0  0  0  0  0
   12.0117   -5.2901    0.0000 C   0  0  0  0  0  0  0  0  0  0  0  0
   11.6537   -6.0334    0.0000 C   0  0  1  0  0  0  0  0  0  0  0  0
   12.0117   -6.7767    0.0000 C   0  0  0  0  0  0  0  0  0  0  0  0
   12.8160   -6.9602    0.0000 C   0  0  0  0  0  0  0  0  0  0  0  0
   12.6772   -5.7186    0.0000 C   0  0  0  0  0  0  0  0  0  0  0  0
   11.4973   -7.4217    0.0000 C   0  0  0  0  0  0  0  0  0  0  0  0
   14.1755   -6.0334    0.0000 C   0  0  0  0  0  0  0  0  0  0  0  0
   16.0169   -5.9228    0.0000 C   0  0  0  0  0  0  0  0  0  0  0  0
   15.6044   -6.0334    0.0000 H   0  0  0  0  0  0  0  0  0  0  0  0
   13.4610   -4.7959    0.0000 H   0  0  0  0  0  0  0  0  0  0  0  0
   10.8287   -6.0334    0.0000 H   0  0  0  0  0  0  0  0  0  0  0  0
  1  2  1  0  0  0  0
  3  4  1  0  0  0  0
  4  5  1  0  0  0  0
  5  6  1  0  0  0  0
  6  7  1  0  0  0  0
  7  8  1  0  0  0  0
  8  9  1  0  0  0  0
  9 10  1  0  0  0  0
 10 11  1  0  0  0  0
 11 12  1  0  0  0  0
 12 13  1  0  0  0  0
 13 14  1  0  0  0  0
 14 15  1  0  0  0  0
 15 16  1  0  0  0  0
 16 17  1  0  0  0  0
  3 17  1  0  0  0  0
  3 18  1  1  0  0  0
 15 18  1  1  0  0  0
  3 12  1  0  0  0  0
  6 11  1  0  0  0  0
 16 19  2  0  0  0  0
 11 20  1  1  0  0  0
  7 21  1  6  0  0  0
  7  1  1  1  0  0  0
  6 22  1  6  0  0  0
 12 23  1  6  0  0  0
 15 24  1  0  0  0  0
M  END
>  <cdx:groupId>
81

>  <cdx:fragmentId>
13

$$$$
