2340.cdx
  Mrv1902 05222410192D          

 15 15  0  0  0  0            999 V2000
   12.0110   -9.1781    0.0000 C   0  0  0  0  0  0  0  0  0  0  0  0
   12.0110   -8.3531    0.0000 C   0  0  0  0  0  0  0  0  0  0  0  0
   12.7254   -7.9406    0.0000 C   0  0  0  0  0  0  0  0  0  0  0  0
   13.4399   -8.3531    0.0000 C   0  0  0  0  0  0  0  0  0  0  0  0
   13.4399   -9.1781    0.0000 C   0  0  0  0  0  0  0  0  0  0  0  0
   12.7254   -9.5906    0.0000 C   0  0  0  0  0  0  0  0  0  0  0  0
   11.2965   -9.5906    0.0000 O   0  0  0  0  0  0  0  0  0  0  0  0
   12.7254  -10.4156    0.0000 C   0  0  0  0  0  0  0  0  0  0  0  0
   11.2965   -7.9406    0.0000 C   0  0  0  0  0  0  0  0  0  0  0  0
   10.5820   -7.5281    0.0000 C   0  0  0  0  0  0  0  0  0  0  0  0
   11.2965   -7.1156    0.0000 C   0  0  0  0  0  0  0  0  0  0  0  0
   10.5820   -8.3531    0.0000 C   0  0  0  0  0  0  0  0  0  0  0  0
   10.5820   -9.1781    0.0000 C   0  0  0  0  0  0  0  0  0  0  0  0
    9.8675   -9.5906    0.0000 C   0  0  0  0  0  0  0  0  0  0  0  0
    9.1531   -9.1781    0.0000 C   0  0  0  0  0  0  0  0  0  0  0  0
  1  2  1  0  0  0  0
  2  3  2  0  0  0  0
  3  4  1  0  0  0  0
  4  5  2  0  0  0  0
  5  6  1  0  0  0  0
  1  6  2  0  0  0  0
  1  7  1  0  0  0  0
  6  8  1  0  0  0  0
  9 10  1  0  0  0  0
  9 12  1  0  0  0  0
  9 11  1  0  0  0  0
  2  9  1  0  0  0  0
 13 14  1  0  0  0  0
 14 15  1  0  0  0  0
  7 13  1  0  0  0  0
M  END
>  <cdx:groupId>
51

>  <cdx:fragmentId>
9

$$$$
