39855.cdx
  Mrv1902 05222410192D          

 23 22  0  0  0  0            999 V2000
    9.4455   -9.4721    0.0000 O   0  0  0  0  0  0  0  0  0  0  0  0
   10.1600   -7.4096    0.0000 O   0  0  0  0  0  0  0  0  0  0  0  0
   13.0178   -7.4096    0.0000 O   0  0  0  0  0  0  0  0  0  0  0  0
    0.8718   -8.6471    0.0000 O   0  0  0  0  0  0  0  0  0  0  0  0
    1.5863   -7.4096    0.0000 O   0  0  0  0  0  0  0  0  0  0  0  0
   13.7323   -8.6471    0.0000 C   0  0  0  0  0  0  0  0  0  0  0  0
   13.0178   -8.2346    0.0000 C   0  0  0  0  0  0  0  0  0  0  0  0
   12.3034   -8.6471    0.0000 C   0  0  0  0  0  0  0  0  0  0  0  0
   11.5889   -8.2346    0.0000 C   0  0  0  0  0  0  0  0  0  0  0  0
   10.8744   -8.6471    0.0000 C   0  0  0  0  0  0  0  0  0  0  0  0
   10.1600   -8.2346    0.0000 C   0  0  0  0  0  0  0  0  0  0  0  0
    9.4455   -8.6471    0.0000 C   0  0  0  0  0  0  0  0  0  0  0  0
    8.7310   -8.2346    0.0000 C   0  0  0  0  0  0  0  0  0  0  0  0
    8.0165   -8.6471    0.0000 C   0  0  0  0  0  0  0  0  0  0  0  0
    7.3021   -8.2346    0.0000 C   0  0  0  0  0  0  0  0  0  0  0  0
    6.5876   -8.6471    0.0000 C   0  0  0  0  0  0  0  0  0  0  0  0
    5.8731   -8.2346    0.0000 C   0  0  0  0  0  0  0  0  0  0  0  0
    5.1587   -8.6471    0.0000 C   0  0  0  0  0  0  0  0  0  0  0  0
    4.4442   -8.2346    0.0000 C   0  0  0  0  0  0  0  0  0  0  0  0
    3.7297   -8.6471    0.0000 C   0  0  0  0  0  0  0  0  0  0  0  0
    3.0152   -8.2346    0.0000 C   0  0  0  0  0  0  0  0  0  0  0  0
    2.3008   -8.6471    0.0000 C   0  0  0  0  0  0  0  0  0  0  0  0
    1.5863   -8.2346    0.0000 C   0  0  0  0  0  0  0  0  0  0  0  0
 12  1  1  0  0  0  0
 11  2  1  0  0  0  0
  7  3  1  0  0  0  0
 23  4  1  0  0  0  0
 23  5  2  0  0  0  0
  7  6  1  0  0  0  0
  8  7  1  0  0  0  0
  9  8  1  0  0  0  0
 10  9  1  0  0  0  0
 11 10  1  0  0  0  0
 12 11  1  0  0  0  0
 13 12  1  0  0  0  0
 14 13  1  0  0  0  0
 15 14  2  0  0  0  0
 16 15  1  0  0  0  0
 17 16  1  0  0  0  0
 18 17  1  0  0  0  0
 19 18  1  0  0  0  0
 20 19  1  0  0  0  0
 21 20  1  0  0  0  0
 22 21  1  0  0  0  0
 23 22  1  0  0  0  0
M  END
>  <cdx:fragmentId>
1385

$$$$
