39853.cdx
  Mrv1902 05222410182D          

 20 21  0  0  0  0            999 V2000
    7.1091   -7.8496    0.0000 N   0  0  0  0  0  0  0  0  0  0  0  0
    7.8236   -7.4371    0.0000 C   0  0  0  0  0  0  0  0  0  0  0  0
    8.5380   -7.8496    0.0000 C   0  0  0  0  0  0  0  0  0  0  0  0
    9.2525   -7.4371    0.0000 C   0  0  0  0  0  0  0  0  0  0  0  0
    9.2525   -6.6121    0.0000 C   0  0  0  0  0  0  0  0  0  0  0  0
    9.9670   -6.1996    0.0000 C   0  0  0  0  0  0  0  0  0  0  0  0
   10.6814   -6.6121    0.0000 C   0  0  0  0  0  0  0  0  0  0  0  0
   11.3959   -6.1996    0.0000 O   0  0  0  0  0  0  0  0  0  0  0  0
   10.6814   -7.4371    0.0000 C   0  0  0  0  0  0  0  0  0  0  0  0
    9.9670   -7.8496    0.0000 C   0  0  0  0  0  0  0  0  0  0  0  0
    6.3946   -7.4371    0.0000 C   0  0  0  0  0  0  0  0  0  0  0  0
    5.6801   -7.8496    0.0000 C   0  0  0  0  0  0  0  0  0  0  0  0
    4.9657   -7.4371    0.0000 C   0  0  0  0  0  0  0  0  0  0  0  0
    4.2512   -7.8496    0.0000 C   0  0  0  0  0  0  0  0  0  0  0  0
    3.5367   -7.4371    0.0000 O   0  0  0  0  0  0  0  0  0  0  0  0
    4.2512   -8.6746    0.0000 C   0  0  0  0  0  0  0  0  0  0  0  0
    3.5367   -9.0871    0.0000 O   0  0  0  0  0  0  0  0  0  0  0  0
    4.9657   -9.0871    0.0000 C   0  0  0  0  0  0  0  0  0  0  0  0
    5.6801   -8.6746    0.0000 C   0  0  0  0  0  0  0  0  0  0  0  0
    6.3946   -6.6121    0.0000 O   0  0  0  0  0  0  0  0  0  0  0  0
  1  2  1  0  0  0  0
  2  3  1  0  0  0  0
  3  4  1  0  0  0  0
  4  5  2  0  0  0  0
  5  6  1  0  0  0  0
  6  7  2  0  0  0  0
  7  8  1  0  0  0  0
  7  9  1  0  0  0  0
  9 10  2  0  0  0  0
  4 10  1  0  0  0  0
 11 12  1  0  0  0  0
 12 13  1  0  0  0  0
 13 14  2  0  0  0  0
 14 15  1  0  0  0  0
 14 16  1  0  0  0  0
 16 17  1  0  0  0  0
 16 18  2  0  0  0  0
 18 19  1  0  0  0  0
 12 19  2  0  0  0  0
 11 20  2  0  0  0  0
  1 11  1  0  0  0  0
M  END
>  <cdx:fragmentId>
29

$$$$
