398570.cdx
  Mrv1902 05222410202D          

 25 28  0  0  0  0            999 V2000
    7.6019   -9.1386    0.0000 N   0  0  0  0  0  0  0  0  0  0  0  0
    8.0868   -8.4711    0.0000 C   0  0  0  0  0  0  0  0  0  0  0  0
    7.6019   -7.8037    0.0000 N   0  0  0  0  0  0  0  0  0  0  0  0
    6.8172   -8.0586    0.0000 C   0  0  0  0  0  0  0  0  0  0  0  0
    6.1028   -7.6461    0.0000 N   0  0  0  0  0  0  0  0  0  0  0  0
    5.3883   -8.0586    0.0000 C   0  0  0  0  0  0  0  0  0  0  0  0
    5.3883   -8.8836    0.0000 N   0  0  0  0  0  0  0  0  0  0  0  0
    6.1028   -9.2961    0.0000 C   0  0  0  0  0  0  0  0  0  0  0  0
    6.8172   -8.8836    0.0000 C   0  0  0  0  0  0  0  0  0  0  0  0
    6.1028  -10.1211    0.0000 O   0  0  0  0  0  0  0  0  0  0  0  0
    4.6738   -7.6461    0.0000 N   0  0  0  0  0  0  0  0  0  0  0  0
    8.2984   -4.3252    0.0000 P   0  0  0  0  0  0  0  0  0  0  0  0
    9.0830   -4.5801    0.0000 O   0  0  0  0  0  0  0  0  0  0  0  0
    9.2545   -5.3871    0.0000 C   0  0  0  0  0  0  0  0  0  0  0  0
    8.6414   -5.9391    0.0000 C   0  0  2  0  0  0  0  0  0  0  0  0
    7.8568   -5.6842    0.0000 C   0  0  1  0  0  0  0  0  0  0  0  0
    7.6853   -4.8772    0.0000 O   0  0  0  0  0  0  0  0  0  0  0  0
    7.3719   -6.3516    0.0000 C   0  0  2  0  0  0  0  0  0  0  0  0
    8.6414   -6.7641    0.0000 O   0  0  0  0  0  0  0  0  0  0  0  0
    7.8568   -7.0191    0.0000 C   0  0  1  0  0  0  0  0  0  0  0  0
    7.7150   -3.7418    0.0000 O   0  0  0  0  0  0  0  0  0  0  0  0
    8.7109   -3.6107    0.0000 O   0  0  0  0  0  0  0  0  0  0  0  0
    6.5469   -6.3516    0.0000 O   0  0  0  0  0  0  0  0  0  0  0  0
    9.3951   -6.2747    0.0000 H   0  0  0  0  0  0  0  0  0  0  0  0
    7.0498   -5.5126    0.0000 H   0  0  0  0  0  0  0  0  0  0  0  0
  1  2  2  0  0  0  0
  2  3  1  0  0  0  0
  3  4  1  0  0  0  0
  4  5  1  0  0  0  0
  5  6  2  0  0  0  0
  6  7  1  0  0  0  0
  7  8  1  0  0  0  0
  8  9  1  0  0  0  0
  1  9  1  0  0  0  0
  4  9  2  0  0  0  0
  8 10  2  0  0  0  0
  6 11  1  0  0  0  0
 12 13  1  0  0  0  0
 13 14  1  0  0  0  0
 14 15  1  0  0  0  0
 15 16  1  0  0  0  0
 16 17  1  0  0  0  0
 12 17  1  0  0  0  0
 19 20  1  0  0  0  0
 18 20  1  0  0  0  0
 19 15  1  0  0  0  0
 18 16  1  0  0  0  0
 20  3  1  1  0  0  0
 12 21  2  0  0  0  0
 12 22  1  0  0  0  0
 18 23  1  6  0  0  0
 15 24  1  6  0  0  0
 16 25  1  1  0  0  0
M  END
>  <cdx:fragmentId>
27

$$$$
