39850.cdx
  Mrv1902 05222410192D          

 44 48  0  0  0  0            999 V2000
    9.0325   -8.8671    0.0000 C   0  0  1  0  0  0  0  0  0  0  0  0
    9.0325   -9.6921    0.0000 C   0  0  0  0  0  0  0  0  0  0  0  0
    8.3180  -10.1046    0.0000 C   0  0  0  0  0  0  0  0  0  0  0  0
    8.3180  -10.9296    0.0000 O   0  0  0  0  0  0  0  0  0  0  0  0
    7.6036   -9.6921    0.0000 C   0  0  0  0  0  0  0  0  0  0  0  0
    6.8891  -10.1046    0.0000 C   0  0  0  0  0  0  0  0  0  0  0  0
    6.1746   -9.6921    0.0000 C   0  0  0  0  0  0  0  0  0  0  0  0
    6.1746   -8.8671    0.0000 C   0  0  0  0  0  0  0  0  0  0  0  0
    6.8891   -8.4546    0.0000 C   0  0  0  0  0  0  0  0  0  0  0  0
    7.6036   -8.8671    0.0000 C   0  0  0  0  0  0  0  0  0  0  0  0
    8.3180   -8.4546    0.0000 O   0  0  0  0  0  0  0  0  0  0  0  0
    9.7470   -8.4546    0.0000 C   0  0  0  0  0  0  0  0  0  0  0  0
    9.7470   -7.6296    0.0000 C   0  0  0  0  0  0  0  0  0  0  0  0
   10.4614   -7.2171    0.0000 C   0  0  0  0  0  0  0  0  0  0  0  0
   11.1759   -7.6296    0.0000 C   0  0  0  0  0  0  0  0  0  0  0  0
   11.1759   -8.4546    0.0000 C   0  0  0  0  0  0  0  0  0  0  0  0
   10.4614   -8.8671    0.0000 C   0  0  0  0  0  0  0  0  0  0  0  0
    5.4601   -8.4546    0.0000 O   0  0  0  0  0  0  0  0  0  0  0  0
    6.8891  -10.9296    0.0000 O   0  0  0  0  0  0  0  0  0  0  0  0
   11.8904   -7.2171    0.0000 O   0  0  0  0  0  0  0  0  0  0  0  0
    6.8891   -7.6296    0.0000 C   0  0  1  0  0  0  0  0  0  0  0  0
    6.1746   -7.2171    0.0000 C   0  0  2  0  0  0  0  0  0  0  0  0
    5.4601   -7.6296    0.0000 O   0  0  0  0  0  0  0  0  0  0  0  0
    6.1746   -6.3921    0.0000 C   0  0  1  0  0  0  0  0  0  0  0  0
    5.4601   -5.9796    0.0000 O   0  0  0  0  0  0  0  0  0  0  0  0
    6.8891   -5.9796    0.0000 C   0  0  2  0  0  0  0  0  0  0  0  0
    6.8891   -5.1546    0.0000 O   0  0  0  0  0  0  0  0  0  0  0  0
    7.6036   -6.3921    0.0000 C   0  0  2  0  0  0  0  0  0  0  0  0
    7.6036   -7.2171    0.0000 O   0  0  0  0  0  0  0  0  0  0  0  0
    8.3180   -5.9796    0.0000 C   0  0  0  0  0  0  0  0  0  0  0  0
    8.3180   -5.1546    0.0000 O   0  0  0  0  0  0  0  0  0  0  0  0
    5.4601  -10.1046    0.0000 C   0  0  1  0  0  0  0  0  0  0  0  0
    5.4601  -10.9296    0.0000 C   0  0  2  0  0  0  0  0  0  0  0  0
    6.1746  -11.3421    0.0000 O   0  0  0  0  0  0  0  0  0  0  0  0
    4.7457  -11.3421    0.0000 C   0  0  1  0  0  0  0  0  0  0  0  0
    4.7457  -12.1671    0.0000 O   0  0  0  0  0  0  0  0  0  0  0  0
    4.0312  -10.9296    0.0000 C   0  0  2  0  0  0  0  0  0  0  0  0
    3.3167  -11.3421    0.0000 O   0  0  0  0  0  0  0  0  0  0  0  0
    4.0312  -10.1046    0.0000 C   0  0  2  0  0  0  0  0  0  0  0  0
    4.7457   -9.6921    0.0000 O   0  0  0  0  0  0  0  0  0  0  0  0
    3.3167   -9.6921    0.0000 C   0  0  0  0  0  0  0  0  0  0  0  0
    2.6023  -10.1046    0.0000 O   0  0  0  0  0  0  0  0  0  0  0  0
    7.6036   -8.0421    0.0000 H   0  0  0  0  0  0  0  0  0  0  0  0
    5.4601   -9.2796    0.0000 H   0  0  0  0  0  0  0  0  0  0  0  0
  1  2  1  0  0  0  0
  2  3  1  0  0  0  0
  3  4  2  0  0  0  0
  3  5  1  0  0  0  0
  5  6  1  0  0  0  0
  6  7  2  0  0  0  0
  7  8  1  0  0  0  0
  8  9  2  0  0  0  0
  9 10  1  0  0  0  0
  5 10  2  0  0  0  0
 10 11  1  0  0  0  0
  1 11  1  0  0  0  0
  1 12  1  1  0  0  0
 12 13  1  0  0  0  0
 13 14  2  0  0  0  0
 14 15  1  0  0  0  0
 15 16  2  0  0  0  0
 16 17  1  0  0  0  0
 12 17  2  0  0  0  0
  8 18  1  0  0  0  0
  6 19  1  0  0  0  0
 15 20  1  0  0  0  0
 21 22  1  0  0  0  0
 22 23  1  6  0  0  0
 22 24  1  0  0  0  0
 24 25  1  1  0  0  0
 24 26  1  0  0  0  0
 26 27  1  6  0  0  0
 26 28  1  0  0  0  0
 28 29  1  0  0  0  0
 28 30  1  1  0  0  0
 30 31  1  0  0  0  0
 21 29  1  0  0  0  0
  9 21  1  0  0  0  0
 32 33  1  0  0  0  0
 33 34  1  6  0  0  0
 33 35  1  0  0  0  0
 35 36  1  1  0  0  0
 35 37  1  0  0  0  0
 37 38  1  6  0  0  0
 37 39  1  0  0  0  0
 39 40  1  0  0  0  0
 39 41  1  1  0  0  0
 41 42  1  0  0  0  0
 32 40  1  0  0  0  0
  7 32  1  0  0  0  0
 21 43  1  6  0  0  0
 32 44  1  6  0  0  0
M  END
>  <cdx:groupId>
154

>  <cdx:fragmentId>
9

$$$$
