39851.cdx
  Mrv1902 05222410192D          

 18 18  0  0  0  0            999 V2000
    8.3172   -8.7433    0.0000 C   0  0  0  0  0  0  0  0  0  0  0  0
    7.6027   -8.3308    0.0000 C   0  0  0  0  0  0  0  0  0  0  0  0
    7.6027   -7.5058    0.0000 C   0  0  0  0  0  0  0  0  0  0  0  0
    6.8883   -7.0933    0.0000 C   0  0  0  0  0  0  0  0  0  0  0  0
    6.1738   -7.5058    0.0000 C   0  0  0  0  0  0  0  0  0  0  0  0
    6.1738   -8.3308    0.0000 C   0  0  0  0  0  0  0  0  0  0  0  0
    6.8883   -8.7433    0.0000 C   0  0  0  0  0  0  0  0  0  0  0  0
    8.3172   -9.5683    0.0000 O   0  0  0  0  0  0  0  0  0  0  0  0
    9.0317   -8.3308    0.0000 O   0  0  0  0  0  0  0  0  0  0  0  0
    8.3172   -7.0933    0.0000 C   0  0  0  0  0  0  0  0  0  0  0  0
    9.0317   -7.5058    0.0000 C   0  0  0  0  0  0  0  0  0  0  0  0
    9.7461   -7.0933    0.0000 C   0  0  0  0  0  0  0  0  0  0  0  0
    9.7461   -6.2683    0.0000 O   0  0  0  0  0  0  0  0  0  0  0  0
   10.4606   -7.5058    0.0000 O   0  0  0  0  0  0  0  0  0  0  0  0
    4.7448   -8.3308    0.0000 C   0  0  0  0  0  0  0  0  0  0  0  0
    4.0304   -8.7433    0.0000 C   0  0  0  0  0  0  0  0  0  0  0  0
    4.7448   -7.5058    0.0000 O   0  0  0  0  0  0  0  0  0  0  0  0
    5.4593   -8.7433    0.0000 N   0  0  0  0  0  0  0  0  0  0  0  0
  1  2  1  0  0  0  0
  2  3  1  0  0  0  0
  3  4  2  0  0  0  0
  4  5  1  0  0  0  0
  5  6  2  0  0  0  0
  6  7  1  0  0  0  0
  2  7  2  0  0  0  0
  1  8  2  0  0  0  0
  1  9  1  0  0  0  0
 10 11  1  0  0  0  0
 12 13  2  0  0  0  0
 12 14  1  0  0  0  0
 11 12  1  0  0  0  0
  3 10  1  0  0  0  0
 15 16  1  0  0  0  0
 15 17  2  0  0  0  0
 15 18  1  0  0  0  0
  6 18  1  0  0  0  0
M  END
>  <cdx:fragmentId>
9

$$$$
