3985.cdx
  Mrv1902 05222410232D          

 11 11  0  0  0  0            999 V2000
    5.9845   -9.2400    0.0000 C   0  0  0  0  0  0  0  0  0  0  0  0
    5.9845  -10.0650    0.0000 C   0  0  0  0  0  0  0  0  0  0  0  0
    6.6990  -10.4775    0.0000 C   0  0  0  0  0  0  0  0  0  0  0  0
    7.4135  -10.0650    0.0000 C   0  0  0  0  0  0  0  0  0  0  0  0
    7.4135   -9.2400    0.0000 C   0  0  0  0  0  0  0  0  0  0  0  0
    6.6990   -8.8275    0.0000 C   0  0  0  0  0  0  0  0  0  0  0  0
    5.2701   -8.8275    0.0000 O   0  0  0  0  0  0  0  0  0  0  0  0
    6.6990   -8.0025    0.0000 C   0  0  0  0  0  0  0  0  0  0  0  0
    7.4135   -7.5900    0.0000 C   0  0  0  0  0  0  0  0  0  0  0  0
    7.4135   -6.7650    0.0000 C   0  0  0  0  0  0  0  0  0  0  0  0
    8.1279   -6.3525    0.0000 O   0  0  0  0  0  0  0  0  0  0  0  0
  1  2  2  0  0  0  0
  2  3  1  0  0  0  0
  3  4  2  0  0  0  0
  4  5  1  0  0  0  0
  5  6  2  0  0  0  0
  6  1  1  0  0  0  0
  1  7  1  0  0  0  0
  6  8  1  0  0  0  0
  8  9  2  0  0  0  0
  9 10  1  0  0  0  0
 10 11  2  0  0  0  0
M  END
>  <cdx:fragmentId>
5

$$$$
