39856.cdx
  Mrv1902 05222410202D          

 22 21  0  0  0  0            999 V2000
    5.6467  -10.9227    0.0000 O   0  0  0  0  0  0  0  0  0  0  0  0
    2.0743  -12.1602    0.0000 O   0  0  0  0  0  0  0  0  0  0  0  0
    2.7888  -10.9227    0.0000 O   0  0  0  0  0  0  0  0  0  0  0  0
    7.7901  -12.1602    0.0000 C   0  0  0  0  0  0  0  0  0  0  0  0
    7.0756  -11.7477    0.0000 C   0  0  0  0  0  0  0  0  0  0  0  0
    6.3611  -12.1602    0.0000 C   0  0  0  0  0  0  0  0  0  0  0  0
    5.6467  -11.7477    0.0000 C   0  0  0  0  0  0  0  0  0  0  0  0
    4.9322  -12.1602    0.0000 C   0  0  0  0  0  0  0  0  0  0  0  0
    4.2177  -11.7477    0.0000 C   0  0  0  0  0  0  0  0  0  0  0  0
    3.5033  -12.1602    0.0000 C   0  0  0  0  0  0  0  0  0  0  0  0
    2.7888  -11.7477    0.0000 C   0  0  0  0  0  0  0  0  0  0  0  0
    8.5046  -11.7477    0.0000 C   0  0  0  0  0  0  0  0  0  0  0  0
    8.5046  -10.9227    0.0000 C   0  0  0  0  0  0  0  0  0  0  0  0
    9.2190  -10.5102    0.0000 C   0  0  0  0  0  0  0  0  0  0  0  0
    9.2190   -9.6852    0.0000 C   0  0  0  0  0  0  0  0  0  0  0  0
    9.9335   -9.2727    0.0000 C   0  0  0  0  0  0  0  0  0  0  0  0
    9.9335   -8.4477    0.0000 C   0  0  0  0  0  0  0  0  0  0  0  0
   10.6480   -8.0352    0.0000 C   0  0  0  0  0  0  0  0  0  0  0  0
   10.6480   -7.2102    0.0000 C   0  0  0  0  0  0  0  0  0  0  0  0
   11.3624   -6.7977    0.0000 C   0  0  0  0  0  0  0  0  0  0  0  0
   11.3624   -5.9727    0.0000 C   0  0  0  0  0  0  0  0  0  0  0  0
   12.0769   -5.5602    0.0000 O   0  0  0  0  0  0  0  0  0  0  0  0
  7  1  2  0  0  0  0
 11  2  1  0  0  0  0
 11  3  2  0  0  0  0
  5  4  1  0  0  0  0
  6  5  2  0  0  0  0
  7  6  1  0  0  0  0
  8  7  1  0  0  0  0
  9  8  1  0  0  0  0
 10  9  1  0  0  0  0
 11 10  1  0  0  0  0
  4 12  2  0  0  0  0
 12 13  1  0  0  0  0
 13 14  1  0  0  0  0
 14 15  1  0  0  0  0
 15 16  1  0  0  0  0
 16 17  1  0  0  0  0
 17 18  1  0  0  0  0
 18 19  1  0  0  0  0
 19 20  1  0  0  0  0
 20 21  1  0  0  0  0
 21 22  1  0  0  0  0
M  END
>  <cdx:fragmentId>
9

$$$$
