39857.cdx
  Mrv1902 05222410202D          

 13 12  0  0  0  0            999 V2000
   11.1209  -10.7921    0.0000 O   0  0  0  0  0  0  0  0  0  0  0  0
    3.2617  -11.2046    0.0000 O   0  0  0  0  0  0  0  0  0  0  0  0
    3.9762   -9.9671    0.0000 O   0  0  0  0  0  0  0  0  0  0  0  0
   10.4064  -11.2046    0.0000 C   0  0  0  0  0  0  0  0  0  0  0  0
    9.6920  -10.7921    0.0000 C   0  0  0  0  0  0  0  0  0  0  0  0
    8.9775  -11.2046    0.0000 C   0  0  0  0  0  0  0  0  0  0  0  0
    8.2630  -10.7921    0.0000 C   0  0  0  0  0  0  0  0  0  0  0  0
    7.5486  -11.2046    0.0000 C   0  0  0  0  0  0  0  0  0  0  0  0
    6.8341  -10.7921    0.0000 C   0  0  0  0  0  0  0  0  0  0  0  0
    6.1196  -11.2046    0.0000 C   0  0  0  0  0  0  0  0  0  0  0  0
    5.4051  -10.7921    0.0000 C   0  0  0  0  0  0  0  0  0  0  0  0
    4.6907  -11.2046    0.0000 C   0  0  0  0  0  0  0  0  0  0  0  0
    3.9762  -10.7921    0.0000 C   0  0  0  0  0  0  0  0  0  0  0  0
  4  1  1  0  0  0  0
 13  2  1  0  0  0  0
 13  3  2  0  0  0  0
  5  4  1  0  0  0  0
  6  5  1  0  0  0  0
  7  6  1  0  0  0  0
  8  7  1  0  0  0  0
  9  8  1  0  0  0  0
 10  9  1  0  0  0  0
 11 10  1  0  0  0  0
 12 11  1  0  0  0  0
 13 12  1  0  0  0  0
M  END
>  <cdx:fragmentId>
9

$$$$
