39859.cdx
  Mrv1902 05222410272D          

 22 21  0  0  0  0            999 V2000
    6.8348   -9.8748    0.0000 O   0  0  0  0  0  0  0  0  0  0  0  0
    6.1204   -9.4623    0.0000 O   0  0  0  0  0  0  0  0  0  0  0  0
   12.5441   -8.1917    0.0000 O   0  0  0  0  0  0  0  0  0  0  0  0
   11.8361   -9.4329    0.0000 O   0  0  0  0  0  0  0  0  0  0  0  0
    3.9706   -8.2358    0.0000 C   0  0  0  0  0  0  0  0  0  0  0  0
    4.6872   -8.6446    0.0000 C   0  0  0  0  0  0  0  0  0  0  0  0
    5.3995   -8.2285    0.0000 C   0  0  0  0  0  0  0  0  0  0  0  0
    6.1161   -8.6373    0.0000 C   0  0  2  0  0  0  0  0  0  0  0  0
    6.8285   -8.2211    0.0000 C   0  0  0  0  0  0  0  0  0  0  0  0
    7.5450   -8.6299    0.0000 C   0  0  0  0  0  0  0  0  0  0  0  0
    8.2574   -8.2138    0.0000 C   0  0  0  0  0  0  0  0  0  0  0  0
    8.9740   -8.6226    0.0000 C   0  0  0  0  0  0  0  0  0  0  0  0
    9.6863   -8.2064    0.0000 C   0  0  0  0  0  0  0  0  0  0  0  0
   10.4029   -8.6152    0.0000 C   0  0  0  0  0  0  0  0  0  0  0  0
   11.1152   -8.1991    0.0000 C   0  0  0  0  0  0  0  0  0  0  0  0
   11.8318   -8.6079    0.0000 C   0  0  0  0  0  0  0  0  0  0  0  0
    3.2583   -8.6520    0.0000 C   0  0  0  0  0  0  0  0  0  0  0  0
    3.2625   -9.4770    0.0000 C   0  0  0  0  0  0  0  0  0  0  0  0
    2.5502   -9.8931    0.0000 C   0  0  0  0  0  0  0  0  0  0  0  0
    2.5544  -10.7181    0.0000 C   0  0  0  0  0  0  0  0  0  0  0  0
    1.8421  -11.1343    0.0000 C   0  0  0  0  0  0  0  0  0  0  0  0
    1.8463  -11.9593    0.0000 C   0  0  0  0  0  0  0  0  0  0  0  0
  8  2  1  6  0  0  0
  2  1  1  0  0  0  0
 16  3  1  0  0  0  0
 16  4  2  0  0  0  0
  6  5  1  0  0  0  0
  7  6  2  0  0  0  0
  8  7  1  0  0  0  0
  9  8  1  0  0  0  0
 10  9  1  0  0  0  0
 11 10  1  0  0  0  0
 12 11  1  0  0  0  0
 13 12  1  0  0  0  0
 14 13  1  0  0  0  0
 15 14  1  0  0  0  0
 16 15  1  0  0  0  0
  5 17  2  0  0  0  0
 17 18  1  0  0  0  0
 18 19  1  0  0  0  0
 19 20  1  0  0  0  0
 20 21  1  0  0  0  0
 21 22  1  0  0  0  0
M  END
>  <cdx:fragmentId>
11

$$$$
