39867.cdx
  Mrv1902 05222410262D          

 27 29  0  0  0  0            999 V2000
    3.6333   -8.3036    0.0000 C   0  0  0  0  0  0  0  0  0  0  0  0
    4.3439   -8.7228    0.0000 C   0  0  0  0  0  0  0  0  0  0  0  0
    5.0622   -8.3171    0.0000 C   0  0  0  0  0  0  0  0  0  0  0  0
    5.0700   -7.4921    0.0000 C   0  0  0  0  0  0  0  0  0  0  0  0
    4.3595   -7.0729    0.0000 C   0  0  0  0  0  0  0  0  0  0  0  0
    3.6412   -7.4786    0.0000 C   0  0  0  0  0  0  0  0  0  0  0  0
    5.7728   -8.7363    0.0000 C   0  0  0  0  0  0  0  0  0  0  0  0
    6.4911   -8.3306    0.0000 C   0  0  0  0  0  0  0  0  0  0  0  0
    6.4989   -7.5056    0.0000 C   0  0  0  0  0  0  0  0  0  0  0  0
    5.7884   -7.0864    0.0000 O   0  0  0  0  0  0  0  0  0  0  0  0
    4.3361   -9.5478    0.0000 O   0  0  0  0  0  0  0  0  0  0  0  0
    5.7649   -9.5613    0.0000 O   0  0  0  0  0  0  0  0  0  0  0  0
    7.1938   -9.5748    0.0000 S   0  0  0  0  0  0  0  0  0  0  0  0
    7.2016   -8.7499    0.0000 O   0  0  0  0  0  0  0  0  0  0  0  0
    7.9278   -7.5192    0.0000 C   0  0  0  0  0  0  0  0  0  0  0  0
    7.2172   -7.0999    0.0000 C   0  0  0  0  0  0  0  0  0  0  0  0
    8.6461   -7.1135    0.0000 C   0  0  0  0  0  0  0  0  0  0  0  0
    8.6539   -6.2885    0.0000 C   0  0  0  0  0  0  0  0  0  0  0  0
    7.9434   -5.8692    0.0000 C   0  0  0  0  0  0  0  0  0  0  0  0
    7.2251   -6.2750    0.0000 C   0  0  0  0  0  0  0  0  0  0  0  0
    9.3723   -5.8828    0.0000 O   0  0  0  0  0  0  0  0  0  0  0  0
    2.9306   -7.0594    0.0000 O   0  0  0  0  0  0  0  0  0  0  0  0
   10.0828   -6.3020    0.0000 C   0  0  0  0  0  0  0  0  0  0  0  0
    2.2123   -7.4651    0.0000 C   0  0  0  0  0  0  0  0  0  0  0  0
    7.1938  -10.3998    0.0000 O   0  0  0  0  0  0  0  0  0  0  0  0
    8.0188   -9.5748    0.0000 O   0  0  0  0  0  0  0  0  0  0  0  0
    6.3688   -9.5663    0.0000 O   0  0  0  0  0  0  0  0  0  0  0  0
  1  2  1  0  0  0  0
  2  3  2  0  0  0  0
  3  4  1  0  0  0  0
  4  5  2  0  0  0  0
  5  6  1  0  0  0  0
  6  1  2  0  0  0  0
  3  7  1  0  0  0  0
  7  8  1  0  0  0  0
  8  9  2  0  0  0  0
  9 10  1  0  0  0  0
 10  4  1  0  0  0  0
  2 11  1  0  0  0  0
 12  7  2  0  0  0  0
 13 14  1  0  0  0  0
 14  8  1  0  0  0  0
 15 16  1  0  0  0  0
 16  9  1  0  0  0  0
 15 17  2  0  0  0  0
 17 18  1  0  0  0  0
 18 19  2  0  0  0  0
 19 20  1  0  0  0  0
 20 16  2  0  0  0  0
 18 21  1  0  0  0  0
  6 22  1  0  0  0  0
 21 23  1  0  0  0  0
 22 24  1  0  0  0  0
 13 25  1  0  0  0  0
 13 26  2  0  0  0  0
 13 27  2  0  0  0  0
M  END
>  <cdx:fragmentId>
5

$$$$
