39866.cdx
  Mrv1902 05222410262D          

 25 27  0  0  0  0            999 V2000
   16.8842   -6.5575    0.0000 C   0  0  0  0  0  0  0  0  0  0  0  0
   16.8842   -7.3825    0.0000 C   0  0  0  0  0  0  0  0  0  0  0  0
   16.1697   -7.7950    0.0000 C   0  0  0  0  0  0  0  0  0  0  0  0
   16.1697   -8.6200    0.0000 O   0  0  0  0  0  0  0  0  0  0  0  0
   15.4553   -7.3825    0.0000 C   0  0  0  0  0  0  0  0  0  0  0  0
   14.7408   -7.7950    0.0000 C   0  0  0  0  0  0  0  0  0  0  0  0
   14.7408   -8.6200    0.0000 O   0  0  0  0  0  0  0  0  0  0  0  0
   14.0263   -7.3825    0.0000 C   0  0  0  0  0  0  0  0  0  0  0  0
   14.0263   -6.5575    0.0000 C   0  0  0  0  0  0  0  0  0  0  0  0
   14.7408   -6.1450    0.0000 C   0  0  0  0  0  0  0  0  0  0  0  0
   15.4553   -6.5575    0.0000 C   0  0  0  0  0  0  0  0  0  0  0  0
   16.1697   -6.1450    0.0000 O   0  0  0  0  0  0  0  0  0  0  0  0
   17.5987   -6.1450    0.0000 C   0  0  0  0  0  0  0  0  0  0  0  0
   18.3132   -6.5575    0.0000 C   0  0  0  0  0  0  0  0  0  0  0  0
   19.0276   -6.1450    0.0000 C   0  0  0  0  0  0  0  0  0  0  0  0
   19.7421   -6.5575    0.0000 O   0  0  0  0  0  0  0  0  0  0  0  0
   19.0276   -5.3200    0.0000 C   0  0  0  0  0  0  0  0  0  0  0  0
   19.7421   -4.9075    0.0000 O   0  0  0  0  0  0  0  0  0  0  0  0
   18.3132   -4.9075    0.0000 C   0  0  0  0  0  0  0  0  0  0  0  0
   17.5987   -5.3200    0.0000 C   0  0  0  0  0  0  0  0  0  0  0  0
   12.5974   -6.5575    0.0000 S   0  0  0  0  0  0  0  0  0  0  0  0
   12.1849   -5.8430    0.0000 O   0  0  0  0  0  0  0  0  0  0  0  0
   13.0099   -7.2720    0.0000 O   0  0  0  0  0  0  0  0  0  0  0  0
   13.3119   -6.1450    0.0000 O   0  0  0  0  0  0  0  0  0  0  0  0
   11.8829   -6.9700    0.0000 O   0  0  0  0  0  0  0  0  0  0  0  0
  1  2  2  0  0  0  0
  2  3  1  0  0  0  0
  3  4  2  0  0  0  0
  3  5  1  0  0  0  0
  5  6  1  0  0  0  0
  6  7  1  0  0  0  0
  6  8  2  0  0  0  0
  8  9  1  0  0  0  0
  9 10  2  0  0  0  0
 10 11  1  0  0  0  0
  5 11  2  0  0  0  0
 11 12  1  0  0  0  0
  1 12  1  0  0  0  0
  1 13  1  0  0  0  0
 13 14  1  0  0  0  0
 14 15  2  0  0  0  0
 15 16  1  0  0  0  0
 15 17  1  0  0  0  0
 17 18  1  0  0  0  0
 17 19  2  0  0  0  0
 19 20  1  0  0  0  0
 13 20  2  0  0  0  0
 21 22  2  0  0  0  0
 21 23  2  0  0  0  0
 21 24  1  0  0  0  0
 21 25  1  0  0  0  0
  9 24  1  0  0  0  0
M  END
>  <cdx:fragmentId>
10

$$$$
