398658.cdx
  Mrv1902 05222410182D          

 32 34  0  0  0  0            999 V2000
    1.8887   -6.7788    0.0000 C   0  0  0  0  0  0  0  0  0  0  0  0
    1.8887   -7.6037    0.0000 N   0  0  0  0  0  0  0  0  0  0  0  0
    2.6031   -8.0162    0.0000 C   0  0  0  0  0  0  0  0  0  0  0  0
    3.3176   -7.6037    0.0000 C   0  0  0  0  0  0  0  0  0  0  0  0
    3.3176   -6.7788    0.0000 C   0  0  0  0  0  0  0  0  0  0  0  0
    2.6031   -6.3662    0.0000 N   0  0  0  0  0  0  0  0  0  0  0  0
    4.0321   -8.0162    0.0000 N   0  0  0  0  0  0  0  0  0  0  0  0
    4.7466   -7.6037    0.0000 C   0  0  0  0  0  0  0  0  0  0  0  0
    4.7466   -6.7788    0.0000 C   0  0  0  0  0  0  0  0  0  0  0  0
    4.0321   -6.3662    0.0000 N   0  0  0  0  0  0  0  0  0  0  0  0
    5.4610   -8.0162    0.0000 C   0  0  0  0  0  0  0  0  0  0  0  0
    6.1755   -7.6037    0.0000 N   0  0  0  0  0  0  0  0  0  0  0  0
    6.8900   -8.0162    0.0000 C   0  0  0  0  0  0  0  0  0  0  0  0
    7.6044   -7.6037    0.0000 C   0  0  0  0  0  0  0  0  0  0  0  0
    6.8900   -8.8413    0.0000 C   0  0  0  0  0  0  0  0  0  0  0  0
    7.6044   -9.2537    0.0000 C   0  0  0  0  0  0  0  0  0  0  0  0
    8.3189   -8.8413    0.0000 C   0  0  0  0  0  0  0  0  0  0  0  0
    8.3189   -8.0162    0.0000 C   0  0  0  0  0  0  0  0  0  0  0  0
    9.0334   -9.2538    0.0000 C   0  0  0  0  0  0  0  0  0  0  0  0
    9.7479   -8.8413    0.0000 N   0  0  0  0  0  0  0  0  0  0  0  0
   10.4623   -9.2538    0.0000 C   0  0  2  0  0  0  0  0  0  0  0  0
   11.1768   -8.8413    0.0000 C   0  0  0  0  0  0  0  0  0  0  0  0
   11.1768   -8.0162    0.0000 O   0  0  0  0  0  0  0  0  0  0  0  0
   10.4623  -10.0787    0.0000 C   0  0  0  0  0  0  0  0  0  0  0  0
   11.1768  -10.4912    0.0000 C   0  0  0  0  0  0  0  0  0  0  0  0
   11.8913   -9.2538    0.0000 O   0  0  0  0  0  0  0  0  0  0  0  0
   10.4623  -11.7287    0.0000 O   0  0  0  0  0  0  0  0  0  0  0  0
   11.1768  -11.3162    0.0000 C   0  0  0  0  0  0  0  0  0  0  0  0
    1.1742   -6.3662    0.0000 N   0  0  0  0  0  0  0  0  0  0  0  0
    2.6031   -8.8413    0.0000 O   0  0  0  0  0  0  0  0  0  0  0  0
    9.0334  -10.0787    0.0000 O   0  0  0  0  0  0  0  0  0  0  0  0
   11.8913  -11.7287    0.0000 O   0  0  0  0  0  0  0  0  0  0  0  0
  1  2  1  0  0  0  0
  2  3  1  0  0  0  0
  3  4  1  0  0  0  0
  4  5  1  0  0  0  0
  5  6  1  0  0  0  0
  6  1  2  0  0  0  0
  4  7  2  0  0  0  0
  7  8  1  0  0  0  0
  8  9  2  0  0  0  0
  9 10  1  0  0  0  0
 10  5  2  0  0  0  0
  8 11  1  0  0  0  0
 11 12  1  0  0  0  0
 12 13  1  0  0  0  0
 13 14  1  0  0  0  0
 13 15  2  0  0  0  0
 15 16  1  0  0  0  0
 16 17  2  0  0  0  0
 17 18  1  0  0  0  0
 18 14  2  0  0  0  0
 17 19  1  0  0  0  0
 19 20  1  0  0  0  0
 21 20  1  6  0  0  0
 21 22  1  0  0  0  0
 22 23  2  0  0  0  0
 21 24  1  0  0  0  0
 24 25  1  0  0  0  0
 26 22  1  0  0  0  0
 27 28  2  0  0  0  0
 28 25  1  0  0  0  0
  1 29  1  0  0  0  0
  3 30  2  0  0  0  0
 19 31  2  0  0  0  0
 28 32  1  0  0  0  0
M  END
>  <cdx:fragmentId>
5

$$$$
