398631.cdx
  Mrv1902 05222410242D          

 24 26  0  0  0  0            999 V2000
    4.4909  -11.0149    0.0000 P   0  0  0  0  0  0  0  0  0  0  0  0
    5.1583  -10.5300    0.0000 O   0  0  0  0  0  0  0  0  0  0  0  0
    5.9120  -10.8656    0.0000 C   0  0  0  0  0  0  0  0  0  0  0  0
    6.5794   -9.5556    0.0000 O   0  0  0  0  0  0  0  0  0  0  0  0
    6.5794  -10.3806    0.0000 C   0  0  1  0  0  0  0  0  0  0  0  0
    7.3641  -10.6356    0.0000 C   0  0  2  0  0  0  0  0  0  0  0  0
    7.8490   -9.9681    0.0000 C   0  0  2  0  0  0  0  0  0  0  0  0
    7.3641   -9.3007    0.0000 C   0  0  2  0  0  0  0  0  0  0  0  0
    8.6740   -9.9681    0.0000 O   0  0  0  0  0  0  0  0  0  0  0  0
    7.6190  -11.4202    0.0000 O   0  0  0  0  0  0  0  0  0  0  0  0
    7.6190   -7.1812    0.0000 N   0  0  0  0  0  0  0  0  0  0  0  0
    7.1341   -7.8486    0.0000 C   0  0  0  0  0  0  0  0  0  0  0  0
    7.6190   -8.5161    0.0000 N   0  0  0  0  0  0  0  0  0  0  0  0
    8.4036   -8.2611    0.0000 C   0  0  0  0  0  0  0  0  0  0  0  0
    9.1181   -8.6736    0.0000 N   0  0  0  0  0  0  0  0  0  0  0  0
    9.8326   -8.2611    0.0000 C   0  0  0  0  0  0  0  0  0  0  0  0
    9.8326   -7.4361    0.0000 N   0  0  0  0  0  0  0  0  0  0  0  0
    9.1181   -7.0236    0.0000 C   0  0  0  0  0  0  0  0  0  0  0  0
    8.4036   -7.4361    0.0000 C   0  0  0  0  0  0  0  0  0  0  0  0
    9.1181   -6.1986    0.0000 O   0  0  0  0  0  0  0  0  0  0  0  0
   10.5470   -8.6736    0.0000 N   0  0  0  0  0  0  0  0  0  0  0  0
    3.9075  -11.5983    0.0000 O   0  0  0  0  0  0  0  0  0  0  0  0
    3.9551  -10.3876    0.0000 O   0  0  0  0  0  0  0  0  0  0  0  0
    5.0267  -11.6423    0.0000 O   0  0  0  0  0  0  0  0  0  0  0  0
  1  2  1  0  0  0  0
  4  5  1  0  0  0  0
  5  6  1  0  0  0  0
  6  7  1  0  0  0  0
  7  8  1  0  0  0  0
  4  8  1  0  0  0  0
  7  9  1  6  0  0  0
  6 10  1  6  0  0  0
 11 12  2  0  0  0  0
 12 13  1  0  0  0  0
 13 14  1  0  0  0  0
 14 15  1  0  0  0  0
 15 16  2  0  0  0  0
 16 17  1  0  0  0  0
 17 18  1  0  0  0  0
 18 19  1  0  0  0  0
 11 19  1  0  0  0  0
 14 19  2  0  0  0  0
 18 20  2  0  0  0  0
 16 21  1  0  0  0  0
  8 13  1  1  0  0  0
  5  3  1  1  0  0  0
  2  3  1  0  0  0  0
  1 22  1  0  0  0  0
  1 23  2  0  0  0  0
  1 24  1  0  0  0  0
M  END
>  <cdx:fragmentId>
31

$$$$
