39860.cdx
  Mrv1902 05222410272D          

 46 50  0  0  0  0            999 V2000
    6.5942  -10.9771    0.0000 O   0  0  0  0  0  0  0  0  0  0  0  0
    5.1583   -8.5061    0.0000 O   0  0  0  0  0  0  0  0  0  0  0  0
    8.0231  -10.9731    0.0000 O   0  0  0  0  0  0  0  0  0  0  0  0
   10.8810  -10.9651    0.0000 O   0  0  0  0  0  0  0  0  0  0  0  0
   10.8856  -12.6151    0.0000 O   0  0  0  0  0  0  0  0  0  0  0  0
    9.4590  -13.4441    0.0000 O   0  0  0  0  0  0  0  0  0  0  0  0
    8.0277  -13.4481    0.0000 O   0  0  0  0  0  0  0  0  0  0  0  0
    8.0277  -12.6231    0.0000 C   0  0  0  0  0  0  0  0  0  0  0  0
    8.7411  -12.2086    0.0000 C   0  0  2  0  0  0  0  0  0  0  0  0
    9.4567  -12.6191    0.0000 C   0  0  1  0  0  0  0  0  0  0  0  0
   10.1700  -12.2046    0.0000 C   0  0  1  0  0  0  0  0  0  0  0  0
   10.1677  -11.3796    0.0000 C   0  0  2  0  0  0  0  0  0  0  0  0
    9.4520  -10.9691    0.0000 C   0  0  1  0  0  0  0  0  0  0  0  0
    8.7387  -11.3836    0.0000 O   0  0  0  0  0  0  0  0  0  0  0  0
    9.4497  -10.1441    0.0000 O   0  0  0  0  0  0  0  0  0  0  0  0
    8.0162   -8.4981    0.0000 O   0  0  0  0  0  0  0  0  0  0  0  0
    7.3029   -8.9126    0.0000 C   0  0  0  0  0  0  0  0  0  0  0  0
    6.5872   -8.5021    0.0000 C   0  0  0  0  0  0  0  0  0  0  0  0
    5.8739   -8.9166    0.0000 C   0  0  0  0  0  0  0  0  0  0  0  0
    5.8762   -9.7416    0.0000 C   0  0  0  0  0  0  0  0  0  0  0  0
    6.5919  -10.1521    0.0000 C   0  0  0  0  0  0  0  0  0  0  0  0
    7.3052   -9.7376    0.0000 C   0  0  0  0  0  0  0  0  0  0  0  0
    8.0208  -10.1481    0.0000 C   0  0  0  0  0  0  0  0  0  0  0  0
    8.7341   -9.7336    0.0000 C   0  0  0  0  0  0  0  0  0  0  0  0
    8.7318   -8.9086    0.0000 C   0  0  0  0  0  0  0  0  0  0  0  0
   11.5850   -7.2506    0.0000 O   0  0  0  0  0  0  0  0  0  0  0  0
    3.7891   -2.8069    0.0000 C   0  0  0  0  0  0  0  0  0  0  0  0
    4.2036   -3.5202    0.0000 C   0  0  0  0  0  0  0  0  0  0  0  0
    5.0286   -3.5179    0.0000 C   0  0  0  0  0  0  0  0  0  0  0  0
    5.4431   -4.2312    0.0000 C   0  0  0  0  0  0  0  0  0  0  0  0
    6.2681   -4.2289    0.0000 C   0  0  0  0  0  0  0  0  0  0  0  0
    6.6826   -4.9422    0.0000 C   0  0  0  0  0  0  0  0  0  0  0  0
    7.5076   -4.9399    0.0000 C   0  0  0  0  0  0  0  0  0  0  0  0
    7.9221   -5.6532    0.0000 C   0  0  0  0  0  0  0  0  0  0  0  0
    8.7471   -5.6509    0.0000 C   0  0  0  0  0  0  0  0  0  0  0  0
    7.4679   -6.6810    0.0000 O   0  0  0  0  0  0  0  0  0  0  0  0
    8.0217   -7.2926    0.0000 C   0  0  0  0  0  0  0  0  0  0  0  0
   10.1561   -7.2546    0.0000 C   0  0  0  0  0  0  0  0  0  0  0  0
   10.8717   -7.6651    0.0000 C   0  0  0  0  0  0  0  0  0  0  0  0
   10.8740   -8.4901    0.0000 C   0  0  0  0  0  0  0  0  0  0  0  0
   10.1607   -8.9046    0.0000 C   0  0  0  0  0  0  0  0  0  0  0  0
    9.4451   -8.4941    0.0000 C   0  0  0  0  0  0  0  0  0  0  0  0
    9.4428   -7.6691    0.0000 C   0  0  0  0  0  0  0  0  0  0  0  0
    8.8281   -7.1188    0.0000 C   0  0  0  0  0  0  0  0  0  0  0  0
    9.1616   -6.3642    0.0000 C   0  0  0  0  0  0  0  0  0  0  0  0
    9.9823   -6.4481    0.0000 O   0  0  0  0  0  0  0  0  0  0  0  0
 42 25  1  0  0  0  0
 21  1  1  0  0  0  0
 19  2  1  0  0  0  0
 23  3  2  0  0  0  0
 24 15  1  0  0  0  0
 13 15  1  1  0  0  0
 12  4  1  6  0  0  0
 11  5  1  1  0  0  0
 10  6  1  1  0  0  0
  9  8  1  1  0  0  0
  8  7  1  0  0  0  0
 14  9  1  0  0  0  0
 10  9  1  0  0  0  0
 11 10  1  0  0  0  0
 12 11  1  0  0  0  0
 13 12  1  0  0  0  0
 14 13  1  0  0  0  0
 25 16  1  0  0  0  0
 17 16  1  0  0  0  0
 22 17  2  0  0  0  0
 18 17  1  0  0  0  0
 19 18  2  0  0  0  0
 20 19  1  0  0  0  0
 21 20  2  0  0  0  0
 22 21  1  0  0  0  0
 23 22  1  0  0  0  0
 24 23  1  0  0  0  0
 25 24  2  0  0  0  0
 39 26  1  0  0  0  0
 45 35  1  0  0  0  0
 28 27  1  0  0  0  0
 29 28  1  0  0  0  0
 30 29  1  0  0  0  0
 31 30  1  0  0  0  0
 32 31  1  0  0  0  0
 33 32  1  0  0  0  0
 34 33  1  0  0  0  0
 35 34  1  0  0  0  0
 44 37  1  0  0  0  0
 37 36  2  0  0  0  0
 46 38  1  0  0  0  0
 43 38  2  0  0  0  0
 39 38  1  0  0  0  0
 40 39  2  0  0  0  0
 41 40  1  0  0  0  0
 42 41  2  0  0  0  0
 43 42  1  0  0  0  0
 44 43  1  0  0  0  0
 45 44  2  0  0  0  0
 46 45  1  0  0  0  0
M  END
>  <cdx:fragmentId>
74

$$$$
