39863.cdx
  Mrv1902 05222410282D          

 16 16  0  0  0  0            999 V2000
    6.2808   -8.0928    0.0000 C   0  0  0  0  0  0  0  0  0  0  0  0
    5.5664   -8.5053    0.0000 C   0  0  0  0  0  0  0  0  0  0  0  0
    5.5664   -9.3303    0.0000 O   0  0  0  0  0  0  0  0  0  0  0  0
    4.8519   -8.0928    0.0000 C   0  0  0  0  0  0  0  0  0  0  0  0
    6.2808   -7.2678    0.0000 O   0  0  0  0  0  0  0  0  0  0  0  0
    6.9953   -8.5053    0.0000 O   0  0  0  0  0  0  0  0  0  0  0  0
    7.7098   -8.0928    0.0000 C   0  0  0  0  0  0  0  0  0  0  0  0
    8.4243   -8.5053    0.0000 C   0  0  0  0  0  0  0  0  0  0  0  0
    9.1387   -8.0928    0.0000 C   0  0  0  0  0  0  0  0  0  0  0  0
    9.1387   -7.2678    0.0000 C   0  0  0  0  0  0  0  0  0  0  0  0
    8.4243   -6.8553    0.0000 C   0  0  0  0  0  0  0  0  0  0  0  0
    7.7098   -7.2678    0.0000 C   0  0  0  0  0  0  0  0  0  0  0  0
    8.4243   -6.0303    0.0000 C   0  0  0  0  0  0  0  0  0  0  0  0
    8.4243   -9.3303    0.0000 C   0  0  0  0  0  0  0  0  0  0  0  0
    9.1387   -9.7428    0.0000 C   0  0  0  0  0  0  0  0  0  0  0  0
    7.7098   -9.7428    0.0000 C   0  0  0  0  0  0  0  0  0  0  0  0
  1  2  1  0  0  0  0
  2  3  1  0  0  0  0
  2  4  1  0  0  0  0
  1  5  2  0  0  0  0
  1  6  1  0  0  0  0
  7  8  1  0  0  0  0
  8  9  1  0  0  0  0
  9 10  1  0  0  0  0
 10 11  1  0  0  0  0
 11 12  1  0  0  0  0
  7 12  1  0  0  0  0
 11 13  1  0  0  0  0
 14 15  1  0  0  0  0
 14 16  1  0  0  0  0
  8 14  1  0  0  0  0
  6  7  1  0  0  0  0
M  END
>  <cdx:fragmentId>
21

$$$$
