39865.cdx
  Mrv1902 05222410272D          

 24 26  0  0  0  0            999 V2000
   11.5561   -7.5888    0.0000 C   0  0  0  0  0  0  0  0  0  0  0  0
   11.5561   -8.4138    0.0000 C   0  0  0  0  0  0  0  0  0  0  0  0
   10.8416   -8.8263    0.0000 C   0  0  0  0  0  0  0  0  0  0  0  0
   10.8416   -9.6513    0.0000 O   0  0  0  0  0  0  0  0  0  0  0  0
   10.1271   -8.4138    0.0000 C   0  0  0  0  0  0  0  0  0  0  0  0
    9.4127   -8.8263    0.0000 C   0  0  0  0  0  0  0  0  0  0  0  0
    9.4127   -9.6513    0.0000 O   0  0  0  0  0  0  0  0  0  0  0  0
    8.6982   -8.4138    0.0000 C   0  0  0  0  0  0  0  0  0  0  0  0
    8.6982   -7.5888    0.0000 C   0  0  0  0  0  0  0  0  0  0  0  0
    9.4127   -7.1763    0.0000 C   0  0  0  0  0  0  0  0  0  0  0  0
   10.1271   -7.5888    0.0000 C   0  0  0  0  0  0  0  0  0  0  0  0
   10.8416   -7.1763    0.0000 O   0  0  0  0  0  0  0  0  0  0  0  0
   12.2706   -7.1763    0.0000 C   0  0  0  0  0  0  0  0  0  0  0  0
   12.2706   -6.3513    0.0000 C   0  0  0  0  0  0  0  0  0  0  0  0
   12.9850   -5.9388    0.0000 C   0  0  0  0  0  0  0  0  0  0  0  0
   13.6995   -6.3513    0.0000 C   0  0  0  0  0  0  0  0  0  0  0  0
   14.4140   -5.9388    0.0000 O   0  0  0  0  0  0  0  0  0  0  0  0
   13.6995   -7.1763    0.0000 C   0  0  0  0  0  0  0  0  0  0  0  0
   12.9850   -7.5888    0.0000 C   0  0  0  0  0  0  0  0  0  0  0  0
    7.2693   -7.5888    0.0000 S   0  0  0  0  0  0  0  0  0  0  0  0
    6.8568   -6.8743    0.0000 O   0  0  0  0  0  0  0  0  0  0  0  0
    7.6818   -8.3032    0.0000 O   0  0  0  0  0  0  0  0  0  0  0  0
    7.9837   -7.1763    0.0000 O   0  0  0  0  0  0  0  0  0  0  0  0
    6.5548   -8.0013    0.0000 O   0  0  0  0  0  0  0  0  0  0  0  0
  1  2  2  0  0  0  0
  2  3  1  0  0  0  0
  3  4  2  0  0  0  0
  3  5  1  0  0  0  0
  5  6  1  0  0  0  0
  6  7  1  0  0  0  0
  6  8  2  0  0  0  0
  8  9  1  0  0  0  0
  9 10  2  0  0  0  0
 10 11  1  0  0  0  0
  5 11  2  0  0  0  0
 11 12  1  0  0  0  0
  1 12  1  0  0  0  0
  1 13  1  0  0  0  0
 13 14  1  0  0  0  0
 14 15  2  0  0  0  0
 15 16  1  0  0  0  0
 16 17  1  0  0  0  0
 16 18  2  0  0  0  0
 18 19  1  0  0  0  0
 13 19  2  0  0  0  0
 20 21  2  0  0  0  0
 20 22  2  0  0  0  0
 20 23  1  0  0  0  0
 20 24  1  0  0  0  0
  9 23  1  0  0  0  0
M  END
>  <cdx:fragmentId>
9

$$$$
