39861.cdx
  Mrv1902 05222410272D          

 45 48  0  0  0  0            999 V2000
    6.5942  -10.9771    0.0000 O   0  0  0  0  0  0  0  0  0  0  0  0
    5.1583   -8.5061    0.0000 O   0  0  0  0  0  0  0  0  0  0  0  0
    8.0231  -10.9731    0.0000 O   0  0  0  0  0  0  0  0  0  0  0  0
   10.8810  -10.9651    0.0000 O   0  0  0  0  0  0  0  0  0  0  0  0
   10.8856  -12.6151    0.0000 O   0  0  0  0  0  0  0  0  0  0  0  0
    9.4590  -13.4441    0.0000 O   0  0  0  0  0  0  0  0  0  0  0  0
    8.0277  -13.4481    0.0000 O   0  0  0  0  0  0  0  0  0  0  0  0
    8.0277  -12.6231    0.0000 C   0  0  0  0  0  0  0  0  0  0  0  0
    8.7411  -12.2086    0.0000 C   0  0  2  0  0  0  0  0  0  0  0  0
    9.4567  -12.6191    0.0000 C   0  0  1  0  0  0  0  0  0  0  0  0
   10.1700  -12.2046    0.0000 C   0  0  1  0  0  0  0  0  0  0  0  0
   10.1677  -11.3796    0.0000 C   0  0  2  0  0  0  0  0  0  0  0  0
    9.4520  -10.9691    0.0000 C   0  0  1  0  0  0  0  0  0  0  0  0
    8.7387  -11.3836    0.0000 O   0  0  0  0  0  0  0  0  0  0  0  0
    9.4497  -10.1441    0.0000 O   0  0  0  0  0  0  0  0  0  0  0  0
    8.0162   -8.4981    0.0000 O   0  0  0  0  0  0  0  0  0  0  0  0
    7.3029   -8.9126    0.0000 C   0  0  0  0  0  0  0  0  0  0  0  0
    6.5872   -8.5021    0.0000 C   0  0  0  0  0  0  0  0  0  0  0  0
    5.8739   -8.9166    0.0000 C   0  0  0  0  0  0  0  0  0  0  0  0
    5.8762   -9.7416    0.0000 C   0  0  0  0  0  0  0  0  0  0  0  0
    6.5919  -10.1521    0.0000 C   0  0  0  0  0  0  0  0  0  0  0  0
    7.3052   -9.7376    0.0000 C   0  0  0  0  0  0  0  0  0  0  0  0
    8.0208  -10.1481    0.0000 C   0  0  0  0  0  0  0  0  0  0  0  0
    8.7341   -9.7336    0.0000 C   0  0  0  0  0  0  0  0  0  0  0  0
    8.7318   -8.9086    0.0000 C   0  0  0  0  0  0  0  0  0  0  0  0
   11.5850   -7.2506    0.0000 O   0  0  0  0  0  0  0  0  0  0  0  0
   10.1561   -7.2546    0.0000 C   0  0  0  0  0  0  0  0  0  0  0  0
   10.8717   -7.6651    0.0000 C   0  0  0  0  0  0  0  0  0  0  0  0
   10.8740   -8.4901    0.0000 C   0  0  0  0  0  0  0  0  0  0  0  0
   10.1607   -8.9046    0.0000 C   0  0  0  0  0  0  0  0  0  0  0  0
    9.4451   -8.4941    0.0000 C   0  0  0  0  0  0  0  0  0  0  0  0
    9.4428   -7.6691    0.0000 C   0  0  0  0  0  0  0  0  0  0  0  0
   10.1538   -6.4296    0.0000 O   0  0  0  0  0  0  0  0  0  0  0  0
    5.1374   -1.0812    0.0000 C   0  0  0  0  0  0  0  0  0  0  0  0
    5.8531   -1.4917    0.0000 C   0  0  0  0  0  0  0  0  0  0  0  0
    5.8554   -2.3166    0.0000 C   0  0  0  0  0  0  0  0  0  0  0  0
    6.5710   -2.7271    0.0000 C   0  0  0  0  0  0  0  0  0  0  0  0
    6.5733   -3.5521    0.0000 C   0  0  0  0  0  0  0  0  0  0  0  0
    7.2890   -3.9626    0.0000 C   0  0  0  0  0  0  0  0  0  0  0  0
    7.2913   -4.7876    0.0000 C   0  0  0  0  0  0  0  0  0  0  0  0
    8.0069   -5.1981    0.0000 C   0  0  0  0  0  0  0  0  0  0  0  0
    8.0092   -6.0231    0.0000 C   0  0  0  0  0  0  0  0  0  0  0  0
    8.7248   -6.4336    0.0000 C   0  0  0  0  0  0  0  0  0  0  0  0
    8.7272   -7.2586    0.0000 C   0  0  0  0  0  0  0  0  0  0  0  0
    9.4381   -6.0191    0.0000 O   0  0  0  0  0  0  0  0  0  0  0  0
 31 25  1  0  0  0  0
 21  1  1  0  0  0  0
 19  2  1  0  0  0  0
 23  3  2  0  0  0  0
 24 15  1  0  0  0  0
 13 15  1  1  0  0  0
 12  4  1  6  0  0  0
 11  5  1  1  0  0  0
 10  6  1  1  0  0  0
  9  8  1  1  0  0  0
  8  7  1  0  0  0  0
 14  9  1  0  0  0  0
 10  9  1  0  0  0  0
 11 10  1  0  0  0  0
 12 11  1  0  0  0  0
 13 12  1  0  0  0  0
 14 13  1  0  0  0  0
 25 16  1  0  0  0  0
 17 16  1  0  0  0  0
 22 17  2  0  0  0  0
 18 17  1  0  0  0  0
 19 18  2  0  0  0  0
 20 19  1  0  0  0  0
 21 20  2  0  0  0  0
 22 21  1  0  0  0  0
 23 22  1  0  0  0  0
 24 23  1  0  0  0  0
 25 24  2  0  0  0  0
 28 26  1  0  0  0  0
 32 27  2  0  0  0  0
 28 27  1  0  0  0  0
 29 28  2  0  0  0  0
 30 29  1  0  0  0  0
 31 30  2  0  0  0  0
 32 31  1  0  0  0  0
 27 33  1  0  0  0  0
 35 34  1  0  0  0  0
 32 44  1  0  0  0  0
 36 35  1  0  0  0  0
 37 36  1  0  0  0  0
 38 37  1  0  0  0  0
 39 38  1  0  0  0  0
 40 39  1  0  0  0  0
 41 40  1  0  0  0  0
 42 41  1  0  0  0  0
 43 42  1  0  0  0  0
 44 43  1  0  0  0  0
 43 45  2  0  0  0  0
M  END
>  <cdx:fragmentId>
74

$$$$
