39870.cdx
  Mrv1902 05222410272D          

 22 21  0  0  0  0            999 V2000
    2.9123   -8.8068    0.0000 C   0  0  0  0  0  0  0  0  0  0  0  0
    3.6268   -9.2193    0.0000 C   0  0  0  0  0  0  0  0  0  0  0  0
    4.3413   -8.8068    0.0000 O   0  0  0  0  0  0  0  0  0  0  0  0
    5.0558   -9.2193    0.0000 C   0  0  0  0  0  0  0  0  0  0  0  0
    5.7702   -8.8068    0.0000 C   0  0  0  0  0  0  0  0  0  0  0  0
    6.4847   -9.2193    0.0000 C   0  0  0  0  0  0  0  0  0  0  0  0
    7.1992   -8.8068    0.0000 C   0  0  0  0  0  0  0  0  0  0  0  0
    7.9136   -9.2193    0.0000 C   0  0  0  0  0  0  0  0  0  0  0  0
    8.6281   -8.8068    0.0000 C   0  0  0  0  0  0  0  0  0  0  0  0
    9.3426   -9.2193    0.0000 C   0  0  0  0  0  0  0  0  0  0  0  0
   10.0571   -8.8068    0.0000 C   0  0  0  0  0  0  0  0  0  0  0  0
   10.7715   -9.2193    0.0000 C   0  0  0  0  0  0  0  0  0  0  0  0
   11.4860   -8.8068    0.0000 C   0  0  0  0  0  0  0  0  0  0  0  0
   12.2005   -9.2193    0.0000 C   0  0  0  0  0  0  0  0  0  0  0  0
   12.9149   -8.8068    0.0000 C   0  0  0  0  0  0  0  0  0  0  0  0
   13.6294   -9.2193    0.0000 C   0  0  0  0  0  0  0  0  0  0  0  0
   14.3439   -8.8068    0.0000 C   0  0  0  0  0  0  0  0  0  0  0  0
   15.0584   -9.2193    0.0000 C   0  0  0  0  0  0  0  0  0  0  0  0
   15.7728   -8.8068    0.0000 C   0  0  0  0  0  0  0  0  0  0  0  0
   16.4873   -9.2193    0.0000 C   0  0  0  0  0  0  0  0  0  0  0  0
   17.2018   -8.8068    0.0000 C   0  0  0  0  0  0  0  0  0  0  0  0
    2.1979   -9.2193    0.0000 O   0  0  0  0  0  0  0  0  0  0  0  0
  1  2  1  0  0  0  0
  4  5  1  0  0  0  0
  5  6  1  0  0  0  0
  6  7  1  0  0  0  0
  7  8  1  0  0  0  0
  8  9  1  0  0  0  0
  9 10  1  0  0  0  0
 10 11  1  0  0  0  0
 11 12  1  0  0  0  0
 12 13  2  0  0  0  0
 13 14  1  0  0  0  0
 14 15  1  0  0  0  0
 15 16  2  0  0  0  0
 16 17  1  0  0  0  0
 17 18  1  0  0  0  0
 18 19  1  0  0  0  0
 19 20  1  0  0  0  0
 20 21  1  0  0  0  0
  3  4  1  0  0  0  0
  2  3  1  0  0  0  0
  1 22  1  0  0  0  0
M  END
>  <cdx:fragmentId>
174

$$$$
