39872.cdx
  Mrv1902 05222410262D          

 25 24  0  0  0  0            999 V2000
    6.6763   -8.6229    0.0000 O   0  0  0  0  0  0  0  0  0  0  0  0
   18.8223   -7.3854    0.0000 C   0  0  0  0  0  0  0  0  0  0  0  0
   18.1078   -7.7979    0.0000 C   0  0  0  0  0  0  0  0  0  0  0  0
   17.3934   -7.3854    0.0000 C   0  0  0  0  0  0  0  0  0  0  0  0
   16.6789   -7.7979    0.0000 C   0  0  0  0  0  0  0  0  0  0  0  0
   15.9644   -7.3854    0.0000 C   0  0  0  0  0  0  0  0  0  0  0  0
   15.2500   -7.7979    0.0000 C   0  0  0  0  0  0  0  0  0  0  0  0
   14.5355   -7.3854    0.0000 C   0  0  0  0  0  0  0  0  0  0  0  0
   13.8210   -7.7979    0.0000 C   0  0  0  0  0  0  0  0  0  0  0  0
   13.1065   -7.3854    0.0000 C   0  0  0  0  0  0  0  0  0  0  0  0
   12.3921   -7.7979    0.0000 C   0  0  0  0  0  0  0  0  0  0  0  0
   11.6776   -7.3854    0.0000 C   0  0  0  0  0  0  0  0  0  0  0  0
   10.9631   -7.7979    0.0000 C   0  0  0  0  0  0  0  0  0  0  0  0
   10.2487   -7.3854    0.0000 C   0  0  0  0  0  0  0  0  0  0  0  0
    9.5342   -7.7979    0.0000 C   0  0  0  0  0  0  0  0  0  0  0  0
    8.8197   -7.3854    0.0000 C   0  0  0  0  0  0  0  0  0  0  0  0
    8.1052   -7.7979    0.0000 C   0  0  0  0  0  0  0  0  0  0  0  0
    7.3908   -7.3854    0.0000 C   0  0  0  0  0  0  0  0  0  0  0  0
    6.6763   -7.7979    0.0000 C   0  0  0  0  0  0  0  0  0  0  0  0
    5.9618   -7.3854    0.0000 O   0  0  0  0  0  0  0  0  0  0  0  0
    5.2474   -7.7979    0.0000 C   0  0  0  0  0  0  0  0  0  0  0  0
    4.5329   -7.3854    0.0000 C   0  0  0  0  0  0  0  0  0  0  0  0
    3.8184   -7.7979    0.0000 C   0  0  0  0  0  0  0  0  0  0  0  0
    4.5329   -6.5604    0.0000 O   0  0  0  0  0  0  0  0  0  0  0  0
    3.1040   -7.3854    0.0000 O   0  0  0  0  0  0  0  0  0  0  0  0
 20 19  1  0  0  0  0
 19  1  2  0  0  0  0
  3  2  1  0  0  0  0
  4  3  1  0  0  0  0
  5  4  1  0  0  0  0
  6  5  1  0  0  0  0
  7  6  1  0  0  0  0
  8  7  1  0  0  0  0
  9  8  1  0  0  0  0
 10  9  1  0  0  0  0
 11 10  1  0  0  0  0
 12 11  1  0  0  0  0
 13 12  1  0  0  0  0
 14 13  1  0  0  0  0
 15 14  1  0  0  0  0
 16 15  1  0  0  0  0
 17 16  1  0  0  0  0
 18 17  2  0  0  0  0
 19 18  1  0  0  0  0
 21 20  1  0  0  0  0
 22 21  1  0  0  0  0
 23 22  1  0  0  0  0
 22 24  1  0  0  0  0
 23 25  1  0  0  0  0
M  END
>  <cdx:fragmentId>
21

$$$$
