39873.cdx
  Mrv1902 05222410262D          

 27 26  0  0  0  0            999 V2000
    5.9905  -10.1411    0.0000 O   0  0  0  0  0  0  0  0  0  0  0  0
   19.5654   -8.9036    0.0000 C   0  0  0  0  0  0  0  0  0  0  0  0
   18.8510   -9.3161    0.0000 C   0  0  0  0  0  0  0  0  0  0  0  0
   18.1365   -8.9036    0.0000 C   0  0  0  0  0  0  0  0  0  0  0  0
   17.4220   -9.3161    0.0000 C   0  0  0  0  0  0  0  0  0  0  0  0
   16.7075   -8.9036    0.0000 C   0  0  0  0  0  0  0  0  0  0  0  0
   15.9931   -9.3161    0.0000 C   0  0  0  0  0  0  0  0  0  0  0  0
   15.2786   -8.9036    0.0000 C   0  0  0  0  0  0  0  0  0  0  0  0
   14.5641   -9.3161    0.0000 C   0  0  0  0  0  0  0  0  0  0  0  0
   13.8497   -8.9036    0.0000 C   0  0  0  0  0  0  0  0  0  0  0  0
   13.1352   -9.3161    0.0000 C   0  0  0  0  0  0  0  0  0  0  0  0
   12.4207   -8.9036    0.0000 C   0  0  0  0  0  0  0  0  0  0  0  0
   11.7062   -9.3161    0.0000 C   0  0  0  0  0  0  0  0  0  0  0  0
   10.9918   -8.9036    0.0000 C   0  0  0  0  0  0  0  0  0  0  0  0
   10.2773   -9.3161    0.0000 C   0  0  0  0  0  0  0  0  0  0  0  0
    9.5628   -8.9036    0.0000 C   0  0  0  0  0  0  0  0  0  0  0  0
    8.8484   -9.3161    0.0000 C   0  0  0  0  0  0  0  0  0  0  0  0
    8.1339   -8.9036    0.0000 C   0  0  0  0  0  0  0  0  0  0  0  0
    7.4194   -9.3161    0.0000 C   0  0  0  0  0  0  0  0  0  0  0  0
    6.7050   -8.9036    0.0000 C   0  0  0  0  0  0  0  0  0  0  0  0
    5.9905   -9.3161    0.0000 C   0  0  0  0  0  0  0  0  0  0  0  0
    3.8471  -10.5536    0.0000 O   0  0  0  0  0  0  0  0  0  0  0  0
    4.5615  -10.1411    0.0000 C   0  0  0  0  0  0  0  0  0  0  0  0
    5.2760   -8.9036    0.0000 O   0  0  0  0  0  0  0  0  0  0  0  0
    4.5615   -9.3161    0.0000 C   0  0  0  0  0  0  0  0  0  0  0  0
    3.8471   -8.9036    0.0000 C   0  0  0  0  0  0  0  0  0  0  0  0
    3.1326   -9.3161    0.0000 O   0  0  0  0  0  0  0  0  0  0  0  0
 24 21  1  0  0  0  0
 21  1  2  0  0  0  0
  3  2  1  0  0  0  0
  4  3  1  0  0  0  0
  5  4  1  0  0  0  0
  6  5  1  0  0  0  0
  7  6  1  0  0  0  0
  8  7  1  0  0  0  0
  9  8  1  0  0  0  0
 10  9  1  0  0  0  0
 11 10  1  0  0  0  0
 12 11  1  0  0  0  0
 13 12  1  0  0  0  0
 14 13  1  0  0  0  0
 15 14  1  0  0  0  0
 16 15  1  0  0  0  0
 17 16  1  0  0  0  0
 18 17  1  0  0  0  0
 19 18  1  0  0  0  0
 20 19  1  0  0  0  0
 21 20  1  0  0  0  0
 23 22  1  0  0  0  0
 25 23  1  0  0  0  0
 25 24  1  0  0  0  0
 26 25  1  0  0  0  0
 27 26  1  0  0  0  0
M  END
>  <cdx:fragmentId>
21

$$$$
