398789.cdx
  Mrv1902 05222410232D          

 24 26  0  0  0  0            999 V2000
    5.6710   -8.6705    0.0000 C   0  0  0  0  0  0  0  0  0  0  0  0
    4.9565   -9.0830    0.0000 C   0  0  0  0  0  0  0  0  0  0  0  0
    4.2420   -8.6705    0.0000 C   0  0  0  0  0  0  0  0  0  0  0  0
    4.2420   -7.8455    0.0000 C   0  0  0  0  0  0  0  0  0  0  0  0
    4.9565   -9.9080    0.0000 O   0  0  0  0  0  0  0  0  0  0  0  0
    3.5275   -9.0830    0.0000 C   0  0  0  0  0  0  0  0  0  0  0  0
    6.3854   -9.0830    0.0000 O   0  0  0  0  0  0  0  0  0  0  0  0
    9.2433   -9.0830    0.0000 N   0  0  0  0  0  0  0  0  0  0  0  0
    9.9578   -8.6705    0.0000 C   0  0  0  0  0  0  0  0  0  0  0  0
    9.9578   -7.8455    0.0000 C   0  0  0  0  0  0  0  0  0  0  0  0
    9.2433   -7.4330    0.0000 C   0  0  0  0  0  0  0  0  0  0  0  0
    8.5288   -7.8455    0.0000 C   0  0  0  0  0  0  0  0  0  0  0  0
    7.8144   -7.4330    0.0000 C   0  0  0  0  0  0  0  0  0  0  0  0
    7.0999   -7.8455    0.0000 C   0  0  0  0  0  0  0  0  0  0  0  0
    7.0999   -8.6705    0.0000 C   0  0  0  0  0  0  0  0  0  0  0  0
    7.8144   -9.0830    0.0000 C   0  0  0  0  0  0  0  0  0  0  0  0
    8.5288   -8.6705    0.0000 C   0  0  0  0  0  0  0  0  0  0  0  0
   10.7424   -8.9255    0.0000 O   0  0  0  0  0  0  0  0  0  0  0  0
   10.7424   -7.5906    0.0000 C   0  0  0  0  0  0  0  0  0  0  0  0
   11.2273   -8.2580    0.0000 C   0  0  0  0  0  0  0  0  0  0  0  0
    7.8144   -9.9080    0.0000 O   0  0  0  0  0  0  0  0  0  0  0  0
    7.0999  -10.3205    0.0000 C   0  0  0  0  0  0  0  0  0  0  0  0
    9.2433   -6.6080    0.0000 O   0  0  0  0  0  0  0  0  0  0  0  0
    9.9578   -6.1955    0.0000 C   0  0  0  0  0  0  0  0  0  0  0  0
  1  2  1  0  0  0  0
  2  3  1  0  0  0  0
  3  4  2  0  0  0  0
  2  5  1  0  0  0  0
  3  6  1  0  0  0  0
  8  9  2  0  0  0  0
  9 10  1  0  0  0  0
 10 11  2  0  0  0  0
 11 12  1  0  0  0  0
 12 13  2  0  0  0  0
 13 14  1  0  0  0  0
 14 15  2  0  0  0  0
 15 16  1  0  0  0  0
 16 17  2  0  0  0  0
  8 17  1  0  0  0  0
 12 17  1  0  0  0  0
 19 20  2  0  0  0  0
 18 20  1  0  0  0  0
 18  9  1  0  0  0  0
 19 10  1  0  0  0  0
 21 22  1  0  0  0  0
 16 21  1  0  0  0  0
 23 24  1  0  0  0  0
 11 23  1  0  0  0  0
  7 15  1  0  0  0  0
  1  7  1  0  0  0  0
M  END
>  <cdx:groupId>
3292

>  <cdx:fragmentId>
3235

$$$$
