39876.cdx
  Mrv1902 05222410282D          

 19 19  0  0  0  0            999 V2000
    6.2733   -8.1317    0.0000 O   0  0  0  0  0  0  0  0  0  0  0  0
    5.5588   -8.5442    0.0000 C   0  0  1  0  0  0  0  0  0  0  0  0
    5.5588   -9.3692    0.0000 C   0  0  2  0  0  0  0  0  0  0  0  0
    6.2733   -9.7817    0.0000 C   0  0  1  0  0  0  0  0  0  0  0  0
    6.9878   -9.3692    0.0000 C   0  0  2  0  0  0  0  0  0  0  0  0
    6.9878   -8.5442    0.0000 C   0  0  2  0  0  0  0  0  0  0  0  0
    4.8443   -8.1317    0.0000 C   0  0  0  0  0  0  0  0  0  0  0  0
    4.8443   -7.3067    0.0000 O   0  0  0  0  0  0  0  0  0  0  0  0
    4.1299   -8.5442    0.0000 O   0  0  0  0  0  0  0  0  0  0  0  0
    7.7022   -5.6567    0.0000 C   0  0  0  0  0  0  0  0  0  0  0  0
    7.7022   -9.7817    0.0000 O   0  0  0  0  0  0  0  0  0  0  0  0
    6.2733  -10.6067    0.0000 O   0  0  0  0  0  0  0  0  0  0  0  0
    4.8443   -9.7817    0.0000 O   0  0  0  0  0  0  0  0  0  0  0  0
    6.9878   -6.8942    0.0000 O   0  0  0  0  0  0  0  0  0  0  0  0
    9.1312   -5.6567    0.0000 C   0  0  0  0  0  0  0  0  0  0  0  0
    8.4167   -6.0692    0.0000 C   0  0  0  0  0  0  0  0  0  0  0  0
    8.4167   -6.8942    0.0000 C   0  0  0  0  0  0  0  0  0  0  0  0
    7.7022   -7.3067    0.0000 C   0  0  0  0  0  0  0  0  0  0  0  0
    7.7022   -8.1317    0.0000 O   0  0  0  0  0  0  0  0  0  0  0  0
 16 10  1  0  0  0  0
 19 18  1  0  0  0  0
 18 14  2  0  0  0  0
 16 15  1  0  0  0  0
 17 16  1  0  0  0  0
 18 17  1  0  0  0  0
  1  2  1  0  0  0  0
  2  3  1  0  0  0  0
  3  4  1  0  0  0  0
  4  5  1  0  0  0  0
  5  6  1  0  0  0  0
  1  6  1  0  0  0  0
  7  8  2  0  0  0  0
  7  9  1  0  0  0  0
  2  7  1  1  0  0  0
  6 19  1  1  0  0  0
  5 11  1  6  0  0  0
  4 12  1  1  0  0  0
  3 13  1  6  0  0  0
M  END
>  <cdx:fragmentId>
5

$$$$
