39875.cdx
  Mrv1902 05222410272D          

 26 27  0  0  0  0            999 V2000
    8.2670   -7.4938    0.0000 C   0  0  0  0  0  0  0  0  0  0  0  0
   10.6165   -5.7868    0.0000 C   0  0  0  0  0  0  0  0  0  0  0  0
   11.1711   -7.4938    0.0000 O   0  0  0  0  0  0  0  0  0  0  0  0
   10.1316   -6.4542    0.0000 C   0  0  0  0  0  0  0  0  0  0  0  0
   10.3865   -7.2389    0.0000 C   0  0  0  0  0  0  0  0  0  0  0  0
    9.7191   -7.7238    0.0000 C   0  0  0  0  0  0  0  0  0  0  0  0
    9.0516   -7.2389    0.0000 C   0  0  0  0  0  0  0  0  0  0  0  0
    9.3066   -6.4542    0.0000 O   0  0  0  0  0  0  0  0  0  0  0  0
    9.7191   -8.5488    0.0000 O   0  0  0  0  0  0  0  0  0  0  0  0
    6.8612  -10.1988    0.0000 O   0  0  0  0  0  0  0  0  0  0  0  0
    8.2901  -11.0238    0.0000 O   0  0  0  0  0  0  0  0  0  0  0  0
    9.7191  -10.1988    0.0000 O   0  0  0  0  0  0  0  0  0  0  0  0
    9.0046   -8.9613    0.0000 C   0  0  1  0  0  0  0  0  0  0  0  0
    9.0046   -9.7863    0.0000 C   0  0  1  0  0  0  0  0  0  0  0  0
    8.2901  -10.1988    0.0000 C   0  0  2  0  0  0  0  0  0  0  0  0
    7.5757   -9.7863    0.0000 C   0  0  1  0  0  0  0  0  0  0  0  0
    7.5757   -8.9613    0.0000 C   0  0  2  0  0  0  0  0  0  0  0  0
    8.2901   -8.5488    0.0000 O   0  0  0  0  0  0  0  0  0  0  0  0
    6.8612   -8.5488    0.0000 C   0  0  0  0  0  0  0  0  0  0  0  0
    6.1467   -8.9613    0.0000 O   0  0  0  0  0  0  0  0  0  0  0  0
    5.4323   -7.7238    0.0000 O   0  0  0  0  0  0  0  0  0  0  0  0
    3.2888   -8.9613    0.0000 O   0  0  0  0  0  0  0  0  0  0  0  0
    4.0033   -7.7238    0.0000 O   0  0  0  0  0  0  0  0  0  0  0  0
    5.4323   -8.5488    0.0000 C   0  0  0  0  0  0  0  0  0  0  0  0
    4.7178   -8.9613    0.0000 C   0  0  0  0  0  0  0  0  0  0  0  0
    4.0033   -8.5488    0.0000 C   0  0  0  0  0  0  0  0  0  0  0  0
 24 20  1  0  0  0  0
 17 19  1  1  0  0  0
 13  9  1  1  0  0  0
  9  6  1  0  0  0  0
  7  1  1  0  0  0  0
  4  2  1  0  0  0  0
  5  3  2  0  0  0  0
  8  4  1  0  0  0  0
  5  4  1  0  0  0  0
  6  5  1  0  0  0  0
  7  6  2  0  0  0  0
  8  7  1  0  0  0  0
 16 10  1  6  0  0  0
 15 11  1  1  0  0  0
 14 12  1  6  0  0  0
 18 13  1  0  0  0  0
 14 13  1  0  0  0  0
 15 14  1  0  0  0  0
 16 15  1  0  0  0  0
 17 16  1  0  0  0  0
 18 17  1  0  0  0  0
 20 19  1  0  0  0  0
 24 21  2  0  0  0  0
 26 22  1  0  0  0  0
 26 23  2  0  0  0  0
 25 24  1  0  0  0  0
 26 25  1  0  0  0  0
M  END
>  <cdx:fragmentId>
41

$$$$
