39888.cdx
  Mrv1902 05222410282D          

 15 16  0  0  0  0            999 V2000
   12.4770   -9.0354    0.0000 C   0  0  0  0  0  0  0  0  0  0  0  0
   11.7626   -8.6229    0.0000 C   0  0  0  0  0  0  0  0  0  0  0  0
   11.7626   -7.7979    0.0000 C   0  0  0  0  0  0  0  0  0  0  0  0
   11.0481   -7.3854    0.0000 C   0  0  0  0  0  0  0  0  0  0  0  0
   11.0481   -6.5604    0.0000 O   0  0  0  0  0  0  0  0  0  0  0  0
   10.3336   -7.7979    0.0000 C   0  0  0  0  0  0  0  0  0  0  0  0
    9.6191   -7.3854    0.0000 C   0  0  0  0  0  0  0  0  0  0  0  0
    8.9047   -7.7979    0.0000 C   0  0  0  0  0  0  0  0  0  0  0  0
    8.9047   -8.6229    0.0000 C   0  0  0  0  0  0  0  0  0  0  0  0
    9.6191   -9.0354    0.0000 C   0  0  0  0  0  0  0  0  0  0  0  0
    9.6191   -9.8604    0.0000 O   0  0  0  0  0  0  0  0  0  0  0  0
   10.3336   -8.6229    0.0000 C   0  0  0  0  0  0  0  0  0  0  0  0
   11.0481   -9.0354    0.0000 N   0  0  0  0  0  0  0  0  0  0  0  0
   12.4770   -9.8604    0.0000 O   0  0  0  0  0  0  0  0  0  0  0  0
   13.1915   -8.6229    0.0000 O   0  0  0  0  0  0  0  0  0  0  0  0
  1  2  1  0  0  0  0
  2  3  1  0  0  0  0
  3  4  2  0  0  0  0
  4  5  1  0  0  0  0
  4  6  1  0  0  0  0
  6  7  2  0  0  0  0
  7  8  1  0  0  0  0
  8  9  2  0  0  0  0
  9 10  1  0  0  0  0
 10 11  1  0  0  0  0
 10 12  2  0  0  0  0
  6 12  1  0  0  0  0
 12 13  1  0  0  0  0
  2 13  2  0  0  0  0
  1 14  2  0  0  0  0
  1 15  1  0  0  0  0
M  END
>  <cdx:fragmentId>
9

$$$$
