39889.cdx
  Mrv1902 05222410282D          

 21 23  0  0  0  0            999 V2000
   12.7059  -10.0175    0.0000 C   0  0  0  0  0  0  0  0  0  0  0  0
   12.0384   -9.5326    0.0000 C   0  0  2  0  0  0  0  0  0  0  0  0
   11.2538   -9.7876    0.0000 C   0  0  1  0  0  0  0  0  0  0  0  0
   10.9989  -10.5722    0.0000 O   0  0  0  0  0  0  0  0  0  0  0  0
   10.7689   -9.1201    0.0000 C   0  0  1  0  0  0  0  0  0  0  0  0
    9.9439   -9.1201    0.0000 O   0  0  0  0  0  0  0  0  0  0  0  0
   11.2538   -8.4527    0.0000 C   0  0  1  0  0  0  0  0  0  0  0  0
   12.0384   -8.7076    0.0000 O   0  0  0  0  0  0  0  0  0  0  0  0
   10.9989   -7.6681    0.0000 N   0  0  0  0  0  0  0  0  0  0  0  0
   11.4838   -7.0006    0.0000 C   0  0  0  0  0  0  0  0  0  0  0  0
   10.9989   -6.3332    0.0000 N   0  0  0  0  0  0  0  0  0  0  0  0
   10.2143   -6.5881    0.0000 C   0  0  0  0  0  0  0  0  0  0  0  0
    9.4998   -6.1756    0.0000 C   0  0  0  0  0  0  0  0  0  0  0  0
    9.4998   -5.3506    0.0000 N   0  0  0  0  0  0  0  0  0  0  0  0
    8.7853   -6.5881    0.0000 N   0  0  0  0  0  0  0  0  0  0  0  0
    8.7853   -7.4131    0.0000 C   0  0  0  0  0  0  0  0  0  0  0  0
    9.4998   -7.8256    0.0000 N   0  0  0  0  0  0  0  0  0  0  0  0
   10.2143   -7.4131    0.0000 C   0  0  0  0  0  0  0  0  0  0  0  0
   13.4596   -9.6820    0.0000 S   0  0  0  0  0  0  0  0  0  0  0  0
   13.5458   -8.8615    0.0000 O   0  0  0  0  0  0  0  0  0  0  0  0
   14.1270  -10.1669    0.0000 C   0  0  0  0  0  0  0  0  0  0  0  0
  2  1  1  6  0  0  0
  2  3  1  0  0  0  0
  3  4  1  1  0  0  0
  3  5  1  0  0  0  0
  5  6  1  1  0  0  0
  5  7  1  0  0  0  0
  7  8  1  0  0  0  0
  2  8  1  0  0  0  0
  7  9  1  6  0  0  0
  9 10  1  0  0  0  0
 10 11  2  0  0  0  0
 11 12  1  0  0  0  0
 12 13  2  0  0  0  0
 13 14  1  0  0  0  0
 13 15  1  0  0  0  0
 15 16  2  0  0  0  0
 16 17  1  0  0  0  0
 17 18  2  0  0  0  0
 12 18  1  0  0  0  0
  9 18  1  0  0  0  0
 19 20  2  0  0  0  0
 19 21  1  0  0  0  0
  1 19  1  0  0  0  0
M  END
>  <cdx:fragmentId>
7

$$$$
