39881.cdx
  Mrv1902 05222410202D          

 13 13  0  0  0  0            999 V2000
   12.4197  -11.2792    0.0000 C   0  0  0  0  0  0  0  0  0  0  0  0
   11.7053  -10.8667    0.0000 C   0  0  0  0  0  0  0  0  0  0  0  0
   10.9908  -11.2792    0.0000 C   0  0  0  0  0  0  0  0  0  0  0  0
   12.4197  -12.1042    0.0000 O   0  0  0  0  0  0  0  0  0  0  0  0
   13.1342  -10.8667    0.0000 O   0  0  0  0  0  0  0  0  0  0  0  0
   10.2763  -10.8667    0.0000 C   0  0  0  0  0  0  0  0  0  0  0  0
   10.2763  -10.0417    0.0000 C   0  0  0  0  0  0  0  0  0  0  0  0
    9.5618   -9.6292    0.0000 C   0  0  0  0  0  0  0  0  0  0  0  0
    8.8474  -10.0417    0.0000 C   0  0  0  0  0  0  0  0  0  0  0  0
    8.8474  -10.8667    0.0000 C   0  0  0  0  0  0  0  0  0  0  0  0
    9.5618  -11.2792    0.0000 C   0  0  0  0  0  0  0  0  0  0  0  0
   11.7053  -10.0417    0.0000 O   0  0  0  0  0  0  0  0  0  0  0  0
   10.9908  -12.1042    0.0000 O   0  0  0  0  0  0  0  0  0  0  0  0
  1  2  1  0  0  0  0
  2  3  1  0  0  0  0
  1  4  2  0  0  0  0
  1  5  1  0  0  0  0
  6  7  1  0  0  0  0
  7  8  2  0  0  0  0
  8  9  1  0  0  0  0
  9 10  2  0  0  0  0
 10 11  1  0  0  0  0
  6 11  2  0  0  0  0
  3  6  1  0  0  0  0
  2 12  2  0  0  0  0
  3 13  1  0  0  0  0
M  END
>  <cdx:fragmentId>
19

$$$$
