39883.cdx
  Mrv1902 05222410192D          

 42 46  0  0  0  0            999 V2000
    6.6336   -8.9141    0.0000 H   0  0  0  0  0  0  0  0  0  0  0  0
    8.4379  -11.4826    0.0000 O   0  0  0  0  0  0  0  0  0  0  0  0
   10.0940   -9.6433    0.0000 C   0  0  0  0  0  0  0  0  0  0  0  0
    9.5420  -10.2564    0.0000 O   0  0  0  0  0  0  0  0  0  0  0  0
    7.1211   -9.7418    0.0000 C   0  0  0  0  0  0  0  0  0  0  0  0
    7.3760  -10.5264    0.0000 C   0  0  0  0  0  0  0  0  0  0  0  0
    8.1830  -10.6979    0.0000 C   0  0  0  0  0  0  0  0  0  0  0  0
    8.7350  -10.0848    0.0000 C   0  0  0  0  0  0  0  0  0  0  0  0
    8.4801   -9.3002    0.0000 C   0  0  0  0  0  0  0  0  0  0  0  0
    7.6731   -9.1287    0.0000 C   0  0  0  0  0  0  0  0  0  0  0  0
    7.4182   -7.0092    0.0000 C   0  0  0  0  0  0  0  0  0  0  0  0
    7.4182   -8.3441    0.0000 C   0  0  1  0  0  0  0  0  0  0  0  0
    7.9031   -7.6766    0.0000 O   0  0  0  0  0  0  0  0  0  0  0  0
    5.8489   -7.0092    0.0000 C   0  0  2  0  0  0  0  0  0  0  0  0
    6.6336   -7.2641    0.0000 C   0  0  0  0  0  0  0  0  0  0  0  0
    6.6336   -8.0891    0.0000 C   0  0  2  0  0  0  0  0  0  0  0  0
    5.8489   -8.3441    0.0000 C   0  0  0  0  0  0  0  0  0  0  0  0
    5.3640   -7.6766    0.0000 O   0  0  0  0  0  0  0  0  0  0  0  0
    3.1418   -5.6803    0.0000 C   0  0  0  0  0  0  0  0  0  0  0  0
    3.7251   -5.0969    0.0000 O   0  0  0  0  0  0  0  0  0  0  0  0
    4.8292   -3.8707    0.0000 O   0  0  0  0  0  0  0  0  0  0  0  0
    5.8911   -4.8268    0.0000 C   0  0  0  0  0  0  0  0  0  0  0  0
    6.1460   -5.6115    0.0000 C   0  0  0  0  0  0  0  0  0  0  0  0
    5.5940   -6.2246    0.0000 C   0  0  0  0  0  0  0  0  0  0  0  0
    4.7870   -6.0530    0.0000 C   0  0  0  0  0  0  0  0  0  0  0  0
    4.5321   -5.2684    0.0000 C   0  0  0  0  0  0  0  0  0  0  0  0
    5.0841   -4.6553    0.0000 C   0  0  0  0  0  0  0  0  0  0  0  0
    6.6336   -6.4391    0.0000 O   0  0  0  0  0  0  0  0  0  0  0  0
    7.3480   -6.0266    0.0000 C   0  0  0  0  0  0  0  0  0  0  0  0
    7.3480   -5.2016    0.0000 C   0  0  0  0  0  0  0  0  0  0  0  0
    8.0625   -6.4391    0.0000 O   0  0  0  0  0  0  0  0  0  0  0  0
    6.5685  -12.5865    0.0000 C   0  0  2  0  0  0  0  0  0  0  0  0
    6.8491  -13.3623    0.0000 C   0  0  2  0  0  0  0  0  0  0  0  0
    7.6613  -13.5071    0.0000 C   0  0  1  0  0  0  0  0  0  0  0  0
    8.1928  -12.8762    0.0000 C   0  0  2  0  0  0  0  0  0  0  0  0
    7.9122  -12.1004    0.0000 C   0  0  1  0  0  0  0  0  0  0  0  0
    7.1000  -11.9555    0.0000 O   0  0  0  0  0  0  0  0  0  0  0  0
    5.7563  -12.4416    0.0000 C   0  0  0  0  0  0  0  0  0  0  0  0
    7.9420  -14.2829    0.0000 O   0  0  0  0  0  0  0  0  0  0  0  0
    6.3176  -13.9932    0.0000 O   0  0  0  0  0  0  0  0  0  0  0  0
    9.0050  -13.0210    0.0000 O   0  0  0  0  0  0  0  0  0  0  0  0
    5.2247  -13.0726    0.0000 O   0  0  0  0  0  0  0  0  0  0  0  0
 16  1  1  6  0  0  0
 14 24  1  6  0  0  0
 12 10  1  6  0  0  0
  7  2  1  0  0  0  0
  8  4  1  0  0  0  0
  4  3  1  0  0  0  0
 10  5  2  0  0  0  0
  6  5  1  0  0  0  0
  7  6  2  0  0  0  0
  8  7  1  0  0  0  0
  9  8  2  0  0  0  0
 10  9  1  0  0  0  0
 11 15  1  0  0  0  0
 12 16  1  0  0  0  0
 13 11  1  0  0  0  0
 13 12  1  0  0  0  0
 18 14  1  0  0  0  0
 15 14  1  0  0  0  0
 16 15  1  0  0  0  0
 17 16  1  0  0  0  0
 18 17  1  0  0  0  0
 26 20  1  0  0  0  0
 20 19  1  0  0  0  0
 27 21  1  0  0  0  0
 27 22  2  0  0  0  0
 23 22  1  0  0  0  0
 24 23  2  0  0  0  0
 25 24  1  0  0  0  0
 26 25  2  0  0  0  0
 27 26  1  0  0  0  0
 15 28  1  0  0  0  0
 28 29  1  0  0  0  0
 29 30  1  0  0  0  0
 29 31  2  0  0  0  0
 32 33  1  0  0  0  0
 33 34  1  0  0  0  0
 34 35  1  0  0  0  0
 35 36  1  0  0  0  0
 36 37  1  0  0  0  0
 37 32  1  0  0  0  0
 32 38  1  1  0  0  0
 34 39  1  1  0  0  0
 33 40  1  6  0  0  0
 35 41  1  6  0  0  0
 38 42  1  0  0  0  0
 36  2  1  1  0  0  0
M  END
>  <cdx:fragmentId>
39

$$$$
