39880.cdx
  Mrv1902 05222410202D          

 10  9  0  0  0  0            999 V2000
   13.5015   -8.0041    0.0000 O   0  0  0  0  0  0  0  0  0  0  0  0
   12.7870   -8.4166    0.0000 C   0  0  0  0  0  0  0  0  0  0  0  0
   11.3581   -8.4166    0.0000 C   0  0  1  0  0  0  0  0  0  0  0  0
   11.3581   -9.2416    0.0000 O   0  0  0  0  0  0  0  0  0  0  0  0
   10.6436   -8.0041    0.0000 C   0  0  1  0  0  0  0  0  0  0  0  0
   10.6436   -7.1791    0.0000 O   0  0  0  0  0  0  0  0  0  0  0  0
    9.9291   -8.4166    0.0000 C   0  0  0  0  0  0  0  0  0  0  0  0
    9.2147   -8.0041    0.0000 O   0  0  0  0  0  0  0  0  0  0  0  0
   12.0725   -8.0041    0.0000 C   0  0  0  0  0  0  0  0  0  0  0  0
   12.0725   -7.1791    0.0000 O   0  0  0  0  0  0  0  0  0  0  0  0
  1  2  1  0  0  0  0
  3  4  1  1  0  0  0
  3  5  1  0  0  0  0
  5  6  1  6  0  0  0
  5  7  1  0  0  0  0
  7  8  1  0  0  0  0
  9 10  2  0  0  0  0
  3  9  1  0  0  0  0
  2  9  1  0  0  0  0
M  END
>  <cdx:fragmentId>
13

$$$$
