39887.cdx
  Mrv1902 05222410192D          

 58 61  0  0  0  0            999 V2000
    4.6009   -8.2585    0.0000 C   0  0  0  0  0  0  0  0  0  0  0  0
    3.8864   -8.6710    0.0000 C   0  0  0  0  0  0  0  0  0  0  0  0
    3.1719   -8.2585    0.0000 C   0  0  0  0  0  0  0  0  0  0  0  0
    4.6009   -7.4335    0.0000 O   0  0  0  0  0  0  0  0  0  0  0  0
    5.3153   -8.6710    0.0000 N   0  0  0  0  0  0  0  0  0  0  0  0
    6.0298   -8.2585    0.0000 C   0  0  0  0  0  0  0  0  0  0  0  0
    6.7443   -8.6710    0.0000 C   0  0  0  0  0  0  0  0  0  0  0  0
    7.4588   -8.2585    0.0000 C   0  0  0  0  0  0  0  0  0  0  0  0
    8.1732   -8.6710    0.0000 N   0  0  0  0  0  0  0  0  0  0  0  0
    8.8877   -8.2585    0.0000 C   0  0  0  0  0  0  0  0  0  0  0  0
    9.6022   -8.6710    0.0000 C   0  0  0  0  0  0  0  0  0  0  0  0
   10.3166   -8.2585    0.0000 C   0  0  0  0  0  0  0  0  0  0  0  0
   11.0311   -8.6710    0.0000 C   0  0  0  0  0  0  0  0  0  0  0  0
   11.7456   -8.2585    0.0000 N   0  0  0  0  0  0  0  0  0  0  0  0
   12.4600   -8.6710    0.0000 C   0  0  0  0  0  0  0  0  0  0  0  0
   13.1745   -8.2585    0.0000 C   0  0  0  0  0  0  0  0  0  0  0  0
   13.8890   -8.6710    0.0000 C   0  0  0  0  0  0  0  0  0  0  0  0
   14.6035   -8.2585    0.0000 N   0  0  0  0  0  0  0  0  0  0  0  0
   15.3179   -8.6710    0.0000 C   0  0  0  0  0  0  0  0  0  0  0  0
   16.0324   -8.2585    0.0000 C   0  0  0  0  0  0  0  0  0  0  0  0
   16.7469   -8.6710    0.0000 C   0  0  0  0  0  0  0  0  0  0  0  0
   15.3179   -9.4960    0.0000 O   0  0  0  0  0  0  0  0  0  0  0  0
   17.4613   -8.2585    0.0000 C   0  0  0  0  0  0  0  0  0  0  0  0
   17.4613   -7.4335    0.0000 C   0  0  0  0  0  0  0  0  0  0  0  0
   18.1758   -7.0210    0.0000 C   0  0  0  0  0  0  0  0  0  0  0  0
   18.8903   -7.4335    0.0000 C   0  0  0  0  0  0  0  0  0  0  0  0
   18.8903   -8.2585    0.0000 C   0  0  0  0  0  0  0  0  0  0  0  0
   18.1758   -8.6710    0.0000 C   0  0  0  0  0  0  0  0  0  0  0  0
   19.6048   -7.0210    0.0000 O   0  0  0  0  0  0  0  0  0  0  0  0
   11.7456   -7.4335    0.0000 C   0  0  0  0  0  0  0  0  0  0  0  0
   12.4600   -7.0210    0.0000 C   0  0  0  0  0  0  0  0  0  0  0  0
   12.4600   -6.1960    0.0000 C   0  0  0  0  0  0  0  0  0  0  0  0
   11.0311   -7.0210    0.0000 O   0  0  0  0  0  0  0  0  0  0  0  0
   13.1745   -5.7835    0.0000 C   0  0  0  0  0  0  0  0  0  0  0  0
   13.1745   -4.9585    0.0000 C   0  0  0  0  0  0  0  0  0  0  0  0
   13.8890   -4.5460    0.0000 C   0  0  0  0  0  0  0  0  0  0  0  0
   14.6035   -4.9585    0.0000 C   0  0  0  0  0  0  0  0  0  0  0  0
   14.6035   -5.7835    0.0000 C   0  0  0  0  0  0  0  0  0  0  0  0
   13.8890   -6.1960    0.0000 C   0  0  0  0  0  0  0  0  0  0  0  0
   15.3179   -4.5460    0.0000 O   0  0  0  0  0  0  0  0  0  0  0  0
    8.1732   -9.4960    0.0000 C   0  0  0  0  0  0  0  0  0  0  0  0
    7.4588   -9.9085    0.0000 C   0  0  0  0  0  0  0  0  0  0  0  0
    7.4588  -10.7335    0.0000 C   0  0  0  0  0  0  0  0  0  0  0  0
    8.8877   -9.9085    0.0000 O   0  0  0  0  0  0  0  0  0  0  0  0
    6.7443  -11.1460    0.0000 C   0  0  0  0  0  0  0  0  0  0  0  0
    6.7443  -11.9710    0.0000 C   0  0  0  0  0  0  0  0  0  0  0  0
    6.0298  -12.3835    0.0000 C   0  0  0  0  0  0  0  0  0  0  0  0
    5.3153  -11.9710    0.0000 C   0  0  0  0  0  0  0  0  0  0  0  0
    5.3153  -11.1460    0.0000 C   0  0  0  0  0  0  0  0  0  0  0  0
    6.0298  -10.7335    0.0000 C   0  0  0  0  0  0  0  0  0  0  0  0
    4.6009  -12.3835    0.0000 O   0  0  0  0  0  0  0  0  0  0  0  0
    2.4575   -8.6710    0.0000 C   0  0  0  0  0  0  0  0  0  0  0  0
    2.4575   -9.4960    0.0000 C   0  0  0  0  0  0  0  0  0  0  0  0
    1.7430   -9.9085    0.0000 C   0  0  0  0  0  0  0  0  0  0  0  0
    1.0285   -9.4960    0.0000 C   0  0  0  0  0  0  0  0  0  0  0  0
    1.0285   -8.6710    0.0000 C   0  0  0  0  0  0  0  0  0  0  0  0
    1.7430   -8.2585    0.0000 C   0  0  0  0  0  0  0  0  0  0  0  0
    0.3140   -9.9085    0.0000 O   0  0  0  0  0  0  0  0  0  0  0  0
  1  2  1  0  0  0  0
  2  3  2  0  0  0  0
  1  4  2  0  0  0  0
  1  5  1  0  0  0  0
  6  7  1  0  0  0  0
  7  8  1  0  0  0  0
 10 11  1  0  0  0  0
 11 12  1  0  0  0  0
 12 13  1  0  0  0  0
 15 16  1  0  0  0  0
 16 17  1  0  0  0  0
 19 20  1  0  0  0  0
 20 21  2  0  0  0  0
 19 22  2  0  0  0  0
 23 24  1  0  0  0  0
 24 25  2  0  0  0  0
 25 26  1  0  0  0  0
 26 27  2  0  0  0  0
 27 28  1  0  0  0  0
 23 28  2  0  0  0  0
 26 29  1  0  0  0  0
 21 23  1  0  0  0  0
 18 19  1  0  0  0  0
 17 18  1  0  0  0  0
 14 15  1  0  0  0  0
 30 31  1  0  0  0  0
 31 32  2  0  0  0  0
 30 33  2  0  0  0  0
 34 35  1  0  0  0  0
 35 36  2  0  0  0  0
 36 37  1  0  0  0  0
 37 38  2  0  0  0  0
 38 39  1  0  0  0  0
 34 39  2  0  0  0  0
 37 40  1  0  0  0  0
 32 34  1  0  0  0  0
 14 30  1  0  0  0  0
 13 14  1  0  0  0  0
  9 10  1  0  0  0  0
 41 42  1  0  0  0  0
 42 43  2  0  0  0  0
 41 44  2  0  0  0  0
 45 46  1  0  0  0  0
 46 47  2  0  0  0  0
 47 48  1  0  0  0  0
 48 49  2  0  0  0  0
 49 50  1  0  0  0  0
 45 50  2  0  0  0  0
 48 51  1  0  0  0  0
 43 45  1  0  0  0  0
  9 41  1  0  0  0  0
  8  9  1  0  0  0  0
  5  6  1  0  0  0  0
 52 53  1  0  0  0  0
 53 54  2  0  0  0  0
 54 55  1  0  0  0  0
 55 56  2  0  0  0  0
 56 57  1  0  0  0  0
 52 57  2  0  0  0  0
 55 58  1  0  0  0  0
  3 52  1  0  0  0  0
M  END
>  <cdx:fragmentId>
49

$$$$
