39886.cdx
  Mrv1902 05222410182D          

 43 47  0  0  0  0            999 V2000
   10.3578   -7.6741    0.0000 C   0  0  0  0  0  0  0  0  0  0  0  0
   11.0723   -8.0866    0.0000 O   0  0  0  0  0  0  0  0  0  0  0  0
    9.2147   -8.3341    0.0000 C   0  0  0  0  0  0  0  0  0  0  0  0
    9.2147   -9.1591    0.0000 C   0  0  0  0  0  0  0  0  0  0  0  0
    8.5002   -9.5716    0.0000 C   0  0  0  0  0  0  0  0  0  0  0  0
    7.7857   -9.1591    0.0000 C   0  0  0  0  0  0  0  0  0  0  0  0
    7.7857   -8.3341    0.0000 C   0  0  0  0  0  0  0  0  0  0  0  0
    8.5002   -7.9216    0.0000 C   0  0  0  0  0  0  0  0  0  0  0  0
    7.0713   -9.5716    0.0000 C   0  0  0  0  0  0  0  0  0  0  0  0
    9.9291   -9.5716    0.0000 C   0  0  0  0  0  0  0  0  0  0  0  0
   10.6436   -9.1591    0.0000 C   0  0  0  0  0  0  0  0  0  0  0  0
   11.3581   -9.5716    0.0000 C   0  0  0  0  0  0  0  0  0  0  0  0
   11.3581  -10.3966    0.0000 C   0  0  0  0  0  0  0  0  0  0  0  0
   10.6436  -10.8091    0.0000 C   0  0  0  0  0  0  0  0  0  0  0  0
    9.9291  -10.3966    0.0000 C   0  0  0  0  0  0  0  0  0  0  0  0
    9.2147  -10.8091    0.0000 O   0  0  0  0  0  0  0  0  0  0  0  0
   10.6436   -8.3341    0.0000 O   0  0  0  0  0  0  0  0  0  0  0  0
   12.0725  -10.8091    0.0000 C   0  0  0  0  0  0  0  0  0  0  0  0
   12.7870  -10.3966    0.0000 C   0  0  0  0  0  0  0  0  0  0  0  0
   13.5015  -10.8091    0.0000 C   0  0  0  0  0  0  0  0  0  0  0  0
   13.5015  -11.6341    0.0000 C   0  0  0  0  0  0  0  0  0  0  0  0
   14.2160  -12.0466    0.0000 C   0  0  0  0  0  0  0  0  0  0  0  0
   14.9304  -11.6341    0.0000 C   0  0  0  0  0  0  0  0  0  0  0  0
   14.9304  -10.8091    0.0000 C   0  0  0  0  0  0  0  0  0  0  0  0
   14.2160  -10.3966    0.0000 C   0  0  0  0  0  0  0  0  0  0  0  0
   15.6449  -12.0466    0.0000 O   0  0  0  0  0  0  0  0  0  0  0  0
   12.7870  -12.0466    0.0000 O   0  0  0  0  0  0  0  0  0  0  0  0
    8.5002   -7.0966    0.0000 C   0  0  0  0  0  0  0  0  0  0  0  0
    7.7857   -6.6841    0.0000 C   0  0  0  0  0  0  0  0  0  0  0  0
    7.7857   -5.8591    0.0000 C   0  0  0  0  0  0  0  0  0  0  0  0
    8.5002   -5.4466    0.0000 C   0  0  0  0  0  0  0  0  0  0  0  0
    9.2147   -5.8591    0.0000 C   0  0  0  0  0  0  0  0  0  0  0  0
    9.2147   -6.6841    0.0000 C   0  0  0  0  0  0  0  0  0  0  0  0
    8.5002   -4.6216    0.0000 O   0  0  0  0  0  0  0  0  0  0  0  0
    7.0713   -7.0966    0.0000 O   0  0  0  0  0  0  0  0  0  0  0  0
   10.3578   -6.8491    0.0000 C   0  0  0  0  0  0  0  0  0  0  0  0
   11.0723   -6.4366    0.0000 C   0  0  0  0  0  0  0  0  0  0  0  0
   11.0723   -5.6116    0.0000 C   0  0  0  0  0  0  0  0  0  0  0  0
   10.3578   -5.1991    0.0000 C   0  0  0  0  0  0  0  0  0  0  0  0
    9.6433   -5.6116    0.0000 C   0  0  0  0  0  0  0  0  0  0  0  0
    9.6433   -6.4366    0.0000 C   0  0  0  0  0  0  0  0  0  0  0  0
   10.3578   -4.3741    0.0000 O   0  0  0  0  0  0  0  0  0  0  0  0
   11.7868   -6.8491    0.0000 O   0  0  0  0  0  0  0  0  0  0  0  0
  1  2  2  0  0  0  0
  3  4  1  0  0  0  0
  4  5  1  0  0  0  0
  5  6  2  0  0  0  0
  6  7  1  0  0  0  0
  7  8  1  0  0  0  0
  3  8  1  0  0  0  0
  6  9  1  0  0  0  0
 10 11  1  0  0  0  0
 11 12  2  0  0  0  0
 12 13  1  0  0  0  0
 13 14  2  0  0  0  0
 14 15  1  0  0  0  0
 10 15  2  0  0  0  0
 15 16  1  0  0  0  0
 11 17  1  0  0  0  0
 18 19  2  0  0  0  0
 20 21  1  0  0  0  0
 21 22  2  0  0  0  0
 22 23  1  0  0  0  0
 23 24  2  0  0  0  0
 24 25  1  0  0  0  0
 20 25  2  0  0  0  0
 23 26  1  0  0  0  0
 21 27  1  0  0  0  0
 19 20  1  0  0  0  0
 13 18  1  0  0  0  0
  4 10  1  0  0  0  0
 28 29  1  0  0  0  0
 29 30  2  0  0  0  0
 30 31  1  0  0  0  0
 31 32  2  0  0  0  0
 32 33  1  0  0  0  0
 28 33  2  0  0  0  0
 31 34  1  0  0  0  0
 29 35  1  0  0  0  0
  8 28  1  0  0  0  0
  1  3  1  0  0  0  0
 36 37  1  0  0  0  0
 37 38  2  0  0  0  0
 38 39  1  0  0  0  0
 39 40  2  0  0  0  0
 40 41  1  0  0  0  0
 36 41  2  0  0  0  0
 39 42  1  0  0  0  0
 37 43  1  0  0  0  0
  1 36  1  0  0  0  0
M  END
>  <cdx:fragmentId>
48

$$$$
