39896.cdx
  Mrv1902 05222410192D          

 14 14  0  0  0  0            999 V2000
    8.2357   -7.3150    0.0000 C   0  0  0  0  0  0  0  0  0  0  0  0
    8.2357   -8.1400    0.0000 C   0  0  0  0  0  0  0  0  0  0  0  0
    7.5213   -8.5525    0.0000 C   0  0  0  0  0  0  0  0  0  0  0  0
    6.8068   -8.1400    0.0000 C   0  0  0  0  0  0  0  0  0  0  0  0
    6.8068   -7.3150    0.0000 C   0  0  0  0  0  0  0  0  0  0  0  0
    7.5213   -6.9025    0.0000 C   0  0  0  0  0  0  0  0  0  0  0  0
    6.0923   -8.5525    0.0000 C   0  0  0  0  0  0  0  0  0  0  0  0
    6.5048   -9.2670    0.0000 C   0  0  0  0  0  0  0  0  0  0  0  0
    5.3778   -8.9650    0.0000 C   0  0  0  0  0  0  0  0  0  0  0  0
    5.6798   -7.8380    0.0000 C   0  0  0  0  0  0  0  0  0  0  0  0
    8.9502   -6.9025    0.0000 C   0  0  0  0  0  0  0  0  0  0  0  0
    8.5377   -6.1880    0.0000 C   0  0  0  0  0  0  0  0  0  0  0  0
    9.6647   -6.4900    0.0000 C   0  0  0  0  0  0  0  0  0  0  0  0
    9.3627   -7.6170    0.0000 C   0  0  0  0  0  0  0  0  0  0  0  0
  1  2  1  0  0  0  0
  2  3  2  0  0  0  0
  3  4  1  0  0  0  0
  4  5  2  0  0  0  0
  5  6  1  0  0  0  0
  1  6  2  0  0  0  0
  7  8  1  0  0  0  0
  7 10  1  0  0  0  0
  7  9  1  0  0  0  0
  4  7  1  0  0  0  0
 11 12  1  0  0  0  0
 11 14  1  0  0  0  0
 11 13  1  0  0  0  0
  1 11  1  0  0  0  0
M  END
>  <cdx:fragmentId>
146

$$$$
