39893.cdx
  Mrv1902 05222410192D          

 14 13  0  0  0  0            999 V2000
    2.8769   -8.5646    0.0000 C   0  0  0  0  0  0  0  0  0  0  0  0
    3.5914   -8.1521    0.0000 C   0  0  0  0  0  0  0  0  0  0  0  0
    4.3059   -8.5646    0.0000 O   0  0  0  0  0  0  0  0  0  0  0  0
    5.0203   -7.3271    0.0000 O   0  0  0  0  0  0  0  0  0  0  0  0
   11.4506   -8.5646    0.0000 C   0  0  0  0  0  0  0  0  0  0  0  0
   10.7361   -8.1521    0.0000 C   0  0  0  0  0  0  0  0  0  0  0  0
   10.0216   -8.5646    0.0000 C   0  0  0  0  0  0  0  0  0  0  0  0
    9.3072   -8.1521    0.0000 C   0  0  0  0  0  0  0  0  0  0  0  0
    8.5927   -8.5646    0.0000 C   0  0  0  0  0  0  0  0  0  0  0  0
    7.8782   -8.1521    0.0000 C   0  0  0  0  0  0  0  0  0  0  0  0
    7.1637   -8.5646    0.0000 C   0  0  0  0  0  0  0  0  0  0  0  0
    6.4493   -8.1521    0.0000 C   0  0  0  0  0  0  0  0  0  0  0  0
    5.7348   -8.5646    0.0000 C   0  0  0  0  0  0  0  0  0  0  0  0
    5.0203   -8.1521    0.0000 C   0  0  0  0  0  0  0  0  0  0  0  0
  3  2  1  0  0  0  0
  2  1  2  0  0  0  0
 14  3  1  0  0  0  0
 14  4  2  0  0  0  0
  6  5  1  0  0  0  0
  7  6  1  0  0  0  0
  8  7  1  0  0  0  0
  9  8  1  0  0  0  0
 10  9  1  0  0  0  0
 11 10  1  0  0  0  0
 12 11  1  0  0  0  0
 13 12  1  0  0  0  0
 14 13  1  0  0  0  0
M  END
>  <cdx:fragmentId>
1269

$$$$
