39892.cdx
  Mrv1902 05222410192D          

 22 21  0  0  0  0            999 V2000
   12.7963   -8.0971    0.0000 C   0  0  0  0  0  0  0  0  0  0  0  0
   12.0818   -8.5096    0.0000 C   0  0  0  0  0  0  0  0  0  0  0  0
   11.3673   -8.0971    0.0000 C   0  0  0  0  0  0  0  0  0  0  0  0
   10.6528   -8.5096    0.0000 C   0  0  0  0  0  0  0  0  0  0  0  0
    9.9384   -8.0971    0.0000 C   0  0  0  0  0  0  0  0  0  0  0  0
    9.2239   -8.5096    0.0000 C   0  0  0  0  0  0  0  0  0  0  0  0
    8.5094   -8.0971    0.0000 C   0  0  0  0  0  0  0  0  0  0  0  0
    7.7950   -8.5096    0.0000 C   0  0  0  0  0  0  0  0  0  0  0  0
    7.0805   -8.0971    0.0000 C   0  0  0  0  0  0  0  0  0  0  0  0
    6.3660   -8.5096    0.0000 C   0  0  0  0  0  0  0  0  0  0  0  0
    5.6515   -8.0971    0.0000 C   0  0  0  0  0  0  0  0  0  0  0  0
    4.9371   -8.5096    0.0000 C   0  0  0  0  0  0  0  0  0  0  0  0
    4.2226   -8.0971    0.0000 C   0  0  0  0  0  0  0  0  0  0  0  0
    3.5081   -8.5096    0.0000 C   0  0  0  0  0  0  0  0  0  0  0  0
    2.7937   -8.0971    0.0000 C   0  0  0  0  0  0  0  0  0  0  0  0
    2.0792   -8.5096    0.0000 C   0  0  0  0  0  0  0  0  0  0  0  0
    1.3647   -8.0971    0.0000 C   0  0  0  0  0  0  0  0  0  0  0  0
    0.6503   -8.5096    0.0000 C   0  0  0  0  0  0  0  0  0  0  0  0
   12.7963   -7.2721    0.0000 O   0  0  0  0  0  0  0  0  0  0  0  0
   13.5107   -8.5096    0.0000 O   0  0  0  0  0  0  0  0  0  0  0  0
    4.9371   -9.3346    0.0000 O   0  0  0  0  0  0  0  0  0  0  0  0
    7.0805   -7.2721    0.0000 O   0  0  0  0  0  0  0  0  0  0  0  0
  1  2  1  0  0  0  0
  2  3  1  0  0  0  0
  3  4  1  0  0  0  0
  4  5  1  0  0  0  0
  5  6  1  0  0  0  0
  6  7  1  0  0  0  0
  7  8  1  0  0  0  0
  8  9  1  0  0  0  0
  9 10  1  0  0  0  0
 10 11  1  0  0  0  0
 11 12  1  0  0  0  0
 12 13  1  0  0  0  0
 13 14  1  0  0  0  0
 14 15  1  0  0  0  0
 15 16  1  0  0  0  0
 16 17  1  0  0  0  0
 17 18  1  0  0  0  0
  1 19  2  0  0  0  0
  1 20  1  0  0  0  0
 12 21  1  0  0  0  0
  9 22  1  0  0  0  0
M  END
>  <cdx:fragmentId>
179

$$$$
