39899.cdx
  Mrv1902 05222410262D          

 10  9  0  0  0  0            999 V2000
    9.0049   -6.6058    0.0000 C   0  0  0  0  0  0  0  0  0  0  0  0
    9.0049   -7.4308    0.0000 C   0  0  0  0  0  0  0  0  0  0  0  0
    8.2905   -7.8433    0.0000 C   0  0  0  0  0  0  0  0  0  0  0  0
    7.5760   -7.4308    0.0000 C   0  0  0  0  0  0  0  0  0  0  0  0
    6.8615   -7.8433    0.0000 C   0  0  0  0  0  0  0  0  0  0  0  0
    6.1470   -7.4308    0.0000 C   0  0  0  0  0  0  0  0  0  0  0  0
    5.4326   -7.8433    0.0000 C   0  0  0  0  0  0  0  0  0  0  0  0
    4.7181   -7.4308    0.0000 C   0  0  0  0  0  0  0  0  0  0  0  0
    6.1470   -6.6058    0.0000 C   0  0  0  0  0  0  0  0  0  0  0  0
    9.7194   -7.8433    0.0000 C   0  0  0  0  0  0  0  0  0  0  0  0
  1  2  1  0  0  0  0
  2  3  2  0  0  0  0
  3  4  1  0  0  0  0
  4  5  1  0  0  0  0
  5  6  1  0  0  0  0
  6  7  1  0  0  0  0
  7  8  1  0  0  0  0
  6  9  2  0  0  0  0
  2 10  1  0  0  0  0
M  END
>  <cdx:fragmentId>
9

$$$$
