39891.cdx
  Mrv1902 05222410182D          

 35 39  0  0  0  0            999 V2000
   12.6914   -5.6031    0.0000 O   0  0  0  0  0  0  0  0  0  0  0  0
   13.4760   -5.8580    0.0000 C   0  0  1  0  0  0  0  0  0  0  0  0
   13.4760   -6.6830    0.0000 C   0  0  0  0  0  0  0  0  0  0  0  0
   12.6914   -6.9380    0.0000 C   0  0  0  0  0  0  0  0  0  0  0  0
   12.2064   -6.2705    0.0000 C   0  0  0  0  0  0  0  0  0  0  0  0
   11.3814   -6.2705    0.0000 O   0  0  0  0  0  0  0  0  0  0  0  0
    8.7939   -8.8025    0.0000 C   0  0  0  0  0  0  0  0  0  0  0  0
    8.0794   -9.2150    0.0000 C   0  0  0  0  0  0  0  0  0  0  0  0
    8.0794  -10.0400    0.0000 C   0  0  0  0  0  0  0  0  0  0  0  0
    8.7939  -10.4525    0.0000 C   0  0  0  0  0  0  0  0  0  0  0  0
    9.5084  -10.0400    0.0000 C   0  0  2  0  0  0  0  0  0  0  0  0
   10.2228  -10.4525    0.0000 C   0  0  0  0  0  0  0  0  0  0  0  0
   10.9373  -10.0400    0.0000 C   0  0  0  0  0  0  0  0  0  0  0  0
   10.9373   -9.2150    0.0000 C   0  0  0  0  0  0  0  0  0  0  0  0
   11.6518   -8.8025    0.0000 C   0  0  1  0  0  0  0  0  0  0  0  0
   12.4364   -9.0575    0.0000 C   0  0  0  0  0  0  0  0  0  0  0  0
   12.9213   -8.3900    0.0000 C   0  0  0  0  0  0  0  0  0  0  0  0
   12.4364   -7.7226    0.0000 C   0  0  2  0  0  0  0  0  0  0  0  0
   11.6518   -7.9775    0.0000 C   0  0  2  0  0  0  0  0  0  0  0  0
   10.9373   -7.5650    0.0000 C   0  0  0  0  0  0  0  0  0  0  0  0
   10.2228   -7.9775    0.0000 C   0  0  0  0  0  0  0  0  0  0  0  0
   10.2228   -8.8025    0.0000 C   0  0  2  0  0  0  0  0  0  0  0  0
    9.5084   -9.2150    0.0000 C   0  0  1  0  0  0  0  0  0  0  0  0
    7.3650  -10.4525    0.0000 O   0  0  0  0  0  0  0  0  0  0  0  0
   11.6518   -9.6275    0.0000 C   0  0  0  0  0  0  0  0  0  0  0  0
   11.7380   -7.1570    0.0000 C   0  0  0  0  0  0  0  0  0  0  0  0
    9.5084   -8.3900    0.0000 C   0  0  0  0  0  0  0  0  0  0  0  0
    9.2064  -11.1670    0.0000 C   0  0  0  0  0  0  0  0  0  0  0  0
    8.3814  -11.1670    0.0000 C   0  0  0  0  0  0  0  0  0  0  0  0
   14.1434   -5.3731    0.0000 C   0  0  0  0  0  0  0  0  0  0  0  0
   14.8971   -5.7087    0.0000 C   0  0  0  0  0  0  0  0  0  0  0  0
   14.9833   -6.5291    0.0000 C   0  0  0  0  0  0  0  0  0  0  0  0
   15.5645   -5.2237    0.0000 C   0  0  0  0  0  0  0  0  0  0  0  0
    9.5084  -10.8650    0.0000 H   0  0  0  0  0  0  0  0  0  0  0  0
   10.2228   -9.6275    0.0000 H   0  0  0  0  0  0  0  0  0  0  0  0
  1  2  1  0  0  0  0
  2  3  1  0  0  0  0
  3  4  2  0  0  0  0
  4  5  1  0  0  0  0
  1  5  1  0  0  0  0
  5  6  2  0  0  0  0
  7  8  1  0  0  0  0
  8  9  1  0  0  0  0
  9 10  1  0  0  0  0
 10 11  1  0  0  0  0
 11 12  1  0  0  0  0
 12 13  1  0  0  0  0
 13 14  2  0  0  0  0
 14 15  1  0  0  0  0
 15 16  1  0  0  0  0
 16 17  1  0  0  0  0
 17 18  1  0  0  0  0
 18 19  1  0  0  0  0
 15 19  1  0  0  0  0
 19 20  1  0  0  0  0
 20 21  1  0  0  0  0
 21 22  1  0  0  0  0
 14 22  1  0  0  0  0
 22 23  1  0  0  0  0
 11 23  1  0  0  0  0
  7 23  1  0  0  0  0
  9 24  2  0  0  0  0
 15 25  1  1  0  0  0
 19 26  1  6  0  0  0
 23 27  1  1  0  0  0
 10 28  1  0  0  0  0
 10 29  1  0  0  0  0
 18  4  1  6  0  0  0
 30 31  2  0  0  0  0
 31 32  1  0  0  0  0
 31 33  1  0  0  0  0
  2 30  1  6  0  0  0
 11 34  1  6  0  0  0
 22 35  1  6  0  0  0
M  END
>  <cdx:fragmentId>
23

$$$$
