39890.cdx
  Mrv1902 05222410182D          

 27 29  0  0  0  0            999 V2000
    8.0869   -6.0223    0.0000 C   0  0  0  0  0  0  0  0  0  0  0  0
    6.6581   -6.0016    0.0000 N   0  0  0  0  0  0  0  0  0  0  0  0
    5.1476   -6.9665    0.0000 N   0  0  0  0  0  0  0  0  0  0  0  0
    4.6548   -7.6282    0.0000 C   0  0  0  0  0  0  0  0  0  0  0  0
    5.1319   -8.3013    0.0000 N   0  0  0  0  0  0  0  0  0  0  0  0
    5.9194   -8.0556    0.0000 C   0  0  0  0  0  0  0  0  0  0  0  0
    6.6290   -8.4764    0.0000 N   0  0  0  0  0  0  0  0  0  0  0  0
    7.3483   -8.0724    0.0000 C   0  0  0  0  0  0  0  0  0  0  0  0
    7.3580   -7.2474    0.0000 N   0  0  0  0  0  0  0  0  0  0  0  0
    6.6484   -6.8266    0.0000 C   0  0  0  0  0  0  0  0  0  0  0  0
    5.9291   -7.2306    0.0000 C   0  0  0  0  0  0  0  0  0  0  0  0
    4.0802   -9.3286    0.0000 O   0  0  0  0  0  0  0  0  0  0  0  0
    4.8677   -9.0829    0.0000 C   0  0  2  0  0  0  0  0  0  0  0  0
    5.3448   -9.7559    0.0000 C   0  0  1  0  0  0  0  0  0  0  0  0
    4.8520  -10.4176    0.0000 C   0  0  1  0  0  0  0  0  0  0  0  0
    4.0705  -10.1535    0.0000 C   0  0  1  0  0  0  0  0  0  0  0  0
    3.3974  -10.6305    0.0000 C   0  0  0  0  0  0  0  0  0  0  0  0
    3.3877  -11.4555    0.0000 O   0  0  0  0  0  0  0  0  0  0  0  0
    5.0978  -11.2052    0.0000 O   0  0  0  0  0  0  0  0  0  0  0  0
    6.1697   -9.7656    0.0000 O   0  0  0  0  0  0  0  0  0  0  0  0
    9.5157   -6.0430    0.0000 O   0  0  0  0  0  0  0  0  0  0  0  0
    8.1108   -4.3725    0.0000 O   0  0  0  0  0  0  0  0  0  0  0  0
    6.6820   -4.3518    0.0000 O   0  0  0  0  0  0  0  0  0  0  0  0
    8.8192   -4.7953    0.0000 O   0  0  0  0  0  0  0  0  0  0  0  0
    8.8073   -5.6202    0.0000 C   0  0  0  0  0  0  0  0  0  0  0  0
    7.3785   -5.5995    0.0000 C   0  0  2  0  0  0  0  0  0  0  0  0
    7.3904   -4.7746    0.0000 C   0  0  0  0  0  0  0  0  0  0  0  0
 26  2  1  6  0  0  0
 25 21  1  0  0  0  0
 27 22  1  0  0  0  0
 27 23  2  0  0  0  0
 25 24  2  0  0  0  0
 26  1  1  0  0  0  0
 27 26  1  0  0  0  0
  1 25  1  0  0  0  0
  3  4  2  0  0  0  0
  4  5  1  0  0  0  0
  5  6  1  0  0  0  0
  6  7  2  0  0  0  0
  7  8  1  0  0  0  0
  8  9  2  0  0  0  0
  9 10  1  0  0  0  0
 10 11  2  0  0  0  0
  3 11  1  0  0  0  0
  6 11  1  0  0  0  0
 12 13  1  0  0  0  0
 13 14  1  0  0  0  0
 14 15  1  0  0  0  0
 15 16  1  0  0  0  0
 12 16  1  0  0  0  0
 17 18  1  0  0  0  0
 16 17  1  1  0  0  0
 15 19  1  6  0  0  0
 14 20  1  6  0  0  0
 13  5  1  1  0  0  0
  2 10  1  0  0  0  0
M  END
>  <cdx:fragmentId>
23

$$$$
