3989.cdx
  Mrv1902 05222410222D          

  9  9  0  0  0  0            999 V2000
    5.6761   -9.6661    0.0000 C   0  0  0  0  0  0  0  0  0  0  0  0
    6.5011   -9.6692    0.0000 C   0  0  0  0  0  0  0  0  0  0  0  0
    6.7589   -8.8855    0.0000 C   0  0  0  0  0  0  0  0  0  0  0  0
    6.0933   -8.3981    0.0000 C   0  0  0  0  0  0  0  0  0  0  0  0
    5.4241   -8.8806    0.0000 O   0  0  0  0  0  0  0  0  0  0  0  0
    6.0963   -7.5731    0.0000 O   0  0  0  0  0  0  0  0  0  0  0  0
    7.5566   -8.6749    0.0000 C   0  0  0  0  0  0  0  0  0  0  0  0
    7.5597   -7.8499    0.0000 O   0  0  0  0  0  0  0  0  0  0  0  0
    8.1378   -9.2605    0.0000 O   0  0  0  0  0  0  0  0  0  0  0  0
  1  2  2  0  0  0  0
  2  3  1  0  0  0  0
  3  4  2  0  0  0  0
  4  5  1  0  0  0  0
  5  1  1  0  0  0  0
  4  6  1  0  0  0  0
  3  7  1  0  0  0  0
  7  8  1  0  0  0  0
  7  9  2  0  0  0  0
M  END
>  <cdx:fragmentId>
11

$$$$
