39907.cdx
  Mrv1902 05222410262D          

 37 40  0  0  0  0            999 V2000
    4.0586   -8.3789    0.0000 C   0  0  0  0  0  0  0  0  0  0  0  0
    4.7731   -8.7914    0.0000 C   0  0  0  0  0  0  0  0  0  0  0  0
    5.4876   -8.3789    0.0000 C   0  0  0  0  0  0  0  0  0  0  0  0
    5.4876  -10.0289    0.0000 C   0  0  0  0  0  0  0  0  0  0  0  0
    5.4876  -10.8539    0.0000 C   0  0  0  0  0  0  0  0  0  0  0  0
    4.7731   -9.6164    0.0000 C   0  0  0  0  0  0  0  0  0  0  0  0
    6.2020   -9.6164    0.0000 C   0  0  2  0  0  0  0  0  0  0  0  0
    6.9165  -10.0289    0.0000 C   0  0  0  0  0  0  0  0  0  0  0  0
    7.6310   -9.6164    0.0000 C   0  0  0  0  0  0  0  0  0  0  0  0
    7.6310   -8.7914    0.0000 C   0  0  1  0  0  0  0  0  0  0  0  0
    7.6310   -7.9664    0.0000 C   0  0  0  0  0  0  0  0  0  0  0  0
    8.3455   -8.3789    0.0000 C   0  0  2  0  0  0  0  0  0  0  0  0
    8.3455   -9.2039    0.0000 C   0  0  0  0  0  0  0  0  0  0  0  0
    9.0599   -8.7914    0.0000 C   0  0  0  0  0  0  0  0  0  0  0  0
    9.7744   -8.3789    0.0000 C   0  0  0  0  0  0  0  0  0  0  0  0
    9.7744   -7.5539    0.0000 C   0  0  1  0  0  0  0  0  0  0  0  0
   10.4889   -7.9664    0.0000 C   0  0  0  0  0  0  0  0  0  0  0  0
   10.4889   -7.1414    0.0000 C   0  0  0  0  0  0  0  0  0  0  0  0
   10.4889   -6.3164    0.0000 C   0  0  0  0  0  0  0  0  0  0  0  0
    9.7744   -5.9039    0.0000 C   0  0  1  0  0  0  0  0  0  0  0  0
    9.3619   -5.1895    0.0000 C   0  0  0  0  0  0  0  0  0  0  0  0
   10.1869   -5.1895    0.0000 C   0  0  0  0  0  0  0  0  0  0  0  0
    9.0599   -6.3164    0.0000 C   0  0  0  0  0  0  0  0  0  0  0  0
    9.0599   -7.1414    0.0000 C   0  0  1  0  0  0  0  0  0  0  0  0
    9.0599   -7.9664    0.0000 H   0  0  0  0  0  0  0  0  0  0  0  0
    8.3455   -7.5539    0.0000 C   0  0  0  0  0  0  0  0  0  0  0  0
    7.6310   -7.1414    0.0000 C   0  0  0  0  0  0  0  0  0  0  0  0
    6.9165   -7.5539    0.0000 C   0  0  0  0  0  0  0  0  0  0  0  0
    6.9165   -8.3789    0.0000 C   0  0  2  0  0  0  0  0  0  0  0  0
    6.2020   -8.7914    0.0000 C   0  0  1  0  0  0  0  0  0  0  0  0
    6.2020   -7.9664    0.0000 C   0  0  0  0  0  0  0  0  0  0  0  0
    6.9165   -9.2039    0.0000 H   0  0  0  0  0  0  0  0  0  0  0  0
    4.0586   -7.5539    0.0000 O   0  0  0  0  0  0  0  0  0  0  0  0
    3.3442   -8.7914    0.0000 O   0  0  0  0  0  0  0  0  0  0  0  0
   10.4889   -8.7914    0.0000 O   0  0  0  0  0  0  0  0  0  0  0  0
   11.2033   -7.5539    0.0000 O   0  0  0  0  0  0  0  0  0  0  0  0
    6.2020  -10.4414    0.0000 H   0  0  0  0  0  0  0  0  0  0  0  0
  1  2  1  0  0  0  0
  2  3  1  0  0  0  0
  4  5  1  0  0  0  0
  4  6  1  0  0  0  0
  4  7  1  0  0  0  0
  7  8  1  0  0  0  0
  8  9  1  0  0  0  0
  9 10  1  0  0  0  0
 10 11  1  1  0  0  0
 10 12  1  0  0  0  0
 12 13  1  6  0  0  0
 12 14  1  0  0  0  0
 14 15  1  0  0  0  0
 15 16  1  0  0  0  0
 16 17  1  1  0  0  0
 16 18  1  0  0  0  0
 18 19  1  0  0  0  0
 19 20  1  0  0  0  0
 20 21  1  1  0  0  0
 20 22  1  6  0  0  0
 20 23  1  0  0  0  0
 23 24  1  0  0  0  0
 24 25  1  1  0  0  0
 16 24  1  0  0  0  0
 24 26  1  0  0  0  0
 12 26  1  0  0  0  0
 26 27  2  0  0  0  0
 27 28  1  0  0  0  0
 28 29  1  0  0  0  0
 10 29  1  0  0  0  0
 29 30  1  0  0  0  0
  3 30  1  0  0  0  0
  7 30  1  0  0  0  0
 30 31  1  1  0  0  0
 29 32  1  6  0  0  0
  1 33  2  0  0  0  0
  1 34  1  0  0  0  0
 17 35  2  0  0  0  0
 17 36  1  0  0  0  0
  7 37  1  6  0  0  0
M  END
>  <cdx:fragmentId>
274

$$$$
