399139.cdx
  Mrv1902 05222410252D          

 18 20  0  0  0  0            999 V2000
    7.6225  -10.7190    0.0000 C   0  0  2  0  0  0  0  0  0  0  0  0
    7.8600  -11.5090    0.0000 C   0  0  2  0  0  0  0  0  0  0  0  0
    7.1820  -11.9791    0.0000 C   0  0  0  0  0  0  0  0  0  0  0  0
    6.5255  -11.4794    0.0000 C   0  0  0  0  0  0  0  0  0  0  0  0
    6.7977  -10.7007    0.0000 C   0  0  1  0  0  0  0  0  0  0  0  0
    6.2978  -10.0444    0.0000 C   0  0  0  0  0  0  0  0  0  0  0  0
    6.4992   -9.2444    0.0000 C   0  0  0  0  0  0  0  0  0  0  0  0
    7.2502   -8.9030    0.0000 C   0  0  2  0  0  0  0  0  0  0  0  0
    7.9854   -9.2773    0.0000 C   0  0  0  0  0  0  0  0  0  0  0  0
    8.1511  -10.0855    0.0000 C   0  0  0  0  0  0  0  0  0  0  0  0
    6.9125   -9.9174    0.0000 O   0  0  0  0  0  0  0  0  0  0  0  0
    7.2685   -8.0782    0.0000 O   0  0  0  0  0  0  0  0  0  0  0  0
    9.4027   -9.0957    0.0000 C   0  0  0  0  0  0  0  0  0  0  0  0
    8.6416   -8.7774    0.0000 C   0  0  0  0  0  0  0  0  0  0  0  0
    8.5368   -7.9591    0.0000 C   0  0  0  0  0  0  0  0  0  0  0  0
    5.4896  -10.2101    0.0000 C   0  0  0  0  0  0  0  0  0  0  0  0
    8.6388  -11.7813    0.0000 C   0  0  0  0  0  0  0  0  0  0  0  0
    5.9829  -10.8299    0.0000 H   0  0  0  0  0  0  0  0  0  0  0  0
  1  2  1  0  0  0  0
  2  3  1  0  0  0  0
  3  4  1  0  0  0  0
  4  5  1  0  0  0  0
  5  6  1  0  0  0  0
  6  7  1  0  0  0  0
  7  8  1  0  0  0  0
  8  9  1  0  0  0  0
  9 10  1  0  0  0  0
  1 10  1  0  0  0  0
  1 11  1  1  0  0  0
  8 11  1  0  0  0  0
  1  5  1  0  0  0  0
  8 12  1  1  0  0  0
 13 14  1  0  0  0  0
 14 15  1  0  0  0  0
  9 14  2  0  0  0  0
  6 16  2  0  0  0  0
  2 17  1  1  0  0  0
  5 18  1  6  0  0  0
M  END
>  <cdx:fragmentId>
3300

$$$$
