39911.cdx
  Mrv1902 05222410272D          

 40 43  0  0  0  0            999 V2000
   10.8886   -8.7114    0.0000 H   0  0  0  0  0  0  0  0  0  0  0  0
    9.6397  -11.0281    0.0000 H   0  0  0  0  0  0  0  0  0  0  0  0
    7.4051   -7.7647    0.0000 C   0  0  0  0  0  0  0  0  0  0  0  0
    6.6906   -8.1772    0.0000 C   0  0  0  0  0  0  0  0  0  0  0  0
   12.7020  -10.4050    0.0000 O   0  0  0  0  0  0  0  0  0  0  0  0
   11.8770   -8.9760    0.0000 C   0  0  0  0  0  0  0  0  0  0  0  0
   11.4645   -9.6905    0.0000 C   0  0  1  0  0  0  0  0  0  0  0  0
   11.8770  -10.4050    0.0000 C   0  0  0  0  0  0  0  0  0  0  0  0
    8.6824   -9.8272    0.0000 C   0  0  0  0  0  0  0  0  0  0  0  0
    5.2617  -10.6522    0.0000 O   0  0  0  0  0  0  0  0  0  0  0  0
    3.8327  -11.4772    0.0000 O   0  0  0  0  0  0  0  0  0  0  0  0
    2.4038  -10.6522    0.0000 O   0  0  0  0  0  0  0  0  0  0  0  0
    1.6893   -9.4147    0.0000 O   0  0  0  0  0  0  0  0  0  0  0  0
    2.4038   -9.0022    0.0000 C   0  0  0  0  0  0  0  0  0  0  0  0
    3.1183   -9.4147    0.0000 C   0  0  2  0  0  0  0  0  0  0  0  0
    3.1183  -10.2397    0.0000 C   0  0  2  0  0  0  0  0  0  0  0  0
    3.8327  -10.6522    0.0000 C   0  0  1  0  0  0  0  0  0  0  0  0
    4.5472  -10.2397    0.0000 C   0  0  2  0  0  0  0  0  0  0  0  0
    4.5472   -9.4147    0.0000 C   0  0  1  0  0  0  0  0  0  0  0  0
    3.8327   -9.0022    0.0000 O   0  0  0  0  0  0  0  0  0  0  0  0
    5.2617   -9.0022    0.0000 O   0  0  0  0  0  0  0  0  0  0  0  0
    8.4010   -9.5458    0.0000 O   0  0  0  0  0  0  0  0  0  0  0  0
    7.6727  -11.5852    0.0000 O   0  0  0  0  0  0  0  0  0  0  0  0
    9.3968   -9.4147    0.0000 C   0  0  2  0  0  0  0  0  0  0  0  0
   10.2084  -10.3939    0.0000 C   0  0  0  0  0  0  0  0  0  0  0  0
   10.6395   -9.6905    0.0000 C   0  0  2  0  0  0  0  0  0  0  0  0
   10.1319   -9.0401    0.0000 C   0  0  2  0  0  0  0  0  0  0  0  0
   10.0028   -8.2253    0.0000 C   0  0  0  0  0  0  0  0  0  0  0  0
    9.1880   -8.0962    0.0000 O   0  0  0  0  0  0  0  0  0  0  0  0
    8.8135   -8.8313    0.0000 C   0  0  0  0  0  0  0  0  0  0  0  0
    7.9885   -8.8313    0.0000 C   0  0  0  0  0  0  0  0  0  0  0  0
    7.4051   -9.4147    0.0000 C   0  0  0  0  0  0  0  0  0  0  0  0
    6.6906   -9.0022    0.0000 C   0  0  0  0  0  0  0  0  0  0  0  0
    5.9762   -9.4147    0.0000 C   0  0  0  0  0  0  0  0  0  0  0  0
    5.9762  -10.2397    0.0000 O   0  0  0  0  0  0  0  0  0  0  0  0
    6.6906  -10.6522    0.0000 C   0  0  0  0  0  0  0  0  0  0  0  0
    7.4051  -10.2397    0.0000 C   0  0  0  0  0  0  0  0  0  0  0  0
    7.9885  -10.8230    0.0000 C   0  0  0  0  0  0  0  0  0  0  0  0
    8.8135  -10.8230    0.0000 O   0  0  0  0  0  0  0  0  0  0  0  0
    9.3968  -10.2397    0.0000 C   0  0  1  0  0  0  0  0  0  0  0  0
 27  1  1  6  0  0  0
 40  2  1  6  0  0  0
 33  4  2  0  0  0  0
  4  3  1  0  0  0  0
 26  7  1  0  0  0  0
  8  5  1  0  0  0  0
  7  6  1  1  0  0  0
  8  7  1  0  0  0  0
 24  9  1  6  0  0  0
 34 21  1  0  0  0  0
 19 21  1  1  0  0  0
 18 10  1  6  0  0  0
 17 11  1  1  0  0  0
 16 12  1  6  0  0  0
 15 14  1  1  0  0  0
 14 13  1  0  0  0  0
 20 15  1  0  0  0  0
 16 15  1  0  0  0  0
 17 16  1  0  0  0  0
 18 17  1  0  0  0  0
 19 18  1  0  0  0  0
 20 19  1  0  0  0  0
 30 22  2  0  0  0  0
 38 23  2  0  0  0  0
 37 32  1  0  0  0  0
 24 27  1  0  0  0  0
 40 24  1  0  0  0  0
 40 25  1  0  0  0  0
 26 25  1  6  0  0  0
 27 26  1  0  0  0  0
 28 27  1  0  0  0  0
 29 28  1  0  0  0  0
 30 29  1  0  0  0  0
 31 30  1  0  0  0  0
 32 31  2  0  0  0  0
 33 32  1  0  0  0  0
 34 33  1  0  0  0  0
 35 34  1  0  0  0  0
 36 35  1  0  0  0  0
 37 36  2  0  0  0  0
 38 37  1  0  0  0  0
 39 38  1  0  0  0  0
 40 39  1  0  0  0  0
M  END
>  <cdx:fragmentId>
5

$$$$
