39915.cdx
  Mrv1902 05222410272D          

 21 21  0  0  0  0            999 V2000
   11.3185   -9.0354    0.0000 C   0  0  0  0  0  0  0  0  0  0  0  0
   10.6040   -8.6229    0.0000 C   0  0  0  0  0  0  0  0  0  0  0  0
    9.8895   -9.0354    0.0000 C   0  0  0  0  0  0  0  0  0  0  0  0
    9.1750   -8.6229    0.0000 C   0  0  0  0  0  0  0  0  0  0  0  0
   11.3185   -9.8604    0.0000 O   0  0  0  0  0  0  0  0  0  0  0  0
   10.6040   -7.7979    0.0000 O   0  0  0  0  0  0  0  0  0  0  0  0
    9.8895   -9.8604    0.0000 O   0  0  0  0  0  0  0  0  0  0  0  0
    8.4606   -9.0354    0.0000 O   0  0  0  0  0  0  0  0  0  0  0  0
   12.0329   -8.6229    0.0000 C   0  0  0  0  0  0  0  0  0  0  0  0
   12.0329   -7.7979    0.0000 C   0  0  0  0  0  0  0  0  0  0  0  0
   12.7474   -9.0354    0.0000 N   0  0  0  0  0  0  0  0  0  0  0  0
   12.7474   -7.3854    0.0000 N   0  0  0  0  0  0  0  0  0  0  0  0
   13.4619   -7.7979    0.0000 C   0  0  0  0  0  0  0  0  0  0  0  0
   13.4619   -8.6229    0.0000 C   0  0  0  0  0  0  0  0  0  0  0  0
   14.1763   -7.3854    0.0000 C   0  0  0  0  0  0  0  0  0  0  0  0
   14.8908   -7.7979    0.0000 C   0  0  0  0  0  0  0  0  0  0  0  0
   15.6053   -7.3854    0.0000 C   0  0  0  0  0  0  0  0  0  0  0  0
   16.3198   -7.7979    0.0000 C   0  0  0  0  0  0  0  0  0  0  0  0
   17.0342   -7.3854    0.0000 O   0  0  0  0  0  0  0  0  0  0  0  0
   15.6053   -6.5604    0.0000 O   0  0  0  0  0  0  0  0  0  0  0  0
   14.8908   -8.6229    0.0000 O   0  0  0  0  0  0  0  0  0  0  0  0
  1  2  1  0  0  0  0
  2  3  1  0  0  0  0
  3  4  1  0  0  0  0
  1  5  1  0  0  0  0
  2  6  1  0  0  0  0
  3  7  1  0  0  0  0
  4  8  1  0  0  0  0
  9 10  1  0  0  0  0
  9 11  2  0  0  0  0
 10 12  2  0  0  0  0
 12 13  1  0  0  0  0
 13 14  2  0  0  0  0
 11 14  1  0  0  0  0
 15 16  1  0  0  0  0
 16 17  1  0  0  0  0
 17 18  1  0  0  0  0
 18 19  1  0  0  0  0
 17 20  1  0  0  0  0
 16 21  1  0  0  0  0
 13 15  1  0  0  0  0
  1  9  1  0  0  0  0
M  END
>  <cdx:fragmentId>
38

$$$$
