39919.cdx
  Mrv1902 05222410182D          

 24 25  0  0  0  0            999 V2000
    8.7739   -7.1035    0.0000 C   0  0  0  0  0  0  0  0  0  0  0  0
    9.4884   -6.6910    0.0000 C   0  0  0  0  0  0  0  0  0  0  0  0
    8.0595   -6.6910    0.0000 O   0  0  0  0  0  0  0  0  0  0  0  0
    8.7739   -7.9285    0.0000 C   0  0  0  0  0  0  0  0  0  0  0  0
    9.4884   -8.3410    0.0000 C   0  0  0  0  0  0  0  0  0  0  0  0
    9.4884   -9.1660    0.0000 C   0  0  0  0  0  0  0  0  0  0  0  0
    8.7739   -9.5785    0.0000 C   0  0  0  0  0  0  0  0  0  0  0  0
    8.0595   -9.1660    0.0000 C   0  0  0  0  0  0  0  0  0  0  0  0
    8.0595   -8.3410    0.0000 C   0  0  0  0  0  0  0  0  0  0  0  0
   10.2029   -7.9285    0.0000 O   0  0  0  0  0  0  0  0  0  0  0  0
   10.9173   -8.3410    0.0000 C   0  0  0  0  0  0  0  0  0  0  0  0
    8.7739  -10.4035    0.0000 O   0  0  0  0  0  0  0  0  0  0  0  0
    7.3450   -7.9285    0.0000 O   0  0  0  0  0  0  0  0  0  0  0  0
    6.6305   -8.3410    0.0000 C   0  0  1  0  0  0  0  0  0  0  0  0
    6.6305   -9.1660    0.0000 C   0  0  2  0  0  0  0  0  0  0  0  0
    7.3450   -9.5785    0.0000 O   0  0  0  0  0  0  0  0  0  0  0  0
    5.9160   -9.5785    0.0000 C   0  0  1  0  0  0  0  0  0  0  0  0
    5.9160  -10.4035    0.0000 O   0  0  0  0  0  0  0  0  0  0  0  0
    5.2016   -9.1660    0.0000 C   0  0  2  0  0  0  0  0  0  0  0  0
    4.4871   -9.5785    0.0000 O   0  0  0  0  0  0  0  0  0  0  0  0
    5.2016   -8.3410    0.0000 C   0  0  2  0  0  0  0  0  0  0  0  0
    5.9160   -7.9285    0.0000 O   0  0  0  0  0  0  0  0  0  0  0  0
    4.4871   -7.9285    0.0000 C   0  0  0  0  0  0  0  0  0  0  0  0
    3.7726   -8.3410    0.0000 O   0  0  0  0  0  0  0  0  0  0  0  0
  1  2  1  0  0  0  0
  4  5  1  0  0  0  0
  5  6  2  0  0  0  0
  6  7  1  0  0  0  0
  7  8  2  0  0  0  0
  8  9  1  0  0  0  0
  4  9  2  0  0  0  0
  1  3  2  0  0  0  0
  1  4  1  0  0  0  0
 10 11  1  0  0  0  0
  5 10  1  0  0  0  0
  7 12  1  0  0  0  0
 14 13  1  1  0  0  0
 14 15  1  0  0  0  0
 15 16  1  6  0  0  0
 15 17  1  0  0  0  0
 17 18  1  1  0  0  0
 17 19  1  0  0  0  0
 19 20  1  6  0  0  0
 19 21  1  0  0  0  0
 21 22  1  0  0  0  0
 21 23  1  1  0  0  0
 23 24  1  0  0  0  0
 14 22  1  0  0  0  0
  9 13  1  0  0  0  0
M  END
>  <cdx:fragmentId>
29

$$$$
