39914.cdx
  Mrv1902 05222410272D          

 24 23  0  0  0  0            999 V2000
   16.0487   -8.6421    0.0000 C   0  0  0  0  0  0  0  0  0  0  0  0
   15.3343   -9.0546    0.0000 C   0  0  0  0  0  0  0  0  0  0  0  0
   14.6198   -8.6421    0.0000 C   0  0  0  0  0  0  0  0  0  0  0  0
   13.9053   -9.0546    0.0000 C   0  0  0  0  0  0  0  0  0  0  0  0
   13.1909   -8.6421    0.0000 C   0  0  0  0  0  0  0  0  0  0  0  0
   12.4764   -9.0546    0.0000 C   0  0  0  0  0  0  0  0  0  0  0  0
   11.7619   -8.6421    0.0000 C   0  0  0  0  0  0  0  0  0  0  0  0
   11.0474   -9.0546    0.0000 C   0  0  0  0  0  0  0  0  0  0  0  0
   10.3330   -8.6421    0.0000 C   0  0  0  0  0  0  0  0  0  0  0  0
    9.6185   -9.0546    0.0000 C   0  0  0  0  0  0  0  0  0  0  0  0
    8.9040   -8.6421    0.0000 C   0  0  0  0  0  0  0  0  0  0  0  0
    8.1896   -9.0546    0.0000 C   0  0  0  0  0  0  0  0  0  0  0  0
    7.4751   -8.6421    0.0000 C   0  0  0  0  0  0  0  0  0  0  0  0
    6.7606   -9.0546    0.0000 C   0  0  0  0  0  0  0  0  0  0  0  0
    6.0462   -8.6421    0.0000 C   0  0  0  0  0  0  0  0  0  0  0  0
    5.3317   -9.0546    0.0000 C   0  0  0  0  0  0  0  0  0  0  0  0
    4.6172   -8.6421    0.0000 C   0  0  0  0  0  0  0  0  0  0  0  0
    3.9027   -9.0546    0.0000 C   0  0  0  0  0  0  0  0  0  0  0  0
    3.1883   -8.6421    0.0000 C   0  0  0  0  0  0  0  0  0  0  0  0
    2.4738   -9.0546    0.0000 C   0  0  0  0  0  0  0  0  0  0  0  0
    1.7593   -8.6421    0.0000 C   0  0  0  0  0  0  0  0  0  0  0  0
    1.0449   -9.0546    0.0000 C   0  0  0  0  0  0  0  0  0  0  0  0
   16.0487   -7.8171    0.0000 O   0  0  0  0  0  0  0  0  0  0  0  0
   16.7632   -9.0546    0.0000 N   0  0  0  0  0  0  0  0  0  0  0  0
  1  2  1  0  0  0  0
  2  3  1  0  0  0  0
  3  4  1  0  0  0  0
  4  5  1  0  0  0  0
  5  6  1  0  0  0  0
  6  7  2  0  0  0  0
  7  8  1  0  0  0  0
  8  9  1  0  0  0  0
  9 10  1  0  0  0  0
 10 11  1  0  0  0  0
 11 12  1  0  0  0  0
 12 13  1  0  0  0  0
 13 14  1  0  0  0  0
 14 15  1  0  0  0  0
 15 16  1  0  0  0  0
 16 17  1  0  0  0  0
 17 18  1  0  0  0  0
 18 19  1  0  0  0  0
 19 20  1  0  0  0  0
 20 21  1  0  0  0  0
 21 22  1  0  0  0  0
  1 23  2  0  0  0  0
  1 24  1  0  0  0  0
M  END
>  <cdx:fragmentId>
5

$$$$
