39918.cdx
  Mrv1902 05222410192D          

 32 35  0  0  0  0            999 V2000
    7.1423  -10.0004    0.0000 H   0  0  0  0  0  0  0  0  0  0  0  0
    8.9467  -12.5688    0.0000 O   0  0  0  0  0  0  0  0  0  0  0  0
   10.6028  -10.7295    0.0000 C   0  0  0  0  0  0  0  0  0  0  0  0
   10.0508  -11.3426    0.0000 O   0  0  0  0  0  0  0  0  0  0  0  0
    7.6298  -10.8280    0.0000 C   0  0  0  0  0  0  0  0  0  0  0  0
    7.8848  -11.6127    0.0000 C   0  0  0  0  0  0  0  0  0  0  0  0
    8.6918  -11.7842    0.0000 C   0  0  0  0  0  0  0  0  0  0  0  0
    9.2438  -11.1711    0.0000 C   0  0  0  0  0  0  0  0  0  0  0  0
    8.9888  -10.3865    0.0000 C   0  0  0  0  0  0  0  0  0  0  0  0
    8.1819  -10.2149    0.0000 C   0  0  0  0  0  0  0  0  0  0  0  0
    7.9269   -8.0954    0.0000 C   0  0  0  0  0  0  0  0  0  0  0  0
    7.9269   -9.4303    0.0000 C   0  0  1  0  0  0  0  0  0  0  0  0
    8.4119   -8.7629    0.0000 O   0  0  0  0  0  0  0  0  0  0  0  0
    6.3577   -8.0954    0.0000 C   0  0  2  0  0  0  0  0  0  0  0  0
    7.1423   -8.3504    0.0000 C   0  0  0  0  0  0  0  0  0  0  0  0
    7.1423   -9.1754    0.0000 C   0  0  2  0  0  0  0  0  0  0  0  0
    6.3577   -9.4303    0.0000 C   0  0  0  0  0  0  0  0  0  0  0  0
    5.8728   -8.7629    0.0000 O   0  0  0  0  0  0  0  0  0  0  0  0
    3.6505   -6.7665    0.0000 C   0  0  0  0  0  0  0  0  0  0  0  0
    4.2339   -6.1831    0.0000 O   0  0  0  0  0  0  0  0  0  0  0  0
    5.3379   -4.9569    0.0000 O   0  0  0  0  0  0  0  0  0  0  0  0
    6.3999   -5.9131    0.0000 C   0  0  0  0  0  0  0  0  0  0  0  0
    6.6548   -6.6977    0.0000 C   0  0  0  0  0  0  0  0  0  0  0  0
    6.1028   -7.3108    0.0000 C   0  0  0  0  0  0  0  0  0  0  0  0
    5.2958   -7.1393    0.0000 C   0  0  0  0  0  0  0  0  0  0  0  0
    5.0408   -6.3547    0.0000 C   0  0  0  0  0  0  0  0  0  0  0  0
    5.5929   -5.7416    0.0000 C   0  0  0  0  0  0  0  0  0  0  0  0
    7.1423   -7.5254    0.0000 O   0  0  0  0  0  0  0  0  0  0  0  0
    7.8568   -7.1129    0.0000 C   0  0  0  0  0  0  0  0  0  0  0  0
    7.8568   -6.2879    0.0000 C   0  0  0  0  0  0  0  0  0  0  0  0
    8.5713   -7.5254    0.0000 O   0  0  0  0  0  0  0  0  0  0  0  0
    9.7436  -12.7823    0.0000 C   0  0  0  0  0  0  0  0  0  0  0  0
 16  1  1  6  0  0  0
 14 24  1  6  0  0  0
 12 10  1  6  0  0  0
  7  2  1  0  0  0  0
  8  4  1  0  0  0  0
  4  3  1  0  0  0  0
 10  5  2  0  0  0  0
  6  5  1  0  0  0  0
  7  6  2  0  0  0  0
  8  7  1  0  0  0  0
  9  8  2  0  0  0  0
 10  9  1  0  0  0  0
 11 15  1  0  0  0  0
 12 16  1  0  0  0  0
 13 11  1  0  0  0  0
 13 12  1  0  0  0  0
 18 14  1  0  0  0  0
 15 14  1  0  0  0  0
 16 15  1  0  0  0  0
 17 16  1  0  0  0  0
 18 17  1  0  0  0  0
 26 20  1  0  0  0  0
 20 19  1  0  0  0  0
 27 21  1  0  0  0  0
 27 22  2  0  0  0  0
 23 22  1  0  0  0  0
 24 23  2  0  0  0  0
 25 24  1  0  0  0  0
 26 25  2  0  0  0  0
 27 26  1  0  0  0  0
 15 28  1  0  0  0  0
 28 29  1  0  0  0  0
 29 30  1  0  0  0  0
 29 31  2  0  0  0  0
  2 32  1  0  0  0  0
M  END
>  <cdx:fragmentId>
39

$$$$
