39912.cdx
  Mrv1902 05222410262D          

 26 27  0  0  0  0            999 V2000
    5.2016   -7.3182    0.0000 O   0  0  0  0  0  0  0  0  0  0  0  0
    5.9160   -7.7307    0.0000 C   0  0  2  0  0  0  0  0  0  0  0  0
    5.9160   -8.5557    0.0000 C   0  0  1  0  0  0  0  0  0  0  0  0
    5.2016   -8.9682    0.0000 C   0  0  2  0  0  0  0  0  0  0  0  0
    4.4871   -8.5557    0.0000 C   0  0  1  0  0  0  0  0  0  0  0  0
    4.4871   -7.7307    0.0000 C   0  0  1  0  0  0  0  0  0  0  0  0
    6.6305   -8.9682    0.0000 O   0  0  0  0  0  0  0  0  0  0  0  0
    5.2016   -9.7932    0.0000 O   0  0  0  0  0  0  0  0  0  0  0  0
    3.7726   -8.9682    0.0000 O   0  0  0  0  0  0  0  0  0  0  0  0
    3.7726   -7.3182    0.0000 C   0  0  0  0  0  0  0  0  0  0  0  0
    3.0582   -7.7307    0.0000 O   0  0  0  0  0  0  0  0  0  0  0  0
    6.6305   -7.3182    0.0000 O   0  0  0  0  0  0  0  0  0  0  0  0
    7.3450   -7.7307    0.0000 C   0  0  0  0  0  0  0  0  0  0  0  0
    7.3450   -8.5557    0.0000 C   0  0  0  0  0  0  0  0  0  0  0  0
    8.0595   -8.9682    0.0000 C   0  0  0  0  0  0  0  0  0  0  0  0
    8.7739   -8.5557    0.0000 C   0  0  0  0  0  0  0  0  0  0  0  0
    8.7739   -7.7307    0.0000 C   0  0  0  0  0  0  0  0  0  0  0  0
    8.0595   -7.3182    0.0000 C   0  0  0  0  0  0  0  0  0  0  0  0
    9.1864   -7.0162    0.0000 C   0  0  0  0  0  0  0  0  0  0  0  0
    9.5989   -7.7307    0.0000 C   0  0  0  0  0  0  0  0  0  0  0  0
    8.0595   -9.7932    0.0000 C   0  0  0  0  0  0  0  0  0  0  0  0
    9.4884   -8.9682    0.0000 C   0  0  0  0  0  0  0  0  0  0  0  0
   10.2029   -8.5557    0.0000 C   0  0  0  0  0  0  0  0  0  0  0  0
   10.9173   -8.9682    0.0000 C   0  0  0  0  0  0  0  0  0  0  0  0
   11.6318   -8.5557    0.0000 C   0  0  0  0  0  0  0  0  0  0  0  0
   10.9173   -9.7932    0.0000 O   0  0  0  0  0  0  0  0  0  0  0  0
  1  2  1  0  0  0  0
  2  3  1  0  0  0  0
  3  4  1  0  0  0  0
  4  5  1  0  0  0  0
  5  6  1  0  0  0  0
  1  6  1  0  0  0  0
  3  7  1  6  0  0  0
  4  8  1  1  0  0  0
  5  9  1  6  0  0  0
 10 11  1  0  0  0  0
  6 10  1  1  0  0  0
 13 14  1  0  0  0  0
 14 15  1  0  0  0  0
 15 16  2  0  0  0  0
 16 17  1  0  0  0  0
 17 18  1  0  0  0  0
 13 18  1  0  0  0  0
 17 19  1  0  0  0  0
 17 20  1  0  0  0  0
 15 21  1  0  0  0  0
 22 23  1  0  0  0  0
 23 24  1  0  0  0  0
 24 25  1  0  0  0  0
 24 26  1  0  0  0  0
 16 22  1  0  0  0  0
 12 13  1  0  0  0  0
  2 12  1  1  0  0  0
M  END
>  <cdx:fragmentId>
29

$$$$
