39916.cdx
  Mrv1902 05222410282D          

 23 23  0  0  0  0            999 V2000
   11.9900   -7.1791    0.0000 O   0  0  0  0  0  0  0  0  0  0  0  0
   12.7045   -6.7666    0.0000 C   0  0  0  0  0  0  0  0  0  0  0  0
   13.4189   -7.1791    0.0000 C   0  0  2  0  0  0  0  0  0  0  0  0
   13.4189   -8.0041    0.0000 O   0  0  0  0  0  0  0  0  0  0  0  0
   14.1334   -6.7666    0.0000 C   0  0  2  0  0  0  0  0  0  0  0  0
   14.1334   -5.9416    0.0000 O   0  0  0  0  0  0  0  0  0  0  0  0
   14.8479   -7.1791    0.0000 C   0  0  1  0  0  0  0  0  0  0  0  0
   14.8479   -8.0041    0.0000 O   0  0  0  0  0  0  0  0  0  0  0  0
   15.5623   -6.7666    0.0000 C   0  0  1  0  0  0  0  0  0  0  0  0
   15.5623   -5.9416    0.0000 O   0  0  0  0  0  0  0  0  0  0  0  0
   16.2768   -7.1791    0.0000 C   0  0  0  0  0  0  0  0  0  0  0  0
   12.7045   -8.4166    0.0000 C   0  0  2  0  0  0  0  0  0  0  0  0
   12.7045   -9.2416    0.0000 C   0  0  2  0  0  0  0  0  0  0  0  0
   13.4189   -9.6541    0.0000 O   0  0  0  0  0  0  0  0  0  0  0  0
   11.9900   -9.6541    0.0000 C   0  0  1  0  0  0  0  0  0  0  0  0
   11.9900  -10.4791    0.0000 O   0  0  0  0  0  0  0  0  0  0  0  0
   11.2755   -9.2416    0.0000 C   0  0  1  0  0  0  0  0  0  0  0  0
   10.5610   -9.6541    0.0000 O   0  0  0  0  0  0  0  0  0  0  0  0
   11.2755   -8.4166    0.0000 C   0  0  2  0  0  0  0  0  0  0  0  0
   11.9900   -8.0041    0.0000 O   0  0  0  0  0  0  0  0  0  0  0  0
   10.5610   -8.0041    0.0000 C   0  0  0  0  0  0  0  0  0  0  0  0
   10.5610   -7.1791    0.0000 O   0  0  0  0  0  0  0  0  0  0  0  0
    9.8466   -8.4166    0.0000 O   0  0  0  0  0  0  0  0  0  0  0  0
  1  2  2  0  0  0  0
  2  3  1  0  0  0  0
  3  4  1  1  0  0  0
  3  5  1  0  0  0  0
  5  6  1  6  0  0  0
  5  7  1  0  0  0  0
  7  8  1  6  0  0  0
  7  9  1  0  0  0  0
  9 10  1  1  0  0  0
  9 11  1  0  0  0  0
 12 13  1  0  0  0  0
 13 14  1  6  0  0  0
 13 15  1  0  0  0  0
 15 16  1  1  0  0  0
 15 17  1  0  0  0  0
 17 18  1  1  0  0  0
 17 19  1  0  0  0  0
 19 20  1  0  0  0  0
 19 21  1  1  0  0  0
 12 20  1  0  0  0  0
 21 22  2  0  0  0  0
 21 23  1  0  0  0  0
 12  4  1  6  0  0  0
M  END
>  <cdx:fragmentId>
31

$$$$
