39921.cdx
  Mrv1902 05222410192D          

 50 54  0  0  0  0            999 V2000
    2.4023   -6.2466    0.0000 C   0  0  0  0  0  0  0  0  0  0  0  0
    3.8312   -6.2466    0.0000 O   0  0  0  0  0  0  0  0  0  0  0  0
    3.1167   -6.6591    0.0000 C   0  0  0  0  0  0  0  0  0  0  0  0
    3.1167   -7.4841    0.0000 O   0  0  0  0  0  0  0  0  0  0  0  0
   12.4048   -7.8966    0.0000 O   0  0  0  0  0  0  0  0  0  0  0  0
   12.4048   -6.2466    0.0000 O   0  0  0  0  0  0  0  0  0  0  0  0
   10.2614   -6.6591    0.0000 C   0  0  0  0  0  0  0  0  0  0  0  0
   10.9759   -6.2466    0.0000 C   0  0  0  0  0  0  0  0  0  0  0  0
   11.6904   -6.6591    0.0000 C   0  0  0  0  0  0  0  0  0  0  0  0
   11.6904   -7.4841    0.0000 C   0  0  0  0  0  0  0  0  0  0  0  0
   10.9759   -7.8966    0.0000 C   0  0  0  0  0  0  0  0  0  0  0  0
   10.2614   -7.4841    0.0000 C   0  0  0  0  0  0  0  0  0  0  0  0
    7.4035   -9.9591    0.0000 O   0  0  0  0  0  0  0  0  0  0  0  0
    5.9746   -9.9591    0.0000 C   0  0  0  0  0  0  0  0  0  0  0  0
    5.9746   -9.1341    0.0000 O   0  0  0  0  0  0  0  0  0  0  0  0
    8.8325   -9.9591    0.0000 O   0  0  0  0  0  0  0  0  0  0  0  0
   11.6904   -9.9591    0.0000 O   0  0  0  0  0  0  0  0  0  0  0  0
   11.6904  -11.6091    0.0000 O   0  0  0  0  0  0  0  0  0  0  0  0
   10.2614  -12.4341    0.0000 O   0  0  0  0  0  0  0  0  0  0  0  0
    8.8325  -11.6091    0.0000 C   0  0  0  0  0  0  0  0  0  0  0  0
    9.5470  -11.1966    0.0000 C   0  0  1  0  0  0  0  0  0  0  0  0
   10.2614  -11.6091    0.0000 C   0  0  1  0  0  0  0  0  0  0  0  0
   10.9759  -11.1966    0.0000 C   0  0  2  0  0  0  0  0  0  0  0  0
   10.9759  -10.3716    0.0000 C   0  0  2  0  0  0  0  0  0  0  0  0
   10.2614   -9.9591    0.0000 C   0  0  1  0  0  0  0  0  0  0  0  0
    9.5470  -10.3716    0.0000 O   0  0  0  0  0  0  0  0  0  0  0  0
   10.2614   -9.1341    0.0000 O   0  0  0  0  0  0  0  0  0  0  0  0
    8.8325   -7.4841    0.0000 O   0  0  0  0  0  0  0  0  0  0  0  0
    8.1180   -7.8966    0.0000 C   0  0  0  0  0  0  0  0  0  0  0  0
    7.4035   -7.4841    0.0000 C   0  0  0  0  0  0  0  0  0  0  0  0
    6.6891   -7.8966    0.0000 C   0  0  0  0  0  0  0  0  0  0  0  0
    6.6891   -8.7216    0.0000 C   0  0  0  0  0  0  0  0  0  0  0  0
    7.4035   -9.1341    0.0000 C   0  0  0  0  0  0  0  0  0  0  0  0
    8.1180   -8.7216    0.0000 C   0  0  0  0  0  0  0  0  0  0  0  0
    8.8325   -9.1341    0.0000 C   0  0  0  0  0  0  0  0  0  0  0  0
    9.5470   -8.7216    0.0000 C   0  0  0  0  0  0  0  0  0  0  0  0
    9.5470   -7.8966    0.0000 C   0  0  0  0  0  0  0  0  0  0  0  0
    5.9746   -7.4841    0.0000 O   0  0  0  0  0  0  0  0  0  0  0  0
    4.5457   -6.6591    0.0000 O   0  0  0  0  0  0  0  0  0  0  0  0
    4.5457   -9.9591    0.0000 C   0  0  0  0  0  0  0  0  0  0  0  0
    5.2601   -7.8966    0.0000 C   0  0  1  0  0  0  0  0  0  0  0  0
    4.5457   -7.4841    0.0000 C   0  0  1  0  0  0  0  0  0  0  0  0
    3.8312   -7.8966    0.0000 C   0  0  1  0  0  0  0  0  0  0  0  0
    3.8312   -8.7216    0.0000 C   0  0  2  0  0  0  0  0  0  0  0  0
    4.5457   -9.1341    0.0000 C   0  0  1  0  0  0  0  0  0  0  0  0
    5.2601   -8.7216    0.0000 O   0  0  0  0  0  0  0  0  0  0  0  0
    3.1167   -9.1341    0.0000 O   0  0  0  0  0  0  0  0  0  0  0  0
    2.4023   -7.8966    0.0000 O   0  0  0  0  0  0  0  0  0  0  0  0
    1.6878   -9.1341    0.0000 C   0  0  0  0  0  0  0  0  0  0  0  0
    2.4023   -8.7216    0.0000 C   0  0  0  0  0  0  0  0  0  0  0  0
 44 47  1  6  0  0  0
 43  4  1  1  0  0  0
  4  3  1  0  0  0  0
  3  1  1  0  0  0  0
  3  2  2  0  0  0  0
 41 38  1  6  0  0  0
 38 31  1  0  0  0  0
 37 12  1  0  0  0  0
 10  5  1  0  0  0  0
  9  6  1  0  0  0  0
 12  7  2  0  0  0  0
  8  7  1  0  0  0  0
  9  8  2  0  0  0  0
 10  9  1  0  0  0  0
 11 10  2  0  0  0  0
 12 11  1  0  0  0  0
 33 13  1  0  0  0  0
 32 15  1  0  0  0  0
 15 14  1  0  0  0  0
 35 16  2  0  0  0  0
 36 27  1  0  0  0  0
 25 27  1  1  0  0  0
 24 17  1  6  0  0  0
 23 18  1  6  0  0  0
 22 19  1  1  0  0  0
 21 20  1  6  0  0  0
 26 21  1  0  0  0  0
 22 21  1  0  0  0  0
 23 22  1  0  0  0  0
 24 23  1  0  0  0  0
 25 24  1  0  0  0  0
 26 25  1  0  0  0  0
 37 28  1  0  0  0  0
 29 28  1  0  0  0  0
 34 29  2  0  0  0  0
 30 29  1  0  0  0  0
 31 30  2  0  0  0  0
 32 31  1  0  0  0  0
 33 32  2  0  0  0  0
 34 33  1  0  0  0  0
 35 34  1  0  0  0  0
 36 35  1  0  0  0  0
 37 36  2  0  0  0  0
 42 39  1  1  0  0  0
 45 40  1  1  0  0  0
 46 41  1  0  0  0  0
 42 41  1  0  0  0  0
 43 42  1  0  0  0  0
 44 43  1  0  0  0  0
 45 44  1  0  0  0  0
 46 45  1  0  0  0  0
 50 47  1  0  0  0  0
 50 48  2  0  0  0  0
 50 49  1  0  0  0  0
M  END
>  <cdx:fragmentId>
53

$$$$
