39922.cdx
  Mrv1902 05222410202D          

 26 27  0  0  0  0            999 V2000
    9.6370   -8.3977    0.0000 O   0  0  0  0  0  0  0  0  0  0  0  0
    8.2076   -9.2218    0.0000 O   0  0  0  0  0  0  0  0  0  0  0  0
    7.4929   -9.6339    0.0000 C   0  0  0  0  0  0  0  0  0  0  0  0
    7.8104   -6.0245    0.0000 O   0  0  0  0  0  0  0  0  0  0  0  0
    6.7791   -8.3960    0.0000 O   0  0  0  0  0  0  0  0  0  0  0  0
    8.6353   -6.0405    0.0000 C   0  0  0  0  0  0  0  0  0  0  0  0
    7.4943   -7.1589    0.0000 C   0  0  0  0  0  0  0  0  0  0  0  0
    7.4938   -7.9839    0.0000 C   0  0  2  0  0  0  0  0  0  0  0  0
    8.2081   -8.3968    0.0000 C   0  0  1  0  0  0  0  0  0  0  0  0
    8.9228   -7.9848    0.0000 C   0  0  1  0  0  0  0  0  0  0  0  0
    8.9233   -7.1598    0.0000 C   0  0  0  0  0  0  0  0  0  0  0  0
    8.2091   -6.7468    0.0000 C   0  0  2  0  0  0  0  0  0  0  0  0
    8.2366   -5.3182    0.0000 O   0  0  0  0  0  0  0  0  0  0  0  0
    9.4601   -6.0564    0.0000 O   0  0  0  0  0  0  0  0  0  0  0  0
    6.0685   -7.9769    0.0000 C   0  0  0  0  0  0  0  0  0  0  0  0
    5.3502   -8.3828    0.0000 C   0  0  0  0  0  0  0  0  0  0  0  0
    6.0761   -7.1520    0.0000 O   0  0  0  0  0  0  0  0  0  0  0  0
    4.6396   -7.9638    0.0000 C   0  0  0  0  0  0  0  0  0  0  0  0
    3.9214   -8.3697    0.0000 C   0  0  0  0  0  0  0  0  0  0  0  0
    3.2030   -7.9640    0.0000 C   0  0  0  0  0  0  0  0  0  0  0  0
    2.4925   -8.3832    0.0000 C   0  0  0  0  0  0  0  0  0  0  0  0
    2.5003   -9.2082    0.0000 C   0  0  0  0  0  0  0  0  0  0  0  0
    3.2187   -9.6139    0.0000 C   0  0  0  0  0  0  0  0  0  0  0  0
    3.9292   -9.1946    0.0000 C   0  0  0  0  0  0  0  0  0  0  0  0
    1.7741   -7.9776    0.0000 O   0  0  0  0  0  0  0  0  0  0  0  0
    1.7898   -9.6275    0.0000 O   0  0  0  0  0  0  0  0  0  0  0  0
 10  1  1  1  0  0  0
  9  2  1  1  0  0  0
 12  4  1  1  0  0  0
  8  5  1  6  0  0  0
 12  6  1  0  0  0  0
 12  7  1  0  0  0  0
  8  7  1  0  0  0  0
  9  8  1  0  0  0  0
 10  9  1  0  0  0  0
 11 10  1  0  0  0  0
 12 11  1  0  0  0  0
  2  3  1  0  0  0  0
  6 13  2  0  0  0  0
  6 14  1  0  0  0  0
  5 15  1  0  0  0  0
 15 16  1  0  0  0  0
 15 17  2  0  0  0  0
 16 18  2  0  0  0  0
 18 19  1  0  0  0  0
 19 20  2  0  0  0  0
 20 21  1  0  0  0  0
 21 22  2  0  0  0  0
 22 23  1  0  0  0  0
 23 24  2  0  0  0  0
 24 19  1  0  0  0  0
 21 25  1  0  0  0  0
 22 26  1  0  0  0  0
M  END
>  <cdx:fragmentId>
348

$$$$
