39928.cdx
  Mrv1902 05222410272D          

 40 43  0  0  0  0            999 V2000
   10.4108   -7.4841    0.0000 O   0  0  0  0  0  0  0  0  0  0  0  0
   13.2687   -7.4841    0.0000 O   0  0  0  0  0  0  0  0  0  0  0  0
   12.5542   -8.7216    0.0000 C   0  0  0  0  0  0  0  0  0  0  0  0
   12.5542   -7.8966    0.0000 C   0  0  0  0  0  0  0  0  0  0  0  0
   11.8397   -7.4841    0.0000 C   0  0  0  0  0  0  0  0  0  0  0  0
   11.1252   -7.8966    0.0000 C   0  0  0  0  0  0  0  0  0  0  0  0
   11.1252   -8.7216    0.0000 C   0  0  0  0  0  0  0  0  0  0  0  0
   11.8397   -9.1341    0.0000 C   0  0  0  0  0  0  0  0  0  0  0  0
   11.8397   -9.9591    0.0000 C   0  0  0  0  0  0  0  0  0  0  0  0
   11.1252  -10.3716    0.0000 C   0  0  0  0  0  0  0  0  0  0  0  0
    9.6963   -7.8966    0.0000 O   0  0  0  0  0  0  0  0  0  0  0  0
    8.9818   -9.9591    0.0000 C   0  0  0  0  0  0  0  0  0  0  0  0
    9.6963  -10.3716    0.0000 C   0  0  0  0  0  0  0  0  0  0  0  0
   10.4108   -9.9591    0.0000 C   0  0  0  0  0  0  0  0  0  0  0  0
   10.4108   -9.1341    0.0000 C   0  0  0  0  0  0  0  0  0  0  0  0
    9.6963   -8.7216    0.0000 C   0  0  0  0  0  0  0  0  0  0  0  0
    8.9818   -9.1341    0.0000 C   0  0  0  0  0  0  0  0  0  0  0  0
    8.2674   -8.7216    0.0000 O   0  0  0  0  0  0  0  0  0  0  0  0
    5.4095  -10.3716    0.0000 O   0  0  0  0  0  0  0  0  0  0  0  0
    6.8384  -11.1966    0.0000 O   0  0  0  0  0  0  0  0  0  0  0  0
    8.2674  -10.3716    0.0000 O   0  0  0  0  0  0  0  0  0  0  0  0
    7.5529   -9.1341    0.0000 C   0  0  1  0  0  0  0  0  0  0  0  0
    7.5529   -9.9591    0.0000 C   0  0  1  0  0  0  0  0  0  0  0  0
    6.8384  -10.3716    0.0000 C   0  0  2  0  0  0  0  0  0  0  0  0
    6.1239   -9.9591    0.0000 C   0  0  1  0  0  0  0  0  0  0  0  0
    6.1239   -9.1341    0.0000 C   0  0  2  0  0  0  0  0  0  0  0  0
    6.8384   -8.7216    0.0000 O   0  0  0  0  0  0  0  0  0  0  0  0
    5.4095   -8.7216    0.0000 C   0  0  0  0  0  0  0  0  0  0  0  0
    1.1226   -8.7216    0.0000 O   0  0  0  0  0  0  0  0  0  0  0  0
    1.1226  -10.3716    0.0000 O   0  0  0  0  0  0  0  0  0  0  0  0
    2.5516  -11.1966    0.0000 O   0  0  0  0  0  0  0  0  0  0  0  0
    4.6950   -9.1341    0.0000 O   0  0  0  0  0  0  0  0  0  0  0  0
    3.9805   -7.8966    0.0000 O   0  0  0  0  0  0  0  0  0  0  0  0
    3.2661   -9.9591    0.0000 C   0  0  0  0  0  0  0  0  0  0  0  0
    2.5516  -10.3716    0.0000 C   0  0  0  0  0  0  0  0  0  0  0  0
    1.8371   -9.9591    0.0000 C   0  0  0  0  0  0  0  0  0  0  0  0
    1.8371   -9.1341    0.0000 C   0  0  0  0  0  0  0  0  0  0  0  0
    2.5516   -8.7216    0.0000 C   0  0  0  0  0  0  0  0  0  0  0  0
    3.2661   -9.1341    0.0000 C   0  0  0  0  0  0  0  0  0  0  0  0
    3.9805   -8.7216    0.0000 C   0  0  0  0  0  0  0  0  0  0  0  0
 32 28  1  0  0  0  0
 26 28  1  1  0  0  0
 22 18  1  1  0  0  0
 14 10  1  0  0  0  0
  9  8  1  0  0  0  0
  6  1  1  0  0  0  0
  4  2  1  0  0  0  0
  8  3  2  0  0  0  0
  4  3  1  0  0  0  0
  5  4  2  0  0  0  0
  6  5  1  0  0  0  0
  7  6  2  0  0  0  0
  8  7  1  0  0  0  0
 10  9  2  0  0  0  0
 16 11  1  0  0  0  0
 18 17  1  0  0  0  0
 17 12  2  0  0  0  0
 13 12  1  0  0  0  0
 14 13  2  0  0  0  0
 15 14  1  0  0  0  0
 16 15  2  0  0  0  0
 17 16  1  0  0  0  0
 25 19  1  6  0  0  0
 24 20  1  1  0  0  0
 23 21  1  6  0  0  0
 27 22  1  0  0  0  0
 23 22  1  0  0  0  0
 24 23  1  0  0  0  0
 25 24  1  0  0  0  0
 26 25  1  0  0  0  0
 27 26  1  0  0  0  0
 37 29  1  0  0  0  0
 36 30  1  0  0  0  0
 35 31  1  0  0  0  0
 40 32  1  0  0  0  0
 40 33  2  0  0  0  0
 39 34  2  0  0  0  0
 35 34  1  0  0  0  0
 36 35  2  0  0  0  0
 37 36  1  0  0  0  0
 38 37  2  0  0  0  0
 39 38  1  0  0  0  0
 40 39  1  0  0  0  0
M  END
>  <cdx:fragmentId>
69

$$$$
