39925.cdx
  Mrv1902 05222410182D          

 36 39  0  0  0  0            999 V2000
   13.4619  -10.2729    0.0000 C   0  0  0  0  0  0  0  0  0  0  0  0
   14.1763   -9.8604    0.0000 C   0  0  0  0  0  0  0  0  0  0  0  0
   14.8908  -10.2729    0.0000 C   0  0  0  0  0  0  0  0  0  0  0  0
   15.6053   -9.8604    0.0000 C   0  0  0  0  0  0  0  0  0  0  0  0
   15.6053   -9.0354    0.0000 C   0  0  0  0  0  0  0  0  0  0  0  0
   14.8908   -8.6229    0.0000 C   0  0  0  0  0  0  0  0  0  0  0  0
   14.1763   -9.0354    0.0000 C   0  0  0  0  0  0  0  0  0  0  0  0
   13.4619  -11.0979    0.0000 O   0  0  0  0  0  0  0  0  0  0  0  0
   12.7474   -9.8604    0.0000 O   0  0  0  0  0  0  0  0  0  0  0  0
   14.8908   -7.7979    0.0000 O   0  0  0  0  0  0  0  0  0  0  0  0
   16.3198   -8.6229    0.0000 O   0  0  0  0  0  0  0  0  0  0  0  0
   16.3198  -10.2729    0.0000 O   0  0  0  0  0  0  0  0  0  0  0  0
   12.0329  -10.2729    0.0000 C   0  0  0  0  0  0  0  0  0  0  0  0
   11.3185   -9.0354    0.0000 O   0  0  0  0  0  0  0  0  0  0  0  0
   11.3185   -9.8604    0.0000 C   0  0  0  0  0  0  0  0  0  0  0  0
   10.6040  -10.2729    0.0000 C   0  0  0  0  0  0  0  0  0  0  0  0
    9.8895   -9.8604    0.0000 C   0  0  0  0  0  0  0  0  0  0  0  0
    9.8895   -9.0354    0.0000 C   0  0  0  0  0  0  0  0  0  0  0  0
   10.6040   -8.6229    0.0000 C   0  0  0  0  0  0  0  0  0  0  0  0
    9.1750   -8.6229    0.0000 O   0  0  0  0  0  0  0  0  0  0  0  0
    9.1750  -10.2729    0.0000 O   0  0  0  0  0  0  0  0  0  0  0  0
   10.6040  -11.0979    0.0000 O   0  0  0  0  0  0  0  0  0  0  0  0
   12.7474   -7.3854    0.0000 C   0  0  0  0  0  0  0  0  0  0  0  0
   12.7474   -6.5604    0.0000 C   0  0  0  0  0  0  0  0  0  0  0  0
   12.0329   -6.1479    0.0000 C   0  0  0  0  0  0  0  0  0  0  0  0
   11.3185   -6.5604    0.0000 C   0  0  0  0  0  0  0  0  0  0  0  0
   10.6040   -6.1479    0.0000 C   0  0  0  0  0  0  0  0  0  0  0  0
    9.8895   -6.5604    0.0000 C   0  0  0  0  0  0  0  0  0  0  0  0
    9.8895   -7.3854    0.0000 C   0  0  0  0  0  0  0  0  0  0  0  0
   10.6040   -7.7979    0.0000 C   0  0  0  0  0  0  0  0  0  0  0  0
   11.3185   -7.3854    0.0000 C   0  0  0  0  0  0  0  0  0  0  0  0
   12.0329   -7.7979    0.0000 O   0  0  0  0  0  0  0  0  0  0  0  0
   12.0329   -5.3229    0.0000 O   0  0  0  0  0  0  0  0  0  0  0  0
   13.4619   -7.7979    0.0000 C   0  0  0  0  0  0  0  0  0  0  0  0
    9.1750   -7.7979    0.0000 O   0  0  0  0  0  0  0  0  0  0  0  0
   10.6040   -5.3229    0.0000 O   0  0  0  0  0  0  0  0  0  0  0  0
  1  2  1  0  0  0  0
  2  3  1  0  0  0  0
  3  4  2  0  0  0  0
  4  5  1  0  0  0  0
  5  6  2  0  0  0  0
  6  7  1  0  0  0  0
  2  7  2  0  0  0  0
  1  8  2  0  0  0  0
  1  9  1  0  0  0  0
  6 10  1  0  0  0  0
  5 11  1  0  0  0  0
  4 12  1  0  0  0  0
 14 15  1  0  0  0  0
 15 16  1  0  0  0  0
 16 17  1  0  0  0  0
 17 18  1  0  0  0  0
 18 19  1  0  0  0  0
 14 19  1  0  0  0  0
 18 20  1  0  0  0  0
 17 21  1  0  0  0  0
 16 22  1  0  0  0  0
 23 24  2  0  0  0  0
 24 25  1  0  0  0  0
 25 26  1  0  0  0  0
 26 27  1  0  0  0  0
 27 28  2  0  0  0  0
 28 29  1  0  0  0  0
 29 30  2  0  0  0  0
 30 31  1  0  0  0  0
 26 31  2  0  0  0  0
 31 32  1  0  0  0  0
 23 32  1  0  0  0  0
 25 33  2  0  0  0  0
 23 34  1  0  0  0  0
 29 35  1  0  0  0  0
 27 36  1  0  0  0  0
 19 30  1  0  0  0  0
 13 15  1  0  0  0  0
  9 13  1  0  0  0  0
M  END
>  <cdx:fragmentId>
70

$$$$
