39924.cdx
  Mrv1902 05222410192D          

 30 30  0  0  0  0            999 V2000
   10.8381   -4.2529    0.0000 O   0  0  0  0  0  0  0  0  0  0  0  0
    5.1223  -10.0279    0.0000 O   0  0  0  0  0  0  0  0  0  0  0  0
    5.8368  -10.4404    0.0000 C   0  0  2  0  0  0  0  0  0  0  0  0
    5.8368  -11.2654    0.0000 C   0  0  1  0  0  0  0  0  0  0  0  0
    5.1223  -11.6779    0.0000 C   0  0  2  0  0  0  0  0  0  0  0  0
    4.4078  -11.2654    0.0000 C   0  0  1  0  0  0  0  0  0  0  0  0
    4.4078  -10.4404    0.0000 C   0  0  1  0  0  0  0  0  0  0  0  0
    3.6934  -10.0279    0.0000 C   0  0  0  0  0  0  0  0  0  0  0  0
    2.9789  -10.4404    0.0000 O   0  0  0  0  0  0  0  0  0  0  0  0
    3.6934  -11.6779    0.0000 O   0  0  0  0  0  0  0  0  0  0  0  0
    5.1223  -12.5029    0.0000 O   0  0  0  0  0  0  0  0  0  0  0  0
    6.5513  -11.6779    0.0000 O   0  0  0  0  0  0  0  0  0  0  0  0
   10.1236   -2.1904    0.0000 O   0  0  0  0  0  0  0  0  0  0  0  0
    6.5513   -7.5529    0.0000 C   0  0  0  0  0  0  0  0  0  0  0  0
    7.9802   -5.0779    0.0000 C   0  0  0  0  0  0  0  0  0  0  0  0
    6.5513  -10.0279    0.0000 O   0  0  0  0  0  0  0  0  0  0  0  0
    5.8368   -8.7904    0.0000 O   0  0  0  0  0  0  0  0  0  0  0  0
   10.1236   -3.0154    0.0000 C   0  0  0  0  0  0  0  0  0  0  0  0
   10.1236   -3.8404    0.0000 C   0  0  0  0  0  0  0  0  0  0  0  0
    9.4091   -4.2529    0.0000 C   0  0  0  0  0  0  0  0  0  0  0  0
    9.4091   -5.0779    0.0000 C   0  0  0  0  0  0  0  0  0  0  0  0
    8.6947   -5.4904    0.0000 C   0  0  0  0  0  0  0  0  0  0  0  0
    8.6947   -6.3154    0.0000 C   0  0  0  0  0  0  0  0  0  0  0  0
    7.9802   -6.7279    0.0000 C   0  0  0  0  0  0  0  0  0  0  0  0
    7.9802   -7.5529    0.0000 C   0  0  0  0  0  0  0  0  0  0  0  0
    7.2657   -7.9654    0.0000 C   0  0  0  0  0  0  0  0  0  0  0  0
    7.2657   -8.7904    0.0000 C   0  0  0  0  0  0  0  0  0  0  0  0
    6.5513   -9.2029    0.0000 C   0  0  0  0  0  0  0  0  0  0  0  0
   10.9486   -3.0154    0.0000 C   0  0  0  0  0  0  0  0  0  0  0  0
    9.2986   -3.0154    0.0000 C   0  0  0  0  0  0  0  0  0  0  0  0
 19  1  1  0  0  0  0
 18 13  1  0  0  0  0
 26 14  1  0  0  0  0
 22 15  1  0  0  0  0
 28 16  1  0  0  0  0
 28 17  2  0  0  0  0
 19 18  1  0  0  0  0
 20 19  1  0  0  0  0
 21 20  1  0  0  0  0
 22 21  1  0  0  0  0
 23 22  2  0  0  0  0
 24 23  1  0  0  0  0
 25 24  1  0  0  0  0
 26 25  1  0  0  0  0
 27 26  2  0  0  0  0
 28 27  1  0  0  0  0
  2  3  1  0  0  0  0
  3  4  1  0  0  0  0
  4  5  1  0  0  0  0
  5  6  1  0  0  0  0
  6  7  1  0  0  0  0
  2  7  1  0  0  0  0
  8  9  1  0  0  0  0
  7  8  1  1  0  0  0
  6 10  1  6  0  0  0
  5 11  1  1  0  0  0
  4 12  1  6  0  0  0
  3 16  1  1  0  0  0
 18 29  1  0  0  0  0
 18 30  1  0  0  0  0
M  END
>  <cdx:fragmentId>
5

$$$$
