39923.cdx
  Mrv1902 05222410202D          

 26 27  0  0  0  0            999 V2000
    6.2703  -10.3159    0.0000 O   0  0  0  0  0  0  0  0  0  0  0  0
    5.5565  -10.7296    0.0000 C   0  0  1  0  0  0  0  0  0  0  0  0
    5.5580  -11.5546    0.0000 C   0  0  2  0  0  0  0  0  0  0  0  0
    6.2732  -11.9659    0.0000 C   0  0  1  0  0  0  0  0  0  0  0  0
    6.9869  -11.5521    0.0000 C   0  0  2  0  0  0  0  0  0  0  0  0
    6.9855  -10.7271    0.0000 C   0  0  2  0  0  0  0  0  0  0  0  0
    4.8414  -10.3183    0.0000 C   0  0  0  0  0  0  0  0  0  0  0  0
    4.1276  -10.7321    0.0000 O   0  0  0  0  0  0  0  0  0  0  0  0
    4.8399   -9.4933    0.0000 O   0  0  0  0  0  0  0  0  0  0  0  0
    7.7021  -11.9634    0.0000 O   0  0  0  0  0  0  0  0  0  0  0  0
    6.2746  -12.7909    0.0000 O   0  0  0  0  0  0  0  0  0  0  0  0
    4.8442  -11.9683    0.0000 O   0  0  0  0  0  0  0  0  0  0  0  0
    7.6935   -7.0134    0.0000 C   0  0  0  0  0  0  0  0  0  0  0  0
    8.4073   -6.5996    0.0000 C   0  0  0  0  0  0  0  0  0  0  0  0
    8.4058   -5.7746    0.0000 C   0  0  0  0  0  0  0  0  0  0  0  0
    7.6906   -5.3634    0.0000 O   0  0  0  0  0  0  0  0  0  0  0  0
    9.1267   -9.4859    0.0000 O   0  0  0  0  0  0  0  0  0  0  0  0
    9.1196   -5.3609    0.0000 O   0  0  0  0  0  0  0  0  0  0  0  0
    9.8405   -9.0721    0.0000 C   0  0  0  0  0  0  0  0  0  0  0  0
    6.9826   -9.0771    0.0000 C   0  0  0  0  0  0  0  0  0  0  0  0
    6.9812   -8.2521    0.0000 C   0  0  0  0  0  0  0  0  0  0  0  0
    7.6949   -7.8384    0.0000 C   0  0  0  0  0  0  0  0  0  0  0  0
    8.4101   -8.2496    0.0000 C   0  0  0  0  0  0  0  0  0  0  0  0
    8.4116   -9.0746    0.0000 C   0  0  0  0  0  0  0  0  0  0  0  0
    7.6978   -9.4884    0.0000 C   0  0  0  0  0  0  0  0  0  0  0  0
    7.6992  -10.3134    0.0000 O   0  0  0  0  0  0  0  0  0  0  0  0
 22 13  1  0  0  0  0
 24 17  1  0  0  0  0
 26 25  1  0  0  0  0
 25 20  2  0  0  0  0
 21 20  1  0  0  0  0
 22 21  2  0  0  0  0
 23 22  1  0  0  0  0
 24 23  2  0  0  0  0
 25 24  1  0  0  0  0
  1  2  1  0  0  0  0
  2  3  1  0  0  0  0
  3  4  1  0  0  0  0
  4  5  1  0  0  0  0
  5  6  1  0  0  0  0
  1  6  1  0  0  0  0
  7  8  2  0  0  0  0
  7  9  1  0  0  0  0
  2  7  1  1  0  0  0
  5 10  1  6  0  0  0
  4 11  1  1  0  0  0
  3 12  1  6  0  0  0
 13 14  1  0  0  0  0
 15 16  2  0  0  0  0
 15 18  1  0  0  0  0
 14 15  1  0  0  0  0
 17 19  1  0  0  0  0
  6 26  1  1  0  0  0
M  END
>  <cdx:fragmentId>
31

$$$$
