39926.cdx
  Mrv1902 05222410182D          

 37 40  0  0  0  0            999 V2000
   10.9173  -10.9904    0.0000 C   0  0  0  0  0  0  0  0  0  0  0  0
   10.2029   -9.7529    0.0000 O   0  0  0  0  0  0  0  0  0  0  0  0
   10.2029  -10.5779    0.0000 C   0  0  0  0  0  0  0  0  0  0  0  0
    9.4884  -10.9904    0.0000 O   0  0  0  0  0  0  0  0  0  0  0  0
    5.2016   -9.3404    0.0000 O   0  0  0  0  0  0  0  0  0  0  0  0
    3.7726   -6.8654    0.0000 O   0  0  0  0  0  0  0  0  0  0  0  0
   10.2029   -5.6279    0.0000 O   0  0  0  0  0  0  0  0  0  0  0  0
    8.0595   -6.0404    0.0000 C   0  0  0  0  0  0  0  0  0  0  0  0
    8.7739   -5.6279    0.0000 C   0  0  0  0  0  0  0  0  0  0  0  0
    9.4884   -6.0404    0.0000 C   0  0  0  0  0  0  0  0  0  0  0  0
    9.4884   -6.8654    0.0000 C   0  0  0  0  0  0  0  0  0  0  0  0
    8.7739   -7.2779    0.0000 C   0  0  0  0  0  0  0  0  0  0  0  0
    8.0595   -6.8654    0.0000 C   0  0  0  0  0  0  0  0  0  0  0  0
    6.6305   -9.3404    0.0000 O   0  0  0  0  0  0  0  0  0  0  0  0
    6.6305   -6.8654    0.0000 O   0  0  0  0  0  0  0  0  0  0  0  0
    5.9160   -7.2779    0.0000 C   0  0  0  0  0  0  0  0  0  0  0  0
    5.2016   -6.8654    0.0000 C   0  0  0  0  0  0  0  0  0  0  0  0
    4.4871   -7.2779    0.0000 C   0  0  0  0  0  0  0  0  0  0  0  0
    4.4871   -8.1029    0.0000 C   0  0  0  0  0  0  0  0  0  0  0  0
    5.2016   -8.5154    0.0000 C   0  0  0  0  0  0  0  0  0  0  0  0
    5.9160   -8.1029    0.0000 C   0  0  0  0  0  0  0  0  0  0  0  0
    6.6305   -8.5154    0.0000 C   0  0  0  0  0  0  0  0  0  0  0  0
    7.3450   -8.1029    0.0000 C   0  0  0  0  0  0  0  0  0  0  0  0
    7.3450   -7.2779    0.0000 C   0  0  0  0  0  0  0  0  0  0  0  0
    8.0595   -8.5154    0.0000 O   0  0  0  0  0  0  0  0  0  0  0  0
    9.4884   -9.3404    0.0000 O   0  0  0  0  0  0  0  0  0  0  0  0
    6.6305  -10.9904    0.0000 C   0  0  0  0  0  0  0  0  0  0  0  0
    8.0595   -9.3404    0.0000 C   0  0  1  0  0  0  0  0  0  0  0  0
    8.7739   -9.7529    0.0000 C   0  0  1  0  0  0  0  0  0  0  0  0
    8.7739  -10.5779    0.0000 C   0  0  1  0  0  0  0  0  0  0  0  0
    8.0595  -10.9904    0.0000 C   0  0  2  0  0  0  0  0  0  0  0  0
    7.3450  -10.5779    0.0000 C   0  0  1  0  0  0  0  0  0  0  0  0
    7.3450   -9.7529    0.0000 O   0  0  0  0  0  0  0  0  0  0  0  0
    8.0595  -11.8154    0.0000 O   0  0  0  0  0  0  0  0  0  0  0  0
    8.7739  -13.0529    0.0000 O   0  0  0  0  0  0  0  0  0  0  0  0
    9.4884  -11.8154    0.0000 C   0  0  0  0  0  0  0  0  0  0  0  0
    8.7739  -12.2279    0.0000 C   0  0  0  0  0  0  0  0  0  0  0  0
 31 34  1  1  0  0  0
 30  4  1  6  0  0  0
  4  3  1  0  0  0  0
  3  1  1  0  0  0  0
  3  2  2  0  0  0  0
 28 25  1  1  0  0  0
 25 23  1  0  0  0  0
 20  5  1  0  0  0  0
 18  6  1  0  0  0  0
 24 13  1  0  0  0  0
 10  7  1  0  0  0  0
 13  8  2  0  0  0  0
  9  8  1  0  0  0  0
 10  9  2  0  0  0  0
 11 10  1  0  0  0  0
 12 11  2  0  0  0  0
 13 12  1  0  0  0  0
 22 14  2  0  0  0  0
 24 15  1  0  0  0  0
 16 15  1  0  0  0  0
 21 16  2  0  0  0  0
 17 16  1  0  0  0  0
 18 17  2  0  0  0  0
 19 18  1  0  0  0  0
 20 19  2  0  0  0  0
 21 20  1  0  0  0  0
 22 21  1  0  0  0  0
 23 22  1  0  0  0  0
 24 23  2  0  0  0  0
 29 26  1  6  0  0  0
 32 27  1  6  0  0  0
 33 28  1  0  0  0  0
 29 28  1  0  0  0  0
 30 29  1  0  0  0  0
 31 30  1  0  0  0  0
 32 31  1  0  0  0  0
 33 32  1  0  0  0  0
 37 34  1  0  0  0  0
 37 35  2  0  0  0  0
 37 36  1  0  0  0  0
M  END
>  <cdx:fragmentId>
31

$$$$
