39933.cdx
  Mrv1902 05222410182D          

 21 24  0  0  0  0            999 V2000
   12.9105   -7.3854    0.0000 C   0  0  0  0  0  0  0  0  0  0  0  0
   12.9105   -8.2104    0.0000 C   0  0  0  0  0  0  0  0  0  0  0  0
   12.1961   -8.6229    0.0000 C   0  0  0  0  0  0  0  0  0  0  0  0
   11.4816   -8.2104    0.0000 C   0  0  0  0  0  0  0  0  0  0  0  0
   10.7671   -8.6229    0.0000 C   0  0  0  0  0  0  0  0  0  0  0  0
   10.0527   -8.2104    0.0000 C   0  0  0  0  0  0  0  0  0  0  0  0
   10.0527   -7.3854    0.0000 C   0  0  0  0  0  0  0  0  0  0  0  0
   10.7671   -6.9729    0.0000 C   0  0  0  0  0  0  0  0  0  0  0  0
   11.4816   -7.3854    0.0000 C   0  0  0  0  0  0  0  0  0  0  0  0
   12.1961   -6.9729    0.0000 O   0  0  0  0  0  0  0  0  0  0  0  0
   13.6952   -7.1304    0.0000 O   0  0  0  0  0  0  0  0  0  0  0  0
   13.6952   -8.4653    0.0000 C   0  0  0  0  0  0  0  0  0  0  0  0
   14.0307   -9.2190    0.0000 C   0  0  0  0  0  0  0  0  0  0  0  0
   14.8512   -9.3052    0.0000 C   0  0  0  0  0  0  0  0  0  0  0  0
   15.3361   -8.6378    0.0000 C   0  0  0  0  0  0  0  0  0  0  0  0
   15.0006   -7.8841    0.0000 C   0  0  0  0  0  0  0  0  0  0  0  0
   14.1801   -7.7979    0.0000 C   0  0  0  0  0  0  0  0  0  0  0  0
   12.1961   -9.4479    0.0000 O   0  0  0  0  0  0  0  0  0  0  0  0
   16.1566   -8.7240    0.0000 O   0  0  0  0  0  0  0  0  0  0  0  0
    9.3382   -6.9729    0.0000 O   0  0  0  0  0  0  0  0  0  0  0  0
   10.7671   -9.4479    0.0000 O   0  0  0  0  0  0  0  0  0  0  0  0
  1  2  2  0  0  0  0
  2  3  1  0  0  0  0
  3  4  1  0  0  0  0
  4  5  1  0  0  0  0
  5  6  2  0  0  0  0
  6  7  1  0  0  0  0
  7  8  2  0  0  0  0
  8  9  1  0  0  0  0
  4  9  2  0  0  0  0
  9 10  1  0  0  0  0
  1 10  1  0  0  0  0
 12 13  1  0  0  0  0
 13 14  2  0  0  0  0
 14 15  1  0  0  0  0
 15 16  2  0  0  0  0
 16 17  1  0  0  0  0
 12 17  2  0  0  0  0
 11 17  1  0  0  0  0
 11  1  1  0  0  0  0
 12  2  1  0  0  0  0
  3 18  2  0  0  0  0
 15 19  1  0  0  0  0
  7 20  1  0  0  0  0
  5 21  1  0  0  0  0
M  END
>  <cdx:fragmentId>
10

$$$$
