39931.cdx
  Mrv1902 05222410182D          

 42 46  0  0  0  0            999 V2000
   12.2167  -10.3175    0.0000 O   0  0  0  0  0  0  0  0  0  0  0  0
   17.2180   -6.6050    0.0000 O   0  0  0  0  0  0  0  0  0  0  0  0
   15.0746   -7.0175    0.0000 C   0  0  0  0  0  0  0  0  0  0  0  0
   15.7891   -6.6050    0.0000 C   0  0  0  0  0  0  0  0  0  0  0  0
   16.5035   -7.0175    0.0000 C   0  0  0  0  0  0  0  0  0  0  0  0
   16.5035   -7.8425    0.0000 C   0  0  0  0  0  0  0  0  0  0  0  0
   15.7891   -8.2550    0.0000 C   0  0  0  0  0  0  0  0  0  0  0  0
   15.0746   -7.8425    0.0000 C   0  0  0  0  0  0  0  0  0  0  0  0
   10.7878   -9.4925    0.0000 O   0  0  0  0  0  0  0  0  0  0  0  0
    9.3588  -10.3175    0.0000 O   0  0  0  0  0  0  0  0  0  0  0  0
    7.9299   -9.4925    0.0000 O   0  0  0  0  0  0  0  0  0  0  0  0
    7.2154   -8.2550    0.0000 O   0  0  0  0  0  0  0  0  0  0  0  0
    7.9299   -7.8425    0.0000 C   0  0  0  0  0  0  0  0  0  0  0  0
    8.6443   -8.2550    0.0000 C   0  0  2  0  0  0  0  0  0  0  0  0
    8.6443   -9.0800    0.0000 C   0  0  2  0  0  0  0  0  0  0  0  0
    9.3588   -9.4925    0.0000 C   0  0  1  0  0  0  0  0  0  0  0  0
   10.0733   -9.0800    0.0000 C   0  0  2  0  0  0  0  0  0  0  0  0
   10.0733   -8.2550    0.0000 C   0  0  1  0  0  0  0  0  0  0  0  0
    9.3588   -7.8425    0.0000 O   0  0  0  0  0  0  0  0  0  0  0  0
   10.7878   -7.8425    0.0000 O   0  0  0  0  0  0  0  0  0  0  0  0
   13.6456  -10.3175    0.0000 O   0  0  0  0  0  0  0  0  0  0  0  0
   13.6456   -7.8425    0.0000 O   0  0  0  0  0  0  0  0  0  0  0  0
   12.9312   -8.2550    0.0000 C   0  0  0  0  0  0  0  0  0  0  0  0
   12.2167   -7.8425    0.0000 C   0  0  0  0  0  0  0  0  0  0  0  0
   11.5022   -8.2550    0.0000 C   0  0  0  0  0  0  0  0  0  0  0  0
   11.5022   -9.0800    0.0000 C   0  0  0  0  0  0  0  0  0  0  0  0
   12.2167   -9.4925    0.0000 C   0  0  0  0  0  0  0  0  0  0  0  0
   12.9312   -9.0800    0.0000 C   0  0  0  0  0  0  0  0  0  0  0  0
   13.6456   -9.4925    0.0000 C   0  0  0  0  0  0  0  0  0  0  0  0
   14.3601   -9.0800    0.0000 C   0  0  0  0  0  0  0  0  0  0  0  0
   14.3601   -8.2550    0.0000 C   0  0  1  0  0  0  0  0  0  0  0  0
    6.5087   -7.0151    0.0000 O   0  0  0  0  0  0  0  0  0  0  0  0
    6.5087   -7.8401    0.0000 C   0  0  0  0  0  0  0  0  0  0  0  0
    3.6508   -7.8401    0.0000 O   0  0  0  0  0  0  0  0  0  0  0  0
    3.6508   -9.4901    0.0000 O   0  0  0  0  0  0  0  0  0  0  0  0
    5.0797  -10.3151    0.0000 O   0  0  0  0  0  0  0  0  0  0  0  0
    5.0797   -9.4901    0.0000 C   0  0  0  0  0  0  0  0  0  0  0  0
    5.7942   -9.0776    0.0000 C   0  0  0  0  0  0  0  0  0  0  0  0
    5.7942   -8.2526    0.0000 C   0  0  0  0  0  0  0  0  0  0  0  0
    5.0797   -7.8401    0.0000 C   0  0  0  0  0  0  0  0  0  0  0  0
    4.3652   -8.2526    0.0000 C   0  0  0  0  0  0  0  0  0  0  0  0
    4.3652   -9.0776    0.0000 C   0  0  0  0  0  0  0  0  0  0  0  0
 27  1  1  0  0  0  0
 31  8  1  6  0  0  0
  5  2  1  0  0  0  0
  8  3  2  0  0  0  0
  4  3  1  0  0  0  0
  5  4  2  0  0  0  0
  6  5  1  0  0  0  0
  7  6  2  0  0  0  0
  8  7  1  0  0  0  0
 25 20  1  0  0  0  0
 18 20  1  1  0  0  0
 17  9  1  6  0  0  0
 16 10  1  1  0  0  0
 15 11  1  6  0  0  0
 14 13  1  1  0  0  0
 13 12  1  0  0  0  0
 19 14  1  0  0  0  0
 15 14  1  0  0  0  0
 16 15  1  0  0  0  0
 17 16  1  0  0  0  0
 18 17  1  0  0  0  0
 19 18  1  0  0  0  0
 29 21  2  0  0  0  0
 31 22  1  0  0  0  0
 23 22  1  0  0  0  0
 28 23  2  0  0  0  0
 24 23  1  0  0  0  0
 25 24  2  0  0  0  0
 26 25  1  0  0  0  0
 27 26  2  0  0  0  0
 28 27  1  0  0  0  0
 29 28  1  0  0  0  0
 30 29  1  0  0  0  0
 31 30  1  0  0  0  0
 33 32  2  0  0  0  0
 39 33  1  0  0  0  0
 41 34  1  0  0  0  0
 42 35  1  0  0  0  0
 37 36  1  0  0  0  0
 37 42  1  0  0  0  0
 38 37  2  0  0  0  0
 39 38  1  0  0  0  0
 40 39  2  0  0  0  0
 41 40  1  0  0  0  0
 42 41  2  0  0  0  0
 33 12  1  0  0  0  0
M  END
>  <cdx:fragmentId>
29

$$$$
