39934.cdx
  Mrv1902 05222410192D          

 23 25  0  0  0  0            999 V2000
   14.2193   -7.3854    0.0000 C   0  0  0  0  0  0  0  0  0  0  0  0
   14.9338   -7.7979    0.0000 C   0  0  0  0  0  0  0  0  0  0  0  0
   14.9338   -8.6229    0.0000 C   0  0  0  0  0  0  0  0  0  0  0  0
   14.2193   -9.0354    0.0000 C   0  0  0  0  0  0  0  0  0  0  0  0
   13.5048   -8.6229    0.0000 C   0  0  0  0  0  0  0  0  0  0  0  0
   12.7903   -9.0354    0.0000 C   0  0  0  0  0  0  0  0  0  0  0  0
   12.7903   -9.8604    0.0000 O   0  0  0  0  0  0  0  0  0  0  0  0
   12.0759   -8.6229    0.0000 C   0  0  0  0  0  0  0  0  0  0  0  0
   11.3614   -9.0354    0.0000 C   0  0  0  0  0  0  0  0  0  0  0  0
   10.6469   -8.6229    0.0000 C   0  0  0  0  0  0  0  0  0  0  0  0
   10.6469   -7.7979    0.0000 C   0  0  0  0  0  0  0  0  0  0  0  0
   11.3614   -7.3854    0.0000 C   0  0  0  0  0  0  0  0  0  0  0  0
   12.0759   -7.7979    0.0000 C   0  0  0  0  0  0  0  0  0  0  0  0
   12.7903   -7.3854    0.0000 C   0  0  0  0  0  0  0  0  0  0  0  0
   12.7903   -6.5604    0.0000 O   0  0  0  0  0  0  0  0  0  0  0  0
   13.5048   -7.7979    0.0000 C   0  0  0  0  0  0  0  0  0  0  0  0
   15.6482   -7.3854    0.0000 C   0  0  0  0  0  0  0  0  0  0  0  0
    9.9325   -9.0354    0.0000 O   0  0  0  0  0  0  0  0  0  0  0  0
    9.2180   -8.6229    0.0000 C   0  0  0  0  0  0  0  0  0  0  0  0
   11.3614   -6.5604    0.0000 O   0  0  0  0  0  0  0  0  0  0  0  0
   11.3614   -9.8604    0.0000 O   0  0  0  0  0  0  0  0  0  0  0  0
   15.6482   -9.0354    0.0000 O   0  0  0  0  0  0  0  0  0  0  0  0
   14.2193   -6.5604    0.0000 O   0  0  0  0  0  0  0  0  0  0  0  0
  1  2  1  0  0  0  0
  2  3  2  0  0  0  0
  3  4  1  0  0  0  0
  4  5  2  0  0  0  0
  5  6  1  0  0  0  0
  6  7  2  0  0  0  0
  6  8  1  0  0  0  0
  8  9  1  0  0  0  0
  9 10  2  0  0  0  0
 10 11  1  0  0  0  0
 11 12  2  0  0  0  0
 12 13  1  0  0  0  0
  8 13  2  0  0  0  0
 13 14  1  0  0  0  0
 14 15  2  0  0  0  0
 14 16  1  0  0  0  0
  5 16  1  0  0  0  0
  1 16  2  0  0  0  0
  2 17  1  0  0  0  0
 18 19  1  0  0  0  0
 10 18  1  0  0  0  0
 12 20  1  0  0  0  0
  9 21  1  0  0  0  0
  3 22  1  0  0  0  0
  1 23  1  0  0  0  0
M  END
>  <cdx:fragmentId>
9

$$$$
