39932.cdx
  Mrv1902 05222410182D          

 28 29  0  0  0  0            999 V2000
   17.3199   -5.8845    0.0000 C   0  0  0  0  0  0  0  0  0  0  0  0
   16.6054   -6.2970    0.0000 C   0  0  0  0  0  0  0  0  0  0  0  0
   15.8909   -5.8845    0.0000 C   0  0  0  0  0  0  0  0  0  0  0  0
   15.1765   -6.2970    0.0000 C   0  0  0  0  0  0  0  0  0  0  0  0
   16.6054   -7.1220    0.0000 O   0  0  0  0  0  0  0  0  0  0  0  0
   14.4620   -5.8845    0.0000 C   0  0  2  0  0  0  0  0  0  0  0  0
   13.7475   -6.2970    0.0000 C   0  0  1  0  0  0  0  0  0  0  0  0
   13.0330   -5.8845    0.0000 C   0  0  0  0  0  0  0  0  0  0  0  0
   13.0330   -5.0595    0.0000 C   0  0  2  0  0  0  0  0  0  0  0  0
   13.7475   -4.6470    0.0000 C   0  0  0  0  0  0  0  0  0  0  0  0
   14.4620   -5.0595    0.0000 C   0  0  0  0  0  0  0  0  0  0  0  0
   12.3186   -4.6470    0.0000 O   0  0  0  0  0  0  0  0  0  0  0  0
   10.8896   -4.6470    0.0000 O   0  0  0  0  0  0  0  0  0  0  0  0
   11.6041   -5.0595    0.0000 C   0  0  2  0  0  0  0  0  0  0  0  0
   11.6041   -5.8845    0.0000 C   0  0  1  0  0  0  0  0  0  0  0  0
   10.8896   -6.2970    0.0000 C   0  0  2  0  0  0  0  0  0  0  0  0
   10.1752   -5.8845    0.0000 C   0  0  1  0  0  0  0  0  0  0  0  0
   10.1752   -5.0595    0.0000 C   0  0  1  0  0  0  0  0  0  0  0  0
    9.4607   -4.6470    0.0000 C   0  0  0  0  0  0  0  0  0  0  0  0
    8.7462   -5.0595    0.0000 O   0  0  0  0  0  0  0  0  0  0  0  0
    9.4607   -6.2970    0.0000 O   0  0  0  0  0  0  0  0  0  0  0  0
   10.8896   -7.1220    0.0000 O   0  0  0  0  0  0  0  0  0  0  0  0
   12.3186   -6.2970    0.0000 O   0  0  0  0  0  0  0  0  0  0  0  0
   14.8745   -4.3450    0.0000 C   0  0  0  0  0  0  0  0  0  0  0  0
   15.2870   -5.0595    0.0000 C   0  0  0  0  0  0  0  0  0  0  0  0
   13.3350   -7.0114    0.0000 C   0  0  0  0  0  0  0  0  0  0  0  0
   14.1600   -7.0114    0.0000 O   0  0  0  0  0  0  0  0  0  0  0  0
   14.4620   -6.7095    0.0000 O   0  0  0  0  0  0  0  0  0  0  0  0
  1  2  1  0  0  0  0
  2  3  1  0  0  0  0
  3  4  2  0  0  0  0
  2  5  2  0  0  0  0
  6  7  1  0  0  0  0
  7  8  1  0  0  0  0
  8  9  1  0  0  0  0
  9 10  1  0  0  0  0
 10 11  1  0  0  0  0
  6 11  1  0  0  0  0
 13 14  1  0  0  0  0
 14 15  1  0  0  0  0
 15 16  1  0  0  0  0
 16 17  1  0  0  0  0
 17 18  1  0  0  0  0
 13 18  1  0  0  0  0
 19 20  1  0  0  0  0
 18 19  1  1  0  0  0
 17 21  1  6  0  0  0
 16 22  1  1  0  0  0
 15 23  1  6  0  0  0
 14 12  1  1  0  0  0
  9 12  1  1  0  0  0
 11 24  1  0  0  0  0
 11 25  1  0  0  0  0
  7 26  1  6  0  0  0
  7 27  1  1  0  0  0
  6 28  1  1  0  0  0
  4  6  1  0  0  0  0
M  END
>  <cdx:fragmentId>
36

$$$$
