39935.cdx
  Mrv1902 05222410192D          

 25 27  0  0  0  0            999 V2000
   13.8620   -8.0041    0.0000 C   0  0  0  0  0  0  0  0  0  0  0  0
   13.8620   -8.8291    0.0000 C   0  0  0  0  0  0  0  0  0  0  0  0
   13.1476   -9.2416    0.0000 C   0  0  0  0  0  0  0  0  0  0  0  0
   13.1476  -10.0666    0.0000 O   0  0  0  0  0  0  0  0  0  0  0  0
   12.4331   -8.8291    0.0000 C   0  0  0  0  0  0  0  0  0  0  0  0
   11.7186   -9.2416    0.0000 C   0  0  0  0  0  0  0  0  0  0  0  0
   11.7186  -10.0666    0.0000 O   0  0  0  0  0  0  0  0  0  0  0  0
   11.0042   -8.8291    0.0000 C   0  0  0  0  0  0  0  0  0  0  0  0
   11.0042   -8.0041    0.0000 C   0  0  0  0  0  0  0  0  0  0  0  0
   11.7186   -7.5916    0.0000 C   0  0  0  0  0  0  0  0  0  0  0  0
   12.4331   -8.0041    0.0000 C   0  0  0  0  0  0  0  0  0  0  0  0
   13.1476   -7.5916    0.0000 O   0  0  0  0  0  0  0  0  0  0  0  0
   14.5765   -7.5916    0.0000 C   0  0  0  0  0  0  0  0  0  0  0  0
   14.5765   -6.7666    0.0000 C   0  0  0  0  0  0  0  0  0  0  0  0
   15.2910   -6.3541    0.0000 C   0  0  0  0  0  0  0  0  0  0  0  0
   16.0055   -6.7666    0.0000 C   0  0  0  0  0  0  0  0  0  0  0  0
   16.7199   -6.3541    0.0000 O   0  0  0  0  0  0  0  0  0  0  0  0
   16.0055   -7.5916    0.0000 C   0  0  0  0  0  0  0  0  0  0  0  0
   15.2910   -8.0041    0.0000 C   0  0  0  0  0  0  0  0  0  0  0  0
    9.5752   -8.0041    0.0000 C   0  0  0  0  0  0  0  0  0  0  0  0
    8.8608   -7.5916    0.0000 C   0  0  0  0  0  0  0  0  0  0  0  0
    8.8608   -6.7666    0.0000 O   0  0  0  0  0  0  0  0  0  0  0  0
    8.1463   -8.0041    0.0000 C   0  0  0  0  0  0  0  0  0  0  0  0
    9.5752   -8.8291    0.0000 O   0  0  0  0  0  0  0  0  0  0  0  0
   10.2897   -7.5916    0.0000 O   0  0  0  0  0  0  0  0  0  0  0  0
  1  2  2  0  0  0  0
  2  3  1  0  0  0  0
  3  4  2  0  0  0  0
  3  5  1  0  0  0  0
  5  6  1  0  0  0  0
  6  7  1  0  0  0  0
  6  8  2  0  0  0  0
  8  9  1  0  0  0  0
  9 10  2  0  0  0  0
 10 11  1  0  0  0  0
  5 11  2  0  0  0  0
 11 12  1  0  0  0  0
  1 12  1  0  0  0  0
  1 13  1  0  0  0  0
 13 14  1  0  0  0  0
 14 15  2  0  0  0  0
 15 16  1  0  0  0  0
 16 17  1  0  0  0  0
 16 18  2  0  0  0  0
 18 19  1  0  0  0  0
 13 19  2  0  0  0  0
 20 21  1  0  0  0  0
 21 22  1  0  0  0  0
 21 23  1  0  0  0  0
 20 24  2  0  0  0  0
 20 25  1  0  0  0  0
  9 25  1  0  0  0  0
M  END
>  <cdx:fragmentId>
9

$$$$
