39930.cdx
  Mrv1902 05222410192D          

 44 46  0  0  0  0            999 V2000
    8.6574   -8.5122    0.0000 O   0  0  0  0  0  0  0  0  0  0  0  0
    9.3745   -8.1043    0.0000 C   0  0  0  0  0  0  0  0  0  0  0  0
   10.0864   -8.5212    0.0000 C   0  0  0  0  0  0  0  0  0  0  0  0
   10.8034   -8.1132    0.0000 C   0  0  0  0  0  0  0  0  0  0  0  0
    9.3797   -7.2793    0.0000 O   0  0  0  0  0  0  0  0  0  0  0  0
    7.2212   -9.3244    0.0000 O   0  0  0  0  0  0  0  0  0  0  0  0
   13.6612   -8.1312    0.0000 O   0  0  0  0  0  0  0  0  0  0  0  0
   13.6508   -9.7812    0.0000 O   0  0  0  0  0  0  0  0  0  0  0  0
   11.5101   -9.3552    0.0000 C   0  0  0  0  0  0  0  0  0  0  0  0
   12.2219   -9.7722    0.0000 C   0  0  0  0  0  0  0  0  0  0  0  0
   12.9390   -9.3642    0.0000 C   0  0  0  0  0  0  0  0  0  0  0  0
   12.9442   -8.5392    0.0000 C   0  0  0  0  0  0  0  0  0  0  0  0
   12.2323   -8.1222    0.0000 C   0  0  0  0  0  0  0  0  0  0  0  0
   11.5153   -8.5302    0.0000 C   0  0  0  0  0  0  0  0  0  0  0  0
    6.8508   -6.1239    0.0000 O   0  0  0  0  0  0  0  0  0  0  0  0
    5.7997   -8.4866    0.0000 O   0  0  0  0  0  0  0  0  0  0  0  0
    7.6755   -6.1467    0.0000 C   0  0  0  0  0  0  0  0  0  0  0  0
    6.5252   -7.2556    0.0000 C   0  0  0  0  0  0  0  0  0  0  0  0
    6.5178   -8.0805    0.0000 C   0  0  2  0  0  0  0  0  0  0  0  0
    7.2286   -8.4994    0.0000 C   0  0  0  0  0  0  0  0  0  0  0  0
    7.9467   -8.0934    0.0000 C   0  0  1  0  0  0  0  0  0  0  0  0
    7.9541   -7.2684    0.0000 C   0  0  0  0  0  0  0  0  0  0  0  0
    7.2434   -6.8495    0.0000 C   0  0  0  0  0  0  0  0  0  0  0  0
    7.2829   -5.4211    0.0000 O   0  0  0  0  0  0  0  0  0  0  0  0
    8.5002   -6.1696    0.0000 O   0  0  0  0  0  0  0  0  0  0  0  0
    5.0889   -8.0677    0.0000 C   0  0  0  0  0  0  0  0  0  0  0  0
    4.3708   -8.4738    0.0000 C   0  0  0  0  0  0  0  0  0  0  0  0
    5.0963   -7.2427    0.0000 O   0  0  0  0  0  0  0  0  0  0  0  0
    3.6600   -8.0549    0.0000 C   0  0  0  0  0  0  0  0  0  0  0  0
    2.9419   -8.4610    0.0000 C   0  0  0  0  0  0  0  0  0  0  0  0
    2.2234   -8.0554    0.0000 C   0  0  0  0  0  0  0  0  0  0  0  0
    1.5130   -8.4749    0.0000 C   0  0  0  0  0  0  0  0  0  0  0  0
    1.5211   -9.2998    0.0000 C   0  0  0  0  0  0  0  0  0  0  0  0
    2.2395   -9.7054    0.0000 C   0  0  0  0  0  0  0  0  0  0  0  0
    2.9499   -9.2859    0.0000 C   0  0  0  0  0  0  0  0  0  0  0  0
    0.7946   -8.0694    0.0000 O   0  0  0  0  0  0  0  0  0  0  0  0
    0.8106   -9.7193    0.0000 O   0  0  0  0  0  0  0  0  0  0  0  0
    6.5030   -9.7305    0.0000 C   0  0  0  0  0  0  0  0  0  0  0  0
    5.7923   -9.3116    0.0000 O   0  0  0  0  0  0  0  0  0  0  0  0
    6.4956  -10.5554    0.0000 C   0  0  0  0  0  0  0  0  0  0  0  0
    5.7775  -10.9615    0.0000 C   0  0  0  0  0  0  0  0  0  0  0  0
    5.7701  -11.7865    0.0000 C   0  0  0  0  0  0  0  0  0  0  0  0
    6.4808  -12.2054    0.0000 O   0  0  0  0  0  0  0  0  0  0  0  0
    5.0519  -12.1925    0.0000 O   0  0  0  0  0  0  0  0  0  0  0  0
 21  1  1  1  0  0  0
 12  7  1  0  0  0  0
 11  8  1  0  0  0  0
 14  9  2  0  0  0  0
 10  9  1  0  0  0  0
 11 10  2  0  0  0  0
 12 11  1  0  0  0  0
 13 12  2  0  0  0  0
 14 13  1  0  0  0  0
 20  6  1  0  0  0  0
 23 15  1  0  0  0  0
 19 16  1  6  0  0  0
 23 17  1  0  0  0  0
 23 18  1  0  0  0  0
 19 18  1  0  0  0  0
 20 19  1  0  0  0  0
 21 20  1  0  0  0  0
 22 21  1  0  0  0  0
 23 22  1  0  0  0  0
  2  3  1  0  0  0  0
  3  4  2  0  0  0  0
  2  5  2  0  0  0  0
  4 14  1  0  0  0  0
  1  2  1  0  0  0  0
 17 24  2  0  0  0  0
 17 25  1  0  0  0  0
 16 26  1  0  0  0  0
 26 27  1  0  0  0  0
 26 28  2  0  0  0  0
 27 29  2  0  0  0  0
 29 30  1  0  0  0  0
 30 31  2  0  0  0  0
 31 32  1  0  0  0  0
 32 33  2  0  0  0  0
 33 34  1  0  0  0  0
 34 35  2  0  0  0  0
 35 30  1  0  0  0  0
 32 36  1  0  0  0  0
 33 37  1  0  0  0  0
  6 38  1  0  0  0  0
 38 39  2  0  0  0  0
 38 40  1  0  0  0  0
 40 41  1  0  0  0  0
 41 42  1  0  0  0  0
 42 43  2  0  0  0  0
 42 44  1  0  0  0  0
M  END
>  <cdx:fragmentId>
348

$$$$
