39940.cdx
  Mrv1902 05222410222D          

 24 23  0  0  0  0            999 V2000
    4.4717   -7.6846    0.0000 C   0  0  0  0  0  0  0  0  0  0  0  0
    7.3296   -7.6846    0.0000 C   0  0  0  0  0  0  0  0  0  0  0  0
   10.1875   -7.6846    0.0000 C   0  0  0  0  0  0  0  0  0  0  0  0
   13.0453   -7.6846    0.0000 C   0  0  0  0  0  0  0  0  0  0  0  0
    0.8993   -6.4471    0.0000 O   0  0  0  0  0  0  0  0  0  0  0  0
    1.6138   -7.6846    0.0000 O   0  0  0  0  0  0  0  0  0  0  0  0
   13.7598   -6.4471    0.0000 C   0  0  0  0  0  0  0  0  0  0  0  0
   13.0453   -6.8596    0.0000 C   0  0  0  0  0  0  0  0  0  0  0  0
   12.3309   -6.4471    0.0000 C   0  0  0  0  0  0  0  0  0  0  0  0
   11.6164   -6.8596    0.0000 C   0  0  0  0  0  0  0  0  0  0  0  0
   10.9019   -6.4471    0.0000 C   0  0  0  0  0  0  0  0  0  0  0  0
   10.1875   -6.8596    0.0000 C   0  0  0  0  0  0  0  0  0  0  0  0
    9.4730   -6.4471    0.0000 C   0  0  0  0  0  0  0  0  0  0  0  0
    8.7585   -6.8596    0.0000 C   0  0  0  0  0  0  0  0  0  0  0  0
    8.0440   -6.4471    0.0000 C   0  0  0  0  0  0  0  0  0  0  0  0
    7.3296   -6.8596    0.0000 C   0  0  0  0  0  0  0  0  0  0  0  0
    6.6151   -6.4471    0.0000 C   0  0  0  0  0  0  0  0  0  0  0  0
    5.9006   -6.8596    0.0000 C   0  0  0  0  0  0  0  0  0  0  0  0
    5.1862   -6.4471    0.0000 C   0  0  0  0  0  0  0  0  0  0  0  0
    4.4717   -6.8596    0.0000 C   0  0  0  0  0  0  0  0  0  0  0  0
    3.7572   -6.4471    0.0000 C   0  0  0  0  0  0  0  0  0  0  0  0
    3.0427   -6.8596    0.0000 C   0  0  0  0  0  0  0  0  0  0  0  0
    2.3283   -6.4471    0.0000 C   0  0  0  0  0  0  0  0  0  0  0  0
    1.6138   -6.8596    0.0000 C   0  0  0  0  0  0  0  0  0  0  0  0
 20  1  1  0  0  0  0
 16  2  1  0  0  0  0
 12  3  1  0  0  0  0
  8  4  1  0  0  0  0
 24  5  1  0  0  0  0
 24  6  2  0  0  0  0
  8  7  1  0  0  0  0
  9  8  2  0  0  0  0
 10  9  1  0  0  0  0
 11 10  1  0  0  0  0
 12 11  1  0  0  0  0
 13 12  2  0  0  0  0
 14 13  1  0  0  0  0
 15 14  1  0  0  0  0
 16 15  1  0  0  0  0
 17 16  2  0  0  0  0
 18 17  1  0  0  0  0
 19 18  1  0  0  0  0
 20 19  1  0  0  0  0
 21 20  2  0  0  0  0
 22 21  1  0  0  0  0
 23 22  1  0  0  0  0
 24 23  1  0  0  0  0
M  END
>  <cdx:fragmentId>
127

$$$$
