39945.cdx
  Mrv1902 05222410202D          

 42 45  0  0  0  0            999 V2000
    5.8382   -7.4689    0.0000 C   0  0  0  0  0  0  0  0  0  0  0  0
    6.5536   -7.0579    0.0000 O   0  0  0  0  0  0  0  0  0  0  0  0
    6.2438  -10.6592    0.0000 C   0  0  0  0  0  0  0  0  0  0  0  0
    5.8329   -9.9438    0.0000 C   0  0  0  0  0  0  0  0  0  0  0  0
    5.4188  -10.6574    0.0000 C   0  0  0  0  0  0  0  0  0  0  0  0
    5.1193   -9.5298    0.0000 C   0  0  0  0  0  0  0  0  0  0  0  0
    5.1211   -8.7048    0.0000 O   0  0  0  0  0  0  0  0  0  0  0  0
    7.2654   -9.1219    0.0000 H   0  0  0  0  0  0  0  0  0  0  0  0
    9.4115   -7.8891    0.0000 H   0  0  0  0  0  0  0  0  0  0  0  0
    5.1246   -7.0548    0.0000 O   0  0  0  0  0  0  0  0  0  0  0  0
    5.8364   -8.2938    0.0000 C   0  0  0  0  0  0  0  0  0  0  0  0
    4.4039   -9.9407    0.0000 O   0  0  0  0  0  0  0  0  0  0  0  0
    9.0023   -5.5237    0.0000 O   0  0  0  0  0  0  0  0  0  0  0  0
    6.5500   -7.8829    0.0000 C   0  0  0  0  0  0  0  0  0  0  0  0
    7.9789   -7.8860    0.0000 C   0  0  0  0  0  0  0  0  0  0  0  0
    8.6943   -9.1250    0.0000 C   0  0  0  0  0  0  0  0  0  0  0  0
   10.1304   -5.0032    0.0000 C   0  0  0  0  0  0  0  0  0  0  0  0
    8.6164   -6.0256    0.0000 C   0  0  0  0  0  0  0  0  0  0  0  0
   11.5540   -7.4812    0.0000 O   0  0  0  0  0  0  0  0  0  0  0  0
   10.8368   -8.7172    0.0000 O   0  0  0  0  0  0  0  0  0  0  0  0
   10.8386   -7.8922    0.0000 C   0  0  0  0  0  0  0  0  0  0  0  0
    7.2654   -8.2969    0.0000 C   0  0  1  0  0  0  0  0  0  0  0  0
    7.2672   -7.4719    0.0000 C   0  0  0  0  0  0  0  0  0  0  0  0
    7.9825   -7.0610    0.0000 C   0  0  0  0  0  0  0  0  0  0  0  0
    8.6961   -7.4750    0.0000 C   0  0  0  0  0  0  0  0  0  0  0  0
    9.4115   -7.0641    0.0000 C   0  0  2  0  0  0  0  0  0  0  0  0
    9.4132   -6.2391    0.0000 C   0  0  1  0  0  0  0  0  0  0  0  0
   10.1286   -5.8281    0.0000 C   0  0  1  0  0  0  0  0  0  0  0  0
   10.8422   -6.2422    0.0000 C   0  0  0  0  0  0  0  0  0  0  0  0
   10.8404   -7.0672    0.0000 C   0  0  0  0  0  0  0  0  0  0  0  0
   10.1250   -7.4781    0.0000 C   0  0  1  0  0  0  0  0  0  0  0  0
   10.1232   -8.3031    0.0000 C   0  0  0  0  0  0  0  0  0  0  0  0
    9.4079   -8.7141    0.0000 C   0  0  0  0  0  0  0  0  0  0  0  0
    8.6943   -8.3000    0.0000 C   0  0  2  0  0  0  0  0  0  0  0  0
    7.9789   -8.7110    0.0000 C   0  0  1  0  0  0  0  0  0  0  0  0
    7.9772   -9.5360    0.0000 C   0  0  0  0  0  0  0  0  0  0  0  0
    7.2618   -9.9469    0.0000 C   0  0  0  0  0  0  0  0  0  0  0  0
    6.5482   -9.5329    0.0000 C   0  0  2  0  0  0  0  0  0  0  0  0
    6.5500   -8.7079    0.0000 C   0  0  2  0  0  0  0  0  0  0  0  0
    6.5464  -10.3579    0.0000 H   0  0  0  0  0  0  0  0  0  0  0  0
    4.4093   -7.4658    0.0000 C   0  0  0  0  0  0  0  0  0  0  0  0
    3.6903   -9.5267    0.0000 C   0  0  0  0  0  0  0  0  0  0  0  0
 22  8  1  6  0  0  0
 26  9  1  1  0  0  0
 39 11  1  0  0  0  0
 11  1  1  0  0  0  0
 38  4  1  0  0  0  0
 27 13  1  6  0  0  0
 39 14  1  1  0  0  0
 35 15  1  1  0  0  0
 34 16  1  6  0  0  0
 28 17  1  6  0  0  0
 27 18  1  1  0  0  0
 31 21  1  1  0  0  0
 21 19  1  0  0  0  0
 21 20  2  0  0  0  0
 39 22  1  0  0  0  0
 35 22  1  0  0  0  0
 23 22  1  0  0  0  0
 24 23  1  0  0  0  0
 25 24  2  0  0  0  0
 34 25  1  0  0  0  0
 26 25  1  0  0  0  0
 31 26  1  0  0  0  0
 27 26  1  0  0  0  0
 28 27  1  0  0  0  0
 29 28  1  0  0  0  0
 30 29  1  0  0  0  0
 31 30  1  0  0  0  0
 32 31  1  0  0  0  0
 33 32  1  0  0  0  0
 34 33  1  0  0  0  0
 35 34  1  0  0  0  0
 36 35  1  0  0  0  0
 37 36  1  0  0  0  0
 38 37  1  0  0  0  0
 39 38  1  0  0  0  0
  1  2  2  0  0  0  0
  1 10  1  0  0  0  0
  3  4  1  0  0  0  0
  4  5  1  0  0  0  0
  6  7  2  0  0  0  0
  6 12  1  0  0  0  0
  4  6  1  0  0  0  0
 38 40  1  6  0  0  0
 10 41  1  0  0  0  0
 12 42  1  0  0  0  0
M  END
>  <cdx:fragmentId>
10

$$$$
