39955.cdx
  Mrv1902 05222410232D          

 39 43  0  0  0  0            999 V2000
   13.0737   -5.6947    0.0000 C   0  0  0  0  0  0  0  0  0  0  0  0
   12.3592   -5.2822    0.0000 C   0  0  0  0  0  0  0  0  0  0  0  0
   13.7882   -5.2822    0.0000 O   0  0  0  0  0  0  0  0  0  0  0  0
   13.0737   -6.5197    0.0000 O   0  0  0  0  0  0  0  0  0  0  0  0
   14.5026   -6.5197    0.0000 C   0  0  0  0  0  0  0  0  0  0  0  0
   13.7882   -6.9322    0.0000 C   0  0  0  0  0  0  0  0  0  0  0  0
   13.7882   -7.7572    0.0000 C   0  0  0  0  0  0  0  0  0  0  0  0
   14.5026   -8.1697    0.0000 C   0  0  0  0  0  0  0  0  0  0  0  0
   15.3034   -7.7527    0.0000 O   0  0  0  0  0  0  0  0  0  0  0  0
   15.2171   -6.9322    0.0000 C   0  0  0  0  0  0  0  0  0  0  0  0
   15.9708   -6.5966    0.0000 C   0  0  0  0  0  0  0  0  0  0  0  0
   16.5228   -7.2097    0.0000 C   0  0  0  0  0  0  0  0  0  0  0  0
   16.1103   -7.9242    0.0000 C   0  0  0  0  0  0  0  0  0  0  0  0
   16.4459   -8.6779    0.0000 O   0  0  0  0  0  0  0  0  0  0  0  0
   17.3433   -7.1235    0.0000 C   0  0  0  0  0  0  0  0  0  0  0  0
   13.0737   -8.9947    0.0000 C   0  0  0  0  0  0  0  0  0  0  0  0
   13.0737   -8.1697    0.0000 C   0  0  0  0  0  0  0  0  0  0  0  0
   12.3592   -7.7572    0.0000 C   0  0  0  0  0  0  0  0  0  0  0  0
   11.6448   -8.1697    0.0000 C   0  0  0  0  0  0  0  0  0  0  0  0
   11.6448   -8.9947    0.0000 C   0  0  0  0  0  0  0  0  0  0  0  0
   10.9303   -9.4072    0.0000 C   0  0  0  0  0  0  0  0  0  0  0  0
   10.2158   -8.9947    0.0000 C   0  0  0  0  0  0  0  0  0  0  0  0
    9.5013   -9.4072    0.0000 C   0  0  0  0  0  0  0  0  0  0  0  0
    9.5013  -10.2322    0.0000 C   0  0  0  0  0  0  0  0  0  0  0  0
   10.2158  -10.6447    0.0000 C   0  0  0  0  0  0  0  0  0  0  0  0
   10.9303  -10.2322    0.0000 C   0  0  0  0  0  0  0  0  0  0  0  0
   11.6448  -10.6447    0.0000 C   0  0  0  0  0  0  0  0  0  0  0  0
   12.3592  -10.2322    0.0000 C   0  0  0  0  0  0  0  0  0  0  0  0
   12.3592   -9.4072    0.0000 C   0  0  0  0  0  0  0  0  0  0  0  0
   14.2523   -9.6214    0.0000 O   0  0  0  0  0  0  0  0  0  0  0  0
   14.3956   -8.8089    0.0000 C   0  0  0  0  0  0  0  0  0  0  0  0
   13.6672   -8.4216    0.0000 C   0  0  0  0  0  0  0  0  0  0  0  0
   13.4354   -9.7362    0.0000 C   0  0  0  0  0  0  0  0  0  0  0  0
   15.1371   -8.4472    0.0000 O   0  0  0  0  0  0  0  0  0  0  0  0
   12.8951   -9.7166    0.0000 C   0  0  0  0  0  0  0  0  0  0  0  0
   10.6283  -11.3591    0.0000 C   0  0  0  0  0  0  0  0  0  0  0  0
    9.8033  -11.3591    0.0000 C   0  0  0  0  0  0  0  0  0  0  0  0
   10.9303   -8.5822    0.0000 C   0  0  0  0  0  0  0  0  0  0  0  0
    8.7869  -10.6447    0.0000 O   0  0  0  0  0  0  0  0  0  0  0  0
  1  2  1  0  0  0  0
  1  3  2  0  0  0  0
  1  4  1  0  0  0  0
  5  6  1  0  0  0  0
  6  7  1  0  0  0  0
  7  8  1  0  0  0  0
  9 10  1  0  0  0  0
 10 11  1  0  0  0  0
 11 12  1  0  0  0  0
 12 13  1  0  0  0  0
  9 13  1  0  0  0  0
 13 14  2  0  0  0  0
 12 15  1  0  0  0  0
  5 10  1  0  0  0  0
 16 17  1  0  0  0  0
 17 18  1  0  0  0  0
 18 19  1  0  0  0  0
 19 20  1  0  0  0  0
 20 21  1  0  0  0  0
 21 22  1  0  0  0  0
 22 23  1  0  0  0  0
 23 24  1  0  0  0  0
 24 25  1  0  0  0  0
 25 26  1  0  0  0  0
 21 26  1  0  0  0  0
 26 27  1  0  0  0  0
 27 28  1  0  0  0  0
 28 29  1  0  0  0  0
 16 29  1  0  0  0  0
 20 29  1  0  0  0  0
 30 31  1  0  0  0  0
 31 32  1  0  0  0  0
 30 33  1  0  0  0  0
 32 16  1  0  0  0  0
 33 16  1  0  0  0  0
 31 34  2  0  0  0  0
 29 35  1  0  0  0  0
 25 36  1  0  0  0  0
 25 37  1  0  0  0  0
 21 38  1  0  0  0  0
 24 39  1  0  0  0  0
  7 17  1  0  0  0  0
  4  6  1  0  0  0  0
M  END
>  <cdx:fragmentId>
41

$$$$
