39959.cdx
  Mrv1902 05222410232D          

 21 22  0  0  0  0            999 V2000
   11.2712  -10.5022    0.0000 C   0  0  0  0  0  0  0  0  0  0  0  0
   11.9857  -10.0897    0.0000 C   0  0  0  0  0  0  0  0  0  0  0  0
   11.9857   -9.2647    0.0000 C   0  0  0  0  0  0  0  0  0  0  0  0
   12.7002   -8.8522    0.0000 C   0  0  0  0  0  0  0  0  0  0  0  0
   12.7002  -10.5022    0.0000 O   0  0  0  0  0  0  0  0  0  0  0  0
   12.7002   -8.0272    0.0000 C   0  0  0  0  0  0  0  0  0  0  0  0
   11.9857   -7.6147    0.0000 C   0  0  0  0  0  0  0  0  0  0  0  0
   11.9857   -6.7897    0.0000 C   0  0  0  0  0  0  0  0  0  0  0  0
   12.7002   -6.3772    0.0000 C   0  0  0  0  0  0  0  0  0  0  0  0
   13.4146   -6.7897    0.0000 C   0  0  0  0  0  0  0  0  0  0  0  0
   14.1291   -6.3772    0.0000 C   0  0  0  0  0  0  0  0  0  0  0  0
   14.8436   -6.7897    0.0000 C   0  0  0  0  0  0  0  0  0  0  0  0
   14.8436   -7.6147    0.0000 C   0  0  0  0  0  0  0  0  0  0  0  0
   14.1291   -8.0272    0.0000 C   0  0  0  0  0  0  0  0  0  0  0  0
   13.4146   -7.6147    0.0000 C   0  0  0  0  0  0  0  0  0  0  0  0
   13.4146   -8.4397    0.0000 C   0  0  0  0  0  0  0  0  0  0  0  0
   13.7166   -5.6627    0.0000 C   0  0  0  0  0  0  0  0  0  0  0  0
   14.5416   -5.6627    0.0000 C   0  0  0  0  0  0  0  0  0  0  0  0
   11.1607   -7.6147    0.0000 C   0  0  0  0  0  0  0  0  0  0  0  0
   11.2712   -6.3772    0.0000 O   0  0  0  0  0  0  0  0  0  0  0  0
   11.5732   -8.3291    0.0000 O   0  0  0  0  0  0  0  0  0  0  0  0
  1  2  1  0  0  0  0
  2  3  1  0  0  0  0
  3  4  2  0  0  0  0
  2  5  2  0  0  0  0
  6  7  1  0  0  0  0
  7  8  1  0  0  0  0
  8  9  1  0  0  0  0
  9 10  1  0  0  0  0
 10 11  1  0  0  0  0
 11 12  1  0  0  0  0
 12 13  1  0  0  0  0
 13 14  1  0  0  0  0
 14 15  1  0  0  0  0
  6 15  1  0  0  0  0
 10 15  1  0  0  0  0
 15 16  1  0  0  0  0
 11 17  1  0  0  0  0
 11 18  1  0  0  0  0
  7 19  1  0  0  0  0
  8 20  1  0  0  0  0
  7 21  1  0  0  0  0
  4  6  1  0  0  0  0
M  END
>  <cdx:fragmentId>
19

$$$$
