39953.cdx
  Mrv1902 05222410212D          

 20 23  0  0  0  0            999 V2000
   13.5331   -7.6989    0.0000 C   0  0  0  0  0  0  0  0  0  0  0  0
   13.5331   -6.8739    0.0000 C   0  0  0  0  0  0  0  0  0  0  0  0
   12.8187   -7.2864    0.0000 C   0  0  0  0  0  0  0  0  0  0  0  0
   12.1042   -7.6989    0.0000 C   0  0  0  0  0  0  0  0  0  0  0  0
   11.3196   -7.4440    0.0000 C   0  0  0  0  0  0  0  0  0  0  0  0
   10.8346   -8.1114    0.0000 C   0  0  0  0  0  0  0  0  0  0  0  0
   11.3196   -8.7788    0.0000 C   0  0  0  0  0  0  0  0  0  0  0  0
   12.1042   -8.5239    0.0000 C   0  0  0  0  0  0  0  0  0  0  0  0
   12.8187   -8.9364    0.0000 C   0  0  0  0  0  0  0  0  0  0  0  0
   13.5331   -8.5239    0.0000 C   0  0  0  0  0  0  0  0  0  0  0  0
   14.3177   -8.7788    0.0000 C   0  0  0  0  0  0  0  0  0  0  0  0
   14.8027   -8.1114    0.0000 O   0  0  0  0  0  0  0  0  0  0  0  0
   14.3177   -7.4440    0.0000 C   0  0  0  0  0  0  0  0  0  0  0  0
   12.8187   -9.7614    0.0000 O   0  0  0  0  0  0  0  0  0  0  0  0
   13.6194   -9.3444    0.0000 O   0  0  0  0  0  0  0  0  0  0  0  0
   10.1202   -8.5239    0.0000 C   0  0  0  0  0  0  0  0  0  0  0  0
   10.1202   -7.6989    0.0000 C   0  0  0  0  0  0  0  0  0  0  0  0
   12.4062   -6.5719    0.0000 C   0  0  0  0  0  0  0  0  0  0  0  0
   14.5727   -6.6593    0.0000 O   0  0  0  0  0  0  0  0  0  0  0  0
   15.3797   -6.4878    0.0000 C   0  0  0  0  0  0  0  0  0  0  0  0
  1  2  1  0  0  0  0
  2  3  1  0  0  0  0
  3  4  1  0  0  0  0
  4  5  1  0  0  0  0
  5  6  1  0  0  0  0
  6  7  1  0  0  0  0
  7  8  1  0  0  0  0
  8  9  1  0  0  0  0
  9 10  1  0  0  0  0
 10 11  1  0  0  0  0
 11 12  1  0  0  0  0
 12 13  1  0  0  0  0
  1 13  1  0  0  0  0
  1 10  1  0  0  0  0
  4  8  1  0  0  0  0
  1  3  1  0  0  0  0
  9 14  1  0  0  0  0
 10 15  1  0  0  0  0
  6 16  1  0  0  0  0
  6 17  1  0  0  0  0
  3 18  1  0  0  0  0
 19 20  1  0  0  0  0
 13 19  1  0  0  0  0
M  END
>  <cdx:fragmentId>
10

$$$$
