39956.cdx
  Mrv1902 05222410222D          

 47 52  0  0  0  0            999 V2000
   15.2076   -9.5266    0.0000 C   0  0  0  0  0  0  0  0  0  0  0  0
   15.9221   -9.1141    0.0000 C   0  0  0  0  0  0  0  0  0  0  0  0
   16.6366   -9.5266    0.0000 C   0  0  0  0  0  0  0  0  0  0  0  0
   17.3510   -9.1141    0.0000 C   0  0  0  0  0  0  0  0  0  0  0  0
   15.2076  -10.3516    0.0000 O   0  0  0  0  0  0  0  0  0  0  0  0
   14.4932   -9.1141    0.0000 O   0  0  0  0  0  0  0  0  0  0  0  0
   15.9221   -8.2891    0.0000 C   0  0  0  0  0  0  0  0  0  0  0  0
   13.0642   -6.6391    0.0000 C   0  0  2  0  0  0  0  0  0  0  0  0
   12.3497   -7.0516    0.0000 C   0  0  1  0  0  0  0  0  0  0  0  0
   11.5651   -6.7967    0.0000 O   0  0  0  0  0  0  0  0  0  0  0  0
   11.0802   -7.4641    0.0000 C   0  0  2  0  0  0  0  0  0  0  0  0
   10.2956   -7.7191    0.0000 C   0  0  0  0  0  0  0  0  0  0  0  0
   10.2956   -8.5441    0.0000 C   0  0  2  0  0  0  0  0  0  0  0  0
   11.0802   -8.7990    0.0000 C   0  0  0  0  0  0  0  0  0  0  0  0
   11.5651   -8.1316    0.0000 C   0  0  0  0  0  0  0  0  0  0  0  0
   12.3497   -7.8766    0.0000 C   0  0  1  0  0  0  0  0  0  0  0  0
   13.0642   -8.2891    0.0000 C   0  0  1  0  0  0  0  0  0  0  0  0
   13.7787   -7.8766    0.0000 C   0  0  1  0  0  0  0  0  0  0  0  0
   14.4932   -8.2891    0.0000 C   0  0  2  0  0  0  0  0  0  0  0  0
   15.2076   -7.8766    0.0000 C   0  0  0  0  0  0  0  0  0  0  0  0
   15.2076   -7.0516    0.0000 C   0  0  2  0  0  0  0  0  0  0  0  0
   14.4932   -6.6391    0.0000 C   0  0  1  0  0  0  0  0  0  0  0  0
   14.1925   -5.8709    0.0000 C   0  0  0  0  0  0  0  0  0  0  0  0
   13.3675   -5.8709    0.0000 O   0  0  0  0  0  0  0  0  0  0  0  0
   13.7787   -7.0516    0.0000 C   0  0  2  0  0  0  0  0  0  0  0  0
   15.1187   -6.1013    0.0000 C   0  0  0  0  0  0  0  0  0  0  0  0
   13.7787   -8.7016    0.0000 C   0  0  0  0  0  0  0  0  0  0  0  0
   12.3497   -8.7016    0.0000 C   0  0  0  0  0  0  0  0  0  0  0  0
   11.3351   -9.5836    0.0000 C   0  0  0  0  0  0  0  0  0  0  0  0
   13.0642   -9.1141    0.0000 C   0  0  0  0  0  0  0  0  0  0  0  0
   12.3497   -9.5266    0.0000 C   0  0  0  0  0  0  0  0  0  0  0  0
   11.6353   -9.1141    0.0000 O   0  0  0  0  0  0  0  0  0  0  0  0
   12.3497  -10.3516    0.0000 O   0  0  0  0  0  0  0  0  0  0  0  0
   13.0642  -10.7641    0.0000 C   0  0  0  0  0  0  0  0  0  0  0  0
    8.3586   -9.4415    0.0000 O   0  0  0  0  0  0  0  0  0  0  0  0
    8.8435   -8.7741    0.0000 C   0  0  0  0  0  0  0  0  0  0  0  0
    9.6281   -9.0290    0.0000 C   0  0  0  0  0  0  0  0  0  0  0  0
    9.6281   -9.8540    0.0000 C   0  0  0  0  0  0  0  0  0  0  0  0
    8.8435  -10.1089    0.0000 C   0  0  0  0  0  0  0  0  0  0  0  0
   15.9221   -6.6391    0.0000 O   0  0  0  0  0  0  0  0  0  0  0  0
   16.6366   -7.0516    0.0000 C   0  0  0  0  0  0  0  0  0  0  0  0
   16.6366   -7.8766    0.0000 O   0  0  0  0  0  0  0  0  0  0  0  0
   17.3510   -6.6391    0.0000 C   0  0  0  0  0  0  0  0  0  0  0  0
   13.0642   -7.4641    0.0000 H   0  0  0  0  0  0  0  0  0  0  0  0
   12.3497   -6.2266    0.0000 H   0  0  0  0  0  0  0  0  0  0  0  0
   10.5953   -6.7967    0.0000 H   0  0  0  0  0  0  0  0  0  0  0  0
   13.7787   -6.2266    0.0000 H   0  0  0  0  0  0  0  0  0  0  0  0
  1  2  1  0  0  0  0
  2  3  2  0  0  0  0
  3  4  1  0  0  0  0
  1  5  2  0  0  0  0
  1  6  1  0  0  0  0
  2  7  1  0  0  0  0
  8  9  1  0  0  0  0
  9 10  1  0  0  0  0
 10 11  1  0  0  0  0
 11 12  1  0  0  0  0
 12 13  1  0  0  0  0
 13 14  1  0  0  0  0
 14 15  2  0  0  0  0
 15 16  1  0  0  0  0
 16 17  1  0  0  0  0
 17 18  1  0  0  0  0
 18 19  1  0  0  0  0
 19 20  1  0  0  0  0
 20 21  1  0  0  0  0
 21 22  1  0  0  0  0
 22 23  1  0  0  0  0
 23 24  1  0  0  0  0
  8 24  1  0  0  0  0
  8 25  1  0  0  0  0
 25 18  1  0  0  0  0
  9 16  1  0  0  0  0
 11 15  1  0  0  0  0
 22 25  1  0  0  0  0
 22 26  1  1  0  0  0
 18 27  1  1  0  0  0
 16 28  1  1  0  0  0
 14 29  1  0  0  0  0
 30 31  1  0  0  0  0
 31 32  2  0  0  0  0
 33 34  1  0  0  0  0
 31 33  1  0  0  0  0
 17 30  1  1  0  0  0
 35 36  1  0  0  0  0
 36 37  2  0  0  0  0
 37 38  1  0  0  0  0
 38 39  2  0  0  0  0
 35 39  1  0  0  0  0
 13 37  1  6  0  0  0
 41 42  2  0  0  0  0
 41 43  1  0  0  0  0
 40 41  1  0  0  0  0
 21 40  1  6  0  0  0
 19  6  1  6  0  0  0
  8 44  1  1  0  0  0
  9 45  1  1  0  0  0
 11 46  1  6  0  0  0
 25 47  1  6  0  0  0
M  END
>  <cdx:fragmentId>
24

$$$$
