39952.cdx
  Mrv1902 05222410212D          

 44 47  0  0  0  0            999 V2000
   12.5405   -8.1926    0.0000 C   0  0  2  0  0  0  0  0  0  0  0  0
   11.8261   -8.6051    0.0000 O   0  0  0  0  0  0  0  0  0  0  0  0
   11.8261   -9.4301    0.0000 C   0  0  0  0  0  0  0  0  0  0  0  0
   11.1116   -9.8426    0.0000 C   0  0  2  0  0  0  0  0  0  0  0  0
   10.3971   -9.4301    0.0000 C   0  0  0  0  0  0  0  0  0  0  0  0
    9.6826   -9.8426    0.0000 C   0  0  0  0  0  0  0  0  0  0  0  0
    9.6826  -10.6676    0.0000 C   0  0  0  0  0  0  0  0  0  0  0  0
   10.3971  -11.0801    0.0000 C   0  0  0  0  0  0  0  0  0  0  0  0
   11.1116  -10.6676    0.0000 C   0  0  1  0  0  0  0  0  0  0  0  0
   11.8261  -11.0801    0.0000 C   0  0  0  0  0  0  0  0  0  0  0  0
   12.5405  -10.6676    0.0000 C   0  0  0  0  0  0  0  0  0  0  0  0
   13.2550  -11.0801    0.0000 C   0  0  0  0  0  0  0  0  0  0  0  0
   13.9695  -10.6676    0.0000 C   0  0  0  0  0  0  0  0  0  0  0  0
   14.6839  -11.0801    0.0000 C   0  0  1  0  0  0  0  0  0  0  0  0
   15.3984  -10.6676    0.0000 C   0  0  1  0  0  0  0  0  0  0  0  0
   15.3984   -9.8426    0.0000 C   0  0  0  0  0  0  0  0  0  0  0  0
   14.6839   -9.4301    0.0000 C   0  0  0  0  0  0  0  0  0  0  0  0
   14.6839   -8.6051    0.0000 C   0  0  0  0  0  0  0  0  0  0  0  0
   13.9695   -8.1926    0.0000 C   0  0  1  0  0  0  0  0  0  0  0  0
   13.9706   -7.3676    0.0000 O   0  0  0  0  0  0  0  0  0  0  0  0
   13.2559   -6.9553    0.0000 C   0  0  1  0  0  0  0  0  0  0  0  0
   12.5413   -7.3676    0.0000 C   0  0  0  0  0  0  0  0  0  0  0  0
   13.2550   -8.6051    0.0000 C   0  0  0  0  0  0  0  0  0  0  0  0
   12.5415   -6.5428    0.0000 O   0  0  0  0  0  0  0  0  0  0  0  0
   13.9704   -6.5428    0.0000 C   0  0  0  0  0  0  0  0  0  0  0  0
   13.9704   -5.7178    0.0000 C   0  0  1  0  0  0  0  0  0  0  0  0
   13.2559   -5.3053    0.0000 C   0  0  1  0  0  0  0  0  0  0  0  0
   12.5415   -5.7178    0.0000 C   0  0  1  0  0  0  0  0  0  0  0  0
   12.5405   -9.8426    0.0000 O   0  0  0  0  0  0  0  0  0  0  0  0
    8.9682  -11.0801    0.0000 O   0  0  0  0  0  0  0  0  0  0  0  0
   11.8270   -4.4803    0.0000 C   0  0  0  0  0  0  0  0  0  0  0  0
   11.8270   -5.3053    0.0000 C   0  0  0  0  0  0  0  0  0  0  0  0
   11.1125   -5.7178    0.0000 C   0  0  0  0  0  0  0  0  0  0  0  0
   16.1129   -9.4301    0.0000 C   0  0  0  0  0  0  0  0  0  0  0  0
   14.6839  -11.9051    0.0000 C   0  0  0  0  0  0  0  0  0  0  0  0
   11.8261  -11.9051    0.0000 C   0  0  0  0  0  0  0  0  0  0  0  0
    8.9682   -9.4301    0.0000 C   0  0  0  0  0  0  0  0  0  0  0  0
   13.2559   -4.4803    0.0000 C   0  0  0  0  0  0  0  0  0  0  0  0
   16.1129  -11.0801    0.0000 O   0  0  0  0  0  0  0  0  0  0  0  0
   11.1116  -11.4926    0.0000 O   0  0  0  0  0  0  0  0  0  0  0  0
   14.6849   -5.3053    0.0000 O   0  0  0  0  0  0  0  0  0  0  0  0
   11.8261   -7.7801    0.0000 H   0  0  0  0  0  0  0  0  0  0  0  0
   11.1116   -9.0176    0.0000 H   0  0  0  0  0  0  0  0  0  0  0  0
   14.6839   -7.7801    0.0000 H   0  0  0  0  0  0  0  0  0  0  0  0
  1  2  1  0  0  0  0
  2  3  1  0  0  0  0
  3  4  1  0  0  0  0
  4  5  1  0  0  0  0
  5  6  2  0  0  0  0
  6  7  1  0  0  0  0
  7  8  1  0  0  0  0
  8  9  1  0  0  0  0
  9 10  1  0  0  0  0
 10 11  2  0  0  0  0
 11 12  1  0  0  0  0
 12 13  2  0  0  0  0
 13 14  1  0  0  0  0
 14 15  1  0  0  0  0
 15 16  1  0  0  0  0
 16 17  2  0  0  0  0
 17 18  1  0  0  0  0
 18 19  1  0  0  0  0
 19 20  1  0  0  0  0
 20 21  1  0  0  0  0
 21 22  1  0  0  0  0
  1 22  1  0  0  0  0
  1 23  1  0  0  0  0
 23 19  1  0  0  0  0
  4  9  1  0  0  0  0
 25 26  1  0  0  0  0
 26 27  1  0  0  0  0
 27 28  1  0  0  0  0
 24 28  1  0  0  0  0
 21 24  1  1  0  0  0
 21 25  1  6  0  0  0
  3 29  2  0  0  0  0
  7 30  2  0  0  0  0
 31 32  1  0  0  0  0
 32 33  1  0  0  0  0
 28 32  1  6  0  0  0
 16 34  1  0  0  0  0
 14 35  1  1  0  0  0
 10 36  1  0  0  0  0
  6 37  1  0  0  0  0
 27 38  1  1  0  0  0
 15 39  1  1  0  0  0
  9 40  1  1  0  0  0
 26 41  1  1  0  0  0
  1 42  1  1  0  0  0
  4 43  1  6  0  0  0
 19 44  1  1  0  0  0
M  END
>  <cdx:fragmentId>
10

$$$$
