39951.cdx
  Mrv1902 05222410202D          

 21 23  0  0  0  0            999 V2000
    8.7705   -9.9880    0.0000 O   0  0  0  0  0  0  0  0  0  0  0  0
    5.9126  -10.8130    0.0000 O   0  0  0  0  0  0  0  0  0  0  0  0
    4.4837   -8.3380    0.0000 O   0  0  0  0  0  0  0  0  0  0  0  0
    8.0560   -7.1005    0.0000 O   0  0  0  0  0  0  0  0  0  0  0  0
    9.4850   -8.7505    0.0000 C   0  0  0  0  0  0  0  0  0  0  0  0
   10.1994   -8.3380    0.0000 C   0  0  0  0  0  0  0  0  0  0  0  0
   10.1994   -7.5130    0.0000 C   0  0  0  0  0  0  0  0  0  0  0  0
    9.4850   -7.1005    0.0000 C   0  0  0  0  0  0  0  0  0  0  0  0
    8.7705   -7.5130    0.0000 C   0  0  0  0  0  0  0  0  0  0  0  0
    8.7705   -8.3380    0.0000 C   0  0  0  0  0  0  0  0  0  0  0  0
    7.3415  -10.8130    0.0000 O   0  0  0  0  0  0  0  0  0  0  0  0
    7.3415   -8.3380    0.0000 O   0  0  0  0  0  0  0  0  0  0  0  0
    6.6271   -8.7505    0.0000 C   0  0  0  0  0  0  0  0  0  0  0  0
    5.9126   -8.3380    0.0000 C   0  0  0  0  0  0  0  0  0  0  0  0
    5.1981   -8.7505    0.0000 C   0  0  0  0  0  0  0  0  0  0  0  0
    5.1981   -9.5755    0.0000 C   0  0  0  0  0  0  0  0  0  0  0  0
    5.9126   -9.9880    0.0000 C   0  0  0  0  0  0  0  0  0  0  0  0
    6.6271   -9.5755    0.0000 C   0  0  0  0  0  0  0  0  0  0  0  0
    7.3415   -9.9880    0.0000 C   0  0  0  0  0  0  0  0  0  0  0  0
    8.0560   -9.5755    0.0000 C   0  0  0  0  0  0  0  0  0  0  0  0
    8.0560   -8.7505    0.0000 C   0  0  0  0  0  0  0  0  0  0  0  0
 20  1  1  0  0  0  0
 17  2  1  0  0  0  0
 15  3  1  0  0  0  0
 21 10  1  0  0  0  0
  9  4  1  0  0  0  0
 10  5  2  0  0  0  0
  6  5  1  0  0  0  0
  7  6  2  0  0  0  0
  8  7  1  0  0  0  0
  9  8  2  0  0  0  0
 10  9  1  0  0  0  0
 19 11  2  0  0  0  0
 21 12  1  0  0  0  0
 13 12  1  0  0  0  0
 18 13  2  0  0  0  0
 14 13  1  0  0  0  0
 15 14  2  0  0  0  0
 16 15  1  0  0  0  0
 17 16  2  0  0  0  0
 18 17  1  0  0  0  0
 19 18  1  0  0  0  0
 20 19  1  0  0  0  0
 21 20  2  0  0  0  0
M  END
>  <cdx:fragmentId>
5

$$$$
