39954.cdx
  Mrv1902 05222410222D          

 16 16  0  0  0  0            999 V2000
   12.0329   -8.2104    0.0000 C   0  0  0  0  0  0  0  0  0  0  0  0
   12.0329   -9.0354    0.0000 C   0  0  0  0  0  0  0  0  0  0  0  0
   11.3185   -9.4479    0.0000 C   0  0  0  0  0  0  0  0  0  0  0  0
   10.6040   -9.0354    0.0000 C   0  0  0  0  0  0  0  0  0  0  0  0
   10.6040   -8.2104    0.0000 C   0  0  0  0  0  0  0  0  0  0  0  0
   11.3185   -7.7979    0.0000 C   0  0  0  0  0  0  0  0  0  0  0  0
    9.8895   -9.4479    0.0000 O   0  0  0  0  0  0  0  0  0  0  0  0
    9.1750   -9.0354    0.0000 C   0  0  0  0  0  0  0  0  0  0  0  0
   12.7474   -7.7979    0.0000 C   0  0  0  0  0  0  0  0  0  0  0  0
   12.7474   -6.9729    0.0000 O   0  0  0  0  0  0  0  0  0  0  0  0
   13.4619   -8.2104    0.0000 O   0  0  0  0  0  0  0  0  0  0  0  0
   14.1763   -7.7979    0.0000 C   0  0  0  0  0  0  0  0  0  0  0  0
   14.8908   -8.2104    0.0000 C   0  0  0  0  0  0  0  0  0  0  0  0
   15.6053   -7.7979    0.0000 C   0  0  0  0  0  0  0  0  0  0  0  0
   15.6053   -6.9729    0.0000 C   0  0  0  0  0  0  0  0  0  0  0  0
   16.3198   -8.2104    0.0000 C   0  0  0  0  0  0  0  0  0  0  0  0
  1  2  1  0  0  0  0
  2  3  2  0  0  0  0
  3  4  1  0  0  0  0
  4  5  2  0  0  0  0
  5  6  1  0  0  0  0
  1  6  2  0  0  0  0
  7  8  1  0  0  0  0
  4  7  1  0  0  0  0
  1  9  1  0  0  0  0
  9 10  2  0  0  0  0
  9 11  1  0  0  0  0
 12 13  1  0  0  0  0
 13 14  1  0  0  0  0
 14 15  1  0  0  0  0
 16 14  1  0  0  0  0
 11 12  1  0  0  0  0
M  END
>  <cdx:fragmentId>
9

$$$$
