39958.cdx
  Mrv1902 05222410232D          

 41 45  0  0  0  0            999 V2000
    3.8927   -9.2412    0.0000 O   0  0  0  0  0  0  0  0  0  0  0  0
    3.1784   -8.8285    0.0000 C   0  0  0  0  0  0  0  0  0  0  0  0
    3.1786   -8.0035    0.0000 O   0  0  0  0  0  0  0  0  0  0  0  0
    2.4638   -9.2408    0.0000 C   0  0  0  0  0  0  0  0  0  0  0  0
    6.0369   -6.3542    0.0000 O   0  0  0  0  0  0  0  0  0  0  0  0
    5.3213  -10.6705    0.0000 O   0  0  0  0  0  0  0  0  0  0  0  0
    4.9090   -9.9559    0.0000 C   0  0  0  0  0  0  0  0  0  0  0  0
    9.1972   -4.4031    0.0000 C   0  0  0  0  0  0  0  0  0  0  0  0
   10.0222   -4.4033    0.0000 C   0  0  0  0  0  0  0  0  0  0  0  0
    5.7340   -9.9561    0.0000 C   0  0  0  0  0  0  0  0  0  0  0  0
   11.0381   -6.7680    0.0000 O   0  0  0  0  0  0  0  0  0  0  0  0
   10.3233   -8.0053    0.0000 O   0  0  0  0  0  0  0  0  0  0  0  0
   10.3235   -7.1803    0.0000 C   0  0  0  0  0  0  0  0  0  0  0  0
    8.8947   -6.3550    0.0000 C   0  0  1  0  0  0  0  0  0  0  0  0
    8.1802   -6.7673    0.0000 C   0  0  2  0  0  0  0  0  0  0  0  0
    7.4658   -6.3546    0.0000 C   0  0  0  0  0  0  0  0  0  0  0  0
    6.7512   -6.7669    0.0000 C   0  0  0  0  0  0  0  0  0  0  0  0
    6.7510   -7.5919    0.0000 C   0  0  2  0  0  0  0  0  0  0  0  0
    6.0364   -8.0042    0.0000 C   0  0  1  0  0  0  0  0  0  0  0  0
    5.3221   -7.5916    0.0000 C   0  0  0  0  0  0  0  0  0  0  0  0
    4.6075   -8.0039    0.0000 C   0  0  0  0  0  0  0  0  0  0  0  0
    4.6073   -8.8289    0.0000 C   0  0  1  0  0  0  0  0  0  0  0  0
    5.3217   -9.2416    0.0000 C   0  0  2  0  0  0  0  0  0  0  0  0
    6.0362   -8.8292    0.0000 C   0  0  2  0  0  0  0  0  0  0  0  0
    6.7506   -9.2419    0.0000 C   0  0  0  0  0  0  0  0  0  0  0  0
    7.4652   -8.8296    0.0000 C   0  0  0  0  0  0  0  0  0  0  0  0
    7.4654   -8.0046    0.0000 C   0  0  1  0  0  0  0  0  0  0  0  0
    8.1800   -7.5923    0.0000 C   0  0  0  0  0  0  0  0  0  0  0  0
    8.8943   -8.0050    0.0000 C   0  0  0  0  0  0  0  0  0  0  0  0
    9.6089   -7.5926    0.0000 C   0  0  0  0  0  0  0  0  0  0  0  0
    9.6091   -6.7676    0.0000 C   0  0  2  0  0  0  0  0  0  0  0  0
   10.3237   -6.3553    0.0000 C   0  0  0  0  0  0  0  0  0  0  0  0
   10.3239   -5.5303    0.0000 C   0  0  0  0  0  0  0  0  0  0  0  0
    9.6095   -5.1176    0.0000 C   0  0  0  0  0  0  0  0  0  0  0  0
    8.8950   -5.5300    0.0000 C   0  0  0  0  0  0  0  0  0  0  0  0
    6.0367   -7.1792    0.0000 C   0  0  0  0  0  0  0  0  0  0  0  0
    7.4654   -7.1796    0.0000 C   0  0  0  0  0  0  0  0  0  0  0  0
    8.8947   -7.1800    0.0000 H   0  0  0  0  0  0  0  0  0  0  0  0
    8.1802   -5.9423    0.0000 C   0  0  0  0  0  0  0  0  0  0  0  0
    6.0362   -9.6542    0.0000 H   0  0  0  0  0  0  0  0  0  0  0  0
    6.7510   -8.4169    0.0000 H   0  0  0  0  0  0  0  0  0  0  0  0
 22  1  1  1  0  0  0
 17  5  1  0  0  0  0
 23  7  1  0  0  0  0
  7  6  1  0  0  0  0
 34  8  1  0  0  0  0
 34  9  1  0  0  0  0
 23 10  1  1  0  0  0
 31 13  1  1  0  0  0
 13 11  1  0  0  0  0
 13 12  2  0  0  0  0
 35 14  1  0  0  0  0
 31 14  1  0  0  0  0
 15 14  1  0  0  0  0
 28 15  1  0  0  0  0
 16 15  1  0  0  0  0
 17 16  1  0  0  0  0
 18 17  1  0  0  0  0
 27 18  1  0  0  0  0
 19 18  1  0  0  0  0
 24 19  1  0  0  0  0
 20 19  1  0  0  0  0
 21 20  1  0  0  0  0
 22 21  1  0  0  0  0
 23 22  1  0  0  0  0
 24 23  1  0  0  0  0
 25 24  1  0  0  0  0
 26 25  1  0  0  0  0
 27 26  1  0  0  0  0
 28 27  1  0  0  0  0
 29 28  2  0  0  0  0
 30 29  1  0  0  0  0
 31 30  1  0  0  0  0
 32 31  1  0  0  0  0
 33 32  1  0  0  0  0
 34 33  1  0  0  0  0
 35 34  1  0  0  0  0
  2  3  2  0  0  0  0
  2  4  1  0  0  0  0
  1  2  1  0  0  0  0
 19 36  1  1  0  0  0
 27 37  1  1  0  0  0
 14 38  1  1  0  0  0
 15 39  1  6  0  0  0
 24 40  1  6  0  0  0
 18 41  1  6  0  0  0
M  END
>  <cdx:fragmentId>
5

$$$$
