39965.cdx
  Mrv1902 05222410232D          

 21 20  0  0  0  0            999 V2000
   13.6641  -11.0819    0.0000 O   0  0  0  0  0  0  0  0  0  0  0  0
   14.3785  -10.6694    0.0000 C   0  0  0  0  0  0  0  0  0  0  0  0
   15.0930  -11.0819    0.0000 C   0  0  0  0  0  0  0  0  0  0  0  0
   15.8075  -10.6694    0.0000 C   0  0  0  0  0  0  0  0  0  0  0  0
   16.5220  -11.0819    0.0000 C   0  0  0  0  0  0  0  0  0  0  0  0
   17.2364  -10.6694    0.0000 C   0  0  0  0  0  0  0  0  0  0  0  0
   17.2364   -9.8444    0.0000 C   0  0  0  0  0  0  0  0  0  0  0  0
   17.9509  -11.0819    0.0000 C   0  0  0  0  0  0  0  0  0  0  0  0
   14.3785   -9.8444    0.0000 C   0  0  0  0  0  0  0  0  0  0  0  0
   15.0930   -9.4319    0.0000 C   0  0  0  0  0  0  0  0  0  0  0  0
   14.3785  -11.4944    0.0000 C   0  0  0  0  0  0  0  0  0  0  0  0
   12.9496  -10.6694    0.0000 C   0  0  0  0  0  0  0  0  0  0  0  0
   12.2351  -11.0819    0.0000 C   0  0  0  0  0  0  0  0  0  0  0  0
   11.5207  -10.6694    0.0000 C   0  0  0  0  0  0  0  0  0  0  0  0
   10.8062  -11.0819    0.0000 C   0  0  0  0  0  0  0  0  0  0  0  0
   10.0917  -10.6694    0.0000 C   0  0  0  0  0  0  0  0  0  0  0  0
    9.3772  -11.0819    0.0000 C   0  0  0  0  0  0  0  0  0  0  0  0
   10.0917   -9.8444    0.0000 C   0  0  0  0  0  0  0  0  0  0  0  0
   12.9496   -9.8444    0.0000 C   0  0  0  0  0  0  0  0  0  0  0  0
   12.2351   -9.4319    0.0000 C   0  0  0  0  0  0  0  0  0  0  0  0
   12.9496  -11.4944    0.0000 C   0  0  0  0  0  0  0  0  0  0  0  0
  2  3  1  0  0  0  0
  3  4  1  0  0  0  0
  4  5  1  0  0  0  0
  5  6  2  0  0  0  0
  6  7  1  0  0  0  0
  6  8  1  0  0  0  0
  2  9  1  0  0  0  0
  9 10  2  0  0  0  0
  2 11  1  0  0  0  0
  1  2  1  0  0  0  0
 12 13  1  0  0  0  0
 13 14  1  0  0  0  0
 14 15  1  0  0  0  0
 15 16  2  0  0  0  0
 16 17  1  0  0  0  0
 16 18  1  0  0  0  0
 12 19  1  0  0  0  0
 19 20  2  0  0  0  0
 12 21  1  0  0  0  0
  1 12  1  0  0  0  0
M  END
>  <cdx:fragmentId>
11

$$$$
