39960.cdx
  Mrv1902 05222410262D          

 41 44  0  0  0  0            999 V2000
   16.2026   -4.9850    0.0000 C   0  0  0  0  0  0  0  0  0  0  0  0
   16.7860   -5.5683    0.0000 C   0  0  0  0  0  0  0  0  0  0  0  0
   16.5311   -6.3529    0.0000 C   0  0  0  0  0  0  0  0  0  0  0  0
   15.7241   -6.5245    0.0000 C   0  0  0  0  0  0  0  0  0  0  0  0
   15.4691   -7.3091    0.0000 C   0  0  0  0  0  0  0  0  0  0  0  0
   14.6622   -7.4806    0.0000 C   0  0  0  0  0  0  0  0  0  0  0  0
   14.1101   -6.8675    0.0000 C   0  0  0  0  0  0  0  0  0  0  0  0
   16.4162   -4.1881    0.0000 O   0  0  0  0  0  0  0  0  0  0  0  0
   15.4057   -5.1985    0.0000 O   0  0  0  0  0  0  0  0  0  0  0  0
   17.5930   -5.3968    0.0000 C   0  0  0  0  0  0  0  0  0  0  0  0
   10.7647   -9.3452    0.0000 C   0  0  0  0  0  0  0  0  0  0  0  0
   10.0503   -9.7577    0.0000 C   0  0  0  0  0  0  0  0  0  0  0  0
   10.0503  -10.5827    0.0000 C   0  0  0  0  0  0  0  0  0  0  0  0
   10.7647  -10.9952    0.0000 C   0  0  0  0  0  0  0  0  0  0  0  0
   11.4792  -10.5827    0.0000 C   0  0  0  0  0  0  0  0  0  0  0  0
   12.1937  -10.9952    0.0000 C   0  0  0  0  0  0  0  0  0  0  0  0
   12.9081  -10.5827    0.0000 C   0  0  0  0  0  0  0  0  0  0  0  0
   12.9081   -9.7577    0.0000 C   0  0  0  0  0  0  0  0  0  0  0  0
   13.6226   -9.3452    0.0000 C   0  0  0  0  0  0  0  0  0  0  0  0
   14.4072   -9.6001    0.0000 C   0  0  0  0  0  0  0  0  0  0  0  0
   14.8922   -8.9327    0.0000 C   0  0  0  0  0  0  0  0  0  0  0  0
   14.4072   -8.2652    0.0000 C   0  0  0  0  0  0  0  0  0  0  0  0
   13.6226   -8.5202    0.0000 C   0  0  0  0  0  0  0  0  0  0  0  0
   12.9081   -8.1077    0.0000 C   0  0  0  0  0  0  0  0  0  0  0  0
   12.1937   -8.5202    0.0000 C   0  0  0  0  0  0  0  0  0  0  0  0
   12.1937   -9.3452    0.0000 C   0  0  0  0  0  0  0  0  0  0  0  0
   11.4792   -9.7577    0.0000 C   0  0  0  0  0  0  0  0  0  0  0  0
   13.7089  -10.1657    0.0000 C   0  0  0  0  0  0  0  0  0  0  0  0
   13.7089   -7.6997    0.0000 C   0  0  0  0  0  0  0  0  0  0  0  0
   11.4792   -8.9327    0.0000 C   0  0  0  0  0  0  0  0  0  0  0  0
   11.1772  -11.7097    0.0000 C   0  0  0  0  0  0  0  0  0  0  0  0
   10.3522  -11.7097    0.0000 C   0  0  0  0  0  0  0  0  0  0  0  0
   14.6622  -10.3847    0.0000 O   0  0  0  0  0  0  0  0  0  0  0  0
   13.6226  -10.9952    0.0000 O   0  0  0  0  0  0  0  0  0  0  0  0
   13.6226  -11.8202    0.0000 C   0  0  0  0  0  0  0  0  0  0  0  0
   12.9081  -12.2327    0.0000 O   0  0  0  0  0  0  0  0  0  0  0  0
   14.3371  -12.2327    0.0000 C   0  0  0  0  0  0  0  0  0  0  0  0
    9.3358  -10.9952    0.0000 O   0  0  0  0  0  0  0  0  0  0  0  0
    8.6213  -10.5827    0.0000 C   0  0  0  0  0  0  0  0  0  0  0  0
    8.6213   -9.7577    0.0000 O   0  0  0  0  0  0  0  0  0  0  0  0
    7.9069  -10.9952    0.0000 C   0  0  0  0  0  0  0  0  0  0  0  0
  1  2  1  0  0  0  0
  2  3  2  0  0  0  0
  3  4  1  0  0  0  0
  4  5  1  0  0  0  0
  5  6  1  0  0  0  0
  6  7  1  0  0  0  0
  1  8  2  0  0  0  0
  1  9  1  0  0  0  0
  2 10  1  0  0  0  0
 11 12  1  0  0  0  0
 12 13  1  0  0  0  0
 13 14  1  0  0  0  0
 14 15  1  0  0  0  0
 15 16  1  0  0  0  0
 16 17  1  0  0  0  0
 17 18  1  0  0  0  0
 18 19  1  0  0  0  0
 19 20  1  0  0  0  0
 20 21  1  0  0  0  0
 21 22  1  0  0  0  0
 22 23  1  0  0  0  0
 19 23  1  0  0  0  0
 23 24  1  0  0  0  0
 24 25  1  0  0  0  0
 25 26  1  0  0  0  0
 18 26  2  0  0  0  0
 26 27  1  0  0  0  0
 15 27  1  0  0  0  0
 11 27  1  0  0  0  0
 19 28  1  0  0  0  0
 23 29  1  0  0  0  0
 27 30  1  0  0  0  0
 14 31  1  0  0  0  0
 14 32  1  0  0  0  0
 20 33  1  0  0  0  0
 35 36  2  0  0  0  0
 35 37  1  0  0  0  0
 34 35  1  0  0  0  0
 17 34  1  0  0  0  0
 39 40  2  0  0  0  0
 39 41  1  0  0  0  0
 38 39  1  0  0  0  0
 13 38  1  0  0  0  0
  6 22  1  0  0  0  0
M  END
>  <cdx:fragmentId>
30

$$$$
