39961.cdx
  Mrv1902 05222410252D          

 57 62  0  0  0  0            999 V2000
    6.6949   -6.5701    0.0000 C   0  0  0  0  0  0  0  0  0  0  0  0
    5.9804   -6.9826    0.0000 C   0  0  0  0  0  0  0  0  0  0  0  0
    5.2659   -6.5701    0.0000 C   0  0  0  0  0  0  0  0  0  0  0  0
    4.5514   -6.9826    0.0000 C   0  0  0  0  0  0  0  0  0  0  0  0
    3.8370   -6.5701    0.0000 O   0  0  0  0  0  0  0  0  0  0  0  0
    3.1225   -6.9826    0.0000 C   0  0  0  0  0  0  0  0  0  0  0  0
    4.5514   -7.8076    0.0000 C   0  0  0  0  0  0  0  0  0  0  0  0
    5.2659   -8.2201    0.0000 C   0  0  0  0  0  0  0  0  0  0  0  0
    5.9804   -7.8076    0.0000 C   0  0  0  0  0  0  0  0  0  0  0  0
    6.6949   -8.2201    0.0000 N   0  0  0  0  0  0  0  0  0  0  0  0
    7.4093   -7.8076    0.0000 C   0  0  0  0  0  0  0  0  0  0  0  0
    7.4093   -6.9826    0.0000 C   0  0  0  0  0  0  0  0  0  0  0  0
    7.4093   -5.3326    0.0000 C   0  0  2  0  0  0  0  0  0  0  0  0
    6.6949   -5.7451    0.0000 C   0  0  2  0  0  0  0  0  0  0  0  0
    5.9804   -5.3326    0.0000 O   0  0  0  0  0  0  0  0  0  0  0  0
    8.3875   -5.8300    0.0000 C   0  0  0  0  0  0  0  0  0  0  0  0
    7.5900   -4.2075    0.0000 N   0  0  0  0  0  0  0  0  0  0  0  0
    8.1238   -4.9201    0.0000 H   0  0  0  0  0  0  0  0  0  0  0  0
    6.8475   -3.0800    0.0000 C   0  0  0  0  0  0  0  0  0  0  0  0
    7.8100   -2.4750    0.0000 C   0  0  0  0  0  0  0  0  0  0  0  0
    8.7175   -3.9050    0.0000 C   0  0  2  0  0  0  0  0  0  0  0  0
    9.9275   -4.3725    0.0000 C   0  0  1  0  0  0  0  0  0  0  0  0
   10.7244   -4.1590    0.0000 C   0  0  0  0  0  0  0  0  0  0  0  0
    9.8175   -5.2525    0.0000 C   0  0  0  0  0  0  0  0  0  0  0  0
    9.3009   -3.3216    0.0000 H   0  0  0  0  0  0  0  0  0  0  0  0
   11.3078   -4.7423    0.0000 C   0  0  0  0  0  0  0  0  0  0  0  0
    3.1743  -10.4476    0.0000 S   0  0  0  0  0  0  0  0  0  0  0  0
    3.1743  -11.2726    0.0000 O   0  0  0  0  0  0  0  0  0  0  0  0
    3.1743   -9.6226    0.0000 O   0  0  0  0  0  0  0  0  0  0  0  0
    2.3493  -10.4476    0.0000 O   0  0  0  0  0  0  0  0  0  0  0  0
    3.9993  -10.4476    0.0000 O   0  0  0  0  0  0  0  0  0  0  0  0
    8.6474  -10.9976    0.0000 C   0  0  0  0  0  0  0  0  0  0  0  0
    7.9329  -11.4101    0.0000 C   0  0  0  0  0  0  0  0  0  0  0  0
    7.2184  -10.9976    0.0000 C   0  0  0  0  0  0  0  0  0  0  0  0
    6.5039  -11.4101    0.0000 C   0  0  0  0  0  0  0  0  0  0  0  0
    5.7895  -10.9976    0.0000 O   0  0  0  0  0  0  0  0  0  0  0  0
    5.0750  -11.4101    0.0000 C   0  0  0  0  0  0  0  0  0  0  0  0
    6.5039  -12.2351    0.0000 C   0  0  0  0  0  0  0  0  0  0  0  0
    7.2184  -12.6476    0.0000 C   0  0  0  0  0  0  0  0  0  0  0  0
    7.9329  -12.2351    0.0000 C   0  0  0  0  0  0  0  0  0  0  0  0
    8.6474  -12.6476    0.0000 N   0  0  0  0  0  0  0  0  0  0  0  0
    9.3618  -12.2351    0.0000 C   0  0  0  0  0  0  0  0  0  0  0  0
    9.3618  -11.4101    0.0000 C   0  0  0  0  0  0  0  0  0  0  0  0
    9.3618   -9.7601    0.0000 C   0  0  2  0  0  0  0  0  0  0  0  0
    8.6474  -10.1726    0.0000 C   0  0  2  0  0  0  0  0  0  0  0  0
    7.9329   -9.7601    0.0000 O   0  0  0  0  0  0  0  0  0  0  0  0
   10.3400  -10.2575    0.0000 C   0  0  0  0  0  0  0  0  0  0  0  0
    9.5425   -8.6350    0.0000 N   0  0  0  0  0  0  0  0  0  0  0  0
   10.0763   -9.3476    0.0000 H   0  0  0  0  0  0  0  0  0  0  0  0
    8.8000   -7.5075    0.0000 C   0  0  0  0  0  0  0  0  0  0  0  0
    9.7625   -6.9025    0.0000 C   0  0  0  0  0  0  0  0  0  0  0  0
   10.6700   -8.3325    0.0000 C   0  0  2  0  0  0  0  0  0  0  0  0
   11.8800   -8.8000    0.0000 C   0  0  1  0  0  0  0  0  0  0  0  0
   12.6769   -8.5865    0.0000 C   0  0  0  0  0  0  0  0  0  0  0  0
   11.7700   -9.6800    0.0000 C   0  0  0  0  0  0  0  0  0  0  0  0
   11.2534   -7.7491    0.0000 H   0  0  0  0  0  0  0  0  0  0  0  0
   13.2603   -9.1698    0.0000 C   0  0  0  0  0  0  0  0  0  0  0  0
 14 13  1  0  0  0  0
 14 15  1  1  0  0  0
 14  1  1  0  0  0  0
  1  2  1  0  0  0  0
  2  3  2  0  0  0  0
  3  4  1  0  0  0  0
  4  5  1  0  0  0  0
  5  6  1  0  0  0  0
  4  7  2  0  0  0  0
  7  8  1  0  0  0  0
  2  9  1  0  0  0  0
  8  9  2  0  0  0  0
  9 10  1  0  0  0  0
 10 11  2  0  0  0  0
 11 12  1  0  0  0  0
  1 12  2  0  0  0  0
 13 16  1  0  0  0  0
 13 17  1  0  0  0  0
 13 18  1  6  0  0  0
 17 19  1  0  0  0  0
 19 20  1  0  0  0  0
 20 21  1  0  0  0  0
 21 16  1  0  0  0  0
 21 22  1  0  0  0  0
 22 23  1  1  0  0  0
 22 24  1  0  0  0  0
 17 24  1  0  0  0  0
 21 25  1  1  0  0  0
 23 26  2  0  0  0  0
 27 28  2  0  0  0  0
 27 29  2  0  0  0  0
 27 30  1  0  0  0  0
 27 31  1  0  0  0  0
 45 44  1  0  0  0  0
 45 46  1  1  0  0  0
 45 32  1  0  0  0  0
 32 33  1  0  0  0  0
 33 34  2  0  0  0  0
 34 35  1  0  0  0  0
 35 36  1  0  0  0  0
 36 37  1  0  0  0  0
 35 38  2  0  0  0  0
 38 39  1  0  0  0  0
 33 40  1  0  0  0  0
 39 40  2  0  0  0  0
 40 41  1  0  0  0  0
 41 42  2  0  0  0  0
 42 43  1  0  0  0  0
 32 43  2  0  0  0  0
 44 47  1  0  0  0  0
 44 48  1  0  0  0  0
 44 49  1  6  0  0  0
 48 50  1  0  0  0  0
 50 51  1  0  0  0  0
 51 52  1  0  0  0  0
 52 47  1  0  0  0  0
 52 53  1  0  0  0  0
 53 54  1  1  0  0  0
 53 55  1  0  0  0  0
 48 55  1  0  0  0  0
 52 56  1  1  0  0  0
 54 57  2  0  0  0  0
M  END
>  <cdx:groupId>
96

>  <cdx:fragmentId>
15234

$$$$
