39970.cdx
  Mrv1902 05222410232D          

 18 18  0  0  0  0            999 V2000
   13.3355   -7.7979    0.0000 C   0  0  0  0  0  0  0  0  0  0  0  0
   12.6210   -8.2104    0.0000 C   0  0  0  0  0  0  0  0  0  0  0  0
   11.9065   -7.7979    0.0000 C   0  0  0  0  0  0  0  0  0  0  0  0
   11.1921   -8.2104    0.0000 C   0  0  0  0  0  0  0  0  0  0  0  0
   11.1921   -9.0354    0.0000 C   0  0  0  0  0  0  0  0  0  0  0  0
   11.9065   -9.4479    0.0000 C   0  0  0  0  0  0  0  0  0  0  0  0
   12.6210   -9.0354    0.0000 C   0  0  0  0  0  0  0  0  0  0  0  0
   13.3355   -6.9729    0.0000 O   0  0  0  0  0  0  0  0  0  0  0  0
   14.0499   -8.2104    0.0000 O   0  0  0  0  0  0  0  0  0  0  0  0
   13.3355   -9.4479    0.0000 C   0  0  0  0  0  0  0  0  0  0  0  0
   10.4776   -7.7979    0.0000 C   0  0  0  0  0  0  0  0  0  0  0  0
   10.4776   -9.4479    0.0000 O   0  0  0  0  0  0  0  0  0  0  0  0
   11.9065   -6.9729    0.0000 O   0  0  0  0  0  0  0  0  0  0  0  0
   14.7644   -7.7979    0.0000 C   0  0  0  0  0  0  0  0  0  0  0  0
   15.4789   -8.2104    0.0000 C   0  0  0  0  0  0  0  0  0  0  0  0
   16.1934   -7.7979    0.0000 C   0  0  0  0  0  0  0  0  0  0  0  0
   16.9078   -8.2104    0.0000 O   0  0  0  0  0  0  0  0  0  0  0  0
   15.4789   -9.0354    0.0000 O   0  0  0  0  0  0  0  0  0  0  0  0
  1  2  1  0  0  0  0
  2  3  1  0  0  0  0
  3  4  2  0  0  0  0
  4  5  1  0  0  0  0
  5  6  2  0  0  0  0
  6  7  1  0  0  0  0
  2  7  2  0  0  0  0
  1  8  2  0  0  0  0
  1  9  1  0  0  0  0
  7 10  1  0  0  0  0
  4 11  1  0  0  0  0
  5 12  1  0  0  0  0
  3 13  1  0  0  0  0
 14 15  1  0  0  0  0
 15 16  1  0  0  0  0
 16 17  1  0  0  0  0
 15 18  1  0  0  0  0
  9 14  1  0  0  0  0
M  END
>  <cdx:fragmentId>
11

$$$$
