39978.cdx
  Mrv1902 05222410212D          

 26 28  0  0  0  0            999 V2000
    2.4644   -9.2104    0.0000 C   0  0  0  0  0  0  0  0  0  0  0  0
    3.1846   -9.6128    0.0000 C   0  0  0  0  0  0  0  0  0  0  0  0
    3.8932   -9.1902    0.0000 C   0  0  0  0  0  0  0  0  0  0  0  0
    3.8815   -8.3653    0.0000 C   0  0  0  0  0  0  0  0  0  0  0  0
    3.1613   -7.9629    0.0000 C   0  0  0  0  0  0  0  0  0  0  0  0
    2.4527   -8.3855    0.0000 C   0  0  0  0  0  0  0  0  0  0  0  0
    4.6813   -9.4340    0.0000 N   0  0  0  0  0  0  0  0  0  0  0  0
    5.1568   -8.7598    0.0000 C   0  0  0  0  0  0  0  0  0  0  0  0
    4.6624   -8.0993    0.0000 C   0  0  0  0  0  0  0  0  0  0  0  0
    4.9063   -7.3111    0.0000 C   0  0  0  0  0  0  0  0  0  0  0  0
    5.7107   -7.1282    0.0000 C   0  0  0  0  0  0  0  0  0  0  0  0
    5.9545   -6.3400    0.0000 C   0  0  0  0  0  0  0  0  0  0  0  0
    6.2714   -7.7334    0.0000 N   0  0  0  0  0  0  0  0  0  0  0  0
    6.7590   -6.1571    0.0000 O   0  0  0  0  0  0  0  0  0  0  0  0
    5.3939   -5.7348    0.0000 O   0  0  0  0  0  0  0  0  0  0  0  0
    7.0758   -7.5505    0.0000 C   0  0  0  0  0  0  0  0  0  0  0  0
    7.6365   -8.1557    0.0000 C   0  0  2  0  0  0  0  0  0  0  0  0
    7.8621   -8.9492    0.0000 C   0  0  2  0  0  0  0  0  0  0  0  0
    8.6865   -8.9799    0.0000 C   0  0  1  0  0  0  0  0  0  0  0  0
    8.9704   -8.2053    0.0000 C   0  0  2  0  0  0  0  0  0  0  0  0
    8.3215   -7.6959    0.0000 O   0  0  0  0  0  0  0  0  0  0  0  0
    9.1463   -9.6649    0.0000 O   0  0  0  0  0  0  0  0  0  0  0  0
    6.8427   -8.3805    0.0000 O   0  0  0  0  0  0  0  0  0  0  0  0
    7.3527   -9.5982    0.0000 O   0  0  0  0  0  0  0  0  0  0  0  0
    9.7640   -7.9797    0.0000 C   0  0  0  0  0  0  0  0  0  0  0  0
   10.3561   -8.5541    0.0000 O   0  0  0  0  0  0  0  0  0  0  0  0
  1  2  2  0  0  0  0
  2  3  1  0  0  0  0
  3  4  2  0  0  0  0
  4  5  1  0  0  0  0
  5  6  2  0  0  0  0
  6  1  1  0  0  0  0
  3  7  1  0  0  0  0
  7  8  1  0  0  0  0
  8  9  2  0  0  0  0
  9  4  1  0  0  0  0
  9 10  1  0  0  0  0
 10 11  1  0  0  0  0
 11 12  1  0  0  0  0
 11 13  1  0  0  0  0
 12 14  2  0  0  0  0
 12 15  1  0  0  0  0
 13 16  1  0  0  0  0
 17 16  1  1  0  0  0
 17 18  1  0  0  0  0
 18 19  1  0  0  0  0
 19 20  1  0  0  0  0
 20 21  1  0  0  0  0
 21 17  1  0  0  0  0
 19 22  1  1  0  0  0
 17 23  1  6  0  0  0
 18 24  1  6  0  0  0
 20 25  1  6  0  0  0
 25 26  1  0  0  0  0
M  END
>  <cdx:fragmentId>
5

$$$$
