39975.cdx
  Mrv1902 05222410252D          

 15 15  0  0  0  0            999 V2000
   12.2681   -7.9025    0.0000 C   0  0  0  0  0  0  0  0  0  0  0  0
   11.5536   -8.3150    0.0000 C   0  0  0  0  0  0  0  0  0  0  0  0
   11.5536   -9.1400    0.0000 C   0  0  0  0  0  0  0  0  0  0  0  0
   10.8391   -9.5525    0.0000 C   0  0  0  0  0  0  0  0  0  0  0  0
   10.1247   -9.1400    0.0000 C   0  0  0  0  0  0  0  0  0  0  0  0
   10.1247   -8.3150    0.0000 C   0  0  0  0  0  0  0  0  0  0  0  0
   10.8391   -7.9025    0.0000 C   0  0  0  0  0  0  0  0  0  0  0  0
   12.2681   -7.0775    0.0000 O   0  0  0  0  0  0  0  0  0  0  0  0
   12.9825   -8.3150    0.0000 O   0  0  0  0  0  0  0  0  0  0  0  0
   13.6970   -7.9025    0.0000 C   0  0  0  0  0  0  0  0  0  0  0  0
   14.4115   -8.3150    0.0000 C   0  0  0  0  0  0  0  0  0  0  0  0
   15.1260   -7.9025    0.0000 C   0  0  0  0  0  0  0  0  0  0  0  0
   15.8404   -8.3150    0.0000 C   0  0  0  0  0  0  0  0  0  0  0  0
   16.5549   -7.9025    0.0000 C   0  0  0  0  0  0  0  0  0  0  0  0
   17.2694   -8.3150    0.0000 C   0  0  0  0  0  0  0  0  0  0  0  0
  1  2  1  0  0  0  0
  2  3  1  0  0  0  0
  3  4  2  0  0  0  0
  4  5  1  0  0  0  0
  5  6  2  0  0  0  0
  6  7  1  0  0  0  0
  2  7  2  0  0  0  0
  1  8  2  0  0  0  0
  1  9  1  0  0  0  0
 10 11  2  0  0  0  0
 11 12  1  0  0  0  0
 12 13  1  0  0  0  0
 13 14  1  0  0  0  0
 14 15  1  0  0  0  0
  9 10  1  0  0  0  0
M  END
>  <cdx:fragmentId>
9

$$$$
