18399719.cdx
  Mrv1902 05222410212D          

 13 14  0  0  0  0            999 V2000
    5.7062  -15.3029    0.0000 C   0  0  0  0  0  0  0  0  0  0  0  0
    6.4207  -15.7154    0.0000 C   0  0  0  0  0  0  0  0  0  0  0  0
    5.7062  -14.4779    0.0000 O   0  0  0  0  0  0  0  0  0  0  0  0
    4.9917  -15.7154    0.0000 O   0  0  0  0  0  0  0  0  0  0  0  0
    9.3487  -14.2229    0.0000 N   0  0  0  0  0  0  0  0  0  0  0  0
    9.8336  -14.8904    0.0000 C   0  0  0  0  0  0  0  0  0  0  0  0
    9.3487  -15.5578    0.0000 C   0  0  0  0  0  0  0  0  0  0  0  0
    8.5641  -15.3029    0.0000 C   0  0  0  0  0  0  0  0  0  0  0  0
    7.8496  -15.7154    0.0000 C   0  0  0  0  0  0  0  0  0  0  0  0
    7.1351  -15.3029    0.0000 C   0  0  0  0  0  0  0  0  0  0  0  0
    7.1351  -14.4779    0.0000 C   0  0  0  0  0  0  0  0  0  0  0  0
    7.8496  -14.0654    0.0000 C   0  0  0  0  0  0  0  0  0  0  0  0
    8.5641  -14.4779    0.0000 C   0  0  0  0  0  0  0  0  0  0  0  0
  1  2  1  0  0  0  0
  1  3  2  0  0  0  0
  1  4  1  0  0  0  0
  5  6  1  0  0  0  0
  6  7  2  0  0  0  0
  7  8  1  0  0  0  0
  8  9  1  0  0  0  0
  9 10  2  0  0  0  0
 10 11  1  0  0  0  0
 11 12  2  0  0  0  0
 12 13  1  0  0  0  0
  5 13  1  0  0  0  0
  8 13  2  0  0  0  0
  2 10  1  0  0  0  0
M  END
>  <cdx:groupId>
124359

>  <cdx:fragmentId>
124330

$$$$
