39982.cdx
  Mrv1902 05222410232D          

 33 36  0  0  0  0            999 V2000
    6.3318   -8.7397    0.0000 C   0  0  0  0  0  0  0  0  0  0  0  0
    6.3318   -9.5647    0.0000 C   0  0  0  0  0  0  0  0  0  0  0  0
    5.6174   -9.9772    0.0000 C   0  0  0  0  0  0  0  0  0  0  0  0
    5.6174  -10.8022    0.0000 O   0  0  0  0  0  0  0  0  0  0  0  0
    4.9029   -9.5647    0.0000 C   0  0  0  0  0  0  0  0  0  0  0  0
    4.1884   -9.9772    0.0000 C   0  0  0  0  0  0  0  0  0  0  0  0
    4.1884  -10.8022    0.0000 O   0  0  0  0  0  0  0  0  0  0  0  0
    3.4740   -9.5647    0.0000 C   0  0  0  0  0  0  0  0  0  0  0  0
    3.4740   -8.7397    0.0000 C   0  0  0  0  0  0  0  0  0  0  0  0
    2.7595   -8.3272    0.0000 O   0  0  0  0  0  0  0  0  0  0  0  0
    4.1884   -8.3272    0.0000 C   0  0  0  0  0  0  0  0  0  0  0  0
    4.9029   -8.7397    0.0000 C   0  0  0  0  0  0  0  0  0  0  0  0
    5.6174   -8.3272    0.0000 O   0  0  0  0  0  0  0  0  0  0  0  0
    7.0463   -8.3272    0.0000 C   0  0  0  0  0  0  0  0  0  0  0  0
    7.7608   -8.7397    0.0000 C   0  0  0  0  0  0  0  0  0  0  0  0
    8.4753   -8.3272    0.0000 C   0  0  0  0  0  0  0  0  0  0  0  0
    9.1897   -8.7397    0.0000 O   0  0  0  0  0  0  0  0  0  0  0  0
    8.4753   -7.5022    0.0000 C   0  0  0  0  0  0  0  0  0  0  0  0
    7.7608   -7.0897    0.0000 C   0  0  0  0  0  0  0  0  0  0  0  0
    7.0463   -7.5022    0.0000 C   0  0  0  0  0  0  0  0  0  0  0  0
    2.0450   -8.7397    0.0000 C   0  0  0  0  0  0  0  0  0  0  0  0
    9.1897   -7.0897    0.0000 O   0  0  0  0  0  0  0  0  0  0  0  0
    9.9042   -7.5022    0.0000 C   0  0  1  0  0  0  0  0  0  0  0  0
   10.6187   -7.0897    0.0000 C   0  0  2  0  0  0  0  0  0  0  0  0
   10.6187   -6.2647    0.0000 O   0  0  0  0  0  0  0  0  0  0  0  0
   11.3331   -7.5022    0.0000 C   0  0  1  0  0  0  0  0  0  0  0  0
   12.0476   -7.0897    0.0000 O   0  0  0  0  0  0  0  0  0  0  0  0
   11.3331   -8.3272    0.0000 C   0  0  2  0  0  0  0  0  0  0  0  0
   12.0476   -8.7397    0.0000 O   0  0  0  0  0  0  0  0  0  0  0  0
   10.6187   -8.7397    0.0000 C   0  0  2  0  0  0  0  0  0  0  0  0
    9.9042   -8.3272    0.0000 O   0  0  0  0  0  0  0  0  0  0  0  0
   10.6187   -9.5647    0.0000 C   0  0  0  0  0  0  0  0  0  0  0  0
   11.3331   -9.9772    0.0000 O   0  0  0  0  0  0  0  0  0  0  0  0
  1  2  2  0  0  0  0
  2  3  1  0  0  0  0
  3  4  2  0  0  0  0
  3  5  1  0  0  0  0
  5  6  1  0  0  0  0
  6  7  1  0  0  0  0
  6  8  2  0  0  0  0
  8  9  1  0  0  0  0
  9 10  1  0  0  0  0
  9 11  2  0  0  0  0
 11 12  1  0  0  0  0
  5 12  2  0  0  0  0
 12 13  1  0  0  0  0
  1 13  1  0  0  0  0
  1 14  1  0  0  0  0
 14 15  1  0  0  0  0
 15 16  2  0  0  0  0
 16 17  1  0  0  0  0
 16 18  1  0  0  0  0
 18 19  2  0  0  0  0
 19 20  1  0  0  0  0
 14 20  2  0  0  0  0
 10 21  1  0  0  0  0
 23 22  1  1  0  0  0
 23 24  1  0  0  0  0
 24 25  1  6  0  0  0
 24 26  1  0  0  0  0
 26 27  1  1  0  0  0
 26 28  1  0  0  0  0
 28 29  1  6  0  0  0
 28 30  1  0  0  0  0
 30 31  1  0  0  0  0
 30 32  1  1  0  0  0
 32 33  1  0  0  0  0
 23 31  1  0  0  0  0
 18 22  1  0  0  0  0
M  END
>  <cdx:fragmentId>
5

$$$$
