39983.cdx
  Mrv1902 05222410222D          

 25 27  0  0  0  0            999 V2000
   13.8781  -11.8427    0.0000 C   0  0  0  0  0  0  0  0  0  0  0  0
   13.8781  -12.6677    0.0000 C   0  0  0  0  0  0  0  0  0  0  0  0
   13.1636  -13.0802    0.0000 C   0  0  0  0  0  0  0  0  0  0  0  0
   13.1636  -13.9052    0.0000 O   0  0  0  0  0  0  0  0  0  0  0  0
   12.4491  -12.6677    0.0000 C   0  0  0  0  0  0  0  0  0  0  0  0
   11.7347  -13.0802    0.0000 C   0  0  0  0  0  0  0  0  0  0  0  0
   11.0202  -12.6677    0.0000 C   0  0  0  0  0  0  0  0  0  0  0  0
   11.0202  -11.8427    0.0000 C   0  0  0  0  0  0  0  0  0  0  0  0
   11.7347  -11.4302    0.0000 C   0  0  0  0  0  0  0  0  0  0  0  0
   12.4491  -11.8427    0.0000 C   0  0  0  0  0  0  0  0  0  0  0  0
   13.1636  -11.4302    0.0000 O   0  0  0  0  0  0  0  0  0  0  0  0
   14.5925  -11.4302    0.0000 C   0  0  0  0  0  0  0  0  0  0  0  0
   15.3070  -11.8427    0.0000 C   0  0  0  0  0  0  0  0  0  0  0  0
   16.0215  -11.4302    0.0000 C   0  0  0  0  0  0  0  0  0  0  0  0
   16.0215  -10.6052    0.0000 C   0  0  0  0  0  0  0  0  0  0  0  0
   15.3070  -10.1927    0.0000 C   0  0  0  0  0  0  0  0  0  0  0  0
   14.5925  -10.6052    0.0000 C   0  0  0  0  0  0  0  0  0  0  0  0
   10.3057  -11.4302    0.0000 O   0  0  0  0  0  0  0  0  0  0  0  0
    9.5912  -11.8427    0.0000 C   0  0  0  0  0  0  0  0  0  0  0  0
   16.7360  -10.1927    0.0000 O   0  0  0  0  0  0  0  0  0  0  0  0
   17.4504  -10.6052    0.0000 C   0  0  0  0  0  0  0  0  0  0  0  0
   16.7360  -11.8427    0.0000 O   0  0  0  0  0  0  0  0  0  0  0  0
   17.4504  -11.4302    0.0000 C   0  0  0  0  0  0  0  0  0  0  0  0
   14.5925  -13.0802    0.0000 O   0  0  0  0  0  0  0  0  0  0  0  0
   15.3070  -12.6677    0.0000 C   0  0  0  0  0  0  0  0  0  0  0  0
  1  2  2  0  0  0  0
  2  3  1  0  0  0  0
  3  4  2  0  0  0  0
  3  5  1  0  0  0  0
  5  6  1  0  0  0  0
  6  7  2  0  0  0  0
  7  8  1  0  0  0  0
  8  9  2  0  0  0  0
  9 10  1  0  0  0  0
  5 10  2  0  0  0  0
 10 11  1  0  0  0  0
  1 11  1  0  0  0  0
  1 12  1  0  0  0  0
 12 13  1  0  0  0  0
 13 14  2  0  0  0  0
 14 15  1  0  0  0  0
 15 16  2  0  0  0  0
 16 17  1  0  0  0  0
 12 17  2  0  0  0  0
 18 19  1  0  0  0  0
  8 18  1  0  0  0  0
 20 21  1  0  0  0  0
 15 20  1  0  0  0  0
 22 23  1  0  0  0  0
 14 22  1  0  0  0  0
 24 25  1  0  0  0  0
  2 24  1  0  0  0  0
M  END
>  <cdx:fragmentId>
9

$$$$
