39981.cdx
  Mrv1902 05222410222D          

 25 26  0  0  0  0            999 V2000
   17.2364  -11.8955    0.0000 C   0  0  0  0  0  0  0  0  0  0  0  0
   16.5220  -11.4830    0.0000 C   0  0  0  0  0  0  0  0  0  0  0  0
   15.8075  -11.8955    0.0000 C   0  0  0  0  0  0  0  0  0  0  0  0
   15.0930  -11.4830    0.0000 C   0  0  0  0  0  0  0  0  0  0  0  0
   15.0930  -10.6580    0.0000 C   0  0  0  0  0  0  0  0  0  0  0  0
   14.3785  -10.2455    0.0000 C   0  0  0  0  0  0  0  0  0  0  0  0
   14.3785   -9.4205    0.0000 O   0  0  0  0  0  0  0  0  0  0  0  0
   15.0930   -9.0080    0.0000 C   0  0  0  0  0  0  0  0  0  0  0  0
   13.6641  -10.6580    0.0000 C   0  0  0  0  0  0  0  0  0  0  0  0
   13.6641  -11.4830    0.0000 C   0  0  0  0  0  0  0  0  0  0  0  0
   14.3785  -11.8955    0.0000 C   0  0  0  0  0  0  0  0  0  0  0  0
   17.2364  -12.7205    0.0000 O   0  0  0  0  0  0  0  0  0  0  0  0
   17.9509  -11.4830    0.0000 O   0  0  0  0  0  0  0  0  0  0  0  0
   12.9496  -10.2455    0.0000 O   0  0  0  0  0  0  0  0  0  0  0  0
   12.2351  -10.6580    0.0000 C   0  0  0  0  0  0  0  0  0  0  0  0
   12.2351  -11.4830    0.0000 C   0  0  0  0  0  0  0  0  0  0  0  0
   12.9496  -11.8955    0.0000 O   0  0  0  0  0  0  0  0  0  0  0  0
   11.5207  -11.8955    0.0000 C   0  0  0  0  0  0  0  0  0  0  0  0
   11.5207  -12.7205    0.0000 O   0  0  0  0  0  0  0  0  0  0  0  0
   10.8062  -11.4830    0.0000 C   0  0  0  0  0  0  0  0  0  0  0  0
   10.0917  -11.8955    0.0000 O   0  0  0  0  0  0  0  0  0  0  0  0
   10.8062  -10.6580    0.0000 C   0  0  0  0  0  0  0  0  0  0  0  0
   11.5207  -10.2455    0.0000 O   0  0  0  0  0  0  0  0  0  0  0  0
   10.0917  -10.2455    0.0000 C   0  0  0  0  0  0  0  0  0  0  0  0
    9.3772  -10.6580    0.0000 O   0  0  0  0  0  0  0  0  0  0  0  0
  1  2  1  0  0  0  0
  2  3  1  0  0  0  0
  3  4  1  0  0  0  0
  4  5  1  0  0  0  0
  5  6  2  0  0  0  0
  6  7  1  0  0  0  0
  7  8  1  0  0  0  0
  6  9  1  0  0  0  0
  9 10  2  0  0  0  0
 10 11  1  0  0  0  0
  4 11  2  0  0  0  0
  1 12  2  0  0  0  0
  1 13  1  0  0  0  0
 14 15  1  0  0  0  0
 16 17  1  0  0  0  0
 16 15  1  0  0  0  0
 18 19  1  0  0  0  0
 18 16  1  0  0  0  0
 20 21  1  0  0  0  0
 20 18  1  0  0  0  0
 22 23  1  0  0  0  0
 22 20  1  0  0  0  0
 24 25  1  0  0  0  0
 24 22  1  0  0  0  0
 15 23  1  0  0  0  0
  9 14  1  0  0  0  0
M  END
>  <cdx:fragmentId>
12

$$$$
