39988.cdx
  Mrv1902 05222410252D          

 13 15  0  0  0  0            999 V2000
    8.1009   -5.9580    0.0000 N   0  0  0  0  0  0  0  0  0  0  0  0
    8.7680   -6.4433    0.0000 C   0  0  0  0  0  0  0  0  0  0  0  0
    9.5751   -6.2722    0.0000 C   0  0  0  0  0  0  0  0  0  0  0  0
   10.1268   -6.8856    0.0000 N   0  0  0  0  0  0  0  0  0  0  0  0
    9.8714   -7.6700    0.0000 C   0  0  0  0  0  0  0  0  0  0  0  0
    9.0644   -7.8411    0.0000 C   0  0  0  0  0  0  0  0  0  0  0  0
    8.5127   -7.2277    0.0000 C   0  0  0  0  0  0  0  0  0  0  0  0
    7.6877   -7.2273    0.0000 C   0  0  0  0  0  0  0  0  0  0  0  0
    7.1353   -7.8401    0.0000 C   0  0  0  0  0  0  0  0  0  0  0  0
    6.3284   -7.6681    0.0000 C   0  0  0  0  0  0  0  0  0  0  0  0
    6.0739   -6.8834    0.0000 C   0  0  0  0  0  0  0  0  0  0  0  0
    6.6263   -6.2706    0.0000 C   0  0  0  0  0  0  0  0  0  0  0  0
    7.4332   -6.4425    0.0000 C   0  0  0  0  0  0  0  0  0  0  0  0
  1  2  1  0  0  0  0
  2  3  1  0  0  0  0
  3  4  2  0  0  0  0
  4  5  1  0  0  0  0
  5  6  2  0  0  0  0
  6  7  1  0  0  0  0
  2  7  2  0  0  0  0
  7  8  1  0  0  0  0
  8  9  1  0  0  0  0
  9 10  2  0  0  0  0
 10 11  1  0  0  0  0
 11 12  2  0  0  0  0
 12 13  1  0  0  0  0
  8 13  2  0  0  0  0
  1 13  1  0  0  0  0
M  END
>  <cdx:fragmentId>
12

$$$$
