39984.cdx
  Mrv1902 05222410212D          

 14 14  0  0  0  0            999 V2000
    8.4211   -6.7598    0.0000 C   0  0  0  0  0  0  0  0  0  0  0  0
    7.7066   -7.1723    0.0000 C   0  0  0  0  0  0  0  0  0  0  0  0
    6.9921   -6.7598    0.0000 C   0  0  0  0  0  0  0  0  0  0  0  0
    6.2777   -7.1723    0.0000 C   0  0  0  0  0  0  0  0  0  0  0  0
    6.2777   -7.9973    0.0000 C   0  0  0  0  0  0  0  0  0  0  0  0
    6.9921   -8.4098    0.0000 C   0  0  0  0  0  0  0  0  0  0  0  0
    7.7066   -7.9973    0.0000 C   0  0  0  0  0  0  0  0  0  0  0  0
    8.4211   -5.9348    0.0000 O   0  0  0  0  0  0  0  0  0  0  0  0
    9.1356   -7.1723    0.0000 O   0  0  0  0  0  0  0  0  0  0  0  0
    8.4211   -8.4098    0.0000 O   0  0  0  0  0  0  0  0  0  0  0  0
    9.1356   -7.9973    0.0000 C   0  0  0  0  0  0  0  0  0  0  0  0
    6.9921   -5.9348    0.0000 O   0  0  0  0  0  0  0  0  0  0  0  0
    6.2777   -5.5223    0.0000 C   0  0  0  0  0  0  0  0  0  0  0  0
    5.5632   -8.4098    0.0000 O   0  0  0  0  0  0  0  0  0  0  0  0
  1  2  1  0  0  0  0
  2  3  1  0  0  0  0
  3  4  2  0  0  0  0
  4  5  1  0  0  0  0
  5  6  2  0  0  0  0
  6  7  1  0  0  0  0
  2  7  2  0  0  0  0
  1  8  2  0  0  0  0
  1  9  1  0  0  0  0
 10 11  1  0  0  0  0
  7 10  1  0  0  0  0
 12 13  1  0  0  0  0
  3 12  1  0  0  0  0
  5 14  1  0  0  0  0
M  END
>  <cdx:fragmentId>
10

$$$$
