39980.cdx
  Mrv1902 05222410222D          

 26 27  0  0  0  0            999 V2000
    6.2749   -9.7763    0.0000 C   0  0  0  0  0  0  0  0  0  0  0  0
    6.2749  -10.6013    0.0000 C   0  0  0  0  0  0  0  0  0  0  0  0
    6.9894  -11.0137    0.0000 C   0  0  0  0  0  0  0  0  0  0  0  0
    7.7039  -10.6013    0.0000 C   0  0  0  0  0  0  0  0  0  0  0  0
    7.7039   -9.7763    0.0000 C   0  0  0  0  0  0  0  0  0  0  0  0
    6.9894   -9.3637    0.0000 C   0  0  0  0  0  0  0  0  0  0  0  0
    5.5605   -9.3637    0.0000 O   0  0  0  0  0  0  0  0  0  0  0  0
    4.8460   -9.7763    0.0000 C   0  0  0  0  0  0  0  0  0  0  0  0
    6.9894   -8.5388    0.0000 O   0  0  0  0  0  0  0  0  0  0  0  0
    8.4183   -9.3637    0.0000 O   0  0  0  0  0  0  0  0  0  0  0  0
    9.1328   -9.7763    0.0000 C   0  0  0  0  0  0  0  0  0  0  0  0
    6.9894  -11.8387    0.0000 C   0  0  1  0  0  0  0  0  0  0  0  0
    7.7039  -12.2512    0.0000 C   0  0  0  0  0  0  0  0  0  0  0  0
    6.2749  -12.2512    0.0000 O   0  0  0  0  0  0  0  0  0  0  0  0
    7.7039  -13.0763    0.0000 C   0  0  0  0  0  0  0  0  0  0  0  0
    6.5704   -6.4038    0.0000 C   0  0  2  0  0  0  0  0  0  0  0  0
    5.7454   -6.4103    0.0000 C   0  0  2  0  0  0  0  0  0  0  0  0
    5.3386   -7.1280    0.0000 C   0  0  1  0  0  0  0  0  0  0  0  0
    5.7567   -7.8392    0.0000 C   0  0  2  0  0  0  0  0  0  0  0  0
    6.5817   -7.8327    0.0000 C   0  0  1  0  0  0  0  0  0  0  0  0
    6.9885   -7.1150    0.0000 O   0  0  0  0  0  0  0  0  0  0  0  0
    5.3273   -5.6991    0.0000 O   0  0  0  0  0  0  0  0  0  0  0  0
    6.9772   -5.6861    0.0000 C   0  0  0  0  0  0  0  0  0  0  0  0
    4.5136   -7.1346    0.0000 O   0  0  0  0  0  0  0  0  0  0  0  0
    5.3499   -8.5569    0.0000 O   0  0  0  0  0  0  0  0  0  0  0  0
    6.5647   -4.9716    0.0000 O   0  0  0  0  0  0  0  0  0  0  0  0
  1  2  2  0  0  0  0
  2  3  1  0  0  0  0
  3  4  2  0  0  0  0
  4  5  1  0  0  0  0
  5  6  2  0  0  0  0
  6  1  1  0  0  0  0
  1  7  1  0  0  0  0
  7  8  1  0  0  0  0
  6  9  1  0  0  0  0
  5 10  1  0  0  0  0
 10 11  1  0  0  0  0
  3 12  1  0  0  0  0
 12 13  1  0  0  0  0
 12 14  1  1  0  0  0
 13 15  2  0  0  0  0
 16 17  1  0  0  0  0
 17 18  1  0  0  0  0
 18 19  1  0  0  0  0
 19 20  1  0  0  0  0
 20 21  1  0  0  0  0
 21 16  1  0  0  0  0
 17 22  1  6  0  0  0
 16 23  1  1  0  0  0
 18 24  1  1  0  0  0
 19 25  1  6  0  0  0
 20  9  1  1  0  0  0
 23 26  1  0  0  0  0
M  END
>  <cdx:fragmentId>
5

$$$$
