40007.cdx
  Mrv1902 05222410202D          

 22 24  0  0  0  0            999 V2000
    6.8117   -6.1314    0.0000 C   0  0  0  0  0  0  0  0  0  0  0  0
    6.8117   -6.9564    0.0000 C   0  0  0  0  0  0  0  0  0  0  0  0
    7.3950   -7.5398    0.0000 C   0  0  0  0  0  0  0  0  0  0  0  0
    8.2200   -7.5398    0.0000 C   0  0  0  0  0  0  0  0  0  0  0  0
    8.8034   -6.9564    0.0000 C   0  0  0  0  0  0  0  0  0  0  0  0
    8.8034   -6.1314    0.0000 C   0  0  2  0  0  0  0  0  0  0  0  0
    8.2200   -5.5480    0.0000 C   0  0  0  0  0  0  0  0  0  0  0  0
    7.3950   -5.5480    0.0000 O   0  0  0  0  0  0  0  0  0  0  0  0
    6.0972   -5.7189    0.0000 C   0  0  0  0  0  0  0  0  0  0  0  0
    5.3827   -6.1314    0.0000 C   0  0  0  0  0  0  0  0  0  0  0  0
    5.3827   -6.9564    0.0000 C   0  0  0  0  0  0  0  0  0  0  0  0
    6.0972   -7.3689    0.0000 C   0  0  0  0  0  0  0  0  0  0  0  0
    6.9825   -8.2542    0.0000 C   0  0  0  0  0  0  0  0  0  0  0  0
    7.3950   -8.9687    0.0000 C   0  0  0  0  0  0  0  0  0  0  0  0
    8.2200   -8.9687    0.0000 C   0  0  0  0  0  0  0  0  0  0  0  0
    8.6325   -8.2542    0.0000 C   0  0  0  0  0  0  0  0  0  0  0  0
    4.6682   -5.7189    0.0000 O   0  0  0  0  0  0  0  0  0  0  0  0
    6.9825   -9.6832    0.0000 O   0  0  0  0  0  0  0  0  0  0  0  0
    8.6325   -9.6832    0.0000 O   0  0  0  0  0  0  0  0  0  0  0  0
    9.6003   -6.3449    0.0000 O   0  0  0  0  0  0  0  0  0  0  0  0
    9.3868   -5.5480    0.0000 C   0  0  0  0  0  0  0  0  0  0  0  0
    9.3868   -4.7230    0.0000 O   0  0  0  0  0  0  0  0  0  0  0  0
  1  2  2  0  0  0  0
  2  3  1  0  0  0  0
  3  4  2  0  0  0  0
  4  5  1  0  0  0  0
  5  6  1  0  0  0  0
  6  7  1  0  0  0  0
  7  8  1  0  0  0  0
  8  1  1  0  0  0  0
  1  9  1  0  0  0  0
  9 10  2  0  0  0  0
 10 11  1  0  0  0  0
 11 12  2  0  0  0  0
 12  2  1  0  0  0  0
  3 13  1  0  0  0  0
 13 14  2  0  0  0  0
 14 15  1  0  0  0  0
 15 16  2  0  0  0  0
 16  4  1  0  0  0  0
 10 17  1  0  0  0  0
 14 18  1  0  0  0  0
 15 19  1  0  0  0  0
  6 20  1  6  0  0  0
  6 21  1  0  0  0  0
 21 22  1  0  0  0  0
M  END
>  <cdx:fragmentId>
5

$$$$
