40002.cdx
  Mrv1902 05222410182D          

 22 24  0  0  0  0            999 V2000
   10.2238   -6.5026    0.0000 O   0  0  0  0  0  0  0  0  0  0  0  0
   10.2238   -4.8526    0.0000 O   0  0  0  0  0  0  0  0  0  0  0  0
    8.7949   -4.0276    0.0000 O   0  0  0  0  0  0  0  0  0  0  0  0
    3.7936   -6.0901    0.0000 O   0  0  0  0  0  0  0  0  0  0  0  0
    5.2225   -8.5651    0.0000 O   0  0  0  0  0  0  0  0  0  0  0  0
    9.5094   -6.0901    0.0000 C   0  0  0  0  0  0  0  0  0  0  0  0
    9.5094   -5.2651    0.0000 C   0  0  0  0  0  0  0  0  0  0  0  0
    8.7949   -4.8526    0.0000 C   0  0  0  0  0  0  0  0  0  0  0  0
    8.0804   -5.2651    0.0000 C   0  0  0  0  0  0  0  0  0  0  0  0
    8.0804   -7.7401    0.0000 O   0  0  0  0  0  0  0  0  0  0  0  0
    8.7949   -6.5026    0.0000 C   0  0  0  0  0  0  0  0  0  0  0  0
    8.0804   -6.0901    0.0000 C   0  0  0  0  0  0  0  0  0  0  0  0
    6.6515   -7.7401    0.0000 C   0  0  0  0  0  0  0  0  0  0  0  0
    7.3659   -7.3276    0.0000 C   0  0  1  0  0  0  0  0  0  0  0  0
    7.3659   -6.5026    0.0000 C   0  0  1  0  0  0  0  0  0  0  0  0
    6.6515   -6.0901    0.0000 O   0  0  0  0  0  0  0  0  0  0  0  0
    5.2225   -7.7401    0.0000 C   0  0  0  0  0  0  0  0  0  0  0  0
    5.9370   -7.3276    0.0000 C   0  0  0  0  0  0  0  0  0  0  0  0
    5.9370   -6.5026    0.0000 C   0  0  0  0  0  0  0  0  0  0  0  0
    5.2225   -6.0901    0.0000 C   0  0  0  0  0  0  0  0  0  0  0  0
    4.5081   -6.5026    0.0000 C   0  0  0  0  0  0  0  0  0  0  0  0
    4.5081   -7.3276    0.0000 C   0  0  0  0  0  0  0  0  0  0  0  0
  6  1  1  0  0  0  0
  7  2  1  0  0  0  0
  8  3  1  0  0  0  0
 21  4  1  0  0  0  0
 17  5  1  0  0  0  0
  6 11  2  0  0  0  0
  7  6  1  0  0  0  0
  8  7  2  0  0  0  0
  9  8  1  0  0  0  0
 12  9  2  0  0  0  0
 14 10  1  1  0  0  0
 12 11  1  0  0  0  0
 15 12  1  1  0  0  0
 13 18  1  0  0  0  0
 14 13  1  0  0  0  0
 15 14  1  0  0  0  0
 16 15  1  0  0  0  0
 19 16  1  0  0  0  0
 17 22  1  0  0  0  0
 18 17  2  0  0  0  0
 19 18  1  0  0  0  0
 20 19  2  0  0  0  0
 21 20  1  0  0  0  0
 22 21  2  0  0  0  0
M  END
>  <cdx:fragmentId>
5

$$$$
