40008.cdx
  Mrv1902 05222410272D          

 11 11  0  0  0  0            999 V2000
    6.3231   -8.9914    0.0000 C   0  0  0  0  0  0  0  0  0  0  0  0
    6.3231   -9.8164    0.0000 C   0  0  0  0  0  0  0  0  0  0  0  0
    7.0375  -10.2289    0.0000 C   0  0  0  0  0  0  0  0  0  0  0  0
    7.7520   -9.8164    0.0000 C   0  0  0  0  0  0  0  0  0  0  0  0
    7.7520   -8.9914    0.0000 C   0  0  0  0  0  0  0  0  0  0  0  0
    7.0375   -8.5789    0.0000 C   0  0  0  0  0  0  0  0  0  0  0  0
    8.4665  -10.2289    0.0000 C   0  0  0  0  0  0  0  0  0  0  0  0
    6.6250   -7.8644    0.0000 C   0  0  0  0  0  0  0  0  0  0  0  0
    7.4500   -7.8644    0.0000 C   0  0  0  0  0  0  0  0  0  0  0  0
    5.6086   -8.5789    0.0000 C   0  0  0  0  0  0  0  0  0  0  0  0
    4.8941   -8.9914    0.0000 O   0  0  0  0  0  0  0  0  0  0  0  0
  1  2  1  0  0  0  0
  2  3  1  0  0  0  0
  3  4  1  0  0  0  0
  4  5  2  0  0  0  0
  5  6  1  0  0  0  0
  6  1  1  0  0  0  0
  4  7  1  0  0  0  0
  6  8  1  0  0  0  0
  6  9  1  0  0  0  0
  1 10  1  0  0  0  0
 10 11  2  0  0  0  0
M  END
>  <cdx:fragmentId>
5

$$$$
