40005.cdx
  Mrv1902 05222410192D          

 32 35  0  0  0  0            999 V2000
    9.5566  -10.7314    0.0000 O   0  0  0  0  0  0  0  0  0  0  0  0
   10.9606   -9.8647    0.0000 O   0  0  0  0  0  0  0  0  0  0  0  0
   10.9120   -8.2154    0.0000 O   0  0  0  0  0  0  0  0  0  0  0  0
   10.0886   -4.5255    0.0000 O   0  0  0  0  0  0  0  0  0  0  0  0
    8.6359   -3.7430    0.0000 O   0  0  0  0  0  0  0  0  0  0  0  0
    3.6975   -5.9518    0.0000 O   0  0  0  0  0  0  0  0  0  0  0  0
    5.1987   -8.3837    0.0000 O   0  0  0  0  0  0  0  0  0  0  0  0
    9.5323   -9.9067    0.0000 C   0  0  0  0  0  0  0  0  0  0  0  0
   10.2343   -9.4734    0.0000 C   0  0  0  0  0  0  0  0  0  0  0  0
   10.2100   -8.6487    0.0000 C   0  0  0  0  0  0  0  0  0  0  0  0
    9.4837   -8.2575    0.0000 C   0  0  0  0  0  0  0  0  0  0  0  0
    8.8060   -9.5155    0.0000 C   0  0  0  0  0  0  0  0  0  0  0  0
    8.7817   -8.6908    0.0000 C   0  0  0  0  0  0  0  0  0  0  0  0
    7.3534   -8.7329    0.0000 O   0  0  0  0  0  0  0  0  0  0  0  0
    8.0554   -8.2995    0.0000 C   0  0  0  0  0  0  0  0  0  0  0  0
    9.4108   -5.7835    0.0000 C   0  0  0  0  0  0  0  0  0  0  0  0
    9.3865   -4.9589    0.0000 C   0  0  0  0  0  0  0  0  0  0  0  0
    8.6602   -4.5676    0.0000 C   0  0  0  0  0  0  0  0  0  0  0  0
    7.9582   -5.0010    0.0000 C   0  0  0  0  0  0  0  0  0  0  0  0
    8.0311   -7.4749    0.0000 O   0  0  0  0  0  0  0  0  0  0  0  0
    8.7088   -6.2169    0.0000 C   0  0  0  0  0  0  0  0  0  0  0  0
    7.9825   -5.8256    0.0000 C   0  0  0  0  0  0  0  0  0  0  0  0
    6.6028   -7.5170    0.0000 C   0  0  0  0  0  0  0  0  0  0  0  0
    7.3048   -7.0836    0.0000 C   0  0  1  0  0  0  0  0  0  0  0  0
    7.2805   -6.2590    0.0000 C   0  0  1  0  0  0  0  0  0  0  0  0
    6.5542   -5.8677    0.0000 O   0  0  0  0  0  0  0  0  0  0  0  0
    5.1744   -7.5590    0.0000 C   0  0  0  0  0  0  0  0  0  0  0  0
    5.8765   -7.1257    0.0000 C   0  0  0  0  0  0  0  0  0  0  0  0
    5.8522   -6.3010    0.0000 C   0  0  0  0  0  0  0  0  0  0  0  0
    5.1259   -5.9097    0.0000 C   0  0  0  0  0  0  0  0  0  0  0  0
    4.4238   -6.3431    0.0000 C   0  0  0  0  0  0  0  0  0  0  0  0
    4.4481   -7.1677    0.0000 C   0  0  0  0  0  0  0  0  0  0  0  0
  8  1  1  0  0  0  0
  9  2  1  0  0  0  0
 10  3  1  0  0  0  0
 17  4  1  0  0  0  0
 18  5  1  0  0  0  0
 31  6  1  0  0  0  0
 27  7  1  0  0  0  0
  8 12  1  0  0  0  0
  9  8  2  0  0  0  0
 10  9  1  0  0  0  0
 11 10  2  0  0  0  0
 13 11  1  0  0  0  0
 13 12  2  0  0  0  0
 15 13  1  0  0  0  0
 15 14  2  0  0  0  0
 20 15  1  0  0  0  0
 16 21  2  0  0  0  0
 17 16  1  0  0  0  0
 18 17  2  0  0  0  0
 19 18  1  0  0  0  0
 22 19  2  0  0  0  0
 24 20  1  1  0  0  0
 22 21  1  0  0  0  0
 25 22  1  1  0  0  0
 23 28  1  0  0  0  0
 24 23  1  0  0  0  0
 25 24  1  0  0  0  0
 26 25  1  0  0  0  0
 29 26  1  0  0  0  0
 27 32  1  0  0  0  0
 28 27  2  0  0  0  0
 29 28  1  0  0  0  0
 30 29  2  0  0  0  0
 31 30  1  0  0  0  0
 32 31  2  0  0  0  0
M  END
>  <cdx:fragmentId>
5

$$$$
