40016.cdx
  Mrv1902 05222410182D          

 24 27  0  0  0  0            999 V2000
    7.2465   -7.8417    0.0000 C   0  0  0  0  0  0  0  0  0  0  0  0
    7.5472   -7.0734    0.0000 C   0  0  0  0  0  0  0  0  0  0  0  0
    8.3722   -7.0734    0.0000 C   0  0  0  0  0  0  0  0  0  0  0  0
    8.6755   -7.8417    0.0000 C   0  0  1  0  0  0  0  0  0  0  0  0
    9.3899   -8.2542    0.0000 N   0  0  0  0  0  0  0  0  0  0  0  0
    9.3899   -9.0792    0.0000 C   0  0  0  0  0  0  0  0  0  0  0  0
    8.6755   -9.4917    0.0000 C   0  0  0  0  0  0  0  0  0  0  0  0
    7.9610   -9.0792    0.0000 C   0  0  0  0  0  0  0  0  0  0  0  0
    7.2465   -9.4917    0.0000 C   0  0  0  0  0  0  0  0  0  0  0  0
    6.5320   -9.0792    0.0000 C   0  0  0  0  0  0  0  0  0  0  0  0
    6.5320   -8.2542    0.0000 C   0  0  0  0  0  0  0  0  0  0  0  0
    7.9610   -8.2542    0.0000 C   0  0  0  0  0  0  0  0  0  0  0  0
    6.6171   -5.7105    0.0000 C   0  0  0  0  0  0  0  0  0  0  0  0
    6.2595   -6.4540    0.0000 C   0  0  0  0  0  0  0  0  0  0  0  0
    6.7245   -7.1354    0.0000 C   0  0  0  0  0  0  0  0  0  0  0  0
    7.9048   -6.3299    0.0000 C   0  0  0  0  0  0  0  0  0  0  0  0
    7.4397   -5.6485    0.0000 C   0  0  0  0  0  0  0  0  0  0  0  0
    6.2046   -4.9961    0.0000 O   0  0  0  0  0  0  0  0  0  0  0  0
   10.1044   -7.8417    0.0000 C   0  0  0  0  0  0  0  0  0  0  0  0
    5.8176   -7.8417    0.0000 O   0  0  0  0  0  0  0  0  0  0  0  0
    5.1031   -8.2542    0.0000 C   0  0  0  0  0  0  0  0  0  0  0  0
    5.8176   -9.4917    0.0000 O   0  0  0  0  0  0  0  0  0  0  0  0
    5.1031   -9.0792    0.0000 C   0  0  0  0  0  0  0  0  0  0  0  0
    9.3003   -7.3029    0.0000 H   0  0  0  0  0  0  0  0  0  0  0  0
  1  2  1  0  0  0  0
  2  3  1  0  0  0  0
  3  4  1  0  0  0  0
  4  5  1  0  0  0  0
  5  6  1  0  0  0  0
  6  7  1  0  0  0  0
  7  8  1  0  0  0  0
  8  9  2  0  0  0  0
  9 10  1  0  0  0  0
 10 11  2  0  0  0  0
  1 11  1  0  0  0  0
  1 12  2  0  0  0  0
 12  8  1  0  0  0  0
  4 12  1  0  0  0  0
 13 14  1  0  0  0  0
 14 15  2  0  0  0  0
 16 17  2  0  0  0  0
 13 17  1  0  0  0  0
 15  2  1  0  0  0  0
 16  2  1  0  0  0  0
 13 18  2  0  0  0  0
  5 19  1  0  0  0  0
 20 21  1  0  0  0  0
 11 20  1  0  0  0  0
 22 23  1  0  0  0  0
 10 22  1  0  0  0  0
  4 24  1  6  0  0  0
M  END
>  <cdx:fragmentId>
2409

$$$$
