40010.cdx
  Mrv1902 05222410192D          

 18 20  0  0  0  0            999 V2000
    4.8106   -5.6501    0.0000 C   0  0  0  0  0  0  0  0  0  0  0  0
    4.8106   -6.4751    0.0000 C   0  0  0  0  0  0  0  0  0  0  0  0
    5.5250   -6.8876    0.0000 C   0  0  0  0  0  0  0  0  0  0  0  0
    6.2395   -6.4751    0.0000 C   0  0  0  0  0  0  0  0  0  0  0  0
    6.2395   -5.6501    0.0000 C   0  0  0  0  0  0  0  0  0  0  0  0
    5.5250   -5.2376    0.0000 O   0  0  0  0  0  0  0  0  0  0  0  0
    6.9540   -6.8876    0.0000 C   0  0  0  0  0  0  0  0  0  0  0  0
    7.6684   -6.4751    0.0000 C   0  0  0  0  0  0  0  0  0  0  0  0
    7.6684   -5.6501    0.0000 C   0  0  0  0  0  0  0  0  0  0  0  0
    6.9540   -5.2376    0.0000 C   0  0  0  0  0  0  0  0  0  0  0  0
    8.3829   -6.8876    0.0000 C   0  0  0  0  0  0  0  0  0  0  0  0
    9.0974   -6.4751    0.0000 C   0  0  2  0  0  0  0  0  0  0  0  0
    9.0974   -5.6501    0.0000 C   0  0  1  0  0  0  0  0  0  0  0  0
    8.3829   -5.2376    0.0000 O   0  0  0  0  0  0  0  0  0  0  0  0
    4.0961   -5.2376    0.0000 O   0  0  0  0  0  0  0  0  0  0  0  0
    9.5099   -4.9357    0.0000 C   0  0  0  0  0  0  0  0  0  0  0  0
    9.9224   -5.6501    0.0000 C   0  0  0  0  0  0  0  0  0  0  0  0
    9.8119   -6.8876    0.0000 O   0  0  0  0  0  0  0  0  0  0  0  0
  1  2  1  0  0  0  0
  2  3  2  0  0  0  0
  3  4  1  0  0  0  0
  4  5  1  0  0  0  0
  5  6  1  0  0  0  0
  6  1  1  0  0  0  0
  4  7  2  0  0  0  0
  7  8  1  0  0  0  0
  8  9  2  0  0  0  0
  9 10  1  0  0  0  0
 10  5  2  0  0  0  0
  8 11  1  0  0  0  0
 11 12  1  0  0  0  0
 12 13  1  0  0  0  0
 13 14  1  0  0  0  0
 14  9  1  0  0  0  0
  1 15  2  0  0  0  0
 13 16  1  1  0  0  0
 13 17  1  6  0  0  0
 12 18  1  6  0  0  0
M  END
>  <cdx:fragmentId>
5

$$$$
