40012.cdx
  Mrv1902 05222410202D          

 17 18  0  0  0  0            999 V2000
    5.1406   -6.8051    0.0000 C   0  0  0  0  0  0  0  0  0  0  0  0
    5.1406   -7.6301    0.0000 C   0  0  0  0  0  0  0  0  0  0  0  0
    5.8550   -8.0426    0.0000 C   0  0  1  0  0  0  0  0  0  0  0  0
    6.5695   -7.6301    0.0000 C   0  0  1  0  0  0  0  0  0  0  0  0
    6.5695   -6.8051    0.0000 C   0  0  2  0  0  0  0  0  0  0  0  0
    5.8550   -6.3926    0.0000 C   0  0  0  0  0  0  0  0  0  0  0  0
    7.2840   -8.0426    0.0000 C   0  0  0  0  0  0  0  0  0  0  0  0
    7.9984   -7.6301    0.0000 C   0  0  2  0  0  0  0  0  0  0  0  0
    7.9984   -6.8051    0.0000 C   0  0  0  0  0  0  0  0  0  0  0  0
    7.2840   -6.3926    0.0000 C   0  0  0  0  0  0  0  0  0  0  0  0
    6.5695   -5.9801    0.0000 C   0  0  0  0  0  0  0  0  0  0  0  0
    6.2675   -8.7571    0.0000 C   0  0  0  0  0  0  0  0  0  0  0  0
    6.5695   -8.4551    0.0000 H   0  0  0  0  0  0  0  0  0  0  0  0
    8.7129   -8.0426    0.0000 C   0  0  0  0  0  0  0  0  0  0  0  0
    9.4274   -7.6301    0.0000 C   0  0  0  0  0  0  0  0  0  0  0  0
    8.7129   -8.8676    0.0000 C   0  0  0  0  0  0  0  0  0  0  0  0
    5.4425   -8.7571    0.0000 O   0  0  0  0  0  0  0  0  0  0  0  0
  1  2  1  0  0  0  0
  2  3  1  0  0  0  0
  3  4  1  0  0  0  0
  4  5  1  0  0  0  0
  5  6  1  0  0  0  0
  6  1  1  0  0  0  0
  4  7  1  0  0  0  0
  7  8  1  0  0  0  0
  8  9  1  0  0  0  0
  9 10  1  0  0  0  0
 10  5  1  0  0  0  0
  5 11  1  1  0  0  0
  3 12  1  0  0  0  0
  4 13  1  6  0  0  0
  8 14  1  6  0  0  0
 14 15  1  0  0  0  0
 14 16  1  0  0  0  0
  3 17  1  6  0  0  0
M  END
>  <cdx:fragmentId>
5

$$$$
