40013.cdx
  Mrv1902 05222410202D          

 28 30  0  0  0  0            999 V2000
    6.7131  -10.3441    0.0000 O   0  0  0  0  0  0  0  0  0  0  0  0
    5.9894   -9.9481    0.0000 C   0  0  0  0  0  0  0  0  0  0  0  0
    5.9705   -9.1234    0.0000 C   0  0  0  0  0  0  0  0  0  0  0  0
    6.6753   -8.6946    0.0000 C   0  0  0  0  0  0  0  0  0  0  0  0
    7.3990   -9.0906    0.0000 C   0  0  0  0  0  0  0  0  0  0  0  0
    7.4180   -9.9154    0.0000 C   0  0  0  0  0  0  0  0  0  0  0  0
    8.1038   -8.6618    0.0000 C   0  0  0  0  0  0  0  0  0  0  0  0
    8.8276   -9.0578    0.0000 C   0  0  0  0  0  0  0  0  0  0  0  0
    8.8465   -9.8826    0.0000 C   0  0  0  0  0  0  0  0  0  0  0  0
    8.1417  -10.3113    0.0000 C   0  0  0  0  0  0  0  0  0  0  0  0
    8.0849   -7.8370    0.0000 O   0  0  0  0  0  0  0  0  0  0  0  0
    8.7897   -7.4082    0.0000 C   0  0  0  0  0  0  0  0  0  0  0  0
    9.5135   -7.8042    0.0000 C   0  0  0  0  0  0  0  0  0  0  0  0
    9.5324   -8.6290    0.0000 C   0  0  0  0  0  0  0  0  0  0  0  0
    8.7708   -6.5834    0.0000 O   0  0  0  0  0  0  0  0  0  0  0  0
    5.5934  -10.6719    0.0000 C   0  0  0  0  0  0  0  0  0  0  0  0
    5.1646   -9.9671    0.0000 C   0  0  0  0  0  0  0  0  0  0  0  0
    4.5608   -9.9809    0.0000 O   0  0  0  0  0  0  0  0  0  0  0  0
    3.8181   -8.7602    0.0000 C   0  0  0  0  0  0  0  0  0  0  0  0
    4.5419   -9.1562    0.0000 C   0  0  0  0  0  0  0  0  0  0  0  0
    5.2467   -8.7274    0.0000 O   0  0  0  0  0  0  0  0  0  0  0  0
    6.5584   -5.0331    0.0000 C   0  0  0  0  0  0  0  0  0  0  0  0
    7.4149   -6.4045    0.0000 C   0  0  0  0  0  0  0  0  0  0  0  0
    6.1459   -5.7476    0.0000 C   0  0  0  0  0  0  0  0  0  0  0  0
    5.3873   -7.2129    0.0000 O   0  0  0  0  0  0  0  0  0  0  0  0
    6.5908   -6.4424    0.0000 C   0  0  0  0  0  0  0  0  0  0  0  0
    6.2115   -7.1750    0.0000 C   0  0  0  0  0  0  0  0  0  0  0  0
    6.6563   -7.8698    0.0000 O   0  0  0  0  0  0  0  0  0  0  0  0
  1  2  1  0  0  0  0
  2  3  1  0  0  0  0
  3  4  1  0  0  0  0
  4  5  1  0  0  0  0
  5  6  2  0  0  0  0
  6  1  1  0  0  0  0
  5  7  1  0  0  0  0
  7  8  2  0  0  0  0
  8  9  1  0  0  0  0
  9 10  2  0  0  0  0
 10  6  1  0  0  0  0
  7 11  1  0  0  0  0
 11 12  1  0  0  0  0
 12 13  1  0  0  0  0
 13 14  2  0  0  0  0
 14  8  1  0  0  0  0
 12 15  2  0  0  0  0
 20 18  2  0  0  0  0
  3 21  1  0  0  0  0
 24 22  1  0  0  0  0
  4 28  1  0  0  0  0
  2 16  1  0  0  0  0
  2 17  1  0  0  0  0
 20 19  1  0  0  0  0
 21 20  1  0  0  0  0
 26 23  1  0  0  0  0
 26 24  2  0  0  0  0
 27 25  2  0  0  0  0
 27 26  1  0  0  0  0
 28 27  1  0  0  0  0
M  END
>  <cdx:fragmentId>
5

$$$$
