40015.cdx
  Mrv1902 05222410192D          

 27 29  0  0  0  0            999 V2000
    5.5531   -6.0901    0.0000 C   0  0  1  0  0  0  0  0  0  0  0  0
    5.5531   -6.9151    0.0000 C   0  0  1  0  0  0  0  0  0  0  0  0
    6.2675   -7.3276    0.0000 C   0  0  2  0  0  0  0  0  0  0  0  0
    6.9820   -6.9151    0.0000 C   0  0  0  0  0  0  0  0  0  0  0  0
    6.9820   -6.0901    0.0000 C   0  0  0  0  0  0  0  0  0  0  0  0
    6.2675   -5.6776    0.0000 C   0  0  0  0  0  0  0  0  0  0  0  0
    7.6965   -7.3276    0.0000 C   0  0  0  0  0  0  0  0  0  0  0  0
    8.4109   -6.9151    0.0000 C   0  0  0  0  0  0  0  0  0  0  0  0
    8.4109   -6.0901    0.0000 C   0  0  0  0  0  0  0  0  0  0  0  0
    7.6965   -5.6776    0.0000 C   0  0  0  0  0  0  0  0  0  0  0  0
    4.8386   -7.3276    0.0000 C   0  0  0  0  0  0  0  0  0  0  0  0
    7.6965  -10.6276    0.0000 C   0  0  0  0  0  0  0  0  0  0  0  0
    7.6965   -9.8026    0.0000 O   0  0  0  0  0  0  0  0  0  0  0  0
    6.2675  -10.6276    0.0000 O   0  0  0  0  0  0  0  0  0  0  0  0
    5.5531   -8.5651    0.0000 C   0  0  0  0  0  0  0  0  0  0  0  0
    9.1254   -7.3276    0.0000 O   0  0  0  0  0  0  0  0  0  0  0  0
    9.1254   -5.6776    0.0000 O   0  0  0  0  0  0  0  0  0  0  0  0
    9.1254   -4.8526    0.0000 C   0  0  0  0  0  0  0  0  0  0  0  0
    5.5531   -9.3901    0.0000 C   0  0  0  0  0  0  0  0  0  0  0  0
    6.2675   -9.8026    0.0000 C   0  0  0  0  0  0  0  0  0  0  0  0
    6.9820   -9.3901    0.0000 C   0  0  0  0  0  0  0  0  0  0  0  0
    6.2675   -8.1526    0.0000 C   0  0  0  0  0  0  0  0  0  0  0  0
    6.9820   -8.5651    0.0000 C   0  0  0  0  0  0  0  0  0  0  0  0
    4.1241   -6.9151    0.0000 O   0  0  0  0  0  0  0  0  0  0  0  0
    4.9697   -5.5068    0.0000 C   0  0  0  0  0  0  0  0  0  0  0  0
    5.1832   -4.7099    0.0000 O   0  0  0  0  0  0  0  0  0  0  0  0
    4.7281   -6.0901    0.0000 O   0  0  0  0  0  0  0  0  0  0  0  0
  1  2  1  0  0  0  0
  2  3  1  0  0  0  0
  3  4  1  0  0  0  0
  4  5  1  0  0  0  0
  5  6  1  0  0  0  0
  6  1  1  0  0  0  0
  4  7  2  0  0  0  0
  7  8  1  0  0  0  0
  8  9  2  0  0  0  0
  9 10  1  0  0  0  0
 10  5  2  0  0  0  0
 13 12  1  0  0  0  0
  2 11  1  1  0  0  0
 21 13  1  0  0  0  0
  3 22  1  6  0  0  0
 20 14  1  0  0  0  0
 15 22  1  0  0  0  0
 19 15  2  0  0  0  0
 20 19  1  0  0  0  0
 21 20  2  0  0  0  0
 23 21  1  0  0  0  0
  8 16  1  0  0  0  0
  9 17  1  0  0  0  0
 17 18  1  0  0  0  0
 23 22  2  0  0  0  0
 11 24  1  0  0  0  0
  1 25  1  0  0  0  0
 25 26  1  0  0  0  0
  1 27  1  1  0  0  0
M  END
>  <cdx:fragmentId>
5

$$$$
