40026.cdx
  Mrv1902 05222410282D          

 20 22  0  0  0  0            999 V2000
    5.3331   -9.2114    0.0000 C   0  0  0  0  0  0  0  0  0  0  0  0
    5.3331  -10.0364    0.0000 C   0  0  0  0  0  0  0  0  0  0  0  0
    6.0475  -10.4489    0.0000 C   0  0  0  0  0  0  0  0  0  0  0  0
    6.7620  -10.0364    0.0000 C   0  0  0  0  0  0  0  0  0  0  0  0
    6.7620   -9.2114    0.0000 C   0  0  0  0  0  0  0  0  0  0  0  0
    6.0475   -8.7989    0.0000 C   0  0  0  0  0  0  0  0  0  0  0  0
    7.4765  -10.4489    0.0000 C   0  0  0  0  0  0  0  0  0  0  0  0
    8.1909  -10.0364    0.0000 C   0  0  0  0  0  0  0  0  0  0  0  0
    8.1909   -9.2114    0.0000 C   0  0  0  0  0  0  0  0  0  0  0  0
    7.4765   -8.7989    0.0000 C   0  0  0  0  0  0  0  0  0  0  0  0
    8.9054   -8.7989    0.0000 C   0  0  0  0  0  0  0  0  0  0  0  0
    8.9054   -7.9739    0.0000 C   0  0  0  0  0  0  0  0  0  0  0  0
    8.1909   -7.5614    0.0000 C   0  0  0  0  0  0  0  0  0  0  0  0
    7.4765   -7.9739    0.0000 C   0  0  0  0  0  0  0  0  0  0  0  0
    4.6186   -8.7989    0.0000 O   0  0  0  0  0  0  0  0  0  0  0  0
    4.6186  -10.4489    0.0000 O   0  0  0  0  0  0  0  0  0  0  0  0
    3.9041  -10.0364    0.0000 C   0  0  0  0  0  0  0  0  0  0  0  0
    6.0475   -7.9739    0.0000 O   0  0  0  0  0  0  0  0  0  0  0  0
    5.3331   -7.5614    0.0000 C   0  0  0  0  0  0  0  0  0  0  0  0
    9.6199   -7.5614    0.0000 O   0  0  0  0  0  0  0  0  0  0  0  0
  1  2  2  0  0  0  0
  2  3  1  0  0  0  0
  3  4  2  0  0  0  0
  4  5  1  0  0  0  0
  5  6  2  0  0  0  0
  6  1  1  0  0  0  0
  4  7  1  0  0  0  0
  7  8  1  0  0  0  0
  8  9  1  0  0  0  0
  9 10  2  0  0  0  0
 10  5  1  0  0  0  0
  9 11  1  0  0  0  0
 11 12  2  0  0  0  0
 12 13  1  0  0  0  0
 13 14  2  0  0  0  0
 14 10  1  0  0  0  0
  1 15  1  0  0  0  0
  2 16  1  0  0  0  0
 16 17  1  0  0  0  0
  6 18  1  0  0  0  0
 18 19  1  0  0  0  0
 12 20  1  0  0  0  0
M  END
>  <cdx:fragmentId>
5

$$$$
