40022.cdx
  Mrv1902 05222410262D          

 18 18  0  0  0  0            999 V2000
    5.9433   -9.5438    0.0000 O   0  0  0  0  0  0  0  0  0  0  0  0
    4.2935   -9.5655    0.0000 O   0  0  0  0  0  0  0  0  0  0  0  0
    5.1293  -10.3796    0.0000 O   0  0  0  0  0  0  0  0  0  0  0  0
    5.1184   -9.5547    0.0000 S   0  0  0  0  0  0  0  0  0  0  0  0
    5.1076   -8.7298    0.0000 O   0  0  0  0  0  0  0  0  0  0  0  0
   10.0922   -7.4266    0.0000 O   0  0  0  0  0  0  0  0  0  0  0  0
    9.3615   -6.1986    0.0000 O   0  0  0  0  0  0  0  0  0  0  0  0
    9.3723   -7.0236    0.0000 C   0  0  0  0  0  0  0  0  0  0  0  0
    8.6634   -7.4454    0.0000 C   0  0  0  0  0  0  0  0  0  0  0  0
    7.9435   -7.0423    0.0000 C   0  0  0  0  0  0  0  0  0  0  0  0
    4.3714   -7.4924    0.0000 C   0  0  0  0  0  0  0  0  0  0  0  0
    5.0859   -7.0799    0.0000 O   0  0  0  0  0  0  0  0  0  0  0  0
    5.8166   -8.3079    0.0000 C   0  0  0  0  0  0  0  0  0  0  0  0
    6.5364   -8.7110    0.0000 C   0  0  0  0  0  0  0  0  0  0  0  0
    7.2454   -8.2891    0.0000 C   0  0  0  0  0  0  0  0  0  0  0  0
    7.2345   -7.4642    0.0000 C   0  0  0  0  0  0  0  0  0  0  0  0
    6.5147   -7.0611    0.0000 C   0  0  0  0  0  0  0  0  0  0  0  0
    5.8057   -7.4830    0.0000 C   0  0  0  0  0  0  0  0  0  0  0  0
  4  1  2  0  0  0  0
  4  2  2  0  0  0  0
  4  3  1  0  0  0  0
  5  4  1  0  0  0  0
 13  5  1  0  0  0  0
  8  6  1  0  0  0  0
  8  7  2  0  0  0  0
  9  8  1  0  0  0  0
 10  9  2  0  0  0  0
 16 10  1  0  0  0  0
 12 11  1  0  0  0  0
 18 12  1  0  0  0  0
 13 18  1  0  0  0  0
 14 13  2  0  0  0  0
 15 14  1  0  0  0  0
 16 15  2  0  0  0  0
 17 16  1  0  0  0  0
 18 17  2  0  0  0  0
M  END
>  <cdx:fragmentId>
5

$$$$
