40023.cdx
  Mrv1902 05222410262D          

 47 51  0  0  0  0            999 V2000
    1.7581  -10.6414    0.0000 C   0  0  0  0  0  0  0  0  0  0  0  0
    1.7581  -11.4664    0.0000 C   0  0  0  0  0  0  0  0  0  0  0  0
    2.4725  -11.8789    0.0000 C   0  0  0  0  0  0  0  0  0  0  0  0
    3.1870  -11.4664    0.0000 C   0  0  0  0  0  0  0  0  0  0  0  0
    3.1870  -10.6414    0.0000 C   0  0  0  0  0  0  0  0  0  0  0  0
    2.4725  -10.2289    0.0000 C   0  0  0  0  0  0  0  0  0  0  0  0
    4.6159  -10.6414    0.0000 C   0  0  0  0  0  0  0  0  0  0  0  0
    3.9015  -10.2289    0.0000 C   0  0  0  0  0  0  0  0  0  0  0  0
    6.0449  -10.6414    0.0000 O   0  0  0  0  0  0  0  0  0  0  0  0
    5.3304  -10.2289    0.0000 C   0  0  0  0  0  0  0  0  0  0  0  0
    7.4738  -10.6414    0.0000 C   0  0  0  0  0  0  0  0  0  0  0  0
    6.7594  -10.2289    0.0000 C   0  0  2  0  0  0  0  0  0  0  0  0
    8.1883  -10.2289    0.0000 C   0  0  1  0  0  0  0  0  0  0  0  0
    8.1883   -9.4039    0.0000 C   0  0  2  0  0  0  0  0  0  0  0  0
    7.4738   -8.9914    0.0000 C   0  0  0  0  0  0  0  0  0  0  0  0
    6.7594   -9.4039    0.0000 C   0  0  0  0  0  0  0  0  0  0  0  0
    8.9028  -10.6414    0.0000 C   0  0  0  0  0  0  0  0  0  0  0  0
    9.6172  -10.2289    0.0000 C   0  0  0  0  0  0  0  0  0  0  0  0
    9.6172   -9.4039    0.0000 C   0  0  2  0  0  0  0  0  0  0  0  0
    8.9028   -8.9914    0.0000 C   0  0  2  0  0  0  0  0  0  0  0  0
   10.3317   -8.9914    0.0000 C   0  0  1  0  0  0  0  0  0  0  0  0
   10.3317   -8.1664    0.0000 C   0  0  2  0  0  0  0  0  0  0  0  0
    9.6172   -7.7539    0.0000 C   0  0  0  0  0  0  0  0  0  0  0  0
    8.9028   -8.1664    0.0000 C   0  0  0  0  0  0  0  0  0  0  0  0
   11.1163   -9.2463    0.0000 C   0  0  0  0  0  0  0  0  0  0  0  0
   11.6012   -8.5789    0.0000 C   0  0  0  0  0  0  0  0  0  0  0  0
   11.1163   -7.9115    0.0000 C   0  0  2  0  0  0  0  0  0  0  0  0
   11.3713   -7.1268    0.0000 C   0  0  1  0  0  0  0  0  0  0  0  0
   12.1682   -6.9133    0.0000 C   0  0  0  0  0  0  0  0  0  0  0  0
   12.3817   -6.1164    0.0000 C   0  0  0  0  0  0  0  0  0  0  0  0
   13.1786   -5.9029    0.0000 C   0  0  2  0  0  0  0  0  0  0  0  0
   13.3921   -5.1060    0.0000 C   0  0  0  0  0  0  0  0  0  0  0  0
   14.1890   -4.8925    0.0000 C   0  0  0  0  0  0  0  0  0  0  0  0
   12.8087   -4.5226    0.0000 C   0  0  0  0  0  0  0  0  0  0  0  0
    5.3304   -9.4039    0.0000 O   0  0  0  0  0  0  0  0  0  0  0  0
    1.0436  -11.8789    0.0000 O   0  0  0  0  0  0  0  0  0  0  0  0
    1.0436  -10.2289    0.0000 O   0  0  0  0  0  0  0  0  0  0  0  0
    0.3291  -10.6414    0.0000 C   0  0  0  0  0  0  0  0  0  0  0  0
    8.1883   -8.5789    0.0000 C   0  0  0  0  0  0  0  0  0  0  0  0
   10.3317   -7.3414    0.0000 C   0  0  0  0  0  0  0  0  0  0  0  0
    9.6172   -8.5789    0.0000 H   0  0  0  0  0  0  0  0  0  0  0  0
    8.1883  -11.0539    0.0000 H   0  0  0  0  0  0  0  0  0  0  0  0
   10.3317   -9.8164    0.0000 H   0  0  0  0  0  0  0  0  0  0  0  0
    8.9028   -9.8164    0.0000 H   0  0  0  0  0  0  0  0  0  0  0  0
   11.9132   -7.6979    0.0000 H   0  0  0  0  0  0  0  0  0  0  0  0
   10.8034   -6.5284    0.0000 C   0  0  0  0  0  0  0  0  0  0  0  0
   13.7619   -6.4863    0.0000 C   0  0  0  0  0  0  0  0  0  0  0  0
  1  2  2  0  0  0  0
  2  3  1  0  0  0  0
  3  4  2  0  0  0  0
  4  5  1  0  0  0  0
  5  6  2  0  0  0  0
  6  1  1  0  0  0  0
  7  8  2  0  0  0  0
  8  5  1  0  0  0  0
  9 10  1  0  0  0  0
 10  7  1  0  0  0  0
 11 12  1  0  0  0  0
 12  9  1  1  0  0  0
 11 13  1  0  0  0  0
 13 14  1  0  0  0  0
 14 15  1  0  0  0  0
 15 16  1  0  0  0  0
 16 12  1  0  0  0  0
 13 17  1  0  0  0  0
 17 18  1  0  0  0  0
 18 19  1  0  0  0  0
 19 20  1  0  0  0  0
 20 14  1  0  0  0  0
 19 21  1  0  0  0  0
 21 22  1  0  0  0  0
 22 23  1  0  0  0  0
 23 24  1  0  0  0  0
 24 20  1  0  0  0  0
 21 25  1  0  0  0  0
 25 26  1  0  0  0  0
 26 27  1  0  0  0  0
 27 22  1  0  0  0  0
 27 28  1  0  0  0  0
 28 29  1  0  0  0  0
 29 30  1  0  0  0  0
 30 31  1  0  0  0  0
 31 32  1  0  0  0  0
 32 33  1  0  0  0  0
 32 34  1  0  0  0  0
 10 35  2  0  0  0  0
  2 36  1  0  0  0  0
  1 37  1  0  0  0  0
 37 38  1  0  0  0  0
 14 39  1  1  0  0  0
 22 40  1  1  0  0  0
 19 41  1  1  0  0  0
 13 42  1  6  0  0  0
 21 43  1  6  0  0  0
 20 44  1  6  0  0  0
 27 45  1  6  0  0  0
 28 46  1  6  0  0  0
 31 47  1  6  0  0  0
M  END
>  <cdx:fragmentId>
5

$$$$
