40021.cdx
  Mrv1902 05222410262D          

 17 17  0  0  0  0            999 V2000
    6.2268  -10.2426    0.0000 C   0  0  0  0  0  0  0  0  0  0  0  0
    6.2268  -11.0676    0.0000 C   0  0  0  0  0  0  0  0  0  0  0  0
    6.9413  -11.4801    0.0000 C   0  0  0  0  0  0  0  0  0  0  0  0
    7.6557  -11.0676    0.0000 C   0  0  0  0  0  0  0  0  0  0  0  0
    7.6557  -10.2426    0.0000 C   0  0  0  0  0  0  0  0  0  0  0  0
    6.9413   -9.8301    0.0000 C   0  0  0  0  0  0  0  0  0  0  0  0
    6.9413  -12.3051    0.0000 O   0  0  0  0  0  0  0  0  0  0  0  0
    5.5123  -11.4801    0.0000 O   0  0  0  0  0  0  0  0  0  0  0  0
    4.7979  -11.0676    0.0000 C   0  0  0  0  0  0  0  0  0  0  0  0
    6.9413   -9.0051    0.0000 C   0  0  0  0  0  0  0  0  0  0  0  0
    7.6557   -8.5926    0.0000 C   0  0  0  0  0  0  0  0  0  0  0  0
    6.2268   -8.5926    0.0000 H   0  0  0  0  0  0  0  0  0  0  0  0
    7.6557   -7.7676    0.0000 C   0  0  0  0  0  0  0  0  0  0  0  0
    8.3702   -9.0051    0.0000 H   0  0  0  0  0  0  0  0  0  0  0  0
    8.3702   -7.3551    0.0000 O   0  0  0  0  0  0  0  0  0  0  0  0
    6.9413   -7.3551    0.0000 O   0  0  0  0  0  0  0  0  0  0  0  0
    8.3702   -6.5301    0.0000 C   0  0  0  0  0  0  0  0  0  0  0  0
  1  2  2  0  0  0  0
  2  3  1  0  0  0  0
  3  4  2  0  0  0  0
  4  5  1  0  0  0  0
  5  6  2  0  0  0  0
  6  1  1  0  0  0  0
  3  7  1  0  0  0  0
  2  8  1  0  0  0  0
  8  9  1  0  0  0  0
  6 10  1  0  0  0  0
 10 11  2  0  0  0  0
 10 12  1  0  0  0  0
 11 13  1  0  0  0  0
 11 14  1  0  0  0  0
 13 15  1  0  0  0  0
 13 16  2  0  0  0  0
 15 17  1  0  0  0  0
M  END
>  <cdx:fragmentId>
5

$$$$
