40027.cdx
  Mrv1902 05222410282D          

 26 29  0  0  0  0            999 V2000
    5.6815  -10.4021    0.0000 C   0  0  2  0  0  0  0  0  0  0  0  0
    5.3996  -11.1775    0.0000 C   0  0  2  0  0  0  0  0  0  0  0  0
    6.0500  -11.6851    0.0000 C   0  0  2  0  0  0  0  0  0  0  0  0
    6.7337  -11.2235    0.0000 C   0  0  1  0  0  0  0  0  0  0  0  0
    6.5060  -10.4305    0.0000 O   0  0  0  0  0  0  0  0  0  0  0  0
    5.2198   -9.7184    0.0000 C   0  0  0  0  0  0  0  0  0  0  0  0
    7.5091  -11.5053    0.0000 C   0  0  0  0  0  0  0  0  0  0  0  0
    4.6067  -11.4052    0.0000 C   0  0  0  0  0  0  0  0  0  0  0  0
    6.0215  -12.5096    0.0000 C   0  0  0  0  0  0  0  0  0  0  0  0
    5.5811   -8.9767    0.0000 C   0  0  0  0  0  0  0  0  0  0  0  0
    5.1195   -8.2929    0.0000 C   0  0  0  0  0  0  0  0  0  0  0  0
    4.2965   -8.3509    0.0000 C   0  0  0  0  0  0  0  0  0  0  0  0
    3.9352   -9.0925    0.0000 C   0  0  0  0  0  0  0  0  0  0  0  0
    4.3968   -9.7763    0.0000 C   0  0  0  0  0  0  0  0  0  0  0  0
    7.6527  -12.3177    0.0000 C   0  0  0  0  0  0  0  0  0  0  0  0
    8.4281  -12.5995    0.0000 C   0  0  0  0  0  0  0  0  0  0  0  0
    9.0598  -12.0689    0.0000 C   0  0  0  0  0  0  0  0  0  0  0  0
    8.9162  -11.2565    0.0000 C   0  0  0  0  0  0  0  0  0  0  0  0
    8.1408  -10.9747    0.0000 C   0  0  0  0  0  0  0  0  0  0  0  0
    3.8349   -7.6671    0.0000 O   0  0  0  0  0  0  0  0  0  0  0  0
    3.0099   -7.6671    0.0000 C   0  0  0  0  0  0  0  0  0  0  0  0
    5.4808   -7.5513    0.0000 O   0  0  0  0  0  0  0  0  0  0  0  0
    5.0683   -6.8368    0.0000 C   0  0  0  0  0  0  0  0  0  0  0  0
    9.8769  -12.1834    0.0000 O   0  0  0  0  0  0  0  0  0  0  0  0
   10.2382  -11.4417    0.0000 C   0  0  0  0  0  0  0  0  0  0  0  0
    9.6445  -10.8689    0.0000 O   0  0  0  0  0  0  0  0  0  0  0  0
  1  2  1  0  0  0  0
  2  3  1  0  0  0  0
  3  4  1  0  0  0  0
  4  5  1  0  0  0  0
  5  1  1  0  0  0  0
  1  6  1  1  0  0  0
  4  7  1  1  0  0  0
  2  8  1  6  0  0  0
  3  9  1  6  0  0  0
  6 10  2  0  0  0  0
 10 11  1  0  0  0  0
 11 12  2  0  0  0  0
 12 13  1  0  0  0  0
 13 14  2  0  0  0  0
 14  6  1  0  0  0  0
  7 15  2  0  0  0  0
 15 16  1  0  0  0  0
 16 17  2  0  0  0  0
 17 18  1  0  0  0  0
 18 19  2  0  0  0  0
 19  7  1  0  0  0  0
 12 20  1  0  0  0  0
 20 21  1  0  0  0  0
 11 22  1  0  0  0  0
 22 23  1  0  0  0  0
 17 24  1  0  0  0  0
 24 25  1  0  0  0  0
 25 26  1  0  0  0  0
 26 18  1  0  0  0  0
M  END
>  <cdx:fragmentId>
5

$$$$
