400370.cdx
  Mrv1902 05222410232D          

 40 43  0  0  0  0            999 V2000
    3.7931  -11.1226    0.0000 C   0  0  0  0  0  0  0  0  0  0  0  0
    3.7931  -11.9476    0.0000 C   0  0  0  0  0  0  0  0  0  0  0  0
    4.5075  -12.3601    0.0000 C   0  0  0  0  0  0  0  0  0  0  0  0
    5.2220  -11.9476    0.0000 C   0  0  1  0  0  0  0  0  0  0  0  0
    5.2220  -11.1226    0.0000 C   0  0  2  0  0  0  0  0  0  0  0  0
    4.5075  -10.7101    0.0000 C   0  0  0  0  0  0  0  0  0  0  0  0
    5.9365  -12.3601    0.0000 C   0  0  0  0  0  0  0  0  0  0  0  0
    6.6509  -11.9476    0.0000 C   0  0  1  0  0  0  0  0  0  0  0  0
    6.6509  -11.1226    0.0000 C   0  0  0  0  0  0  0  0  0  0  0  0
    5.9365  -10.7101    0.0000 C   0  0  0  0  0  0  0  0  0  0  0  0
    7.3654  -10.7101    0.0000 C   0  0  1  0  0  0  0  0  0  0  0  0
    7.3654   -9.8851    0.0000 C   0  0  2  0  0  0  0  0  0  0  0  0
    6.6509   -9.4726    0.0000 C   0  0  0  0  0  0  0  0  0  0  0  0
    5.9365   -9.8851    0.0000 C   0  0  0  0  0  0  0  0  0  0  0  0
    8.1500  -10.9651    0.0000 C   0  0  0  0  0  0  0  0  0  0  0  0
    8.6350  -10.2976    0.0000 C   0  0  0  0  0  0  0  0  0  0  0  0
    8.1500   -9.6302    0.0000 C   0  0  2  0  0  0  0  0  0  0  0  0
    3.0786  -12.3601    0.0000 O   0  0  0  0  0  0  0  0  0  0  0  0
    4.0950  -13.0746    0.0000 C   0  0  0  0  0  0  0  0  0  0  0  0
    4.9200  -13.0746    0.0000 C   0  0  0  0  0  0  0  0  0  0  0  0
    5.2220   -9.4726    0.0000 O   0  0  0  0  0  0  0  0  0  0  0  0
    8.4050   -8.8456    0.0000 C   0  0  1  0  0  0  0  0  0  0  0  0
    9.2019   -8.6321    0.0000 C   0  0  0  0  0  0  0  0  0  0  0  0
    9.4154   -7.8352    0.0000 C   0  0  0  0  0  0  0  0  0  0  0  0
   10.2123   -7.6216    0.0000 C   0  0  0  0  0  0  0  0  0  0  0  0
    8.8320   -7.2518    0.0000 O   0  0  0  0  0  0  0  0  0  0  0  0
   10.4258   -6.8248    0.0000 C   0  0  0  0  0  0  0  0  0  0  0  0
    9.8424   -6.2414    0.0000 C   0  0  0  0  0  0  0  0  0  0  0  0
   11.2227   -6.6112    0.0000 C   0  0  0  0  0  0  0  0  0  0  0  0
   11.4362   -5.8143    0.0000 O   0  0  0  0  0  0  0  0  0  0  0  0
   11.8061   -7.1946    0.0000 O   0  0  0  0  0  0  0  0  0  0  0  0
    7.3654  -11.5351    0.0000 C   0  0  0  0  0  0  0  0  0  0  0  0
    7.8371   -8.2472    0.0000 C   0  0  0  0  0  0  0  0  0  0  0  0
    5.2220  -10.2976    0.0000 C   0  0  0  0  0  0  0  0  0  0  0  0
    5.2220  -12.7726    0.0000 H   0  0  0  0  0  0  0  0  0  0  0  0
    7.3654  -12.3601    0.0000 O   0  0  0  0  0  0  0  0  0  0  0  0
    7.3654   -9.0601    0.0000 C   0  0  0  0  0  0  0  0  0  0  0  0
    8.4050  -11.7497    0.0000 O   0  0  0  0  0  0  0  0  0  0  0  0
    8.6185   -8.0487    0.0000 O   0  0  0  0  0  0  0  0  0  0  0  0
    8.9347   -9.3753    0.0000 H   0  0  0  0  0  0  0  0  0  0  0  0
  1  2  1  0  0  0  0
  2  3  1  0  0  0  0
  3  4  1  0  0  0  0
  4  5  1  0  0  0  0
  5  6  1  0  0  0  0
  6  1  1  0  0  0  0
  4  7  1  0  0  0  0
  7  8  1  0  0  0  0
  8  9  1  0  0  0  0
  9 10  2  0  0  0  0
 10  5  1  0  0  0  0
  9 11  1  0  0  0  0
 11 12  1  0  0  0  0
 12 13  1  0  0  0  0
 13 14  1  0  0  0  0
 14 10  1  0  0  0  0
 11 15  1  0  0  0  0
 15 16  1  0  0  0  0
 16 17  1  0  0  0  0
 17 12  1  0  0  0  0
  2 18  2  0  0  0  0
  3 19  1  0  0  0  0
  3 20  1  0  0  0  0
 14 21  2  0  0  0  0
 17 22  1  0  0  0  0
 22 23  1  0  0  0  0
 23 24  1  0  0  0  0
 24 25  1  0  0  0  0
 24 26  2  0  0  0  0
 25 27  1  0  0  0  0
 27 28  1  0  0  0  0
 27 29  1  0  0  0  0
 29 30  1  0  0  0  0
 29 31  2  0  0  0  0
 11 32  1  6  0  0  0
 22 33  1  6  0  0  0
  5 34  1  1  0  0  0
  4 35  1  6  0  0  0
  8 36  1  1  0  0  0
 12 37  1  1  0  0  0
 15 38  2  0  0  0  0
 22 39  1  0  0  0  0
 17 40  1  6  0  0  0
M  END
>  <cdx:fragmentId>
5

$$$$
