40033.cdx
  Mrv1902 05222410282D          

 24 25  0  0  0  0            999 V2000
    4.6181   -9.3901    0.0000 C   0  0  0  0  0  0  0  0  0  0  0  0
    4.6181  -10.2151    0.0000 C   0  0  0  0  0  0  0  0  0  0  0  0
    5.3325  -10.6276    0.0000 C   0  0  0  0  0  0  0  0  0  0  0  0
    6.0470  -10.2151    0.0000 C   0  0  0  0  0  0  0  0  0  0  0  0
    6.0470   -9.3901    0.0000 C   0  0  0  0  0  0  0  0  0  0  0  0
    5.3325   -8.9776    0.0000 C   0  0  0  0  0  0  0  0  0  0  0  0
    6.7615  -10.6276    0.0000 O   0  0  0  0  0  0  0  0  0  0  0  0
    7.4759  -10.2151    0.0000 C   0  0  2  0  0  0  0  0  0  0  0  0
    7.4759   -9.3901    0.0000 C   0  0  0  0  0  0  0  0  0  0  0  0
    6.7615   -8.9776    0.0000 C   0  0  0  0  0  0  0  0  0  0  0  0
    8.1904  -10.6276    0.0000 C   0  0  0  0  0  0  0  0  0  0  0  0
    8.9049  -10.2151    0.0000 C   0  0  1  0  0  0  0  0  0  0  0  0
    8.9049   -9.3901    0.0000 C   0  0  0  0  0  0  0  0  0  0  0  0
    8.1904   -8.9776    0.0000 C   0  0  0  0  0  0  0  0  0  0  0  0
    3.9036   -8.9776    0.0000 O   0  0  0  0  0  0  0  0  0  0  0  0
    3.9036  -10.6276    0.0000 O   0  0  0  0  0  0  0  0  0  0  0  0
    5.3325  -11.4526    0.0000 O   0  0  0  0  0  0  0  0  0  0  0  0
    6.7615   -8.1526    0.0000 O   0  0  0  0  0  0  0  0  0  0  0  0
    7.7779   -8.2632    0.0000 O   0  0  0  0  0  0  0  0  0  0  0  0
    8.6029   -8.2632    0.0000 C   0  0  0  0  0  0  0  0  0  0  0  0
    8.1904   -7.5487    0.0000 O   0  0  0  0  0  0  0  0  0  0  0  0
    9.4279   -8.2632    0.0000 O   0  0  0  0  0  0  0  0  0  0  0  0
    8.1904  -11.4526    0.0000 O   0  0  0  0  0  0  0  0  0  0  0  0
    9.6194  -10.6276    0.0000 O   0  0  0  0  0  0  0  0  0  0  0  0
  1  2  2  0  0  0  0
  2  3  1  0  0  0  0
  3  4  2  0  0  0  0
  4  5  1  0  0  0  0
  5  6  2  0  0  0  0
  6  1  1  0  0  0  0
  8  7  1  6  0  0  0
  8  9  1  0  0  0  0
  9 10  1  0  0  0  0
 10  5  1  0  0  0  0
  8 11  1  0  0  0  0
 11 12  1  0  0  0  0
 12 13  1  0  0  0  0
 13 14  1  0  0  0  0
 14  9  1  0  0  0  0
  1 15  1  0  0  0  0
  2 16  1  0  0  0  0
  3 17  1  0  0  0  0
 10 18  2  0  0  0  0
 14 19  1  0  0  0  0
 14 20  1  0  0  0  0
 20 21  2  0  0  0  0
 20 22  1  0  0  0  0
 11 23  1  0  0  0  0
 12 24  1  1  0  0  0
M  END
>  <cdx:fragmentId>
5

$$$$
