40030.cdx
  Mrv1902 05222410272D          

 23 24  0  0  0  0            999 V2000
    5.5464   -8.9053    0.0000 C   0  0  2  0  0  0  0  0  0  0  0  0
    4.8267   -9.3087    0.0000 C   0  0  2  0  0  0  0  0  0  0  0  0
    4.8162  -10.1336    0.0000 C   0  0  1  0  0  0  0  0  0  0  0  0
    5.5253  -10.5552    0.0000 C   0  0  2  0  0  0  0  0  0  0  0  0
    6.2450  -10.1519    0.0000 C   0  0  1  0  0  0  0  0  0  0  0  0
    6.2555   -9.3269    0.0000 O   0  0  0  0  0  0  0  0  0  0  0  0
    6.9541  -10.5735    0.0000 O   0  0  0  0  0  0  0  0  0  0  0  0
    7.6738  -10.1701    0.0000 C   0  0  0  0  0  0  0  0  0  0  0  0
    7.6844   -9.3452    0.0000 C   0  0  0  0  0  0  0  0  0  0  0  0
    6.9752   -8.9236    0.0000 O   0  0  0  0  0  0  0  0  0  0  0  0
    8.3829  -10.5917    0.0000 C   0  0  0  0  0  0  0  0  0  0  0  0
    9.1026  -10.1884    0.0000 C   0  0  0  0  0  0  0  0  0  0  0  0
    9.1132   -9.3635    0.0000 C   0  0  0  0  0  0  0  0  0  0  0  0
    8.4040   -8.9419    0.0000 C   0  0  0  0  0  0  0  0  0  0  0  0
    5.5569   -8.0804    0.0000 C   0  0  0  0  0  0  0  0  0  0  0  0
    4.8478   -7.6588    0.0000 O   0  0  0  0  0  0  0  0  0  0  0  0
    9.8329   -8.9601    0.0000 C   0  0  0  0  0  0  0  0  0  0  0  0
    9.8434   -8.1352    0.0000 O   0  0  0  0  0  0  0  0  0  0  0  0
   10.5420   -9.3817    0.0000 O   0  0  0  0  0  0  0  0  0  0  0  0
    8.3724  -11.4167    0.0000 O   0  0  0  0  0  0  0  0  0  0  0  0
    4.0965  -10.5369    0.0000 O   0  0  0  0  0  0  0  0  0  0  0  0
    4.1176   -8.8871    0.0000 O   0  0  0  0  0  0  0  0  0  0  0  0
    5.5147  -11.3801    0.0000 O   0  0  0  0  0  0  0  0  0  0  0  0
  1  2  1  0  0  0  0
  2  3  1  0  0  0  0
  3  4  1  0  0  0  0
  4  5  1  0  0  0  0
  5  6  1  0  0  0  0
  6  1  1  0  0  0  0
  5  7  1  1  0  0  0
  7  8  1  0  0  0  0
  8  9  2  0  0  0  0
  9 10  1  0  0  0  0
  8 11  1  0  0  0  0
 11 12  2  0  0  0  0
 12 13  1  0  0  0  0
 13 14  2  0  0  0  0
 14  9  1  0  0  0  0
  1 15  1  1  0  0  0
 15 16  1  0  0  0  0
 13 17  1  0  0  0  0
 17 18  2  0  0  0  0
 17 19  1  0  0  0  0
 11 20  1  0  0  0  0
  3 21  1  1  0  0  0
  2 22  1  6  0  0  0
  4 23  1  6  0  0  0
M  END
>  <cdx:fragmentId>
5

$$$$
