40043.cdx
  Mrv1902 05222410242D          

 56 62  0  0  0  0            999 V2000
   10.5947   -5.9992    0.0000 H   0  0  0  0  0  0  0  0  0  0  0  0
   10.4519   -7.3356    0.0000 H   0  0  0  0  0  0  0  0  0  0  0  0
    7.7391   -7.3355    0.0000 H   0  0  0  0  0  0  0  0  0  0  0  0
    9.0717   -9.3865    0.0000 O   0  0  0  0  0  0  0  0  0  0  0  0
    8.7635  -10.4614    0.0000 O   0  0  0  0  0  0  0  0  0  0  0  0
    6.5997  -10.8771    0.0000 H   0  0  0  0  0  0  0  0  0  0  0  0
    6.6378   -8.4026    0.0000 C   0  0  0  0  0  0  0  0  0  0  0  0
    8.7615   -9.6375    0.0000 H   0  0  0  0  0  0  0  0  0  0  0  0
    8.0094   -7.0372    0.0000 H   0  0  0  0  0  0  0  0  0  0  0  0
    8.7638   -3.6548    0.0000 C   0  0  0  0  0  0  0  0  0  0  0  0
   10.4901  -11.0164    0.0000 C   0  0  0  0  0  0  0  0  0  0  0  0
    2.1703  -11.5510    0.0000 C   0  0  0  0  0  0  0  0  0  0  0  0
    1.5870  -10.2466    0.0000 O   0  0  0  0  0  0  0  0  0  0  0  0
    2.6716   -9.6405    0.0000 O   0  0  0  0  0  0  0  0  0  0  0  0
    3.3451  -11.1468    0.0000 C   0  0  0  0  0  0  0  0  0  0  0  0
    2.2552  -10.7304    0.0000 C   0  0  1  0  0  0  0  0  0  0  0  0
    3.0084  -10.3936    0.0000 C   0  0  0  0  0  0  0  0  0  0  0  0
    5.9056  -11.2910    0.0000 O   0  0  0  0  0  0  0  0  0  0  0  0
    6.0946   -9.1961    0.0000 O   0  0  0  0  0  0  0  0  0  0  0  0
   12.1314  -11.1862    0.0000 C   0  0  0  0  0  0  0  0  0  0  0  0
   11.7946  -10.4331    0.0000 C   0  0  0  0  0  0  0  0  0  0  0  0
   10.9740  -10.3482    0.0000 C   0  0  2  0  0  0  0  0  0  0  0  0
   10.8253   -7.0799    0.0000 O   0  0  0  0  0  0  0  0  0  0  0  0
   10.8253   -6.2549    0.0000 C   0  0  0  0  0  0  0  0  0  0  0  0
    9.8166   -9.5101    0.0000 O   0  0  0  0  0  0  0  0  0  0  0  0
   10.6372   -9.5950    0.0000 C   0  0  0  0  0  0  0  0  0  0  0  0
   11.1211   -8.9268    0.0000 O   0  0  0  0  0  0  0  0  0  0  0  0
   10.7843   -8.1737    0.0000 O   0  0  0  0  0  0  0  0  0  0  0  0
    3.7602   -9.2319    0.0000 O   0  0  0  0  0  0  0  0  0  0  0  0
    3.7615  -10.0569    0.0000 C   0  0  0  0  0  0  0  0  0  0  0  0
    4.4766  -10.4682    0.0000 O   0  0  0  0  0  0  0  0  0  0  0  0
    5.9029   -8.8160    0.0000 C   0  0  0  0  0  0  0  0  0  0  0  0
    5.1891   -9.2296    0.0000 C   0  0  0  0  0  0  0  0  0  0  0  0
    5.1905  -10.0546    0.0000 C   0  0  1  0  0  0  0  0  0  0  0  0
    5.9056  -10.4660    0.0000 C   0  0  0  0  0  0  0  0  0  0  0  0
    6.6181   -9.2273    0.0000 C   0  0  2  0  0  0  0  0  0  0  0  0
    6.6194  -10.0523    0.0000 C   0  0  2  0  0  0  0  0  0  0  0  0
    7.3345  -10.4637    0.0000 C   0  0  0  0  0  0  0  0  0  0  0  0
    8.0483  -10.0500    0.0000 C   0  0  2  0  0  0  0  0  0  0  0  0
    7.5021   -8.0064    0.0000 C   0  0  0  0  0  0  0  0  0  0  0  0
    7.3319   -8.8137    0.0000 C   0  0  2  0  0  0  0  0  0  0  0  0
    8.0470   -9.2250    0.0000 C   0  0  2  0  0  0  0  0  0  0  0  0
   10.2579   -5.2460    0.0000 C   0  0  0  0  0  0  0  0  0  0  0  0
    9.9211   -4.4929    0.0000 C   0  0  0  0  0  0  0  0  0  0  0  0
    9.1005   -4.4080    0.0000 C   0  0  1  0  0  0  0  0  0  0  0  0
    8.6167   -5.0762    0.0000 C   0  0  0  0  0  0  0  0  0  0  0  0
   10.1108   -6.6674    0.0000 C   0  0  2  0  0  0  0  0  0  0  0  0
    9.7740   -5.9143    0.0000 C   0  0  1  0  0  0  0  0  0  0  0  0
    8.9534   -5.8293    0.0000 N   0  0  0  0  0  0  0  0  0  0  0  0
    8.4696   -6.4975    0.0000 C   0  0  0  0  0  0  0  0  0  0  0  0
    9.9637   -8.0887    0.0000 C   0  0  2  0  0  0  0  0  0  0  0  0
    9.6269   -7.3356    0.0000 C   0  0  1  0  0  0  0  0  0  0  0  0
    8.8063   -7.2507    0.0000 C   0  0  2  0  0  0  0  0  0  0  0  0
    8.3225   -7.9189    0.0000 C   0  0  1  0  0  0  0  0  0  0  0  0
    8.6592   -8.6720    0.0000 C   0  0  2  0  0  0  0  0  0  0  0  0
    9.4798   -8.7570    0.0000 C   0  0  1  0  0  0  0  0  0  0  0  0
 48  1  1  6  0  0  0
 52  2  1  6  0  0  0
 54  3  1  6  0  0  0
 55  4  1  6  0  0  0
 39  5  1  6  0  0  0
 19 41  1  0  0  0  0
 37  6  1  1  0  0  0
 36  7  1  1  0  0  0
 42  8  1  1  0  0  0
 53  9  1  1  0  0  0
 45 10  1  1  0  0  0
 22 11  1  1  0  0  0
 16 12  1  0  0  0  0
 16 13  1  1  0  0  0
 17 14  1  6  0  0  0
 17 15  1  0  0  0  0
 17 16  1  0  0  0  0
 30 17  1  0  0  0  0
 35 18  1  0  0  0  0
 35 19  1  0  0  0  0
 21 20  1  0  0  0  0
 22 21  1  0  0  0  0
 26 22  1  0  0  0  0
 47 23  1  1  0  0  0
 47 24  1  6  0  0  0
 56 25  1  6  0  0  0
 26 25  1  0  0  0  0
 27 26  2  0  0  0  0
 51 28  1  1  0  0  0
 30 29  2  0  0  0  0
 31 30  1  0  0  0  0
 34 31  1  1  0  0  0
 32 36  1  0  0  0  0
 33 32  1  0  0  0  0
 34 33  1  0  0  0  0
 35 34  1  0  0  0  0
 37 35  1  0  0  0  0
 36 41  1  0  0  0  0
 37 36  1  0  0  0  0
 38 37  1  0  0  0  0
 39 38  1  0  0  0  0
 42 39  1  0  0  0  0
 40 54  1  0  0  0  0
 41 40  1  1  0  0  0
 42 41  1  0  0  0  0
 55 42  1  0  0  0  0
 43 48  1  0  0  0  0
 44 43  1  0  0  0  0
 45 44  1  0  0  0  0
 46 45  1  0  0  0  0
 49 46  1  0  0  0  0
 47 52  1  0  0  0  0
 48 47  1  0  0  0  0
 49 48  1  0  0  0  0
 50 49  1  0  0  0  0
 53 50  1  0  0  0  0
 51 56  1  0  0  0  0
 52 51  1  0  0  0  0
 53 52  1  0  0  0  0
 54 53  1  0  0  0  0
 55 54  1  0  0  0  0
 56 55  1  0  0  0  0
M  END
>  <cdx:fragmentId>
5

$$$$
