40040.cdx
  Mrv1902 05222410242D          

 36 39  0  0  0  0            999 V2000
    3.0368   -9.7476    0.0000 C   0  0  0  0  0  0  0  0  0  0  0  0
    3.0368  -10.5726    0.0000 C   0  0  1  0  0  0  0  0  0  0  0  0
    3.7513  -10.9851    0.0000 C   0  0  0  0  0  0  0  0  0  0  0  0
    4.4657  -10.5726    0.0000 C   0  0  1  0  0  0  0  0  0  0  0  0
    4.4657   -9.7476    0.0000 C   0  0  2  0  0  0  0  0  0  0  0  0
    3.7513   -9.3351    0.0000 C   0  0  0  0  0  0  0  0  0  0  0  0
    5.1802  -10.9851    0.0000 C   0  0  0  0  0  0  0  0  0  0  0  0
    5.8947  -10.5726    0.0000 C   0  0  0  0  0  0  0  0  0  0  0  0
    5.8947   -9.7476    0.0000 C   0  0  0  0  0  0  0  0  0  0  0  0
    5.1802   -9.3351    0.0000 C   0  0  0  0  0  0  0  0  0  0  0  0
    6.6092   -9.3351    0.0000 C   0  0  2  0  0  0  0  0  0  0  0  0
    6.6092   -8.5101    0.0000 C   0  0  1  0  0  0  0  0  0  0  0  0
    5.8947   -8.0976    0.0000 C   0  0  0  0  0  0  0  0  0  0  0  0
    5.1802   -8.5101    0.0000 C   0  0  0  0  0  0  0  0  0  0  0  0
    2.3223  -10.9851    0.0000 O   0  0  0  0  0  0  0  0  0  0  0  0
    4.4657   -8.9226    0.0000 C   0  0  0  0  0  0  0  0  0  0  0  0
    3.3388  -11.6996    0.0000 C   0  0  0  0  0  0  0  0  0  0  0  0
    4.1638  -11.6996    0.0000 C   0  0  0  0  0  0  0  0  0  0  0  0
    6.6092  -10.9851    0.0000 O   0  0  0  0  0  0  0  0  0  0  0  0
    6.6092  -10.1601    0.0000 C   0  0  0  0  0  0  0  0  0  0  0  0
    6.6092   -7.6851    0.0000 C   0  0  0  0  0  0  0  0  0  0  0  0
    7.3938   -9.5901    0.0000 C   0  0  0  0  0  0  0  0  0  0  0  0
    7.8787   -8.9226    0.0000 C   0  0  0  0  0  0  0  0  0  0  0  0
    7.3938   -8.2552    0.0000 C   0  0  2  0  0  0  0  0  0  0  0  0
    7.6487   -7.4706    0.0000 C   0  0  2  0  0  0  0  0  0  0  0  0
    7.0654   -6.8872    0.0000 C   0  0  0  0  0  0  0  0  0  0  0  0
    8.4509   -7.2780    0.0000 C   0  0  0  0  0  0  0  0  0  0  0  0
    8.6644   -6.4811    0.0000 C   0  0  0  0  0  0  0  0  0  0  0  0
    9.4613   -6.2676    0.0000 C   0  0  0  0  0  0  0  0  0  0  0  0
    9.6749   -5.4707    0.0000 C   0  0  0  0  0  0  0  0  0  0  0  0
   10.4718   -5.2572    0.0000 C   0  0  0  0  0  0  0  0  0  0  0  0
    9.0915   -4.8873    0.0000 C   0  0  0  0  0  0  0  0  0  0  0  0
    9.3050   -4.0904    0.0000 O   0  0  0  0  0  0  0  0  0  0  0  0
   10.6853   -4.4603    0.0000 O   0  0  0  0  0  0  0  0  0  0  0  0
    8.2086   -8.1262    0.0000 H   0  0  0  0  0  0  0  0  0  0  0  0
    4.4657  -11.3976    0.0000 H   0  0  0  0  0  0  0  0  0  0  0  0
  1  2  1  0  0  0  0
  2  3  1  0  0  0  0
  3  4  1  0  0  0  0
  4  5  1  0  0  0  0
  5  6  1  0  0  0  0
  6  1  1  0  0  0  0
  4  7  1  0  0  0  0
  7  8  1  0  0  0  0
  8  9  1  0  0  0  0
  9 10  2  0  0  0  0
 10  5  1  0  0  0  0
  9 11  1  0  0  0  0
 11 12  1  0  0  0  0
 12 13  1  0  0  0  0
 13 14  1  0  0  0  0
 14 10  1  0  0  0  0
  2 15  1  1  0  0  0
  5 16  1  1  0  0  0
  3 17  1  0  0  0  0
  3 18  1  0  0  0  0
  8 19  2  0  0  0  0
 11 20  1  6  0  0  0
 12 21  1  1  0  0  0
 11 22  1  0  0  0  0
 22 23  1  0  0  0  0
 23 24  1  0  0  0  0
 24 12  1  0  0  0  0
 24 25  1  0  0  0  0
 25 26  1  6  0  0  0
 25 27  1  0  0  0  0
 27 28  1  0  0  0  0
 28 29  1  0  0  0  0
 29 30  2  0  0  0  0
 30 31  1  0  0  0  0
 30 32  1  0  0  0  0
 32 33  1  0  0  0  0
 31 34  1  0  0  0  0
 24 35  1  6  0  0  0
  4 36  1  6  0  0  0
M  END
>  <cdx:fragmentId>
5

$$$$
