4004.cdx
  Mrv1902 05222410212D          

 10  9  0  0  0  0            999 V2000
    5.9152   -6.9506    0.0000 O   0  0  0  0  0  0  0  0  0  0  0  0
    6.6297   -6.5381    0.0000 C   0  0  0  0  0  0  0  0  0  0  0  0
    7.3442   -6.9506    0.0000 C   0  0  0  0  0  0  0  0  0  0  0  0
    8.0587   -6.5381    0.0000 C   0  0  0  0  0  0  0  0  0  0  0  0
    8.7731   -6.9506    0.0000 C   0  0  0  0  0  0  0  0  0  0  0  0
    9.4876   -6.5381    0.0000 C   0  0  0  0  0  0  0  0  0  0  0  0
   10.2021   -6.9506    0.0000 O   0  0  0  0  0  0  0  0  0  0  0  0
    6.6297   -5.7131    0.0000 O   0  0  0  0  0  0  0  0  0  0  0  0
    8.7731   -7.7756    0.0000 O   0  0  0  0  0  0  0  0  0  0  0  0
    9.4876   -5.7131    0.0000 O   0  0  0  0  0  0  0  0  0  0  0  0
  1  2  1  0  0  0  0
  2  3  1  0  0  0  0
  3  4  1  0  0  0  0
  4  5  1  0  0  0  0
  5  6  1  0  0  0  0
  6  7  1  0  0  0  0
  2  8  2  0  0  0  0
  5  9  2  0  0  0  0
  6 10  2  0  0  0  0
M  END
>  <cdx:fragmentId>
3

$$$$
