40042.cdx
  Mrv1902 05222410242D          

 22 22  0  0  0  0            999 V2000
    3.6281  -11.9064    0.0000 C   0  0  2  0  0  0  0  0  0  0  0  0
    3.6281  -12.7314    0.0000 C   0  0  2  0  0  0  0  0  0  0  0  0
    4.3425  -13.1439    0.0000 C   0  0  1  0  0  0  0  0  0  0  0  0
    5.0570  -12.7314    0.0000 C   0  0  2  0  0  0  0  0  0  0  0  0
    5.0570  -11.9064    0.0000 C   0  0  1  0  0  0  0  0  0  0  0  0
    4.3425  -11.4939    0.0000 O   0  0  0  0  0  0  0  0  0  0  0  0
    5.7715  -13.1439    0.0000 O   0  0  0  0  0  0  0  0  0  0  0  0
    5.7715  -11.4939    0.0000 O   0  0  0  0  0  0  0  0  0  0  0  0
    6.4859  -10.2564    0.0000 C   0  0  0  0  0  0  0  0  0  0  0  0
    5.7715  -10.6689    0.0000 C   0  0  0  0  0  0  0  0  0  0  0  0
    7.2004   -9.0189    0.0000 C   0  0  0  0  0  0  0  0  0  0  0  0
    6.4859   -9.4314    0.0000 C   0  0  0  0  0  0  0  0  0  0  0  0
    2.9136  -11.4939    0.0000 C   0  0  0  0  0  0  0  0  0  0  0  0
    2.1991  -11.9064    0.0000 O   0  0  0  0  0  0  0  0  0  0  0  0
    4.3425  -13.9689    0.0000 O   0  0  0  0  0  0  0  0  0  0  0  0
    2.9136  -13.1439    0.0000 O   0  0  0  0  0  0  0  0  0  0  0  0
    5.7715   -9.0189    0.0000 C   0  0  0  0  0  0  0  0  0  0  0  0
    7.2004   -8.1939    0.0000 C   0  0  0  0  0  0  0  0  0  0  0  0
    7.9149   -7.7814    0.0000 C   0  0  0  0  0  0  0  0  0  0  0  0
    7.9149   -6.9564    0.0000 C   0  0  0  0  0  0  0  0  0  0  0  0
    8.6294   -6.5439    0.0000 C   0  0  0  0  0  0  0  0  0  0  0  0
    7.2004   -6.5439    0.0000 C   0  0  0  0  0  0  0  0  0  0  0  0
  1  2  1  0  0  0  0
  2  3  1  0  0  0  0
  3  4  1  0  0  0  0
  4  5  1  0  0  0  0
  5  6  1  0  0  0  0
  6  1  1  0  0  0  0
  4  7  1  6  0  0  0
  5  8  1  1  0  0  0
  9 10  1  0  0  0  0
 10  8  1  0  0  0  0
 11 12  1  0  0  0  0
 12  9  2  0  0  0  0
  1 13  1  1  0  0  0
 13 14  1  0  0  0  0
  3 15  1  1  0  0  0
  2 16  1  6  0  0  0
 12 17  1  0  0  0  0
 11 18  1  0  0  0  0
 18 19  1  0  0  0  0
 19 20  2  0  0  0  0
 20 21  1  0  0  0  0
 20 22  1  0  0  0  0
M  END
>  <cdx:fragmentId>
5

$$$$
