40047.cdx
  Mrv1902 05222410242D          

 34 35  0  0  0  0            999 V2000
    7.7447   -9.1589    0.0000 C   0  0  2  0  0  0  0  0  0  0  0  0
    8.5842   -8.9006    0.0000 C   0  0  2  0  0  0  0  0  0  0  0  0
    8.0268   -8.1005    0.0000 C   0  0  0  0  0  0  0  0  0  0  0  0
    7.1588   -8.0816    0.0000 C   0  0  0  0  0  0  0  0  0  0  0  0
    5.6909   -8.1176    0.0000 C   0  0  0  0  0  0  0  0  0  0  0  0
    5.1524   -8.7247    0.0000 C   0  0  0  0  0  0  0  0  0  0  0  0
    5.6080   -9.3501    0.0000 C   0  0  0  0  0  0  0  0  0  0  0  0
    6.8890   -8.7398    0.0000 C   0  0  0  0  0  0  0  0  0  0  0  0
    6.4765   -7.3019    0.0000 C   0  0  0  0  0  0  0  0  0  0  0  0
    5.3434   -7.3694    0.0000 O   0  0  0  0  0  0  0  0  0  0  0  0
    6.0816   -6.5776    0.0000 O   0  0  0  0  0  0  0  0  0  0  0  0
    7.3723   -7.2847    0.0000 C   0  0  0  0  0  0  0  0  0  0  0  0
    8.1973   -7.2847    0.0000 C   0  0  0  0  0  0  0  0  0  0  0  0
    8.4108   -6.4878    0.0000 C   0  0  0  0  0  0  0  0  0  0  0  0
    7.8274   -5.9045    0.0000 C   0  0  0  0  0  0  0  0  0  0  0  0
    9.2077   -6.2743    0.0000 C   0  0  0  0  0  0  0  0  0  0  0  0
    5.2548  -10.0737    0.0000 O   0  0  0  0  0  0  0  0  0  0  0  0
    6.4765   -9.4542    0.0000 C   0  0  0  0  0  0  0  0  0  0  0  0
    7.0265  -10.2787    0.0000 C   0  0  0  0  0  0  0  0  0  0  0  0
    5.9402  -10.0037    0.0000 O   0  0  0  0  0  0  0  0  0  0  0  0
    6.6140  -10.9932    0.0000 C   0  0  0  0  0  0  0  0  0  0  0  0
    7.7277  -10.4987    0.0000 C   0  0  0  0  0  0  0  0  0  0  0  0
    9.3642   -9.1693    0.0000 C   0  0  0  0  0  0  0  0  0  0  0  0
    9.9476   -8.5860    0.0000 C   0  0  0  0  0  0  0  0  0  0  0  0
   10.7445   -8.7995    0.0000 C   0  0  0  0  0  0  0  0  0  0  0  0
   11.3278   -8.2161    0.0000 C   0  0  0  0  0  0  0  0  0  0  0  0
   10.9580   -9.5964    0.0000 C   0  0  0  0  0  0  0  0  0  0  0  0
    8.3280   -9.7422    0.0000 C   0  0  0  0  0  0  0  0  0  0  0  0
    8.3280  -10.5672    0.0000 C   0  0  0  0  0  0  0  0  0  0  0  0
    9.0425  -10.9797    0.0000 C   0  0  0  0  0  0  0  0  0  0  0  0
    9.0425  -11.8047    0.0000 C   0  0  0  0  0  0  0  0  0  0  0  0
    9.7570  -12.2172    0.0000 C   0  0  0  0  0  0  0  0  0  0  0  0
    8.3280  -12.2172    0.0000 C   0  0  0  0  0  0  0  0  0  0  0  0
    7.5311   -9.9558    0.0000 C   0  0  0  0  0  0  0  0  0  0  0  0
  8  1  1  0  0  0  0
  1  2  1  0  0  0  0
  2  3  1  0  0  0  0
  3  4  1  0  0  0  0
  4  9  1  0  0  0  0
  4  5  1  0  0  0  0
  5  6  2  0  0  0  0
  7  6  1  0  0  0  0
  8  7  1  0  0  0  0
  8  9  1  0  0  0  0
  5 10  1  0  0  0  0
  9 11  2  0  0  0  0
  4 12  1  0  0  0  0
 12 13  1  0  0  0  0
 13 14  2  0  0  0  0
 14 15  1  0  0  0  0
 14 16  1  0  0  0  0
  7 17  2  0  0  0  0
  8 18  1  0  0  0  0
 18 19  1  0  0  0  0
 18 20  2  0  0  0  0
 19 21  1  0  0  0  0
 19 22  1  0  0  0  0
  2 23  1  6  0  0  0
 23 24  1  0  0  0  0
 24 25  2  0  0  0  0
 25 26  1  0  0  0  0
 25 27  1  0  0  0  0
  1 28  1  0  0  0  0
 28 29  1  0  0  0  0
 29 30  1  0  0  0  0
 30 31  2  0  0  0  0
 31 32  1  0  0  0  0
 31 33  1  0  0  0  0
  1 34  1  6  0  0  0
M  END
>  <cdx:groupId>
819

>  <cdx:fragmentId>
820

$$$$
