40046.cdx
  Mrv1902 05222410252D          

 30 33  0  0  0  0            999 V2000
    5.4156  -13.5151    0.0000 C   0  0  2  0  0  0  0  0  0  0  0  0
    5.4156  -14.3401    0.0000 C   0  0  2  0  0  0  0  0  0  0  0  0
    6.1300  -14.7526    0.0000 C   0  0  1  0  0  0  0  0  0  0  0  0
    6.8445  -14.3401    0.0000 C   0  0  2  0  0  0  0  0  0  0  0  0
    6.8445  -13.5151    0.0000 C   0  0  1  0  0  0  0  0  0  0  0  0
    6.1300  -13.1026    0.0000 O   0  0  0  0  0  0  0  0  0  0  0  0
    7.5590  -13.1026    0.0000 O   0  0  0  0  0  0  0  0  0  0  0  0
    7.5590  -12.2776    0.0000 C   0  0  0  0  0  0  0  0  0  0  0  0
    6.8445  -11.8651    0.0000 C   0  0  0  0  0  0  0  0  0  0  0  0
    8.2734  -11.8651    0.0000 C   0  0  0  0  0  0  0  0  0  0  0  0
    8.2734  -11.0401    0.0000 C   0  0  0  0  0  0  0  0  0  0  0  0
    7.5590  -10.6276    0.0000 C   0  0  0  0  0  0  0  0  0  0  0  0
    6.8445  -11.0401    0.0000 C   0  0  0  0  0  0  0  0  0  0  0  0
    7.5590   -9.8026    0.0000 C   0  0  0  0  0  0  0  0  0  0  0  0
    6.8445   -9.3901    0.0000 O   0  0  0  0  0  0  0  0  0  0  0  0
    8.2734   -9.3901    0.0000 C   0  0  0  0  0  0  0  0  0  0  0  0
    8.2734   -8.5651    0.0000 C   0  0  0  0  0  0  0  0  0  0  0  0
    7.5590   -8.1526    0.0000 C   0  0  0  0  0  0  0  0  0  0  0  0
    6.8445   -8.5651    0.0000 C   0  0  0  0  0  0  0  0  0  0  0  0
    8.9879   -8.1526    0.0000 C   0  0  0  0  0  0  0  0  0  0  0  0
    8.9879   -7.3276    0.0000 C   0  0  0  0  0  0  0  0  0  0  0  0
    8.2734   -6.9151    0.0000 C   0  0  0  0  0  0  0  0  0  0  0  0
    7.5590   -7.3276    0.0000 C   0  0  0  0  0  0  0  0  0  0  0  0
    6.1300   -8.1526    0.0000 O   0  0  0  0  0  0  0  0  0  0  0  0
    6.8445   -6.9151    0.0000 O   0  0  0  0  0  0  0  0  0  0  0  0
    4.7011  -13.1026    0.0000 C   0  0  0  0  0  0  0  0  0  0  0  0
    3.9866  -13.5151    0.0000 O   0  0  0  0  0  0  0  0  0  0  0  0
    6.1300  -15.5776    0.0000 O   0  0  0  0  0  0  0  0  0  0  0  0
    4.7011  -14.7526    0.0000 O   0  0  0  0  0  0  0  0  0  0  0  0
    7.5590  -14.7526    0.0000 O   0  0  0  0  0  0  0  0  0  0  0  0
  1  2  1  0  0  0  0
  2  3  1  0  0  0  0
  3  4  1  0  0  0  0
  4  5  1  0  0  0  0
  5  6  1  0  0  0  0
  6  1  1  0  0  0  0
  5  7  1  1  0  0  0
  7  8  1  0  0  0  0
  8  9  1  0  0  0  0
  8 10  2  0  0  0  0
 10 11  1  0  0  0  0
 11 12  2  0  0  0  0
 12 13  1  0  0  0  0
 13  9  2  0  0  0  0
 12 14  1  0  0  0  0
 14 15  1  0  0  0  0
 14 16  1  0  0  0  0
 16 17  1  0  0  0  0
 17 18  2  0  0  0  0
 18 19  1  0  0  0  0
 19 15  1  0  0  0  0
 17 20  1  0  0  0  0
 20 21  2  0  0  0  0
 21 22  1  0  0  0  0
 22 23  2  0  0  0  0
 23 18  1  0  0  0  0
 19 24  2  0  0  0  0
 23 25  1  0  0  0  0
  1 26  1  1  0  0  0
 26 27  1  0  0  0  0
  3 28  1  1  0  0  0
  2 29  1  6  0  0  0
  4 30  1  6  0  0  0
M  END
>  <cdx:fragmentId>
5

$$$$
