400592.cdx
  Mrv1902 05222410242D          

 35 39  0  0  0  0            999 V2000
    5.7173  -11.1029    0.0000 H   0  0  0  0  0  0  0  0  0  0  0  0
    4.9961  -12.3293    0.0000 H   0  0  0  0  0  0  0  0  0  0  0  0
    2.8594  -11.8832    0.0000 O   0  0  0  0  0  0  0  0  0  0  0  0
    9.2844   -9.6621    0.0000 O   0  0  0  0  0  0  0  0  0  0  0  0
    9.4788   -6.8109    0.0000 C   0  0  0  0  0  0  0  0  0  0  0  0
   11.8509   -8.4048    0.0000 C   0  0  0  0  0  0  0  0  0  0  0  0
   10.6648   -7.6079    0.0000 C   0  0  0  0  0  0  0  0  0  0  0  0
   11.0278   -8.3487    0.0000 C   0  0  1  0  0  0  0  0  0  0  0  0
   10.5676   -9.0335    0.0000 C   0  0  0  0  0  0  0  0  0  0  0  0
    9.7446   -8.9774    0.0000 C   0  0  2  0  0  0  0  0  0  0  0  0
    9.3816   -8.2365    0.0000 C   0  0  0  0  0  0  0  0  0  0  0  0
    9.8417   -7.5517    0.0000 N   0  0  0  0  0  0  0  0  0  0  0  0
    8.2348   -7.4215    0.0000 C   0  0  0  0  0  0  0  0  0  0  0  0
    8.5585   -8.1804    0.0000 C   0  0  2  0  0  0  0  0  0  0  0  0
    6.9205   -7.9822    0.0000 C   0  0  0  0  0  0  0  0  0  0  0  0
    5.0476   -9.8549    0.0000 C   0  0  0  0  0  0  0  0  0  0  0  0
    5.7040  -12.7530    0.0000 O   0  0  0  0  0  0  0  0  0  0  0  0
    4.3141  -10.2558    0.0000 C   0  0  0  0  0  0  0  0  0  0  0  0
    3.5933  -10.6570    0.0000 C   0  0  0  0  0  0  0  0  0  0  0  0
    3.5803  -11.4819    0.0000 C   0  0  1  0  0  0  0  0  0  0  0  0
    4.2882  -11.9056    0.0000 C   0  0  0  0  0  0  0  0  0  0  0  0
    6.7488   -9.4007    0.0000 C   0  0  0  0  0  0  0  0  0  0  0  0
    7.2441   -8.7410    0.0000 C   0  0  2  0  0  0  0  0  0  0  0  0
    8.0632   -8.8401    0.0000 C   0  0  2  0  0  0  0  0  0  0  0  0
    8.3868   -9.5990    0.0000 C   0  0  0  0  0  0  0  0  0  0  0  0
    7.8915  -10.2587    0.0000 C   0  0  0  0  0  0  0  0  0  0  0  0
    7.0725  -10.1596    0.0000 C   0  0  0  0  0  0  0  0  0  0  0  0
    6.4508  -10.7019    0.0000 C   0  0  0  0  0  0  0  0  0  0  0  0
    6.4378  -11.5268    0.0000 C   0  0  0  0  0  0  0  0  0  0  0  0
    5.7170  -11.9281    0.0000 C   0  0  0  0  0  0  0  0  0  0  0  0
    5.0091  -11.5044    0.0000 C   0  0  2  0  0  0  0  0  0  0  0  0
    5.0220  -10.6795    0.0000 C   0  0  2  0  0  0  0  0  0  0  0  0
    5.7429  -10.2783    0.0000 C   0  0  1  0  0  0  0  0  0  0  0  0
    5.9271   -9.4741    0.0000 C   0  0  0  0  0  0  0  0  0  0  0  0
    8.8882   -8.8401    0.0000 H   0  0  0  0  0  0  0  0  0  0  0  0
 33  1  1  6  0  0  0
 31  2  1  6  0  0  0
 20  3  1  1  0  0  0
 24 14  1  0  0  0  0
 14 11  1  0  0  0  0
 10  4  1  1  0  0  0
 12  5  1  0  0  0  0
  8  6  1  6  0  0  0
 12  7  1  0  0  0  0
  8  7  1  0  0  0  0
  9  8  1  0  0  0  0
 10  9  1  0  0  0  0
 11 10  1  0  0  0  0
 11 12  1  0  0  0  0
 14 13  1  1  0  0  0
 23 15  1  1  0  0  0
 32 16  1  1  0  0  0
 30 17  2  0  0  0  0
 21 31  1  0  0  0  0
 18 32  1  0  0  0  0
 19 18  1  0  0  0  0
 20 19  1  0  0  0  0
 21 20  1  0  0  0  0
 34 22  1  0  0  0  0
 27 22  2  0  0  0  0
 23 22  1  0  0  0  0
 24 23  1  0  0  0  0
 24 25  1  0  0  0  0
 26 25  1  0  0  0  0
 27 26  1  0  0  0  0
 28 27  1  0  0  0  0
 33 28  1  0  0  0  0
 29 28  2  0  0  0  0
 30 29  1  0  0  0  0
 31 30  1  0  0  0  0
 32 31  1  0  0  0  0
 33 32  1  0  0  0  0
 34 33  1  0  0  0  0
 24 35  1  6  0  0  0
M  END
>  <cdx:groupId>
241346

>  <cdx:fragmentId>
241243

$$$$
