40057.cdx
  Mrv1902 05222410242D          

 24 27  0  0  0  0            999 V2000
    4.6868   -7.8914    0.0000 C   0  0  0  0  0  0  0  0  0  0  0  0
    4.6868   -8.7164    0.0000 C   0  0  0  0  0  0  0  0  0  0  0  0
    5.4013   -9.1289    0.0000 C   0  0  0  0  0  0  0  0  0  0  0  0
    6.1157   -8.7164    0.0000 N   0  0  0  0  0  0  0  0  0  0  0  0
    6.1157   -7.8914    0.0000 C   0  0  0  0  0  0  0  0  0  0  0  0
    5.4013   -7.4789    0.0000 C   0  0  0  0  0  0  0  0  0  0  0  0
    6.8302   -9.1289    0.0000 C   0  0  0  0  0  0  0  0  0  0  0  0
    7.5447   -8.7164    0.0000 C   0  0  0  0  0  0  0  0  0  0  0  0
    7.5447   -7.8914    0.0000 C   0  0  0  0  0  0  0  0  0  0  0  0
    6.8302   -7.4789    0.0000 C   0  0  0  0  0  0  0  0  0  0  0  0
    6.1628   -9.6138    0.0000 C   0  0  0  0  0  0  0  0  0  0  0  0
    6.4177  -10.3984    0.0000 N   0  0  0  0  0  0  0  0  0  0  0  0
    7.2427  -10.3984    0.0000 C   0  0  0  0  0  0  0  0  0  0  0  0
    7.4977   -9.6138    0.0000 C   0  0  0  0  0  0  0  0  0  0  0  0
    7.7947  -11.0115    0.0000 C   0  0  0  0  0  0  0  0  0  0  0  0
    8.6017  -10.8400    0.0000 C   0  0  0  0  0  0  0  0  0  0  0  0
    8.8567  -10.0554    0.0000 C   0  0  0  0  0  0  0  0  0  0  0  0
    8.3046   -9.4423    0.0000 C   0  0  0  0  0  0  0  0  0  0  0  0
    5.4013   -9.9539    0.0000 C   0  0  0  0  0  0  0  0  0  0  0  0
    3.9723   -9.1289    0.0000 C   0  0  0  0  0  0  0  0  0  0  0  0
    3.9723   -9.9539    0.0000 O   0  0  0  0  0  0  0  0  0  0  0  0
    3.2579   -8.7164    0.0000 O   0  0  0  0  0  0  0  0  0  0  0  0
    3.9723   -7.4789    0.0000 O   0  0  0  0  0  0  0  0  0  0  0  0
    5.3659   -9.4003    0.0000 O   0  0  0  0  0  0  0  0  0  0  0  0
  1  2  1  0  0  0  0
  2  3  2  0  0  0  0
  3  4  1  0  0  0  0
  4  5  1  0  0  0  0
  5  6  1  0  0  0  0
  6  1  1  0  0  0  0
  4  7  1  0  0  0  0
  7  8  1  0  0  0  0
  8  9  1  0  0  0  0
  9 10  1  0  0  0  0
 10  5  1  0  0  0  0
  7 11  1  0  0  0  0
 11 12  1  0  0  0  0
 12 13  1  0  0  0  0
 13 14  2  0  0  0  0
 14  7  1  0  0  0  0
 13 15  1  0  0  0  0
 15 16  2  0  0  0  0
 16 17  1  0  0  0  0
 17 18  2  0  0  0  0
 18 14  1  0  0  0  0
  3 19  1  0  0  0  0
  2 20  1  0  0  0  0
 20 21  2  0  0  0  0
 20 22  1  0  0  0  0
  1 23  2  0  0  0  0
 11 24  2  0  0  0  0
M  END
>  <cdx:fragmentId>
5

$$$$
