40059.cdx
  Mrv1902 05222410222D          

 15 16  0  0  0  0            999 V2000
    7.2474   -6.3603    0.0000 C   0  0  2  0  0  0  0  0  0  0  0  0
    8.0442   -6.1462    0.0000 C   0  0  1  0  0  0  0  0  0  0  0  0
    8.8409   -6.3603    0.0000 C   0  0  0  0  0  0  0  0  0  0  0  0
    9.2546   -5.6466    0.0000 C   0  0  0  0  0  0  0  0  0  0  0  0
    7.1798   -5.7291    0.0000 C   0  0  0  0  0  0  0  0  0  0  0  0
    8.4578   -5.4325    0.0000 C   0  0  1  0  0  0  0  0  0  0  0  0
    8.0456   -4.7188    0.0000 C   0  0  0  0  0  0  0  0  0  0  0  0
    7.4623   -4.1355    0.0000 C   0  0  0  0  0  0  0  0  0  0  0  0
    8.2591   -3.9219    0.0000 C   0  0  0  0  0  0  0  0  0  0  0  0
    6.7811   -7.0409    0.0000 O   0  0  0  0  0  0  0  0  0  0  0  0
    5.9561   -7.0409    0.0000 C   0  0  0  0  0  0  0  0  0  0  0  0
    5.5436   -7.7554    0.0000 C   0  0  0  0  0  0  0  0  0  0  0  0
    5.5436   -6.3264    0.0000 O   0  0  0  0  0  0  0  0  0  0  0  0
    7.8306   -6.9431    0.0000 C   0  0  0  0  0  0  0  0  0  0  0  0
    8.8703   -4.7181    0.0000 H   0  0  0  0  0  0  0  0  0  0  0  0
  1  2  1  0  0  0  0
  2  3  1  0  0  0  0
  3  4  1  0  0  0  0
  1  5  1  0  0  0  0
  5  6  1  0  0  0  0
  4  6  1  0  0  0  0
  6  7  1  0  0  0  0
  2  7  1  0  0  0  0
  7  8  1  0  0  0  0
  7  9  1  0  0  0  0
  1 10  1  1  0  0  0
 10 11  1  0  0  0  0
 11 12  1  0  0  0  0
 11 13  2  0  0  0  0
  2 14  1  1  0  0  0
  6 15  1  6  0  0  0
M  END
>  <cdx:fragmentId>
800

$$$$
