400593.cdx
  Mrv1902 05222410242D          

 38 43  0  0  0  0            999 V2000
    6.8879  -11.9471    0.0000 H   0  0  0  0  0  0  0  0  0  0  0  0
    6.1715  -13.1840    0.0000 H   0  0  0  0  0  0  0  0  0  0  0  0
    8.3165  -11.9478    0.0000 H   0  0  0  0  0  0  0  0  0  0  0  0
    8.6281  -11.6983    0.0000 H   0  0  0  0  0  0  0  0  0  0  0  0
    8.7742   -8.9354    0.0000 H   0  0  0  0  0  0  0  0  0  0  0  0
    8.9249   -7.5144    0.0000 H   0  0  0  0  0  0  0  0  0  0  0  0
    8.7788  -10.2773    0.0000 H   0  0  0  0  0  0  0  0  0  0  0  0
    7.4682   -9.5154    0.0000 H   0  0  0  0  0  0  0  0  0  0  0  0
    8.3328   -5.9669    0.0000 C   0  0  0  0  0  0  0  0  0  0  0  0
   10.4926   -9.0699    0.0000 C   0  0  0  0  0  0  0  0  0  0  0  0
    6.1731  -10.7090    0.0000 C   0  0  0  0  0  0  0  0  0  0  0  0
    4.0285  -12.7694    0.0000 O   0  0  0  0  0  0  0  0  0  0  0  0
    6.8856  -13.5971    0.0000 O   0  0  0  0  0  0  0  0  0  0  0  0
    7.0602  -10.3153    0.0000 C   0  0  0  0  0  0  0  0  0  0  0  0
    6.8879  -11.1221    0.0000 C   0  0  2  0  0  0  0  0  0  0  0  0
    6.1731  -11.5340    0.0000 C   0  0  2  0  0  0  0  0  0  0  0  0
    5.4590  -11.1208    0.0000 C   0  0  0  0  0  0  0  0  0  0  0  0
    4.7441  -11.5326    0.0000 C   0  0  0  0  0  0  0  0  0  0  0  0
    4.7433  -12.3576    0.0000 C   0  0  1  0  0  0  0  0  0  0  0  0
    5.4574  -12.7708    0.0000 C   0  0  0  0  0  0  0  0  0  0  0  0
    6.1723  -12.3590    0.0000 C   0  0  2  0  0  0  0  0  0  0  0  0
    6.8864  -12.7721    0.0000 C   0  0  1  0  0  0  0  0  0  0  0  0
    7.6012  -12.3603    0.0000 C   0  0  0  0  0  0  0  0  0  0  0  0
    7.6020  -11.5353    0.0000 C   0  0  1  0  0  0  0  0  0  0  0  0
    8.2156  -10.9838    0.0000 C   0  0  2  0  0  0  0  0  0  0  0  0
    9.0360  -11.0708    0.0000 C   0  0  0  0  0  0  0  0  0  0  0  0
    9.5215  -10.4039    0.0000 C   0  0  0  0  0  0  0  0  0  0  0  0
    9.1867   -9.6499    0.0000 C   0  0  2  0  0  0  0  0  0  0  0  0
    9.6722   -8.9829    0.0000 C   0  0  2  0  0  0  0  0  0  0  0  0
    9.3374   -8.2289    0.0000 C   0  0  2  0  0  0  0  0  0  0  0  0
    9.8229   -7.5619    0.0000 C   0  0  0  0  0  0  0  0  0  0  0  0
    9.4881   -6.8079    0.0000 C   0  0  0  0  0  0  0  0  0  0  0  0
    8.6677   -6.7209    0.0000 C   0  0  2  0  0  0  0  0  0  0  0  0
    8.1821   -7.3879    0.0000 C   0  0  0  0  0  0  0  0  0  0  0  0
    8.5170   -8.1419    0.0000 N   0  0  0  0  0  0  0  0  0  0  0  0
    8.0314   -8.8089    0.0000 C   0  0  0  0  0  0  0  0  0  0  0  0
    8.3663   -9.5629    0.0000 C   0  0  1  0  0  0  0  0  0  0  0  0
    7.8807  -10.2298    0.0000 C   0  0  2  0  0  0  0  0  0  0  0  0
 15  1  1  6  0  0  0
 21  2  1  6  0  0  0
 24  3  1  1  0  0  0
 25  4  1  6  0  0  0
 28  5  1  6  0  0  0
 30  6  1  6  0  0  0
 37  7  1  1  0  0  0
 38  8  1  6  0  0  0
 33  9  1  6  0  0  0
 29 10  1  6  0  0  0
 16 11  1  1  0  0  0
 19 12  1  1  0  0  0
 22 13  1  1  0  0  0
 35 30  1  0  0  0  0
 37 28  1  0  0  0  0
 21 16  1  0  0  0  0
 24 15  1  0  0  0  0
 38 25  1  0  0  0  0
 38 14  1  0  0  0  0
 15 14  1  0  0  0  0
 16 15  1  0  0  0  0
 17 16  1  0  0  0  0
 18 17  1  0  0  0  0
 19 18  1  0  0  0  0
 20 19  1  0  0  0  0
 21 20  1  0  0  0  0
 22 21  1  0  0  0  0
 23 22  1  0  0  0  0
 24 23  1  0  0  0  0
 25 24  1  0  0  0  0
 26 25  1  0  0  0  0
 27 26  1  0  0  0  0
 28 27  1  0  0  0  0
 29 28  1  0  0  0  0
 30 29  1  0  0  0  0
 31 30  1  0  0  0  0
 32 31  1  0  0  0  0
 33 32  1  0  0  0  0
 34 33  1  0  0  0  0
 35 34  1  0  0  0  0
 36 35  1  0  0  0  0
 37 36  1  0  0  0  0
 38 37  1  0  0  0  0
M  END
>  <cdx:groupId>
241479

>  <cdx:fragmentId>
241363

$$$$
