40053.cdx
  Mrv1902 05222410242D          

 17 20  0  0  0  0            999 V2000
    4.0956   -6.3789    0.0000 N   0  0  0  0  0  0  0  0  0  0  0  0
    4.0956   -7.2039    0.0000 C   0  0  0  0  0  0  0  0  0  0  0  0
    4.8100   -7.6164    0.0000 N   0  0  0  0  0  0  0  0  0  0  0  0
    5.5245   -7.2039    0.0000 C   0  0  0  0  0  0  0  0  0  0  0  0
    5.5245   -6.3789    0.0000 C   0  0  0  0  0  0  0  0  0  0  0  0
    4.8100   -5.9664    0.0000 C   0  0  0  0  0  0  0  0  0  0  0  0
    6.2390   -7.6164    0.0000 C   0  0  0  0  0  0  0  0  0  0  0  0
    6.9534   -7.2039    0.0000 C   0  0  0  0  0  0  0  0  0  0  0  0
    6.9534   -6.3789    0.0000 C   0  0  0  0  0  0  0  0  0  0  0  0
    6.2390   -5.9664    0.0000 C   0  0  0  0  0  0  0  0  0  0  0  0
    6.4105   -8.4234    0.0000 C   0  0  0  0  0  0  0  0  0  0  0  0
    7.2310   -8.5096    0.0000 C   0  0  0  0  0  0  0  0  0  0  0  0
    7.5665   -7.7559    0.0000 N   0  0  0  0  0  0  0  0  0  0  0  0
    5.9256   -9.0908    0.0000 C   0  0  0  0  0  0  0  0  0  0  0  0
    6.2611   -9.8445    0.0000 C   0  0  0  0  0  0  0  0  0  0  0  0
    7.0816   -9.9307    0.0000 C   0  0  0  0  0  0  0  0  0  0  0  0
    7.5665   -9.2633    0.0000 C   0  0  0  0  0  0  0  0  0  0  0  0
  1  2  2  0  0  0  0
  2  3  1  0  0  0  0
  3  4  2  0  0  0  0
  4  5  1  0  0  0  0
  5  6  2  0  0  0  0
  6  1  1  0  0  0  0
  4  7  1  0  0  0  0
  7  8  2  0  0  0  0
  8  9  1  0  0  0  0
  9 10  2  0  0  0  0
 10  5  1  0  0  0  0
  7 11  1  0  0  0  0
 11 12  2  0  0  0  0
 12 13  1  0  0  0  0
 13  8  1  0  0  0  0
 11 14  1  0  0  0  0
 14 15  2  0  0  0  0
 15 16  1  0  0  0  0
 16 17  2  0  0  0  0
 17 12  1  0  0  0  0
M  END
>  <cdx:fragmentId>
5

$$$$
