40050.cdx
  Mrv1902 05222410252D          

 40 45  0  0  0  0            999 V2000
    5.6850  -11.3996    0.0000 C   0  0  0  0  0  0  0  0  0  0  0  0
    5.6857  -12.2246    0.0000 C   0  0  1  0  0  0  0  0  0  0  0  0
    6.4005  -12.6365    0.0000 C   0  0  0  0  0  0  0  0  0  0  0  0
    7.1147  -12.2234    0.0000 C   0  0  1  0  0  0  0  0  0  0  0  0
    7.1140  -11.3984    0.0000 C   0  0  2  0  0  0  0  0  0  0  0  0
    6.3992  -10.9865    0.0000 C   0  0  0  0  0  0  0  0  0  0  0  0
    7.8295  -12.6353    0.0000 C   0  0  0  0  0  0  0  0  0  0  0  0
    8.5436  -12.2222    0.0000 C   0  0  0  0  0  0  0  0  0  0  0  0
    8.5429  -11.3972    0.0000 C   0  0  2  0  0  0  0  0  0  0  0  0
    7.8281  -10.9853    0.0000 C   0  0  2  0  0  0  0  0  0  0  0  0
    7.8302  -13.4603    0.0000 O   0  0  0  0  0  0  0  0  0  0  0  0
    4.9716  -12.6377    0.0000 O   0  0  0  0  0  0  0  0  0  0  0  0
    7.1133  -10.5734    0.0000 C   0  0  0  0  0  0  0  0  0  0  0  0
    9.1556  -10.8446    0.0000 C   0  0  1  0  0  0  0  0  0  0  0  0
    8.8194  -10.0912    0.0000 C   0  0  1  0  0  0  0  0  0  0  0  0
    7.9990  -10.1782    0.0000 C   0  0  0  0  0  0  0  0  0  0  0  0
    9.9761  -10.9302    0.0000 C   0  0  0  0  0  0  0  0  0  0  0  0
   10.4605  -10.2624    0.0000 C   0  0  0  0  0  0  0  0  0  0  0  0
   10.1243   -9.5090    0.0000 C   0  0  2  0  0  0  0  0  0  0  0  0
    9.3037   -9.4234    0.0000 C   0  0  1  0  0  0  0  0  0  0  0  0
   10.6087   -8.8411    0.0000 C   0  0  2  0  0  0  0  0  0  0  0  0
   10.2725   -8.0877    0.0000 C   0  0  1  0  0  0  0  0  0  0  0  0
    9.4519   -8.0022    0.0000 N   0  3  0  0  0  0  0  0  0  0  0  0
    8.9676   -8.6700    0.0000 C   0  0  0  0  0  0  0  0  0  0  0  0
   10.7568   -7.4199    0.0000 C   0  0  0  0  0  0  0  0  0  0  0  0
   10.4207   -6.6665    0.0000 C   0  0  0  0  0  0  0  0  0  0  0  0
    9.6001   -6.5809    0.0000 C   0  0  1  0  0  0  0  0  0  0  0  0
    9.1157   -7.2488    0.0000 C   0  0  0  0  0  0  0  0  0  0  0  0
    9.2639   -5.8275    0.0000 C   0  0  0  0  0  0  0  0  0  0  0  0
    7.1154  -13.0484    0.0000 H   0  0  0  0  0  0  0  0  0  0  0  0
    9.5687  -11.5588    0.0000 H   0  0  0  0  0  0  0  0  0  0  0  0
    8.4063   -9.3771    0.0000 H   0  0  0  0  0  0  0  0  0  0  0  0
    9.7168  -10.1375    0.0000 H   0  0  0  0  0  0  0  0  0  0  0  0
    9.7112   -8.7948    0.0000 H   0  0  0  0  0  0  0  0  0  0  0  0
   11.3235   -9.2530    0.0000 C   0  0  0  0  0  0  0  0  0  0  0  0
    9.8594   -7.3736    0.0000 H   0  0  0  0  0  0  0  0  0  0  0  0
    7.8288  -11.8103    0.0000 H   0  0  0  0  0  0  0  0  0  0  0  0
    9.1268  -11.9801    0.0000 H   0  0  0  0  0  0  0  0  0  0  0  0
   11.3228   -8.4280    0.0000 O   0  0  0  0  0  0  0  0  0  0  0  0
    8.6550   -7.7886    0.0000 O   0  5  0  0  0  0  0  0  0  0  0  0
  1  2  1  0  0  0  0
  2  3  1  0  0  0  0
  3  4  1  0  0  0  0
  4  5  1  0  0  0  0
  5  6  1  0  0  0  0
  6  1  1  0  0  0  0
  4  7  1  0  0  0  0
  7  8  1  0  0  0  0
  8  9  1  0  0  0  0
  9 10  1  0  0  0  0
 10  5  1  0  0  0  0
  7 11  2  0  0  0  0
  2 12  1  1  0  0  0
  5 13  1  1  0  0  0
  9 14  1  0  0  0  0
 14 15  1  0  0  0  0
 15 16  1  0  0  0  0
 16 10  1  0  0  0  0
 14 17  1  0  0  0  0
 17 18  1  0  0  0  0
 18 19  1  0  0  0  0
 19 20  1  0  0  0  0
 20 15  1  0  0  0  0
 19 21  1  0  0  0  0
 21 22  1  0  0  0  0
 22 23  1  0  0  0  0
 23 24  1  0  0  0  0
 24 20  1  0  0  0  0
 22 25  1  0  0  0  0
 25 26  1  0  0  0  0
 26 27  1  0  0  0  0
 27 28  1  0  0  0  0
 28 23  1  0  0  0  0
 27 29  1  1  0  0  0
  4 30  1  6  0  0  0
 14 31  1  6  0  0  0
 15 32  1  6  0  0  0
 20 33  1  1  0  0  0
 19 34  1  1  0  0  0
 21 35  1  6  0  0  0
 22 36  1  6  0  0  0
 10 37  1  6  0  0  0
  9 38  1  1  0  0  0
 21 39  1  1  0  0  0
 23 40  1  0  0  0  0
M  CHG  2  23   1  40  -1
M  END
>  <cdx:fragmentId>
5

$$$$
