40052.cdx
  Mrv1902 05222410252D          

 24 26  0  0  0  0            999 V2000
    3.9334   -9.8398    0.0000 C   0  0  2  0  0  0  0  0  0  0  0  0
    3.2150  -10.2454    0.0000 C   0  0  2  0  0  0  0  0  0  0  0  0
    3.2070  -11.0704    0.0000 C   0  0  1  0  0  0  0  0  0  0  0  0
    3.9174  -11.4898    0.0000 C   0  0  2  0  0  0  0  0  0  0  0  0
    4.6359  -11.0842    0.0000 C   0  0  1  0  0  0  0  0  0  0  0  0
    4.6438  -10.2592    0.0000 O   0  0  0  0  0  0  0  0  0  0  0  0
    5.3463  -11.5036    0.0000 O   0  0  0  0  0  0  0  0  0  0  0  0
    6.0647  -11.0981    0.0000 C   0  0  0  0  0  0  0  0  0  0  0  0
    6.0727  -10.2731    0.0000 C   0  0  0  0  0  0  0  0  0  0  0  0
    6.7752  -11.5175    0.0000 C   0  0  0  0  0  0  0  0  0  0  0  0
    7.4936  -11.1119    0.0000 C   0  0  0  0  0  0  0  0  0  0  0  0
    7.5016  -10.2869    0.0000 C   0  0  0  0  0  0  0  0  0  0  0  0
    6.7912   -9.8675    0.0000 C   0  0  0  0  0  0  0  0  0  0  0  0
    8.2757  -11.3744    0.0000 N   0  0  0  0  0  0  0  0  0  0  0  0
    8.7671  -10.7117    0.0000 C   0  0  0  0  0  0  0  0  0  0  0  0
    8.2887  -10.0396    0.0000 C   0  0  0  0  0  0  0  0  0  0  0  0
    8.5512   -9.2575    0.0000 C   0  0  0  0  0  0  0  0  0  0  0  0
    9.3501   -9.0517    0.0000 C   0  0  0  0  0  0  0  0  0  0  0  0
   10.1490   -8.8459    0.0000 N   0  0  0  0  0  0  0  0  0  0  0  0
    3.9414   -9.0149    0.0000 C   0  0  0  0  0  0  0  0  0  0  0  0
    3.2310   -8.5955    0.0000 O   0  0  0  0  0  0  0  0  0  0  0  0
    2.4885  -11.4759    0.0000 O   0  0  0  0  0  0  0  0  0  0  0  0
    2.5045   -9.8260    0.0000 O   0  0  0  0  0  0  0  0  0  0  0  0
    3.9094  -12.3147    0.0000 O   0  0  0  0  0  0  0  0  0  0  0  0
  1  2  1  0  0  0  0
  2  3  1  0  0  0  0
  3  4  1  0  0  0  0
  4  5  1  0  0  0  0
  5  6  1  0  0  0  0
  6  1  1  0  0  0  0
  5  7  1  1  0  0  0
  7  8  1  0  0  0  0
  8  9  1  0  0  0  0
  8 10  2  0  0  0  0
 10 11  1  0  0  0  0
 11 12  2  0  0  0  0
 12 13  1  0  0  0  0
 13  9  2  0  0  0  0
 11 14  1  0  0  0  0
 14 15  1  0  0  0  0
 15 16  2  0  0  0  0
 16 12  1  0  0  0  0
 16 17  1  0  0  0  0
 17 18  1  0  0  0  0
 18 19  3  0  0  0  0
  1 20  1  1  0  0  0
 20 21  1  0  0  0  0
  3 22  1  1  0  0  0
  2 23  1  6  0  0  0
  4 24  1  6  0  0  0
M  END
>  <cdx:fragmentId>
5

$$$$
