40054.cdx
  Mrv1902 05222410242D          

 21 23  0  0  0  0            999 V2000
    6.2818   -8.8814    0.0000 C   0  0  2  0  0  0  0  0  0  0  0  0
    6.2818   -9.7064    0.0000 C   0  0  2  0  0  0  0  0  0  0  0  0
    6.9963  -10.1189    0.0000 C   0  0  1  0  0  0  0  0  0  0  0  0
    7.7107   -9.7064    0.0000 C   0  0  2  0  0  0  0  0  0  0  0  0
    7.7107   -8.8814    0.0000 C   0  0  1  0  0  0  0  0  0  0  0  0
    6.9963   -8.4689    0.0000 O   0  0  0  0  0  0  0  0  0  0  0  0
    5.5673   -8.4689    0.0000 C   0  0  0  0  0  0  0  0  0  0  0  0
    4.8529   -8.8814    0.0000 O   0  0  0  0  0  0  0  0  0  0  0  0
    8.4252   -8.4689    0.0000 O   0  0  0  0  0  0  0  0  0  0  0  0
    8.4252   -7.6439    0.0000 C   0  0  0  0  0  0  0  0  0  0  0  0
    7.7107   -7.2314    0.0000 C   0  0  0  0  0  0  0  0  0  0  0  0
    9.0383   -7.0919    0.0000 C   0  0  0  0  0  0  0  0  0  0  0  0
    8.7028   -6.3382    0.0000 C   0  0  0  0  0  0  0  0  0  0  0  0
    7.8823   -6.4244    0.0000 N   0  0  0  0  0  0  0  0  0  0  0  0
    9.8588   -7.1781    0.0000 C   0  0  0  0  0  0  0  0  0  0  0  0
   10.3437   -6.5107    0.0000 C   0  0  0  0  0  0  0  0  0  0  0  0
   10.0082   -5.7570    0.0000 C   0  0  0  0  0  0  0  0  0  0  0  0
    9.1877   -5.6708    0.0000 C   0  0  0  0  0  0  0  0  0  0  0  0
    6.9963  -10.9439    0.0000 O   0  0  0  0  0  0  0  0  0  0  0  0
    5.5673  -10.1189    0.0000 O   0  0  0  0  0  0  0  0  0  0  0  0
    8.4252  -10.1189    0.0000 O   0  0  0  0  0  0  0  0  0  0  0  0
  1  2  1  0  0  0  0
  2  3  1  0  0  0  0
  3  4  1  0  0  0  0
  4  5  1  0  0  0  0
  5  6  1  0  0  0  0
  6  1  1  0  0  0  0
  1  7  1  1  0  0  0
  7  8  1  0  0  0  0
  5  9  1  1  0  0  0
  9 10  1  0  0  0  0
 10 11  2  0  0  0  0
 10 12  1  0  0  0  0
 12 13  2  0  0  0  0
 13 14  1  0  0  0  0
 14 11  1  0  0  0  0
 12 15  1  0  0  0  0
 15 16  2  0  0  0  0
 16 17  1  0  0  0  0
 17 18  2  0  0  0  0
 18 13  1  0  0  0  0
  3 19  1  1  0  0  0
  2 20  1  6  0  0  0
  4 21  1  6  0  0  0
M  END
>  <cdx:fragmentId>
5

$$$$
