40063.cdx
  Mrv1902 05222410212D          

 34 39  0  0  0  0            999 V2000
    6.1003   -5.4940    0.0000 C   0  0  0  0  0  0  0  0  0  0  0  0
    6.2754   -6.3002    0.0000 C   0  0  0  0  0  0  0  0  0  0  0  0
    7.0148   -6.6660    0.0000 C   0  0  0  0  0  0  0  0  0  0  0  0
    7.7619   -6.3159    0.0000 O   0  0  0  0  0  0  0  0  0  0  0  0
    7.9539   -5.5135    0.0000 C   0  0  0  0  0  0  0  0  0  0  0  0
    7.4464   -4.8631    0.0000 C   0  0  0  0  0  0  0  0  0  0  0  0
    6.6214   -4.8544    0.0000 C   0  0  0  0  0  0  0  0  0  0  0  0
    5.5888   -6.7577    0.0000 C   0  0  0  0  0  0  0  0  0  0  0  0
    5.6418   -7.5810    0.0000 C   0  0  0  0  0  0  0  0  0  0  0  0
    6.3813   -7.9468    0.0000 C   0  0  0  0  0  0  0  0  0  0  0  0
    7.0678   -7.4893    0.0000 C   0  0  0  0  0  0  0  0  0  0  0  0
    6.4343   -8.7701    0.0000 C   0  0  0  0  0  0  0  0  0  0  0  0
    7.1737   -9.1359    0.0000 C   0  0  0  0  0  0  0  0  0  0  0  0
    7.8603   -8.6783    0.0000 C   0  0  0  0  0  0  0  0  0  0  0  0
    7.8073   -7.8550    0.0000 C   0  0  0  0  0  0  0  0  0  0  0  0
    5.7478   -9.2276    0.0000 C   0  0  0  0  0  0  0  0  0  0  0  0
    5.8007  -10.0509    0.0000 C   0  0  0  0  0  0  0  0  0  0  0  0
    6.5402  -10.4167    0.0000 C   0  0  0  0  0  0  0  0  0  0  0  0
    7.2267   -9.9592    0.0000 C   0  0  0  0  0  0  0  0  0  0  0  0
    6.5932  -11.2400    0.0000 C   0  0  0  0  0  0  0  0  0  0  0  0
    7.3327  -11.6057    0.0000 C   0  0  0  0  0  0  0  0  0  0  0  0
    8.0192  -11.1482    0.0000 C   0  0  0  0  0  0  0  0  0  0  0  0
    7.9662  -10.3249    0.0000 C   0  0  0  0  0  0  0  0  0  0  0  0
    8.7601   -5.3385    0.0000 O   0  0  0  0  0  0  0  0  0  0  0  0
    7.8122   -4.1237    0.0000 C   0  0  0  0  0  0  0  0  0  0  0  0
    7.0148   -5.6347    0.0000 C   0  0  0  0  0  0  0  0  0  0  0  0
    5.5609   -5.8877    0.0000 C   0  0  0  0  0  0  0  0  0  0  0  0
    5.5844   -8.1603    0.0000 C   0  0  0  0  0  0  0  0  0  0  0  0
    5.6374   -8.5566    0.0000 C   0  0  0  0  0  0  0  0  0  0  0  0
    8.5997   -9.0441    0.0000 O   0  0  0  0  0  0  0  0  0  0  0  0
    7.9412   -9.5467    0.0000 C   0  0  0  0  0  0  0  0  0  0  0  0
    7.3856  -12.4290    0.0000 O   0  0  0  0  0  0  0  0  0  0  0  0
    5.7682  -11.2400    0.0000 C   0  0  0  0  0  0  0  0  0  0  0  0
    6.1807  -11.9544    0.0000 C   0  0  0  0  0  0  0  0  0  0  0  0
  1  2  1  0  0  0  0
  2  3  1  0  0  0  0
  3  4  1  0  0  0  0
  4  5  1  0  0  0  0
  5  6  1  0  0  0  0
  6  7  1  0  0  0  0
  7  1  1  0  0  0  0
  2  8  1  0  0  0  0
  8  9  1  0  0  0  0
  9 10  1  0  0  0  0
 10 11  1  0  0  0  0
 11  3  1  0  0  0  0
 10 12  1  0  0  0  0
 12 13  1  0  0  0  0
 13 14  1  0  0  0  0
 14 15  1  0  0  0  0
 15 11  2  0  0  0  0
 12 16  1  0  0  0  0
 16 17  1  0  0  0  0
 17 18  1  0  0  0  0
 18 19  1  0  0  0  0
 19 13  1  0  0  0  0
 18 20  1  0  0  0  0
 20 21  1  0  0  0  0
 21 22  1  0  0  0  0
 22 23  1  0  0  0  0
 23 19  1  0  0  0  0
  5 24  2  0  0  0  0
  6 25  1  0  0  0  0
  3 26  1  0  0  0  0
 26  6  1  0  0  0  0
  2 27  1  0  0  0  0
 10 28  1  0  0  0  0
 12 29  1  0  0  0  0
 14 30  2  0  0  0  0
 19 31  1  0  0  0  0
 21 32  1  0  0  0  0
 20 33  1  0  0  0  0
 20 34  1  0  0  0  0
M  END
>  <cdx:fragmentId>
44

$$$$
