40064.cdx
  Mrv1902 05222410232D          

 37 40  0  0  0  0            999 V2000
    6.2160   -6.9242    0.0000 O   0  0  0  0  0  0  0  0  0  0  0  0
    5.5079   -6.5009    0.0000 C   0  0  2  0  0  0  0  0  0  0  0  0
    5.5287   -5.6761    0.0000 O   0  0  0  0  0  0  0  0  0  0  0  0
    4.8248   -5.2458    0.0000 C   0  0  1  0  0  0  0  0  0  0  0  0
    4.1083   -5.6544    0.0000 C   0  0  2  0  0  0  0  0  0  0  0  0
    4.0956   -6.4933    0.0000 C   0  0  1  0  0  0  0  0  0  0  0  0
    4.7914   -6.9095    0.0000 C   0  0  1  0  0  0  0  0  0  0  0  0
    4.8373   -4.4209    0.0000 C   0  0  0  0  0  0  0  0  0  0  0  0
    3.3749   -6.8949    0.0000 O   0  0  0  0  0  0  0  0  0  0  0  0
    4.7829   -7.7344    0.0000 O   0  0  0  0  0  0  0  0  0  0  0  0
    3.3980   -5.2347    0.0000 O   0  0  0  0  0  0  0  0  0  0  0  0
    4.1292   -3.9976    0.0000 O   0  0  0  0  0  0  0  0  0  0  0  0
   10.5020   -9.4007    0.0000 O   0  0  0  0  0  0  0  0  0  0  0  0
   11.2169   -8.1634    0.0000 C   0  0  0  0  0  0  0  0  0  0  0  0
   10.5026   -7.7507    0.0000 O   0  0  0  0  0  0  0  0  0  0  0  0
    6.9293  -10.6370    0.0000 C   0  0  0  0  0  0  0  0  0  0  0  0
    7.6439  -10.2247    0.0000 C   0  0  0  0  0  0  0  0  0  0  0  0
    6.9290  -11.4620    0.0000 C   0  0  0  0  0  0  0  0  0  0  0  0
    7.6433  -11.8747    0.0000 C   0  0  0  0  0  0  0  0  0  0  0  0
    8.3579  -11.4624    0.0000 C   0  0  0  0  0  0  0  0  0  0  0  0
    8.3582  -10.6374    0.0000 C   0  0  0  0  0  0  0  0  0  0  0  0
    6.2144  -11.8742    0.0000 O   0  0  0  0  0  0  0  0  0  0  0  0
    5.5042  -11.4544    0.0000 C   0  0  0  0  0  0  0  0  0  0  0  0
    7.6430  -12.6997    0.0000 O   0  0  0  0  0  0  0  0  0  0  0  0
    9.0731   -9.4002    0.0000 C   0  0  0  0  0  0  0  0  0  0  0  0
    9.7877   -8.9879    0.0000 C   0  0  0  0  0  0  0  0  0  0  0  0
    9.7880   -8.1629    0.0000 C   0  0  0  0  0  0  0  0  0  0  0  0
    9.0736   -7.7502    0.0000 C   0  0  0  0  0  0  0  0  0  0  0  0
    7.6442   -9.3997    0.0000 C   0  0  1  0  0  0  0  0  0  0  0  0
    8.3588   -8.9874    0.0000 C   0  0  0  0  0  0  0  0  0  0  0  0
    8.3590   -8.1624    0.0000 C   0  0  0  0  0  0  0  0  0  0  0  0
    7.6447   -7.7497    0.0000 C   0  0  0  0  0  0  0  0  0  0  0  0
    6.9298   -8.9870    0.0000 C   0  0  2  0  0  0  0  0  0  0  0  0
    6.9301   -8.1620    0.0000 C   0  0  2  0  0  0  0  0  0  0  0  0
    6.2158   -7.7492    0.0000 C   0  0  0  0  0  0  0  0  0  0  0  0
    6.2152   -9.3992    0.0000 C   0  0  0  0  0  0  0  0  0  0  0  0
    5.5009   -8.9865    0.0000 O   0  0  0  0  0  0  0  0  0  0  0  0
  2  1  1  1  0  0  0
  2  3  1  0  0  0  0
  3  4  1  0  0  0  0
  4  5  1  0  0  0  0
  5  6  1  0  0  0  0
  6  7  1  0  0  0  0
  7  2  1  0  0  0  0
  4  8  1  1  0  0  0
  6  9  1  1  0  0  0
  7 10  1  6  0  0  0
  5 11  1  6  0  0  0
 26 13  1  0  0  0  0
 35  1  1  0  0  0  0
  8 12  1  0  0  0  0
 15 14  1  0  0  0  0
 27 15  1  0  0  0  0
 16 17  2  0  0  0  0
 16 18  1  0  0  0  0
 18 19  2  0  0  0  0
 19 20  1  0  0  0  0
 20 21  2  0  0  0  0
 21 17  1  0  0  0  0
 29 17  1  6  0  0  0
 18 22  1  0  0  0  0
 22 23  1  0  0  0  0
 24 19  1  0  0  0  0
 25 30  1  0  0  0  0
 26 25  2  0  0  0  0
 27 26  1  0  0  0  0
 28 27  2  0  0  0  0
 31 28  1  0  0  0  0
 29 33  1  0  0  0  0
 30 29  1  0  0  0  0
 31 30  2  0  0  0  0
 32 31  1  0  0  0  0
 34 32  1  0  0  0  0
 33 36  1  1  0  0  0
 34 33  1  0  0  0  0
 34 35  1  6  0  0  0
 37 36  1  0  0  0  0
M  END
>  <cdx:fragmentId>
5

$$$$
