40067.cdx
  Mrv1902 05222410222D          

 15 15  0  0  0  0            999 V2000
    5.9106   -8.6064    0.0000 C   0  0  2  0  0  0  0  0  0  0  0  0
    5.9106   -9.4314    0.0000 C   0  0  1  0  0  0  0  0  0  0  0  0
    6.6250   -9.8439    0.0000 C   0  0  1  0  0  0  0  0  0  0  0  0
    7.3395   -9.4314    0.0000 C   0  0  2  0  0  0  0  0  0  0  0  0
    7.3395   -8.6064    0.0000 C   0  0  1  0  0  0  0  0  0  0  0  0
    6.6250   -8.1939    0.0000 O   0  0  0  0  0  0  0  0  0  0  0  0
    5.1961   -8.1939    0.0000 C   0  0  0  0  0  0  0  0  0  0  0  0
    5.1961   -7.3689    0.0000 O   0  0  0  0  0  0  0  0  0  0  0  0
    8.0540   -8.1939    0.0000 S   0  0  0  0  0  0  0  0  0  0  0  0
    8.0540   -7.3689    0.0000 C   0  0  0  0  0  0  0  0  0  0  0  0
    7.3395   -6.9564    0.0000 C   0  0  0  0  0  0  0  0  0  0  0  0
    8.7684   -6.9564    0.0000 C   0  0  0  0  0  0  0  0  0  0  0  0
    5.1961   -9.8439    0.0000 O   0  0  0  0  0  0  0  0  0  0  0  0
    6.6250  -10.6689    0.0000 O   0  0  0  0  0  0  0  0  0  0  0  0
    8.0540   -9.8439    0.0000 O   0  0  0  0  0  0  0  0  0  0  0  0
  1  2  1  0  0  0  0
  2  3  1  0  0  0  0
  3  4  1  0  0  0  0
  4  5  1  0  0  0  0
  5  6  1  0  0  0  0
  6  1  1  0  0  0  0
  1  7  1  1  0  0  0
  7  8  1  0  0  0  0
  5  9  1  1  0  0  0
  9 10  1  0  0  0  0
 10 11  1  0  0  0  0
 10 12  1  0  0  0  0
  2 13  1  1  0  0  0
  3 14  1  1  0  0  0
  4 15  1  6  0  0  0
M  END
>  <cdx:fragmentId>
5

$$$$
