40061.cdx
  Mrv1902 05222410212D          

 15 15  0  0  0  0            999 V2000
    6.6806   -6.3239    0.0000 C   0  0  0  0  0  0  0  0  0  0  0  0
    6.6806   -7.1489    0.0000 C   0  0  0  0  0  0  0  0  0  0  0  0
    7.3950   -7.5614    0.0000 C   0  0  0  0  0  0  0  0  0  0  0  0
    8.1095   -7.1489    0.0000 C   0  0  0  0  0  0  0  0  0  0  0  0
    8.1095   -6.3239    0.0000 C   0  0  0  0  0  0  0  0  0  0  0  0
    7.3950   -5.9114    0.0000 C   0  0  0  0  0  0  0  0  0  0  0  0
    5.9661   -7.5614    0.0000 O   0  0  0  0  0  0  0  0  0  0  0  0
    5.2516   -7.1489    0.0000 C   0  0  0  0  0  0  0  0  0  0  0  0
    7.3950   -8.3864    0.0000 O   0  0  0  0  0  0  0  0  0  0  0  0
    6.6806   -8.7989    0.0000 C   0  0  0  0  0  0  0  0  0  0  0  0
    8.8240   -7.5614    0.0000 O   0  0  0  0  0  0  0  0  0  0  0  0
    8.8240   -8.3864    0.0000 C   0  0  0  0  0  0  0  0  0  0  0  0
    7.3950   -5.0864    0.0000 C   0  0  0  0  0  0  0  0  0  0  0  0
    8.1095   -4.6739    0.0000 C   0  0  0  0  0  0  0  0  0  0  0  0
    8.1095   -3.8489    0.0000 C   0  0  0  0  0  0  0  0  0  0  0  0
  1  2  2  0  0  0  0
  2  3  1  0  0  0  0
  3  4  2  0  0  0  0
  4  5  1  0  0  0  0
  5  6  2  0  0  0  0
  6  1  1  0  0  0  0
  2  7  1  0  0  0  0
  7  8  1  0  0  0  0
  3  9  1  0  0  0  0
  9 10  1  0  0  0  0
  4 11  1  0  0  0  0
 11 12  1  0  0  0  0
  6 13  1  0  0  0  0
 13 14  2  0  0  0  0
 14 15  1  0  0  0  0
M  END
>  <cdx:fragmentId>
5

$$$$
