6400641.cdx
  Mrv1902 05222410272D          

 10 11  0  0  0  0            999 V2000
    6.0393   -7.5784    0.0000 C   0  0  0  0  0  0  0  0  0  0  0  0
    6.7537   -7.9909    0.0000 C   0  0  0  0  0  0  0  0  0  0  0  0
    6.7537   -8.8159    0.0000 C   0  0  0  0  0  0  0  0  0  0  0  0
    6.0393   -9.2284    0.0000 C   0  0  0  0  0  0  0  0  0  0  0  0
    5.3248   -8.8159    0.0000 N   0  0  0  0  0  0  0  0  0  0  0  0
    5.3248   -7.9909    0.0000 N   0  0  0  0  0  0  0  0  0  0  0  0
    8.0233   -8.4034    0.0000 C   0  0  0  0  0  0  0  0  0  0  0  0
    7.5384   -7.7360    0.0000 N   0  0  0  0  0  0  0  0  0  0  0  0
    7.5384   -9.0709    0.0000 N   0  0  0  0  0  0  0  0  0  0  0  0
    8.8483   -8.4034    0.0000 N   0  0  0  0  0  0  0  0  0  0  0  0
  1  2  1  0  0  0  0
  2  3  2  0  0  0  0
  3  4  1  0  0  0  0
  4  5  2  0  0  0  0
  5  6  1  0  0  0  0
  1  6  2  0  0  0  0
  7  8  1  0  0  0  0
  7  9  2  0  0  0  0
  8  2  1  0  0  0  0
  9  3  1  0  0  0  0
  7 10  1  0  0  0  0
M  END
>  <cdx:groupId>
10610

>  <cdx:fragmentId>
10582

$$$$
