40078.cdx
  Mrv1902 05222410252D          

 40 45  0  0  0  0            999 V2000
   10.0708   -7.7976    0.0000 C   0  0  0  0  0  0  0  0  0  0  0  0
   10.1610   -6.9776    0.0000 O   0  0  0  0  0  0  0  0  0  0  0  0
    8.0781   -4.2883    0.0000 C   0  0  0  0  0  0  0  0  0  0  0  0
    7.4337   -6.3737    0.0000 O   0  5  0  0  0  0  0  0  0  0  0  0
    8.5100   -8.5988    0.0000 H   0  0  0  0  0  0  0  0  0  0  0  0
    7.9905  -10.3419    0.0000 H   0  0  0  0  0  0  0  0  0  0  0  0
    6.6010  -11.9127    0.0000 O   0  0  0  0  0  0  0  0  0  0  0  0
    5.8965   -9.0218    0.0000 C   0  0  0  0  0  0  0  0  0  0  0  0
    3.7471  -11.0739    0.0000 O   0  0  0  0  0  0  0  0  0  0  0  0
    8.6613   -5.8397    0.0000 H   0  0  0  0  0  0  0  0  0  0  0  0
    8.5050   -7.2601    0.0000 H   0  0  0  0  0  0  0  0  0  0  0  0
    8.2731  -10.0600    0.0000 H   0  0  0  0  0  0  0  0  0  0  0  0
    7.0932   -7.9057    0.0000 H   0  0  0  0  0  0  0  0  0  0  0  0
    6.6130  -10.2628    0.0000 H   0  0  0  0  0  0  0  0  0  0  0  0
    5.8925  -11.4968    0.0000 H   0  0  0  0  0  0  0  0  0  0  0  0
    5.1841   -9.4308    0.0000 C   0  0  0  0  0  0  0  0  0  0  0  0
    4.4676   -9.8398    0.0000 C   0  0  0  0  0  0  0  0  0  0  0  0
    4.4636  -10.6648    0.0000 C   0  0  1  0  0  0  0  0  0  0  0  0
    5.1760  -11.0808    0.0000 C   0  0  0  0  0  0  0  0  0  0  0  0
    5.8965   -9.8468    0.0000 C   0  0  2  0  0  0  0  0  0  0  0  0
    5.8925  -10.6718    0.0000 C   0  0  1  0  0  0  0  0  0  0  0  0
    6.6050  -11.0877    0.0000 C   0  0  1  0  0  0  0  0  0  0  0  0
    7.3214  -10.6787    0.0000 C   0  0  0  0  0  0  0  0  0  0  0  0
    6.7884   -8.6316    0.0000 C   0  0  0  0  0  0  0  0  0  0  0  0
    6.6130   -9.4378    0.0000 C   0  0  1  0  0  0  0  0  0  0  0  0
    7.3254   -9.8537    0.0000 C   0  0  2  0  0  0  0  0  0  0  0  0
    9.5620   -5.8891    0.0000 C   0  0  0  0  0  0  0  0  0  0  0  0
    9.2301   -5.1338    0.0000 C   0  0  0  0  0  0  0  0  0  0  0  0
    8.4100   -5.0436    0.0000 C   0  0  1  0  0  0  0  0  0  0  0  0
    7.9219   -5.7086    0.0000 C   0  0  0  0  0  0  0  0  0  0  0  0
    9.4057   -7.3095    0.0000 C   0  0  1  0  0  0  0  0  0  0  0  0
    9.0738   -6.5542    0.0000 C   0  0  1  0  0  0  0  0  0  0  0  0
    8.2537   -6.4639    0.0000 N   0  3  1  0  0  0  0  0  0  0  0  0
    7.7656   -7.1290    0.0000 C   0  0  0  0  0  0  0  0  0  0  0  0
    9.2494   -8.7298    0.0000 C   0  0  0  0  0  0  0  0  0  0  0  0
    8.9175   -7.9745    0.0000 C   0  0  1  0  0  0  0  0  0  0  0  0
    8.0975   -7.8843    0.0000 C   0  0  2  0  0  0  0  0  0  0  0  0
    7.6093   -8.5494    0.0000 C   0  0  1  0  0  0  0  0  0  0  0  0
    7.9412   -9.3047    0.0000 C   0  0  1  0  0  0  0  0  0  0  0  0
    8.7613   -9.3949    0.0000 C   0  0  0  0  0  0  0  0  0  0  0  0
 31  1  1  6  0  0  0
 31  2  1  1  0  0  0
 29  3  1  1  0  0  0
 33  4  1  1  0  0  0
 37  5  1  1  0  0  0
 26  6  1  1  0  0  0
 22  7  1  1  0  0  0
 20  8  1  1  0  0  0
 18  9  1  1  0  0  0
 32 10  1  6  0  0  0
 36 11  1  6  0  0  0
 39 12  1  6  0  0  0
 38 13  1  6  0  0  0
 25 14  1  6  0  0  0
 21 15  1  6  0  0  0
 16 20  1  0  0  0  0
 17 16  1  0  0  0  0
 18 17  1  0  0  0  0
 19 18  1  0  0  0  0
 21 19  1  0  0  0  0
 20 25  1  0  0  0  0
 21 20  1  0  0  0  0
 22 21  1  0  0  0  0
 23 22  1  0  0  0  0
 26 23  1  0  0  0  0
 24 38  1  0  0  0  0
 25 24  1  0  0  0  0
 26 25  1  0  0  0  0
 39 26  1  0  0  0  0
 27 32  1  0  0  0  0
 28 27  1  0  0  0  0
 29 28  1  0  0  0  0
 30 29  1  0  0  0  0
 33 30  1  0  0  0  0
 31 36  1  0  0  0  0
 32 31  1  0  0  0  0
 33 32  1  0  0  0  0
 34 33  1  0  0  0  0
 37 34  1  0  0  0  0
 35 40  1  0  0  0  0
 36 35  1  0  0  0  0
 37 36  1  0  0  0  0
 38 37  1  0  0  0  0
 39 38  1  0  0  0  0
 40 39  1  0  0  0  0
M  CHG  2   4  -1  33   1
M  END
>  <cdx:fragmentId>
5

$$$$
