4007.cdx
  Mrv1902 05222410202D          

 11 11  0  0  0  0            999 V2000
    8.1089   -7.6725    0.0000 C   0  0  0  0  0  0  0  0  0  0  0  0
    8.1089   -8.4975    0.0000 C   0  0  0  0  0  0  0  0  0  0  0  0
    8.8234   -8.9100    0.0000 N   0  0  0  0  0  0  0  0  0  0  0  0
    9.5378   -8.4975    0.0000 C   0  0  0  0  0  0  0  0  0  0  0  0
    9.5378   -7.6725    0.0000 C   0  0  0  0  0  0  0  0  0  0  0  0
    8.8234   -7.2600    0.0000 N   0  0  0  0  0  0  0  0  0  0  0  0
    7.3944   -7.2600    0.0000 O   0  0  0  0  0  0  0  0  0  0  0  0
    7.3944   -8.9100    0.0000 C   0  0  0  0  0  0  0  0  0  0  0  0
    7.3944   -9.7350    0.0000 C   0  0  0  0  0  0  0  0  0  0  0  0
    6.6800   -8.4975    0.0000 C   0  0  0  0  0  0  0  0  0  0  0  0
    7.3944   -6.4350    0.0000 C   0  0  0  0  0  0  0  0  0  0  0  0
  1  2  1  0  0  0  0
  2  3  2  0  0  0  0
  3  4  1  0  0  0  0
  4  5  2  0  0  0  0
  5  6  1  0  0  0  0
  6  1  2  0  0  0  0
  1  7  1  0  0  0  0
  2  8  1  0  0  0  0
  8  9  1  0  0  0  0
  8 10  1  0  0  0  0
  7 11  1  0  0  0  0
M  END
>  <cdx:fragmentId>
5

$$$$
