40079.cdx
  Mrv1902 05222410262D          

 41 45  0  0  0  0            999 V2000
    3.0918   -8.7026    0.0000 C   0  0  2  0  0  0  0  0  0  0  0  0
    3.0918   -9.5276    0.0000 C   0  0  2  0  0  0  0  0  0  0  0  0
    3.8063   -9.9401    0.0000 O   0  0  0  0  0  0  0  0  0  0  0  0
    4.5207   -9.5276    0.0000 C   0  0  2  0  0  0  0  0  0  0  0  0
    4.5207   -8.7026    0.0000 C   0  0  1  0  0  0  0  0  0  0  0  0
    3.8063   -8.2901    0.0000 C   0  0  1  0  0  0  0  0  0  0  0  0
    5.2352   -9.9401    0.0000 C   0  0  0  0  0  0  0  0  0  0  0  0
    5.9497   -9.5276    0.0000 C   0  0  0  0  0  0  0  0  0  0  0  0
    5.9497   -8.7026    0.0000 O   0  0  0  0  0  0  0  0  0  0  0  0
    5.2352   -8.2901    0.0000 O   0  0  0  0  0  0  0  0  0  0  0  0
    6.6642   -9.9401    0.0000 C   0  0  0  0  0  0  0  0  0  0  0  0
    7.3786   -9.5276    0.0000 C   0  0  0  0  0  0  0  0  0  0  0  0
    7.3786   -8.7026    0.0000 O   0  0  0  0  0  0  0  0  0  0  0  0
    5.2352  -10.7651    0.0000 C   0  0  0  0  0  0  0  0  0  0  0  0
    5.9497  -11.1776    0.0000 C   0  0  0  0  0  0  0  0  0  0  0  0
    6.6642  -10.7651    0.0000 C   0  0  0  0  0  0  0  0  0  0  0  0
    7.3786  -11.1776    0.0000 O   0  0  0  0  0  0  0  0  0  0  0  0
    8.0931  -10.7651    0.0000 C   0  0  0  0  0  0  0  0  0  0  0  0
    8.0931   -9.9401    0.0000 C   0  0  0  0  0  0  0  0  0  0  0  0
    8.8076  -12.0026    0.0000 C   0  0  0  0  0  0  0  0  0  0  0  0
    8.8076  -11.1776    0.0000 C   0  0  0  0  0  0  0  0  0  0  0  0
    9.5220  -12.4151    0.0000 C   0  0  0  0  0  0  0  0  0  0  0  0
   10.2365  -12.0026    0.0000 C   0  0  0  0  0  0  0  0  0  0  0  0
   10.2365  -11.1776    0.0000 C   0  0  0  0  0  0  0  0  0  0  0  0
    9.5220  -10.7651    0.0000 C   0  0  0  0  0  0  0  0  0  0  0  0
    5.2352   -7.4651    0.0000 C   0  0  2  0  0  0  0  0  0  0  0  0
    4.5207   -7.0526    0.0000 O   0  0  0  0  0  0  0  0  0  0  0  0
    3.8063   -7.4651    0.0000 O   0  0  0  0  0  0  0  0  0  0  0  0
    5.9497   -7.0526    0.0000 C   0  0  1  0  0  0  0  0  0  0  0  0
    5.9497   -6.2276    0.0000 C   0  0  2  0  0  0  0  0  0  0  0  0
    5.2352   -5.8151    0.0000 C   0  0  2  0  0  0  0  0  0  0  0  0
    4.5207   -6.2276    0.0000 C   0  0  0  0  0  0  0  0  0  0  0  0
    5.2352   -4.9901    0.0000 O   0  0  0  0  0  0  0  0  0  0  0  0
    6.6642   -5.8151    0.0000 O   0  0  0  0  0  0  0  0  0  0  0  0
    2.3773   -9.9401    0.0000 C   0  0  0  0  0  0  0  0  0  0  0  0
    4.5207  -10.3526    0.0000 H   0  0  0  0  0  0  0  0  0  0  0  0
    6.6642   -7.4651    0.0000 O   0  0  0  0  0  0  0  0  0  0  0  0
    2.3773   -8.2901    0.0000 O   0  0  0  0  0  0  0  0  0  0  0  0
    1.6629   -9.5276    0.0000 O   0  0  0  0  0  0  0  0  0  0  0  0
    4.5207  -11.1776    0.0000 O   0  0  0  0  0  0  0  0  0  0  0  0
   10.9510  -12.4151    0.0000 O   0  0  0  0  0  0  0  0  0  0  0  0
  1  2  1  0  0  0  0
  2  3  1  0  0  0  0
  3  4  1  0  0  0  0
  4  5  1  0  0  0  0
  5  6  1  0  0  0  0
  6  1  1  0  0  0  0
  4  7  1  0  0  0  0
  7  8  1  0  0  0  0
  8  9  1  0  0  0  0
  5 10  1  1  0  0  0
  8 11  2  0  0  0  0
 11 12  1  0  0  0  0
 12 13  2  0  0  0  0
  7 14  2  0  0  0  0
 14 15  1  0  0  0  0
 15 16  2  0  0  0  0
 16 11  1  0  0  0  0
 16 17  1  0  0  0  0
 17 18  1  0  0  0  0
 18 19  2  0  0  0  0
 19 12  1  0  0  0  0
 20 21  1  0  0  0  0
 21 18  1  0  0  0  0
 20 22  2  0  0  0  0
 22 23  1  0  0  0  0
 23 24  2  0  0  0  0
 24 25  1  0  0  0  0
 25 21  2  0  0  0  0
 26 10  1  6  0  0  0
 26 27  1  0  0  0  0
  6 28  1  6  0  0  0
 26 29  1  0  0  0  0
 29 30  1  0  0  0  0
 30 31  1  0  0  0  0
 31 32  1  0  0  0  0
 32 27  1  0  0  0  0
 31 33  1  6  0  0  0
 30 34  1  6  0  0  0
  2 35  1  6  0  0  0
  4 36  1  1  0  0  0
 29 37  1  1  0  0  0
  1 38  1  1  0  0  0
 35 39  1  0  0  0  0
 14 40  1  0  0  0  0
 23 41  1  0  0  0  0
M  END
>  <cdx:fragmentId>
5

$$$$
