40075.cdx
  Mrv1902 05222410212D          

 35 39  0  0  0  0            999 V2000
    3.4493   -5.9389    0.0000 C   0  0  0  0  0  0  0  0  0  0  0  0
    3.4493   -6.7639    0.0000 C   0  0  0  0  0  0  0  0  0  0  0  0
    4.1638   -7.1764    0.0000 C   0  0  0  0  0  0  0  0  0  0  0  0
    4.8782   -6.7639    0.0000 C   0  0  0  0  0  0  0  0  0  0  0  0
    4.8782   -5.9389    0.0000 C   0  0  0  0  0  0  0  0  0  0  0  0
    4.1638   -5.5264    0.0000 C   0  0  0  0  0  0  0  0  0  0  0  0
    5.5927   -7.1764    0.0000 O   0  0  0  0  0  0  0  0  0  0  0  0
    6.3072   -6.7639    0.0000 C   0  0  0  0  0  0  0  0  0  0  0  0
    6.3072   -5.9389    0.0000 C   0  0  0  0  0  0  0  0  0  0  0  0
    5.5927   -5.5264    0.0000 C   0  0  0  0  0  0  0  0  0  0  0  0
    7.0217   -7.1764    0.0000 C   0  0  0  0  0  0  0  0  0  0  0  0
    7.7361   -6.7639    0.0000 C   0  0  0  0  0  0  0  0  0  0  0  0
    7.0217   -5.5264    0.0000 O   0  0  0  0  0  0  0  0  0  0  0  0
    7.0217   -8.0014    0.0000 C   0  0  0  0  0  0  0  0  0  0  0  0
    7.7361   -8.4139    0.0000 C   0  0  0  0  0  0  0  0  0  0  0  0
    8.4506   -8.0014    0.0000 C   0  0  0  0  0  0  0  0  0  0  0  0
    8.4506   -7.1764    0.0000 C   0  0  0  0  0  0  0  0  0  0  0  0
    6.4086   -8.5534    0.0000 C   0  0  0  0  0  0  0  0  0  0  0  0
    6.7441   -9.3071    0.0000 C   0  0  0  0  0  0  0  0  0  0  0  0
    7.5646   -9.2209    0.0000 O   0  0  0  0  0  0  0  0  0  0  0  0
    2.7348   -7.1764    0.0000 O   0  0  0  0  0  0  0  0  0  0  0  0
    4.1638   -4.7014    0.0000 O   0  0  0  0  0  0  0  0  0  0  0  0
    5.5927   -4.7014    0.0000 O   0  0  0  0  0  0  0  0  0  0  0  0
    9.1651   -8.4139    0.0000 O   0  0  0  0  0  0  0  0  0  0  0  0
    5.6016   -8.3819    0.0000 C   0  0  0  0  0  0  0  0  0  0  0  0
    6.3316  -10.0216    0.0000 C   0  0  0  0  0  0  0  0  0  0  0  0
    5.0182   -8.9653    0.0000 O   0  0  0  0  0  0  0  0  0  0  0  0
    5.5066  -10.0216    0.0000 C   0  0  0  0  0  0  0  0  0  0  0  0
    5.0941  -10.7360    0.0000 C   0  0  0  0  0  0  0  0  0  0  0  0
    5.5066  -11.4505    0.0000 C   0  0  0  0  0  0  0  0  0  0  0  0
    6.3316  -11.4505    0.0000 C   0  0  0  0  0  0  0  0  0  0  0  0
    6.7441  -10.7360    0.0000 C   0  0  0  0  0  0  0  0  0  0  0  0
    5.0941  -12.1650    0.0000 O   0  0  0  0  0  0  0  0  0  0  0  0
    6.7441  -12.1650    0.0000 O   0  0  0  0  0  0  0  0  0  0  0  0
    7.5691  -12.1650    0.0000 C   0  0  0  0  0  0  0  0  0  0  0  0
  1  2  2  0  0  0  0
  2  3  1  0  0  0  0
  3  4  2  0  0  0  0
  4  5  1  0  0  0  0
  5  6  2  0  0  0  0
  6  1  1  0  0  0  0
  4  7  1  0  0  0  0
  7  8  1  0  0  0  0
  8  9  1  0  0  0  0
  9 10  1  0  0  0  0
 10  5  1  0  0  0  0
  8 11  1  0  0  0  0
 11 12  1  0  0  0  0
 13  9  1  0  0  0  0
 11 14  2  0  0  0  0
 14 15  1  0  0  0  0
 15 16  2  0  0  0  0
 16 17  1  0  0  0  0
 17 12  2  0  0  0  0
 14 18  1  0  0  0  0
 18 19  1  0  0  0  0
 19 20  1  0  0  0  0
 20 15  1  0  0  0  0
  2 21  1  0  0  0  0
  6 22  1  0  0  0  0
 10 23  2  0  0  0  0
 16 24  1  0  0  0  0
 18 25  1  0  0  0  0
 19 26  1  0  0  0  0
 25 27  1  0  0  0  0
 26 28  2  0  0  0  0
 28 29  1  0  0  0  0
 29 30  2  0  0  0  0
 30 31  1  0  0  0  0
 31 32  2  0  0  0  0
 32 26  1  0  0  0  0
 30 33  1  0  0  0  0
 31 34  1  0  0  0  0
 34 35  1  0  0  0  0
M  END
>  <cdx:fragmentId>
5

$$$$
