40076.cdx
  Mrv1902 05222410222D          

 27 28  0  0  0  0            999 V2000
    8.6362   -6.8940    0.0000 C   0  0  0  0  0  0  0  0  0  0  0  0
    8.6362   -6.0690    0.0000 C   0  0  0  0  0  0  0  0  0  0  0  0
    7.2073   -6.0690    0.0000 O   0  0  0  0  0  0  0  0  0  0  0  0
    7.2073   -6.8940    0.0000 C   0  0  0  0  0  0  0  0  0  0  0  0
    7.9218   -7.3065    0.0000 C   0  0  0  0  0  0  0  0  0  0  0  0
    7.9218   -8.1315    0.0000 C   0  0  0  0  0  0  0  0  0  0  0  0
    7.2073   -8.5440    0.0000 C   0  0  0  0  0  0  0  0  0  0  0  0
    6.4928   -8.1315    0.0000 C   0  0  2  0  0  0  0  0  0  0  0  0
    6.4928   -7.3065    0.0000 O   0  0  0  0  0  0  0  0  0  0  0  0
    5.0639   -7.3065    0.0000 O   0  0  0  0  0  0  0  0  0  0  0  0
    5.0639   -8.1315    0.0000 C   0  0  0  0  0  0  0  0  0  0  0  0
    5.7783   -8.5440    0.0000 C   0  0  0  0  0  0  0  0  0  0  0  0
    3.6349   -7.3065    0.0000 O   0  0  0  0  0  0  0  0  0  0  0  0
    3.6349   -8.1315    0.0000 C   0  0  0  0  0  0  0  0  0  0  0  0
    4.3494   -8.5440    0.0000 C   0  0  0  0  0  0  0  0  0  0  0  0
    4.3494   -9.3690    0.0000 C   0  0  0  0  0  0  0  0  0  0  0  0
    5.0639   -9.7815    0.0000 C   0  0  0  0  0  0  0  0  0  0  0  0
    5.7783   -9.3690    0.0000 C   0  0  0  0  0  0  0  0  0  0  0  0
    2.9205   -8.5440    0.0000 C   0  0  0  0  0  0  0  0  0  0  0  0
    2.9205   -9.3690    0.0000 C   0  0  0  0  0  0  0  0  0  0  0  0
    3.6349   -9.7815    0.0000 C   0  0  0  0  0  0  0  0  0  0  0  0
    9.3507   -7.3065    0.0000 C   0  0  0  0  0  0  0  0  0  0  0  0
    8.6362   -8.5440    0.0000 C   0  0  0  0  0  0  0  0  0  0  0  0
    9.3507   -8.1315    0.0000 C   0  0  0  0  0  0  0  0  0  0  0  0
    8.6362   -9.3690    0.0000 C   0  0  0  0  0  0  0  0  0  0  0  0
    5.0639  -10.6065    0.0000 O   0  0  0  0  0  0  0  0  0  0  0  0
    3.6349  -10.6065    0.0000 O   0  0  0  0  0  0  0  0  0  0  0  0
  1  2  1  0  0  0  0
  3  4  2  0  0  0  0
  4  5  1  0  0  0  0
  5  1  1  0  0  0  0
  6  7  1  0  0  0  0
  7  8  1  0  0  0  0
  8  9  1  1  0  0  0
  9  4  1  0  0  0  0
 10 11  2  0  0  0  0
 11 12  1  0  0  0  0
 12  8  1  0  0  0  0
 13 14  1  0  0  0  0
 14 15  2  0  0  0  0
 15 11  1  0  0  0  0
 15 16  1  0  0  0  0
 16 17  1  0  0  0  0
 17 18  1  0  0  0  0
 18 12  2  0  0  0  0
 14 19  1  0  0  0  0
 19 20  2  0  0  0  0
 20 21  1  0  0  0  0
 21 16  2  0  0  0  0
  1 22  1  0  0  0  0
  6 23  2  0  0  0  0
 23 24  1  0  0  0  0
 23 25  1  0  0  0  0
 17 26  2  0  0  0  0
 21 27  1  0  0  0  0
M  END
>  <cdx:fragmentId>
5

$$$$
