40080.cdx
  Mrv1902 05222410242D          

 28 30  0  0  0  0            999 V2000
   10.5561   -7.0721    0.0000 O   0  0  0  0  0  0  0  0  0  0  0  0
    5.5358   -5.0769    0.0000 C   0  0  0  0  0  0  0  0  0  0  0  0
    5.5455   -5.9018    0.0000 C   0  0  0  0  0  0  0  0  0  0  0  0
    4.8213   -5.4894    0.0000 O   0  0  0  0  0  0  0  0  0  0  0  0
    4.1165   -5.9018    0.0000 C   0  0  0  0  0  0  0  0  0  0  0  0
    4.8310   -6.3143    0.0000 C   0  0  0  0  0  0  0  0  0  0  0  0
    4.8892  -11.2640    0.0000 C   0  0  0  0  0  0  0  0  0  0  0  0
    9.8562   -8.3179    0.0000 C   0  0  0  0  0  0  0  0  0  0  0  0
    9.8465   -7.4929    0.0000 C   0  0  0  0  0  0  0  0  0  0  0  0
    9.1272   -7.0889    0.0000 C   0  0  0  0  0  0  0  0  0  0  0  0
    8.4176   -7.5097    0.0000 C   0  0  0  0  0  0  0  0  0  0  0  0
    9.1466   -8.7387    0.0000 C   0  0  0  0  0  0  0  0  0  0  0  0
    8.4273   -8.3347    0.0000 C   0  0  0  0  0  0  0  0  0  0  0  0
    5.5600   -7.5433    0.0000 C   0  0  0  0  0  0  0  0  0  0  0  0
    4.8407   -7.1392    0.0000 C   0  0  0  0  0  0  0  0  0  0  0  0
    4.1408   -8.3851    0.0000 O   0  0  0  0  0  0  0  0  0  0  0  0
    5.5988  -10.8431    0.0000 O   0  0  0  0  0  0  0  0  0  0  0  0
    7.0276  -10.8263    0.0000 O   0  0  0  0  0  0  0  0  0  0  0  0
    7.0179  -10.0013    0.0000 C   0  0  0  0  0  0  0  0  0  0  0  0
    7.7275   -9.5805    0.0000 C   0  0  0  0  0  0  0  0  0  0  0  0
    7.7178   -8.7555    0.0000 C   0  0  0  0  0  0  0  0  0  0  0  0
    6.9985   -8.3515    0.0000 O   0  0  0  0  0  0  0  0  0  0  0  0
    5.5891  -10.0181    0.0000 C   0  0  0  0  0  0  0  0  0  0  0  0
    6.2986   -9.5973    0.0000 C   0  0  0  0  0  0  0  0  0  0  0  0
    6.2889   -8.7723    0.0000 C   0  0  0  0  0  0  0  0  0  0  0  0
    5.5697   -8.3683    0.0000 C   0  0  0  0  0  0  0  0  0  0  0  0
    4.8601   -8.7891    0.0000 C   0  0  0  0  0  0  0  0  0  0  0  0
    4.8698   -9.6141    0.0000 C   0  0  0  0  0  0  0  0  0  0  0  0
  9  1  1  0  0  0  0
  4  2  1  0  0  0  0
  6  3  1  0  0  0  0
  6  4  1  0  0  0  0
  6  5  1  0  0  0  0
 15  6  1  0  0  0  0
 17  7  1  0  0  0  0
  8 12  1  0  0  0  0
  9  8  2  0  0  0  0
 10  9  1  0  0  0  0
 11 10  2  0  0  0  0
 13 11  1  0  0  0  0
 13 12  2  0  0  0  0
 21 13  1  0  0  0  0
 14 26  1  0  0  0  0
 15 14  1  0  0  0  0
 27 16  1  0  0  0  0
 17 23  1  0  0  0  0
 19 18  2  0  0  0  0
 19 24  1  0  0  0  0
 20 19  1  0  0  0  0
 21 20  1  0  0  0  0
 22 21  1  0  0  0  0
 25 22  1  0  0  0  0
 23 28  2  0  0  0  0
 24 23  1  0  0  0  0
 25 24  2  0  0  0  0
 26 25  1  0  0  0  0
 27 26  2  0  0  0  0
 28 27  1  0  0  0  0
M  END
>  <cdx:fragmentId>
5

$$$$
