40082.cdx
  Mrv1902 05222410232D          

 28 31  0  0  0  0            999 V2000
    6.1581   -6.3239    0.0000 C   0  0  0  0  0  0  0  0  0  0  0  0
    6.1581   -7.1489    0.0000 C   0  0  0  0  0  0  0  0  0  0  0  0
    7.5870   -7.1489    0.0000 O   0  0  0  0  0  0  0  0  0  0  0  0
    7.5870   -6.3239    0.0000 C   0  0  1  0  0  0  0  0  0  0  0  0
    6.8725   -5.9114    0.0000 C   0  0  2  0  0  0  0  0  0  0  0  0
    5.6585   -8.3589    0.0000 C   0  0  0  0  0  0  0  0  0  0  0  0
    5.5733   -9.1795    0.0000 C   0  0  2  0  0  0  0  0  0  0  0  0
    6.1617   -9.7577    0.0000 C   0  0  0  0  0  0  0  0  0  0  0  0
    6.9807   -9.6582    0.0000 C   0  0  0  0  0  0  0  0  0  0  0  0
    7.4135   -8.9558    0.0000 C   0  0  2  0  0  0  0  0  0  0  0  0
    5.4436   -7.5614    0.0000 O   0  0  0  0  0  0  0  0  0  0  0  0
    6.3729   -8.7714    0.0000 O   0  0  0  0  0  0  0  0  0  0  0  0
    7.2000   -8.1589    0.0000 C   0  0  0  0  0  0  0  0  0  0  0  0
    6.4031   -7.9454    0.0000 O   0  0  0  0  0  0  0  0  0  0  0  0
    5.8961  -10.5388    0.0000 O   0  0  0  0  0  0  0  0  0  0  0  0
    4.7764   -8.9660    0.0000 C   0  0  0  0  0  0  0  0  0  0  0  0
    4.9899   -9.7629    0.0000 O   0  0  0  0  0  0  0  0  0  0  0  0
    8.2001   -5.7719    0.0000 C   0  0  0  0  0  0  0  0  0  0  0  0
    7.8645   -5.0182    0.0000 C   0  0  0  0  0  0  0  0  0  0  0  0
    7.0441   -5.1044    0.0000 N   0  3  0  0  0  0  0  0  0  0  0  0
    8.0607   -9.4673    0.0000 O   0  0  0  0  0  0  0  0  0  0  0  0
    8.1801   -8.6510    0.0000 C   0  0  1  0  0  0  0  0  0  0  0  0
    6.9549   -6.5374    0.0000 C   0  0  0  0  0  0  0  0  0  0  0  0
    7.4566   -5.8189    0.0000 C   0  0  0  0  0  0  0  0  0  0  0  0
    6.4607   -4.5211    0.0000 O   0  5  0  0  0  0  0  0  0  0  0  0
    6.2892   -5.3280    0.0000 H   0  0  0  0  0  0  0  0  0  0  0  0
    8.3015   -6.7364    0.0000 H   0  0  0  0  0  0  0  0  0  0  0  0
    8.6917   -8.0038    0.0000 C   0  0  0  0  0  0  0  0  0  0  0  0
  1  2  1  0  0  0  0
  3  4  1  0  0  0  0
  4  5  1  0  0  0  0
  5  1  1  0  0  0  0
  6  7  1  0  0  0  0
  7  8  1  0  0  0  0
  8  9  1  0  0  0  0
  9 10  1  0  0  0  0
  2 11  1  0  0  0  0
 11  6  1  0  0  0  0
  6 12  2  0  0  0  0
 10 13  1  0  0  0  0
 13  3  1  0  0  0  0
 13 14  2  0  0  0  0
  8 15  2  0  0  0  0
  7 16  1  0  0  0  0
  7 17  1  1  0  0  0
  4 18  1  0  0  0  0
 18 19  1  0  0  0  0
 19 20  1  0  0  0  0
 20  5  1  0  0  0  0
 10 21  1  6  0  0  0
 21 22  1  0  0  0  0
 22 10  1  0  0  0  0
  1 23  2  0  0  0  0
 20 24  1  0  0  0  0
 23 24  1  0  0  0  0
 20 25  1  0  0  0  0
  5 26  1  6  0  0  0
  4 27  1  6  0  0  0
 22 28  1  6  0  0  0
M  CHG  2  20   1  25  -1
M  END
>  <cdx:fragmentId>
5

$$$$
