40087.cdx
  Mrv1902 05222410252D          

 24 25  0  0  0  0            999 V2000
    3.9031   -9.8301    0.0000 C   0  0  2  0  0  0  0  0  0  0  0  0
    3.9031  -10.6551    0.0000 C   0  0  2  0  0  0  0  0  0  0  0  0
    4.6175  -11.0676    0.0000 C   0  0  1  0  0  0  0  0  0  0  0  0
    5.3320  -10.6551    0.0000 C   0  0  2  0  0  0  0  0  0  0  0  0
    5.3320   -9.8301    0.0000 C   0  0  1  0  0  0  0  0  0  0  0  0
    4.6175   -9.4176    0.0000 O   0  0  0  0  0  0  0  0  0  0  0  0
    6.0465   -9.4176    0.0000 O   0  0  0  0  0  0  0  0  0  0  0  0
    6.0465   -8.5926    0.0000 C   0  0  2  0  0  0  0  0  0  0  0  0
    3.1886   -9.4176    0.0000 C   0  0  0  0  0  0  0  0  0  0  0  0
    2.4741   -9.8301    0.0000 O   0  0  0  0  0  0  0  0  0  0  0  0
    4.6175  -11.8926    0.0000 O   0  0  0  0  0  0  0  0  0  0  0  0
    6.0465  -11.0676    0.0000 O   0  0  0  0  0  0  0  0  0  0  0  0
    3.1886  -11.0676    0.0000 O   0  0  0  0  0  0  0  0  0  0  0  0
    6.7609   -8.1801    0.0000 C   0  0  0  0  0  0  0  0  0  0  0  0
    6.7609   -7.3551    0.0000 C   0  0  0  0  0  0  0  0  0  0  0  0
    6.0465   -6.9426    0.0000 C   0  0  0  0  0  0  0  0  0  0  0  0
    5.3320   -7.3551    0.0000 C   0  0  0  0  0  0  0  0  0  0  0  0
    5.3320   -8.1801    0.0000 C   0  0  2  0  0  0  0  0  0  0  0  0
    4.6175   -8.5926    0.0000 O   0  0  0  0  0  0  0  0  0  0  0  0
    5.6340   -6.2282    0.0000 C   0  0  0  0  0  0  0  0  0  0  0  0
    6.4590   -6.2282    0.0000 C   0  0  0  0  0  0  0  0  0  0  0  0
    7.4754   -6.9426    0.0000 C   0  0  0  0  0  0  0  0  0  0  0  0
    8.1899   -7.3551    0.0000 O   0  0  0  0  0  0  0  0  0  0  0  0
    7.4754   -8.5926    0.0000 C   0  0  0  0  0  0  0  0  0  0  0  0
  1  2  1  0  0  0  0
  2  3  1  0  0  0  0
  3  4  1  0  0  0  0
  4  5  1  0  0  0  0
  5  6  1  0  0  0  0
  6  1  1  0  0  0  0
  5  7  1  1  0  0  0
  8  7  1  1  0  0  0
  1  9  1  1  0  0  0
  9 10  1  0  0  0  0
  3 11  1  1  0  0  0
  4 12  1  6  0  0  0
  2 13  1  6  0  0  0
  8 14  1  0  0  0  0
 14 15  2  0  0  0  0
 15 16  1  0  0  0  0
 16 17  1  0  0  0  0
 17 18  1  0  0  0  0
 18  8  1  0  0  0  0
 18 19  1  1  0  0  0
 16 20  1  0  0  0  0
 16 21  1  0  0  0  0
 15 22  1  0  0  0  0
 22 23  2  0  0  0  0
 14 24  1  0  0  0  0
M  END
>  <cdx:fragmentId>
5

$$$$
