40081.cdx
  Mrv1902 05222410242D          

 29 31  0  0  0  0            999 V2000
   10.6238   -6.3054    0.0000 O   0  0  0  0  0  0  0  0  0  0  0  0
    5.6244   -5.0551    0.0000 C   0  0  0  0  0  0  0  0  0  0  0  0
    4.9118   -4.6426    0.0000 O   0  0  0  0  0  0  0  0  0  0  0  0
    4.1955   -5.0551    0.0000 C   0  0  0  0  0  0  0  0  0  0  0  0
    4.9099   -5.4676    0.0000 C   0  0  0  0  0  0  0  0  0  0  0  0
    4.8988  -10.4176    0.0000 C   0  0  0  0  0  0  0  0  0  0  0  0
    9.9066   -7.5413    0.0000 C   0  0  0  0  0  0  0  0  0  0  0  0
    9.9084   -6.7163    0.0000 C   0  0  0  0  0  0  0  0  0  0  0  0
    9.1949   -6.3022    0.0000 C   0  0  0  0  0  0  0  0  0  0  0  0
    8.4795   -6.7131    0.0000 C   0  0  0  0  0  0  0  0  0  0  0  0
    9.1912   -7.9522    0.0000 C   0  0  0  0  0  0  0  0  0  0  0  0
    8.4776   -7.5381    0.0000 C   0  0  0  0  0  0  0  0  0  0  0  0
    5.6216   -6.7067    0.0000 C   0  0  0  0  0  0  0  0  0  0  0  0
    4.9081   -6.2926    0.0000 C   0  0  0  0  0  0  0  0  0  0  0  0
    4.1908   -7.5285    0.0000 O   0  0  0  0  0  0  0  0  0  0  0  0
    5.6142  -10.0067    0.0000 O   0  0  0  0  0  0  0  0  0  0  0  0
    7.0432  -10.0099    0.0000 O   0  0  0  0  0  0  0  0  0  0  0  0
    7.0450   -9.1849    0.0000 C   0  0  0  0  0  0  0  0  0  0  0  0
    7.7604   -8.7740    0.0000 C   0  0  0  0  0  0  0  0  0  0  0  0
    7.7623   -7.9490    0.0000 C   0  0  0  0  0  0  0  0  0  0  0  0
    7.0487   -7.5349    0.0000 O   0  0  0  0  0  0  0  0  0  0  0  0
    5.6161   -9.1817    0.0000 C   0  0  0  0  0  0  0  0  0  0  0  0
    6.3315   -8.7708    0.0000 C   0  0  0  0  0  0  0  0  0  0  0  0
    6.3333   -7.9458    0.0000 C   0  0  0  0  0  0  0  0  0  0  0  0
    5.6198   -7.5317    0.0000 C   0  0  0  0  0  0  0  0  0  0  0  0
    4.9044   -7.9426    0.0000 C   0  0  0  0  0  0  0  0  0  0  0  0
    4.9025   -8.7676    0.0000 C   0  0  0  0  0  0  0  0  0  0  0  0
    5.6272   -4.2317    0.0000 C   0  0  0  0  0  0  0  0  0  0  0  0
    5.6290   -3.4067    0.0000 C   0  0  0  0  0  0  0  0  0  0  0  0
  8  1  1  0  0  0  0
  5  2  1  0  0  0  0
  5  3  1  0  0  0  0
  5  4  1  0  0  0  0
 14  5  1  0  0  0  0
 16  6  1  0  0  0  0
  7 11  1  0  0  0  0
  8  7  2  0  0  0  0
  9  8  1  0  0  0  0
 10  9  2  0  0  0  0
 12 10  1  0  0  0  0
 12 11  2  0  0  0  0
 20 12  1  0  0  0  0
 13 25  1  0  0  0  0
 14 13  1  0  0  0  0
 26 15  1  0  0  0  0
 16 22  1  0  0  0  0
 18 17  2  0  0  0  0
 18 23  1  0  0  0  0
 19 18  1  0  0  0  0
 20 19  1  0  0  0  0
 21 20  1  0  0  0  0
 24 21  1  0  0  0  0
 22 27  2  0  0  0  0
 23 22  1  0  0  0  0
 24 23  2  0  0  0  0
 25 24  1  0  0  0  0
 26 25  2  0  0  0  0
 27 26  1  0  0  0  0
  3 28  1  0  0  0  0
 28 29  1  0  0  0  0
M  END
>  <cdx:fragmentId>
5

$$$$
