40083.cdx
  Mrv1902 05222410242D          

 13 13  0  0  0  0            999 V2000
    6.2543   -7.5476    0.0000 C   0  0  2  0  0  0  0  0  0  0  0  0
    6.2543   -8.3726    0.0000 C   0  0  0  0  0  0  0  0  0  0  0  0
    6.9688   -8.7851    0.0000 C   0  0  0  0  0  0  0  0  0  0  0  0
    7.6832   -8.3726    0.0000 C   0  0  0  0  0  0  0  0  0  0  0  0
    7.6832   -7.5476    0.0000 C   0  0  0  0  0  0  0  0  0  0  0  0
    6.9688   -7.1351    0.0000 C   0  0  0  0  0  0  0  0  0  0  0  0
    8.3977   -8.7851    0.0000 O   0  0  0  0  0  0  0  0  0  0  0  0
    5.5398   -8.7851    0.0000 C   0  0  0  0  0  0  0  0  0  0  0  0
    5.5398   -9.6101    0.0000 O   0  0  0  0  0  0  0  0  0  0  0  0
    6.5563   -6.4207    0.0000 C   0  0  0  0  0  0  0  0  0  0  0  0
    7.3813   -6.4207    0.0000 C   0  0  0  0  0  0  0  0  0  0  0  0
    5.5398   -7.1351    0.0000 C   0  0  0  0  0  0  0  0  0  0  0  0
    4.8254   -7.5476    0.0000 O   0  0  0  0  0  0  0  0  0  0  0  0
  1  2  1  0  0  0  0
  2  3  2  0  0  0  0
  3  4  1  0  0  0  0
  4  5  1  0  0  0  0
  5  6  1  0  0  0  0
  6  1  1  0  0  0  0
  4  7  2  0  0  0  0
  2  8  1  0  0  0  0
  8  9  1  0  0  0  0
  6 10  1  0  0  0  0
  6 11  1  0  0  0  0
  1 12  1  1  0  0  0
 12 13  1  0  0  0  0
M  END
>  <cdx:fragmentId>
5

$$$$
