40089.cdx
  Mrv1902 05222410222D          

 23 24  0  0  0  0            999 V2000
    4.9068   -9.6376    0.0000 C   0  0  2  0  0  0  0  0  0  0  0  0
    4.9068  -10.4626    0.0000 C   0  0  2  0  0  0  0  0  0  0  0  0
    5.6213  -10.8751    0.0000 C   0  0  1  0  0  0  0  0  0  0  0  0
    6.3357  -10.4626    0.0000 C   0  0  2  0  0  0  0  0  0  0  0  0
    6.3357   -9.6376    0.0000 C   0  0  1  0  0  0  0  0  0  0  0  0
    5.6213   -9.2251    0.0000 O   0  0  0  0  0  0  0  0  0  0  0  0
    7.0502   -9.2251    0.0000 O   0  0  0  0  0  0  0  0  0  0  0  0
    7.0502   -8.4001    0.0000 C   0  0  0  0  0  0  0  0  0  0  0  0
    8.4792   -8.4001    0.0000 C   0  0  0  0  0  0  0  0  0  0  0  0
    7.7647   -7.9876    0.0000 C   0  0  0  0  0  0  0  0  0  0  0  0
    9.1936   -7.9876    0.0000 C   0  0  0  0  0  0  0  0  0  0  0  0
    9.1936   -7.1626    0.0000 C   0  0  0  0  0  0  0  0  0  0  0  0
    8.4792   -6.7501    0.0000 C   0  0  0  0  0  0  0  0  0  0  0  0
    7.7647   -7.1626    0.0000 C   0  0  0  0  0  0  0  0  0  0  0  0
    4.1923   -9.2251    0.0000 C   0  0  0  0  0  0  0  0  0  0  0  0
    3.4779   -9.6376    0.0000 O   0  0  0  0  0  0  0  0  0  0  0  0
    7.0502   -6.7501    0.0000 C   0  0  0  0  0  0  0  0  0  0  0  0
    5.6213  -11.7001    0.0000 O   0  0  0  0  0  0  0  0  0  0  0  0
    7.0502  -10.8751    0.0000 O   0  0  0  0  0  0  0  0  0  0  0  0
    4.1923  -10.8751    0.0000 O   0  0  0  0  0  0  0  0  0  0  0  0
    8.0667   -9.1146    0.0000 C   0  0  0  0  0  0  0  0  0  0  0  0
    8.8917   -9.1146    0.0000 C   0  0  0  0  0  0  0  0  0  0  0  0
    8.4792   -5.9251    0.0000 O   0  0  0  0  0  0  0  0  0  0  0  0
  1  2  1  0  0  0  0
  2  3  1  0  0  0  0
  3  4  1  0  0  0  0
  4  5  1  0  0  0  0
  5  6  1  0  0  0  0
  6  1  1  0  0  0  0
  5  7  1  1  0  0  0
  7  8  1  0  0  0  0
  9 10  1  0  0  0  0
 10  8  1  0  0  0  0
  9 11  1  0  0  0  0
 11 12  1  0  0  0  0
 12 13  1  0  0  0  0
 13 14  1  0  0  0  0
 14 10  2  0  0  0  0
  1 15  1  1  0  0  0
 15 16  1  0  0  0  0
 14 17  1  0  0  0  0
  3 18  1  1  0  0  0
  4 19  1  6  0  0  0
  2 20  1  6  0  0  0
  9 21  1  0  0  0  0
  9 22  1  0  0  0  0
 13 23  2  0  0  0  0
M  END
>  <cdx:fragmentId>
5

$$$$
