40090.cdx
  Mrv1902 05222410242D          

 34 36  0  0  0  0            999 V2000
    5.1406  -11.5489    0.0000 C   0  0  2  0  0  0  0  0  0  0  0  0
    5.1406  -12.3739    0.0000 C   0  0  2  0  0  0  0  0  0  0  0  0
    5.8550  -12.7864    0.0000 C   0  0  1  0  0  0  0  0  0  0  0  0
    6.5695  -12.3739    0.0000 C   0  0  2  0  0  0  0  0  0  0  0  0
    6.5695  -11.5489    0.0000 C   0  0  1  0  0  0  0  0  0  0  0  0
    5.8550  -11.1364    0.0000 O   0  0  0  0  0  0  0  0  0  0  0  0
    7.2840  -12.7864    0.0000 O   0  0  0  0  0  0  0  0  0  0  0  0
    7.2840  -11.1364    0.0000 O   0  0  0  0  0  0  0  0  0  0  0  0
    8.7129  -11.1364    0.0000 O   0  0  0  0  0  0  0  0  0  0  0  0
    8.7129  -10.3114    0.0000 C   0  0  2  0  0  0  0  0  0  0  0  0
    7.9984   -9.8989    0.0000 C   0  0  1  0  0  0  0  0  0  0  0  0
    7.2840  -10.3114    0.0000 C   0  0  0  0  0  0  0  0  0  0  0  0
   10.1419  -10.3114    0.0000 O   0  0  0  0  0  0  0  0  0  0  0  0
    9.4274   -9.8989    0.0000 C   0  0  2  0  0  0  0  0  0  0  0  0
    9.4274   -9.0739    0.0000 C   0  0  2  0  0  0  0  0  0  0  0  0
    8.7129   -8.6614    0.0000 C   0  0  1  0  0  0  0  0  0  0  0  0
    7.9984   -9.0739    0.0000 O   0  0  0  0  0  0  0  0  0  0  0  0
    8.7129   -7.8364    0.0000 O   0  0  0  0  0  0  0  0  0  0  0  0
    7.9984   -7.4239    0.0000 C   0  0  0  0  0  0  0  0  0  0  0  0
    7.9984   -6.5989    0.0000 C   0  0  1  0  0  0  0  0  0  0  0  0
    7.2840   -6.1864    0.0000 C   0  0  0  0  0  0  0  0  0  0  0  0
    8.7129   -6.1864    0.0000 C   0  0  0  0  0  0  0  0  0  0  0  0
    8.7129   -5.3614    0.0000 C   0  0  0  0  0  0  0  0  0  0  0  0
    7.9984   -4.9489    0.0000 C   0  0  0  0  0  0  0  0  0  0  0  0
    7.2840   -5.3614    0.0000 C   0  0  0  0  0  0  0  0  0  0  0  0
    4.4261  -11.1364    0.0000 C   0  0  0  0  0  0  0  0  0  0  0  0
    3.7116  -11.5489    0.0000 O   0  0  0  0  0  0  0  0  0  0  0  0
    9.4274   -6.5989    0.0000 C   0  0  0  0  0  0  0  0  0  0  0  0
    7.9984   -4.1239    0.0000 O   0  0  0  0  0  0  0  0  0  0  0  0
    6.4590   -6.1864    0.0000 C   0  0  0  0  0  0  0  0  0  0  0  0
    6.8715   -6.9009    0.0000 C   0  0  0  0  0  0  0  0  0  0  0  0
    5.8550  -13.6114    0.0000 O   0  0  0  0  0  0  0  0  0  0  0  0
    4.4261  -12.7864    0.0000 O   0  0  0  0  0  0  0  0  0  0  0  0
   10.1419   -8.6614    0.0000 O   0  0  0  0  0  0  0  0  0  0  0  0
  1  2  1  0  0  0  0
  2  3  1  0  0  0  0
  3  4  1  0  0  0  0
  4  5  1  0  0  0  0
  5  6  1  0  0  0  0
  6  1  1  0  0  0  0
  4  7  1  6  0  0  0
  5  8  1  1  0  0  0
 10  9  1  6  0  0  0
 10 11  1  0  0  0  0
 11 12  1  1  0  0  0
 12  8  1  0  0  0  0
 14 13  1  1  0  0  0
 14 10  1  0  0  0  0
 14 15  1  0  0  0  0
 15 16  1  0  0  0  0
 16 17  1  0  0  0  0
 17 11  1  0  0  0  0
 16 18  1  1  0  0  0
 18 19  1  0  0  0  0
 20 19  1  1  0  0  0
 20 21  1  0  0  0  0
 20 22  1  0  0  0  0
 22 23  2  0  0  0  0
 23 24  1  0  0  0  0
 24 25  1  0  0  0  0
 25 21  1  0  0  0  0
  1 26  1  1  0  0  0
 26 27  1  0  0  0  0
 22 28  1  0  0  0  0
 24 29  2  0  0  0  0
 21 30  1  0  0  0  0
 21 31  1  0  0  0  0
  3 32  1  1  0  0  0
  2 33  1  6  0  0  0
 15 34  1  6  0  0  0
M  END
>  <cdx:fragmentId>
5

$$$$
