40091.cdx
  Mrv1902 05222410252D          

 45 48  0  0  0  0            999 V2000
    2.3493   -9.7614    0.0000 C   0  0  0  0  0  0  0  0  0  0  0  0
    2.3493  -10.5864    0.0000 C   0  0  0  0  0  0  0  0  0  0  0  0
    3.0638  -10.9989    0.0000 C   0  0  0  0  0  0  0  0  0  0  0  0
    3.7782  -10.5864    0.0000 C   0  0  0  0  0  0  0  0  0  0  0  0
    3.7782   -9.7614    0.0000 C   0  0  0  0  0  0  0  0  0  0  0  0
    3.0638   -9.3489    0.0000 C   0  0  0  0  0  0  0  0  0  0  0  0
    5.2072   -9.7614    0.0000 C   0  0  0  0  0  0  0  0  0  0  0  0
    4.4927   -9.3489    0.0000 C   0  0  0  0  0  0  0  0  0  0  0  0
    6.6361   -9.7614    0.0000 O   0  0  0  0  0  0  0  0  0  0  0  0
    5.9217   -9.3489    0.0000 C   0  0  0  0  0  0  0  0  0  0  0  0
    7.3506   -9.3489    0.0000 C   0  0  2  0  0  0  0  0  0  0  0  0
    7.3506   -8.5239    0.0000 C   0  0  1  0  0  0  0  0  0  0  0  0
    6.6361   -8.1114    0.0000 C   0  0  0  0  0  0  0  0  0  0  0  0
    5.9217   -8.5239    0.0000 O   0  0  0  0  0  0  0  0  0  0  0  0
    8.0651   -9.7614    0.0000 C   0  0  1  0  0  0  0  0  0  0  0  0
    8.7795   -9.3489    0.0000 C   0  0  2  0  0  0  0  0  0  0  0  0
    8.7795   -8.5239    0.0000 C   0  0  1  0  0  0  0  0  0  0  0  0
    8.0651   -8.1114    0.0000 O   0  0  0  0  0  0  0  0  0  0  0  0
    5.2072  -12.2364    0.0000 O   0  0  0  0  0  0  0  0  0  0  0  0
    9.4940   -9.7614    0.0000 O   0  0  0  0  0  0  0  0  0  0  0  0
    6.6361  -13.0614    0.0000 O   0  0  0  0  0  0  0  0  0  0  0  0
    8.0651  -12.2364    0.0000 O   0  0  0  0  0  0  0  0  0  0  0  0
    5.2072  -10.5864    0.0000 C   0  0  0  0  0  0  0  0  0  0  0  0
    5.9217  -10.9989    0.0000 C   0  0  1  0  0  0  0  0  0  0  0  0
    9.4940   -8.1114    0.0000 O   0  0  0  0  0  0  0  0  0  0  0  0
    9.4940   -7.2864    0.0000 C   0  0  0  0  0  0  0  0  0  0  0  0
   10.2085   -6.8739    0.0000 C   0  0  0  0  0  0  0  0  0  0  0  0
   10.2085   -6.0489    0.0000 C   0  0  0  0  0  0  0  0  0  0  0  0
    9.4940   -5.6364    0.0000 C   0  0  0  0  0  0  0  0  0  0  0  0
   10.9230   -5.6364    0.0000 C   0  0  0  0  0  0  0  0  0  0  0  0
   10.9230   -4.8114    0.0000 C   0  0  0  0  0  0  0  0  0  0  0  0
   10.2085   -4.3989    0.0000 C   0  0  0  0  0  0  0  0  0  0  0  0
    9.4940   -4.8114    0.0000 C   0  0  0  0  0  0  0  0  0  0  0  0
    1.6348   -9.3489    0.0000 O   0  0  0  0  0  0  0  0  0  0  0  0
    1.6348  -10.9989    0.0000 O   0  0  0  0  0  0  0  0  0  0  0  0
    6.6361   -7.2864    0.0000 O   0  0  0  0  0  0  0  0  0  0  0  0
   11.6374   -4.3989    0.0000 O   0  0  0  0  0  0  0  0  0  0  0  0
   10.2085   -3.5739    0.0000 O   0  0  0  0  0  0  0  0  0  0  0  0
    9.4940   -3.1614    0.0000 C   0  0  0  0  0  0  0  0  0  0  0  0
    5.9217  -11.8239    0.0000 C   0  0  1  0  0  0  0  0  0  0  0  0
    6.6361  -12.2364    0.0000 C   0  0  2  0  0  0  0  0  0  0  0  0
    7.3506  -11.8239    0.0000 C   0  0  2  0  0  0  0  0  0  0  0  0
    6.6361  -10.5864    0.0000 O   0  0  0  0  0  0  0  0  0  0  0  0
    7.3506  -10.9989    0.0000 C   0  0  1  0  0  0  0  0  0  0  0  0
    8.0651  -10.5864    0.0000 O   0  0  0  0  0  0  0  0  0  0  0  0
  1  2  2  0  0  0  0
  2  3  1  0  0  0  0
  3  4  2  0  0  0  0
  4  5  1  0  0  0  0
  5  6  2  0  0  0  0
  6  1  1  0  0  0  0
  7  8  2  0  0  0  0
  8  5  1  0  0  0  0
  9 10  1  0  0  0  0
 10  7  1  0  0  0  0
 11  9  1  6  0  0  0
 11 12  1  0  0  0  0
 12 13  1  1  0  0  0
 14 10  2  0  0  0  0
 11 15  1  0  0  0  0
 15 16  1  0  0  0  0
 16 17  1  0  0  0  0
 17 18  1  0  0  0  0
 18 12  1  0  0  0  0
 40 19  1  1  0  0  0
 41 21  1  6  0  0  0
 15 45  1  1  0  0  0
 42 22  1  6  0  0  0
 16 20  1  6  0  0  0
 24 23  1  6  0  0  0
 24 43  1  0  0  0  0
 40 24  1  0  0  0  0
 41 40  1  0  0  0  0
 42 41  1  0  0  0  0
 44 42  1  0  0  0  0
 17 25  1  1  0  0  0
 25 26  1  0  0  0  0
 26 27  1  0  0  0  0
 27 28  1  0  0  0  0
 28 29  1  0  0  0  0
 28 30  2  0  0  0  0
 30 31  1  0  0  0  0
 31 32  2  0  0  0  0
 32 33  1  0  0  0  0
 33 29  2  0  0  0  0
  1 34  1  0  0  0  0
  2 35  1  0  0  0  0
 13 36  1  0  0  0  0
 31 37  1  0  0  0  0
 32 38  1  0  0  0  0
 38 39  1  0  0  0  0
 44 43  1  0  0  0  0
 44 45  1  1  0  0  0
M  END
>  <cdx:fragmentId>
5

$$$$
