40092.cdx
  Mrv1902 05222410262D          

 27 31  0  0  0  0            999 V2000
    4.1918   -9.5414    0.0000 C   0  0  0  0  0  0  0  0  0  0  0  0
    4.9063  -10.7789    0.0000 O   0  0  0  0  0  0  0  0  0  0  0  0
    5.6207  -10.3664    0.0000 C   0  0  0  0  0  0  0  0  0  0  0  0
    5.6207   -9.5414    0.0000 C   0  0  0  0  0  0  0  0  0  0  0  0
    4.9063   -9.1289    0.0000 O   0  0  0  0  0  0  0  0  0  0  0  0
    6.3352  -10.7789    0.0000 C   0  0  0  0  0  0  0  0  0  0  0  0
    7.0497  -10.3664    0.0000 C   0  0  0  0  0  0  0  0  0  0  0  0
    7.0497   -9.5414    0.0000 C   0  0  0  0  0  0  0  0  0  0  0  0
    6.3352   -9.1289    0.0000 C   0  0  0  0  0  0  0  0  0  0  0  0
    7.7642  -10.7789    0.0000 C   0  0  0  0  0  0  0  0  0  0  0  0
    8.4786  -10.3664    0.0000 C   0  0  0  0  0  0  0  0  0  0  0  0
    8.4786   -9.5414    0.0000 C   0  0  0  0  0  0  0  0  0  0  0  0
    7.7642   -9.1289    0.0000 C   0  0  0  0  0  0  0  0  0  0  0  0
    9.2633  -10.6213    0.0000 C   0  0  0  0  0  0  0  0  0  0  0  0
    9.7482   -9.9539    0.0000 O   0  0  0  0  0  0  0  0  0  0  0  0
    9.2633   -9.2865    0.0000 C   0  0  0  0  0  0  0  0  0  0  0  0
    7.7642   -8.3039    0.0000 C   0  0  0  0  0  0  0  0  0  0  0  0
    8.4786   -7.8914    0.0000 C   0  0  0  0  0  0  0  0  0  0  0  0
    8.4786   -7.0664    0.0000 C   0  0  0  0  0  0  0  0  0  0  0  0
    7.7642   -6.6539    0.0000 C   0  0  0  0  0  0  0  0  0  0  0  0
    7.0497   -7.0664    0.0000 C   0  0  0  0  0  0  0  0  0  0  0  0
    7.0497   -7.8914    0.0000 C   0  0  0  0  0  0  0  0  0  0  0  0
    9.0917   -6.5144    0.0000 O   0  0  0  0  0  0  0  0  0  0  0  0
    8.7562   -5.7607    0.0000 C   0  0  0  0  0  0  0  0  0  0  0  0
    7.9357   -5.8469    0.0000 O   0  0  0  0  0  0  0  0  0  0  0  0
    9.5182   -8.5018    0.0000 O   0  0  0  0  0  0  0  0  0  0  0  0
    4.9063  -11.6039    0.0000 C   0  0  0  0  0  0  0  0  0  0  0  0
  2  3  1  0  0  0  0
  3  4  1  0  0  0  0
  4  5  1  0  0  0  0
  5  1  1  0  0  0  0
  3  6  2  0  0  0  0
  6  7  1  0  0  0  0
  7  8  1  0  0  0  0
  8  9  1  0  0  0  0
  9  4  2  0  0  0  0
  7 10  2  0  0  0  0
 10 11  1  0  0  0  0
 11 12  2  0  0  0  0
 12 13  1  0  0  0  0
 13  8  2  0  0  0  0
 11 14  1  0  0  0  0
 14 15  1  0  0  0  0
 15 16  1  0  0  0  0
 16 12  1  0  0  0  0
 13 17  1  0  0  0  0
 17 18  2  0  0  0  0
 18 19  1  0  0  0  0
 19 20  2  0  0  0  0
 20 21  1  0  0  0  0
 21 22  2  0  0  0  0
 22 17  1  0  0  0  0
 19 23  1  0  0  0  0
 23 24  1  0  0  0  0
 24 25  1  0  0  0  0
 25 20  1  0  0  0  0
 16 26  2  0  0  0  0
  2 27  1  0  0  0  0
M  END
>  <cdx:fragmentId>
5

$$$$
