401.cdx
  Mrv1902 05222410212D          

 23 24  0  0  0  0            999 V2000
    2.9072   -8.4536    0.0000 C   0  0  0  0  0  0  0  0  0  0  0  0
    2.9072   -9.2786    0.0000 C   0  0  0  0  0  0  0  0  0  0  0  0
    3.6216   -9.6911    0.0000 C   0  0  0  0  0  0  0  0  0  0  0  0
    4.3361   -9.2786    0.0000 C   0  0  0  0  0  0  0  0  0  0  0  0
    4.3361   -8.4536    0.0000 C   0  0  0  0  0  0  0  0  0  0  0  0
    3.6216   -8.0411    0.0000 C   0  0  0  0  0  0  0  0  0  0  0  0
    2.1927   -9.6911    0.0000 O   0  0  0  0  0  0  0  0  0  0  0  0
    5.0506   -8.0411    0.0000 C   0  0  0  0  0  0  0  0  0  0  0  0
    5.7651   -8.4536    0.0000 C   0  0  0  0  0  0  0  0  0  0  0  0
    6.4795   -8.0411    0.0000 C   0  0  2  0  0  0  0  0  0  0  0  0
    7.1940   -8.4536    0.0000 C   0  0  0  0  0  0  0  0  0  0  0  0
    7.9085   -8.0411    0.0000 C   0  0  0  0  0  0  0  0  0  0  0  0
    8.6229   -8.4536    0.0000 C   0  0  0  0  0  0  0  0  0  0  0  0
    9.3374   -8.0411    0.0000 C   0  0  0  0  0  0  0  0  0  0  0  0
   10.0519   -8.4536    0.0000 C   0  0  0  0  0  0  0  0  0  0  0  0
   10.0519   -9.2786    0.0000 C   0  0  0  0  0  0  0  0  0  0  0  0
   10.7664   -9.6911    0.0000 C   0  0  0  0  0  0  0  0  0  0  0  0
   11.4808   -9.2786    0.0000 C   0  0  0  0  0  0  0  0  0  0  0  0
   11.4808   -8.4536    0.0000 C   0  0  0  0  0  0  0  0  0  0  0  0
   10.7664   -8.0411    0.0000 C   0  0  0  0  0  0  0  0  0  0  0  0
   12.1953   -9.6911    0.0000 O   0  0  0  0  0  0  0  0  0  0  0  0
    6.4795   -7.2161    0.0000 O   0  0  0  0  0  0  0  0  0  0  0  0
    2.1927   -8.0411    0.0000 O   0  0  0  0  0  0  0  0  0  0  0  0
  1  2  2  0  0  0  0
  2  3  1  0  0  0  0
  3  4  2  0  0  0  0
  4  5  1  0  0  0  0
  5  6  2  0  0  0  0
  6  1  1  0  0  0  0
  2  7  1  0  0  0  0
  5  8  1  0  0  0  0
  8  9  1  0  0  0  0
  9 10  1  0  0  0  0
 10 11  1  0  0  0  0
 11 12  1  0  0  0  0
 12 13  1  0  0  0  0
 13 14  1  0  0  0  0
 14 15  1  0  0  0  0
 15 16  2  0  0  0  0
 16 17  1  0  0  0  0
 17 18  2  0  0  0  0
 18 19  1  0  0  0  0
 19 20  2  0  0  0  0
 20 15  1  0  0  0  0
 18 21  1  0  0  0  0
 10 22  1  1  0  0  0
  1 23  1  0  0  0  0
M  END
>  <cdx:fragmentId>
5

$$$$
