40109.cdx
  Mrv1902 05222410232D          

 38 43  0  0  0  0            999 V2000
    8.4343   -7.5667    0.0000 C   0  0  1  0  0  0  0  0  0  0  0  0
    9.1541   -7.9698    0.0000 C   0  0  1  0  0  0  0  0  0  0  0  0
    9.8631   -7.5479    0.0000 C   0  0  0  0  0  0  0  0  0  0  0  0
    9.8522   -6.7230    0.0000 O   0  0  0  0  0  0  0  0  0  0  0  0
    9.1324   -6.3200    0.0000 C   0  0  2  0  0  0  0  0  0  0  0  0
    8.4234   -6.7418    0.0000 C   0  0  2  0  0  0  0  0  0  0  0  0
    7.7036   -6.3388    0.0000 C   0  0  0  0  0  0  0  0  0  0  0  0
    6.9946   -6.7606    0.0000 C   0  0  0  0  0  0  0  0  0  0  0  0
    7.0055   -7.5855    0.0000 C   0  0  1  0  0  0  0  0  0  0  0  0
    7.7253   -7.9886    0.0000 C   0  0  1  0  0  0  0  0  0  0  0  0
    6.2965   -8.0074    0.0000 C   0  0  2  0  0  0  0  0  0  0  0  0
    6.3073   -8.8323    0.0000 C   0  0  1  0  0  0  0  0  0  0  0  0
    7.0272   -9.2354    0.0000 C   0  0  0  0  0  0  0  0  0  0  0  0
    7.7362   -8.8135    0.0000 C   0  0  0  0  0  0  0  0  0  0  0  0
    5.6448   -7.5016    0.0000 C   0  0  0  0  0  0  0  0  0  0  0  0
    4.8429   -7.6957    0.0000 C   0  0  0  0  0  0  0  0  0  0  0  0
    4.4948   -8.4437    0.0000 C   0  0  0  0  0  0  0  0  0  0  0  0
    4.8625   -9.1822    0.0000 O   0  0  0  0  0  0  0  0  0  0  0  0
    5.6691   -9.3552    0.0000 C   0  0  0  0  0  0  0  0  0  0  0  0
   10.5829   -7.9510    0.0000 O   0  0  0  0  0  0  0  0  0  0  0  0
    8.4451   -8.3917    0.0000 O   0  0  0  0  0  0  0  0  0  0  0  0
    8.4560   -9.2166    0.0000 O   0  0  0  0  0  0  0  0  0  0  0  0
    5.4661  -10.1548    0.0000 C   0  0  0  0  0  0  0  0  0  0  0  0
    6.2601   -9.9308    0.0000 C   0  0  0  0  0  0  0  0  0  0  0  0
    3.6699   -8.4545    0.0000 O   0  0  0  0  0  0  0  0  0  0  0  0
    6.3182   -9.6573    0.0000 H   0  0  0  0  0  0  0  0  0  0  0  0
    7.0055   -8.4105    0.0000 H   0  0  0  0  0  0  0  0  0  0  0  0
    8.4126   -5.9169    0.0000 C   0  0  0  0  0  0  0  0  0  0  0  0
    9.1216   -5.4950    0.0000 C   0  0  0  0  0  0  0  0  0  0  0  0
    9.5760   -8.6788    0.0000 H   0  0  0  0  0  0  0  0  0  0  0  0
    9.7826   -5.0014    0.0000 C   0  0  0  0  0  0  0  0  0  0  0  0
    9.5173   -4.2202    0.0000 O   0  0  0  0  0  0  0  0  0  0  0  0
    8.6924   -4.2310    0.0000 C   0  0  0  0  0  0  0  0  0  0  0  0
    8.4478   -5.0189    0.0000 C   0  0  0  0  0  0  0  0  0  0  0  0
   10.5705   -5.2460    0.0000 O   0  0  0  0  0  0  0  0  0  0  0  0
    8.1987   -3.5700    0.0000 O   0  0  0  0  0  0  0  0  0  0  0  0
    6.2856   -7.1825    0.0000 C   0  0  0  0  0  0  0  0  0  0  0  0
    7.7253   -7.1636    0.0000 C   0  0  0  0  0  0  0  0  0  0  0  0
  1  2  1  0  0  0  0
  2  3  1  0  0  0  0
  3  4  1  0  0  0  0
  4  5  1  0  0  0  0
  5  6  1  0  0  0  0
  6  1  1  0  0  0  0
  6  7  1  0  0  0  0
  7  8  1  0  0  0  0
  8  9  1  0  0  0  0
  9 10  1  0  0  0  0
 10  1  1  0  0  0  0
  9 11  1  0  0  0  0
 11 12  1  0  0  0  0
 12 13  1  0  0  0  0
 13 14  1  0  0  0  0
 14 10  1  0  0  0  0
 11 15  1  0  0  0  0
 15 16  2  0  0  0  0
 16 17  1  0  0  0  0
 17 18  1  0  0  0  0
 18 19  1  0  0  0  0
 19 12  1  0  0  0  0
  3 20  2  0  0  0  0
  2 21  1  0  0  0  0
 14 22  2  0  0  0  0
 19 23  1  0  0  0  0
 19 24  1  0  0  0  0
 17 25  2  0  0  0  0
 12 26  1  6  0  0  0
  9 27  1  6  0  0  0
  6 28  1  6  0  0  0
  5 29  1  6  0  0  0
  2 30  1  6  0  0  0
 29 31  1  0  0  0  0
 31 32  1  0  0  0  0
 32 33  1  0  0  0  0
 33 34  1  0  0  0  0
 34 29  2  0  0  0  0
 31 35  2  0  0  0  0
 33 36  1  0  0  0  0
 11 37  1  1  0  0  0
  1 21  1  1  0  0  0
 10 38  1  1  0  0  0
M  END
>  <cdx:fragmentId>
5

$$$$
