40102.cdx
  Mrv1902 05222410212D          

 32 35  0  0  0  0            999 V2000
    4.0956   -9.3076    0.0000 C   0  0  2  0  0  0  0  0  0  0  0  0
    4.0956  -10.1326    0.0000 C   0  0  2  0  0  0  0  0  0  0  0  0
    4.8100  -10.5451    0.0000 C   0  0  1  0  0  0  0  0  0  0  0  0
    5.5245  -10.1326    0.0000 C   0  0  2  0  0  0  0  0  0  0  0  0
    5.5245   -9.3076    0.0000 C   0  0  1  0  0  0  0  0  0  0  0  0
    4.8100   -8.8951    0.0000 O   0  0  0  0  0  0  0  0  0  0  0  0
    6.2390   -8.8951    0.0000 O   0  0  0  0  0  0  0  0  0  0  0  0
    6.2390   -8.0701    0.0000 C   0  0  0  0  0  0  0  0  0  0  0  0
    5.5245   -7.6576    0.0000 C   0  0  0  0  0  0  0  0  0  0  0  0
    6.9534   -7.6576    0.0000 C   0  0  0  0  0  0  0  0  0  0  0  0
    6.9534   -6.8326    0.0000 C   0  0  0  0  0  0  0  0  0  0  0  0
    6.2390   -6.4201    0.0000 C   0  0  0  0  0  0  0  0  0  0  0  0
    5.5245   -6.8326    0.0000 C   0  0  0  0  0  0  0  0  0  0  0  0
    7.6679   -8.0701    0.0000 C   0  0  0  0  0  0  0  0  0  0  0  0
    8.3824   -7.6576    0.0000 C   0  0  0  0  0  0  0  0  0  0  0  0
    8.3824   -6.8326    0.0000 C   0  0  0  0  0  0  0  0  0  0  0  0
    7.6679   -6.4201    0.0000 O   0  0  0  0  0  0  0  0  0  0  0  0
    9.0969   -8.0701    0.0000 O   0  0  0  0  0  0  0  0  0  0  0  0
    9.8113   -6.8326    0.0000 C   0  0  0  0  0  0  0  0  0  0  0  0
    9.0969   -6.4201    0.0000 C   0  0  0  0  0  0  0  0  0  0  0  0
   10.5258   -6.4201    0.0000 C   0  0  0  0  0  0  0  0  0  0  0  0
   10.5258   -5.5951    0.0000 C   0  0  0  0  0  0  0  0  0  0  0  0
    9.8113   -5.1826    0.0000 C   0  0  0  0  0  0  0  0  0  0  0  0
    9.0969   -5.5951    0.0000 C   0  0  0  0  0  0  0  0  0  0  0  0
    3.3811   -8.8951    0.0000 C   0  0  0  0  0  0  0  0  0  0  0  0
    2.6666   -9.3076    0.0000 O   0  0  0  0  0  0  0  0  0  0  0  0
    4.8100   -6.4201    0.0000 O   0  0  0  0  0  0  0  0  0  0  0  0
    7.6679   -8.8951    0.0000 O   0  0  0  0  0  0  0  0  0  0  0  0
   11.2403   -5.1826    0.0000 O   0  0  0  0  0  0  0  0  0  0  0  0
    4.8100  -11.3701    0.0000 O   0  0  0  0  0  0  0  0  0  0  0  0
    3.3811  -10.5451    0.0000 O   0  0  0  0  0  0  0  0  0  0  0  0
    6.2390  -10.5451    0.0000 O   0  0  0  0  0  0  0  0  0  0  0  0
  1  2  1  0  0  0  0
  2  3  1  0  0  0  0
  3  4  1  0  0  0  0
  4  5  1  0  0  0  0
  5  6  1  0  0  0  0
  6  1  1  0  0  0  0
  5  7  1  1  0  0  0
  7  8  1  0  0  0  0
  8  9  2  0  0  0  0
  8 10  1  0  0  0  0
 10 11  2  0  0  0  0
 11 12  1  0  0  0  0
 12 13  2  0  0  0  0
 13  9  1  0  0  0  0
 10 14  1  0  0  0  0
 14 15  1  0  0  0  0
 15 16  2  0  0  0  0
 16 17  1  0  0  0  0
 17 11  1  0  0  0  0
 15 18  1  0  0  0  0
 19 20  1  0  0  0  0
 20 16  1  0  0  0  0
 19 21  2  0  0  0  0
 21 22  1  0  0  0  0
 22 23  2  0  0  0  0
 23 24  1  0  0  0  0
 24 20  2  0  0  0  0
  1 25  1  1  0  0  0
 25 26  1  0  0  0  0
 13 27  1  0  0  0  0
 14 28  2  0  0  0  0
 22 29  1  0  0  0  0
  3 30  1  1  0  0  0
  2 31  1  6  0  0  0
  4 32  1  6  0  0  0
M  END
>  <cdx:fragmentId>
5

$$$$
