40108.cdx
  Mrv1902 05222410232D          

 31 32  0  0  0  0            999 V2000
    2.4868  -11.2051    0.0000 O   0  0  0  0  0  0  0  0  0  0  0  0
    1.0579  -10.3801    0.0000 O   0  0  0  0  0  0  0  0  0  0  0  0
    1.0579   -8.7301    0.0000 O   0  0  0  0  0  0  0  0  0  0  0  0
    3.9157  -10.3801    0.0000 O   0  0  0  0  0  0  0  0  0  0  0  0
    4.6302   -9.9676    0.0000 C   0  0  0  0  0  0  0  0  0  0  0  0
    4.6302  -11.6176    0.0000 O   0  0  0  0  0  0  0  0  0  0  0  0
    5.3447  -11.2051    0.0000 C   0  0  2  0  0  0  0  0  0  0  0  0
    5.3447  -10.3801    0.0000 C   0  0  2  0  0  0  0  0  0  0  0  0
    6.0592  -11.6176    0.0000 C   0  0  1  0  0  0  0  0  0  0  0  0
    6.7736  -11.2051    0.0000 C   0  0  2  0  0  0  0  0  0  0  0  0
    6.7736  -10.3801    0.0000 C   0  0  1  0  0  0  0  0  0  0  0  0
    6.0592   -9.9676    0.0000 O   0  0  0  0  0  0  0  0  0  0  0  0
   13.2039   -9.9677    0.0000 C   0  0  0  0  0  0  0  0  0  0  0  0
   12.4894  -11.2052    0.0000 C   0  0  0  0  0  0  0  0  0  0  0  0
   12.4894  -10.3802    0.0000 C   0  0  0  0  0  0  0  0  0  0  0  0
   11.7749   -9.9677    0.0000 C   0  0  0  0  0  0  0  0  0  0  0  0
   11.0605  -10.3802    0.0000 C   0  0  0  0  0  0  0  0  0  0  0  0
   10.3460   -9.9677    0.0000 C   0  0  0  0  0  0  0  0  0  0  0  0
    9.6315  -11.2052    0.0000 C   0  0  0  0  0  0  0  0  0  0  0  0
    9.6315  -10.3802    0.0000 C   0  0  0  0  0  0  0  0  0  0  0  0
    8.9170   -9.9677    0.0000 C   0  0  0  0  0  0  0  0  0  0  0  0
    8.2026  -10.3801    0.0000 C   0  0  0  0  0  0  0  0  0  0  0  0
    7.4881   -9.9676    0.0000 O   0  0  0  0  0  0  0  0  0  0  0  0
    1.7723   -9.9676    0.0000 C   0  0  2  0  0  0  0  0  0  0  0  0
    2.4868  -10.3801    0.0000 C   0  0  2  0  0  0  0  0  0  0  0  0
    3.2013   -9.9676    0.0000 C   0  0  1  0  0  0  0  0  0  0  0  0
    3.2013   -9.1426    0.0000 O   0  0  0  0  0  0  0  0  0  0  0  0
    7.4881  -11.6176    0.0000 O   0  0  0  0  0  0  0  0  0  0  0  0
    2.4868   -8.7301    0.0000 C   0  0  0  0  0  0  0  0  0  0  0  0
    1.7723   -9.1426    0.0000 C   0  0  2  0  0  0  0  0  0  0  0  0
    6.0592  -12.4426    0.0000 O   0  0  0  0  0  0  0  0  0  0  0  0
 25  1  1  6  0  0  0
 24  2  1  1  0  0  0
 30  3  1  1  0  0  0
 26  4  1  1  0  0  0
  5  4  1  0  0  0  0
 24 30  1  0  0  0  0
 25 24  1  0  0  0  0
 26 25  1  0  0  0  0
 27 26  1  0  0  0  0
 29 27  1  0  0  0  0
 30 29  1  0  0  0  0
  7  6  1  6  0  0  0
  7  8  1  0  0  0  0
  8  5  1  1  0  0  0
  7  9  1  0  0  0  0
  9 10  1  0  0  0  0
 10 11  1  0  0  0  0
 11 12  1  0  0  0  0
 12  8  1  0  0  0  0
 15 13  1  0  0  0  0
 11 23  1  1  0  0  0
 15 14  1  0  0  0  0
 16 15  2  0  0  0  0
 17 16  1  0  0  0  0
 18 17  1  0  0  0  0
 20 18  1  0  0  0  0
 20 19  1  0  0  0  0
 21 20  2  0  0  0  0
 22 21  1  0  0  0  0
 23 22  1  0  0  0  0
 10 28  1  6  0  0  0
  9 31  1  1  0  0  0
M  END
>  <cdx:fragmentId>
5

$$$$
