40103.cdx
  Mrv1902 05222410212D          

 59 63  0  0  0  0            999 V2000
    6.4066   -8.1502    0.0000 O   0  0  0  0  0  0  0  0  0  0  0  0
    5.6770   -6.0930    0.0000 C   0  0  2  0  0  0  0  0  0  0  0  0
    6.3884   -5.6752    0.0000 C   0  0  0  0  0  0  0  0  0  0  0  0
    6.3824   -4.8503    0.0000 C   0  0  1  0  0  0  0  0  0  0  0  0
    7.0938   -4.4325    0.0000 C   0  0  1  0  0  0  0  0  0  0  0  0
    7.8052   -4.0148    0.0000 O   0  0  0  0  0  0  0  0  0  0  0  0
    7.8113   -4.8398    0.0000 C   0  0  2  0  0  0  0  0  0  0  0  0
    7.8173   -5.6648    0.0000 C   0  0  0  0  0  0  0  0  0  0  0  0
    8.5348   -6.0720    0.0000 C   0  0  1  0  0  0  0  0  0  0  0  0
    8.5409   -6.8970    0.0000 C   0  0  1  0  0  0  0  0  0  0  0  0
    7.8294   -7.3147    0.0000 C   0  0  2  0  0  0  0  0  0  0  0  0
    7.1120   -6.9075    0.0000 C   0  0  0  0  0  0  0  0  0  0  0  0
    6.4005   -7.3252    0.0000 C   0  0  1  0  0  0  0  0  0  0  0  0
    5.6831   -6.9179    0.0000 C   0  0  1  0  0  0  0  0  0  0  0  0
    4.9003   -7.1786    0.0000 C   0  0  2  0  0  0  0  0  0  0  0  0
    4.4105   -6.5148    0.0000 C   0  0  2  0  0  0  0  0  0  0  0  0
    4.8905   -5.8438    0.0000 C   0  0  0  0  0  0  0  0  0  0  0  0
    9.2462   -5.6543    0.0000 O   0  0  0  0  0  0  0  0  0  0  0  0
    7.1657   -5.9517    0.0000 O   0  0  0  0  0  0  0  0  0  0  0  0
    6.9627   -6.0961    0.0000 C   0  0  0  0  0  0  0  0  0  0  0  0
    3.5855   -6.5208    0.0000 C   0  0  0  0  0  0  0  0  0  0  0  0
    7.4101   -6.3822    0.0000 C   0  0  0  0  0  0  0  0  0  0  0  0
    6.9924   -5.6708    0.0000 C   0  0  0  0  0  0  0  0  0  0  0  0
    5.7465   -4.3246    0.0000 C   0  0  0  0  0  0  0  0  0  0  0  0
    9.2583   -7.3042    0.0000 O   0  0  0  0  0  0  0  0  0  0  0  0
    7.8355   -8.1397    0.0000 O   0  0  0  0  0  0  0  0  0  0  0  0
    4.6512   -7.9651    0.0000 O   0  0  0  0  0  0  0  0  0  0  0  0
    3.8455   -8.1426    0.0000 C   0  0  0  0  0  0  0  0  0  0  0  0
    3.5963   -8.9290    0.0000 O   0  0  0  0  0  0  0  0  0  0  0  0
    3.2889   -7.5335    0.0000 C   0  0  0  0  0  0  0  0  0  0  0  0
    6.6761   -3.7211    0.0000 H   0  0  0  0  0  0  0  0  0  0  0  0
    8.6363   -4.8337    0.0000 H   0  0  0  0  0  0  0  0  0  0  0  0
    5.6028   -7.7390    0.0000 H   0  0  0  0  0  0  0  0  0  0  0  0
    5.6710   -5.2680    0.0000 O   0  0  0  0  0  0  0  0  0  0  0  0
    4.9535   -4.8607    0.0000 C   0  0  0  0  0  0  0  0  0  0  0  0
    4.9474   -4.0358    0.0000 O   0  0  0  0  0  0  0  0  0  0  0  0
    4.2421   -5.2785    0.0000 C   0  0  0  0  0  0  0  0  0  0  0  0
    9.9637   -6.0615    0.0000 C   0  0  0  0  0  0  0  0  0  0  0  0
   10.6751   -5.6438    0.0000 C   0  0  0  0  0  0  0  0  0  0  0  0
    9.9698   -6.8865    0.0000 O   0  0  0  0  0  0  0  0  0  0  0  0
   11.3926   -6.0510    0.0000 C   0  0  0  0  0  0  0  0  0  0  0  0
   12.1040   -5.6333    0.0000 N   0  0  0  0  0  0  0  0  0  0  0  0
   12.0980   -4.8083    0.0000 C   0  0  0  0  0  0  0  0  0  0  0  0
   11.3805   -4.4011    0.0000 C   0  0  0  0  0  0  0  0  0  0  0  0
   10.6691   -4.8188    0.0000 C   0  0  0  0  0  0  0  0  0  0  0  0
    9.2644   -8.1292    0.0000 C   0  0  0  0  0  0  0  0  0  0  0  0
    9.9819   -8.5365    0.0000 C   0  0  0  0  0  0  0  0  0  0  0  0
    8.5530   -8.5469    0.0000 O   0  0  0  0  0  0  0  0  0  0  0  0
    9.9879   -9.3614    0.0000 C   0  0  0  0  0  0  0  0  0  0  0  0
   10.7054   -9.7687    0.0000 C   0  0  0  0  0  0  0  0  0  0  0  0
   11.4168   -9.3510    0.0000 C   0  0  0  0  0  0  0  0  0  0  0  0
   11.4108   -8.5260    0.0000 C   0  0  0  0  0  0  0  0  0  0  0  0
   10.6933   -8.1187    0.0000 C   0  0  0  0  0  0  0  0  0  0  0  0
    5.6952   -8.5679    0.0000 C   0  0  0  0  0  0  0  0  0  0  0  0
    7.2564   -8.7273    0.0000 C   0  0  0  0  0  0  0  0  0  0  0  0
    7.4758   -9.5226    0.0000 O   0  0  0  0  0  0  0  0  0  0  0  0
    6.4580   -8.5196    0.0000 C   0  0  0  0  0  0  0  0  0  0  0  0
    5.7012   -9.3929    0.0000 O   0  0  0  0  0  0  0  0  0  0  0  0
    4.9777   -8.1607    0.0000 C   0  0  0  0  0  0  0  0  0  0  0  0
  2  3  1  0  0  0  0
  3  4  1  0  0  0  0
  4  5  1  0  0  0  0
  5  6  1  0  0  0  0
  6  7  1  0  0  0  0
  7  8  1  0  0  0  0
  8  9  1  0  0  0  0
  9 10  1  0  0  0  0
 10 11  1  0  0  0  0
 11 12  1  0  0  0  0
 12 13  1  0  0  0  0
 13 14  1  0  0  0  0
 14 15  1  0  0  0  0
 15 16  1  0  0  0  0
 16 17  1  0  0  0  0
  2 17  1  0  0  0  0
  2 14  1  0  0  0  0
  5  7  1  0  0  0  0
  9 18  1  6  0  0  0
  3 19  2  0  0  0  0
 12 20  2  0  0  0  0
 16 21  1  1  0  0  0
  8 22  1  0  0  0  0
  8 23  1  0  0  0  0
  4 24  1  6  0  0  0
 10 25  1  6  0  0  0
 11 26  1  1  0  0  0
 28 29  2  0  0  0  0
 28 30  1  0  0  0  0
 27 28  1  0  0  0  0
 15 27  1  1  0  0  0
 13  1  1  6  0  0  0
  5 31  1  6  0  0  0
  7 32  1  1  0  0  0
 14 33  1  6  0  0  0
  2 34  1  1  0  0  0
 34 35  1  0  0  0  0
 35 36  2  0  0  0  0
 35 37  1  0  0  0  0
 18 38  1  0  0  0  0
 38 39  1  0  0  0  0
 38 40  2  0  0  0  0
 39 41  2  0  0  0  0
 41 42  1  0  0  0  0
 42 43  2  0  0  0  0
 43 44  1  0  0  0  0
 44 45  2  0  0  0  0
 45 39  1  0  0  0  0
 25 46  1  0  0  0  0
 46 47  1  0  0  0  0
 46 48  2  0  0  0  0
 47 49  2  0  0  0  0
 49 50  1  0  0  0  0
 50 51  2  0  0  0  0
 51 52  1  0  0  0  0
 52 53  2  0  0  0  0
 53 47  1  0  0  0  0
  1 54  1  0  0  0  0
 26 55  1  0  0  0  0
 55 56  2  0  0  0  0
 55 57  1  0  0  0  0
 54 58  2  0  0  0  0
 54 59  1  0  0  0  0
M  END
>  <cdx:fragmentId>
23

$$$$
