4010.cdx
  Mrv1902 05222410212D          

 14 14  0  0  0  0            999 V2000
    6.3764   -8.1056    0.0000 C   0  0  0  0  0  0  0  0  0  0  0  0
    6.3764   -8.9306    0.0000 C   0  0  0  0  0  0  0  0  0  0  0  0
    7.0909   -9.3431    0.0000 C   0  0  0  0  0  0  0  0  0  0  0  0
    7.8053   -8.9306    0.0000 C   0  0  0  0  0  0  0  0  0  0  0  0
    7.8053   -8.1056    0.0000 C   0  0  0  0  0  0  0  0  0  0  0  0
    7.0909   -7.6931    0.0000 C   0  0  0  0  0  0  0  0  0  0  0  0
    7.0909  -10.1681    0.0000 O   0  0  0  0  0  0  0  0  0  0  0  0
    5.6619   -9.3431    0.0000 O   0  0  0  0  0  0  0  0  0  0  0  0
    7.0909   -6.8681    0.0000 C   0  0  0  0  0  0  0  0  0  0  0  0
    7.8053   -6.4556    0.0000 C   0  0  0  0  0  0  0  0  0  0  0  0
    7.8053   -5.6306    0.0000 C   0  0  0  0  0  0  0  0  0  0  0  0
    8.5198   -5.2181    0.0000 O   0  0  0  0  0  0  0  0  0  0  0  0
    8.5198   -4.3931    0.0000 C   0  0  0  0  0  0  0  0  0  0  0  0
    4.9475   -8.9306    0.0000 C   0  0  0  0  0  0  0  0  0  0  0  0
  1  2  2  0  0  0  0
  2  3  1  0  0  0  0
  3  4  2  0  0  0  0
  4  5  1  0  0  0  0
  5  6  2  0  0  0  0
  6  1  1  0  0  0  0
  3  7  1  0  0  0  0
  2  8  1  0  0  0  0
  6  9  1  0  0  0  0
  9 10  2  0  0  0  0
 10 11  1  0  0  0  0
 11 12  1  0  0  0  0
 12 13  1  0  0  0  0
  8 14  1  0  0  0  0
M  END
>  <cdx:fragmentId>
5

$$$$
