40114.cdx
  Mrv1902 05222410202D          

 21 24  0  0  0  0            999 V2000
    3.8756   -7.8914    0.0000 C   0  0  0  0  0  0  0  0  0  0  0  0
    3.8756   -8.7164    0.0000 C   0  0  0  0  0  0  0  0  0  0  0  0
    4.5900   -9.1289    0.0000 C   0  0  0  0  0  0  0  0  0  0  0  0
    5.3045   -8.7164    0.0000 C   0  0  1  0  0  0  0  0  0  0  0  0
    5.3045   -7.8914    0.0000 C   0  0  2  0  0  0  0  0  0  0  0  0
    4.5900   -7.4789    0.0000 N   0  0  0  0  0  0  0  0  0  0  0  0
    6.0190   -9.1289    0.0000 C   0  0  1  0  0  0  0  0  0  0  0  0
    6.7334   -8.7164    0.0000 C   0  0  0  0  0  0  0  0  0  0  0  0
    6.7334   -7.8914    0.0000 C   0  0  1  0  0  0  0  0  0  0  0  0
    6.0190   -7.4789    0.0000 C   0  0  0  0  0  0  0  0  0  0  0  0
    6.0190   -6.6539    0.0000 C   0  0  0  0  0  0  0  0  0  0  0  0
    5.3045   -6.2414    0.0000 C   0  0  0  0  0  0  0  0  0  0  0  0
    4.5900   -6.6539    0.0000 C   0  0  0  0  0  0  0  0  0  0  0  0
    4.9470   -6.7221    0.0000 C   0  0  2  0  0  0  0  0  0  0  0  0
    4.9470   -7.4107    0.0000 C   0  0  0  0  0  0  0  0  0  0  0  0
    7.4479   -7.4789    0.0000 C   0  0  0  0  0  0  0  0  0  0  0  0
    7.4479   -6.6539    0.0000 O   0  0  0  0  0  0  0  0  0  0  0  0
    8.1624   -7.8914    0.0000 O   0  0  0  0  0  0  0  0  0  0  0  0
    6.0190   -9.9539    0.0000 O   0  0  0  0  0  0  0  0  0  0  0  0
    4.3636   -6.1388    0.0000 C   0  0  0  0  0  0  0  0  0  0  0  0
    5.3045   -9.5414    0.0000 H   0  0  0  0  0  0  0  0  0  0  0  0
  1  2  1  0  0  0  0
  2  3  1  0  0  0  0
  3  4  1  0  0  0  0
  4  5  1  0  0  0  0
  5  6  1  0  0  0  0
  6  1  1  0  0  0  0
  4  7  1  0  0  0  0
  7  8  1  0  0  0  0
  8  9  1  0  0  0  0
  9 10  1  0  0  0  0
 10  5  1  0  0  0  0
 10 11  2  0  0  0  0
 11 12  1  0  0  0  0
 12 13  1  0  0  0  0
 13  6  1  0  0  0  0
 12 14  1  0  0  0  0
  5 15  1  1  0  0  0
 14 15  1  0  0  0  0
  9 16  1  1  0  0  0
 16 17  2  0  0  0  0
 16 18  1  0  0  0  0
  7 19  1  1  0  0  0
 14 20  1  6  0  0  0
  4 21  1  6  0  0  0
M  END
>  <cdx:fragmentId>
5

$$$$
