40119.cdx
  Mrv1902 05222410252D          

 26 27  0  0  0  0            999 V2000
    6.2543   -9.6239    0.0000 C   0  0  0  0  0  0  0  0  0  0  0  0
    6.2543  -10.4489    0.0000 C   0  0  0  0  0  0  0  0  0  0  0  0
    6.9688  -10.8614    0.0000 C   0  0  0  0  0  0  0  0  0  0  0  0
    7.6832  -10.4489    0.0000 C   0  0  0  0  0  0  0  0  0  0  0  0
    7.6832   -9.6239    0.0000 C   0  0  0  0  0  0  0  0  0  0  0  0
    6.9688   -9.2114    0.0000 C   0  0  0  0  0  0  0  0  0  0  0  0
    8.3977   -8.3864    0.0000 H   0  0  0  0  0  0  0  0  0  0  0  0
    7.6832   -7.9739    0.0000 C   0  0  0  0  0  0  0  0  0  0  0  0
    6.9688   -8.3864    0.0000 C   0  0  0  0  0  0  0  0  0  0  0  0
    9.1122   -7.9739    0.0000 O   0  0  0  0  0  0  0  0  0  0  0  0
    9.1122   -7.1489    0.0000 C   0  0  0  0  0  0  0  0  0  0  0  0
    8.3977   -6.7364    0.0000 C   0  0  0  0  0  0  0  0  0  0  0  0
    7.6832   -7.1489    0.0000 C   0  0  0  0  0  0  0  0  0  0  0  0
    8.3977   -5.9114    0.0000 C   0  0  0  0  0  0  0  0  0  0  0  0
    6.9688   -6.7364    0.0000 O   0  0  0  0  0  0  0  0  0  0  0  0
    9.8267   -6.7364    0.0000 C   0  0  0  0  0  0  0  0  0  0  0  0
    9.8267   -5.9114    0.0000 C   0  0  0  0  0  0  0  0  0  0  0  0
    9.1122   -5.4989    0.0000 C   0  0  0  0  0  0  0  0  0  0  0  0
    5.5398  -10.8614    0.0000 C   0  0  0  0  0  0  0  0  0  0  0  0
    6.9688  -11.6864    0.0000 O   0  0  0  0  0  0  0  0  0  0  0  0
    4.8254  -10.4489    0.0000 C   0  0  0  0  0  0  0  0  0  0  0  0
    4.1109  -10.8614    0.0000 C   0  0  0  0  0  0  0  0  0  0  0  0
    4.1109  -11.6864    0.0000 C   0  0  0  0  0  0  0  0  0  0  0  0
    3.3964  -10.4489    0.0000 C   0  0  0  0  0  0  0  0  0  0  0  0
    6.2543   -7.9739    0.0000 H   0  0  0  0  0  0  0  0  0  0  0  0
   10.5411   -5.4989    0.0000 O   0  0  0  0  0  0  0  0  0  0  0  0
  1  2  2  0  0  0  0
  2  3  1  0  0  0  0
  3  4  2  0  0  0  0
  4  5  1  0  0  0  0
  5  6  2  0  0  0  0
  6  1  1  0  0  0  0
  7  8  1  0  0  0  0
  8  9  2  0  0  0  0
  9  6  1  0  0  0  0
 10 11  1  0  0  0  0
 11 12  2  0  0  0  0
 12 13  1  0  0  0  0
 13  8  1  0  0  0  0
 12 14  1  0  0  0  0
 15 13  2  0  0  0  0
 11 16  1  0  0  0  0
 16 17  2  0  0  0  0
 17 18  1  0  0  0  0
 18 14  2  0  0  0  0
  2 19  1  0  0  0  0
 20  3  1  0  0  0  0
 19 21  1  0  0  0  0
 21 22  2  0  0  0  0
 22 23  1  0  0  0  0
 22 24  1  0  0  0  0
  9 25  1  0  0  0  0
 17 26  1  0  0  0  0
M  END
>  <cdx:fragmentId>
5

$$$$
