40117.cdx
  Mrv1902 05222410212D          

 36 38  0  0  0  0            999 V2000
    6.4056   -7.4101    0.0000 C   0  0  0  0  0  0  0  0  0  0  0  0
    6.4056   -8.2351    0.0000 C   0  0  0  0  0  0  0  0  0  0  0  0
    7.1200   -8.6476    0.0000 C   0  0  0  0  0  0  0  0  0  0  0  0
    7.8345   -8.2351    0.0000 C   0  0  0  0  0  0  0  0  0  0  0  0
    7.8345   -7.4101    0.0000 C   0  0  0  0  0  0  0  0  0  0  0  0
    7.1200   -6.9976    0.0000 C   0  0  0  0  0  0  0  0  0  0  0  0
    8.5490   -8.6476    0.0000 O   0  0  0  0  0  0  0  0  0  0  0  0
    9.2634   -8.2351    0.0000 C   0  0  1  0  0  0  0  0  0  0  0  0
    9.2634   -7.4101    0.0000 C   0  0  2  0  0  0  0  0  0  0  0  0
    8.5490   -6.9976    0.0000 C   0  0  0  0  0  0  0  0  0  0  0  0
    8.5490   -6.1726    0.0000 O   0  0  0  0  0  0  0  0  0  0  0  0
    7.1200   -6.1726    0.0000 O   0  0  0  0  0  0  0  0  0  0  0  0
    5.6911   -8.6476    0.0000 O   0  0  0  0  0  0  0  0  0  0  0  0
    6.4056   -9.8851    0.0000 C   0  0  0  0  0  0  0  0  0  0  0  0
    7.1200   -9.4726    0.0000 C   0  0  0  0  0  0  0  0  0  0  0  0
    9.9779   -8.6476    0.0000 C   0  0  0  0  0  0  0  0  0  0  0  0
   10.6924   -8.2351    0.0000 C   0  0  0  0  0  0  0  0  0  0  0  0
    9.9779   -9.4726    0.0000 C   0  0  0  0  0  0  0  0  0  0  0  0
   10.6924   -9.8851    0.0000 C   0  0  0  0  0  0  0  0  0  0  0  0
   11.4069   -9.4726    0.0000 C   0  0  0  0  0  0  0  0  0  0  0  0
   11.4069   -8.6476    0.0000 C   0  0  0  0  0  0  0  0  0  0  0  0
   10.6924  -10.7101    0.0000 C   0  0  0  0  0  0  0  0  0  0  0  0
   11.4069  -11.1226    0.0000 C   0  0  0  0  0  0  0  0  0  0  0  0
   12.1213   -9.8851    0.0000 O   0  0  0  0  0  0  0  0  0  0  0  0
   10.6924  -12.3601    0.0000 C   0  0  0  0  0  0  0  0  0  0  0  0
   11.4069  -11.9476    0.0000 C   0  0  0  0  0  0  0  0  0  0  0  0
    6.4056  -10.7101    0.0000 C   0  0  0  0  0  0  0  0  0  0  0  0
    7.1200  -11.1226    0.0000 C   0  0  0  0  0  0  0  0  0  0  0  0
    5.6911  -11.1226    0.0000 C   0  0  0  0  0  0  0  0  0  0  0  0
   12.1213  -12.3601    0.0000 C   0  0  0  0  0  0  0  0  0  0  0  0
    9.9779   -6.9976    0.0000 O   0  0  0  0  0  0  0  0  0  0  0  0
    5.6911   -6.9976    0.0000 C   0  0  0  0  0  0  0  0  0  0  0  0
    4.9766   -7.4101    0.0000 C   0  0  0  0  0  0  0  0  0  0  0  0
    4.2621   -6.9976    0.0000 C   0  0  0  0  0  0  0  0  0  0  0  0
    4.2621   -6.1726    0.0000 C   0  0  0  0  0  0  0  0  0  0  0  0
    3.5477   -7.4101    0.0000 C   0  0  0  0  0  0  0  0  0  0  0  0
  1  2  2  0  0  0  0
  2  3  1  0  0  0  0
  3  4  2  0  0  0  0
  4  5  1  0  0  0  0
  5  6  2  0  0  0  0
  6  1  1  0  0  0  0
  4  7  1  0  0  0  0
  7  8  1  0  0  0  0
  8  9  1  0  0  0  0
  9 10  1  0  0  0  0
 10  5  1  0  0  0  0
 10 11  2  0  0  0  0
 12  6  1  0  0  0  0
  2 13  1  0  0  0  0
 14 15  1  0  0  0  0
 15  3  1  0  0  0  0
  8 16  1  1  0  0  0
 16 17  1  0  0  0  0
 16 18  2  0  0  0  0
 18 19  1  0  0  0  0
 19 20  2  0  0  0  0
 20 21  1  0  0  0  0
 21 17  2  0  0  0  0
 19 22  1  0  0  0  0
 22 23  1  0  0  0  0
 24 20  1  0  0  0  0
 25 26  1  0  0  0  0
 26 23  2  0  0  0  0
 14 27  2  0  0  0  0
 27 28  1  0  0  0  0
 27 29  1  0  0  0  0
 26 30  1  0  0  0  0
  9 31  1  6  0  0  0
  1 32  1  0  0  0  0
 32 33  1  0  0  0  0
 33 34  2  0  0  0  0
 34 35  1  0  0  0  0
 34 36  1  0  0  0  0
M  END
>  <cdx:fragmentId>
5

$$$$
