40115.cdx
  Mrv1902 05222410212D          

 16 19  0  0  0  0            999 V2000
    6.2637   -9.9290    0.0000 C   0  0  0  0  0  0  0  0  0  0  0  0
    6.4450  -10.7339    0.0000 C   0  0  0  0  0  0  0  0  0  0  0  0
    7.1873  -11.0939    0.0000 C   0  0  0  0  0  0  0  0  0  0  0  0
    7.9316  -10.7380    0.0000 C   0  0  0  0  0  0  0  0  0  0  0  0
    8.1174   -9.9342    0.0000 C   0  0  0  0  0  0  0  0  0  0  0  0
    7.6048   -9.2877    0.0000 C   0  0  0  0  0  0  0  0  0  0  0  0
    6.7798   -9.2855    0.0000 C   0  0  0  0  0  0  0  0  0  0  0  0
    5.9644   -9.1602    0.0000 C   0  0  0  0  0  0  0  0  0  0  0  0
    5.8732  -11.3286    0.0000 C   0  0  0  0  0  0  0  0  0  0  0  0
    6.2621  -12.0562    0.0000 C   0  0  0  0  0  0  0  0  0  0  0  0
    7.0743  -11.9111    0.0000 C   0  0  0  0  0  0  0  0  0  0  0  0
    7.8677  -11.5605    0.0000 O   0  0  0  0  0  0  0  0  0  0  0  0
    5.0560  -11.2156    0.0000 C   0  0  0  0  0  0  0  0  0  0  0  0
    5.1675   -9.3738    0.0000 C   0  0  0  0  0  0  0  0  0  0  0  0
    6.1779   -8.3633    0.0000 C   0  0  0  0  0  0  0  0  0  0  0  0
    8.7285  -10.5245    0.0000 C   0  0  0  0  0  0  0  0  0  0  0  0
  1  2  1  0  0  0  0
  2  3  1  0  0  0  0
  3  4  1  0  0  0  0
  4  5  1  0  0  0  0
  5  6  1  0  0  0  0
  6  7  1  0  0  0  0
  7  1  1  0  0  0  0
  7  8  1  0  0  0  0
  8  1  1  0  0  0  0
  2  9  1  0  0  0  0
  9 10  1  0  0  0  0
 10 11  1  0  0  0  0
 11  3  1  0  0  0  0
  3 12  1  0  0  0  0
 12  4  1  0  0  0  0
  9 13  1  0  0  0  0
  8 14  1  0  0  0  0
  8 15  1  0  0  0  0
  4 16  1  0  0  0  0
M  END
>  <cdx:fragmentId>
5

$$$$
