40116.cdx
  Mrv1902 05222410212D          

 30 32  0  0  0  0            999 V2000
    4.0956   -7.0664    0.0000 C   0  0  0  0  0  0  0  0  0  0  0  0
    4.0956   -7.8914    0.0000 C   0  0  0  0  0  0  0  0  0  0  0  0
    4.8100   -8.3039    0.0000 C   0  0  0  0  0  0  0  0  0  0  0  0
    5.5245   -7.8914    0.0000 C   0  0  0  0  0  0  0  0  0  0  0  0
    5.5245   -7.0664    0.0000 C   0  0  0  0  0  0  0  0  0  0  0  0
    4.8100   -6.6539    0.0000 C   0  0  0  0  0  0  0  0  0  0  0  0
    6.2390   -8.3039    0.0000 O   0  0  0  0  0  0  0  0  0  0  0  0
    6.9534   -7.8914    0.0000 C   0  0  1  0  0  0  0  0  0  0  0  0
    6.9534   -7.0664    0.0000 C   0  0  0  0  0  0  0  0  0  0  0  0
    6.2390   -6.6539    0.0000 C   0  0  0  0  0  0  0  0  0  0  0  0
    6.2390   -5.8289    0.0000 O   0  0  0  0  0  0  0  0  0  0  0  0
    4.8100   -5.8289    0.0000 O   0  0  0  0  0  0  0  0  0  0  0  0
    3.3811   -8.3039    0.0000 O   0  0  0  0  0  0  0  0  0  0  0  0
    4.0956   -9.5414    0.0000 C   0  0  0  0  0  0  0  0  0  0  0  0
    4.8100   -9.1289    0.0000 C   0  0  0  0  0  0  0  0  0  0  0  0
    7.6679   -8.3039    0.0000 C   0  0  0  0  0  0  0  0  0  0  0  0
    8.3824   -7.8914    0.0000 C   0  0  0  0  0  0  0  0  0  0  0  0
    7.6679   -9.1289    0.0000 C   0  0  0  0  0  0  0  0  0  0  0  0
    8.3824   -9.5414    0.0000 C   0  0  0  0  0  0  0  0  0  0  0  0
    9.0969   -9.1289    0.0000 C   0  0  0  0  0  0  0  0  0  0  0  0
    9.0969   -8.3039    0.0000 C   0  0  0  0  0  0  0  0  0  0  0  0
    8.3824  -10.3664    0.0000 C   0  0  0  0  0  0  0  0  0  0  0  0
    9.0969  -10.7789    0.0000 C   0  0  0  0  0  0  0  0  0  0  0  0
    9.8113   -9.5414    0.0000 O   0  0  0  0  0  0  0  0  0  0  0  0
    8.3824  -12.0164    0.0000 C   0  0  0  0  0  0  0  0  0  0  0  0
    9.0969  -11.6039    0.0000 C   0  0  0  0  0  0  0  0  0  0  0  0
    4.0956  -10.3664    0.0000 C   0  0  0  0  0  0  0  0  0  0  0  0
    4.8100  -10.7789    0.0000 C   0  0  0  0  0  0  0  0  0  0  0  0
    3.3811  -10.7789    0.0000 C   0  0  0  0  0  0  0  0  0  0  0  0
    9.8113  -12.0164    0.0000 C   0  0  0  0  0  0  0  0  0  0  0  0
  1  2  2  0  0  0  0
  2  3  1  0  0  0  0
  3  4  2  0  0  0  0
  4  5  1  0  0  0  0
  5  6  2  0  0  0  0
  6  1  1  0  0  0  0
  4  7  1  0  0  0  0
  7  8  1  0  0  0  0
  8  9  1  0  0  0  0
  9 10  1  0  0  0  0
 10  5  1  0  0  0  0
 10 11  2  0  0  0  0
 12  6  1  0  0  0  0
  2 13  1  0  0  0  0
 14 15  1  0  0  0  0
 15  3  1  0  0  0  0
  8 16  1  1  0  0  0
 16 17  1  0  0  0  0
 16 18  2  0  0  0  0
 18 19  1  0  0  0  0
 19 20  2  0  0  0  0
 20 21  1  0  0  0  0
 21 17  2  0  0  0  0
 19 22  1  0  0  0  0
 22 23  1  0  0  0  0
 24 20  1  0  0  0  0
 25 26  1  0  0  0  0
 26 23  2  0  0  0  0
 14 27  2  0  0  0  0
 27 28  1  0  0  0  0
 27 29  1  0  0  0  0
 26 30  1  0  0  0  0
M  END
>  <cdx:fragmentId>
5

$$$$
