40113.cdx
  Mrv1902 05222410222D          

 30 32  0  0  0  0            999 V2000
    4.1174   -9.9342    0.0000 O   0  0  0  0  0  0  0  0  0  0  0  0
   10.5423   -8.6696    0.0000 O   0  0  0  0  0  0  0  0  0  0  0  0
    6.2346   -3.7377    0.0000 C   0  0  0  0  0  0  0  0  0  0  0  0
    7.6636   -3.7317    0.0000 C   0  0  0  0  0  0  0  0  0  0  0  0
    6.9509   -4.1472    0.0000 C   0  0  0  0  0  0  0  0  0  0  0  0
    6.9543   -4.9722    0.0000 C   0  0  0  0  0  0  0  0  0  0  0  0
    7.6705   -5.3817    0.0000 C   0  0  0  0  0  0  0  0  0  0  0  0
    7.6740   -6.2066    0.0000 C   0  0  0  0  0  0  0  0  0  0  0  0
    9.1030   -6.2006    0.0000 C   0  0  0  0  0  0  0  0  0  0  0  0
    8.3902   -6.6161    0.0000 C   0  0  0  0  0  0  0  0  0  0  0  0
    9.1099   -7.8506    0.0000 C   0  0  0  0  0  0  0  0  0  0  0  0
    8.3937   -7.4411    0.0000 C   0  0  0  0  0  0  0  0  0  0  0  0
    9.8331   -9.9101    0.0000 C   0  0  0  0  0  0  0  0  0  0  0  0
    9.8296   -9.0851    0.0000 C   0  0  0  0  0  0  0  0  0  0  0  0
    9.1134   -8.6756    0.0000 C   0  0  0  0  0  0  0  0  0  0  0  0
    8.4007   -9.0911    0.0000 C   0  0  0  0  0  0  0  0  0  0  0  0
    9.1204  -10.3256    0.0000 C   0  0  0  0  0  0  0  0  0  0  0  0
    8.4042   -9.9161    0.0000 C   0  0  0  0  0  0  0  0  0  0  0  0
    5.5568  -12.4031    0.0000 O   0  0  0  0  0  0  0  0  0  0  0  0
    6.9857  -12.3971    0.0000 O   0  0  0  0  0  0  0  0  0  0  0  0
    6.9822  -11.5721    0.0000 C   0  0  0  0  0  0  0  0  0  0  0  0
    7.6949  -11.1566    0.0000 C   0  0  0  0  0  0  0  0  0  0  0  0
    7.6914  -10.3316    0.0000 C   0  0  0  0  0  0  0  0  0  0  0  0
    6.9752   -9.9221    0.0000 O   0  0  0  0  0  0  0  0  0  0  0  0
    5.5533  -11.5781    0.0000 C   0  0  0  0  0  0  0  0  0  0  0  0
    6.2660  -11.1626    0.0000 C   0  0  0  0  0  0  0  0  0  0  0  0
    6.2625  -10.3376    0.0000 C   0  0  0  0  0  0  0  0  0  0  0  0
    5.5463   -9.9282    0.0000 C   0  0  0  0  0  0  0  0  0  0  0  0
    4.8336  -10.3437    0.0000 C   0  0  0  0  0  0  0  0  0  0  0  0
    4.8371  -11.1687    0.0000 C   0  0  0  0  0  0  0  0  0  0  0  0
 29  1  1  0  0  0  0
 14  2  1  0  0  0  0
  5  3  1  0  0  0  0
  5  4  1  0  0  0  0
  6  5  2  0  0  0  0
  7  6  1  0  0  0  0
  8  7  1  0  0  0  0
 10  8  1  0  0  0  0
 10  9  1  0  0  0  0
 12 10  2  0  0  0  0
 11 15  1  0  0  0  0
 12 11  1  0  0  0  0
 13 17  2  0  0  0  0
 14 13  1  0  0  0  0
 15 14  2  0  0  0  0
 16 15  1  0  0  0  0
 18 16  2  0  0  0  0
 18 17  1  0  0  0  0
 23 18  1  0  0  0  0
 19 25  1  0  0  0  0
 21 20  2  0  0  0  0
 21 26  1  0  0  0  0
 22 21  1  0  0  0  0
 23 22  2  0  0  0  0
 24 23  1  0  0  0  0
 27 24  1  0  0  0  0
 25 30  1  0  0  0  0
 26 25  2  0  0  0  0
 27 26  1  0  0  0  0
 28 27  2  0  0  0  0
 29 28  1  0  0  0  0
 30 29  2  0  0  0  0
M  END
>  <cdx:fragmentId>
5

$$$$
