40112.cdx
  Mrv1902 05222410222D          

 79 87  0  0  0  0            999 V2000
   15.1048   -7.3527    0.0000 C   0  0  0  0  0  0  0  0  0  0  0  0
   15.8191   -6.9404    0.0000 C   0  0  0  0  0  0  0  0  0  0  0  0
   16.5333   -7.3527    0.0000 C   0  0  2  0  0  0  0  0  0  0  0  0
   16.5333   -8.1775    0.0000 C   0  0  2  0  0  0  0  0  0  0  0  0
   15.8191   -8.5898    0.0000 C   0  0  2  0  0  0  0  0  0  0  0  0
   15.8191   -9.4146    0.0000 C   0  0  0  0  0  0  0  0  0  0  0  0
   15.1048   -9.8269    0.0000 C   0  0  0  0  0  0  0  0  0  0  0  0
   14.3906   -9.4146    0.0000 C   0  0  1  0  0  0  0  0  0  0  0  0
   13.6763   -9.8269    0.0000 C   0  0  2  0  0  0  0  0  0  0  0  0
   13.6763  -10.6517    0.0000 C   0  0  0  0  0  0  0  0  0  0  0  0
   12.9621  -11.0641    0.0000 C   0  0  0  0  0  0  0  0  0  0  0  0
   12.2478  -10.6517    0.0000 C   0  0  1  0  0  0  0  0  0  0  0  0
   11.5336  -11.0641    0.0000 C   0  0  1  0  0  0  0  0  0  0  0  0
   10.8193  -10.6517    0.0000 C   0  0  2  0  0  0  0  0  0  0  0  0
   10.8193   -9.8269    0.0000 C   0  0  0  0  0  0  0  0  0  0  0  0
   11.5336   -9.4146    0.0000 C   0  0  0  0  0  0  0  0  0  0  0  0
   12.2478   -9.8269    0.0000 C   0  0  2  0  0  0  0  0  0  0  0  0
   12.9621   -9.4146    0.0000 C   0  0  1  0  0  0  0  0  0  0  0  0
   12.9621   -8.5898    0.0000 C   0  0  0  0  0  0  0  0  0  0  0  0
   13.6763   -8.1775    0.0000 C   0  0  0  0  0  0  0  0  0  0  0  0
   14.3906   -8.5898    0.0000 C   0  0  0  0  0  0  0  0  0  0  0  0
   15.1048   -8.1775    0.0000 C   0  0  2  0  0  0  0  0  0  0  0  0
   17.2475   -6.9404    0.0000 O   0  0  0  0  0  0  0  0  0  0  0  0
   10.1051  -11.0641    0.0000 O   0  0  0  0  0  0  0  0  0  0  0  0
   12.2478   -9.0022    0.0000 C   0  0  0  0  0  0  0  0  0  0  0  0
   11.1212  -11.7783    0.0000 C   0  0  0  0  0  0  0  0  0  0  0  0
   15.8191   -7.7648    0.0000 C   0  0  0  0  0  0  0  0  0  0  0  0
   15.4067   -6.2261    0.0000 C   0  0  0  0  0  0  0  0  0  0  0  0
   16.2314   -6.2261    0.0000 C   0  0  0  0  0  0  0  0  0  0  0  0
   11.9459  -11.7783    0.0000 C   0  0  0  0  0  0  0  0  0  0  0  0
   11.5336  -12.4925    0.0000 O   0  0  0  0  0  0  0  0  0  0  0  0
   12.2478  -11.4764    0.0000 H   0  0  0  0  0  0  0  0  0  0  0  0
   15.1048   -9.0022    0.0000 H   0  0  0  0  0  0  0  0  0  0  0  0
   13.6763   -9.0019    0.0000 C   0  0  0  0  0  0  0  0  0  0  0  0
   12.9621  -10.2396    0.0000 H   0  0  0  0  0  0  0  0  0  0  0  0
   14.3906  -10.2396    0.0000 C   0  0  0  0  0  0  0  0  0  0  0  0
   18.6760   -9.4146    0.0000 O   0  0  0  0  0  0  0  0  0  0  0  0
   18.6760  -11.0641    0.0000 O   0  0  0  0  0  0  0  0  0  0  0  0
   17.2475  -11.8888    0.0000 O   0  0  0  0  0  0  0  0  0  0  0  0
   16.5333   -9.8269    0.0000 O   0  0  0  0  0  0  0  0  0  0  0  0
   16.5333  -10.6517    0.0000 C   0  0  0  0  0  0  0  0  0  0  0  0
   17.2475  -11.0641    0.0000 C   0  0  1  0  0  0  0  0  0  0  0  0
   17.9618  -10.6517    0.0000 C   0  0  1  0  0  0  0  0  0  0  0  0
   17.9618   -9.8269    0.0000 C   0  0  2  0  0  0  0  0  0  0  0  0
   17.2475   -9.4146    0.0000 C   0  0  2  0  0  0  0  0  0  0  0  0
   17.2475   -8.5898    0.0000 O   0  0  0  0  0  0  0  0  0  0  0  0
    9.4066  -10.6599    0.0000 C   0  0  2  0  0  0  0  0  0  0  0  0
    9.4066   -9.8352    0.0000 O   0  0  0  0  0  0  0  0  0  0  0  0
    8.6923   -9.4228    0.0000 C   0  0  1  0  0  0  0  0  0  0  0  0
    7.9781   -9.8352    0.0000 C   0  0  2  0  0  0  0  0  0  0  0  0
    7.9781  -10.6599    0.0000 C   0  0  1  0  0  0  0  0  0  0  0  0
    8.6923  -11.0723    0.0000 C   0  0  1  0  0  0  0  0  0  0  0  0
    8.6923   -8.5980    0.0000 C   0  0  0  0  0  0  0  0  0  0  0  0
    7.2638  -11.0723    0.0000 O   0  0  0  0  0  0  0  0  0  0  0  0
    7.2638   -9.4228    0.0000 O   0  0  0  0  0  0  0  0  0  0  0  0
    8.6923  -11.8970    0.0000 O   0  0  0  0  0  0  0  0  0  0  0  0
    7.9781   -8.1857    0.0000 O   0  0  0  0  0  0  0  0  0  0  0  0
    9.4066   -8.1857    0.0000 O   0  0  0  0  0  0  0  0  0  0  0  0
    7.9781  -12.3094    0.0000 C   0  0  2  0  0  0  0  0  0  0  0  0
    7.2638  -11.8970    0.0000 O   0  0  0  0  0  0  0  0  0  0  0  0
    6.5496  -12.3094    0.0000 C   0  0  1  0  0  0  0  0  0  0  0  0
    6.5496  -13.1341    0.0000 C   0  0  1  0  0  0  0  0  0  0  0  0
    7.2638  -13.5465    0.0000 C   0  0  1  0  0  0  0  0  0  0  0  0
    7.9781  -13.1341    0.0000 C   0  0  1  0  0  0  0  0  0  0  0  0
    5.8353  -11.8970    0.0000 C   0  0  0  0  0  0  0  0  0  0  0  0
    5.8353  -13.5465    0.0000 O   0  0  0  0  0  0  0  0  0  0  0  0
    7.2638  -14.3712    0.0000 O   0  0  0  0  0  0  0  0  0  0  0  0
    8.6923  -13.5465    0.0000 O   0  0  0  0  0  0  0  0  0  0  0  0
    5.1211  -12.3094    0.0000 O   0  0  0  0  0  0  0  0  0  0  0  0
    7.9782  -15.6237    0.0000 C   0  0  1  0  0  0  0  0  0  0  0  0
    8.6928  -16.0354    0.0000 C   0  0  1  0  0  0  0  0  0  0  0  0
    9.4067  -15.6224    0.0000 C   0  0  2  0  0  0  0  0  0  0  0  0
    9.4059  -14.7976    0.0000 C   0  0  2  0  0  0  0  0  0  0  0  0
    8.6913  -14.3859    0.0000 C   0  0  1  0  0  0  0  0  0  0  0  0
    7.9774  -14.7990    0.0000 O   0  0  0  0  0  0  0  0  0  0  0  0
    8.6936  -16.8602    0.0000 O   0  0  0  0  0  0  0  0  0  0  0  0
    7.2643  -16.0368    0.0000 C   0  0  0  0  0  0  0  0  0  0  0  0
   10.1213  -16.0341    0.0000 O   0  0  0  0  0  0  0  0  0  0  0  0
   10.1198  -14.3846    0.0000 O   0  0  0  0  0  0  0  0  0  0  0  0
 44 37  1  6  0  0  0
  1  2  1  0  0  0  0
  2  3  1  0  0  0  0
  3  4  1  0  0  0  0
  4  5  1  0  0  0  0
  5  6  1  0  0  0  0
  6  7  1  0  0  0  0
  7  8  1  0  0  0  0
  8  9  1  0  0  0  0
  9 10  1  0  0  0  0
 10 11  1  0  0  0  0
 11 12  1  0  0  0  0
 12 13  1  0  0  0  0
 13 14  1  0  0  0  0
 14 15  1  0  0  0  0
 15 16  1  0  0  0  0
 16 17  1  0  0  0  0
 12 17  1  0  0  0  0
 17 18  1  0  0  0  0
  9 18  1  0  0  0  0
 18 19  1  0  0  0  0
 19 20  1  0  0  0  0
 20 21  2  0  0  0  0
  8 21  1  0  0  0  0
 21 22  1  0  0  0  0
  5 22  1  0  0  0  0
  1 22  1  0  0  0  0
  3 23  1  1  0  0  0
  4 46  1  1  0  0  0
 14 24  1  1  0  0  0
 17 25  1  1  0  0  0
 13 26  1  6  0  0  0
  5 27  1  1  0  0  0
  2 28  1  0  0  0  0
  2 29  1  0  0  0  0
 30 31  1  0  0  0  0
 13 30  1  0  0  0  0
 12 32  1  6  0  0  0
 22 33  1  1  0  0  0
  9 34  1  1  0  0  0
 18 35  1  6  0  0  0
  8 36  1  6  0  0  0
 43 38  1  1  0  0  0
 42 39  1  1  0  0  0
 40 45  1  0  0  0  0
 41 40  1  0  0  0  0
 42 41  1  0  0  0  0
 43 42  1  0  0  0  0
 44 43  1  0  0  0  0
 45 44  1  0  0  0  0
 45 46  1  1  0  0  0
 47 48  1  0  0  0  0
 48 49  1  0  0  0  0
 49 50  1  0  0  0  0
 50 51  1  0  0  0  0
 51 52  1  0  0  0  0
 52 47  1  0  0  0  0
 49 53  1  1  0  0  0
 51 54  1  1  0  0  0
 50 55  1  6  0  0  0
 52 56  1  6  0  0  0
 53 57  1  0  0  0  0
 53 58  2  0  0  0  0
 59 56  1  1  0  0  0
 59 60  1  0  0  0  0
 60 61  1  0  0  0  0
 61 62  1  0  0  0  0
 62 63  1  0  0  0  0
 63 64  1  0  0  0  0
 64 59  1  0  0  0  0
 61 65  1  1  0  0  0
 62 66  1  1  0  0  0
 63 67  1  1  0  0  0
 64 68  1  6  0  0  0
 65 69  1  0  0  0  0
 47 24  1  1  0  0  0
 70 71  1  0  0  0  0
 71 72  1  0  0  0  0
 72 73  1  0  0  0  0
 73 74  1  0  0  0  0
 74 75  1  0  0  0  0
 75 70  1  0  0  0  0
 71 76  1  1  0  0  0
 70 77  1  6  0  0  0
 72 78  1  6  0  0  0
 73 79  1  6  0  0  0
 74 68  1  1  0  0  0
M  END
>  <cdx:fragmentId>
5

$$$$
