40125.cdx
  Mrv1902 05222410252D          

 40 44  0  0  0  0            999 V2000
    4.1506  -13.1301    0.0000 O   0  0  0  0  0  0  0  0  0  0  0  0
    4.8650  -14.3676    0.0000 O   0  0  0  0  0  0  0  0  0  0  0  0
    5.5795  -13.9551    0.0000 C   0  0  2  0  0  0  0  0  0  0  0  0
    5.5795  -13.1301    0.0000 C   0  0  1  0  0  0  0  0  0  0  0  0
    4.8650  -12.7176    0.0000 C   0  0  0  0  0  0  0  0  0  0  0  0
    6.2940  -14.3676    0.0000 C   0  0  1  0  0  0  0  0  0  0  0  0
    7.0084  -13.9551    0.0000 C   0  0  2  0  0  0  0  0  0  0  0  0
    7.0084  -13.1301    0.0000 C   0  0  1  0  0  0  0  0  0  0  0  0
    6.2940  -12.7176    0.0000 O   0  0  0  0  0  0  0  0  0  0  0  0
    7.7229  -12.7176    0.0000 O   0  0  0  0  0  0  0  0  0  0  0  0
    7.7229  -11.8926    0.0000 C   0  0  0  0  0  0  0  0  0  0  0  0
    7.0084  -11.4801    0.0000 C   0  0  0  0  0  0  0  0  0  0  0  0
    8.4374  -11.4801    0.0000 C   0  0  0  0  0  0  0  0  0  0  0  0
    8.4374  -10.6551    0.0000 C   0  0  0  0  0  0  0  0  0  0  0  0
    7.7229  -10.2426    0.0000 C   0  0  0  0  0  0  0  0  0  0  0  0
    7.0084  -10.6551    0.0000 C   0  0  0  0  0  0  0  0  0  0  0  0
    7.7229   -9.4176    0.0000 C   0  0  0  0  0  0  0  0  0  0  0  0
    7.0084   -9.0051    0.0000 C   0  0  0  0  0  0  0  0  0  0  0  0
    8.4374   -9.0051    0.0000 O   0  0  0  0  0  0  0  0  0  0  0  0
    8.4374   -8.1801    0.0000 C   0  0  0  0  0  0  0  0  0  0  0  0
    7.7229   -7.7676    0.0000 C   0  0  0  0  0  0  0  0  0  0  0  0
    7.0084   -8.1801    0.0000 C   0  0  0  0  0  0  0  0  0  0  0  0
    9.1519   -7.7676    0.0000 C   0  0  0  0  0  0  0  0  0  0  0  0
    9.1519   -6.9426    0.0000 C   0  0  0  0  0  0  0  0  0  0  0  0
    8.4374   -6.5301    0.0000 C   0  0  0  0  0  0  0  0  0  0  0  0
    7.7229   -6.9426    0.0000 C   0  0  0  0  0  0  0  0  0  0  0  0
    9.8663   -6.5301    0.0000 O   0  0  0  0  0  0  0  0  0  0  0  0
    9.8663   -5.7051    0.0000 C   0  0  2  0  0  0  0  0  0  0  0  0
    9.1519   -5.2926    0.0000 O   0  0  0  0  0  0  0  0  0  0  0  0
   10.4794   -5.1531    0.0000 C   0  0  1  0  0  0  0  0  0  0  0  0
   10.1439   -4.3994    0.0000 C   0  0  0  0  0  0  0  0  0  0  0  0
    9.3234   -4.4857    0.0000 C   0  0  0  0  0  0  0  0  0  0  0  0
    6.2940   -7.7676    0.0000 O   0  0  0  0  0  0  0  0  0  0  0  0
    8.4374   -9.8301    0.0000 H   0  0  0  0  0  0  0  0  0  0  0  0
   10.8583   -3.9869    0.0000 O   0  0  0  0  0  0  0  0  0  0  0  0
   10.1439   -3.5744    0.0000 C   0  0  0  0  0  0  0  0  0  0  0  0
    9.3470   -3.3609    0.0000 O   0  0  0  0  0  0  0  0  0  0  0  0
    6.2940  -15.1926    0.0000 O   0  0  0  0  0  0  0  0  0  0  0  0
   11.2864   -5.3246    0.0000 O   0  0  0  0  0  0  0  0  0  0  0  0
    7.7229  -14.3676    0.0000 O   0  0  0  0  0  0  0  0  0  0  0  0
  3  2  1  6  0  0  0
  3  4  1  0  0  0  0
  4  5  1  1  0  0  0
  5  1  1  0  0  0  0
  3  6  1  0  0  0  0
  6  7  1  0  0  0  0
  7  8  1  0  0  0  0
  8  9  1  0  0  0  0
  9  4  1  0  0  0  0
  8 10  1  1  0  0  0
 10 11  1  0  0  0  0
 11 12  2  0  0  0  0
 11 13  1  0  0  0  0
 13 14  2  0  0  0  0
 14 15  1  0  0  0  0
 15 16  2  0  0  0  0
 16 12  1  0  0  0  0
 15 17  1  0  0  0  0
 17 18  1  0  0  0  0
 17 19  1  0  0  0  0
 19 20  1  0  0  0  0
 20 21  2  0  0  0  0
 21 22  1  0  0  0  0
 22 18  1  0  0  0  0
 20 23  1  0  0  0  0
 23 24  2  0  0  0  0
 24 25  1  0  0  0  0
 25 26  2  0  0  0  0
 26 21  1  0  0  0  0
 24 27  1  0  0  0  0
 28 27  1  6  0  0  0
 28 29  1  0  0  0  0
 28 30  1  0  0  0  0
 30 31  1  0  0  0  0
 31 32  1  0  0  0  0
 32 29  1  0  0  0  0
 22 33  2  0  0  0  0
 17 34  1  0  0  0  0
 31 35  1  0  0  0  0
 31 36  1  0  0  0  0
 36 37  1  0  0  0  0
  6 38  1  1  0  0  0
 30 39  1  1  0  0  0
  7 40  1  6  0  0  0
M  END
>  <cdx:fragmentId>
5

$$$$
