40121.cdx
  Mrv1902 05222410232D          

 61 68  0  0  0  0            999 V2000
    6.9470   -6.6550    0.0000 C   0  0  0  0  0  0  0  0  0  0  0  0
    6.9470   -7.4800    0.0000 C   0  0  1  0  0  0  0  0  0  0  0  0
    7.6615   -7.8925    0.0000 C   0  0  1  0  0  0  0  0  0  0  0  0
    8.3760   -7.4800    0.0000 C   0  0  1  0  0  0  0  0  0  0  0  0
    8.3760   -6.6550    0.0000 C   0  0  2  0  0  0  0  0  0  0  0  0
    7.6615   -6.2425    0.0000 C   0  0  0  0  0  0  0  0  0  0  0  0
    9.0904   -7.8925    0.0000 C   0  0  0  0  0  0  0  0  0  0  0  0
    9.8049   -7.4800    0.0000 C   0  0  0  0  0  0  0  0  0  0  0  0
    9.8049   -6.6550    0.0000 C   0  0  2  0  0  0  0  0  0  0  0  0
    9.0904   -6.2425    0.0000 C   0  0  2  0  0  0  0  0  0  0  0  0
   10.5194   -6.2425    0.0000 C   0  0  1  0  0  0  0  0  0  0  0  0
   10.5194   -5.4175    0.0000 C   0  0  0  0  0  0  0  0  0  0  0  0
    9.8049   -5.0050    0.0000 C   0  0  0  0  0  0  0  0  0  0  0  0
    9.0904   -5.4175    0.0000 C   0  0  0  0  0  0  0  0  0  0  0  0
   11.2339   -6.6550    0.0000 C   0  0  0  0  0  0  0  0  0  0  0  0
   11.9483   -6.2425    0.0000 C   0  0  0  0  0  0  0  0  0  0  0  0
   11.9483   -5.4175    0.0000 C   0  0  2  0  0  0  0  0  0  0  0  0
   11.2339   -5.0050    0.0000 C   0  0  1  0  0  0  0  0  0  0  0  0
   12.6628   -5.0050    0.0000 C   0  0  1  0  0  0  0  0  0  0  0  0
   12.6628   -4.1800    0.0000 C   0  0  0  0  0  0  0  0  0  0  0  0
   11.9483   -3.7675    0.0000 C   0  0  1  0  0  0  0  0  0  0  0  0
   11.2339   -4.1800    0.0000 C   0  0  0  0  0  0  0  0  0  0  0  0
   12.6628   -5.8300    0.0000 C   0  0  0  0  0  0  0  0  0  0  0  0
    9.8049   -5.8300    0.0000 C   0  0  0  0  0  0  0  0  0  0  0  0
    8.3760   -5.8300    0.0000 C   0  0  0  0  0  0  0  0  0  0  0  0
    8.0740   -8.6070    0.0000 C   0  0  0  0  0  0  0  0  0  0  0  0
    7.2490   -8.6070    0.0000 C   0  0  0  0  0  0  0  0  0  0  0  0
   10.5194   -7.0675    0.0000 C   0  0  0  0  0  0  0  0  0  0  0  0
    6.1823   -7.9337    0.0000 O   0  0  0  0  0  0  0  0  0  0  0  0
   13.5025   -4.4825    0.0000 O   0  0  0  0  0  0  0  0  0  0  0  0
   12.6628   -3.3550    0.0000 C   0  0  0  0  0  0  0  0  0  0  0  0
   10.5194   -4.5925    0.0000 H   0  0  0  0  0  0  0  0  0  0  0  0
   11.3650   -3.1841    0.0000 C   0  0  0  0  0  0  0  0  0  0  0  0
    9.0904   -7.0675    0.0000 H   0  0  0  0  0  0  0  0  0  0  0  0
    8.3760   -8.3050    0.0000 H   0  0  0  0  0  0  0  0  0  0  0  0
   12.6628   -2.5300    0.0000 O   0  0  0  0  0  0  0  0  0  0  0  0
    8.3760   -5.0050    0.0000 O   0  0  0  0  0  0  0  0  0  0  0  0
    5.4631   -7.5281    0.0000 C   0  0  1  0  0  0  0  0  0  0  0  0
    5.4631   -6.7031    0.0000 O   0  0  0  0  0  0  0  0  0  0  0  0
    4.7486   -6.2906    0.0000 C   0  0  1  0  0  0  0  0  0  0  0  0
    4.0341   -6.7031    0.0000 C   0  0  2  0  0  0  0  0  0  0  0  0
    4.0341   -7.5281    0.0000 C   0  0  1  0  0  0  0  0  0  0  0  0
    4.7486   -7.9406    0.0000 C   0  0  1  0  0  0  0  0  0  0  0  0
    4.7486   -5.4656    0.0000 C   0  0  0  0  0  0  0  0  0  0  0  0
    3.3197   -7.9406    0.0000 O   0  0  0  0  0  0  0  0  0  0  0  0
    3.3197   -6.2906    0.0000 O   0  0  0  0  0  0  0  0  0  0  0  0
    4.7486   -8.7656    0.0000 O   0  0  0  0  0  0  0  0  0  0  0  0
    5.4631   -5.0531    0.0000 O   0  0  0  0  0  0  0  0  0  0  0  0
    4.0341   -5.0531    0.0000 O   0  0  0  0  0  0  0  0  0  0  0  0
    4.0341   -9.1781    0.0000 C   0  0  2  0  0  0  0  0  0  0  0  0
    3.3197   -8.7656    0.0000 O   0  0  0  0  0  0  0  0  0  0  0  0
    2.6052   -9.1781    0.0000 C   0  0  1  0  0  0  0  0  0  0  0  0
    2.6052  -10.0031    0.0000 C   0  0  2  0  0  0  0  0  0  0  0  0
    3.3197  -10.4156    0.0000 C   0  0  1  0  0  0  0  0  0  0  0  0
    4.0341  -10.0031    0.0000 C   0  0  1  0  0  0  0  0  0  0  0  0
    1.8907   -8.7656    0.0000 C   0  0  0  0  0  0  0  0  0  0  0  0
    3.3197  -11.2406    0.0000 O   0  0  0  0  0  0  0  0  0  0  0  0
    1.8907  -10.4156    0.0000 O   0  0  0  0  0  0  0  0  0  0  0  0
    4.7486  -10.4156    0.0000 O   0  0  0  0  0  0  0  0  0  0  0  0
    1.1763   -9.1781    0.0000 O   0  0  0  0  0  0  0  0  0  0  0  0
    1.8907   -7.9406    0.0000 O   0  0  0  0  0  0  0  0  0  0  0  0
  1  2  1  0  0  0  0
  2  3  1  0  0  0  0
  3  4  1  0  0  0  0
  4  5  1  0  0  0  0
  5  6  1  0  0  0  0
  6  1  1  0  0  0  0
  4  7  1  0  0  0  0
  7  8  1  0  0  0  0
  8  9  1  0  0  0  0
  9 10  1  0  0  0  0
 10  5  1  0  0  0  0
  9 11  1  0  0  0  0
 11 12  1  0  0  0  0
 12 13  2  0  0  0  0
 13 14  1  0  0  0  0
 14 10  1  0  0  0  0
 11 15  1  0  0  0  0
 15 16  1  0  0  0  0
 16 17  1  0  0  0  0
 17 18  1  0  0  0  0
 18 12  1  0  0  0  0
 17 19  1  0  0  0  0
 19 20  1  0  0  0  0
 20 21  1  0  0  0  0
 21 22  1  0  0  0  0
 22 18  1  0  0  0  0
 17 23  1  1  0  0  0
  9 24  1  1  0  0  0
  5 25  1  1  0  0  0
  3 26  1  1  0  0  0
  3 27  1  6  0  0  0
 11 28  1  6  0  0  0
  2 29  1  1  0  0  0
 19 30  1  1  0  0  0
 21 31  1  1  0  0  0
 18 32  1  1  0  0  0
 21 33  1  6  0  0  0
 10 34  1  6  0  0  0
  4 35  1  6  0  0  0
 31 30  1  0  0  0  0
 31 36  2  0  0  0  0
 14 37  2  0  0  0  0
 38 39  1  0  0  0  0
 39 40  1  0  0  0  0
 40 41  1  0  0  0  0
 41 42  1  0  0  0  0
 42 43  1  0  0  0  0
 43 38  1  0  0  0  0
 40 44  1  1  0  0  0
 42 45  1  1  0  0  0
 41 46  1  6  0  0  0
 43 47  1  6  0  0  0
 44 48  2  0  0  0  0
 44 49  1  0  0  0  0
 50 47  1  1  0  0  0
 50 51  1  0  0  0  0
 51 52  1  0  0  0  0
 52 53  1  0  0  0  0
 53 54  1  0  0  0  0
 54 55  1  0  0  0  0
 55 50  1  0  0  0  0
 52 56  1  1  0  0  0
 54 57  1  1  0  0  0
 53 58  1  6  0  0  0
 55 59  1  6  0  0  0
 56 60  1  0  0  0  0
 56 61  2  0  0  0  0
 38 29  1  6  0  0  0
M  END
>  <cdx:fragmentId>
5

$$$$
