40123.cdx
  Mrv1902 05222410242D          

 14 13  0  0  0  0            999 V2000
    3.8200   -9.8026    0.0000 C   0  0  0  0  0  0  0  0  0  0  0  0
    4.5345  -10.2151    0.0000 C   0  0  0  0  0  0  0  0  0  0  0  0
    5.2490   -9.8026    0.0000 C   0  0  0  0  0  0  0  0  0  0  0  0
    5.9634   -9.3901    0.0000 C   0  0  0  0  0  0  0  0  0  0  0  0
    5.2490   -8.9776    0.0000 O   0  0  0  0  0  0  0  0  0  0  0  0
    5.6615  -10.5171    0.0000 C   0  0  0  0  0  0  0  0  0  0  0  0
    6.6779   -9.8026    0.0000 C   0  0  0  0  0  0  0  0  0  0  0  0
    7.3924   -9.3901    0.0000 C   0  0  0  0  0  0  0  0  0  0  0  0
    8.1069   -9.8026    0.0000 C   0  0  0  0  0  0  0  0  0  0  0  0
    8.8213   -9.3901    0.0000 C   0  0  0  0  0  0  0  0  0  0  0  0
    8.1069  -10.6276    0.0000 C   0  0  0  0  0  0  0  0  0  0  0  0
    4.5345  -11.0401    0.0000 D   0  0  0  0  0  0  0  0  0  0  0  0
    3.1056  -10.2151    0.0000 D   0  0  0  0  0  0  0  0  0  0  0  0
    3.8200   -8.9776    0.0000 D   0  0  0  0  0  0  0  0  0  0  0  0
  1  2  2  0  0  0  0
  2  3  1  0  0  0  0
  3  4  1  0  0  0  0
  3  5  1  0  0  0  0
  3  6  1  0  0  0  0
  4  7  1  0  0  0  0
  7  8  1  0  0  0  0
  8  9  2  0  0  0  0
  9 10  1  0  0  0  0
  9 11  1  0  0  0  0
  2 12  1  0  0  0  0
  1 13  1  0  0  0  0
  1 14  1  0  0  0  0
M  END
>  <cdx:fragmentId>
3

$$$$
