40127.cdx
  Mrv1902 05222410252D          

 39 42  0  0  0  0            999 V2000
    5.0443   -9.4726    0.0000 C   0  0  2  0  0  0  0  0  0  0  0  0
    5.0443  -10.2976    0.0000 C   0  0  2  0  0  0  0  0  0  0  0  0
    5.7588  -10.7101    0.0000 C   0  0  1  0  0  0  0  0  0  0  0  0
    6.4732  -10.2976    0.0000 C   0  0  2  0  0  0  0  0  0  0  0  0
    6.4732   -9.4726    0.0000 C   0  0  1  0  0  0  0  0  0  0  0  0
    5.7588   -9.0601    0.0000 O   0  0  0  0  0  0  0  0  0  0  0  0
    7.1877   -9.0601    0.0000 O   0  0  0  0  0  0  0  0  0  0  0  0
    7.1877   -8.2351    0.0000 C   0  0  2  0  0  0  0  0  0  0  0  0
    6.4732   -7.8226    0.0000 O   0  0  0  0  0  0  0  0  0  0  0  0
    7.9022   -7.8226    0.0000 C   0  0  1  0  0  0  0  0  0  0  0  0
    7.9022   -6.9976    0.0000 C   0  0  1  0  0  0  0  0  0  0  0  0
    7.1877   -6.5851    0.0000 C   0  0  0  0  0  0  0  0  0  0  0  0
    6.4732   -6.9976    0.0000 C   0  0  0  0  0  0  0  0  0  0  0  0
    8.6868   -8.0776    0.0000 C   0  0  2  0  0  0  0  0  0  0  0  0
    9.1717   -7.4101    0.0000 C   0  0  2  0  0  0  0  0  0  0  0  0
    8.6868   -6.7427    0.0000 C   0  0  0  0  0  0  0  0  0  0  0  0
    4.3298   -9.0601    0.0000 C   0  0  0  0  0  0  0  0  0  0  0  0
    3.6154   -9.4726    0.0000 O   0  0  0  0  0  0  0  0  0  0  0  0
    7.1877   -5.7601    0.0000 C   0  0  0  0  0  0  0  0  0  0  0  0
    6.4732   -5.3476    0.0000 O   0  0  0  0  0  0  0  0  0  0  0  0
    7.9022   -5.3476    0.0000 O   0  0  0  0  0  0  0  0  0  0  0  0
    5.7588  -11.5351    0.0000 O   0  0  0  0  0  0  0  0  0  0  0  0
    8.9417   -8.8622    0.0000 C   0  0  0  0  0  0  0  0  0  0  0  0
    7.9022   -6.1726    0.0000 H   0  0  0  0  0  0  0  0  0  0  0  0
    7.9022   -8.6476    0.0000 H   0  0  0  0  0  0  0  0  0  0  0  0
    9.9967   -7.4101    0.0000 O   0  0  0  0  0  0  0  0  0  0  0  0
    4.3298  -10.7101    0.0000 O   0  0  0  0  0  0  0  0  0  0  0  0
    7.1877  -10.7101    0.0000 O   0  0  0  0  0  0  0  0  0  0  0  0
    6.4767   -4.5227    0.0000 C   0  0  2  0  0  0  0  0  0  0  0  0
    7.1930   -4.1132    0.0000 O   0  0  0  0  0  0  0  0  0  0  0  0
    7.1965   -3.2882    0.0000 C   0  0  1  0  0  0  0  0  0  0  0  0
    6.4838   -2.8727    0.0000 C   0  0  2  0  0  0  0  0  0  0  0  0
    5.7675   -3.2821    0.0000 C   0  0  1  0  0  0  0  0  0  0  0  0
    5.7640   -4.1071    0.0000 C   0  0  1  0  0  0  0  0  0  0  0  0
    7.9127   -2.8787    0.0000 C   0  0  0  0  0  0  0  0  0  0  0  0
    5.0548   -2.8666    0.0000 O   0  0  0  0  0  0  0  0  0  0  0  0
    6.4873   -2.0477    0.0000 O   0  0  0  0  0  0  0  0  0  0  0  0
    7.9162   -2.0537    0.0000 O   0  0  0  0  0  0  0  0  0  0  0  0
    5.0478   -4.5166    0.0000 O   0  0  0  0  0  0  0  0  0  0  0  0
  1  2  1  0  0  0  0
  2  3  1  0  0  0  0
  3  4  1  0  0  0  0
  4  5  1  0  0  0  0
  5  6  1  0  0  0  0
  6  1  1  0  0  0  0
  5  7  1  1  0  0  0
  8  7  1  6  0  0  0
  8  9  1  0  0  0  0
  8 10  1  0  0  0  0
 10 11  1  0  0  0  0
 11 12  1  0  0  0  0
 12 13  2  0  0  0  0
 13  9  1  0  0  0  0
 10 14  1  0  0  0  0
 14 15  1  0  0  0  0
 15 16  1  0  0  0  0
 16 11  1  0  0  0  0
  1 17  1  1  0  0  0
 17 18  1  0  0  0  0
 12 19  1  0  0  0  0
 19 20  1  0  0  0  0
 19 21  2  0  0  0  0
  3 22  1  1  0  0  0
 14 23  1  6  0  0  0
 11 24  1  6  0  0  0
 10 25  1  6  0  0  0
 15 26  1  6  0  0  0
  2 27  1  6  0  0  0
  4 28  1  6  0  0  0
 29 20  1  1  0  0  0
 29 30  1  0  0  0  0
 30 31  1  0  0  0  0
 31 32  1  0  0  0  0
 32 33  1  0  0  0  0
 33 34  1  0  0  0  0
 34 29  1  0  0  0  0
 31 35  1  1  0  0  0
 33 36  1  1  0  0  0
 32 37  1  6  0  0  0
 35 38  1  0  0  0  0
 34 39  1  6  0  0  0
M  END
>  <cdx:fragmentId>
5

$$$$
