40133.cdx
  Mrv1902 05222410252D          

 21 24  0  0  0  0            999 V2000
    5.0856  -10.0914    0.0000 C   0  0  0  0  0  0  0  0  0  0  0  0
    5.0856  -10.9164    0.0000 C   0  0  0  0  0  0  0  0  0  0  0  0
    5.8000  -11.3289    0.0000 C   0  0  0  0  0  0  0  0  0  0  0  0
    6.5145  -10.9164    0.0000 N   0  0  0  0  0  0  0  0  0  0  0  0
    6.5145  -10.0914    0.0000 C   0  0  2  0  0  0  0  0  0  0  0  0
    5.8000   -9.6789    0.0000 C   0  0  1  0  0  0  0  0  0  0  0  0
    7.2290  -11.3289    0.0000 C   0  0  0  0  0  0  0  0  0  0  0  0
    7.9434  -10.9164    0.0000 C   0  0  0  0  0  0  0  0  0  0  0  0
    7.9434  -10.0914    0.0000 C   0  0  0  0  0  0  0  0  0  0  0  0
    7.2290   -9.6789    0.0000 C   0  0  0  0  0  0  0  0  0  0  0  0
    7.2290   -8.8539    0.0000 C   0  0  1  0  0  0  0  0  0  0  0  0
    6.5145   -8.4414    0.0000 C   0  0  1  0  0  0  0  0  0  0  0  0
    5.8000   -8.8539    0.0000 C   0  0  1  0  0  0  0  0  0  0  0  0
    6.3010   -9.7208    0.0000 C   0  0  0  0  0  0  0  0  0  0  0  0
    6.8852   -8.8676    0.0000 C   0  0  0  0  0  0  0  0  0  0  0  0
    6.2735   -9.1570    0.0000 C   0  0  1  0  0  0  0  0  0  0  0  0
    6.0599   -8.3601    0.0000 C   0  0  0  0  0  0  0  0  0  0  0  0
    5.0856   -8.4414    0.0000 O   0  0  0  0  0  0  0  0  0  0  0  0
    7.9434   -8.4414    0.0000 H   0  0  0  0  0  0  0  0  0  0  0  0
    6.5145   -7.6164    0.0000 O   0  0  0  0  0  0  0  0  0  0  0  0
    5.0856   -9.2664    0.0000 H   0  0  0  0  0  0  0  0  0  0  0  0
  1  2  1  0  0  0  0
  2  3  1  0  0  0  0
  3  4  1  0  0  0  0
  5  4  1  6  0  0  0
  5  6  1  0  0  0  0
  6  1  1  0  0  0  0
  4  7  1  0  0  0  0
  7  8  1  0  0  0  0
  8  9  1  0  0  0  0
  9 10  2  0  0  0  0
 10  5  1  0  0  0  0
 10 11  1  0  0  0  0
 11 12  1  0  0  0  0
 12 13  1  0  0  0  0
 13  6  1  0  0  0  0
  5 14  1  0  0  0  0
 11 15  1  0  0  0  0
 14 16  1  0  0  0  0
 15 16  1  0  0  0  0
 16 17  1  6  0  0  0
 13 18  1  6  0  0  0
 11 19  1  6  0  0  0
 12 20  1  1  0  0  0
  6 21  1  1  0  0  0
M  END
>  <cdx:fragmentId>
5

$$$$
