40136.cdx
  Mrv1902 05222410242D          

 19 21  0  0  0  0            999 V2000
    5.0718   -8.4414    0.0000 C   0  0  0  0  0  0  0  0  0  0  0  0
    5.0718   -9.2664    0.0000 C   0  0  0  0  0  0  0  0  0  0  0  0
    5.7863   -9.6789    0.0000 C   0  0  0  0  0  0  0  0  0  0  0  0
    6.5007   -9.2664    0.0000 C   0  0  0  0  0  0  0  0  0  0  0  0
    6.5007   -8.4414    0.0000 C   0  0  0  0  0  0  0  0  0  0  0  0
    5.7863   -8.0289    0.0000 C   0  0  0  0  0  0  0  0  0  0  0  0
    7.2152   -9.6789    0.0000 C   0  0  0  0  0  0  0  0  0  0  0  0
    7.9297   -9.2664    0.0000 C   0  0  0  0  0  0  0  0  0  0  0  0
    7.9297   -8.4414    0.0000 C   0  0  0  0  0  0  0  0  0  0  0  0
    7.2152   -8.0289    0.0000 C   0  0  0  0  0  0  0  0  0  0  0  0
    8.6442   -8.0289    0.0000 C   0  0  0  0  0  0  0  0  0  0  0  0
    8.6442   -7.2039    0.0000 C   0  0  0  0  0  0  0  0  0  0  0  0
    7.9297   -6.7914    0.0000 C   0  0  0  0  0  0  0  0  0  0  0  0
    7.2152   -7.2039    0.0000 C   0  0  0  0  0  0  0  0  0  0  0  0
    4.3573   -9.6789    0.0000 O   0  0  0  0  0  0  0  0  0  0  0  0
    3.6429   -9.2664    0.0000 C   0  0  0  0  0  0  0  0  0  0  0  0
    5.7863   -7.2039    0.0000 O   0  0  0  0  0  0  0  0  0  0  0  0
    9.3586   -6.7914    0.0000 O   0  0  0  0  0  0  0  0  0  0  0  0
    6.5007   -6.7914    0.0000 O   0  0  0  0  0  0  0  0  0  0  0  0
  1  2  2  0  0  0  0
  2  3  1  0  0  0  0
  3  4  2  0  0  0  0
  4  5  1  0  0  0  0
  5  6  2  0  0  0  0
  6  1  1  0  0  0  0
  4  7  1  0  0  0  0
  7  8  2  0  0  0  0
  8  9  1  0  0  0  0
  9 10  2  0  0  0  0
 10  5  1  0  0  0  0
  9 11  1  0  0  0  0
 11 12  2  0  0  0  0
 12 13  1  0  0  0  0
 13 14  2  0  0  0  0
 14 10  1  0  0  0  0
  2 15  1  0  0  0  0
 15 16  1  0  0  0  0
  6 17  1  0  0  0  0
 12 18  1  0  0  0  0
 14 19  1  0  0  0  0
M  END
>  <cdx:fragmentId>
5

$$$$
