40132.cdx
  Mrv1902 05222410252D          

 38 40  0  0  0  0            999 V2000
    3.9718   -9.1976    0.0000 C   0  0  2  0  0  0  0  0  0  0  0  0
    3.9718  -10.0226    0.0000 C   0  0  2  0  0  0  0  0  0  0  0  0
    4.6863  -10.4351    0.0000 C   0  0  1  0  0  0  0  0  0  0  0  0
    5.4007  -10.0226    0.0000 C   0  0  2  0  0  0  0  0  0  0  0  0
    5.4007   -9.1976    0.0000 C   0  0  1  0  0  0  0  0  0  0  0  0
    4.6863   -8.7851    0.0000 O   0  0  0  0  0  0  0  0  0  0  0  0
    6.1152   -8.7851    0.0000 O   0  0  0  0  0  0  0  0  0  0  0  0
    6.1152   -7.9601    0.0000 C   0  0  2  0  0  0  0  0  0  0  0  0
    5.4007   -7.5476    0.0000 O   0  0  0  0  0  0  0  0  0  0  0  0
    6.8297   -7.5476    0.0000 C   0  0  1  0  0  0  0  0  0  0  0  0
    6.8297   -6.7226    0.0000 C   0  0  1  0  0  0  0  0  0  0  0  0
    6.1152   -6.3101    0.0000 C   0  0  0  0  0  0  0  0  0  0  0  0
    5.4007   -6.7226    0.0000 C   0  0  0  0  0  0  0  0  0  0  0  0
    7.5442   -7.9601    0.0000 C   0  0  0  0  0  0  0  0  0  0  0  0
    8.2586   -6.7226    0.0000 C   0  0  0  0  0  0  0  0  0  0  0  0
    7.5442   -6.3101    0.0000 C   0  0  0  0  0  0  0  0  0  0  0  0
    8.9731   -7.9601    0.0000 O   0  0  0  0  0  0  0  0  0  0  0  0
    9.6876   -7.5476    0.0000 C   0  0  0  0  0  0  0  0  0  0  0  0
    9.6876   -6.7226    0.0000 C   0  0  1  0  0  0  0  0  0  0  0  0
    8.9731   -6.3101    0.0000 N   0  0  0  0  0  0  0  0  0  0  0  0
   10.4020   -7.9601    0.0000 O   0  0  0  0  0  0  0  0  0  0  0  0
   11.1165   -7.5476    0.0000 C   0  0  0  0  0  0  0  0  0  0  0  0
   11.1165   -6.7226    0.0000 C   0  0  0  0  0  0  0  0  0  0  0  0
   10.4020   -6.3101    0.0000 C   0  0  0  0  0  0  0  0  0  0  0  0
   11.8310   -7.9601    0.0000 C   0  0  0  0  0  0  0  0  0  0  0  0
   12.5455   -7.5476    0.0000 C   0  0  0  0  0  0  0  0  0  0  0  0
   12.5455   -6.7226    0.0000 C   0  0  0  0  0  0  0  0  0  0  0  0
   11.8310   -6.3101    0.0000 C   0  0  0  0  0  0  0  0  0  0  0  0
    7.5442   -8.7851    0.0000 C   0  0  0  0  0  0  0  0  0  0  0  0
    6.1152   -5.4851    0.0000 C   0  0  0  0  0  0  0  0  0  0  0  0
    5.4007   -5.0726    0.0000 O   0  0  0  0  0  0  0  0  0  0  0  0
    6.8297   -5.0726    0.0000 O   0  0  0  0  0  0  0  0  0  0  0  0
    5.4007   -4.2476    0.0000 C   0  0  0  0  0  0  0  0  0  0  0  0
    3.2573   -8.7851    0.0000 C   0  0  0  0  0  0  0  0  0  0  0  0
    2.5429   -9.1976    0.0000 O   0  0  0  0  0  0  0  0  0  0  0  0
    4.6863  -11.2601    0.0000 O   0  0  0  0  0  0  0  0  0  0  0  0
    3.2573  -10.4351    0.0000 O   0  0  0  0  0  0  0  0  0  0  0  0
    6.1152  -10.4351    0.0000 O   0  0  0  0  0  0  0  0  0  0  0  0
  1  2  1  0  0  0  0
  2  3  1  0  0  0  0
  3  4  1  0  0  0  0
  4  5  1  0  0  0  0
  5  6  1  0  0  0  0
  6  1  1  0  0  0  0
  5  7  1  1  0  0  0
  8  7  1  6  0  0  0
  8  9  1  0  0  0  0
  8 10  1  0  0  0  0
 10 11  1  0  0  0  0
 11 12  1  0  0  0  0
 12 13  2  0  0  0  0
 13  9  1  0  0  0  0
 10 14  1  1  0  0  0
 15 16  1  0  0  0  0
 11 16  1  1  0  0  0
 17 18  1  0  0  0  0
 18 19  1  0  0  0  0
 19 20  1  1  0  0  0
 20 15  1  0  0  0  0
 18 21  2  0  0  0  0
 22 23  1  0  0  0  0
 23 24  1  0  0  0  0
 24 19  1  0  0  0  0
 22 25  2  0  0  0  0
 25 26  1  0  0  0  0
 26 27  2  0  0  0  0
 27 28  1  0  0  0  0
 28 23  2  0  0  0  0
 14 29  2  0  0  0  0
 12 30  1  0  0  0  0
 30 31  1  0  0  0  0
 30 32  2  0  0  0  0
 31 33  1  0  0  0  0
  1 34  1  1  0  0  0
 34 35  1  0  0  0  0
  3 36  1  1  0  0  0
  2 37  1  6  0  0  0
  4 38  1  6  0  0  0
M  END
>  <cdx:fragmentId>
5

$$$$
