40130.cdx
  Mrv1902 05222410252D          

 19 22  0  0  0  0            999 V2000
    4.0384   -8.6625    0.0000 C   0  0  1  0  0  0  0  0  0  0  0  0
    3.6259   -7.9480    0.0000 C   0  0  0  0  0  0  0  0  0  0  0  0
    3.8394   -7.1511    0.0000 C   0  0  0  0  0  0  0  0  0  0  0  0
    4.5539   -6.7386    0.0000 C   0  0  0  0  0  0  0  0  0  0  0  0
    5.3508   -6.9522    0.0000 C   0  0  0  0  0  0  0  0  0  0  0  0
    5.7633   -7.6666    0.0000 C   0  0  2  0  0  0  0  0  0  0  0  0
    5.7633   -8.4916    0.0000 C   0  0  1  0  0  0  0  0  0  0  0  0
    4.3550  -10.0163    0.0000 C   0  0  2  0  0  0  0  0  0  0  0  0
    5.6544  -10.0163    0.0000 C   0  0  2  0  0  0  0  0  0  0  0  0
    6.6575   -9.3696    0.0000 C   0  0  0  0  0  0  0  0  0  0  0  0
    4.7675   -9.3018    0.0000 C   0  0  2  0  0  0  0  0  0  0  0  0
    5.3508   -6.1272    0.0000 C   0  0  0  0  0  0  0  0  0  0  0  0
    6.1476   -6.7386    0.0000 C   0  0  0  0  0  0  0  0  0  0  0  0
    6.5601   -7.4531    0.0000 H   0  0  0  0  0  0  0  0  0  0  0  0
    4.3550  -10.8413    0.0000 C   0  0  0  0  0  0  0  0  0  0  0  0
    5.5925   -9.3018    0.0000 H   0  0  0  0  0  0  0  0  0  0  0  0
    6.5883   -8.4916    0.0000 H   0  0  0  0  0  0  0  0  0  0  0  0
    3.2134   -8.6625    0.0000 C   0  0  0  0  0  0  0  0  0  0  0  0
    5.6544  -10.8413    0.0000 H   0  0  0  0  0  0  0  0  0  0  0  0
  1  2  1  0  0  0  0
  2  3  1  0  0  0  0
  3  4  1  0  0  0  0
  4  5  1  0  0  0  0
  5  6  1  0  0  0  0
  6  7  1  0  0  0  0
  1  7  1  0  0  0  0
  1  8  1  0  0  0  0
  8  9  1  0  0  0  0
  9 10  1  0  0  0  0
  7 10  1  0  0  0  0
  8 11  1  0  0  0  0
 11  9  1  0  0  0  0
 11  6  1  0  0  0  0
  5 12  1  0  0  0  0
  5 13  1  0  0  0  0
  6 14  1  1  0  0  0
  8 15  1  1  0  0  0
 11 16  1  6  0  0  0
  7 17  1  6  0  0  0
  1 18  1  6  0  0  0
  9 19  1  6  0  0  0
M  END
>  <cdx:fragmentId>
3

$$$$
