40131.cdx
  Mrv1902 05222410252D          

 18 20  0  0  0  0            999 V2000
    5.5225   -6.9529    0.0000 C   0  0  0  0  0  0  0  0  0  0  0  0
    5.6987   -7.7588    0.0000 C   0  0  2  0  0  0  0  0  0  0  0  0
    6.4387   -8.1235    0.0000 C   0  0  2  0  0  0  0  0  0  0  0  0
    7.1853   -7.7724    0.0000 C   0  0  2  0  0  0  0  0  0  0  0  0
    7.3761   -6.9697    0.0000 C   0  0  0  0  0  0  0  0  0  0  0  0
    6.8676   -6.3201    0.0000 C   0  0  0  0  0  0  0  0  0  0  0  0
    6.0427   -6.3126    0.0000 C   0  0  0  0  0  0  0  0  0  0  0  0
    4.9391   -6.3695    0.0000 C   0  0  0  0  0  0  0  0  0  0  0  0
    4.7256   -7.1664    0.0000 C   0  0  0  0  0  0  0  0  0  0  0  0
    5.6987   -8.5838    0.0000 C   0  0  1  0  0  0  0  0  0  0  0  0
    7.1853   -8.5974    0.0000 C   0  0  0  0  0  0  0  0  0  0  0  0
    7.7660   -9.1834    0.0000 C   0  0  0  0  0  0  0  0  0  0  0  0
    6.1112   -9.2983    0.0000 C   0  0  0  0  0  0  0  0  0  0  0  0
    6.8257   -8.8858    0.0000 C   0  0  0  0  0  0  0  0  0  0  0  0
    6.2252   -8.9204    0.0000 H   0  0  0  0  0  0  0  0  0  0  0  0
    7.9821   -7.9859    0.0000 C   0  0  0  0  0  0  0  0  0  0  0  0
    4.9018   -7.9724    0.0000 H   0  0  0  0  0  0  0  0  0  0  0  0
    4.9018   -8.7974    0.0000 H   0  0  0  0  0  0  0  0  0  0  0  0
  1  2  1  0  0  0  0
  2  3  1  0  0  0  0
  3  4  1  0  0  0  0
  4  5  1  0  0  0  0
  5  6  1  0  0  0  0
  6  7  1  0  0  0  0
  7  1  1  0  0  0  0
  1  8  1  0  0  0  0
  1  9  1  0  0  0  0
  2 10  1  0  0  0  0
  4 11  1  0  0  0  0
 10 11  1  0  0  0  0
 11 12  2  0  0  0  0
 10 13  1  0  0  0  0
 13 14  1  0  0  0  0
  3 14  1  0  0  0  0
  3 15  1  1  0  0  0
  4 16  1  1  0  0  0
  2 17  1  1  0  0  0
 10 18  1  6  0  0  0
M  END
>  <cdx:fragmentId>
5

$$$$
