40142.cdx
  Mrv1902 05222410262D          

 32 35  0  0  0  0            999 V2000
    3.7272   -8.5113    0.0000 C   0  0  0  0  0  0  0  0  0  0  0  0
    4.4449   -8.9182    0.0000 C   0  0  0  0  0  0  0  0  0  0  0  0
    5.1561   -8.5002    0.0000 C   0  0  0  0  0  0  0  0  0  0  0  0
    5.1497   -7.6752    0.0000 C   0  0  0  0  0  0  0  0  0  0  0  0
    4.4320   -7.2683    0.0000 C   0  0  0  0  0  0  0  0  0  0  0  0
    3.7208   -7.6863    0.0000 C   0  0  0  0  0  0  0  0  0  0  0  0
    5.8738   -8.9071    0.0000 C   0  0  0  0  0  0  0  0  0  0  0  0
    6.5850   -8.4890    0.0000 C   0  0  0  0  0  0  0  0  0  0  0  0
    6.5786   -7.6640    0.0000 C   0  0  0  0  0  0  0  0  0  0  0  0
    5.8609   -7.2571    0.0000 O   0  0  0  0  0  0  0  0  0  0  0  0
    4.4513   -9.7432    0.0000 O   0  0  0  0  0  0  0  0  0  0  0  0
    5.8802   -9.7320    0.0000 O   0  0  0  0  0  0  0  0  0  0  0  0
    7.2898   -7.2460    0.0000 C   0  0  0  0  0  0  0  0  0  0  0  0
    7.2833   -6.4210    0.0000 C   0  0  0  0  0  0  0  0  0  0  0  0
    8.0075   -7.6529    0.0000 C   0  0  0  0  0  0  0  0  0  0  0  0
    8.7187   -7.2348    0.0000 C   0  0  0  0  0  0  0  0  0  0  0  0
    8.7122   -6.4098    0.0000 C   0  0  0  0  0  0  0  0  0  0  0  0
    7.9946   -6.0029    0.0000 C   0  0  0  0  0  0  0  0  0  0  0  0
    8.7316   -8.8848    0.0000 O   0  0  0  0  0  0  0  0  0  0  0  0
    9.4428   -8.4667    0.0000 C   0  0  1  0  0  0  0  0  0  0  0  0
    9.4364   -7.6417    0.0000 O   0  0  0  0  0  0  0  0  0  0  0  0
    8.7380   -9.7097    0.0000 C   0  0  1  0  0  0  0  0  0  0  0  0
    9.4557  -10.1166    0.0000 C   0  0  2  0  0  0  0  0  0  0  0  0
   10.1669   -9.6986    0.0000 C   0  0  1  0  0  0  0  0  0  0  0  0
   10.1605   -8.8736    0.0000 C   0  0  1  0  0  0  0  0  0  0  0  0
    8.0268  -10.1278    0.0000 C   0  0  0  0  0  0  0  0  0  0  0  0
    8.0332  -10.9528    0.0000 O   0  0  0  0  0  0  0  0  0  0  0  0
    9.4621  -10.9416    0.0000 O   0  0  0  0  0  0  0  0  0  0  0  0
    3.0031   -7.2794    0.0000 O   0  0  0  0  0  0  0  0  0  0  0  0
    9.4235   -5.9918    0.0000 O   0  0  0  0  0  0  0  0  0  0  0  0
   10.8846  -10.1055    0.0000 O   0  0  0  0  0  0  0  0  0  0  0  0
   10.8717   -8.4555    0.0000 O   0  0  0  0  0  0  0  0  0  0  0  0
  1  2  1  0  0  0  0
  2  3  2  0  0  0  0
  3  4  1  0  0  0  0
  4  5  2  0  0  0  0
  5  6  1  0  0  0  0
  6  1  2  0  0  0  0
  3  7  1  0  0  0  0
  7  8  1  0  0  0  0
  8  9  2  0  0  0  0
  9 10  1  0  0  0  0
 10  4  1  0  0  0  0
  2 11  1  0  0  0  0
 12  7  2  0  0  0  0
  9 13  1  0  0  0  0
 13 14  1  0  0  0  0
 13 15  2  0  0  0  0
 15 16  1  0  0  0  0
 16 17  2  0  0  0  0
 17 18  1  0  0  0  0
 18 14  2  0  0  0  0
 19 20  1  0  0  0  0
 20 21  1  1  0  0  0
 21 16  1  0  0  0  0
 19 22  1  0  0  0  0
 22 23  1  0  0  0  0
 23 24  1  0  0  0  0
 24 25  1  0  0  0  0
 25 20  1  0  0  0  0
 22 26  1  1  0  0  0
 26 27  1  0  0  0  0
 23 28  1  6  0  0  0
  6 29  1  0  0  0  0
 17 30  1  0  0  0  0
 24 31  1  1  0  0  0
 25 32  1  6  0  0  0
M  END
>  <cdx:fragmentId>
5

$$$$
