40151.cdx
  Mrv1902 05222410272D          

 31 34  0  0  0  0            999 V2000
    3.8171   -9.6696    0.0000 C   0  0  1  0  0  0  0  0  0  0  0  0
    3.8057  -10.4946    0.0000 C   0  0  1  0  0  0  0  0  0  0  0  0
    4.5144  -10.9169    0.0000 C   0  0  2  0  0  0  0  0  0  0  0  0
    5.2345  -10.5143    0.0000 C   0  0  2  0  0  0  0  0  0  0  0  0
   11.0005   -7.3066    0.0000 O   0  0  0  0  0  0  0  0  0  0  0  0
   12.4157   -8.1550    0.0000 O   0  0  0  0  0  0  0  0  0  0  0  0
    8.7829  -11.8084    0.0000 O   0  0  0  0  0  0  0  0  0  0  0  0
    7.3542  -11.7849    0.0000 O   0  0  0  0  0  0  0  0  0  0  0  0
    5.2459   -9.6894    0.0000 C   0  0  1  0  0  0  0  0  0  0  0  0
    4.5372   -9.2671    0.0000 O   0  0  0  0  0  0  0  0  0  0  0  0
   11.6810   -9.3806    0.0000 C   0  0  0  0  0  0  0  0  0  0  0  0
   11.6946   -8.5557    0.0000 C   0  0  0  0  0  0  0  0  0  0  0  0
   10.9869   -8.1315    0.0000 C   0  0  0  0  0  0  0  0  0  0  0  0
   10.2658   -8.5322    0.0000 C   0  0  0  0  0  0  0  0  0  0  0  0
   10.9599   -9.7813    0.0000 C   0  0  0  0  0  0  0  0  0  0  0  0
   10.2523   -9.3571    0.0000 C   0  0  0  0  0  0  0  0  0  0  0  0
    8.7965  -10.9835    0.0000 C   0  0  0  0  0  0  0  0  0  0  0  0
    9.5176  -10.5827    0.0000 C   0  0  0  0  0  0  0  0  0  0  0  0
    9.5311   -9.7579    0.0000 C   0  0  0  0  0  0  0  0  0  0  0  0
    8.8235   -9.3337    0.0000 O   0  0  0  0  0  0  0  0  0  0  0  0
    7.3677  -10.9600    0.0000 C   0  0  0  0  0  0  0  0  0  0  0  0
    8.0889  -10.5593    0.0000 C   0  0  0  0  0  0  0  0  0  0  0  0
    8.1024   -9.7344    0.0000 C   0  0  0  0  0  0  0  0  0  0  0  0
    7.3948   -9.3102    0.0000 C   0  0  0  0  0  0  0  0  0  0  0  0
    6.6601  -10.5359    0.0000 C   0  0  0  0  0  0  0  0  0  0  0  0
    6.6736   -9.7110    0.0000 C   0  0  0  0  0  0  0  0  0  0  0  0
    5.9660   -9.2868    0.0000 O   0  0  0  0  0  0  0  0  0  0  0  0
    3.1084   -9.2473    0.0000 C   0  0  0  0  0  0  0  0  0  0  0  0
    3.0856  -10.8971    0.0000 O   0  0  0  0  0  0  0  0  0  0  0  0
    4.5030  -11.7418    0.0000 O   0  0  0  0  0  0  0  0  0  0  0  0
    5.9432  -10.9367    0.0000 O   0  0  0  0  0  0  0  0  0  0  0  0
 13  5  1  0  0  0  0
 12  6  1  0  0  0  0
 17  7  2  0  0  0  0
 21  8  1  0  0  0  0
  1  2  1  0  0  0  0
  2  3  1  0  0  0  0
 11 15  2  0  0  0  0
 12 11  1  0  0  0  0
 13 12  2  0  0  0  0
 14 13  1  0  0  0  0
 16 14  2  0  0  0  0
 16 15  1  0  0  0  0
 19 16  1  0  0  0  0
 17 22  1  0  0  0  0
 18 17  1  0  0  0  0
 19 18  2  0  0  0  0
 20 19  1  0  0  0  0
 23 20  1  0  0  0  0
 21 25  1  0  0  0  0
 22 21  2  0  0  0  0
 23 22  1  0  0  0  0
 24 23  2  0  0  0  0
 26 24  1  0  0  0  0
 26 25  2  0  0  0  0
 27 26  1  0  0  0  0
  3  4  1  0  0  0  0
  4  9  1  0  0  0  0
  9 10  1  0  0  0  0
 10  1  1  0  0  0  0
  9 27  1  1  0  0  0
  1 28  1  6  0  0  0
  2 29  1  1  0  0  0
  3 30  1  6  0  0  0
  4 31  1  6  0  0  0
M  END
>  <cdx:fragmentId>
5

$$$$
