40156.cdx
  Mrv1902 05222410262D          

 20 22  0  0  0  0            999 V2000
    3.7518   -7.8776    0.0000 C   0  0  0  0  0  0  0  0  0  0  0  0
    3.7518   -8.7026    0.0000 C   0  0  0  0  0  0  0  0  0  0  0  0
    4.4663   -9.1151    0.0000 C   0  0  0  0  0  0  0  0  0  0  0  0
    5.1807   -8.7026    0.0000 C   0  0  0  0  0  0  0  0  0  0  0  0
    5.1807   -7.8776    0.0000 C   0  0  0  0  0  0  0  0  0  0  0  0
    4.4663   -7.4651    0.0000 C   0  0  0  0  0  0  0  0  0  0  0  0
    5.8952   -9.1151    0.0000 O   0  3  0  0  0  0  0  0  0  0  0  0
    6.6097   -8.7026    0.0000 C   0  0  0  0  0  0  0  0  0  0  0  0
    6.6097   -7.8776    0.0000 C   0  0  0  0  0  0  0  0  0  0  0  0
    5.8952   -7.4651    0.0000 C   0  0  0  0  0  0  0  0  0  0  0  0
    7.3242   -9.1151    0.0000 C   0  0  0  0  0  0  0  0  0  0  0  0
    8.0386   -8.7026    0.0000 C   0  0  0  0  0  0  0  0  0  0  0  0
    7.3242   -9.9401    0.0000 C   0  0  0  0  0  0  0  0  0  0  0  0
    8.0386  -10.3526    0.0000 C   0  0  0  0  0  0  0  0  0  0  0  0
    8.7531   -9.9401    0.0000 C   0  0  0  0  0  0  0  0  0  0  0  0
    8.7531   -9.1151    0.0000 C   0  0  0  0  0  0  0  0  0  0  0  0
    4.4663   -6.6401    0.0000 O   0  0  0  0  0  0  0  0  0  0  0  0
    3.0373   -9.1151    0.0000 O   0  0  0  0  0  0  0  0  0  0  0  0
    8.0386  -11.1776    0.0000 O   0  0  0  0  0  0  0  0  0  0  0  0
    9.4676  -10.3526    0.0000 O   0  0  0  0  0  0  0  0  0  0  0  0
  1  2  2  0  0  0  0
  2  3  1  0  0  0  0
  3  4  2  0  0  0  0
  4  5  1  0  0  0  0
  5  6  2  0  0  0  0
  6  1  1  0  0  0  0
  4  7  1  0  0  0  0
  7  8  2  0  0  0  0
  8  9  1  0  0  0  0
  9 10  2  0  0  0  0
 10  5  1  0  0  0  0
  8 11  1  0  0  0  0
 11 12  1  0  0  0  0
 11 13  2  0  0  0  0
 13 14  1  0  0  0  0
 14 15  2  0  0  0  0
 15 16  1  0  0  0  0
 16 12  2  0  0  0  0
  6 17  1  0  0  0  0
  2 18  1  0  0  0  0
 14 19  1  0  0  0  0
 15 20  1  0  0  0  0
M  CHG  1   7   1
M  END
>  <cdx:fragmentId>
5

$$$$
