40153.cdx
  Mrv1902 05222410282D          

 43 47  0  0  0  0            999 V2000
    6.0035   -6.5603    0.0000 O   0  0  0  0  0  0  0  0  0  0  0  0
    6.7180   -6.9728    0.0000 C   0  0  1  0  0  0  0  0  0  0  0  0
    7.4325   -6.5603    0.0000 O   0  0  0  0  0  0  0  0  0  0  0  0
    5.2891   -6.9728    0.0000 C   0  0  1  0  0  0  0  0  0  0  0  0
    5.2891   -7.7978    0.0000 C   0  0  2  0  0  0  0  0  0  0  0  0
    6.0035   -8.2103    0.0000 C   0  0  1  0  0  0  0  0  0  0  0  0
    6.7180   -7.7978    0.0000 C   0  0  1  0  0  0  0  0  0  0  0  0
    4.5746   -6.5603    0.0000 C   0  0  0  0  0  0  0  0  0  0  0  0
    8.8614   -9.0353    0.0000 O   0  0  0  0  0  0  0  0  0  0  0  0
   10.2904   -9.0353    0.0000 O   0  0  0  0  0  0  0  0  0  0  0  0
   12.4338   -4.4978    0.0000 O   0  0  0  0  0  0  0  0  0  0  0  0
   13.8627   -5.3228    0.0000 O   0  0  0  0  0  0  0  0  0  0  0  0
    3.1457   -5.7353    0.0000 O   0  0  0  0  0  0  0  0  0  0  0  0
    3.1457   -6.5603    0.0000 C   0  0  1  0  0  0  0  0  0  0  0  0
    3.8601   -6.9728    0.0000 O   0  0  0  0  0  0  0  0  0  0  0  0
    2.4312   -5.3228    0.0000 C   0  0  1  0  0  0  0  0  0  0  0  0
    1.7167   -5.7353    0.0000 C   0  0  2  0  0  0  0  0  0  0  0  0
    1.7167   -6.5603    0.0000 C   0  0  1  0  0  0  0  0  0  0  0  0
    2.4312   -6.9728    0.0000 C   0  0  1  0  0  0  0  0  0  0  0  0
    2.4312   -4.4978    0.0000 C   0  0  0  0  0  0  0  0  0  0  0  0
    1.7167   -4.0853    0.0000 O   0  0  0  0  0  0  0  0  0  0  0  0
    6.0035   -9.0353    0.0000 O   0  0  0  0  0  0  0  0  0  0  0  0
    1.0022   -6.9728    0.0000 O   0  0  0  0  0  0  0  0  0  0  0  0
    1.0022   -5.3228    0.0000 O   0  0  0  0  0  0  0  0  0  0  0  0
    2.4312   -7.7978    0.0000 O   0  0  0  0  0  0  0  0  0  0  0  0
    4.5746   -8.2103    0.0000 O   0  0  0  0  0  0  0  0  0  0  0  0
    7.4325   -8.2103    0.0000 O   0  0  0  0  0  0  0  0  0  0  0  0
    8.8614   -6.5603    0.0000 C   0  0  0  0  0  0  0  0  0  0  0  0
    8.1470   -6.9728    0.0000 C   0  0  0  0  0  0  0  0  0  0  0  0
    8.1470   -7.7978    0.0000 C   0  0  0  0  0  0  0  0  0  0  0  0
    8.8614   -8.2103    0.0000 C   0  0  0  0  0  0  0  0  0  0  0  0
   10.2904   -6.5603    0.0000 O   0  0  0  0  0  0  0  0  0  0  0  0
    9.5759   -6.9728    0.0000 C   0  0  0  0  0  0  0  0  0  0  0  0
    9.5759   -7.7978    0.0000 C   0  0  0  0  0  0  0  0  0  0  0  0
   10.2904   -8.2103    0.0000 C   0  0  0  0  0  0  0  0  0  0  0  0
   11.0048   -6.9728    0.0000 C   0  0  0  0  0  0  0  0  0  0  0  0
   11.0048   -7.7978    0.0000 C   0  0  0  0  0  0  0  0  0  0  0  0
   13.1483   -5.7353    0.0000 C   0  0  0  0  0  0  0  0  0  0  0  0
   12.4338   -5.3228    0.0000 C   0  0  0  0  0  0  0  0  0  0  0  0
   11.7193   -5.7353    0.0000 C   0  0  0  0  0  0  0  0  0  0  0  0
   11.7193   -6.5603    0.0000 C   0  0  0  0  0  0  0  0  0  0  0  0
   12.4338   -6.9728    0.0000 C   0  0  0  0  0  0  0  0  0  0  0  0
   13.1483   -6.5603    0.0000 C   0  0  0  0  0  0  0  0  0  0  0  0
  1  2  1  0  0  0  0
  2  3  1  1  0  0  0
  1  4  1  0  0  0  0
  4  5  1  0  0  0  0
  5  6  1  0  0  0  0
  6  7  1  0  0  0  0
  7  2  1  0  0  0  0
  4  8  1  1  0  0  0
 31  9  1  0  0  0  0
 35 10  2  0  0  0  0
 39 11  1  0  0  0  0
 38 12  1  0  0  0  0
 13 14  1  0  0  0  0
 14 15  1  1  0  0  0
 15  8  1  0  0  0  0
 13 16  1  0  0  0  0
 16 17  1  0  0  0  0
 17 18  1  0  0  0  0
 18 19  1  0  0  0  0
 19 14  1  0  0  0  0
 16 20  1  1  0  0  0
 20 21  1  0  0  0  0
  6 22  1  1  0  0  0
 18 23  1  1  0  0  0
 17 24  1  6  0  0  0
  3 29  1  0  0  0  0
 19 25  1  6  0  0  0
  5 26  1  6  0  0  0
  7 27  1  6  0  0  0
 28 33  2  0  0  0  0
 29 28  1  0  0  0  0
 30 29  2  0  0  0  0
 31 30  1  0  0  0  0
 34 31  2  0  0  0  0
 32 36  1  0  0  0  0
 33 32  1  0  0  0  0
 34 33  1  0  0  0  0
 35 34  1  0  0  0  0
 37 35  1  0  0  0  0
 36 41  1  0  0  0  0
 37 36  2  0  0  0  0
 38 43  1  0  0  0  0
 39 38  2  0  0  0  0
 40 39  1  0  0  0  0
 41 40  2  0  0  0  0
 42 41  1  0  0  0  0
 43 42  2  0  0  0  0
M  END
>  <cdx:fragmentId>
5

$$$$
