40159.cdx
  Mrv1902 05222410192D          

 20 23  0  0  0  0            999 V2000
    3.8618   -7.1489    0.0000 C   0  0  0  0  0  0  0  0  0  0  0  0
    3.8618   -7.9739    0.0000 C   0  0  0  0  0  0  0  0  0  0  0  0
    4.5763   -8.3864    0.0000 C   0  0  0  0  0  0  0  0  0  0  0  0
    5.2907   -7.9739    0.0000 C   0  0  0  0  0  0  0  0  0  0  0  0
    5.2907   -7.1489    0.0000 C   0  0  0  0  0  0  0  0  0  0  0  0
    4.5763   -6.7364    0.0000 N   0  0  0  0  0  0  0  0  0  0  0  0
    6.0052   -8.3864    0.0000 C   0  0  2  0  0  0  0  0  0  0  0  0
    6.7197   -7.9739    0.0000 C   0  0  1  0  0  0  0  0  0  0  0  0
    6.7197   -7.1489    0.0000 C   0  0  1  0  0  0  0  0  0  0  0  0
    6.0052   -6.7364    0.0000 C   0  0  0  0  0  0  0  0  0  0  0  0
    6.0052   -9.2114    0.0000 N   0  0  0  0  0  0  0  0  0  0  0  0
    6.7197   -9.6239    0.0000 C   0  0  0  0  0  0  0  0  0  0  0  0
    7.4342   -9.2114    0.0000 C   0  0  0  0  0  0  0  0  0  0  0  0
    7.4342   -8.3864    0.0000 C   0  0  0  0  0  0  0  0  0  0  0  0
    5.7852   -8.0569    0.0000 C   0  0  0  0  0  0  0  0  0  0  0  0
    5.7440   -7.4519    0.0000 C   0  0  1  0  0  0  0  0  0  0  0  0
    6.2659   -7.1357    0.0000 C   0  0  0  0  0  0  0  0  0  0  0  0
    7.4342   -7.5614    0.0000 H   0  0  0  0  0  0  0  0  0  0  0  0
    5.5304   -6.6550    0.0000 C   0  0  0  0  0  0  0  0  0  0  0  0
    6.9332   -6.3520    0.0000 H   0  0  0  0  0  0  0  0  0  0  0  0
  1  2  1  0  0  0  0
  2  3  2  0  0  0  0
  3  4  1  0  0  0  0
  4  5  2  0  0  0  0
  5  6  1  0  0  0  0
  6  1  2  0  0  0  0
  4  7  1  0  0  0  0
  7  8  1  0  0  0  0
  8  9  1  0  0  0  0
  9 10  1  0  0  0  0
 10  5  1  0  0  0  0
  7 11  1  6  0  0  0
 11 12  1  0  0  0  0
 12 13  1  0  0  0  0
 13 14  1  0  0  0  0
 14  8  1  0  0  0  0
  7 15  1  0  0  0  0
 15 16  1  0  0  0  0
 16 17  1  0  0  0  0
 17  9  1  0  0  0  0
  8 18  1  6  0  0  0
 16 19  1  6  0  0  0
  9 20  1  6  0  0  0
M  END
>  <cdx:fragmentId>
5

$$$$
