40162.cdx
  Mrv1902 05222410182D          

 21 24  0  0  0  0            999 V2000
    4.4943  -10.4901    0.0000 C   0  0  0  0  0  0  0  0  0  0  0  0
    4.4943  -11.3151    0.0000 C   0  0  0  0  0  0  0  0  0  0  0  0
    5.2088  -11.7276    0.0000 C   0  0  0  0  0  0  0  0  0  0  0  0
    5.9232  -11.3151    0.0000 N   0  0  0  0  0  0  0  0  0  0  0  0
    5.9232  -10.4901    0.0000 C   0  0  2  0  0  0  0  0  0  0  0  0
    5.2088  -10.0776    0.0000 C   0  0  1  0  0  0  0  0  0  0  0  0
    6.6377  -11.7276    0.0000 C   0  0  0  0  0  0  0  0  0  0  0  0
    7.3522  -11.3151    0.0000 C   0  0  0  0  0  0  0  0  0  0  0  0
    7.3522  -10.4901    0.0000 C   0  0  0  0  0  0  0  0  0  0  0  0
    6.6377  -10.0776    0.0000 C   0  0  0  0  0  0  0  0  0  0  0  0
    6.6377   -9.2526    0.0000 C   0  0  2  0  0  0  0  0  0  0  0  0
    5.9232   -8.8401    0.0000 C   0  0  1  0  0  0  0  0  0  0  0  0
    5.2088   -9.2526    0.0000 C   0  0  0  0  0  0  0  0  0  0  0  0
    4.4943   -8.8401    0.0000 O   0  0  0  0  0  0  0  0  0  0  0  0
    5.6345  -10.1332    0.0000 C   0  0  0  0  0  0  0  0  0  0  0  0
    5.5795   -9.5694    0.0000 C   0  0  1  0  0  0  0  0  0  0  0  0
    6.0666   -9.2178    0.0000 C   0  0  0  0  0  0  0  0  0  0  0  0
    4.4943   -9.6651    0.0000 H   0  0  0  0  0  0  0  0  0  0  0  0
    5.9232   -8.0151    0.0000 O   0  0  0  0  0  0  0  0  0  0  0  0
    5.3660   -8.7725    0.0000 C   0  0  0  0  0  0  0  0  0  0  0  0
    7.3522   -8.8401    0.0000 H   0  0  0  0  0  0  0  0  0  0  0  0
  1  2  1  0  0  0  0
  2  3  1  0  0  0  0
  3  4  1  0  0  0  0
  5  4  1  6  0  0  0
  5  6  1  0  0  0  0
  6  1  1  0  0  0  0
  4  7  1  0  0  0  0
  7  8  1  0  0  0  0
  8  9  1  0  0  0  0
  9 10  2  0  0  0  0
 10  5  1  0  0  0  0
 10 11  1  0  0  0  0
 11 12  1  0  0  0  0
 12 13  1  0  0  0  0
 13  6  1  0  0  0  0
 13 14  2  0  0  0  0
  5 15  1  0  0  0  0
 15 16  1  0  0  0  0
 16 17  1  0  0  0  0
 17 11  1  0  0  0  0
  6 18  1  1  0  0  0
 12 19  1  1  0  0  0
 16 20  1  6  0  0  0
 11 21  1  6  0  0  0
M  END
>  <cdx:fragmentId>
5

$$$$
