40160.cdx
  Mrv1902 05222410192D          

 52 56  0  0  0  0            999 V2000
    4.3668  -10.8361    0.0000 O   0  0  0  0  0  0  0  0  0  0  0  0
    5.0835  -10.4282    0.0000 C   0  0  0  0  0  0  0  0  0  0  0  0
    5.0887   -9.6035    0.0000 C   0  0  0  0  0  0  0  0  0  0  0  0
    4.3770   -9.1867    0.0000 O   0  0  0  0  0  0  0  0  0  0  0  0
    5.7952  -10.8450    0.0000 C   0  0  0  0  0  0  0  0  0  0  0  0
    6.5120  -10.4370    0.0000 C   0  0  0  0  0  0  0  0  0  0  0  0
    6.5171   -9.6123    0.0000 C   0  0  0  0  0  0  0  0  0  0  0  0
    5.8054   -9.1955    0.0000 C   0  0  0  0  0  0  0  0  0  0  0  0
    7.2237  -10.8538    0.0000 O   0  0  0  0  0  0  0  0  0  0  0  0
    7.9405  -10.4459    0.0000 C   0  0  0  0  0  0  0  0  0  0  0  0
    7.9456   -9.6212    0.0000 C   0  0  1  0  0  0  0  0  0  0  0  0
    7.2339   -9.2044    0.0000 C   0  0  0  0  0  0  0  0  0  0  0  0
    8.6521  -10.8627    0.0000 O   0  0  0  0  0  0  0  0  0  0  0  0
    9.3689  -10.4548    0.0000 O   0  0  0  0  0  0  0  0  0  0  0  0
    9.3740   -9.6300    0.0000 C   0  0  0  0  0  0  0  0  0  0  0  0
    8.6624   -9.2132    0.0000 O   0  0  0  0  0  0  0  0  0  0  0  0
   10.8025   -9.6389    0.0000 C   0  0  0  0  0  0  0  0  0  0  0  0
   10.0908   -9.2221    0.0000 C   0  0  0  0  0  0  0  0  0  0  0  0
   11.5193   -9.2310    0.0000 C   0  0  0  0  0  0  0  0  0  0  0  0
   11.5244   -8.4062    0.0000 C   0  0  0  0  0  0  0  0  0  0  0  0
   12.2310   -9.6477    0.0000 C   0  0  0  0  0  0  0  0  0  0  0  0
   12.9478   -9.2398    0.0000 C   0  0  0  0  0  0  0  0  0  0  0  0
   12.9529   -8.4151    0.0000 C   0  0  0  0  0  0  0  0  0  0  0  0
   12.2412   -7.9983    0.0000 C   0  0  0  0  0  0  0  0  0  0  0  0
   13.6594   -9.6566    0.0000 O   0  0  0  0  0  0  0  0  0  0  0  0
   14.3762   -9.2487    0.0000 C   0  0  1  0  0  0  0  0  0  0  0  0
   14.3813   -8.4239    0.0000 C   0  0  1  0  0  0  0  0  0  0  0  0
   13.6697   -8.0072    0.0000 O   0  0  0  0  0  0  0  0  0  0  0  0
   15.0879   -9.6655    0.0000 C   0  0  0  0  0  0  0  0  0  0  0  0
   15.8047   -9.2575    0.0000 O   0  0  0  0  0  0  0  0  0  0  0  0
   15.8098   -8.4328    0.0000 C   0  0  0  0  0  0  0  0  0  0  0  0
   15.0981   -8.0160    0.0000 C   0  0  0  0  0  0  0  0  0  0  0  0
   16.5266   -8.0249    0.0000 C   0  0  0  0  0  0  0  0  0  0  0  0
   16.5317   -7.2001    0.0000 C   0  0  0  0  0  0  0  0  0  0  0  0
   15.8200   -6.7834    0.0000 C   0  0  0  0  0  0  0  0  0  0  0  0
   15.1032   -7.1913    0.0000 C   0  0  0  0  0  0  0  0  0  0  0  0
   15.0828  -10.4902    0.0000 O   0  0  0  0  0  0  0  0  0  0  0  0
   15.7945  -10.9070    0.0000 C   0  0  1  0  0  0  0  0  0  0  0  0
   16.5113  -10.4990    0.0000 C   0  0  0  0  0  0  0  0  0  0  0  0
   16.5164   -9.6743    0.0000 O   0  0  0  0  0  0  0  0  0  0  0  0
   15.7894  -11.7317    0.0000 C   0  0  0  0  0  0  0  0  0  0  0  0
   16.5010  -12.1485    0.0000 C   0  0  0  0  0  0  0  0  0  0  0  0
   17.2178  -11.7406    0.0000 C   0  0  0  0  0  0  0  0  0  0  0  0
   17.2229  -10.9158    0.0000 O   0  0  0  0  0  0  0  0  0  0  0  0
   16.4959  -12.9732    0.0000 C   0  0  0  0  0  0  0  0  0  0  0  0
   17.2076  -13.3900    0.0000 C   0  0  0  0  0  0  0  0  0  0  0  0
   17.9244  -12.9821    0.0000 C   0  0  0  0  0  0  0  0  0  0  0  0
   17.9295  -12.1573    0.0000 C   0  0  0  0  0  0  0  0  0  0  0  0
   17.2025  -14.2147    0.0000 O   0  0  0  0  0  0  0  0  0  0  0  0
   18.6361  -13.3989    0.0000 O   0  0  0  0  0  0  0  0  0  0  0  0
   17.2485   -6.7922    0.0000 O   0  0  0  0  0  0  0  0  0  0  0  0
   17.2383   -8.4417    0.0000 O   0  0  0  0  0  0  0  0  0  0  0  0
  1  2  1  0  0  0  0
  2  3  2  0  0  0  0
  3  4  1  0  0  0  0
  2  5  1  0  0  0  0
  5  6  2  0  0  0  0
  6  7  1  0  0  0  0
  7  8  2  0  0  0  0
  8  3  1  0  0  0  0
  9 10  1  0  0  0  0
 10 11  1  0  0  0  0
 11 12  1  0  0  0  0
 12  7  1  0  0  0  0
 10 13  2  0  0  0  0
 14 15  2  0  0  0  0
 15 16  1  0  0  0  0
 11 16  1  1  0  0  0
 17 18  2  0  0  0  0
 18 15  1  0  0  0  0
 17 19  1  0  0  0  0
 19 20  1  0  0  0  0
 19 21  2  0  0  0  0
 21 22  1  0  0  0  0
 22 23  2  0  0  0  0
 23 24  1  0  0  0  0
 24 20  2  0  0  0  0
 22 25  1  0  0  0  0
 25 26  1  0  0  0  0
 26 27  1  0  0  0  0
 27 28  1  0  0  0  0
 28 23  1  0  0  0  0
 26 29  1  1  0  0  0
 29 30  2  0  0  0  0
 31 32  2  0  0  0  0
 27 32  1  1  0  0  0
 31 33  1  0  0  0  0
 33 34  2  0  0  0  0
 34 35  1  0  0  0  0
 35 36  2  0  0  0  0
 36 32  1  0  0  0  0
 29 37  1  0  0  0  0
 38 37  1  1  0  0  0
 38 39  1  0  0  0  0
 39 40  2  0  0  0  0
 38 41  1  0  0  0  0
 41 42  1  0  0  0  0
 42 43  1  0  0  0  0
 44 39  1  0  0  0  0
 42 45  2  0  0  0  0
 45 46  1  0  0  0  0
 46 47  2  0  0  0  0
 47 48  1  0  0  0  0
 48 43  2  0  0  0  0
 46 49  1  0  0  0  0
 47 50  1  0  0  0  0
 34 51  1  0  0  0  0
 33 52  1  0  0  0  0
M  END
>  <cdx:fragmentId>
5

$$$$
