40168.cdx
  Mrv1902 05222410272D          

 24 26  0  0  0  0            999 V2000
    4.3156  -10.4351    0.0000 C   0  0  0  0  0  0  0  0  0  0  0  0
    4.3156  -11.2601    0.0000 C   0  0  0  0  0  0  0  0  0  0  0  0
    5.0300  -11.6726    0.0000 C   0  0  0  0  0  0  0  0  0  0  0  0
    5.7445  -11.2601    0.0000 C   0  0  0  0  0  0  0  0  0  0  0  0
    5.7445  -10.4351    0.0000 C   0  0  2  0  0  0  0  0  0  0  0  0
    5.0300  -10.0226    0.0000 C   0  0  0  0  0  0  0  0  0  0  0  0
    6.4590  -11.6726    0.0000 C   0  0  0  0  0  0  0  0  0  0  0  0
    7.1734  -11.2601    0.0000 C   0  0  0  0  0  0  0  0  0  0  0  0
    7.1734  -10.4351    0.0000 C   0  0  0  0  0  0  0  0  0  0  0  0
    6.4590  -10.0226    0.0000 C   0  0  0  0  0  0  0  0  0  0  0  0
    7.8879  -10.0226    0.0000 C   0  0  0  0  0  0  0  0  0  0  0  0
    7.8879   -9.1976    0.0000 C   0  0  2  0  0  0  0  0  0  0  0  0
    7.1734   -8.7851    0.0000 C   0  0  0  0  0  0  0  0  0  0  0  0
    6.4590   -9.1976    0.0000 C   0  0  0  0  0  0  0  0  0  0  0  0
    4.6175  -12.3871    0.0000 C   0  0  0  0  0  0  0  0  0  0  0  0
    5.4425  -12.3871    0.0000 C   0  0  0  0  0  0  0  0  0  0  0  0
    5.7445  -12.0851    0.0000 H   0  0  0  0  0  0  0  0  0  0  0  0
    6.4590  -12.4976    0.0000 O   0  0  0  0  0  0  0  0  0  0  0  0
    7.1734  -12.0851    0.0000 H   0  0  0  0  0  0  0  0  0  0  0  0
    7.1734   -9.6101    0.0000 H   0  0  0  0  0  0  0  0  0  0  0  0
    8.3004   -8.4832    0.0000 C   0  0  0  0  0  0  0  0  0  0  0  0
    7.8879   -7.7687    0.0000 C   0  0  0  0  0  0  0  0  0  0  0  0
    5.7445   -9.6101    0.0000 C   0  0  0  0  0  0  0  0  0  0  0  0
    8.7129   -9.1976    0.0000 C   0  0  0  0  0  0  0  0  0  0  0  0
  1  2  1  0  0  0  0
  2  3  1  0  0  0  0
  3  4  1  0  0  0  0
  4  5  1  0  0  0  0
  5  6  1  0  0  0  0
  6  1  1  0  0  0  0
  4  7  1  0  0  0  0
  7  8  1  0  0  0  0
  8  9  1  0  0  0  0
  9 10  1  0  0  0  0
 10  5  1  0  0  0  0
  9 11  2  0  0  0  0
 11 12  1  0  0  0  0
 12 13  1  0  0  0  0
 13 14  1  0  0  0  0
 14 10  1  0  0  0  0
  3 15  1  0  0  0  0
  3 16  1  0  0  0  0
  4 17  1  0  0  0  0
  7 18  1  0  0  0  0
  7 19  1  0  0  0  0
 10 20  1  0  0  0  0
 12 21  1  0  0  0  0
 21 22  2  0  0  0  0
  5 23  1  1  0  0  0
 12 24  1  1  0  0  0
M  END
>  <cdx:fragmentId>
5

$$$$
