40163.cdx
  Mrv1902 05222410182D          

 20 23  0  0  0  0            999 V2000
    5.6170   -7.5385    0.0000 C   0  0  0  0  0  0  0  0  0  0  0  0
    5.8000   -8.3430    0.0000 C   0  0  1  0  0  0  0  0  0  0  0  0
    6.5430   -8.7015    0.0000 C   0  0  1  0  0  0  0  0  0  0  0  0
    7.2866   -8.3441    0.0000 C   0  0  0  0  0  0  0  0  0  0  0  0
    7.4707   -7.5399    0.0000 N   0  0  0  0  0  0  0  0  0  0  0  0
    6.9568   -6.8945    0.0000 C   0  0  0  0  0  0  0  0  0  0  0  0
    6.1318   -6.8939    0.0000 C   0  0  0  0  0  0  0  0  0  0  0  0
    6.4808   -9.5241    0.0000 C   0  0  1  0  0  0  0  0  0  0  0  0
    7.1621   -9.9894    0.0000 C   0  0  0  0  0  0  0  0  0  0  0  0
    7.9056   -9.6319    0.0000 C   0  0  2  0  0  0  0  0  0  0  0  0
    7.9679   -8.8093    0.0000 C   0  0  0  0  0  0  0  0  0  0  0  0
    5.2294   -8.9389    0.0000 C   0  0  2  0  0  0  0  0  0  0  0  0
    5.6198   -9.6656    0.0000 C   0  0  0  0  0  0  0  0  0  0  0  0
    7.1964   -7.4639    0.0000 C   0  0  0  0  0  0  0  0  0  0  0  0
    6.5231   -7.7389    0.0000 C   0  0  0  0  0  0  0  0  0  0  0  0
    6.4328   -8.3772    0.0000 C   0  0  0  0  0  0  0  0  0  0  0  0
    5.0855   -7.9305    0.0000 H   0  0  0  0  0  0  0  0  0  0  0  0
    4.4120   -8.8275    0.0000 O   0  0  0  0  0  0  0  0  0  0  0  0
    6.3023  -10.3296    0.0000 H   0  0  0  0  0  0  0  0  0  0  0  0
    8.5870  -10.0972    0.0000 C   0  0  0  0  0  0  0  0  0  0  0  0
  1  2  1  0  0  0  0
  2  3  1  0  0  0  0
  3  4  1  0  0  0  0
  4  5  1  0  0  0  0
  5  6  1  0  0  0  0
  6  7  1  0  0  0  0
  7  1  1  0  0  0  0
  3  8  1  0  0  0  0
  8  9  1  0  0  0  0
  9 10  1  0  0  0  0
 10 11  1  0  0  0  0
 11  4  2  0  0  0  0
  2 12  1  0  0  0  0
 12 13  1  0  0  0  0
 13  8  1  0  0  0  0
  5 14  1  0  0  0  0
 14 15  1  0  0  0  0
 15 16  1  0  0  0  0
  3 16  1  6  0  0  0
  2 17  1  6  0  0  0
 12 18  1  6  0  0  0
  8 19  1  6  0  0  0
 10 20  1  6  0  0  0
M  END
>  <cdx:fragmentId>
5

$$$$
