40165.cdx
  Mrv1902 05222410192D          

 24 27  0  0  0  0            999 V2000
    5.2363   -5.2657    0.0000 C   0  0  0  0  0  0  0  0  0  0  0  0
    4.8238   -5.9801    0.0000 C   0  0  0  0  0  0  0  0  0  0  0  0
    5.2363   -6.6946    0.0000 C   0  0  1  0  0  0  0  0  0  0  0  0
    6.0613   -6.6946    0.0000 C   0  0  1  0  0  0  0  0  0  0  0  0
    6.4738   -5.9801    0.0000 C   0  0  0  0  0  0  0  0  0  0  0  0
    6.0613   -5.2657    0.0000 N   0  0  0  0  0  0  0  0  0  0  0  0
    4.9813   -7.4792    0.0000 C   0  0  2  0  0  0  0  0  0  0  0  0
    5.6488   -7.9642    0.0000 C   0  0  2  0  0  0  0  0  0  0  0  0
    6.3162   -7.4792    0.0000 C   0  0  0  0  0  0  0  0  0  0  0  0
    4.3139   -7.9642    0.0000 C   0  0  2  0  0  0  0  0  0  0  0  0
    4.5688   -8.7488    0.0000 C   0  0  0  0  0  0  0  0  0  0  0  0
    5.3938   -8.7488    0.0000 C   0  0  2  0  0  0  0  0  0  0  0  0
    5.6074   -9.5457    0.0000 C   0  0  0  0  0  0  0  0  0  0  0  0
    6.3493   -9.8207    0.0000 C   0  0  0  0  0  0  0  0  0  0  0  0
    6.8168   -9.1750    0.0000 C   0  0  0  0  0  0  0  0  0  0  0  0
    6.4457   -8.1777    0.0000 C   0  0  0  0  0  0  0  0  0  0  0  0
    7.0283   -7.5936    0.0000 O   0  0  0  0  0  0  0  0  0  0  0  0
    6.5629  -10.4938    0.0000 C   0  0  0  0  0  0  0  0  0  0  0  0
    6.4738   -4.5512    0.0000 C   0  0  0  0  0  0  0  0  0  0  0  0
    6.8863   -6.6946    0.0000 H   0  0  0  0  0  0  0  0  0  0  0  0
    4.4394   -6.4811    0.0000 H   0  0  0  0  0  0  0  0  0  0  0  0
    3.5293   -7.7092    0.0000 O   0  0  0  0  0  0  0  0  0  0  0  0
    4.9813   -9.4633    0.0000 H   0  0  0  0  0  0  0  0  0  0  0  0
    4.2669   -7.0667    0.0000 H   0  0  0  0  0  0  0  0  0  0  0  0
  1  2  1  0  0  0  0
  2  3  1  0  0  0  0
  3  4  1  0  0  0  0
  4  5  1  0  0  0  0
  5  6  1  0  0  0  0
  6  1  1  0  0  0  0
  3  7  1  0  0  0  0
  7  8  1  0  0  0  0
  8  9  1  6  0  0  0
  9  4  1  0  0  0  0
  7 10  1  0  0  0  0
 10 11  1  0  0  0  0
 11 12  1  0  0  0  0
 12  8  1  0  0  0  0
 12 13  1  0  0  0  0
 13 14  1  0  0  0  0
 14 15  2  0  0  0  0
  8 16  1  0  0  0  0
 16 15  1  0  0  0  0
 16 17  2  0  0  0  0
 14 18  1  0  0  0  0
  6 19  1  0  0  0  0
  4 20  1  6  0  0  0
  3 21  1  6  0  0  0
 10 22  1  6  0  0  0
 12 23  1  6  0  0  0
  7 24  1  1  0  0  0
M  END
>  <cdx:fragmentId>
5

$$$$
