40169.cdx
  Mrv1902 05222410272D          

 32 35  0  0  0  0            999 V2000
    2.8718  -11.7826    0.0000 O   0  0  0  0  0  0  0  0  0  0  0  0
    3.5863  -13.0201    0.0000 O   0  0  0  0  0  0  0  0  0  0  0  0
    4.3007  -12.6076    0.0000 C   0  0  2  0  0  0  0  0  0  0  0  0
    4.3007  -11.7826    0.0000 C   0  0  1  0  0  0  0  0  0  0  0  0
    3.5863  -11.3701    0.0000 C   0  0  0  0  0  0  0  0  0  0  0  0
    5.0152  -13.0201    0.0000 C   0  0  1  0  0  0  0  0  0  0  0  0
    5.7297  -12.6076    0.0000 C   0  0  2  0  0  0  0  0  0  0  0  0
    5.7297  -11.7826    0.0000 C   0  0  1  0  0  0  0  0  0  0  0  0
    5.0152  -11.3701    0.0000 O   0  0  0  0  0  0  0  0  0  0  0  0
    6.4442  -11.3701    0.0000 O   0  0  0  0  0  0  0  0  0  0  0  0
    6.4442  -10.5451    0.0000 C   0  0  0  0  0  0  0  0  0  0  0  0
    5.7297  -10.1326    0.0000 C   0  0  0  0  0  0  0  0  0  0  0  0
    7.1586  -10.1326    0.0000 C   0  0  0  0  0  0  0  0  0  0  0  0
    7.1586   -9.3076    0.0000 C   0  0  0  0  0  0  0  0  0  0  0  0
    6.4442   -8.8951    0.0000 C   0  0  0  0  0  0  0  0  0  0  0  0
    5.7297   -9.3076    0.0000 C   0  0  0  0  0  0  0  0  0  0  0  0
    7.7717   -8.7556    0.0000 O   0  0  0  0  0  0  0  0  0  0  0  0
    7.4362   -8.0019    0.0000 C   0  0  0  0  0  0  0  0  0  0  0  0
    6.6157   -8.0882    0.0000 C   0  0  0  0  0  0  0  0  0  0  0  0
    7.8487   -7.2875    0.0000 C   0  0  0  0  0  0  0  0  0  0  0  0
    8.6737   -7.2875    0.0000 C   0  0  0  0  0  0  0  0  0  0  0  0
    9.0862   -8.0019    0.0000 C   0  0  0  0  0  0  0  0  0  0  0  0
    9.9112   -8.0019    0.0000 C   0  0  0  0  0  0  0  0  0  0  0  0
   10.3237   -7.2875    0.0000 C   0  0  0  0  0  0  0  0  0  0  0  0
    9.9112   -6.5730    0.0000 C   0  0  0  0  0  0  0  0  0  0  0  0
    9.0862   -6.5730    0.0000 C   0  0  0  0  0  0  0  0  0  0  0  0
    7.8731  -10.5451    0.0000 O   0  0  0  0  0  0  0  0  0  0  0  0
    6.0637   -7.4751    0.0000 O   0  0  0  0  0  0  0  0  0  0  0  0
   11.1487   -7.2875    0.0000 O   0  0  0  0  0  0  0  0  0  0  0  0
   10.3237   -8.7164    0.0000 O   0  0  0  0  0  0  0  0  0  0  0  0
    5.0152  -13.8451    0.0000 O   0  0  0  0  0  0  0  0  0  0  0  0
    6.4442  -13.0201    0.0000 O   0  0  0  0  0  0  0  0  0  0  0  0
  3  2  1  6  0  0  0
  3  4  1  0  0  0  0
  4  5  1  1  0  0  0
  5  1  1  0  0  0  0
  3  6  1  0  0  0  0
  6  7  1  0  0  0  0
  7  8  1  0  0  0  0
  8  9  1  0  0  0  0
  9  4  1  0  0  0  0
  8 10  1  1  0  0  0
 10 11  1  0  0  0  0
 11 12  1  0  0  0  0
 11 13  2  0  0  0  0
 13 14  1  0  0  0  0
 14 15  2  0  0  0  0
 15 16  1  0  0  0  0
 16 12  2  0  0  0  0
 14 17  1  0  0  0  0
 17 18  1  0  0  0  0
 18 19  1  0  0  0  0
 19 15  1  0  0  0  0
 18 20  2  0  0  0  0
 20 21  1  0  0  0  0
 21 22  2  0  0  0  0
 22 23  1  0  0  0  0
 23 24  2  0  0  0  0
 24 25  1  0  0  0  0
 25 26  2  0  0  0  0
 26 21  1  0  0  0  0
 13 27  1  0  0  0  0
 19 28  2  0  0  0  0
 24 29  1  0  0  0  0
 23 30  1  0  0  0  0
  6 31  1  1  0  0  0
  7 32  1  6  0  0  0
M  END
>  <cdx:fragmentId>
5

$$$$
