40161.cdx
  Mrv1902 05222410192D          

 52 56  0  0  0  0            999 V2000
    4.3830  -11.4948    0.0000 O   0  0  0  0  0  0  0  0  0  0  0  0
    5.0998  -11.0869    0.0000 C   0  0  0  0  0  0  0  0  0  0  0  0
    5.1049  -10.2621    0.0000 C   0  0  0  0  0  0  0  0  0  0  0  0
    4.3933   -9.8453    0.0000 O   0  0  0  0  0  0  0  0  0  0  0  0
    5.8115  -11.5037    0.0000 C   0  0  0  0  0  0  0  0  0  0  0  0
    6.5283  -11.0957    0.0000 C   0  0  0  0  0  0  0  0  0  0  0  0
    6.5334  -10.2710    0.0000 C   0  0  0  0  0  0  0  0  0  0  0  0
    5.8217   -9.8542    0.0000 C   0  0  0  0  0  0  0  0  0  0  0  0
    7.2400  -11.5125    0.0000 O   0  0  0  0  0  0  0  0  0  0  0  0
    7.9568  -11.1046    0.0000 C   0  0  0  0  0  0  0  0  0  0  0  0
    7.9619  -10.2799    0.0000 C   0  0  1  0  0  0  0  0  0  0  0  0
    7.2502   -9.8631    0.0000 C   0  0  0  0  0  0  0  0  0  0  0  0
    8.6684  -11.5214    0.0000 O   0  0  0  0  0  0  0  0  0  0  0  0
    9.3852  -11.1134    0.0000 O   0  0  0  0  0  0  0  0  0  0  0  0
    9.3903  -10.2887    0.0000 C   0  0  0  0  0  0  0  0  0  0  0  0
    8.6787   -9.8719    0.0000 O   0  0  0  0  0  0  0  0  0  0  0  0
   10.8188  -10.2976    0.0000 C   0  0  0  0  0  0  0  0  0  0  0  0
   10.1071   -9.8808    0.0000 C   0  0  0  0  0  0  0  0  0  0  0  0
   11.5356   -9.8896    0.0000 C   0  0  0  0  0  0  0  0  0  0  0  0
   11.5407   -9.0649    0.0000 C   0  0  0  0  0  0  0  0  0  0  0  0
   12.2473  -10.3064    0.0000 C   0  0  0  0  0  0  0  0  0  0  0  0
   12.9641   -9.8985    0.0000 C   0  0  0  0  0  0  0  0  0  0  0  0
   12.9692   -9.0738    0.0000 C   0  0  0  0  0  0  0  0  0  0  0  0
   12.2575   -8.6570    0.0000 C   0  0  0  0  0  0  0  0  0  0  0  0
   13.6757  -10.3153    0.0000 O   0  0  0  0  0  0  0  0  0  0  0  0
   14.3925   -9.9073    0.0000 C   0  0  2  0  0  0  0  0  0  0  0  0
   14.3976   -9.0826    0.0000 C   0  0  2  0  0  0  0  0  0  0  0  0
   13.6860   -8.6658    0.0000 O   0  0  0  0  0  0  0  0  0  0  0  0
   15.1042  -10.3241    0.0000 C   0  0  0  0  0  0  0  0  0  0  0  0
   15.8210   -9.9162    0.0000 O   0  0  0  0  0  0  0  0  0  0  0  0
   15.8261   -9.0915    0.0000 C   0  0  0  0  0  0  0  0  0  0  0  0
   15.1144   -8.6747    0.0000 C   0  0  0  0  0  0  0  0  0  0  0  0
   16.5429   -8.6835    0.0000 C   0  0  0  0  0  0  0  0  0  0  0  0
   16.5480   -7.8588    0.0000 C   0  0  0  0  0  0  0  0  0  0  0  0
   15.8363   -7.4420    0.0000 C   0  0  0  0  0  0  0  0  0  0  0  0
   15.1195   -7.8500    0.0000 C   0  0  0  0  0  0  0  0  0  0  0  0
   15.0991  -11.1489    0.0000 O   0  0  0  0  0  0  0  0  0  0  0  0
   15.8108  -11.5656    0.0000 C   0  0  1  0  0  0  0  0  0  0  0  0
   16.5275  -11.1577    0.0000 C   0  0  0  0  0  0  0  0  0  0  0  0
   16.5327  -10.3330    0.0000 O   0  0  0  0  0  0  0  0  0  0  0  0
   15.8056  -12.3904    0.0000 C   0  0  0  0  0  0  0  0  0  0  0  0
   16.5173  -12.8072    0.0000 C   0  0  0  0  0  0  0  0  0  0  0  0
   17.2341  -12.3992    0.0000 C   0  0  0  0  0  0  0  0  0  0  0  0
   17.2392  -11.5745    0.0000 O   0  0  0  0  0  0  0  0  0  0  0  0
   16.5122  -13.6319    0.0000 C   0  0  0  0  0  0  0  0  0  0  0  0
   17.2239  -14.0487    0.0000 C   0  0  0  0  0  0  0  0  0  0  0  0
   17.9407  -13.6407    0.0000 C   0  0  0  0  0  0  0  0  0  0  0  0
   17.9458  -12.8160    0.0000 C   0  0  0  0  0  0  0  0  0  0  0  0
   17.2188  -14.8734    0.0000 O   0  0  0  0  0  0  0  0  0  0  0  0
   18.6524  -14.0575    0.0000 O   0  0  0  0  0  0  0  0  0  0  0  0
   17.2648   -7.4509    0.0000 O   0  0  0  0  0  0  0  0  0  0  0  0
   17.2546   -9.1003    0.0000 O   0  0  0  0  0  0  0  0  0  0  0  0
  1  2  1  0  0  0  0
  2  3  2  0  0  0  0
  3  4  1  0  0  0  0
  2  5  1  0  0  0  0
  5  6  2  0  0  0  0
  6  7  1  0  0  0  0
  7  8  2  0  0  0  0
  8  3  1  0  0  0  0
  9 10  1  0  0  0  0
 10 11  1  0  0  0  0
 11 12  1  0  0  0  0
 12  7  1  0  0  0  0
 10 13  2  0  0  0  0
 14 15  2  0  0  0  0
 15 16  1  0  0  0  0
 11 16  1  1  0  0  0
 17 18  2  0  0  0  0
 18 15  1  0  0  0  0
 17 19  1  0  0  0  0
 19 20  1  0  0  0  0
 19 21  2  0  0  0  0
 21 22  1  0  0  0  0
 22 23  2  0  0  0  0
 23 24  1  0  0  0  0
 24 20  2  0  0  0  0
 22 25  1  0  0  0  0
 25 26  1  0  0  0  0
 26 27  1  0  0  0  0
 27 28  1  0  0  0  0
 28 23  1  0  0  0  0
 26 29  1  6  0  0  0
 29 30  2  0  0  0  0
 31 32  2  0  0  0  0
 27 32  1  6  0  0  0
 31 33  1  0  0  0  0
 33 34  2  0  0  0  0
 34 35  1  0  0  0  0
 35 36  2  0  0  0  0
 36 32  1  0  0  0  0
 29 37  1  0  0  0  0
 38 37  1  1  0  0  0
 38 39  1  0  0  0  0
 39 40  2  0  0  0  0
 38 41  1  0  0  0  0
 41 42  1  0  0  0  0
 42 43  1  0  0  0  0
 44 39  1  0  0  0  0
 42 45  2  0  0  0  0
 45 46  1  0  0  0  0
 46 47  2  0  0  0  0
 47 48  1  0  0  0  0
 48 43  2  0  0  0  0
 46 49  1  0  0  0  0
 47 50  1  0  0  0  0
 34 51  1  0  0  0  0
 33 52  1  0  0  0  0
M  END
>  <cdx:fragmentId>
245

$$$$
