40167.cdx
  Mrv1902 05222410202D          

 19 18  0  0  0  0            999 V2000
    9.8785  -10.9439    0.0000 C   0  0  0  0  0  0  0  0  0  0  0  0
    9.1640  -11.3564    0.0000 C   0  0  0  0  0  0  0  0  0  0  0  0
    8.4495  -10.9439    0.0000 C   0  0  0  0  0  0  0  0  0  0  0  0
    7.7351  -11.3564    0.0000 C   0  0  0  0  0  0  0  0  0  0  0  0
    7.0206  -10.9439    0.0000 C   0  0  0  0  0  0  0  0  0  0  0  0
    6.3061  -11.3564    0.0000 C   0  0  0  0  0  0  0  0  0  0  0  0
    5.5917  -10.9439    0.0000 C   0  0  0  0  0  0  0  0  0  0  0  0
    4.8772  -11.3564    0.0000 C   0  0  0  0  0  0  0  0  0  0  0  0
    4.1627  -10.9439    0.0000 C   0  0  0  0  0  0  0  0  0  0  0  0
    3.4482  -11.3564    0.0000 C   0  0  0  0  0  0  0  0  0  0  0  0
    2.7338  -10.9439    0.0000 O   0  0  0  0  0  0  0  0  0  0  0  0
    3.4482  -12.1814    0.0000 O   0  0  0  0  0  0  0  0  0  0  0  0
    9.8785  -10.1189    0.0000 C   0  0  0  0  0  0  0  0  0  0  0  0
   10.5930   -9.7064    0.0000 C   0  0  0  0  0  0  0  0  0  0  0  0
   10.5930   -8.8814    0.0000 C   0  0  0  0  0  0  0  0  0  0  0  0
   11.3074   -8.4689    0.0000 C   0  0  0  0  0  0  0  0  0  0  0  0
   11.3074   -7.6439    0.0000 C   0  0  0  0  0  0  0  0  0  0  0  0
   12.0219   -7.2314    0.0000 C   0  0  0  0  0  0  0  0  0  0  0  0
   12.0219   -6.4064    0.0000 C   0  0  0  0  0  0  0  0  0  0  0  0
  2  1  2  0  0  0  0
  3  2  1  0  0  0  0
  4  3  1  0  0  0  0
  5  4  1  0  0  0  0
  6  5  1  0  0  0  0
  7  6  1  0  0  0  0
  8  7  1  0  0  0  0
  9  8  1  0  0  0  0
 10  9  1  0  0  0  0
 11 10  1  0  0  0  0
 10 12  2  0  0  0  0
  1 13  1  0  0  0  0
 13 14  1  0  0  0  0
 14 15  1  0  0  0  0
 15 16  1  0  0  0  0
 16 17  1  0  0  0  0
 17 18  1  0  0  0  0
 18 19  1  0  0  0  0
M  END
>  <cdx:fragmentId>
3

$$$$
