40174.cdx
  Mrv1902 05222410192D          

 23 23  0  0  0  0            999 V2000
    6.3506   -8.4001    0.0000 C   0  0  0  0  0  0  0  0  0  0  0  0
    6.3506   -9.2251    0.0000 C   0  0  0  0  0  0  0  0  0  0  0  0
    7.0650   -9.6376    0.0000 C   0  0  0  0  0  0  0  0  0  0  0  0
    7.7795   -9.2251    0.0000 C   0  0  0  0  0  0  0  0  0  0  0  0
    7.7795   -8.4001    0.0000 C   0  0  0  0  0  0  0  0  0  0  0  0
    7.0650   -7.9876    0.0000 C   0  0  0  0  0  0  0  0  0  0  0  0
    8.4940   -9.6376    0.0000 O   0  0  0  0  0  0  0  0  0  0  0  0
    9.2084   -9.2251    0.0000 C   0  0  0  0  0  0  0  0  0  0  0  0
    9.2084   -8.4001    0.0000 C   0  0  0  0  0  0  0  0  0  0  0  0
    8.4940   -7.9876    0.0000 C   0  0  0  0  0  0  0  0  0  0  0  0
    5.6361   -9.6376    0.0000 O   0  0  0  0  0  0  0  0  0  0  0  0
    5.6361  -10.4626    0.0000 O   0  0  0  0  0  0  0  0  0  0  0  0
    6.3506  -10.8751    0.0000 C   0  0  0  0  0  0  0  0  0  0  0  0
    7.0650  -10.4626    0.0000 C   0  0  0  0  0  0  0  0  0  0  0  0
    4.9216   -9.2251    0.0000 C   0  0  0  0  0  0  0  0  0  0  0  0
    9.9229   -9.6376    0.0000 O   0  0  0  0  0  0  0  0  0  0  0  0
    6.3506  -11.7001    0.0000 C   0  0  0  0  0  0  0  0  0  0  0  0
    6.3506  -12.5251    0.0000 O   0  0  0  0  0  0  0  0  0  0  0  0
    7.1756  -11.7001    0.0000 C   0  0  0  0  0  0  0  0  0  0  0  0
    5.5256  -11.7001    0.0000 C   0  0  0  0  0  0  0  0  0  0  0  0
    7.7642   -7.0683    0.0000 O   0  0  0  0  0  0  0  0  0  0  0  0
    7.0497   -6.6558    0.0000 H   0  0  0  0  0  0  0  0  0  0  0  0
    8.4786   -6.6558    0.0000 H   0  0  0  0  0  0  0  0  0  0  0  0
  1  2  2  0  0  0  0
  2  3  1  0  0  0  0
  3  4  2  0  0  0  0
  4  5  1  0  0  0  0
  5  6  2  0  0  0  0
  6  1  1  0  0  0  0
  4  7  1  0  0  0  0
  7  8  1  0  0  0  0
  8  9  1  0  0  0  0
  9 10  2  0  0  0  0
 10  5  1  0  0  0  0
  2 11  1  0  0  0  0
 12 13  1  0  0  0  0
 13 14  1  0  0  0  0
 14  3  1  0  0  0  0
 11 15  1  0  0  0  0
  8 16  2  0  0  0  0
 13 17  1  0  0  0  0
 17 18  1  0  0  0  0
 17 19  1  0  0  0  0
 17 20  1  0  0  0  0
 21 22  1  0  0  0  0
 21 23  1  0  0  0  0
M  END
>  <cdx:fragmentId>
70

$$$$
