40178.cdx
  Mrv1902 05222410272D          

 12 12  0  0  0  0            999 V2000
    5.6218  -10.3114    0.0000 C   0  0  0  0  0  0  0  0  0  0  0  0
    5.6218  -11.1364    0.0000 C   0  0  0  0  0  0  0  0  0  0  0  0
    6.3363  -11.5489    0.0000 C   0  0  0  0  0  0  0  0  0  0  0  0
    7.0507  -11.1364    0.0000 C   0  0  0  0  0  0  0  0  0  0  0  0
    7.0507  -10.3114    0.0000 C   0  0  0  0  0  0  0  0  0  0  0  0
    6.3363   -9.8989    0.0000 C   0  0  0  0  0  0  0  0  0  0  0  0
    6.3363   -9.0739    0.0000 N   0  0  0  0  0  0  0  0  0  0  0  0
    7.0507   -8.6614    0.0000 C   0  0  0  0  0  0  0  0  0  0  0  0
    7.0507   -7.8364    0.0000 N   0  0  0  0  0  0  0  0  0  0  0  0
    7.7652   -7.4239    0.0000 C   0  0  0  0  0  0  0  0  0  0  0  0
    6.3363   -7.4239    0.0000 C   0  0  0  0  0  0  0  0  0  0  0  0
    7.7652   -9.0739    0.0000 H   0  0  0  0  0  0  0  0  0  0  0  0
  1  2  2  0  0  0  0
  2  3  1  0  0  0  0
  3  4  2  0  0  0  0
  4  5  1  0  0  0  0
  5  6  2  0  0  0  0
  6  1  1  0  0  0  0
  6  7  1  0  0  0  0
  7  8  2  0  0  0  0
  8  9  1  0  0  0  0
  9 10  1  0  0  0  0
  9 11  1  0  0  0  0
  8 12  1  0  0  0  0
M  END
>  <cdx:fragmentId>
5

$$$$
