40176.cdx
  Mrv1902 05222410182D          

 24 25  0  0  0  0            999 V2000
    5.7181  -11.1089    0.0000 C   0  0  0  0  0  0  0  0  0  0  0  0
    5.7181  -11.9339    0.0000 C   0  0  0  0  0  0  0  0  0  0  0  0
    6.4325  -12.3464    0.0000 C   0  0  0  0  0  0  0  0  0  0  0  0
    7.1470  -11.9339    0.0000 C   0  0  0  0  0  0  0  0  0  0  0  0
    7.1470  -11.1089    0.0000 C   0  0  0  0  0  0  0  0  0  0  0  0
    6.4325  -10.6964    0.0000 C   0  0  0  0  0  0  0  0  0  0  0  0
    6.4325   -9.8714    0.0000 C   0  0  0  0  0  0  0  0  0  0  0  0
    5.6075   -9.8714    0.0000 C   0  0  0  0  0  0  0  0  0  0  0  0
    7.2575   -9.8714    0.0000 C   0  0  0  0  0  0  0  0  0  0  0  0
    6.4325   -9.0464    0.0000 C   0  0  0  0  0  0  0  0  0  0  0  0
    7.1470   -8.6339    0.0000 C   0  0  0  0  0  0  0  0  0  0  0  0
    7.1470   -7.8089    0.0000 C   0  0  0  0  0  0  0  0  0  0  0  0
    6.4325   -7.3964    0.0000 C   0  0  0  0  0  0  0  0  0  0  0  0
    5.7181   -7.8089    0.0000 C   0  0  0  0  0  0  0  0  0  0  0  0
    5.7181   -8.6339    0.0000 C   0  0  0  0  0  0  0  0  0  0  0  0
    5.1950   -9.1569    0.0000 C   0  0  0  0  0  0  0  0  0  0  0  0
    4.3700   -9.1569    0.0000 C   0  0  0  0  0  0  0  0  0  0  0  0
    5.1950  -10.5859    0.0000 O   0  0  0  0  0  0  0  0  0  0  0  0
    7.9720  -10.2839    0.0000 C   0  0  0  0  0  0  0  0  0  0  0  0
    8.6865   -9.8714    0.0000 N   0  3  0  0  0  0  0  0  0  0  0  0
    9.4009   -9.4589    0.0000 O   0  5  0  0  0  0  0  0  0  0  0  0
    8.2740   -9.1569    0.0000 C   0  0  0  0  0  0  0  0  0  0  0  0
    9.0990  -10.5859    0.0000 C   0  0  0  0  0  0  0  0  0  0  0  0
    7.9720  -11.1089    0.0000 C   0  0  0  0  0  0  0  0  0  0  0  0
  1  2  2  0  0  0  0
  2  3  1  0  0  0  0
  3  4  2  0  0  0  0
  4  5  1  0  0  0  0
  5  6  2  0  0  0  0
  6  1  1  0  0  0  0
  6  7  1  0  0  0  0
  7  8  1  0  0  0  0
  7  9  1  0  0  0  0
  7 10  1  0  0  0  0
 10 11  2  0  0  0  0
 11 12  1  0  0  0  0
 12 13  2  0  0  0  0
 13 14  1  0  0  0  0
 14 15  2  0  0  0  0
 15 10  1  0  0  0  0
  8 16  1  0  0  0  0
 16 17  1  0  0  0  0
  8 18  2  0  0  0  0
  9 19  1  0  0  0  0
 19 20  1  0  0  0  0
 20 21  1  0  0  0  0
 20 22  1  0  0  0  0
 20 23  1  0  0  0  0
 19 24  1  0  0  0  0
M  CHG  2  20   1  21  -1
M  END
>  <cdx:fragmentId>
5

$$$$
