40175.cdx
  Mrv1902 05222410192D          

 15 16  0  0  0  0            999 V2000
    4.0681   -8.4276    0.0000 C   0  0  0  0  0  0  0  0  0  0  0  0
    4.0681   -9.2526    0.0000 C   0  0  0  0  0  0  0  0  0  0  0  0
    4.7825   -9.6651    0.0000 C   0  0  0  0  0  0  0  0  0  0  0  0
    5.4970   -9.2526    0.0000 C   0  0  0  0  0  0  0  0  0  0  0  0
    5.4970   -8.4276    0.0000 C   0  0  0  0  0  0  0  0  0  0  0  0
    4.7825   -8.0151    0.0000 C   0  0  0  0  0  0  0  0  0  0  0  0
    6.2816   -9.5076    0.0000 N   0  0  0  0  0  0  0  0  0  0  0  0
    6.7665   -8.8401    0.0000 C   0  0  0  0  0  0  0  0  0  0  0  0
    6.2816   -8.1727    0.0000 S   0  0  0  0  0  0  0  0  0  0  0  0
    7.5915   -8.8401    0.0000 N   0  0  0  0  0  0  0  0  0  0  0  0
    8.0040   -8.1257    0.0000 C   0  0  0  0  0  0  0  0  0  0  0  0
    8.0040   -9.5546    0.0000 C   0  0  0  0  0  0  0  0  0  0  0  0
    8.8290   -9.5546    0.0000 N   0  0  0  0  0  0  0  0  0  0  0  0
    7.5915  -10.2691    0.0000 O   0  0  0  0  0  0  0  0  0  0  0  0
    9.2415  -10.2691    0.0000 C   0  0  0  0  0  0  0  0  0  0  0  0
  1  2  2  0  0  0  0
  2  3  1  0  0  0  0
  3  4  2  0  0  0  0
  4  5  1  0  0  0  0
  5  6  2  0  0  0  0
  6  1  1  0  0  0  0
  4  7  1  0  0  0  0
  7  8  2  0  0  0  0
  8  9  1  0  0  0  0
  9  5  1  0  0  0  0
  8 10  1  0  0  0  0
 10 11  1  0  0  0  0
 10 12  1  0  0  0  0
 12 13  1  0  0  0  0
 12 14  2  0  0  0  0
 13 15  1  0  0  0  0
M  END
>  <cdx:fragmentId>
5

$$$$
