40172.cdx
  Mrv1902 05222410202D          

 30 33  0  0  0  0            999 V2000
    6.5589  -11.7634    0.0000 C   0  0  0  0  0  0  0  0  0  0  0  0
    6.7724  -10.9665    0.0000 O   0  0  0  0  0  0  0  0  0  0  0  0
    5.1698  -11.3592    0.0000 O   0  0  0  0  0  0  0  0  0  0  0  0
    5.0604   -9.1792    0.0000 C   0  0  0  0  0  0  0  0  0  0  0  0
    4.8298   -9.9713    0.0000 C   0  0  0  0  0  0  0  0  0  0  0  0
    5.4004  -10.5671    0.0000 C   0  0  0  0  0  0  0  0  0  0  0  0
    6.2017  -10.3708    0.0000 C   0  0  0  0  0  0  0  0  0  0  0  0
    6.4324   -9.5787    0.0000 C   0  0  0  0  0  0  0  0  0  0  0  0
    5.8617   -8.9829    0.0000 C   0  0  0  0  0  0  0  0  0  0  0  0
    6.8941   -8.7364    0.0000 H   0  0  0  0  0  0  0  0  0  0  0  0
    6.8178   -6.2625    0.0000 H   0  0  0  0  0  0  0  0  0  0  0  0
    6.0511   -6.8565    0.0000 C   0  0  0  0  0  0  0  0  0  0  0  0
    5.5870   -7.5386    0.0000 O   0  0  0  0  0  0  0  0  0  0  0  0
    6.0923   -8.1908    0.0000 C   0  0  1  0  0  0  0  0  0  0  0  0
    6.8432   -7.0871    0.0000 C   0  0  1  0  0  0  0  0  0  0  0  0
    6.8687   -7.9118    0.0000 C   0  0  2  0  0  0  0  0  0  0  0  0
    7.6608   -8.1424    0.0000 C   0  0  0  0  0  0  0  0  0  0  0  0
    8.1249   -7.4603    0.0000 O   0  0  0  0  0  0  0  0  0  0  0  0
    7.6196   -6.8081    0.0000 C   0  0  2  0  0  0  0  0  0  0  0  0
    6.1426   -4.2459    0.0000 C   0  0  0  0  0  0  0  0  0  0  0  0
   10.2668   -5.4146    0.0000 C   0  0  0  0  0  0  0  0  0  0  0  0
    6.9395   -4.0324    0.0000 O   0  0  0  0  0  0  0  0  0  0  0  0
    9.6834   -4.8312    0.0000 O   0  0  0  0  0  0  0  0  0  0  0  0
    8.5421   -3.6397    0.0000 O   0  0  0  0  0  0  0  0  0  0  0  0
    8.3115   -4.4318    0.0000 C   0  0  0  0  0  0  0  0  0  0  0  0
    7.5102   -4.6281    0.0000 C   0  0  0  0  0  0  0  0  0  0  0  0
    7.2795   -5.4202    0.0000 C   0  0  0  0  0  0  0  0  0  0  0  0
    7.8502   -6.0160    0.0000 C   0  0  0  0  0  0  0  0  0  0  0  0
    8.6515   -5.8197    0.0000 C   0  0  0  0  0  0  0  0  0  0  0  0
    8.8821   -5.0276    0.0000 C   0  0  0  0  0  0  0  0  0  0  0  0
  2  1  1  0  0  0  0
  7  2  1  0  0  0  0
  6  3  1  0  0  0  0
  4  9  1  0  0  0  0
  5  4  2  0  0  0  0
  6  5  1  0  0  0  0
  7  6  2  0  0  0  0
  8  7  1  0  0  0  0
  9  8  2  0  0  0  0
 14  9  1  1  0  0  0
 16 10  1  1  0  0  0
 15 11  1  1  0  0  0
 12 15  1  0  0  0  0
 13 12  1  0  0  0  0
 14 13  1  0  0  0  0
 16 14  1  0  0  0  0
 15 19  1  0  0  0  0
 16 15  1  0  0  0  0
 17 16  1  0  0  0  0
 18 17  1  0  0  0  0
 19 18  1  0  0  0  0
 19 28  1  1  0  0  0
 22 20  1  0  0  0  0
 23 21  1  0  0  0  0
 26 22  1  0  0  0  0
 30 23  1  0  0  0  0
 25 24  1  0  0  0  0
 25 30  1  0  0  0  0
 26 25  2  0  0  0  0
 27 26  1  0  0  0  0
 28 27  2  0  0  0  0
 29 28  1  0  0  0  0
 30 29  2  0  0  0  0
M  END
>  <cdx:fragmentId>
5

$$$$
