40177.cdx
  Mrv1902 05222410182D          

  4  3  0  0  0  0            999 V2000
    5.3738   -7.0389    0.0000 C   0  0  0  0  0  0  0  0  0  0  0  0
    6.0882   -7.4514    0.0000 C   0  0  0  0  0  0  0  0  0  0  0  0
    6.8027   -7.0389    0.0000 S   0  0  0  0  0  0  0  0  0  0  0  0
    6.0882   -8.2764    0.0000 O   0  0  0  0  0  0  0  0  0  0  0  0
  1  2  1  0  0  0  0
  2  3  1  0  0  0  0
  2  4  2  0  0  0  0
M  END
>  <cdx:fragmentId>
3

$$$$
