40173.cdx
  Mrv1902 05222410202D          

 13 13  0  0  0  0            999 V2000
    6.3093  -11.3839    0.0000 C   0  0  0  0  0  0  0  0  0  0  0  0
    6.3093  -12.2089    0.0000 C   0  0  0  0  0  0  0  0  0  0  0  0
    7.0238  -12.6214    0.0000 C   0  0  0  0  0  0  0  0  0  0  0  0
    7.7382  -12.2089    0.0000 C   0  0  0  0  0  0  0  0  0  0  0  0
    7.7382  -11.3839    0.0000 C   0  0  0  0  0  0  0  0  0  0  0  0
    7.0238  -10.9714    0.0000 C   0  0  0  0  0  0  0  0  0  0  0  0
    8.4527  -10.9714    0.0000 C   0  0  0  0  0  0  0  0  0  0  0  0
    7.0238  -10.1464    0.0000 C   0  0  0  0  0  0  0  0  0  0  0  0
    5.7259  -10.8005    0.0000 C   0  0  0  0  0  0  0  0  0  0  0  0
    5.5124  -11.5974    0.0000 C   0  0  0  0  0  0  0  0  0  0  0  0
    7.7382   -9.7339    0.0000 C   0  0  0  0  0  0  0  0  0  0  0  0
    7.7382   -8.9089    0.0000 C   0  0  0  0  0  0  0  0  0  0  0  0
    8.4527   -8.4964    0.0000 C   0  0  0  0  0  0  0  0  0  0  0  0
  1  2  1  0  0  0  0
  2  3  1  0  0  0  0
  3  4  1  0  0  0  0
  4  5  1  0  0  0  0
  5  6  2  0  0  0  0
  6  1  1  0  0  0  0
  5  7  1  0  0  0  0
  6  8  1  0  0  0  0
  1  9  1  0  0  0  0
  1 10  1  0  0  0  0
  8 11  2  0  0  0  0
 11 12  1  0  0  0  0
 12 13  2  0  0  0  0
M  END
>  <cdx:fragmentId>
5

$$$$
