40183.cdx
  Mrv1902 05222410272D          

 10  9  0  0  0  0            999 V2000
    3.2425   -8.0426    0.0000 C   0  0  0  0  0  0  0  0  0  0  0  0
    3.9570   -7.6301    0.0000 O   0  0  0  0  0  0  0  0  0  0  0  0
    4.6715   -8.0426    0.0000 C   0  0  0  0  0  0  0  0  0  0  0  0
    5.3859   -7.6301    0.0000 C   0  0  0  0  0  0  0  0  0  0  0  0
    6.1004   -8.0426    0.0000 C   0  0  0  0  0  0  0  0  0  0  0  0
    6.8149   -7.6301    0.0000 C   0  0  0  0  0  0  0  0  0  0  0  0
    7.5294   -8.0426    0.0000 C   0  0  0  0  0  0  0  0  0  0  0  0
    8.2438   -7.6301    0.0000 C   0  0  0  0  0  0  0  0  0  0  0  0
    8.9583   -8.0426    0.0000 C   0  0  0  0  0  0  0  0  0  0  0  0
    4.6715   -8.8676    0.0000 O   0  0  0  0  0  0  0  0  0  0  0  0
  1  2  1  0  0  0  0
  2  3  1  0  0  0  0
  3  4  1  0  0  0  0
  4  5  1  0  0  0  0
  5  6  1  0  0  0  0
  6  7  2  0  0  0  0
  7  8  1  0  0  0  0
  8  9  1  0  0  0  0
  3 10  2  0  0  0  0
M  END
>  <cdx:fragmentId>
3

$$$$
