40182.cdx
  Mrv1902 05222410272D          

 18 19  0  0  0  0            999 V2000
    5.3987  -10.1651    0.0000 O   0  0  0  0  0  0  0  0  0  0  0  0
    5.6476  -10.9517    0.0000 C   0  0  0  0  0  0  0  0  0  0  0  0
    6.4726  -10.9580    0.0000 C   0  0  0  0  0  0  0  0  0  0  0  0
    6.7336  -10.1754    0.0000 C   0  0  0  0  0  0  0  0  0  0  0  0
    6.0699   -9.6853    0.0000 C   0  0  0  0  0  0  0  0  0  0  0  0
    6.0762   -8.8604    0.0000 C   0  0  0  0  0  0  0  0  0  0  0  0
    6.7907   -8.4479    0.0000 C   0  0  0  0  0  0  0  0  0  0  0  0
    5.3634   -8.4451    0.0000 O   0  0  0  0  0  0  0  0  0  0  0  0
    6.7907   -7.6229    0.0000 N   0  0  0  0  0  0  0  0  0  0  0  0
    7.4582   -7.1379    0.0000 C   0  0  1  0  0  0  0  0  0  0  0  0
    7.2032   -6.3533    0.0000 C   0  0  0  0  0  0  0  0  0  0  0  0
    6.3782   -6.3533    0.0000 C   0  0  0  0  0  0  0  0  0  0  0  0
    6.1233   -7.1379    0.0000 C   0  0  0  0  0  0  0  0  0  0  0  0
    5.3387   -7.3929    0.0000 O   0  0  0  0  0  0  0  0  0  0  0  0
    8.2428   -7.3929    0.0000 C   0  0  0  0  0  0  0  0  0  0  0  0
    8.8559   -6.8408    0.0000 O   0  0  0  0  0  0  0  0  0  0  0  0
    8.4143   -8.1999    0.0000 O   0  0  0  0  0  0  0  0  0  0  0  0
    9.6528   -7.0544    0.0000 C   0  0  0  0  0  0  0  0  0  0  0  0
  1  2  1  0  0  0  0
  2  3  2  0  0  0  0
  3  4  1  0  0  0  0
  4  5  2  0  0  0  0
  5  1  1  0  0  0  0
  5  6  1  0  0  0  0
  6  7  1  0  0  0  0
  6  8  2  0  0  0  0
  7  9  1  0  0  0  0
  9 10  1  0  0  0  0
 10 11  1  0  0  0  0
 11 12  1  0  0  0  0
 12 13  1  0  0  0  0
 13  9  1  0  0  0  0
 13 14  2  0  0  0  0
 10 15  1  1  0  0  0
 15 16  1  0  0  0  0
 15 17  2  0  0  0  0
 16 18  1  0  0  0  0
M  END
>  <cdx:fragmentId>
5

$$$$
