40181.cdx
  Mrv1902 05222410262D          

 23 22  0  0  0  0            999 V2000
    2.1975   -9.3489    0.0000 C   0  0  0  0  0  0  0  0  0  0  0  0
    2.9120   -8.9364    0.0000 O   0  0  0  0  0  0  0  0  0  0  0  0
    3.6265   -9.3489    0.0000 C   0  0  0  0  0  0  0  0  0  0  0  0
    4.3409   -8.9364    0.0000 C   0  0  0  0  0  0  0  0  0  0  0  0
    5.0554   -9.3489    0.0000 C   0  0  0  0  0  0  0  0  0  0  0  0
    5.7699   -8.9364    0.0000 C   0  0  0  0  0  0  0  0  0  0  0  0
    6.4844   -9.3489    0.0000 C   0  0  0  0  0  0  0  0  0  0  0  0
    7.1988   -8.9364    0.0000 C   0  0  0  0  0  0  0  0  0  0  0  0
    7.1988   -8.1114    0.0000 C   0  0  0  0  0  0  0  0  0  0  0  0
    7.9133   -7.6989    0.0000 C   0  0  0  0  0  0  0  0  0  0  0  0
    7.9133   -6.8739    0.0000 C   0  0  0  0  0  0  0  0  0  0  0  0
    8.6278   -6.4614    0.0000 C   0  0  0  0  0  0  0  0  0  0  0  0
    8.6278   -5.6364    0.0000 C   0  0  0  0  0  0  0  0  0  0  0  0
    9.3422   -5.2239    0.0000 C   0  0  0  0  0  0  0  0  0  0  0  0
   10.0567   -5.6364    0.0000 C   0  0  0  0  0  0  0  0  0  0  0  0
   10.7712   -5.2239    0.0000 C   0  0  0  0  0  0  0  0  0  0  0  0
   11.4856   -5.6364    0.0000 C   0  0  0  0  0  0  0  0  0  0  0  0
   11.4856   -6.4614    0.0000 C   0  0  0  0  0  0  0  0  0  0  0  0
   12.2001   -6.8739    0.0000 C   0  0  0  0  0  0  0  0  0  0  0  0
   12.2001   -7.6989    0.0000 C   0  0  0  0  0  0  0  0  0  0  0  0
   11.4856   -8.1114    0.0000 C   0  0  0  0  0  0  0  0  0  0  0  0
   11.4856   -8.9364    0.0000 C   0  0  0  0  0  0  0  0  0  0  0  0
    3.6265  -10.1739    0.0000 O   0  0  0  0  0  0  0  0  0  0  0  0
  1  2  1  0  0  0  0
  2  3  1  0  0  0  0
  3  4  1  0  0  0  0
  4  5  1  0  0  0  0
  5  6  1  0  0  0  0
  6  7  1  0  0  0  0
  7  8  2  0  0  0  0
  8  9  1  0  0  0  0
  9 10  1  0  0  0  0
 10 11  1  0  0  0  0
 11 12  1  0  0  0  0
 12 13  1  0  0  0  0
 13 14  2  0  0  0  0
 14 15  1  0  0  0  0
 15 16  1  0  0  0  0
 16 17  2  0  0  0  0
 17 18  1  0  0  0  0
 18 19  1  0  0  0  0
 19 20  2  0  0  0  0
 20 21  1  0  0  0  0
 21 22  1  0  0  0  0
  3 23  2  0  0  0  0
M  END
>  <cdx:fragmentId>
3

$$$$
