40186.cdx
  Mrv1902 05222410272D          

 19 20  0  0  0  0            999 V2000
    7.0191   -9.1389    0.0000 C   0  0  0  0  0  0  0  0  0  0  0  0
    6.7422   -8.3618    0.0000 C   0  0  0  0  0  0  0  0  0  0  0  0
    5.9176   -8.3849    0.0000 C   0  0  0  0  0  0  0  0  0  0  0  0
    5.6847   -9.1764    0.0000 C   0  0  0  0  0  0  0  0  0  0  0  0
    6.3655   -9.6424    0.0000 S   0  0  0  0  0  0  0  0  0  0  0  0
    4.9076   -9.4532    0.0000 C   0  0  0  0  0  0  0  0  0  0  0  0
    4.3242   -8.8698    0.0000 C   0  0  0  0  0  0  0  0  0  0  0  0
    4.7262  -10.2580    0.0000 O   0  0  0  0  0  0  0  0  0  0  0  0
    3.5273   -9.0834    0.0000 O   0  0  0  0  0  0  0  0  0  0  0  0
    2.9439   -8.5000    0.0000 C   0  0  0  0  0  0  0  0  0  0  0  0
    4.5377   -8.0729    0.0000 O   0  0  0  0  0  0  0  0  0  0  0  0
    7.8105   -9.3718    0.0000 C   0  0  0  0  0  0  0  0  0  0  0  0
    8.0874  -10.1489    0.0000 S   0  0  0  0  0  0  0  0  0  0  0  0
    8.9121  -10.1258    0.0000 C   0  0  0  0  0  0  0  0  0  0  0  0
    9.1449   -9.3343    0.0000 C   0  0  0  0  0  0  0  0  0  0  0  0
    8.4641   -8.8683    0.0000 C   0  0  0  0  0  0  0  0  0  0  0  0
    9.4155  -10.7794    0.0000 C   0  0  0  0  0  0  0  0  0  0  0  0
    9.8280  -11.4939    0.0000 C   0  0  0  0  0  0  0  0  0  0  0  0
   10.2405  -12.2083    0.0000 C   0  0  0  0  0  0  0  0  0  0  0  0
  1  2  2  0  0  0  0
  2  3  1  0  0  0  0
  3  4  2  0  0  0  0
  4  5  1  0  0  0  0
  5  1  1  0  0  0  0
  4  6  1  0  0  0  0
  6  7  1  0  0  0  0
  6  8  2  0  0  0  0
  7  9  1  0  0  0  0
  9 10  1  0  0  0  0
  7 11  2  0  0  0  0
  1 12  1  0  0  0  0
 12 13  1  0  0  0  0
 13 14  1  0  0  0  0
 14 15  2  0  0  0  0
 15 16  1  0  0  0  0
 16 12  2  0  0  0  0
 14 17  1  0  0  0  0
 17 18  3  0  0  0  0
 18 19  1  0  0  0  0
M  END
>  <cdx:fragmentId>
5

$$$$
