40180.cdx
  Mrv1902 05222410262D          

 19 18  0  0  0  0            999 V2000
    1.2350   -7.9464    0.0000 C   0  0  0  0  0  0  0  0  0  0  0  0
    1.9495   -7.5339    0.0000 O   0  0  0  0  0  0  0  0  0  0  0  0
    2.6640   -7.9464    0.0000 C   0  0  0  0  0  0  0  0  0  0  0  0
    3.3784   -7.5339    0.0000 C   0  0  0  0  0  0  0  0  0  0  0  0
    4.0929   -7.9464    0.0000 C   0  0  0  0  0  0  0  0  0  0  0  0
    4.8074   -7.5339    0.0000 C   0  0  0  0  0  0  0  0  0  0  0  0
    5.5219   -7.9464    0.0000 C   0  0  0  0  0  0  0  0  0  0  0  0
    6.2363   -7.5339    0.0000 C   0  0  0  0  0  0  0  0  0  0  0  0
    6.9508   -7.9464    0.0000 C   0  0  0  0  0  0  0  0  0  0  0  0
    7.6653   -7.5339    0.0000 C   0  0  0  0  0  0  0  0  0  0  0  0
    8.3797   -7.9464    0.0000 C   0  0  0  0  0  0  0  0  0  0  0  0
    9.0942   -7.5339    0.0000 C   0  0  0  0  0  0  0  0  0  0  0  0
    9.8087   -7.9464    0.0000 C   0  0  0  0  0  0  0  0  0  0  0  0
   10.5231   -7.5339    0.0000 C   0  0  0  0  0  0  0  0  0  0  0  0
   11.2376   -7.9464    0.0000 C   0  0  0  0  0  0  0  0  0  0  0  0
   11.9521   -7.5339    0.0000 C   0  0  0  0  0  0  0  0  0  0  0  0
   12.6666   -7.9464    0.0000 C   0  0  0  0  0  0  0  0  0  0  0  0
   13.3810   -7.5339    0.0000 C   0  0  0  0  0  0  0  0  0  0  0  0
    2.6640   -8.7714    0.0000 O   0  0  0  0  0  0  0  0  0  0  0  0
  1  2  1  0  0  0  0
  2  3  1  0  0  0  0
  3  4  1  0  0  0  0
  4  5  1  0  0  0  0
  5  6  1  0  0  0  0
  6  7  1  0  0  0  0
  7  8  1  0  0  0  0
  8  9  1  0  0  0  0
  9 10  2  0  0  0  0
 10 11  1  0  0  0  0
 11 12  1  0  0  0  0
 12 13  1  0  0  0  0
 13 14  1  0  0  0  0
 14 15  1  0  0  0  0
 15 16  1  0  0  0  0
 16 17  1  0  0  0  0
 17 18  1  0  0  0  0
  3 19  2  0  0  0  0
M  END
>  <cdx:fragmentId>
3

$$$$
