40193.cdx
  Mrv1902 05222410272D          

 14 13  0  0  0  0            999 V2000
    3.3800   -8.8264    0.0000 C   0  0  0  0  0  0  0  0  0  0  0  0
    4.0945   -8.4139    0.0000 O   0  0  0  0  0  0  0  0  0  0  0  0
    4.8090   -8.8264    0.0000 C   0  0  0  0  0  0  0  0  0  0  0  0
    5.5234   -8.4139    0.0000 C   0  0  0  0  0  0  0  0  0  0  0  0
    6.2379   -8.8264    0.0000 C   0  0  0  0  0  0  0  0  0  0  0  0
    6.9524   -8.4139    0.0000 C   0  0  0  0  0  0  0  0  0  0  0  0
    7.6669   -8.8264    0.0000 C   0  0  0  0  0  0  0  0  0  0  0  0
    8.3813   -8.4139    0.0000 C   0  0  0  0  0  0  0  0  0  0  0  0
    9.0958   -8.8264    0.0000 C   0  0  0  0  0  0  0  0  0  0  0  0
    9.8103   -8.4139    0.0000 C   0  0  0  0  0  0  0  0  0  0  0  0
   10.5247   -8.8264    0.0000 C   0  0  0  0  0  0  0  0  0  0  0  0
   11.2392   -8.4139    0.0000 C   0  0  0  0  0  0  0  0  0  0  0  0
   11.9537   -8.8264    0.0000 C   0  0  0  0  0  0  0  0  0  0  0  0
    4.8090   -9.6514    0.0000 O   0  0  0  0  0  0  0  0  0  0  0  0
  1  2  1  0  0  0  0
  2  3  1  0  0  0  0
  3  4  1  0  0  0  0
  4  5  2  0  0  0  0
  5  6  1  0  0  0  0
  6  7  2  0  0  0  0
  7  8  1  0  0  0  0
  8  9  1  0  0  0  0
  9 10  1  0  0  0  0
 10 11  1  0  0  0  0
 11 12  1  0  0  0  0
 12 13  1  0  0  0  0
  3 14  2  0  0  0  0
M  END
>  <cdx:fragmentId>
3

$$$$
