40194.cdx
  Mrv1902 05222410262D          

 41 43  0  0  0  0            999 V2000
    6.4193   -8.7164    0.0000 C   0  0  0  0  0  0  0  0  0  0  0  0
    6.4193   -9.5414    0.0000 C   0  0  2  0  0  0  0  0  0  0  0  0
    7.1338   -9.9539    0.0000 C   0  0  2  0  0  0  0  0  0  0  0  0
    7.8482   -9.5414    0.0000 C   0  0  1  0  0  0  0  0  0  0  0  0
    7.8482   -8.7164    0.0000 C   0  0  0  0  0  0  0  0  0  0  0  0
    7.1338   -8.3039    0.0000 C   0  0  2  0  0  0  0  0  0  0  0  0
    8.5627   -9.9539    0.0000 O   0  0  0  0  0  0  0  0  0  0  0  0
    9.2772   -9.5414    0.0000 C   0  0  0  0  0  0  0  0  0  0  0  0
    9.2772   -8.7164    0.0000 O   0  0  0  0  0  0  0  0  0  0  0  0
    9.9917   -9.9539    0.0000 C   0  0  0  0  0  0  0  0  0  0  0  0
   10.7061   -9.5414    0.0000 C   0  0  0  0  0  0  0  0  0  0  0  0
   11.4206   -9.9539    0.0000 C   0  0  0  0  0  0  0  0  0  0  0  0
   12.1351   -9.5414    0.0000 C   0  0  0  0  0  0  0  0  0  0  0  0
   11.4206  -10.7789    0.0000 C   0  0  0  0  0  0  0  0  0  0  0  0
   12.1351  -11.1914    0.0000 C   0  0  0  0  0  0  0  0  0  0  0  0
   12.8495  -10.7789    0.0000 C   0  0  0  0  0  0  0  0  0  0  0  0
   12.8495   -9.9539    0.0000 C   0  0  0  0  0  0  0  0  0  0  0  0
    4.9904   -8.7164    0.0000 O   0  0  0  0  0  0  0  0  0  0  0  0
    4.9904   -9.5414    0.0000 C   0  0  0  0  0  0  0  0  0  0  0  0
    5.7048   -9.9539    0.0000 O   0  0  0  0  0  0  0  0  0  0  0  0
    3.5614   -9.5414    0.0000 C   0  0  0  0  0  0  0  0  0  0  0  0
    4.2759   -9.9539    0.0000 C   0  0  0  0  0  0  0  0  0  0  0  0
    2.1325   -9.5414    0.0000 C   0  0  0  0  0  0  0  0  0  0  0  0
    2.8469   -9.9539    0.0000 C   0  0  0  0  0  0  0  0  0  0  0  0
    1.4180   -9.9539    0.0000 C   0  0  0  0  0  0  0  0  0  0  0  0
    1.4180  -10.7789    0.0000 C   0  0  0  0  0  0  0  0  0  0  0  0
    2.1325  -11.1914    0.0000 C   0  0  0  0  0  0  0  0  0  0  0  0
    2.8469  -10.7789    0.0000 C   0  0  0  0  0  0  0  0  0  0  0  0
    0.7035   -9.5414    0.0000 O   0  0  0  0  0  0  0  0  0  0  0  0
    0.7035   -8.7164    0.0000 C   0  0  0  0  0  0  0  0  0  0  0  0
    0.7035  -11.1914    0.0000 O   0  0  0  0  0  0  0  0  0  0  0  0
    2.1325  -12.0164    0.0000 O   0  0  0  0  0  0  0  0  0  0  0  0
    2.8469  -12.4289    0.0000 C   0  0  0  0  0  0  0  0  0  0  0  0
    7.5463   -7.5894    0.0000 C   0  0  0  0  0  0  0  0  0  0  0  0
    8.3713   -7.5894    0.0000 O   0  0  0  0  0  0  0  0  0  0  0  0
    8.7838   -6.8750    0.0000 C   0  0  0  0  0  0  0  0  0  0  0  0
    7.1338   -6.8750    0.0000 O   0  0  0  0  0  0  0  0  0  0  0  0
   12.1351  -12.0164    0.0000 O   0  0  0  0  0  0  0  0  0  0  0  0
   13.5640  -11.1914    0.0000 O   0  0  0  0  0  0  0  0  0  0  0  0
    6.7213   -7.5894    0.0000 O   0  0  0  0  0  0  0  0  0  0  0  0
    7.1338  -10.7789    0.0000 O   0  0  0  0  0  0  0  0  0  0  0  0
  1  2  1  0  0  0  0
  2  3  1  0  0  0  0
  3  4  1  0  0  0  0
  4  5  1  0  0  0  0
  5  6  1  0  0  0  0
  6  1  1  0  0  0  0
  4  7  1  1  0  0  0
  7  8  1  0  0  0  0
  8  9  2  0  0  0  0
  8 10  1  0  0  0  0
 10 11  2  0  0  0  0
 11 12  1  0  0  0  0
 12 13  1  0  0  0  0
 12 14  2  0  0  0  0
 14 15  1  0  0  0  0
 15 16  2  0  0  0  0
 16 17  1  0  0  0  0
 17 13  2  0  0  0  0
 18 19  2  0  0  0  0
 19 20  1  0  0  0  0
  2 20  1  6  0  0  0
 21 22  2  0  0  0  0
 22 19  1  0  0  0  0
 23 24  2  0  0  0  0
 24 21  1  0  0  0  0
 23 25  1  0  0  0  0
 25 26  2  0  0  0  0
 26 27  1  0  0  0  0
 27 28  2  0  0  0  0
 28 24  1  0  0  0  0
 25 29  1  0  0  0  0
 29 30  1  0  0  0  0
 26 31  1  0  0  0  0
 27 32  1  0  0  0  0
 32 33  1  0  0  0  0
  6 34  1  0  0  0  0
 34 35  1  0  0  0  0
 35 36  1  0  0  0  0
 34 37  2  0  0  0  0
 15 38  1  0  0  0  0
 16 39  1  0  0  0  0
  6 40  1  6  0  0  0
  3 41  1  6  0  0  0
M  END
>  <cdx:fragmentId>
5

$$$$
