40199.cdx
  Mrv1902 05222410202D          

 23 26  0  0  0  0            999 V2000
    4.5356  -10.6551    0.0000 C   0  0  0  0  0  0  0  0  0  0  0  0
    4.5356  -11.4801    0.0000 C   0  0  0  0  0  0  0  0  0  0  0  0
    5.2500  -11.8926    0.0000 C   0  0  0  0  0  0  0  0  0  0  0  0
    5.9645  -11.4801    0.0000 N   0  3  0  0  0  0  0  0  0  0  0  0
    5.9645  -10.6551    0.0000 C   0  0  2  0  0  0  0  0  0  0  0  0
    5.2500  -10.2426    0.0000 C   0  0  1  0  0  0  0  0  0  0  0  0
    6.6790  -11.8926    0.0000 C   0  0  0  0  0  0  0  0  0  0  0  0
    7.3934  -11.4801    0.0000 C   0  0  0  0  0  0  0  0  0  0  0  0
    7.3934  -10.6551    0.0000 C   0  0  0  0  0  0  0  0  0  0  0  0
    6.6790  -10.2426    0.0000 C   0  0  2  0  0  0  0  0  0  0  0  0
    6.6790   -9.4176    0.0000 C   0  0  2  0  0  0  0  0  0  0  0  0
    5.9645   -9.0051    0.0000 C   0  0  0  0  0  0  0  0  0  0  0  0
    5.2500   -9.4176    0.0000 C   0  0  0  0  0  0  0  0  0  0  0  0
    4.5356   -9.0051    0.0000 O   0  0  0  0  0  0  0  0  0  0  0  0
    6.1780  -12.2770    0.0000 O   0  5  0  0  0  0  0  0  0  0  0  0
    5.6974  -10.3330    0.0000 C   0  0  0  0  0  0  0  0  0  0  0  0
    5.7386   -9.7836    0.0000 C   0  0  1  0  0  0  0  0  0  0  0  0
    6.2120   -9.3357    0.0000 C   0  0  1  0  0  0  0  0  0  0  0  0
    4.5356   -9.8301    0.0000 H   0  0  0  0  0  0  0  0  0  0  0  0
    6.8925   -8.6208    0.0000 H   0  0  0  0  0  0  0  0  0  0  0  0
    6.2120   -8.5107    0.0000 O   0  0  0  0  0  0  0  0  0  0  0  0
    5.5251   -8.9867    0.0000 C   0  0  0  0  0  0  0  0  0  0  0  0
    7.4759  -10.0291    0.0000 O   0  0  0  0  0  0  0  0  0  0  0  0
  1  2  1  0  0  0  0
  2  3  1  0  0  0  0
  3  4  1  0  0  0  0
  4  5  1  0  0  0  0
  5  6  1  0  0  0  0
  6  1  1  0  0  0  0
  4  7  1  0  0  0  0
  7  8  1  0  0  0  0
  8  9  1  0  0  0  0
  9 10  1  0  0  0  0
 10  5  1  0  0  0  0
 10 11  1  0  0  0  0
 11 12  1  0  0  0  0
 12 13  1  0  0  0  0
 13  6  1  0  0  0  0
 13 14  2  0  0  0  0
  4 15  1  0  0  0  0
  5 16  1  1  0  0  0
 16 17  1  0  0  0  0
 17 18  1  0  0  0  0
 18 11  1  0  0  0  0
  6 19  1  1  0  0  0
 11 20  1  1  0  0  0
 18 21  1  1  0  0  0
 17 22  1  6  0  0  0
 10 23  1  6  0  0  0
M  CHG  2   4   1  15  -1
M  END
>  <cdx:fragmentId>
5

$$$$
