40197.cdx
  Mrv1902 05222410272D          

 13 13  0  0  0  0            999 V2000
    6.0319   -9.2000    0.0000 C   0  0  1  0  0  0  0  0  0  0  0  0
    6.2780   -9.9874    0.0000 C   0  0  1  0  0  0  0  0  0  0  0  0
    7.1030   -9.9967    0.0000 C   0  0  2  0  0  0  0  0  0  0  0  0
    7.3667   -9.2151    0.0000 O   0  0  0  0  0  0  0  0  0  0  0  0
    6.7048   -8.7226    0.0000 C   0  0  1  0  0  0  0  0  0  0  0  0
    5.2503   -8.9362    0.0000 O   0  0  0  0  0  0  0  0  0  0  0  0
    6.2923   -8.0082    0.0000 O   0  0  0  0  0  0  0  0  0  0  0  0
    7.5803  -10.6696    0.0000 C   0  0  0  0  0  0  0  0  0  0  0  0
    5.7856  -10.6494    0.0000 O   0  0  0  0  0  0  0  0  0  0  0  0
    6.8757   -7.4248    0.0000 C   0  0  0  0  0  0  0  0  0  0  0  0
    7.1173   -8.0082    0.0000 C   0  0  0  0  0  0  0  0  0  0  0  0
    7.9423   -8.0082    0.0000 O   0  0  0  0  0  0  0  0  0  0  0  0
    8.4053  -10.6696    0.0000 O   0  0  0  0  0  0  0  0  0  0  0  0
  1  2  1  0  0  0  0
  2  3  1  0  0  0  0
  3  4  1  0  0  0  0
  4  5  1  0  0  0  0
  5  1  1  0  0  0  0
  1  6  1  6  0  0  0
  5  7  1  6  0  0  0
  3  8  1  6  0  0  0
  2  9  1  1  0  0  0
  7 10  1  0  0  0  0
  5 11  1  0  0  0  0
 11 12  1  0  0  0  0
  8 13  1  0  0  0  0
M  END
>  <cdx:fragmentId>
5

$$$$
