40208.cdx
  Mrv1902 05222410262D          

 35 38  0  0  0  0            999 V2000
    3.5456  -11.4939    0.0000 C   0  0  2  0  0  0  0  0  0  0  0  0
    3.5456  -12.3189    0.0000 C   0  0  2  0  0  0  0  0  0  0  0  0
    4.2600  -12.7314    0.0000 C   0  0  1  0  0  0  0  0  0  0  0  0
    4.9745  -12.3189    0.0000 C   0  0  2  0  0  0  0  0  0  0  0  0
    4.9745  -11.4939    0.0000 C   0  0  1  0  0  0  0  0  0  0  0  0
    4.2600  -11.0814    0.0000 O   0  0  0  0  0  0  0  0  0  0  0  0
    2.8311  -11.0814    0.0000 C   0  0  0  0  0  0  0  0  0  0  0  0
    2.8311  -12.7314    0.0000 O   0  0  0  0  0  0  0  0  0  0  0  0
    5.6890  -11.0814    0.0000 O   0  0  0  0  0  0  0  0  0  0  0  0
    5.6890  -10.2564    0.0000 C   0  0  0  0  0  0  0  0  0  0  0  0
    6.4034   -9.8439    0.0000 C   0  0  2  0  0  0  0  0  0  0  0  0
    6.8209  -10.5555    0.0000 C   0  0  0  0  0  0  0  0  0  0  0  0
    7.6459  -10.5498    0.0000 C   0  0  0  0  0  0  0  0  0  0  0  0
    8.0534   -9.8324    0.0000 C   0  0  0  0  0  0  0  0  0  0  0  0
    7.6359   -9.1208    0.0000 C   0  0  2  0  0  0  0  0  0  0  0  0
    6.8110   -9.1266    0.0000 C   0  0  2  0  0  0  0  0  0  0  0  0
    8.0435   -8.4035    0.0000 C   0  0  1  0  0  0  0  0  0  0  0  0
    7.6359   -7.6919    0.0000 C   0  0  0  0  0  0  0  0  0  0  0  0
    6.8110   -7.6919    0.0000 C   0  0  0  0  0  0  0  0  0  0  0  0
    6.4034   -8.4035    0.0000 C   0  0  0  0  0  0  0  0  0  0  0  0
    8.0497   -6.9782    0.0000 C   0  0  0  0  0  0  0  0  0  0  0  0
    2.8311  -10.2564    0.0000 O   0  0  0  0  0  0  0  0  0  0  0  0
    8.8685   -8.4021    0.0000 C   0  0  0  0  0  0  0  0  0  0  0  0
    9.2810   -7.6876    0.0000 C   0  0  0  0  0  0  0  0  0  0  0  0
   10.1060   -7.6876    0.0000 C   0  0  0  0  0  0  0  0  0  0  0  0
   10.5909   -8.3551    0.0000 C   0  0  0  0  0  0  0  0  0  0  0  0
   11.3755   -8.1001    0.0000 C   0  0  0  0  0  0  0  0  0  0  0  0
   11.3755   -7.2751    0.0000 O   0  0  0  0  0  0  0  0  0  0  0  0
   10.5909   -7.0202    0.0000 C   0  0  0  0  0  0  0  0  0  0  0  0
   10.3359   -6.2356    0.0000 O   0  0  0  0  0  0  0  0  0  0  0  0
    4.2600  -13.5564    0.0000 O   0  0  0  0  0  0  0  0  0  0  0  0
    8.4609   -9.1208    0.0000 C   0  0  0  0  0  0  0  0  0  0  0  0
    5.9860   -9.1266    0.0000 H   0  0  0  0  0  0  0  0  0  0  0  0
    5.6890   -9.4314    0.0000 C   0  0  0  0  0  0  0  0  0  0  0  0
    5.6890  -12.7314    0.0000 O   0  0  0  0  0  0  0  0  0  0  0  0
  1  2  1  0  0  0  0
  2  3  1  0  0  0  0
  3  4  1  0  0  0  0
  4  5  1  0  0  0  0
  5  6  1  0  0  0  0
  6  1  1  0  0  0  0
  1  7  1  1  0  0  0
  2  8  1  6  0  0  0
  5  9  1  1  0  0  0
  9 10  1  0  0  0  0
 10 11  1  0  0  0  0
 11 12  1  0  0  0  0
 12 13  1  0  0  0  0
 13 14  1  0  0  0  0
 14 15  1  0  0  0  0
 15 16  1  0  0  0  0
 16 11  1  0  0  0  0
 15 17  1  0  0  0  0
 17 18  1  0  0  0  0
 18 19  1  0  0  0  0
 19 20  1  0  0  0  0
 20 16  1  0  0  0  0
 18 21  2  0  0  0  0
  7 22  1  0  0  0  0
 17 23  1  1  0  0  0
 23 24  1  0  0  0  0
 24 25  1  0  0  0  0
 25 26  2  0  0  0  0
 26 27  1  0  0  0  0
 27 28  1  0  0  0  0
 28 29  1  0  0  0  0
 29 25  1  0  0  0  0
 29 30  2  0  0  0  0
  3 31  1  1  0  0  0
 15 32  1  1  0  0  0
 16 33  1  6  0  0  0
 11 34  1  6  0  0  0
  4 35  1  6  0  0  0
M  END
>  <cdx:fragmentId>
5

$$$$
