402009.cdx
  Mrv1902 05222410252D          

 34 36  0  0  0  0            999 V2000
    5.8878   -9.2813    0.0000 O   0  0  0  0  0  0  0  0  0  0  0  0
    5.1733   -8.8688    0.0000 C   0  0  0  0  0  0  0  0  0  0  0  0
    3.0299   -6.8062    0.0000 C   0  0  0  0  0  0  0  0  0  0  0  0
    3.0299   -7.6313    0.0000 N   0  0  0  0  0  0  0  0  0  0  0  0
    3.7444   -8.0437    0.0000 C   0  0  0  0  0  0  0  0  0  0  0  0
    4.4589   -7.6313    0.0000 C   0  0  0  0  0  0  0  0  0  0  0  0
    4.4589   -6.8062    0.0000 C   0  0  0  0  0  0  0  0  0  0  0  0
    3.7444   -6.3937    0.0000 N   0  0  0  0  0  0  0  0  0  0  0  0
    5.1733   -8.0437    0.0000 N   0  0  0  0  0  0  0  0  0  0  0  0
    5.8878   -7.6313    0.0000 C   0  0  0  0  0  0  0  0  0  0  0  0
    5.8878   -6.8062    0.0000 C   0  0  0  0  0  0  0  0  0  0  0  0
    5.1733   -6.3937    0.0000 N   0  0  0  0  0  0  0  0  0  0  0  0
    6.6023   -8.0437    0.0000 C   0  0  0  0  0  0  0  0  0  0  0  0
    7.3168   -7.6313    0.0000 N   0  0  0  0  0  0  0  0  0  0  0  0
    8.0312   -8.0437    0.0000 C   0  0  0  0  0  0  0  0  0  0  0  0
    8.7457   -7.6313    0.0000 C   0  0  0  0  0  0  0  0  0  0  0  0
    8.0312   -8.8688    0.0000 C   0  0  0  0  0  0  0  0  0  0  0  0
    8.7457   -9.2812    0.0000 C   0  0  0  0  0  0  0  0  0  0  0  0
    9.4602   -8.8688    0.0000 C   0  0  0  0  0  0  0  0  0  0  0  0
    9.4602   -8.0437    0.0000 C   0  0  0  0  0  0  0  0  0  0  0  0
   10.1746   -9.2813    0.0000 C   0  0  0  0  0  0  0  0  0  0  0  0
   10.8891   -8.8688    0.0000 N   0  0  0  0  0  0  0  0  0  0  0  0
   11.6036   -9.2813    0.0000 C   0  0  2  0  0  0  0  0  0  0  0  0
   12.3181   -8.8688    0.0000 C   0  0  0  0  0  0  0  0  0  0  0  0
   12.3181   -8.0437    0.0000 O   0  0  0  0  0  0  0  0  0  0  0  0
   11.6036  -10.1063    0.0000 C   0  0  0  0  0  0  0  0  0  0  0  0
   12.3181  -10.5187    0.0000 C   0  0  0  0  0  0  0  0  0  0  0  0
   13.0325   -9.2813    0.0000 O   0  0  0  0  0  0  0  0  0  0  0  0
   11.6036  -11.7562    0.0000 O   0  0  0  0  0  0  0  0  0  0  0  0
   12.3181  -11.3437    0.0000 C   0  0  0  0  0  0  0  0  0  0  0  0
    2.3155   -6.3937    0.0000 N   0  0  0  0  0  0  0  0  0  0  0  0
    3.7444   -8.8688    0.0000 O   0  0  0  0  0  0  0  0  0  0  0  0
   10.1746  -10.1063    0.0000 O   0  0  0  0  0  0  0  0  0  0  0  0
   13.0325  -11.7562    0.0000 O   0  0  0  0  0  0  0  0  0  0  0  0
  2  1  2  0  0  0  0
  9  2  1  0  0  0  0
  3  4  1  0  0  0  0
  4  5  1  0  0  0  0
  5  6  1  0  0  0  0
  6  7  2  0  0  0  0
  7  8  1  0  0  0  0
  8  3  2  0  0  0  0
  6  9  1  0  0  0  0
  9 10  1  0  0  0  0
 10 11  1  0  0  0  0
 11 12  1  0  0  0  0
 12  7  1  0  0  0  0
 10 13  1  0  0  0  0
 13 14  1  0  0  0  0
 14 15  1  0  0  0  0
 15 16  1  0  0  0  0
 15 17  2  0  0  0  0
 17 18  1  0  0  0  0
 18 19  2  0  0  0  0
 19 20  1  0  0  0  0
 20 16  2  0  0  0  0
 19 21  1  0  0  0  0
 21 22  1  0  0  0  0
 23 22  1  6  0  0  0
 23 24  1  0  0  0  0
 24 25  2  0  0  0  0
 23 26  1  0  0  0  0
 26 27  1  0  0  0  0
 28 24  1  0  0  0  0
 29 30  2  0  0  0  0
 30 27  1  0  0  0  0
  3 31  1  0  0  0  0
  5 32  2  0  0  0  0
 21 33  2  0  0  0  0
 30 34  1  0  0  0  0
M  END
>  <cdx:fragmentId>
5

$$$$
