40204.cdx
  Mrv1902 05222410202D          

 15 15  0  0  0  0            999 V2000
    6.3231   -6.2139    0.0000 C   0  0  2  0  0  0  0  0  0  0  0  0
    6.3231   -7.0389    0.0000 C   0  0  2  0  0  0  0  0  0  0  0  0
    7.0375   -7.4514    0.0000 C   0  0  1  0  0  0  0  0  0  0  0  0
    7.7520   -7.0389    0.0000 C   0  0  2  0  0  0  0  0  0  0  0  0
    7.7520   -6.2139    0.0000 C   0  0  0  0  0  0  0  0  0  0  0  0
    7.0375   -5.8014    0.0000 O   0  0  0  0  0  0  0  0  0  0  0  0
    8.4665   -7.4514    0.0000 N   0  0  0  0  0  0  0  0  0  0  0  0
    9.1809   -7.0389    0.0000 C   0  0  0  0  0  0  0  0  0  0  0  0
    9.1809   -6.2139    0.0000 O   0  0  0  0  0  0  0  0  0  0  0  0
    8.4665   -5.8014    0.0000 O   0  0  0  0  0  0  0  0  0  0  0  0
    5.6086   -5.8014    0.0000 C   0  0  0  0  0  0  0  0  0  0  0  0
    5.6086   -4.9764    0.0000 O   0  0  0  0  0  0  0  0  0  0  0  0
    9.8954   -7.4514    0.0000 C   0  0  0  0  0  0  0  0  0  0  0  0
    7.0375   -8.2764    0.0000 O   0  0  0  0  0  0  0  0  0  0  0  0
    5.6086   -7.4514    0.0000 O   0  0  0  0  0  0  0  0  0  0  0  0
  1  2  1  0  0  0  0
  2  3  1  0  0  0  0
  3  4  1  0  0  0  0
  4  5  1  0  0  0  0
  5  6  1  0  0  0  0
  6  1  1  0  0  0  0
  4  7  1  6  0  0  0
  7  8  1  0  0  0  0
  8  9  2  0  0  0  0
 10  5  1  0  0  0  0
  1 11  1  1  0  0  0
 11 12  1  0  0  0  0
  8 13  1  0  0  0  0
  3 14  1  1  0  0  0
  2 15  1  6  0  0  0
M  END
>  <cdx:fragmentId>
5

$$$$
