40202.cdx
  Mrv1902 05222410182D          

 25 26  0  0  0  0            999 V2000
    5.3881   -7.1489    0.0000 C   0  0  2  0  0  0  0  0  0  0  0  0
    5.3881   -7.9739    0.0000 C   0  0  2  0  0  0  0  0  0  0  0  0
    6.1025   -8.3864    0.0000 C   0  0  1  0  0  0  0  0  0  0  0  0
    6.8170   -7.9739    0.0000 C   0  0  2  0  0  0  0  0  0  0  0  0
    6.8170   -7.1489    0.0000 C   0  0  1  0  0  0  0  0  0  0  0  0
    6.1025   -6.7364    0.0000 O   0  0  0  0  0  0  0  0  0  0  0  0
    4.6736   -6.7364    0.0000 C   0  0  0  0  0  0  0  0  0  0  0  0
    3.9591   -7.1489    0.0000 O   0  0  0  0  0  0  0  0  0  0  0  0
    4.6736   -8.3864    0.0000 O   0  0  0  0  0  0  0  0  0  0  0  0
    7.5315   -6.7364    0.0000 O   0  0  0  0  0  0  0  0  0  0  0  0
    7.5315   -5.9114    0.0000 C   0  0  0  0  0  0  0  0  0  0  0  0
    6.8170   -5.4989    0.0000 C   0  0  0  0  0  0  0  0  0  0  0  0
    8.2459   -5.4989    0.0000 C   0  0  0  0  0  0  0  0  0  0  0  0
    8.2459   -4.6739    0.0000 C   0  0  0  0  0  0  0  0  0  0  0  0
    7.5315   -4.2614    0.0000 C   0  0  0  0  0  0  0  0  0  0  0  0
    6.8170   -4.6739    0.0000 C   0  0  0  0  0  0  0  0  0  0  0  0
    8.9604   -5.9114    0.0000 C   0  0  0  0  0  0  0  0  0  0  0  0
    9.6749   -5.4989    0.0000 C   0  0  0  0  0  0  0  0  0  0  0  0
    9.6749   -4.6739    0.0000 C   0  0  0  0  0  0  0  0  0  0  0  0
    8.9604   -4.2614    0.0000 O   0  0  0  0  0  0  0  0  0  0  0  0
   10.3894   -5.9114    0.0000 C   0  0  0  0  0  0  0  0  0  0  0  0
    6.1025   -4.2614    0.0000 O   0  0  0  0  0  0  0  0  0  0  0  0
    8.9604   -6.7364    0.0000 O   0  0  0  0  0  0  0  0  0  0  0  0
    6.1025   -9.2114    0.0000 O   0  0  0  0  0  0  0  0  0  0  0  0
    7.5315   -8.3864    0.0000 O   0  0  0  0  0  0  0  0  0  0  0  0
  1  2  1  0  0  0  0
  2  3  1  0  0  0  0
  3  4  1  0  0  0  0
  4  5  1  0  0  0  0
  5  6  1  0  0  0  0
  6  1  1  0  0  0  0
  1  7  1  1  0  0  0
  7  8  1  0  0  0  0
  2  9  1  6  0  0  0
  5 10  1  1  0  0  0
 10 11  1  0  0  0  0
 11 12  2  0  0  0  0
 11 13  1  0  0  0  0
 13 14  2  0  0  0  0
 14 15  1  0  0  0  0
 15 16  2  0  0  0  0
 16 12  1  0  0  0  0
 13 17  1  0  0  0  0
 17 18  1  0  0  0  0
 18 19  1  0  0  0  0
 20 14  1  0  0  0  0
 18 21  1  0  0  0  0
 16 22  1  0  0  0  0
 17 23  2  0  0  0  0
  3 24  1  1  0  0  0
  4 25  1  6  0  0  0
M  END
>  <cdx:fragmentId>
5

$$$$
