40200.cdx
  Mrv1902 05222410182D          

 18 20  0  0  0  0            999 V2000
    6.1031   -6.3376    0.0000 C   0  0  0  0  0  0  0  0  0  0  0  0
    6.1031   -7.1626    0.0000 C   0  0  0  0  0  0  0  0  0  0  0  0
    6.8175   -7.5751    0.0000 C   0  0  0  0  0  0  0  0  0  0  0  0
    7.5320   -7.1626    0.0000 C   0  0  0  0  0  0  0  0  0  0  0  0
    7.5320   -6.3376    0.0000 C   0  0  0  0  0  0  0  0  0  0  0  0
    6.8175   -5.9251    0.0000 C   0  0  0  0  0  0  0  0  0  0  0  0
    8.2465   -7.5751    0.0000 C   0  0  0  0  0  0  0  0  0  0  0  0
    8.9609   -7.1626    0.0000 C   0  0  0  0  0  0  0  0  0  0  0  0
    8.9609   -6.3376    0.0000 C   0  0  0  0  0  0  0  0  0  0  0  0
    8.2465   -5.9251    0.0000 C   0  0  0  0  0  0  0  0  0  0  0  0
    9.6754   -5.9251    0.0000 C   0  0  0  0  0  0  0  0  0  0  0  0
    9.6754   -5.1001    0.0000 C   0  0  0  0  0  0  0  0  0  0  0  0
    8.9609   -4.6876    0.0000 C   0  0  0  0  0  0  0  0  0  0  0  0
    8.2465   -5.1001    0.0000 C   0  0  0  0  0  0  0  0  0  0  0  0
    5.3886   -7.5751    0.0000 O   0  0  0  0  0  0  0  0  0  0  0  0
    6.8175   -5.1001    0.0000 O   0  0  0  0  0  0  0  0  0  0  0  0
    6.1031   -4.6876    0.0000 C   0  0  0  0  0  0  0  0  0  0  0  0
    7.5320   -4.6876    0.0000 O   0  0  0  0  0  0  0  0  0  0  0  0
  1  2  2  0  0  0  0
  2  3  1  0  0  0  0
  3  4  2  0  0  0  0
  4  5  1  0  0  0  0
  5  6  2  0  0  0  0
  6  1  1  0  0  0  0
  4  7  1  0  0  0  0
  7  8  2  0  0  0  0
  8  9  1  0  0  0  0
  9 10  2  0  0  0  0
 10  5  1  0  0  0  0
  9 11  1  0  0  0  0
 11 12  2  0  0  0  0
 12 13  1  0  0  0  0
 13 14  2  0  0  0  0
 14 10  1  0  0  0  0
  2 15  1  0  0  0  0
  6 16  1  0  0  0  0
 16 17  1  0  0  0  0
 14 18  1  0  0  0  0
M  END
>  <cdx:fragmentId>
5

$$$$
