40213.cdx
  Mrv1902 05222410192D          

 18 18  0  0  0  0            999 V2000
    4.9481  -11.3426    0.0000 C   0  0  2  0  0  0  0  0  0  0  0  0
    4.9481  -12.1676    0.0000 C   0  0  2  0  0  0  0  0  0  0  0  0
    5.6625  -12.5801    0.0000 C   0  0  1  0  0  0  0  0  0  0  0  0
    6.3770  -12.1676    0.0000 C   0  0  2  0  0  0  0  0  0  0  0  0
    6.3770  -11.3426    0.0000 C   0  0  1  0  0  0  0  0  0  0  0  0
    5.6625  -10.9301    0.0000 O   0  0  0  0  0  0  0  0  0  0  0  0
    4.2336  -10.9301    0.0000 C   0  0  0  0  0  0  0  0  0  0  0  0
    5.6625  -13.4051    0.0000 O   0  0  0  0  0  0  0  0  0  0  0  0
    4.2336  -12.5801    0.0000 O   0  0  0  0  0  0  0  0  0  0  0  0
    7.0915  -12.5801    0.0000 O   0  0  0  0  0  0  0  0  0  0  0  0
    3.5007  -11.3533    0.0000 O   0  0  0  0  0  0  0  0  0  0  0  0
   11.3783  -10.9302    0.0000 C   0  0  0  0  0  0  0  0  0  0  0  0
   10.6638  -11.3427    0.0000 C   0  0  0  0  0  0  0  0  0  0  0  0
    9.9494  -10.9302    0.0000 C   0  0  0  0  0  0  0  0  0  0  0  0
    9.2349  -11.3427    0.0000 C   0  0  0  0  0  0  0  0  0  0  0  0
    8.5204  -10.9302    0.0000 C   0  0  0  0  0  0  0  0  0  0  0  0
    7.8059  -11.3426    0.0000 C   0  0  0  0  0  0  0  0  0  0  0  0
    7.0915  -10.9301    0.0000 O   0  0  0  0  0  0  0  0  0  0  0  0
  1  2  1  0  0  0  0
  2  3  1  0  0  0  0
  3  4  1  0  0  0  0
  4  5  1  0  0  0  0
  5  6  1  0  0  0  0
  6  1  1  0  0  0  0
  1  7  1  1  0  0  0
 13 12  1  0  0  0  0
  5 18  1  1  0  0  0
  3  8  1  1  0  0  0
  2  9  1  6  0  0  0
  4 10  1  6  0  0  0
  7 11  1  0  0  0  0
 14 13  1  0  0  0  0
 15 14  1  0  0  0  0
 16 15  1  0  0  0  0
 17 16  1  0  0  0  0
 18 17  1  0  0  0  0
M  END
>  <cdx:fragmentId>
5

$$$$
