40211.cdx
  Mrv1902 05222410202D          

 60 68  0  0  0  0            999 V2000
    4.2318   -9.4620    0.0000 O   0  0  0  0  0  0  0  0  0  0  0  0
    3.5100   -5.7496    0.0000 O   0  0  0  0  0  0  0  0  0  0  0  0
    4.2245   -6.1621    0.0000 C   0  0  0  0  0  0  0  0  0  0  0  0
    2.8011   -8.6402    0.0000 O   0  0  0  0  0  0  0  0  0  0  0  0
    2.7974   -6.9903    0.0000 O   0  0  0  0  0  0  0  0  0  0  0  0
    4.9435   -8.2230    0.0000 C   0  0  1  0  0  0  0  0  0  0  0  0
    4.2300   -8.6370    0.0000 C   0  0  1  0  0  0  0  0  0  0  0  0
    3.5146   -8.2261    0.0000 C   0  0  2  0  0  0  0  0  0  0  0  0
    3.5128   -7.4012    0.0000 C   0  0  1  0  0  0  0  0  0  0  0  0
    4.2263   -6.9871    0.0000 C   0  0  2  0  0  0  0  0  0  0  0  0
    4.9417   -7.3980    0.0000 O   0  0  0  0  0  0  0  0  0  0  0  0
    8.5116   -9.5053    0.0000 O   0  0  0  0  0  0  0  0  0  0  0  0
   11.2529  -11.3180    0.0000 O   0  0  0  0  0  0  0  0  0  0  0  0
   10.9110  -12.0688    0.0000 C   0  0  0  0  0  0  0  0  0  0  0  0
   10.0913  -11.9757    0.0000 O   0  0  0  0  0  0  0  0  0  0  0  0
    9.9266  -11.1673    0.0000 C   0  0  0  0  0  0  0  0  0  0  0  0
   10.6445  -10.7608    0.0000 C   0  0  0  0  0  0  0  0  0  0  0  0
    9.2156  -10.7488    0.0000 C   0  0  0  0  0  0  0  0  0  0  0  0
    9.2225   -9.9238    0.0000 C   0  0  0  0  0  0  0  0  0  0  0  0
    9.9405   -9.5173    0.0000 C   0  0  0  0  0  0  0  0  0  0  0  0
   10.6514   -9.9358    0.0000 C   0  0  0  0  0  0  0  0  0  0  0  0
   11.7054   -7.4376    0.0000 O   0  0  0  0  0  0  0  0  0  0  0  0
   11.4439   -8.2200    0.0000 C   0  0  0  0  0  0  0  0  0  0  0  0
   10.6189   -8.2131    0.0000 C   0  0  2  0  0  0  0  0  0  0  0  0
   10.3706   -7.4263    0.0000 C   0  0  2  0  0  0  0  0  0  0  0  0
   11.0421   -6.9470    0.0000 C   0  0  2  0  0  0  0  0  0  0  0  0
    9.2841   -8.2018    0.0000 O   0  0  0  0  0  0  0  0  0  0  0  0
    9.9474   -8.6924    0.0000 C   0  0  2  0  0  0  0  0  0  0  0  0
    9.5456   -7.4194    0.0000 C   0  0  0  0  0  0  0  0  0  0  0  0
   10.1223   -6.6396    0.0000 H   0  0  0  0  0  0  0  0  0  0  0  0
   10.8672   -8.9998    0.0000 H   0  0  0  0  0  0  0  0  0  0  0  0
   11.7739   -4.8906    0.0000 C   0  0  0  0  0  0  0  0  0  0  0  0
   11.7670   -5.7156    0.0000 C   0  0  0  0  0  0  0  0  0  0  0  0
   11.0490   -6.1221    0.0000 C   0  0  0  0  0  0  0  0  0  0  0  0
   10.3381   -5.7036    0.0000 C   0  0  0  0  0  0  0  0  0  0  0  0
   11.0629   -4.4721    0.0000 C   0  0  0  0  0  0  0  0  0  0  0  0
   10.3450   -4.8786    0.0000 C   0  0  0  0  0  0  0  0  0  0  0  0
    9.7366   -4.3214    0.0000 O   0  0  0  0  0  0  0  0  0  0  0  0
   10.0785   -3.5706    0.0000 C   0  0  0  0  0  0  0  0  0  0  0  0
   10.8982   -3.6637    0.0000 O   0  0  0  0  0  0  0  0  0  0  0  0
    9.9791  -12.4707    0.0000 O   0  0  0  0  0  0  0  0  0  0  0  0
    9.6433  -13.5951    0.0000 O   0  0  0  0  0  0  0  0  0  0  0  0
    9.7227  -14.4162    0.0000 O   0  0  0  0  0  0  0  0  0  0  0  0
    8.9718  -14.0744    0.0000 C   0  0  0  0  0  0  0  0  0  0  0  0
    8.0675  -13.2462    0.0000 C   0  0  0  0  0  0  0  0  0  0  0  0
    8.8925  -13.2532    0.0000 C   0  0  2  0  0  0  0  0  0  0  0  0
    9.1541  -12.4707    0.0000 C   0  0  2  0  0  0  0  0  0  0  0  0
    8.4907  -11.9802    0.0000 C   0  0  1  0  0  0  0  0  0  0  0  0
    7.8192  -12.4595    0.0000 O   0  0  0  0  0  0  0  0  0  0  0  0
    8.4977  -11.1552    0.0000 O   0  0  0  0  0  0  0  0  0  0  0  0
    5.6607   -8.6562    0.0000 O   0  0  0  0  0  0  0  0  0  0  0  0
    5.6538   -9.4812    0.0000 C   0  0  0  0  0  0  0  0  0  0  0  0
    7.0618  -11.9682    0.0000 O   0  0  0  0  0  0  0  0  0  0  0  0
    5.6399  -11.1312    0.0000 O   0  0  0  0  0  0  0  0  0  0  0  0
    7.7937   -9.9118    0.0000 C   0  0  1  0  0  0  0  0  0  0  0  0
    7.7867  -10.7367    0.0000 C   0  0  1  0  0  0  0  0  0  0  0  0
    7.0688  -11.1432    0.0000 C   0  0  2  0  0  0  0  0  0  0  0  0
    6.3578  -10.7247    0.0000 C   0  0  1  0  0  0  0  0  0  0  0  0
    6.3648   -9.8997    0.0000 C   0  0  2  0  0  0  0  0  0  0  0  0
    7.0827   -9.4933    0.0000 O   0  0  0  0  0  0  0  0  0  0  0  0
  6 51  1  1  0  0  0
  7  1  1  6  0  0  0
 10  3  1  1  0  0  0
  3  2  1  0  0  0  0
  8  4  1  1  0  0  0
  9  5  1  6  0  0  0
 11  6  1  0  0  0  0
  7  6  1  0  0  0  0
  8  7  1  0  0  0  0
  9  8  1  0  0  0  0
 10  9  1  0  0  0  0
 11 10  1  0  0  0  0
 55 12  1  1  0  0  0
 35 37  2  0  0  0  0
 32 36  2  0  0  0  0
 33 32  1  0  0  0  0
 34 33  2  0  0  0  0
 35 34  1  0  0  0  0
 40 36  1  0  0  0  0
 37 36  1  0  0  0  0
 38 37  1  0  0  0  0
 39 38  1  0  0  0  0
 13 14  1  0  0  0  0
 14 15  1  0  0  0  0
 15 16  1  0  0  0  0
 16 17  1  0  0  0  0
 13 17  1  0  0  0  0
 56 50  1  6  0  0  0
 48 50  1  1  0  0  0
 47 41  1  6  0  0  0
 46 42  1  6  0  0  0
 46 44  1  1  0  0  0
 44 43  1  0  0  0  0
 49 45  1  0  0  0  0
 46 45  1  0  0  0  0
 47 46  1  0  0  0  0
 48 47  1  0  0  0  0
 49 48  1  0  0  0  0
 59 52  1  1  0  0  0
 52 51  1  0  0  0  0
 57 53  1  1  0  0  0
 58 54  1  6  0  0  0
 60 55  1  0  0  0  0
 56 55  1  0  0  0  0
 57 56  1  0  0  0  0
 58 57  1  0  0  0  0
 59 58  1  0  0  0  0
 60 59  1  0  0  0  0
 18 19  1  0  0  0  0
 19 20  2  0  0  0  0
 20 21  1  0  0  0  0
 21 17  2  0  0  0  0
 18 16  2  0  0  0  0
 22 23  1  0  0  0  0
 23 24  1  0  0  0  0
 24 25  1  0  0  0  0
 25 26  1  0  0  0  0
 22 26  1  0  0  0  0
 27 28  1  0  0  0  0
 27 29  1  0  0  0  0
 28 24  1  0  0  0  0
 29 25  1  0  0  0  0
 40 39  1  0  0  0  0
 26 34  1  6  0  0  0
 28 20  1  1  0  0  0
 12 19  1  0  0  0  0
 25 30  1  6  0  0  0
 24 31  1  6  0  0  0
M  END
>  <cdx:fragmentId>
39162

$$$$
