11402120.cdx
  Mrv1902 05222410282D          

 17 18  0  0  0  0            999 V2000
   13.6712  -10.8658    0.0000 C   0  0  1  0  0  0  0  0  0  0  0  0
   12.8866  -10.6109    0.0000 C   0  0  0  0  0  0  0  0  0  0  0  0
   12.8866   -9.7859    0.0000 C   0  0  0  0  0  0  0  0  0  0  0  0
   13.6712   -9.5310    0.0000 C   0  0  1  0  0  0  0  0  0  0  0  0
   14.1561  -10.1984    0.0000 C   0  0  2  0  0  0  0  0  0  0  0  0
   14.5686  -10.9129    0.0000 C   0  0  0  0  0  0  0  0  0  0  0  0
   15.3936  -10.9129    0.0000 C   0  0  0  0  0  0  0  0  0  0  0  0
   15.8061  -10.1984    0.0000 C   0  0  1  0  0  0  0  0  0  0  0  0
   15.3936   -9.4839    0.0000 C   0  0  0  0  0  0  0  0  0  0  0  0
   14.5686   -9.4839    0.0000 C   0  0  0  0  0  0  0  0  0  0  0  0
   12.2191   -9.3010    0.0000 O   0  0  0  0  0  0  0  0  0  0  0  0
   15.8061   -8.7695    0.0000 O   0  0  0  0  0  0  0  0  0  0  0  0
   13.3741   -8.1332    0.0000 C   0  0  0  0  0  0  0  0  0  0  0  0
   13.9261   -8.7463    0.0000 C   0  0  0  0  0  0  0  0  0  0  0  0
   14.7331   -8.5748    0.0000 C   0  0  0  0  0  0  0  0  0  0  0  0
   16.6311  -10.1984    0.0000 C   0  0  0  0  0  0  0  0  0  0  0  0
   13.9261  -11.6505    0.0000 C   0  0  0  0  0  0  0  0  0  0  0  0
  1  2  1  0  0  0  0
  2  3  1  0  0  0  0
  3  4  1  0  0  0  0
  4  5  1  0  0  0  0
  5  6  1  6  0  0  0
  6  7  1  0  0  0  0
  7  8  1  0  0  0  0
  8  9  1  0  0  0  0
  9 10  1  0  0  0  0
  1  5  1  0  0  0  0
  5 10  1  1  0  0  0
  3 11  2  0  0  0  0
  9 12  2  0  0  0  0
 13 14  1  0  0  0  0
 14 15  1  0  0  0  0
  4 14  1  6  0  0  0
  8 16  1  1  0  0  0
  1 17  1  1  0  0  0
M  END
>  <cdx:groupId>
8324

>  <cdx:fragmentId>
8275

$$$$
