40215.cdx
  Mrv1902 05222410182D          

 18 18  0  0  0  0            999 V2000
    5.7043  -11.9201    0.0000 C   0  0  0  0  0  0  0  0  0  0  0  0
    5.7043  -12.7451    0.0000 C   0  0  0  0  0  0  0  0  0  0  0  0
    6.4188  -13.1576    0.0000 C   0  0  0  0  0  0  0  0  0  0  0  0
    7.1332  -12.7451    0.0000 C   0  0  0  0  0  0  0  0  0  0  0  0
    7.1332  -11.9201    0.0000 C   0  0  0  0  0  0  0  0  0  0  0  0
    6.4188  -11.5076    0.0000 C   0  0  0  0  0  0  0  0  0  0  0  0
    7.8477  -11.5076    0.0000 O   0  0  0  0  0  0  0  0  0  0  0  0
    7.8477  -10.6826    0.0000 C   0  0  0  0  0  0  0  0  0  0  0  0
    7.1332  -10.2701    0.0000 C   0  0  0  0  0  0  0  0  0  0  0  0
    6.4188  -10.6826    0.0000 C   0  0  0  0  0  0  0  0  0  0  0  0
    8.5622  -10.2701    0.0000 O   0  0  0  0  0  0  0  0  0  0  0  0
    8.5622   -9.4451    0.0000 O   0  0  0  0  0  0  0  0  0  0  0  0
    7.8477   -9.0326    0.0000 C   0  0  0  0  0  0  0  0  0  0  0  0
    7.1332   -9.4451    0.0000 N   0  0  0  0  0  0  0  0  0  0  0  0
    9.2767   -8.2076    0.0000 O   0  0  0  0  0  0  0  0  0  0  0  0
    8.5622   -7.7951    0.0000 C   0  0  0  0  0  0  0  0  0  0  0  0
    7.8477   -8.2076    0.0000 C   0  0  0  0  0  0  0  0  0  0  0  0
    8.5622   -6.9701    0.0000 O   0  0  0  0  0  0  0  0  0  0  0  0
  1  2  2  0  0  0  0
  2  3  1  0  0  0  0
  3  4  2  0  0  0  0
  4  5  1  0  0  0  0
  5  6  2  0  0  0  0
  6  1  1  0  0  0  0
  7  8  2  0  0  0  0
  8  9  1  0  0  0  0
  9 10  1  0  0  0  0
 10  6  1  0  0  0  0
  8 11  1  0  0  0  0
 12 13  2  0  0  0  0
 13 14  1  0  0  0  0
 14  9  1  0  0  0  0
 15 16  2  0  0  0  0
 16 17  1  0  0  0  0
 17 13  1  0  0  0  0
 16 18  1  0  0  0  0
M  END
>  <cdx:fragmentId>
5

$$$$
