40214.cdx
  Mrv1902 05222410182D          

 47 52  0  0  0  0            999 V2000
    5.4252   -8.0448    0.0000 C   0  0  1  0  0  0  0  0  0  0  0  0
    4.7217   -8.4757    0.0000 C   0  0  0  0  0  0  0  0  0  0  0  0
    4.7430   -9.3004    0.0000 C   0  0  2  0  0  0  0  0  0  0  0  0
    5.4679   -9.6943    0.0000 C   0  0  2  0  0  0  0  0  0  0  0  0
    6.1715   -9.2635    0.0000 C   0  0  1  0  0  0  0  0  0  0  0  0
    6.1501   -8.4387    0.0000 C   0  0  1  0  0  0  0  0  0  0  0  0
    5.4039   -7.2201    0.0000 O   0  0  0  0  0  0  0  0  0  0  0  0
    3.9754   -7.2571    0.0000 C   0  0  0  0  0  0  0  0  0  0  0  0
    3.2932   -8.5126    0.0000 O   0  0  0  0  0  0  0  0  0  0  0  0
    3.3145   -9.3374    0.0000 C   0  0  0  0  0  0  0  0  0  0  0  0
    4.0394   -9.7312    0.0000 O   0  0  0  0  0  0  0  0  0  0  0  0
    6.8964   -9.6573    0.0000 C   0  0  2  0  0  0  0  0  0  0  0  0
    7.5999   -9.2265    0.0000 C   0  0  2  0  0  0  0  0  0  0  0  0
    7.5786   -8.4018    0.0000 C   0  0  2  0  0  0  0  0  0  0  0  0
    6.8537   -8.0079    0.0000 C   0  0  0  0  0  0  0  0  0  0  0  0
    8.3385   -8.0806    0.0000 C   0  0  0  0  0  0  0  0  0  0  0  0
    8.5612   -7.2863    0.0000 C   0  0  1  0  0  0  0  0  0  0  0  0
    8.0790   -6.6169    0.0000 O   0  0  0  0  0  0  0  0  0  0  0  0
    7.2550   -6.5765    0.0000 C   0  0  2  0  0  0  0  0  0  0  0  0
    6.7097   -7.1956    0.0000 C   0  0  0  0  0  0  0  0  0  0  0  0
    9.0252   -8.5379    0.0000 C   0  0  0  0  0  0  0  0  0  0  0  0
    9.6723   -8.0262    0.0000 C   0  0  1  0  0  0  0  0  0  0  0  0
    9.3855   -7.2526    0.0000 C   0  0  0  0  0  0  0  0  0  0  0  0
    4.6577   -6.0015    0.0000 O   0  0  0  0  0  0  0  0  0  0  0  0
    4.6790   -6.8262    0.0000 C   0  0  0  0  0  0  0  0  0  0  0  0
    2.6110   -9.7682    0.0000 C   0  0  0  0  0  0  0  0  0  0  0  0
    6.6420  -10.5058    0.0000 O   0  0  0  0  0  0  0  0  0  0  0  0
    5.8025  -10.5050    0.0000 C   0  0  0  0  0  0  0  0  0  0  0  0
    8.3248   -9.6204    0.0000 O   0  0  0  0  0  0  0  0  0  0  0  0
    8.3462  -10.4451    0.0000 C   0  0  0  0  0  0  0  0  0  0  0  0
    9.0711  -10.8390    0.0000 C   0  0  0  0  0  0  0  0  0  0  0  0
    9.0924  -11.6637    0.0000 C   0  0  0  0  0  0  0  0  0  0  0  0
    9.7746  -10.4082    0.0000 C   0  0  0  0  0  0  0  0  0  0  0  0
    9.8173  -12.0576    0.0000 C   0  0  0  0  0  0  0  0  0  0  0  0
    7.6426  -10.8760    0.0000 O   0  0  0  0  0  0  0  0  0  0  0  0
    6.9339   -5.8166    0.0000 O   0  0  0  0  0  0  0  0  0  0  0  0
    9.0589   -9.3622    0.0000 C   0  0  0  0  0  0  0  0  0  0  0  0
   10.4667   -8.2489    0.0000 C   0  0  0  0  0  0  0  0  0  0  0  0
   10.7534   -9.0224    0.0000 C   0  0  0  0  0  0  0  0  0  0  0  0
   11.5777   -8.9888    0.0000 O   0  0  0  0  0  0  0  0  0  0  0  0
   11.8004   -8.1944    0.0000 C   0  0  0  0  0  0  0  0  0  0  0  0
   11.1138   -7.7371    0.0000 C   0  0  0  0  0  0  0  0  0  0  0  0
    6.1288   -7.6140    0.0000 C   0  0  0  0  0  0  0  0  0  0  0  0
    5.0740  -10.4192    0.0000 C   0  0  0  0  0  0  0  0  0  0  0  0
    7.5786   -7.5768    0.0000 C   0  0  0  0  0  0  0  0  0  0  0  0
   10.2557   -7.4428    0.0000 H   0  0  0  0  0  0  0  0  0  0  0  0
    6.1715  -10.0885    0.0000 H   0  0  0  0  0  0  0  0  0  0  0  0
  1  2  1  0  0  0  0
  2  3  1  0  0  0  0
  3  4  1  0  0  0  0
  4  5  1  0  0  0  0
  5  6  1  0  0  0  0
  6  1  1  0  0  0  0
 25  8  1  0  0  0  0
  1  7  1  6  0  0  0
  7 25  1  0  0  0  0
 25 24  2  0  0  0  0
  9 10  2  0  0  0  0
 10 11  1  0  0  0  0
  3 11  1  6  0  0  0
  5 12  1  0  0  0  0
 12 13  1  0  0  0  0
 13 14  1  0  0  0  0
 14 15  1  0  0  0  0
 15  6  1  0  0  0  0
 14 16  1  0  0  0  0
 16 17  1  0  0  0  0
 17 18  1  1  0  0  0
 18 19  1  0  0  0  0
 19 20  1  0  0  0  0
 20 15  1  0  0  0  0
 16 21  2  0  0  0  0
 21 22  1  0  0  0  0
 22 23  1  0  0  0  0
 23 17  1  0  0  0  0
 10 26  1  0  0  0  0
 12 27  1  6  0  0  0
  4 28  1  6  0  0  0
 28 27  1  0  0  0  0
 13 29  1  6  0  0  0
 29 30  1  0  0  0  0
 30 31  1  0  0  0  0
 31 32  2  0  0  0  0
 31 33  1  0  0  0  0
 32 34  1  0  0  0  0
 30 35  2  0  0  0  0
 19 36  1  6  0  0  0
 21 37  1  0  0  0  0
 22 38  1  0  0  0  0
 38 39  2  0  0  0  0
 39 40  1  0  0  0  0
 40 41  1  0  0  0  0
 41 42  2  0  0  0  0
 42 38  1  0  0  0  0
  6 43  1  1  0  0  0
  4 44  1  1  0  0  0
 14 45  1  1  0  0  0
 22 46  1  6  0  0  0
  5 47  1  6  0  0  0
M  END
>  <cdx:fragmentId>
5

$$$$
