40217.cdx
  Mrv1902 05222410192D          

 25 28  0  0  0  0            999 V2000
    4.5356  -11.9614    0.0000 C   0  0  0  0  0  0  0  0  0  0  0  0
    4.5356  -12.7864    0.0000 C   0  0  0  0  0  0  0  0  0  0  0  0
    5.2500  -13.1989    0.0000 C   0  0  0  0  0  0  0  0  0  0  0  0
    5.9645  -12.7864    0.0000 C   0  0  0  0  0  0  0  0  0  0  0  0
    5.9645  -11.9614    0.0000 C   0  0  0  0  0  0  0  0  0  0  0  0
    5.2500  -11.5489    0.0000 C   0  0  0  0  0  0  0  0  0  0  0  0
    6.6790  -13.1989    0.0000 C   0  0  0  0  0  0  0  0  0  0  0  0
    7.3934  -12.7864    0.0000 C   0  0  0  0  0  0  0  0  0  0  0  0
    7.3934  -11.9614    0.0000 C   0  0  0  0  0  0  0  0  0  0  0  0
    6.6790  -11.5489    0.0000 C   0  0  0  0  0  0  0  0  0  0  0  0
    8.1079  -13.1989    0.0000 N   0  0  0  0  0  0  0  0  0  0  0  0
    8.8224  -12.7864    0.0000 C   0  0  0  0  0  0  0  0  0  0  0  0
    8.8224  -11.9614    0.0000 C   0  0  0  0  0  0  0  0  0  0  0  0
    8.1079  -11.5489    0.0000 C   0  0  0  0  0  0  0  0  0  0  0  0
    6.6790  -10.7239    0.0000 C   0  0  0  0  0  0  0  0  0  0  0  0
    5.9645  -10.3114    0.0000 O   0  0  0  0  0  0  0  0  0  0  0  0
    5.2500  -10.7239    0.0000 O   0  0  0  0  0  0  0  0  0  0  0  0
    8.1079  -10.7239    0.0000 C   0  0  0  0  0  0  0  0  0  0  0  0
    7.3934  -10.3114    0.0000 C   0  0  0  0  0  0  0  0  0  0  0  0
    4.5356  -10.3114    0.0000 C   0  0  0  0  0  0  0  0  0  0  0  0
    3.8211  -11.5489    0.0000 O   0  0  0  0  0  0  0  0  0  0  0  0
    7.3934   -9.4864    0.0000 O   0  0  0  0  0  0  0  0  0  0  0  0
    5.9645   -9.4864    0.0000 C   0  0  0  0  0  0  0  0  0  0  0  0
    8.1079   -9.0739    0.0000 C   0  0  0  0  0  0  0  0  0  0  0  0
    8.1079  -14.0239    0.0000 C   0  0  0  0  0  0  0  0  0  0  0  0
  1  2  1  0  0  0  0
  2  3  2  0  0  0  0
  3  4  1  0  0  0  0
  4  5  2  0  0  0  0
  5  6  1  0  0  0  0
  6  1  2  0  0  0  0
  4  7  1  0  0  0  0
  7  8  1  0  0  0  0
  8  9  1  0  0  0  0
  9 10  2  0  0  0  0
 10  5  1  0  0  0  0
  8 11  1  0  0  0  0
 11 12  1  0  0  0  0
 12 13  1  0  0  0  0
 13 14  1  0  0  0  0
 14  9  1  0  0  0  0
 10 15  1  0  0  0  0
 15 16  1  0  0  0  0
 17  6  1  0  0  0  0
 14 18  2  0  0  0  0
 18 19  1  0  0  0  0
 19 15  2  0  0  0  0
 17 20  1  0  0  0  0
 21  1  1  0  0  0  0
 19 22  1  0  0  0  0
 23 16  1  0  0  0  0
 22 24  1  0  0  0  0
 11 25  1  0  0  0  0
M  END
>  <cdx:fragmentId>
5

$$$$
