40216.cdx
  Mrv1902 05222410182D          

 22 24  0  0  0  0            999 V2000
    5.5256   -6.5026    0.0000 C   0  0  0  0  0  0  0  0  0  0  0  0
    5.5256   -7.3276    0.0000 C   0  0  0  0  0  0  0  0  0  0  0  0
    6.2400   -7.7401    0.0000 C   0  0  0  0  0  0  0  0  0  0  0  0
    6.9545   -7.3276    0.0000 C   0  0  0  0  0  0  0  0  0  0  0  0
    6.9545   -6.5026    0.0000 C   0  0  0  0  0  0  0  0  0  0  0  0
    6.2400   -6.0901    0.0000 C   0  0  0  0  0  0  0  0  0  0  0  0
    7.6690   -7.7401    0.0000 C   0  0  0  0  0  0  0  0  0  0  0  0
    8.3834   -7.3276    0.0000 N   0  0  0  0  0  0  0  0  0  0  0  0
    8.3834   -6.5026    0.0000 C   0  0  0  0  0  0  0  0  0  0  0  0
    7.6690   -6.0901    0.0000 C   0  0  0  0  0  0  0  0  0  0  0  0
    4.8111   -6.0901    0.0000 O   0  0  0  0  0  0  0  0  0  0  0  0
    4.8111   -7.7401    0.0000 O   0  0  0  0  0  0  0  0  0  0  0  0
    7.6690   -8.5651    0.0000 C   0  0  0  0  0  0  0  0  0  0  0  0
    8.3834   -8.9776    0.0000 C   0  0  0  0  0  0  0  0  0  0  0  0
    9.0979   -8.5651    0.0000 C   0  0  0  0  0  0  0  0  0  0  0  0
    8.3834   -9.8026    0.0000 C   0  0  0  0  0  0  0  0  0  0  0  0
    9.0979  -10.2151    0.0000 C   0  0  0  0  0  0  0  0  0  0  0  0
    9.8124   -9.8026    0.0000 C   0  0  0  0  0  0  0  0  0  0  0  0
    9.8124   -8.9776    0.0000 C   0  0  0  0  0  0  0  0  0  0  0  0
    4.0966   -6.5026    0.0000 C   0  0  0  0  0  0  0  0  0  0  0  0
    9.0979   -7.7401    0.0000 C   0  0  0  0  0  0  0  0  0  0  0  0
   10.5269  -10.2151    0.0000 O   0  0  0  0  0  0  0  0  0  0  0  0
  1  2  2  0  0  0  0
  2  3  1  0  0  0  0
  3  4  2  0  0  0  0
  4  5  1  0  0  0  0
  5  6  2  0  0  0  0
  6  1  1  0  0  0  0
  4  7  1  0  0  0  0
  7  8  1  0  0  0  0
  8  9  1  0  0  0  0
  9 10  1  0  0  0  0
 10  5  1  0  0  0  0
  1 11  1  0  0  0  0
 12  2  1  0  0  0  0
  7 13  1  0  0  0  0
 13 14  1  0  0  0  0
 14 15  2  0  0  0  0
 14 16  1  0  0  0  0
 16 17  2  0  0  0  0
 17 18  1  0  0  0  0
 18 19  2  0  0  0  0
 19 15  1  0  0  0  0
 11 20  1  0  0  0  0
  8 21  1  0  0  0  0
 18 22  1  0  0  0  0
M  END
>  <cdx:fragmentId>
5

$$$$
