40218.cdx
  Mrv1902 05222410282D          

 22 24  0  0  0  0            999 V2000
    4.3018   -9.1014    0.0000 C   0  0  0  0  0  0  0  0  0  0  0  0
    4.3018   -9.9264    0.0000 C   0  0  0  0  0  0  0  0  0  0  0  0
    5.0163  -10.3389    0.0000 C   0  0  0  0  0  0  0  0  0  0  0  0
    5.7307   -9.9264    0.0000 C   0  0  0  0  0  0  0  0  0  0  0  0
    5.7307   -9.1014    0.0000 C   0  0  0  0  0  0  0  0  0  0  0  0
    5.0163   -8.6889    0.0000 C   0  0  0  0  0  0  0  0  0  0  0  0
    6.4452  -10.3389    0.0000 C   0  0  0  0  0  0  0  0  0  0  0  0
    7.1597   -9.9264    0.0000 N   0  0  0  0  0  0  0  0  0  0  0  0
    7.1597   -9.1014    0.0000 C   0  0  0  0  0  0  0  0  0  0  0  0
    6.4452   -8.6889    0.0000 C   0  0  0  0  0  0  0  0  0  0  0  0
    6.4452  -11.1639    0.0000 C   0  0  0  0  0  0  0  0  0  0  0  0
    7.1597  -11.5764    0.0000 C   0  0  0  0  0  0  0  0  0  0  0  0
    7.8742  -11.1639    0.0000 C   0  0  0  0  0  0  0  0  0  0  0  0
    7.8742  -10.3389    0.0000 C   0  0  0  0  0  0  0  0  0  0  0  0
    7.1597  -12.4014    0.0000 C   0  0  0  0  0  0  0  0  0  0  0  0
    7.8742  -12.8139    0.0000 C   0  0  0  0  0  0  0  0  0  0  0  0
    8.5886  -12.4014    0.0000 C   0  0  0  0  0  0  0  0  0  0  0  0
    8.5886  -11.5764    0.0000 C   0  0  0  0  0  0  0  0  0  0  0  0
    3.5873   -8.6889    0.0000 O   0  0  0  0  0  0  0  0  0  0  0  0
    3.5873  -10.3389    0.0000 O   0  0  0  0  0  0  0  0  0  0  0  0
    3.5873  -11.1639    0.0000 C   0  0  0  0  0  0  0  0  0  0  0  0
    9.3031  -12.8139    0.0000 O   0  0  0  0  0  0  0  0  0  0  0  0
  1  2  2  0  0  0  0
  2  3  1  0  0  0  0
  3  4  2  0  0  0  0
  4  5  1  0  0  0  0
  5  6  2  0  0  0  0
  6  1  1  0  0  0  0
  4  7  1  0  0  0  0
  7  8  1  0  0  0  0
  8  9  1  0  0  0  0
  9 10  1  0  0  0  0
 10  5  1  0  0  0  0
  7 11  1  0  0  0  0
 11 12  1  0  0  0  0
 12 13  2  0  0  0  0
 14  8  1  0  0  0  0
 12 15  1  0  0  0  0
 15 16  2  0  0  0  0
 16 17  1  0  0  0  0
 17 18  2  0  0  0  0
 18 13  1  0  0  0  0
  1 19  1  0  0  0  0
 20  2  1  0  0  0  0
 20 21  1  0  0  0  0
 17 22  1  0  0  0  0
M  END
>  <cdx:fragmentId>
5

$$$$
