40219.cdx
  Mrv1902 05222410282D          

 27 30  0  0  0  0            999 V2000
    5.1782   -9.3112    0.0000 C   0  0  0  0  0  0  0  0  0  0  0  0
    5.8846   -8.8851    0.0000 C   0  0  0  0  0  0  0  0  0  0  0  0
    5.8688   -8.0602    0.0000 C   0  0  0  0  0  0  0  0  0  0  0  0
    5.1465   -7.6615    0.0000 C   0  0  0  0  0  0  0  0  0  0  0  0
    4.4401   -8.0877    0.0000 C   0  0  0  0  0  0  0  0  0  0  0  0
    4.4559   -8.9125    0.0000 C   0  0  0  0  0  0  0  0  0  0  0  0
    6.6069   -9.2838    0.0000 C   0  0  0  0  0  0  0  0  0  0  0  0
    7.3133   -8.8577    0.0000 N   0  3  0  0  0  0  0  0  0  0  0  0
    7.2975   -8.0328    0.0000 C   0  0  0  0  0  0  0  0  0  0  0  0
    6.5752   -7.6341    0.0000 C   0  0  0  0  0  0  0  0  0  0  0  0
    8.0355   -9.2564    0.0000 C   0  0  0  0  0  0  0  0  0  0  0  0
    8.7420   -8.8302    0.0000 C   0  0  0  0  0  0  0  0  0  0  0  0
    8.7261   -8.0054    0.0000 C   0  0  0  0  0  0  0  0  0  0  0  0
    8.0039   -7.6067    0.0000 C   0  0  0  0  0  0  0  0  0  0  0  0
    9.4326   -7.5792    0.0000 C   0  0  0  0  0  0  0  0  0  0  0  0
    9.4167   -6.7544    0.0000 C   0  0  0  0  0  0  0  0  0  0  0  0
    8.6945   -6.3557    0.0000 C   0  0  0  0  0  0  0  0  0  0  0  0
    7.9880   -6.7818    0.0000 C   0  0  0  0  0  0  0  0  0  0  0  0
   10.1231   -6.3283    0.0000 O   0  0  0  0  0  0  0  0  0  0  0  0
   10.8454   -6.7270    0.0000 C   0  0  0  0  0  0  0  0  0  0  0  0
    8.6786   -5.5308    0.0000 O   0  0  0  0  0  0  0  0  0  0  0  0
    7.9564   -5.1321    0.0000 C   0  0  0  0  0  0  0  0  0  0  0  0
    7.3291   -9.6825    0.0000 C   0  0  0  0  0  0  0  0  0  0  0  0
    5.1940  -10.1361    0.0000 O   0  0  0  0  0  0  0  0  0  0  0  0
    4.4876  -10.5622    0.0000 C   0  0  0  0  0  0  0  0  0  0  0  0
    3.7495   -9.3386    0.0000 O   0  0  0  0  0  0  0  0  0  0  0  0
    3.0273   -8.9399    0.0000 C   0  0  0  0  0  0  0  0  0  0  0  0
  1  2  1  0  0  0  0
  2  3  2  0  0  0  0
  3  4  1  0  0  0  0
  4  5  2  0  0  0  0
  5  6  1  0  0  0  0
  6  1  2  0  0  0  0
  2  7  1  0  0  0  0
  7  8  1  0  0  0  0
  8  9  1  0  0  0  0
  9 10  1  0  0  0  0
 10  3  1  0  0  0  0
  8 11  1  0  0  0  0
 11 12  1  0  0  0  0
 12 13  1  0  0  0  0
 13 14  1  0  0  0  0
 14  9  1  0  0  0  0
 13 15  2  0  0  0  0
 15 16  1  0  0  0  0
 16 17  2  0  0  0  0
 17 18  1  0  0  0  0
 18 14  2  0  0  0  0
 16 19  1  0  0  0  0
 19 20  1  0  0  0  0
 17 21  1  0  0  0  0
 21 22  1  0  0  0  0
  8 23  1  0  0  0  0
  1 24  1  0  0  0  0
 24 25  1  0  0  0  0
  6 26  1  0  0  0  0
 26 27  1  0  0  0  0
M  CHG  1   8   1
M  END
>  <cdx:fragmentId>
5

$$$$
