40210.cdx
  Mrv1902 05222410202D          

 22 22  0  0  0  0            999 V2000
    6.1581  -12.1676    0.0000 C   0  0  2  0  0  0  0  0  0  0  0  0
    6.1581  -12.9926    0.0000 C   0  0  2  0  0  0  0  0  0  0  0  0
    6.8725  -13.4051    0.0000 C   0  0  1  0  0  0  0  0  0  0  0  0
    7.5870  -12.9926    0.0000 C   0  0  2  0  0  0  0  0  0  0  0  0
    7.5870  -12.1676    0.0000 C   0  0  1  0  0  0  0  0  0  0  0  0
    6.8725  -11.7551    0.0000 O   0  0  0  0  0  0  0  0  0  0  0  0
    5.4436  -11.7551    0.0000 C   0  0  0  0  0  0  0  0  0  0  0  0
    4.7291  -12.1676    0.0000 O   0  0  0  0  0  0  0  0  0  0  0  0
    8.3015  -11.7551    0.0000 O   0  0  0  0  0  0  0  0  0  0  0  0
    8.3015  -10.9301    0.0000 C   0  0  0  0  0  0  0  0  0  0  0  0
    9.0159  -10.5176    0.0000 C   0  0  0  0  0  0  0  0  0  0  0  0
    9.0159   -9.6926    0.0000 C   0  0  0  0  0  0  0  0  0  0  0  0
    8.3015   -9.2801    0.0000 C   0  0  0  0  0  0  0  0  0  0  0  0
    9.7304   -9.2801    0.0000 C   0  0  0  0  0  0  0  0  0  0  0  0
    8.3015   -8.4551    0.0000 C   0  0  0  0  0  0  0  0  0  0  0  0
    7.5870   -8.0426    0.0000 C   0  0  0  0  0  0  0  0  0  0  0  0
    7.5870   -7.2176    0.0000 C   0  0  0  0  0  0  0  0  0  0  0  0
    6.8725   -6.8051    0.0000 C   0  0  0  0  0  0  0  0  0  0  0  0
    8.3015   -6.8051    0.0000 C   0  0  0  0  0  0  0  0  0  0  0  0
    6.8725  -14.2301    0.0000 O   0  0  0  0  0  0  0  0  0  0  0  0
    5.4436  -13.4051    0.0000 O   0  0  0  0  0  0  0  0  0  0  0  0
    8.3015  -13.4051    0.0000 O   0  0  0  0  0  0  0  0  0  0  0  0
  1  2  1  0  0  0  0
  2  3  1  0  0  0  0
  3  4  1  0  0  0  0
  4  5  1  0  0  0  0
  5  6  1  0  0  0  0
  6  1  1  0  0  0  0
  1  7  1  1  0  0  0
  7  8  1  0  0  0  0
  5  9  1  1  0  0  0
  9 10  1  0  0  0  0
 10 11  1  0  0  0  0
 11 12  2  0  0  0  0
 12 13  1  0  0  0  0
 12 14  1  0  0  0  0
 13 15  1  0  0  0  0
 15 16  1  0  0  0  0
 16 17  2  0  0  0  0
 17 18  1  0  0  0  0
 17 19  1  0  0  0  0
  3 20  1  1  0  0  0
  2 21  1  6  0  0  0
  4 22  1  6  0  0  0
M  END
>  <cdx:fragmentId>
5

$$$$
