40224.cdx
  Mrv1902 05222410282D          

 15 15  0  0  0  0            999 V2000
    5.7731  -12.2776    0.0000 C   0  0  0  0  0  0  0  0  0  0  0  0
    5.7731  -13.1026    0.0000 C   0  0  0  0  0  0  0  0  0  0  0  0
    6.4875  -13.5151    0.0000 C   0  0  0  0  0  0  0  0  0  0  0  0
    7.2020  -13.1026    0.0000 C   0  0  0  0  0  0  0  0  0  0  0  0
    7.2020  -12.2776    0.0000 C   0  0  0  0  0  0  0  0  0  0  0  0
    6.4875  -11.8651    0.0000 C   0  0  0  0  0  0  0  0  0  0  0  0
    6.4935  -11.0177    0.0000 C   0  0  0  0  0  0  0  0  0  0  0  0
    7.2065  -10.6027    0.0000 C   0  0  0  0  0  0  0  0  0  0  0  0
    7.2036   -9.7777    0.0000 C   0  0  0  0  0  0  0  0  0  0  0  0
    7.9166   -9.3626    0.0000 C   0  0  0  0  0  0  0  0  0  0  0  0
    7.9137   -8.5377    0.0000 C   0  0  0  0  0  0  0  0  0  0  0  0
    8.6267   -8.1226    0.0000 C   0  0  0  0  0  0  0  0  0  0  0  0
    8.6238   -7.2976    0.0000 C   0  0  0  0  0  0  0  0  0  0  0  0
    9.3368   -6.8826    0.0000 C   0  0  0  0  0  0  0  0  0  0  0  0
    9.3338   -6.0576    0.0000 C   0  0  0  0  0  0  0  0  0  0  0  0
  1  2  2  0  0  0  0
  2  3  1  0  0  0  0
  3  4  2  0  0  0  0
  4  5  1  0  0  0  0
  5  6  2  0  0  0  0
  6  1  1  0  0  0  0
  7  8  1  0  0  0  0
  8  9  1  0  0  0  0
  9 10  1  0  0  0  0
 10 11  1  0  0  0  0
 11 12  1  0  0  0  0
 12 13  1  0  0  0  0
 13 14  1  0  0  0  0
 14 15  1  0  0  0  0
  7  6  1  0  0  0  0
M  END
>  <cdx:fragmentId>
21

$$$$
