40225.cdx
  Mrv1902 05222410282D          

 25 27  0  0  0  0            999 V2000
    4.2325   -8.9089    0.0000 O   0  0  0  0  0  0  0  0  0  0  0  0
    4.9470   -8.4964    0.0000 C   0  0  0  0  0  0  0  0  0  0  0  0
    4.9470   -7.6714    0.0000 C   0  0  0  0  0  0  0  0  0  0  0  0
    4.2325   -7.2589    0.0000 O   0  0  0  0  0  0  0  0  0  0  0  0
    5.6615   -8.9089    0.0000 C   0  0  0  0  0  0  0  0  0  0  0  0
    6.3759   -8.4964    0.0000 C   0  0  0  0  0  0  0  0  0  0  0  0
    6.3759   -7.6714    0.0000 C   0  0  0  0  0  0  0  0  0  0  0  0
    5.6615   -7.2589    0.0000 C   0  0  0  0  0  0  0  0  0  0  0  0
    7.0904   -8.9089    0.0000 C   0  0  0  0  0  0  0  0  0  0  0  0
    7.8049   -8.4964    0.0000 N   0  0  0  0  0  0  0  0  0  0  0  0
    7.8049   -7.6714    0.0000 C   0  0  0  0  0  0  0  0  0  0  0  0
    7.0904   -7.2589    0.0000 C   0  0  0  0  0  0  0  0  0  0  0  0
    7.0904   -9.7339    0.0000 C   0  0  0  0  0  0  0  0  0  0  0  0
    7.8049  -10.1464    0.0000 C   0  0  0  0  0  0  0  0  0  0  0  0
    8.5194   -9.7339    0.0000 C   0  0  0  0  0  0  0  0  0  0  0  0
    7.8049  -10.9714    0.0000 C   0  0  0  0  0  0  0  0  0  0  0  0
    8.5194  -11.3839    0.0000 C   0  0  0  0  0  0  0  0  0  0  0  0
    9.2338  -10.9714    0.0000 C   0  0  0  0  0  0  0  0  0  0  0  0
    9.2338  -10.1464    0.0000 C   0  0  0  0  0  0  0  0  0  0  0  0
    4.2325   -6.4339    0.0000 C   0  0  0  0  0  0  0  0  0  0  0  0
    4.2325   -9.7339    0.0000 C   0  0  0  0  0  0  0  0  0  0  0  0
    9.9483  -11.3839    0.0000 O   0  0  0  0  0  0  0  0  0  0  0  0
   10.6628  -10.9714    0.0000 C   0  0  0  0  0  0  0  0  0  0  0  0
   11.3772  -11.3839    0.0000 C   0  0  0  0  0  0  0  0  0  0  0  0
   10.6628  -10.1464    0.0000 O   0  0  0  0  0  0  0  0  0  0  0  0
  1  2  1  0  0  0  0
  2  3  2  0  0  0  0
  3  4  1  0  0  0  0
  2  5  1  0  0  0  0
  5  6  2  0  0  0  0
  6  7  1  0  0  0  0
  7  8  2  0  0  0  0
  8  3  1  0  0  0  0
  6  9  1  0  0  0  0
  9 10  1  0  0  0  0
 10 11  1  0  0  0  0
 11 12  1  0  0  0  0
 12  7  1  0  0  0  0
  9 13  1  0  0  0  0
 13 14  1  0  0  0  0
 14 15  2  0  0  0  0
 14 16  1  0  0  0  0
 16 17  2  0  0  0  0
 17 18  1  0  0  0  0
 18 19  2  0  0  0  0
 19 15  1  0  0  0  0
  4 20  1  0  0  0  0
  1 21  1  0  0  0  0
 18 22  1  0  0  0  0
 22 23  1  0  0  0  0
 23 24  1  0  0  0  0
 23 25  2  0  0  0  0
M  END
>  <cdx:fragmentId>
5

$$$$
