40223.cdx
  Mrv1902 05222410262D          

 11 10  0  0  0  0            999 V2000
    9.8928   -7.0389    0.0000 C   0  0  0  0  0  0  0  0  0  0  0  0
    9.1783   -6.6264    0.0000 C   0  0  0  0  0  0  0  0  0  0  0  0
    8.4638   -7.0389    0.0000 C   0  0  0  0  0  0  0  0  0  0  0  0
    7.7494   -6.6264    0.0000 C   0  0  0  0  0  0  0  0  0  0  0  0
    7.0349   -7.0389    0.0000 C   0  0  0  0  0  0  0  0  0  0  0  0
    6.3204   -6.6264    0.0000 C   0  0  0  0  0  0  0  0  0  0  0  0
    5.6059   -7.0389    0.0000 C   0  0  0  0  0  0  0  0  0  0  0  0
    4.8915   -6.6264    0.0000 C   0  0  0  0  0  0  0  0  0  0  0  0
    4.1770   -7.0389    0.0000 C   0  0  0  0  0  0  0  0  0  0  0  0
    3.4625   -6.6264    0.0000 O   0  0  0  0  0  0  0  0  0  0  0  0
    4.1770   -7.8639    0.0000 O   0  0  0  0  0  0  0  0  0  0  0  0
  2  1  1  0  0  0  0
  3  2  1  0  0  0  0
  4  3  1  0  0  0  0
  5  4  1  0  0  0  0
  6  5  1  0  0  0  0
  7  6  1  0  0  0  0
  8  7  1  0  0  0  0
  9  8  1  0  0  0  0
 10  9  1  0  0  0  0
  9 11  2  0  0  0  0
M  END
>  <cdx:fragmentId>
3

$$$$
