40221.cdx
  Mrv1902 05222410262D          

 22 25  0  0  0  0            999 V2000
    4.7556   -7.5476    0.0000 C   0  0  0  0  0  0  0  0  0  0  0  0
    4.7556   -8.3726    0.0000 C   0  0  0  0  0  0  0  0  0  0  0  0
    5.4700   -8.7851    0.0000 C   0  0  0  0  0  0  0  0  0  0  0  0
    6.1845   -8.3726    0.0000 C   0  0  0  0  0  0  0  0  0  0  0  0
    6.1845   -7.5476    0.0000 C   0  0  0  0  0  0  0  0  0  0  0  0
    5.4700   -7.1351    0.0000 C   0  0  0  0  0  0  0  0  0  0  0  0
    6.8990   -8.7851    0.0000 C   0  0  0  0  0  0  0  0  0  0  0  0
    7.6134   -8.3726    0.0000 C   0  0  2  0  0  0  0  0  0  0  0  0
    7.6134   -7.5476    0.0000 C   0  0  0  0  0  0  0  0  0  0  0  0
    6.8990   -7.1351    0.0000 C   0  0  0  0  0  0  0  0  0  0  0  0
    8.3279   -8.7851    0.0000 N   0  0  0  0  0  0  0  0  0  0  0  0
    9.0424   -8.3726    0.0000 C   0  0  0  0  0  0  0  0  0  0  0  0
    9.0424   -7.5476    0.0000 C   0  0  0  0  0  0  0  0  0  0  0  0
    8.3279   -7.1351    0.0000 C   0  0  0  0  0  0  0  0  0  0  0  0
    8.3279   -6.3101    0.0000 C   0  0  0  0  0  0  0  0  0  0  0  0
    7.6134   -5.8976    0.0000 C   0  0  0  0  0  0  0  0  0  0  0  0
    6.8990   -6.3101    0.0000 C   0  0  0  0  0  0  0  0  0  0  0  0
    6.1845   -5.8976    0.0000 O   0  0  0  0  0  0  0  0  0  0  0  0
    6.1845   -5.0726    0.0000 C   0  0  0  0  0  0  0  0  0  0  0  0
    7.6134   -5.0726    0.0000 O   0  0  0  0  0  0  0  0  0  0  0  0
    8.3279   -4.6601    0.0000 C   0  0  0  0  0  0  0  0  0  0  0  0
    7.6134   -9.1976    0.0000 H   0  0  0  0  0  0  0  0  0  0  0  0
  1  2  2  0  0  0  0
  2  3  1  0  0  0  0
  3  4  2  0  0  0  0
  4  5  1  0  0  0  0
  5  6  2  0  0  0  0
  6  1  1  0  0  0  0
  4  7  1  0  0  0  0
  7  8  1  0  0  0  0
  8  9  1  0  0  0  0
  9 10  2  0  0  0  0
 10  5  1  0  0  0  0
  8 11  1  0  0  0  0
 11 12  1  0  0  0  0
 12 13  1  0  0  0  0
 13 14  1  0  0  0  0
 14  9  1  0  0  0  0
 14 15  2  0  0  0  0
 15 16  1  0  0  0  0
 16 17  2  0  0  0  0
 17 10  1  0  0  0  0
 17 18  1  0  0  0  0
 18 19  1  0  0  0  0
 16 20  1  0  0  0  0
 20 21  1  0  0  0  0
  8 22  1  1  0  0  0
M  END
>  <cdx:fragmentId>
5

$$$$
