40226.cdx
  Mrv1902 05222410272D          

 21 23  0  0  0  0            999 V2000
    4.2325   -8.9089    0.0000 O   0  0  0  0  0  0  0  0  0  0  0  0
    4.9470   -8.4964    0.0000 C   0  0  0  0  0  0  0  0  0  0  0  0
    4.9470   -7.6714    0.0000 C   0  0  0  0  0  0  0  0  0  0  0  0
    5.6615   -8.9089    0.0000 C   0  0  0  0  0  0  0  0  0  0  0  0
    6.3759   -8.4964    0.0000 C   0  0  0  0  0  0  0  0  0  0  0  0
    6.3759   -7.6714    0.0000 C   0  0  0  0  0  0  0  0  0  0  0  0
    5.6615   -7.2589    0.0000 C   0  0  0  0  0  0  0  0  0  0  0  0
    7.0904   -8.9089    0.0000 C   0  0  0  0  0  0  0  0  0  0  0  0
    7.8049   -8.4964    0.0000 N   0  0  0  0  0  0  0  0  0  0  0  0
    7.8049   -7.6714    0.0000 C   0  0  0  0  0  0  0  0  0  0  0  0
    7.0904   -7.2589    0.0000 C   0  0  0  0  0  0  0  0  0  0  0  0
    7.0904   -9.7339    0.0000 C   0  0  0  0  0  0  0  0  0  0  0  0
    7.8049  -10.1464    0.0000 C   0  0  0  0  0  0  0  0  0  0  0  0
    8.5194   -9.7339    0.0000 C   0  0  0  0  0  0  0  0  0  0  0  0
    7.8049  -10.9714    0.0000 C   0  0  0  0  0  0  0  0  0  0  0  0
    8.5194  -11.3839    0.0000 C   0  0  0  0  0  0  0  0  0  0  0  0
    9.2338  -10.9714    0.0000 C   0  0  0  0  0  0  0  0  0  0  0  0
    9.2338  -10.1464    0.0000 C   0  0  0  0  0  0  0  0  0  0  0  0
    9.9483  -11.3839    0.0000 O   0  0  0  0  0  0  0  0  0  0  0  0
    3.5181   -8.4964    0.0000 C   0  0  0  0  0  0  0  0  0  0  0  0
    5.6615   -9.7339    0.0000 O   0  0  0  0  0  0  0  0  0  0  0  0
  1  2  1  0  0  0  0
  2  3  2  0  0  0  0
  2  4  1  0  0  0  0
  4  5  2  0  0  0  0
  5  6  1  0  0  0  0
  6  7  2  0  0  0  0
  7  3  1  0  0  0  0
  5  8  1  0  0  0  0
  8  9  1  0  0  0  0
  9 10  1  0  0  0  0
 10 11  1  0  0  0  0
 11  6  1  0  0  0  0
  8 12  1  0  0  0  0
 12 13  1  0  0  0  0
 13 14  2  0  0  0  0
 13 15  1  0  0  0  0
 15 16  2  0  0  0  0
 16 17  1  0  0  0  0
 17 18  2  0  0  0  0
 18 14  1  0  0  0  0
 17 19  1  0  0  0  0
  1 20  1  0  0  0  0
  4 21  1  0  0  0  0
M  END
>  <cdx:fragmentId>
5

$$$$
