40233.cdx
  Mrv1902 05222410272D          

 22 25  0  0  0  0            999 V2000
    5.2643   -9.6376    0.0000 C   0  0  0  0  0  0  0  0  0  0  0  0
    5.2643  -10.4626    0.0000 C   0  0  0  0  0  0  0  0  0  0  0  0
    5.9788  -10.8751    0.0000 C   0  0  0  0  0  0  0  0  0  0  0  0
    6.6932  -10.4626    0.0000 N   0  3  0  0  0  0  0  0  0  0  0  0
    6.6932   -9.6376    0.0000 C   0  0  0  0  0  0  0  0  0  0  0  0
    5.9788   -9.2251    0.0000 C   0  0  1  0  0  0  0  0  0  0  0  0
    7.4077  -10.8751    0.0000 C   0  0  0  0  0  0  0  0  0  0  0  0
    8.1222  -10.4626    0.0000 C   0  0  0  0  0  0  0  0  0  0  0  0
    8.1222   -9.6376    0.0000 C   0  0  0  0  0  0  0  0  0  0  0  0
    7.4077   -9.2251    0.0000 C   0  0  2  0  0  0  0  0  0  0  0  0
    7.4077   -8.4001    0.0000 C   0  0  1  0  0  0  0  0  0  0  0  0
    6.6932   -7.9876    0.0000 C   0  0  0  0  0  0  0  0  0  0  0  0
    5.9788   -8.4001    0.0000 C   0  0  0  0  0  0  0  0  0  0  0  0
    5.2643   -7.9876    0.0000 O   0  0  0  0  0  0  0  0  0  0  0  0
    6.9068  -11.2595    0.0000 O   0  5  0  0  0  0  0  0  0  0  0  0
    6.3574   -9.2605    0.0000 C   0  0  0  0  0  0  0  0  0  0  0  0
    6.3922   -8.5599    0.0000 C   0  0  1  0  0  0  0  0  0  0  0  0
    6.9834   -8.3256    0.0000 C   0  0  0  0  0  0  0  0  0  0  0  0
    6.1786   -7.7630    0.0000 C   0  0  0  0  0  0  0  0  0  0  0  0
    7.8202   -7.6857    0.0000 H   0  0  0  0  0  0  0  0  0  0  0  0
    8.1222   -8.8126    0.0000 O   0  0  0  0  0  0  0  0  0  0  0  0
    5.2643   -8.8126    0.0000 H   0  0  0  0  0  0  0  0  0  0  0  0
  1  2  1  0  0  0  0
  2  3  1  0  0  0  0
  3  4  1  0  0  0  0
  4  5  1  0  0  0  0
  5  6  1  0  0  0  0
  6  1  1  0  0  0  0
  4  7  1  0  0  0  0
  7  8  1  0  0  0  0
  8  9  1  0  0  0  0
  9 10  1  0  0  0  0
 10  5  1  0  0  0  0
 10 11  1  0  0  0  0
 11 12  1  0  0  0  0
 12 13  1  0  0  0  0
 13  6  1  0  0  0  0
 13 14  2  0  0  0  0
  4 15  1  0  0  0  0
  5 16  1  0  0  0  0
 16 17  1  0  0  0  0
 17 18  1  0  0  0  0
 18 11  1  0  0  0  0
 17 19  1  6  0  0  0
 11 20  1  6  0  0  0
 10 21  1  6  0  0  0
  6 22  1  1  0  0  0
M  CHG  2   4   1  15  -1
M  END
>  <cdx:fragmentId>
5

$$$$
