40235.cdx
  Mrv1902 05222410262D          

 20 19  0  0  0  0            999 V2000
    1.6071   -8.2585    0.0000 C   0  0  0  0  0  0  0  0  0  0  0  0
    2.3216   -7.8460    0.0000 C   0  0  0  0  0  0  0  0  0  0  0  0
    3.0361   -8.2585    0.0000 C   0  0  0  0  0  0  0  0  0  0  0  0
    3.7505   -7.8460    0.0000 C   0  0  0  0  0  0  0  0  0  0  0  0
    4.4650   -8.2585    0.0000 C   0  0  0  0  0  0  0  0  0  0  0  0
    5.1795   -7.8460    0.0000 C   0  0  0  0  0  0  0  0  0  0  0  0
    5.8940   -8.2585    0.0000 C   0  0  0  0  0  0  0  0  0  0  0  0
    6.6084   -7.8460    0.0000 C   0  0  0  0  0  0  0  0  0  0  0  0
    7.3229   -8.2585    0.0000 C   0  0  0  0  0  0  0  0  0  0  0  0
    8.0374   -7.8460    0.0000 C   0  0  0  0  0  0  0  0  0  0  0  0
    8.7518   -8.2585    0.0000 C   0  0  0  0  0  0  0  0  0  0  0  0
    9.4663   -7.8460    0.0000 C   0  0  0  0  0  0  0  0  0  0  0  0
   10.1808   -8.2585    0.0000 C   0  0  0  0  0  0  0  0  0  0  0  0
   10.8953   -7.8460    0.0000 C   0  0  0  0  0  0  0  0  0  0  0  0
   11.6097   -8.2585    0.0000 C   0  0  0  0  0  0  0  0  0  0  0  0
   12.3242   -7.8460    0.0000 C   0  0  0  0  0  0  0  0  0  0  0  0
   13.0387   -8.2585    0.0000 C   0  0  0  0  0  0  0  0  0  0  0  0
   13.7531   -7.8460    0.0000 C   0  0  0  0  0  0  0  0  0  0  0  0
    1.6071   -9.0835    0.0000 O   0  0  0  0  0  0  0  0  0  0  0  0
    0.8927   -7.8460    0.0000 O   0  0  0  0  0  0  0  0  0  0  0  0
  1  2  1  0  0  0  0
  2  3  2  0  0  0  0
  3  4  1  0  0  0  0
  4  5  2  0  0  0  0
  5  6  1  0  0  0  0
  6  7  2  0  0  0  0
  7  8  1  0  0  0  0
  8  9  1  0  0  0  0
  9 10  1  0  0  0  0
 10 11  1  0  0  0  0
 11 12  1  0  0  0  0
 12 13  1  0  0  0  0
 13 14  1  0  0  0  0
 14 15  1  0  0  0  0
 15 16  1  0  0  0  0
 16 17  1  0  0  0  0
 17 18  1  0  0  0  0
  1 19  2  0  0  0  0
  1 20  1  0  0  0  0
M  END
>  <cdx:fragmentId>
5

$$$$
