40232.cdx
  Mrv1902 05222410272D          

 51 56  0  0  0  0            999 V2000
   10.5847   -2.8938    0.0000 O   0  0  0  0  0  0  0  0  0  0  0  0
   10.5850   -4.5438    0.0000 C   0  0  0  0  0  0  0  0  0  0  0  0
    9.1556   -2.0691    0.0000 O   0  0  0  0  0  0  0  0  0  0  0  0
    7.7268   -2.8943    0.0000 O   0  0  0  0  0  0  0  0  0  0  0  0
    7.7271   -4.5443    0.0000 O   0  0  0  0  0  0  0  0  0  0  0  0
    7.7271   -5.3693    0.0000 C   0  0  0  0  0  0  0  0  0  0  0  0
   12.7284   -6.6068    0.0000 O   0  0  0  0  0  0  0  0  0  0  0  0
    9.1560  -10.3193    0.0000 O   0  0  0  0  0  0  0  0  0  0  0  0
    7.7271  -10.3193    0.0000 O   0  0  0  0  0  0  0  0  0  0  0  0
   12.0139   -7.8443    0.0000 C   0  0  0  0  0  0  0  0  0  0  0  0
   12.0139   -7.0193    0.0000 C   0  0  0  0  0  0  0  0  0  0  0  0
   11.2994   -6.6068    0.0000 C   0  0  0  0  0  0  0  0  0  0  0  0
   10.5850   -7.0193    0.0000 C   0  0  0  0  0  0  0  0  0  0  0  0
   11.2994   -8.2568    0.0000 C   0  0  0  0  0  0  0  0  0  0  0  0
   10.5850   -7.8443    0.0000 C   0  0  0  0  0  0  0  0  0  0  0  0
    9.1560   -9.4943    0.0000 C   0  0  0  0  0  0  0  0  0  0  0  0
    9.8705   -9.0818    0.0000 C   0  0  0  0  0  0  0  0  0  0  0  0
    9.8705   -8.2568    0.0000 C   0  0  0  0  0  0  0  0  0  0  0  0
    9.1560   -7.8443    0.0000 O   0  0  0  0  0  0  0  0  0  0  0  0
    7.7271   -9.4943    0.0000 C   0  0  0  0  0  0  0  0  0  0  0  0
    8.4415   -9.0818    0.0000 C   0  0  0  0  0  0  0  0  0  0  0  0
    8.4415   -8.2568    0.0000 C   0  0  0  0  0  0  0  0  0  0  0  0
    7.7271   -7.8443    0.0000 C   0  0  0  0  0  0  0  0  0  0  0  0
    7.0126   -9.0818    0.0000 C   0  0  0  0  0  0  0  0  0  0  0  0
    7.0126   -8.2568    0.0000 C   0  0  0  0  0  0  0  0  0  0  0  0
    6.2981   -4.5443    0.0000 O   0  0  0  0  0  0  0  0  0  0  0  0
    6.2981   -5.3693    0.0000 C   0  0  2  0  0  0  0  0  0  0  0  0
    7.0126   -5.7818    0.0000 C   0  0  2  0  0  0  0  0  0  0  0  0
    5.5837   -5.7818    0.0000 C   0  0  1  0  0  0  0  0  0  0  0  0
    5.5837   -6.6068    0.0000 C   0  0  2  0  0  0  0  0  0  0  0  0
    6.2981   -7.0193    0.0000 C   0  0  1  0  0  0  0  0  0  0  0  0
    7.0126   -6.6068    0.0000 O   0  0  0  0  0  0  0  0  0  0  0  0
    2.0113   -5.3693    0.0000 O   0  0  0  0  0  0  0  0  0  0  0  0
    6.2981   -7.8443    0.0000 O   0  0  0  0  0  0  0  0  0  0  0  0
    2.0113   -7.0193    0.0000 O   0  0  0  0  0  0  0  0  0  0  0  0
    3.4402   -7.8443    0.0000 O   0  0  0  0  0  0  0  0  0  0  0  0
    3.4402   -4.5443    0.0000 C   0  0  0  0  0  0  0  0  0  0  0  0
    3.4402   -5.3693    0.0000 C   0  0  1  0  0  0  0  0  0  0  0  0
    9.1557   -2.8941    0.0000 C   0  0  1  0  0  0  0  0  0  0  0  0
    8.4413   -3.3067    0.0000 C   0  0  2  0  0  0  0  0  0  0  0  0
    8.4415   -4.1317    0.0000 C   0  0  1  0  0  0  0  0  0  0  0  0
    9.1560   -4.5441    0.0000 O   0  0  0  0  0  0  0  0  0  0  0  0
    4.8692   -5.3693    0.0000 O   0  0  0  0  0  0  0  0  0  0  0  0
    2.7258   -5.7818    0.0000 C   0  0  1  0  0  0  0  0  0  0  0  0
    2.7258   -6.6068    0.0000 C   0  0  2  0  0  0  0  0  0  0  0  0
    3.4402   -7.0193    0.0000 C   0  0  2  0  0  0  0  0  0  0  0  0
    4.1547   -5.7818    0.0000 O   0  0  0  0  0  0  0  0  0  0  0  0
    9.8704   -4.1314    0.0000 C   0  0  2  0  0  0  0  0  0  0  0  0
    9.8703   -3.3064    0.0000 C   0  0  2  0  0  0  0  0  0  0  0  0
    4.1547   -6.6068    0.0000 C   0  0  1  0  0  0  0  0  0  0  0  0
    4.8692   -7.0193    0.0000 O   0  0  0  0  0  0  0  0  0  0  0  0
 49  1  1  1  0  0  0
 48  2  1  6  0  0  0
 39  3  1  6  0  0  0
 40  4  1  6  0  0  0
 41  5  1  1  0  0  0
 39 49  1  0  0  0  0
 40 39  1  0  0  0  0
 41 40  1  0  0  0  0
 42 41  1  0  0  0  0
 48 42  1  0  0  0  0
 11  7  1  0  0  0  0
 16  8  2  0  0  0  0
 20  9  1  0  0  0  0
 10 14  1  0  0  0  0
 11 10  2  0  0  0  0
 12 11  1  0  0  0  0
 13 12  2  0  0  0  0
 15 13  1  0  0  0  0
 15 14  2  0  0  0  0
 18 15  1  0  0  0  0
 16 21  1  0  0  0  0
 17 16  1  0  0  0  0
 18 17  2  0  0  0  0
 19 18  1  0  0  0  0
 22 19  1  0  0  0  0
 20 24  1  0  0  0  0
 21 20  2  0  0  0  0
 22 21  1  0  0  0  0
 23 22  2  0  0  0  0
 25 23  1  0  0  0  0
 25 24  2  0  0  0  0
 34 25  1  0  0  0  0
  5  6  1  0  0  0  0
 49 48  1  0  0  0  0
 27 26  1  6  0  0  0
 27 28  1  0  0  0  0
 28  6  1  1  0  0  0
 27 29  1  0  0  0  0
 29 30  1  0  0  0  0
 30 31  1  0  0  0  0
 31 32  1  0  0  0  0
 32 28  1  0  0  0  0
 44 33  1  1  0  0  0
 45 35  1  6  0  0  0
 30 51  1  6  0  0  0
 46 36  1  6  0  0  0
 31 34  1  1  0  0  0
 38 37  1  6  0  0  0
 38 47  1  0  0  0  0
 44 38  1  0  0  0  0
 45 44  1  0  0  0  0
 46 45  1  0  0  0  0
 50 46  1  0  0  0  0
 29 43  1  1  0  0  0
 50 47  1  0  0  0  0
 50 51  1  1  0  0  0
M  END
>  <cdx:fragmentId>
5

$$$$
