40242.cdx
  Mrv1902 05222410232D          

 24 26  0  0  0  0            999 V2000
    3.7238   -9.8164    0.0000 O   0  0  0  0  0  0  0  0  0  0  0  0
    4.4382   -9.4039    0.0000 C   0  0  0  0  0  0  0  0  0  0  0  0
    4.4382   -8.5789    0.0000 C   0  0  0  0  0  0  0  0  0  0  0  0
    3.7238   -8.1664    0.0000 O   0  0  0  0  0  0  0  0  0  0  0  0
    5.1527   -9.8164    0.0000 C   0  0  0  0  0  0  0  0  0  0  0  0
    5.8672   -9.4039    0.0000 C   0  0  0  0  0  0  0  0  0  0  0  0
    5.8672   -8.5789    0.0000 C   0  0  0  0  0  0  0  0  0  0  0  0
    5.1527   -8.1664    0.0000 C   0  0  0  0  0  0  0  0  0  0  0  0
    6.5817   -9.8164    0.0000 C   0  0  0  0  0  0  0  0  0  0  0  0
    7.2961   -9.4039    0.0000 N   0  0  0  0  0  0  0  0  0  0  0  0
    7.2961   -8.5789    0.0000 C   0  0  0  0  0  0  0  0  0  0  0  0
    6.5817   -8.1664    0.0000 C   0  0  0  0  0  0  0  0  0  0  0  0
    6.5817  -10.6414    0.0000 C   0  0  0  0  0  0  0  0  0  0  0  0
    7.2961  -11.0539    0.0000 C   0  0  0  0  0  0  0  0  0  0  0  0
    8.0106  -10.6414    0.0000 C   0  0  0  0  0  0  0  0  0  0  0  0
    8.0106   -9.8164    0.0000 C   0  0  0  0  0  0  0  0  0  0  0  0
    7.2961  -11.8789    0.0000 C   0  0  0  0  0  0  0  0  0  0  0  0
    8.0106  -12.2914    0.0000 C   0  0  0  0  0  0  0  0  0  0  0  0
    8.7251  -11.8789    0.0000 C   0  0  0  0  0  0  0  0  0  0  0  0
    8.7251  -11.0539    0.0000 C   0  0  0  0  0  0  0  0  0  0  0  0
    9.4395  -13.1164    0.0000 C   0  0  0  0  0  0  0  0  0  0  0  0
    9.4395  -12.2914    0.0000 O   0  0  0  0  0  0  0  0  0  0  0  0
    3.7238   -7.3414    0.0000 C   0  0  0  0  0  0  0  0  0  0  0  0
    3.7238  -10.6414    0.0000 C   0  0  0  0  0  0  0  0  0  0  0  0
  1  2  1  0  0  0  0
  2  3  2  0  0  0  0
  3  4  1  0  0  0  0
  2  5  1  0  0  0  0
  5  6  2  0  0  0  0
  6  7  1  0  0  0  0
  7  8  2  0  0  0  0
  8  3  1  0  0  0  0
  6  9  1  0  0  0  0
  9 10  1  0  0  0  0
 10 11  1  0  0  0  0
 11 12  1  0  0  0  0
 12  7  1  0  0  0  0
  9 13  1  0  0  0  0
 13 14  1  0  0  0  0
 14 15  2  0  0  0  0
 16 10  1  0  0  0  0
 14 17  1  0  0  0  0
 17 18  2  0  0  0  0
 18 19  1  0  0  0  0
 19 20  2  0  0  0  0
 20 15  1  0  0  0  0
 21 22  1  0  0  0  0
 22 19  1  0  0  0  0
  4 23  1  0  0  0  0
  1 24  1  0  0  0  0
M  END
>  <cdx:fragmentId>
5

$$$$
