40241.cdx
  Mrv1902 05222410242D          

 28 29  0  0  0  0            999 V2000
    3.8756  -10.2426    0.0000 O   0  0  0  0  0  0  0  0  0  0  0  0
    4.5900  -11.4801    0.0000 O   0  0  0  0  0  0  0  0  0  0  0  0
    5.3045  -11.0676    0.0000 C   0  0  2  0  0  0  0  0  0  0  0  0
    5.3045  -10.2426    0.0000 C   0  0  1  0  0  0  0  0  0  0  0  0
    4.5900   -9.8301    0.0000 C   0  0  0  0  0  0  0  0  0  0  0  0
    6.0190  -11.4801    0.0000 C   0  0  1  0  0  0  0  0  0  0  0  0
    6.7334  -11.0676    0.0000 C   0  0  2  0  0  0  0  0  0  0  0  0
    6.7334  -10.2426    0.0000 C   0  0  1  0  0  0  0  0  0  0  0  0
    6.0190   -9.8301    0.0000 O   0  0  0  0  0  0  0  0  0  0  0  0
    7.4479   -9.8301    0.0000 O   0  0  0  0  0  0  0  0  0  0  0  0
    7.4479   -9.0051    0.0000 C   0  0  2  0  0  0  0  0  0  0  0  0
    6.7334   -8.5926    0.0000 O   0  0  0  0  0  0  0  0  0  0  0  0
    8.1624   -8.5926    0.0000 C   0  0  0  0  0  0  0  0  0  0  0  0
    8.1624   -7.7676    0.0000 C   0  0  1  0  0  0  0  0  0  0  0  0
    7.4479   -7.3551    0.0000 C   0  0  0  0  0  0  0  0  0  0  0  0
    6.7334   -7.7676    0.0000 C   0  0  0  0  0  0  0  0  0  0  0  0
    8.8769   -9.0051    0.0000 C   0  0  0  0  0  0  0  0  0  0  0  0
    7.4479   -6.5301    0.0000 C   0  0  0  0  0  0  0  0  0  0  0  0
    6.7334   -6.1176    0.0000 O   0  0  0  0  0  0  0  0  0  0  0  0
    8.1624   -6.1176    0.0000 O   0  0  0  0  0  0  0  0  0  0  0  0
    6.7334   -5.2926    0.0000 C   0  0  0  0  0  0  0  0  0  0  0  0
    8.8769   -7.3551    0.0000 C   0  0  0  0  0  0  0  0  0  0  0  0
    6.0190  -12.3051    0.0000 O   0  0  0  0  0  0  0  0  0  0  0  0
    7.4479  -11.4801    0.0000 O   0  0  0  0  0  0  0  0  0  0  0  0
    8.8769   -9.8301    0.0000 C   0  0  0  0  0  0  0  0  0  0  0  0
    9.5913   -7.7676    0.0000 C   0  0  0  0  0  0  0  0  0  0  0  0
   10.3058   -7.3551    0.0000 O   0  0  0  0  0  0  0  0  0  0  0  0
    9.5913   -8.5926    0.0000 O   0  0  0  0  0  0  0  0  0  0  0  0
  3  2  1  6  0  0  0
  3  4  1  0  0  0  0
  4  5  1  1  0  0  0
  5  1  1  0  0  0  0
  3  6  1  0  0  0  0
  6  7  1  0  0  0  0
  7  8  1  0  0  0  0
  8  9  1  0  0  0  0
  9  4  1  0  0  0  0
  8 10  1  1  0  0  0
 11 10  1  6  0  0  0
 11 12  1  0  0  0  0
 11 13  1  0  0  0  0
 13 14  1  0  0  0  0
 14 15  1  0  0  0  0
 15 16  2  0  0  0  0
 16 12  1  0  0  0  0
 13 17  2  0  0  0  0
 15 18  1  0  0  0  0
 18 19  1  0  0  0  0
 18 20  2  0  0  0  0
 19 21  1  0  0  0  0
 14 22  1  1  0  0  0
  6 23  1  1  0  0  0
  7 24  1  6  0  0  0
 17 25  1  0  0  0  0
 22 26  1  0  0  0  0
 26 27  2  0  0  0  0
 26 28  1  0  0  0  0
M  END
>  <cdx:fragmentId>
5

$$$$
