40245.cdx
  Mrv1902 05222410242D          

 25 28  0  0  0  0            999 V2000
    6.1008   -9.8519    0.0000 C   0  0  0  0  0  0  0  0  0  0  0  0
    6.8177  -10.2601    0.0000 C   0  0  0  0  0  0  0  0  0  0  0  0
    7.5298   -9.8435    0.0000 C   0  0  0  0  0  0  0  0  0  0  0  0
    7.5249   -9.0185    0.0000 C   0  0  0  0  0  0  0  0  0  0  0  0
    6.8080   -8.6102    0.0000 C   0  0  0  0  0  0  0  0  0  0  0  0
    6.0960   -9.0269    0.0000 C   0  0  0  0  0  0  0  0  0  0  0  0
    8.2369   -8.6018    0.0000 C   0  0  0  0  0  0  0  0  0  0  0  0
    8.2321   -7.7768    0.0000 C   0  0  0  0  0  0  0  0  0  0  0  0
    7.5152   -7.3685    0.0000 C   0  0  0  0  0  0  0  0  0  0  0  0
    6.8032   -7.7852    0.0000 C   0  0  0  0  0  0  0  0  0  0  0  0
    8.9441   -7.3601    0.0000 N   0  0  0  0  0  0  0  0  0  0  0  0
    8.9393   -6.5351    0.0000 C   0  0  0  0  0  0  0  0  0  0  0  0
    8.2224   -6.1268    0.0000 C   0  0  0  0  0  0  0  0  0  0  0  0
    7.5104   -6.5435    0.0000 C   0  0  0  0  0  0  0  0  0  0  0  0
    6.7935   -6.1352    0.0000 C   0  0  0  0  0  0  0  0  0  0  0  0
    6.0815   -6.5519    0.0000 C   0  0  0  0  0  0  0  0  0  0  0  0
    6.0863   -7.3769    0.0000 C   0  0  0  0  0  0  0  0  0  0  0  0
    5.3646   -6.1436    0.0000 O   0  0  0  0  0  0  0  0  0  0  0  0
    5.3743   -8.6186    0.0000 C   0  0  0  0  0  0  0  0  0  0  0  0
    5.3743   -7.7936    0.0000 O   0  0  0  0  0  0  0  0  0  0  0  0
    6.7886   -5.3102    0.0000 O   0  0  0  0  0  0  0  0  0  0  0  0
    6.0718   -4.9019    0.0000 C   0  0  0  0  0  0  0  0  0  0  0  0
    4.6501   -6.5561    0.0000 C   0  0  0  0  0  0  0  0  0  0  0  0
    9.6513   -6.1184    0.0000 O   0  0  0  0  0  0  0  0  0  0  0  0
    8.2176   -5.3018    0.0000 O   0  0  0  0  0  0  0  0  0  0  0  0
  1  2  2  0  0  0  0
  2  3  1  0  0  0  0
  3  4  2  0  0  0  0
  4  5  1  0  0  0  0
  5  6  2  0  0  0  0
  6  1  1  0  0  0  0
  4  7  1  0  0  0  0
  7  8  2  0  0  0  0
  8  9  1  0  0  0  0
  9 10  2  0  0  0  0
 10  5  1  0  0  0  0
  8 11  1  0  0  0  0
 11 12  1  0  0  0  0
 12 13  1  0  0  0  0
 13 14  1  0  0  0  0
 14  9  1  0  0  0  0
 14 15  2  0  0  0  0
 15 16  1  0  0  0  0
 16 17  2  0  0  0  0
 17 10  1  0  0  0  0
 16 18  1  0  0  0  0
 19 20  1  0  0  0  0
 20 17  1  0  0  0  0
 15 21  1  0  0  0  0
 21 22  1  0  0  0  0
 23 18  1  0  0  0  0
 12 24  2  0  0  0  0
 13 25  2  0  0  0  0
M  END
>  <cdx:fragmentId>
5

$$$$
