40246.cdx
  Mrv1902 05222410252D          

 26 27  0  0  0  0            999 V2000
    5.5393  -10.1326    0.0000 C   0  0  0  0  0  0  0  0  0  0  0  0
    5.5393  -10.9576    0.0000 C   0  0  0  0  0  0  0  0  0  0  0  0
    6.2538  -11.3701    0.0000 C   0  0  0  0  0  0  0  0  0  0  0  0
    6.9682  -10.9576    0.0000 C   0  0  0  0  0  0  0  0  0  0  0  0
    6.9682  -10.1326    0.0000 C   0  0  0  0  0  0  0  0  0  0  0  0
    6.2538   -9.7201    0.0000 C   0  0  0  0  0  0  0  0  0  0  0  0
    6.2538   -8.8951    0.0000 O   0  0  0  0  0  0  0  0  0  0  0  0
    4.8248   -8.8951    0.0000 C   0  0  0  0  0  0  0  0  0  0  0  0
    4.8248   -9.7201    0.0000 C   0  0  0  0  0  0  0  0  0  0  0  0
    7.6827   -8.8951    0.0000 O   0  0  0  0  0  0  0  0  0  0  0  0
    6.9682   -8.4826    0.0000 C   0  0  0  0  0  0  0  0  0  0  0  0
    6.9682   -7.6576    0.0000 C   0  0  0  0  0  0  0  0  0  0  0  0
    6.2538   -7.2451    0.0000 O   0  0  0  0  0  0  0  0  0  0  0  0
    7.6827   -7.2451    0.0000 O   0  0  0  0  0  0  0  0  0  0  0  0
    7.6827   -6.4201    0.0000 C   0  0  0  0  0  0  0  0  0  0  0  0
    6.9682   -6.0076    0.0000 C   0  0  0  0  0  0  0  0  0  0  0  0
    8.3972   -6.0076    0.0000 C   0  0  0  0  0  0  0  0  0  0  0  0
    8.3972   -5.1826    0.0000 C   0  0  0  0  0  0  0  0  0  0  0  0
    7.6827   -4.7701    0.0000 C   0  0  0  0  0  0  0  0  0  0  0  0
    6.9682   -5.1826    0.0000 C   0  0  0  0  0  0  0  0  0  0  0  0
    9.1117   -6.4201    0.0000 C   0  0  0  0  0  0  0  0  0  0  0  0
    9.8261   -6.0076    0.0000 C   0  0  0  0  0  0  0  0  0  0  0  0
    4.1104  -10.1326    0.0000 C   0  0  0  0  0  0  0  0  0  0  0  0
    7.6827  -11.3701    0.0000 C   0  0  0  0  0  0  0  0  0  0  0  0
    6.2538   -4.7701    0.0000 C   0  0  0  0  0  0  0  0  0  0  0  0
    9.1117   -7.2451    0.0000 C   0  0  0  0  0  0  0  0  0  0  0  0
  1  2  1  0  0  0  0
  2  3  1  0  0  0  0
  3  4  1  0  0  0  0
  4  5  1  0  0  0  0
  5  6  1  0  0  0  0
  6  1  1  0  0  0  0
  6  7  1  0  0  0  0
  8  9  1  0  0  0  0
  9  1  1  0  0  0  0
 10 11  2  0  0  0  0
 11  7  1  0  0  0  0
 11 12  1  0  0  0  0
 12 13  2  0  0  0  0
 14 12  1  0  0  0  0
 14 15  1  0  0  0  0
 15 16  1  0  0  0  0
 15 17  1  0  0  0  0
 17 18  1  0  0  0  0
 18 19  1  0  0  0  0
 19 20  1  0  0  0  0
 20 16  1  0  0  0  0
 17 21  1  0  0  0  0
 21 22  1  0  0  0  0
  9 23  1  0  0  0  0
  4 24  1  0  0  0  0
 20 25  1  0  0  0  0
 21 26  1  0  0  0  0
M  END
>  <cdx:fragmentId>
5

$$$$
