40247.cdx
  Mrv1902 05222410252D          

 29 31  0  0  0  0            999 V2000
    2.9131   -8.6339    0.0000 O   0  0  0  0  0  0  0  0  0  0  0  0
    3.6275   -9.8714    0.0000 O   0  0  0  0  0  0  0  0  0  0  0  0
    4.3420   -9.4589    0.0000 C   0  0  2  0  0  0  0  0  0  0  0  0
    4.3420   -8.6339    0.0000 C   0  0  1  0  0  0  0  0  0  0  0  0
    3.6275   -8.2214    0.0000 C   0  0  0  0  0  0  0  0  0  0  0  0
    5.0565   -9.8714    0.0000 C   0  0  1  0  0  0  0  0  0  0  0  0
    5.7709   -9.4589    0.0000 C   0  0  2  0  0  0  0  0  0  0  0  0
    5.7709   -8.6339    0.0000 C   0  0  1  0  0  0  0  0  0  0  0  0
    5.0565   -8.2214    0.0000 O   0  0  0  0  0  0  0  0  0  0  0  0
    6.4854   -8.2214    0.0000 O   0  0  0  0  0  0  0  0  0  0  0  0
    6.4854   -7.3964    0.0000 C   0  0  0  0  0  0  0  0  0  0  0  0
    5.7709   -6.9839    0.0000 C   0  0  0  0  0  0  0  0  0  0  0  0
    7.1999   -6.9839    0.0000 C   0  0  0  0  0  0  0  0  0  0  0  0
    7.1999   -6.1589    0.0000 C   0  0  0  0  0  0  0  0  0  0  0  0
    6.4854   -5.7464    0.0000 C   0  0  0  0  0  0  0  0  0  0  0  0
    5.7709   -6.1589    0.0000 C   0  0  0  0  0  0  0  0  0  0  0  0
    7.9144   -7.3964    0.0000 C   0  0  0  0  0  0  0  0  0  0  0  0
    8.6288   -6.9839    0.0000 C   0  0  0  0  0  0  0  0  0  0  0  0
    9.3433   -8.2214    0.0000 C   0  0  0  0  0  0  0  0  0  0  0  0
    9.3433   -7.3964    0.0000 C   0  0  0  0  0  0  0  0  0  0  0  0
   10.0578   -8.6339    0.0000 C   0  0  0  0  0  0  0  0  0  0  0  0
   10.7722   -8.2214    0.0000 C   0  0  0  0  0  0  0  0  0  0  0  0
   10.7722   -7.3964    0.0000 C   0  0  0  0  0  0  0  0  0  0  0  0
   10.0578   -6.9839    0.0000 C   0  0  0  0  0  0  0  0  0  0  0  0
    5.0565   -5.7464    0.0000 O   0  0  0  0  0  0  0  0  0  0  0  0
   10.0578   -9.4589    0.0000 O   0  0  0  0  0  0  0  0  0  0  0  0
   11.4867   -6.9839    0.0000 O   0  0  0  0  0  0  0  0  0  0  0  0
    5.0565  -10.6964    0.0000 O   0  0  0  0  0  0  0  0  0  0  0  0
    6.4854   -9.8714    0.0000 O   0  0  0  0  0  0  0  0  0  0  0  0
  3  2  1  6  0  0  0
  3  4  1  0  0  0  0
  4  5  1  1  0  0  0
  5  1  1  0  0  0  0
  3  6  1  0  0  0  0
  6  7  1  0  0  0  0
  7  8  1  0  0  0  0
  8  9  1  0  0  0  0
  9  4  1  0  0  0  0
  8 10  1  1  0  0  0
 10 11  1  0  0  0  0
 11 12  1  0  0  0  0
 11 13  2  0  0  0  0
 13 14  1  0  0  0  0
 14 15  2  0  0  0  0
 15 16  1  0  0  0  0
 16 12  2  0  0  0  0
 13 17  1  0  0  0  0
 17 18  2  0  0  0  0
 19 20  2  0  0  0  0
 20 18  1  0  0  0  0
 19 21  1  0  0  0  0
 21 22  2  0  0  0  0
 22 23  1  0  0  0  0
 23 24  2  0  0  0  0
 24 20  1  0  0  0  0
 16 25  1  0  0  0  0
 21 26  1  0  0  0  0
 23 27  1  0  0  0  0
  6 28  1  1  0  0  0
  7 29  1  6  0  0  0
M  END
>  <cdx:fragmentId>
5

$$$$
