40253.cdx
  Mrv1902 05222410252D          

 23 22  0  0  0  0            999 V2000
    1.1250   -8.8264    0.0000 C   0  0  0  0  0  0  0  0  0  0  0  0
    1.8395   -9.2389    0.0000 C   0  0  0  0  0  0  0  0  0  0  0  0
    2.5540   -8.8264    0.0000 C   0  0  0  0  0  0  0  0  0  0  0  0
    3.2684   -9.2389    0.0000 C   0  0  0  0  0  0  0  0  0  0  0  0
    3.9829   -8.8264    0.0000 C   0  0  0  0  0  0  0  0  0  0  0  0
    4.6974   -9.2389    0.0000 C   0  0  0  0  0  0  0  0  0  0  0  0
    5.4119   -8.8264    0.0000 C   0  0  0  0  0  0  0  0  0  0  0  0
    6.1263   -9.2389    0.0000 C   0  0  0  0  0  0  0  0  0  0  0  0
    6.8408   -8.8264    0.0000 C   0  0  0  0  0  0  0  0  0  0  0  0
    7.5553   -9.2389    0.0000 C   0  0  0  0  0  0  0  0  0  0  0  0
    8.2697   -8.8264    0.0000 C   0  0  0  0  0  0  0  0  0  0  0  0
    6.8408   -8.0014    0.0000 H   0  0  0  0  0  0  0  0  0  0  0  0
    7.5553  -10.0639    0.0000 H   0  0  0  0  0  0  0  0  0  0  0  0
    6.1263  -10.0639    0.0000 O   0  0  0  0  0  0  0  0  0  0  0  0
    5.4119   -9.6514    0.0000 H   0  0  0  0  0  0  0  0  0  0  0  0
    8.9842   -8.4139    0.0000 C   0  0  0  0  0  0  0  0  0  0  0  0
    9.6987   -8.0014    0.0000 C   0  0  0  0  0  0  0  0  0  0  0  0
   10.4131   -7.5889    0.0000 C   0  0  0  0  0  0  0  0  0  0  0  0
   11.1276   -7.1764    0.0000 C   0  0  0  0  0  0  0  0  0  0  0  0
   11.8421   -7.5889    0.0000 O   0  0  0  0  0  0  0  0  0  0  0  0
   11.1276   -6.3514    0.0000 C   0  0  0  0  0  0  0  0  0  0  0  0
   11.1276   -8.0014    0.0000 H   0  0  0  0  0  0  0  0  0  0  0  0
   11.8421   -5.9389    0.0000 C   0  0  0  0  0  0  0  0  0  0  0  0
  1  2  1  0  0  0  0
  2  3  1  0  0  0  0
  3  4  1  0  0  0  0
  4  5  1  0  0  0  0
  5  6  1  0  0  0  0
  6  7  1  0  0  0  0
  7  8  1  0  0  0  0
  8  9  1  0  0  0  0
  9 10  2  0  0  0  0
 10 11  1  0  0  0  0
  9 12  1  0  0  0  0
 10 13  1  0  0  0  0
  8 14  1  0  0  0  0
  8 15  1  0  0  0  0
 11 16  3  0  0  0  0
 16 17  1  0  0  0  0
 17 18  3  0  0  0  0
 18 19  1  0  0  0  0
 19 20  1  0  0  0  0
 19 21  1  0  0  0  0
 19 22  1  0  0  0  0
 21 23  1  0  0  0  0
M  END
>  <cdx:fragmentId>
3

$$$$
