40252.cdx
  Mrv1902 05222410252D          

 17 16  0  0  0  0            999 V2000
   12.9146   -8.7989    0.0000 C   0  0  0  0  0  0  0  0  0  0  0  0
   12.2001   -8.3864    0.0000 C   0  0  0  0  0  0  0  0  0  0  0  0
   11.4856   -8.7989    0.0000 C   0  0  0  0  0  0  0  0  0  0  0  0
   10.7712   -8.3864    0.0000 C   0  0  0  0  0  0  0  0  0  0  0  0
   10.0567   -8.7989    0.0000 C   0  0  0  0  0  0  0  0  0  0  0  0
    9.3422   -8.3864    0.0000 C   0  0  0  0  0  0  0  0  0  0  0  0
    8.6278   -8.7989    0.0000 C   0  0  0  0  0  0  0  0  0  0  0  0
    7.9133   -8.3864    0.0000 C   0  0  0  0  0  0  0  0  0  0  0  0
    7.1988   -8.7989    0.0000 C   0  0  0  0  0  0  0  0  0  0  0  0
    6.4844   -8.3864    0.0000 C   0  0  0  0  0  0  0  0  0  0  0  0
    5.7699   -8.7989    0.0000 C   0  0  0  0  0  0  0  0  0  0  0  0
    5.0554   -8.3864    0.0000 C   0  0  0  0  0  0  0  0  0  0  0  0
    4.3409   -8.7989    0.0000 C   0  0  0  0  0  0  0  0  0  0  0  0
    3.6265   -8.3864    0.0000 C   0  0  0  0  0  0  0  0  0  0  0  0
    2.9120   -8.7989    0.0000 C   0  0  0  0  0  0  0  0  0  0  0  0
    2.1975   -8.3864    0.0000 C   0  0  0  0  0  0  0  0  0  0  0  0
    1.4831   -7.9739    0.0000 N   0  0  0  0  0  0  0  0  0  0  0  0
  2  1  1  0  0  0  0
  3  2  1  0  0  0  0
  4  3  1  0  0  0  0
  5  4  1  0  0  0  0
  6  5  1  0  0  0  0
  7  6  1  0  0  0  0
  8  7  1  0  0  0  0
  9  8  1  0  0  0  0
 10  9  1  0  0  0  0
 11 10  1  0  0  0  0
 12 11  1  0  0  0  0
 13 12  1  0  0  0  0
 14 13  1  0  0  0  0
 15 14  1  0  0  0  0
 16 15  1  0  0  0  0
 16 17  3  0  0  0  0
M  END
>  <cdx:fragmentId>
3

$$$$
