40251.cdx
  Mrv1902 05222410242D          

 39 41  0  0  0  0            999 V2000
    3.4218  -11.3976    0.0000 C   0  0  2  0  0  0  0  0  0  0  0  0
    3.4218  -12.2226    0.0000 C   0  0  2  0  0  0  0  0  0  0  0  0
    4.1363  -12.6351    0.0000 C   0  0  1  0  0  0  0  0  0  0  0  0
    4.8507  -12.2226    0.0000 C   0  0  2  0  0  0  0  0  0  0  0  0
    4.8507  -11.3976    0.0000 C   0  0  1  0  0  0  0  0  0  0  0  0
    4.1363  -10.9851    0.0000 O   0  0  0  0  0  0  0  0  0  0  0  0
    5.5652  -10.9851    0.0000 O   0  0  0  0  0  0  0  0  0  0  0  0
    5.5652  -10.1601    0.0000 C   0  0  0  0  0  0  0  0  0  0  0  0
    4.8507   -9.7476    0.0000 O   0  0  0  0  0  0  0  0  0  0  0  0
    6.2797   -9.7476    0.0000 C   0  0  0  0  0  0  0  0  0  0  0  0
    6.2797   -8.9226    0.0000 C   0  0  0  0  0  0  0  0  0  0  0  0
    5.5652   -8.5101    0.0000 C   0  0  0  0  0  0  0  0  0  0  0  0
    4.8507   -8.9226    0.0000 C   0  0  0  0  0  0  0  0  0  0  0  0
    6.8928   -8.3706    0.0000 C   0  0  0  0  0  0  0  0  0  0  0  0
    6.5572   -7.6169    0.0000 C   0  0  0  0  0  0  0  0  0  0  0  0
    5.7367   -7.7032    0.0000 C   0  0  0  0  0  0  0  0  0  0  0  0
    7.7133   -8.4569    0.0000 O   0  0  0  0  0  0  0  0  0  0  0  0
    8.1982   -7.7894    0.0000 C   0  0  0  0  0  0  0  0  0  0  0  0
    7.8626   -7.0357    0.0000 O   0  0  0  0  0  0  0  0  0  0  0  0
    9.0187   -7.8756    0.0000 C   0  0  0  0  0  0  0  0  0  0  0  0
    9.5036   -7.2082    0.0000 C   0  0  0  0  0  0  0  0  0  0  0  0
    9.1680   -6.4545    0.0000 H   0  0  0  0  0  0  0  0  0  0  0  0
   10.3241   -7.2944    0.0000 C   0  0  0  0  0  0  0  0  0  0  0  0
   10.8090   -6.6270    0.0000 C   0  0  0  0  0  0  0  0  0  0  0  0
   10.6596   -8.0481    0.0000 C   0  0  0  0  0  0  0  0  0  0  0  0
   11.4801   -8.1344    0.0000 C   0  0  0  0  0  0  0  0  0  0  0  0
   11.9650   -7.4669    0.0000 C   0  0  0  0  0  0  0  0  0  0  0  0
   11.6295   -6.7132    0.0000 C   0  0  0  0  0  0  0  0  0  0  0  0
   12.7855   -7.5532    0.0000 O   0  0  0  0  0  0  0  0  0  0  0  0
    9.3542   -8.6293    0.0000 H   0  0  0  0  0  0  0  0  0  0  0  0
    7.3053   -7.6561    0.0000 H   0  0  0  0  0  0  0  0  0  0  0  0
    5.1847   -7.0901    0.0000 C   0  0  0  0  0  0  0  0  0  0  0  0
    4.1363   -8.5101    0.0000 O   0  0  0  0  0  0  0  0  0  0  0  0
    6.9942  -10.1601    0.0000 H   0  0  0  0  0  0  0  0  0  0  0  0
    2.7073  -10.9851    0.0000 C   0  0  0  0  0  0  0  0  0  0  0  0
    2.7073  -10.1601    0.0000 O   0  0  0  0  0  0  0  0  0  0  0  0
    4.1363  -13.4601    0.0000 O   0  0  0  0  0  0  0  0  0  0  0  0
    2.7073  -12.6351    0.0000 O   0  0  0  0  0  0  0  0  0  0  0  0
    5.5652  -12.6351    0.0000 O   0  0  0  0  0  0  0  0  0  0  0  0
  1  2  1  0  0  0  0
  2  3  1  0  0  0  0
  3  4  1  0  0  0  0
  4  5  1  0  0  0  0
  5  6  1  0  0  0  0
  6  1  1  0  0  0  0
  5  7  1  1  0  0  0
  7  8  1  0  0  0  0
  8 10  1  0  0  0  0
 10 11  2  0  0  0  0
 11 12  1  0  0  0  0
 12 13  1  0  0  0  0
 13  9  2  0  0  0  0
 11 14  1  0  0  0  0
 14 15  1  0  0  0  0
 15 16  1  0  0  0  0
 16 12  2  0  0  0  0
 14 17  1  0  0  0  0
 17 18  1  0  0  0  0
 18 19  2  0  0  0  0
 18 20  1  0  0  0  0
 20 21  2  0  0  0  0
 21 22  1  0  0  0  0
 21 23  1  0  0  0  0
 23 24  2  0  0  0  0
 23 25  1  0  0  0  0
 25 26  2  0  0  0  0
 26 27  1  0  0  0  0
 27 28  2  0  0  0  0
 28 24  1  0  0  0  0
 27 29  1  0  0  0  0
 20 30  1  0  0  0  0
 14 31  1  0  0  0  0
 16 32  1  0  0  0  0
 13 33  1  0  0  0  0
 10 34  1  0  0  0  0
  1 35  1  1  0  0  0
 35 36  1  0  0  0  0
  3 37  1  1  0  0  0
  2 38  1  6  0  0  0
  4 39  1  6  0  0  0
M  END
>  <cdx:fragmentId>
5

$$$$
