402541.cdx
  Mrv1902 05222410242D          

 39 42  0  0  0  0            999 V2000
    4.0681   -6.2287    0.0000 C   0  0  0  0  0  0  0  0  0  0  0  0
    4.0681   -7.0537    0.0000 O   0  0  0  0  0  0  0  0  0  0  0  0
    4.7825   -7.4663    0.0000 C   0  0  2  0  0  0  0  0  0  0  0  0
    5.4970   -7.0537    0.0000 C   0  0  1  0  0  0  0  0  0  0  0  0
    5.4970   -6.2287    0.0000 C   0  0  1  0  0  0  0  0  0  0  0  0
    4.7825   -5.8163    0.0000 C   0  0  0  0  0  0  0  0  0  0  0  0
    3.3536   -8.2912    0.0000 O   0  0  0  0  0  0  0  0  0  0  0  0
    4.0681   -8.7037    0.0000 C   0  0  1  0  0  0  0  0  0  0  0  0
    4.7825   -8.2912    0.0000 O   0  0  0  0  0  0  0  0  0  0  0  0
    2.6391   -8.7037    0.0000 C   0  0  1  0  0  0  0  0  0  0  0  0
    2.6391   -9.5287    0.0000 C   0  0  2  0  0  0  0  0  0  0  0  0
    3.3536   -9.9413    0.0000 C   0  0  1  0  0  0  0  0  0  0  0  0
    4.0681   -9.5287    0.0000 C   0  0  1  0  0  0  0  0  0  0  0  0
    1.9246   -8.2912    0.0000 C   0  0  0  0  0  0  0  0  0  0  0  0
    1.2102   -8.7037    0.0000 O   0  0  0  0  0  0  0  0  0  0  0  0
    1.9246   -9.9412    0.0000 O   0  0  0  0  0  0  0  0  0  0  0  0
    6.2816   -7.3087    0.0000 C   0  0  1  0  0  0  0  0  0  0  0  0
    6.7665   -6.6413    0.0000 C   0  0  0  0  0  0  0  0  0  0  0  0
    6.2816   -5.9738    0.0000 C   0  0  1  0  0  0  0  0  0  0  0  0
    6.2816   -8.1337    0.0000 C   0  0  0  0  0  0  0  0  0  0  0  0
    6.9961   -7.7212    0.0000 O   0  0  0  0  0  0  0  0  0  0  0  0
    7.7106   -7.3087    0.0000 C   0  0  0  0  0  0  0  0  0  0  0  0
    8.4250   -7.7212    0.0000 C   0  0  0  0  0  0  0  0  0  0  0  0
    7.7106   -6.4837    0.0000 O   0  0  0  0  0  0  0  0  0  0  0  0
    9.1395   -7.3087    0.0000 C   0  0  0  0  0  0  0  0  0  0  0  0
    9.8540   -7.7212    0.0000 C   0  0  0  0  0  0  0  0  0  0  0  0
    9.8540   -8.5462    0.0000 C   0  0  0  0  0  0  0  0  0  0  0  0
   10.5684   -8.9587    0.0000 C   0  0  0  0  0  0  0  0  0  0  0  0
   11.2829   -8.5462    0.0000 C   0  0  0  0  0  0  0  0  0  0  0  0
   11.2829   -7.7212    0.0000 C   0  0  0  0  0  0  0  0  0  0  0  0
   10.5684   -7.3087    0.0000 C   0  0  0  0  0  0  0  0  0  0  0  0
   11.9974   -8.9587    0.0000 O   0  0  0  0  0  0  0  0  0  0  0  0
    3.3536  -10.7663    0.0000 O   0  0  0  0  0  0  0  0  0  0  0  0
    4.7825   -9.9413    0.0000 O   0  0  0  0  0  0  0  0  0  0  0  0
    5.5832   -5.4083    0.0000 O   0  0  0  0  0  0  0  0  0  0  0  0
    6.5366   -5.1892    0.0000 O   0  0  0  0  0  0  0  0  0  0  0  0
    5.4970   -7.8788    0.0000 H   0  0  0  0  0  0  0  0  0  0  0  0
   11.9974   -7.3087    0.0000 O   0  0  0  0  0  0  0  0  0  0  0  0
   12.7119   -7.7212    0.0000 C   0  0  0  0  0  0  0  0  0  0  0  0
  1  2  1  0  0  0  0
  2  3  1  0  0  0  0
  3  4  1  0  0  0  0
  4  5  1  0  0  0  0
  5  6  1  0  0  0  0
  6  1  2  0  0  0  0
  7  8  1  0  0  0  0
  8  9  1  1  0  0  0
  3  9  1  6  0  0  0
  7 10  1  0  0  0  0
 10 11  1  0  0  0  0
 11 12  1  0  0  0  0
 12 13  1  0  0  0  0
 13  8  1  0  0  0  0
 10 14  1  1  0  0  0
 14 15  1  0  0  0  0
 11 16  1  6  0  0  0
  4 17  1  0  0  0  0
 17 18  1  0  0  0  0
 18 19  1  0  0  0  0
 19  5  1  0  0  0  0
 17 20  1  0  0  0  0
 17 21  1  6  0  0  0
 21 22  1  0  0  0  0
 22 23  1  0  0  0  0
 22 24  2  0  0  0  0
 23 25  2  0  0  0  0
 25 26  1  0  0  0  0
 26 27  2  0  0  0  0
 27 28  1  0  0  0  0
 28 29  2  0  0  0  0
 29 30  1  0  0  0  0
 30 31  2  0  0  0  0
 31 26  1  0  0  0  0
 29 32  1  0  0  0  0
 12 33  1  1  0  0  0
 13 34  1  6  0  0  0
  5 35  1  6  0  0  0
 19 36  1  6  0  0  0
  4 37  1  6  0  0  0
 30 38  1  0  0  0  0
 38 39  1  0  0  0  0
M  END
>  <cdx:fragmentId>
46

$$$$
