40257.cdx
  Mrv1902 05222410232D          

 29 30  0  0  0  0            999 V2000
    6.4905   -9.4066    0.0000 C   0  0  0  0  0  0  0  0  0  0  0  0
    7.2050   -8.9941    0.0000 C   0  0  0  0  0  0  0  0  0  0  0  0
    7.9195   -9.4066    0.0000 C   0  0  0  0  0  0  0  0  0  0  0  0
    5.7761   -8.9941    0.0000 C   0  0  0  0  0  0  0  0  0  0  0  0
    5.7761   -8.1691    0.0000 O   0  0  0  0  0  0  0  0  0  0  0  0
    5.0616   -9.4066    0.0000 O   0  0  0  0  0  0  0  0  0  0  0  0
    8.6339   -8.9941    0.0000 C   0  0  0  0  0  0  0  0  0  0  0  0
    8.6339   -8.1691    0.0000 O   0  0  0  0  0  0  0  0  0  0  0  0
    9.3484   -9.4066    0.0000 O   0  0  0  0  0  0  0  0  0  0  0  0
    7.2050   -9.8191    0.0000 O   0  0  0  0  0  0  0  0  0  0  0  0
    4.3471   -8.9941    0.0000 C   0  0  0  0  0  0  0  0  0  0  0  0
    3.6326   -9.4066    0.0000 C   0  0  0  0  0  0  0  0  0  0  0  0
    3.6326  -10.2316    0.0000 C   0  0  0  0  0  0  0  0  0  0  0  0
    2.9182  -10.6441    0.0000 C   0  0  0  0  0  0  0  0  0  0  0  0
    2.2037  -10.2316    0.0000 C   0  0  0  0  0  0  0  0  0  0  0  0
    2.2037   -9.4066    0.0000 C   0  0  0  0  0  0  0  0  0  0  0  0
    2.9182   -8.9941    0.0000 C   0  0  0  0  0  0  0  0  0  0  0  0
   10.0629   -8.9941    0.0000 C   0  0  0  0  0  0  0  0  0  0  0  0
   10.7774   -9.4066    0.0000 C   0  0  0  0  0  0  0  0  0  0  0  0
   11.4918   -8.9941    0.0000 C   0  0  0  0  0  0  0  0  0  0  0  0
   12.2063   -9.4066    0.0000 C   0  0  0  0  0  0  0  0  0  0  0  0
   12.2063  -10.2316    0.0000 C   0  0  0  0  0  0  0  0  0  0  0  0
   11.4918  -10.6441    0.0000 C   0  0  0  0  0  0  0  0  0  0  0  0
   10.7774  -10.2316    0.0000 C   0  0  0  0  0  0  0  0  0  0  0  0
   12.9208  -10.6441    0.0000 O   0  0  0  0  0  0  0  0  0  0  0  0
    1.4892  -10.6441    0.0000 O   0  0  0  0  0  0  0  0  0  0  0  0
    6.4905   -7.7566    0.0000 O   0  0  0  0  0  0  0  0  0  0  0  0
    7.9195   -7.7566    0.0000 O   0  0  0  0  0  0  0  0  0  0  0  0
    7.2050   -8.1691    0.0000 C   0  0  0  0  0  0  0  0  0  0  0  0
 29 27  1  0  0  0  0
  1  2  1  0  0  0  0
  2  3  1  0  0  0  0
  4  5  2  0  0  0  0
  4  6  1  0  0  0  0
  1  4  1  0  0  0  0
 29 28  2  0  0  0  0
  2 29  1  0  0  0  0
  7  8  2  0  0  0  0
  7  9  1  0  0  0  0
  3  7  1  0  0  0  0
  2 10  1  0  0  0  0
 12 13  1  0  0  0  0
 13 14  2  0  0  0  0
 14 15  1  0  0  0  0
 15 16  2  0  0  0  0
 16 17  1  0  0  0  0
 12 17  2  0  0  0  0
 15 26  1  0  0  0  0
 11 12  1  0  0  0  0
  6 11  1  0  0  0  0
 19 20  1  0  0  0  0
 20 21  2  0  0  0  0
 21 22  1  0  0  0  0
 22 23  2  0  0  0  0
 23 24  1  0  0  0  0
 19 24  2  0  0  0  0
 22 25  1  0  0  0  0
 18 19  1  0  0  0  0
  9 18  1  0  0  0  0
M  END
>  <cdx:fragmentId>
3377

$$$$
