40262.cdx
  Mrv1902 05222410202D          

 16 16  0  0  0  0            999 V2000
    5.5118   -9.5551    0.0000 C   0  0  0  0  0  0  0  0  0  0  0  0
    5.5118  -10.3801    0.0000 C   0  0  0  0  0  0  0  0  0  0  0  0
    6.2263  -10.7926    0.0000 C   0  0  0  0  0  0  0  0  0  0  0  0
    6.9407  -10.3801    0.0000 C   0  0  0  0  0  0  0  0  0  0  0  0
    6.9407   -9.5551    0.0000 C   0  0  0  0  0  0  0  0  0  0  0  0
    6.2263   -9.1426    0.0000 C   0  0  0  0  0  0  0  0  0  0  0  0
    6.2263  -11.6176    0.0000 O   0  0  0  0  0  0  0  0  0  0  0  0
    6.2263   -8.3176    0.0000 C   0  0  0  0  0  0  0  0  0  0  0  0
    6.9407   -7.9051    0.0000 C   0  0  0  0  0  0  0  0  0  0  0  0
    6.9407   -7.0801    0.0000 C   0  0  0  0  0  0  0  0  0  0  0  0
    7.6552   -6.6676    0.0000 C   0  0  0  0  0  0  0  0  0  0  0  0
    7.6552   -5.8426    0.0000 C   0  0  0  0  0  0  0  0  0  0  0  0
    6.9407   -5.4301    0.0000 O   0  0  0  0  0  0  0  0  0  0  0  0
    8.3697   -5.4301    0.0000 O   0  0  0  0  0  0  0  0  0  0  0  0
    8.3697   -7.0801    0.0000 O   0  0  0  0  0  0  0  0  0  0  0  0
    6.2263   -6.6676    0.0000 O   0  0  0  0  0  0  0  0  0  0  0  0
  1  2  2  0  0  0  0
  2  3  1  0  0  0  0
  3  4  2  0  0  0  0
  4  5  1  0  0  0  0
  5  6  2  0  0  0  0
  6  1  1  0  0  0  0
  3  7  1  0  0  0  0
  6  8  1  0  0  0  0
  8  9  2  0  0  0  0
  9 10  1  0  0  0  0
 10 11  1  0  0  0  0
 11 12  1  0  0  0  0
 12 13  2  0  0  0  0
 12 14  1  0  0  0  0
 11 15  1  0  0  0  0
 10 16  2  0  0  0  0
M  END
>  <cdx:fragmentId>
5

$$$$
