40269.cdx
  Mrv1902 05222410242D          

 11 11  0  0  0  0            999 V2000
    5.9243  -10.0089    0.0000 C   0  0  0  0  0  0  0  0  0  0  0  0
    5.9243  -10.8339    0.0000 C   0  0  0  0  0  0  0  0  0  0  0  0
    6.6388  -11.2464    0.0000 C   0  0  0  0  0  0  0  0  0  0  0  0
    7.3532  -10.8339    0.0000 C   0  0  0  0  0  0  0  0  0  0  0  0
    7.3532  -10.0089    0.0000 C   0  0  0  0  0  0  0  0  0  0  0  0
    6.6388   -9.5964    0.0000 C   0  0  0  0  0  0  0  0  0  0  0  0
    5.2098  -11.2464    0.0000 C   0  0  0  0  0  0  0  0  0  0  0  0
    5.2098   -9.5964    0.0000 C   0  0  0  0  0  0  0  0  0  0  0  0
    6.6388   -8.7714    0.0000 C   0  0  0  0  0  0  0  0  0  0  0  0
    8.0677   -9.5964    0.0000 C   0  0  0  0  0  0  0  0  0  0  0  0
    8.0677  -11.2464    0.0000 C   0  0  0  0  0  0  0  0  0  0  0  0
  1  2  2  0  0  0  0
  2  3  1  0  0  0  0
  3  4  2  0  0  0  0
  4  5  1  0  0  0  0
  5  6  2  0  0  0  0
  6  1  1  0  0  0  0
  2  7  1  0  0  0  0
  1  8  1  0  0  0  0
  6  9  1  0  0  0  0
  5 10  1  0  0  0  0
  4 11  1  0  0  0  0
M  END
>  <cdx:fragmentId>
5

$$$$
