40268.cdx
  Mrv1902 05222410242D          

 23 23  0  0  0  0            999 V2000
    5.1268  -14.9864    0.0000 C   0  0  0  0  0  0  0  0  0  0  0  0
    5.1268  -15.8114    0.0000 C   0  0  0  0  0  0  0  0  0  0  0  0
    5.8413  -16.2239    0.0000 C   0  0  0  0  0  0  0  0  0  0  0  0
    6.5557  -15.8114    0.0000 C   0  0  0  0  0  0  0  0  0  0  0  0
    6.5557  -14.9864    0.0000 C   0  0  0  0  0  0  0  0  0  0  0  0
    5.8413  -14.5739    0.0000 C   0  0  0  0  0  0  0  0  0  0  0  0
    5.8479  -13.7357    0.0000 C   0  0  0  0  0  0  0  0  0  0  0  0
    6.5600  -13.3191    0.0000 C   0  0  0  0  0  0  0  0  0  0  0  0
    6.5553  -12.4941    0.0000 C   0  0  0  0  0  0  0  0  0  0  0  0
    7.2674  -12.0775    0.0000 C   0  0  0  0  0  0  0  0  0  0  0  0
    7.2626  -11.2525    0.0000 C   0  0  0  0  0  0  0  0  0  0  0  0
    7.9747  -10.8359    0.0000 C   0  0  0  0  0  0  0  0  0  0  0  0
    7.9700  -10.0109    0.0000 C   0  0  0  0  0  0  0  0  0  0  0  0
    8.6821   -9.5944    0.0000 C   0  0  0  0  0  0  0  0  0  0  0  0
    8.6774   -8.7694    0.0000 C   0  0  0  0  0  0  0  0  0  0  0  0
    9.3895   -8.3528    0.0000 C   0  0  0  0  0  0  0  0  0  0  0  0
    9.3847   -7.5278    0.0000 C   0  0  0  0  0  0  0  0  0  0  0  0
   10.0968   -7.1112    0.0000 C   0  0  0  0  0  0  0  0  0  0  0  0
   10.0921   -6.2862    0.0000 C   0  0  0  0  0  0  0  0  0  0  0  0
   10.8042   -5.8696    0.0000 C   0  0  0  0  0  0  0  0  0  0  0  0
   10.7995   -5.0447    0.0000 C   0  0  0  0  0  0  0  0  0  0  0  0
    4.4123  -14.5739    0.0000 O   0  0  0  0  0  0  0  0  0  0  0  0
    7.2702  -14.5739    0.0000 O   0  0  0  0  0  0  0  0  0  0  0  0
  1  2  2  0  0  0  0
  2  3  1  0  0  0  0
  3  4  2  0  0  0  0
  4  5  1  0  0  0  0
  5  6  2  0  0  0  0
  6  1  1  0  0  0  0
  7  8  1  0  0  0  0
  8  9  1  0  0  0  0
  9 10  1  0  0  0  0
 10 11  1  0  0  0  0
 11 12  1  0  0  0  0
 12 13  1  0  0  0  0
 13 14  1  0  0  0  0
 14 15  1  0  0  0  0
 15 16  1  0  0  0  0
 16 17  1  0  0  0  0
 17 18  1  0  0  0  0
 18 19  1  0  0  0  0
 19 20  1  0  0  0  0
 20 21  1  0  0  0  0
  7  6  1  0  0  0  0
  1 22  1  0  0  0  0
  5 23  1  0  0  0  0
M  END
>  <cdx:fragmentId>
21

$$$$
