40261.cdx
  Mrv1902 05222410212D          

 79 88  0  0  0  0            999 V2000
   15.0940  -11.5494    0.0000 C   0  0  1  0  0  0  0  0  0  0  0  0
   15.8084  -11.1369    0.0000 C   0  0  2  0  0  0  0  0  0  0  0  0
   16.5930  -11.3919    0.0000 C   0  0  0  0  0  0  0  0  0  0  0  0
   17.0780  -10.7244    0.0000 C   0  0  2  0  0  0  0  0  0  0  0  0
   17.8626  -10.4695    0.0000 O   0  0  0  0  0  0  0  0  0  0  0  0
   17.8626   -9.6445    0.0000 C   0  0  2  0  0  0  0  0  0  0  0  0
   17.0780   -9.3895    0.0000 C   0  0  2  0  0  0  0  0  0  0  0  0
   16.5930  -10.0570    0.0000 C   0  0  2  0  0  0  0  0  0  0  0  0
   15.8084  -10.3119    0.0000 C   0  0  1  0  0  0  0  0  0  0  0  0
   15.0940   -9.8994    0.0000 C   0  0  0  0  0  0  0  0  0  0  0  0
   14.3795  -10.3119    0.0000 C   0  0  0  0  0  0  0  0  0  0  0  0
   14.3795  -11.1369    0.0000 C   0  0  2  0  0  0  0  0  0  0  0  0
   13.6650  -11.5494    0.0000 C   0  0  1  0  0  0  0  0  0  0  0  0
   12.9505  -11.1369    0.0000 C   0  0  1  0  0  0  0  0  0  0  0  0
   12.2361  -11.5494    0.0000 C   0  0  0  0  0  0  0  0  0  0  0  0
   12.2361  -12.3744    0.0000 C   0  0  1  0  0  0  0  0  0  0  0  0
   12.9505  -12.7869    0.0000 C   0  0  0  0  0  0  0  0  0  0  0  0
   13.6650  -12.3744    0.0000 C   0  0  0  0  0  0  0  0  0  0  0  0
   14.3795  -12.7869    0.0000 C   0  0  0  0  0  0  0  0  0  0  0  0
   15.0940  -12.3744    0.0000 C   0  0  0  0  0  0  0  0  0  0  0  0
   17.7764   -8.8240    0.0000 O   0  0  0  0  0  0  0  0  0  0  0  0
   18.6163   -9.9800    0.0000 C   0  0  0  0  0  0  0  0  0  0  0  0
   19.2837   -9.4951    0.0000 C   0  0  0  0  0  0  0  0  0  0  0  0
   19.1975   -8.6746    0.0000 C   0  0  0  0  0  0  0  0  0  0  0  0
   18.4438   -8.3391    0.0000 C   0  0  0  0  0  0  0  0  0  0  0  0
   13.6650  -10.7244    0.0000 C   0  0  0  0  0  0  0  0  0  0  0  0
   15.8084   -9.4869    0.0000 C   0  0  0  0  0  0  0  0  0  0  0  0
   16.4946   -8.8062    0.0000 C   0  0  0  0  0  0  0  0  0  0  0  0
   19.8649   -8.1897    0.0000 O   0  0  0  0  0  0  0  0  0  0  0  0
   15.0940  -10.7244    0.0000 H   0  0  0  0  0  0  0  0  0  0  0  0
   15.8084  -11.9619    0.0000 H   0  0  0  0  0  0  0  0  0  0  0  0
   17.5629  -11.3919    0.0000 H   0  0  0  0  0  0  0  0  0  0  0  0
   16.2314   -9.3155    0.0000 H   0  0  0  0  0  0  0  0  0  0  0  0
   14.3795  -11.9619    0.0000 H   0  0  0  0  0  0  0  0  0  0  0  0
   11.5216  -12.7869    0.0000 O   0  0  0  0  0  0  0  0  0  0  0  0
   17.2915   -8.5927    0.0000 H   0  0  0  0  0  0  0  0  0  0  0  0
   16.7081   -8.0093    0.0000 O   0  0  0  0  0  0  0  0  0  0  0  0
   12.9505  -10.3119    0.0000 O   0  0  0  0  0  0  0  0  0  0  0  0
   12.5336   -9.6000    0.0000 C   0  0  2  0  0  0  0  0  0  0  0  0
   12.9417   -8.8830    0.0000 O   0  0  0  0  0  0  0  0  0  0  0  0
   12.5248   -8.1711    0.0000 C   0  0  1  0  0  0  0  0  0  0  0  0
   11.6998   -8.1762    0.0000 C   0  0  2  0  0  0  0  0  0  0  0  0
   11.2917   -8.8932    0.0000 C   0  0  1  0  0  0  0  0  0  0  0  0
   11.7086   -9.6051    0.0000 C   0  0  1  0  0  0  0  0  0  0  0  0
   12.9329   -7.4541    0.0000 C   0  0  0  0  0  0  0  0  0  0  0  0
   10.4667   -8.8983    0.0000 O   0  0  0  0  0  0  0  0  0  0  0  0
   11.3006  -10.3221    0.0000 O   0  0  0  0  0  0  0  0  0  0  0  0
   11.2829   -7.4643    0.0000 O   0  0  0  0  0  0  0  0  0  0  0  0
   12.5159   -6.7422    0.0000 O   0  0  0  0  0  0  0  0  0  0  0  0
   10.5881  -10.7380    0.0000 C   0  0  2  0  0  0  0  0  0  0  0  0
   10.0498   -8.1864    0.0000 C   0  0  2  0  0  0  0  0  0  0  0  0
   10.4535   -7.4669    0.0000 O   0  0  0  0  0  0  0  0  0  0  0  0
   10.0498   -6.7576    0.0000 C   0  0  0  0  0  0  0  0  0  0  0  0
    9.2249   -6.7576    0.0000 C   0  0  2  0  0  0  0  0  0  0  0  0
    8.8213   -7.4669    0.0000 C   0  0  1  0  0  0  0  0  0  0  0  0
    9.2249   -8.1864    0.0000 C   0  0  1  0  0  0  0  0  0  0  0  0
    9.8716  -10.3289    0.0000 O   0  0  0  0  0  0  0  0  0  0  0  0
    9.1591  -10.7447    0.0000 C   0  0  2  0  0  0  0  0  0  0  0  0
    9.1630  -11.5697    0.0000 C   0  0  1  0  0  0  0  0  0  0  0  0
    9.8794  -11.9789    0.0000 C   0  0  2  0  0  0  0  0  0  0  0  0
   10.5920  -11.5630    0.0000 C   0  0  1  0  0  0  0  0  0  0  0  0
    8.8080   -8.8983    0.0000 O   0  0  0  0  0  0  0  0  0  0  0  0
    7.9963   -7.4644    0.0000 O   0  0  0  0  0  0  0  0  0  0  0  0
    8.8102   -6.0444    0.0000 O   0  0  0  0  0  0  0  0  0  0  0  0
    8.4505  -11.9856    0.0000 O   0  0  0  0  0  0  0  0  0  0  0  0
    9.8833  -12.8039    0.0000 O   0  0  0  0  0  0  0  0  0  0  0  0
   11.3084  -11.9721    0.0000 O   0  0  0  0  0  0  0  0  0  0  0  0
    8.4427  -10.3356    0.0000 C   0  0  0  0  0  0  0  0  0  0  0  0
   16.1248   -7.4259    0.0000 C   0  0  2  0  0  0  0  0  0  0  0  0
   16.3383   -6.6290    0.0000 O   0  0  0  0  0  0  0  0  0  0  0  0
   15.7549   -6.0457    0.0000 C   0  0  1  0  0  0  0  0  0  0  0  0
   14.9580   -6.2592    0.0000 C   0  0  1  0  0  0  0  0  0  0  0  0
   14.7445   -7.0561    0.0000 C   0  0  1  0  0  0  0  0  0  0  0  0
   15.3279   -7.6395    0.0000 C   0  0  1  0  0  0  0  0  0  0  0  0
   15.9685   -5.2488    0.0000 C   0  0  0  0  0  0  0  0  0  0  0  0
   14.3747   -5.6758    0.0000 O   0  0  0  0  0  0  0  0  0  0  0  0
   13.9476   -7.2696    0.0000 O   0  0  0  0  0  0  0  0  0  0  0  0
   15.1144   -8.4363    0.0000 O   0  0  0  0  0  0  0  0  0  0  0  0
   15.3851   -4.6654    0.0000 O   0  0  0  0  0  0  0  0  0  0  0  0
  1  2  1  0  0  0  0
  2  3  1  0  0  0  0
  3  4  1  0  0  0  0
  4  5  1  0  0  0  0
  6  5  1  6  0  0  0
  6  7  1  0  0  0  0
  7  8  1  0  0  0  0
  8  9  1  0  0  0  0
  9 10  1  0  0  0  0
 10 11  1  0  0  0  0
 11 12  1  0  0  0  0
 12 13  1  0  0  0  0
 13 14  1  0  0  0  0
 14 15  1  0  0  0  0
 15 16  1  0  0  0  0
 16 17  1  0  0  0  0
 17 18  1  0  0  0  0
 18 19  2  0  0  0  0
 19 20  1  0  0  0  0
  1 20  1  0  0  0  0
  1 12  1  0  0  0  0
 13 18  1  0  0  0  0
  2  9  1  0  0  0  0
  4  8  1  0  0  0  0
 22 23  1  0  0  0  0
 23 24  1  0  0  0  0
 24 25  1  0  0  0  0
 21 25  1  0  0  0  0
  6 21  1  0  0  0  0
  6 22  1  0  0  0  0
 13 26  1  1  0  0  0
  9 27  1  1  0  0  0
  7 28  1  6  0  0  0
 24 29  2  0  0  0  0
 16 35  1  1  0  0  0
  1 30  1  1  0  0  0
  2 31  1  6  0  0  0
  4 32  1  6  0  0  0
  8 33  1  6  0  0  0
 12 34  1  6  0  0  0
  7 36  1  1  0  0  0
 28 37  1  0  0  0  0
 14 38  1  1  0  0  0
 39 38  1  1  0  0  0
 39 40  1  0  0  0  0
 40 41  1  0  0  0  0
 41 42  1  0  0  0  0
 42 43  1  0  0  0  0
 43 44  1  0  0  0  0
 44 39  1  0  0  0  0
 41 45  1  1  0  0  0
 43 46  1  1  0  0  0
 44 47  1  6  0  0  0
 42 48  1  6  0  0  0
 45 49  1  0  0  0  0
 50 47  1  1  0  0  0
 51 46  1  1  0  0  0
 51 52  1  0  0  0  0
 52 53  1  0  0  0  0
 53 54  1  0  0  0  0
 54 55  1  0  0  0  0
 55 56  1  0  0  0  0
 56 51  1  0  0  0  0
 50 57  1  0  0  0  0
 57 58  1  0  0  0  0
 58 59  1  0  0  0  0
 59 60  1  0  0  0  0
 60 61  1  0  0  0  0
 61 50  1  0  0  0  0
 56 62  1  6  0  0  0
 55 63  1  1  0  0  0
 54 64  1  6  0  0  0
 59 65  1  1  0  0  0
 60 66  1  6  0  0  0
 61 67  1  6  0  0  0
 58 68  1  6  0  0  0
 69 37  1  1  0  0  0
 69 70  1  0  0  0  0
 70 71  1  0  0  0  0
 71 72  1  0  0  0  0
 72 73  1  0  0  0  0
 73 74  1  0  0  0  0
 74 69  1  0  0  0  0
 71 75  1  1  0  0  0
 72 76  1  1  0  0  0
 73 77  1  1  0  0  0
 74 78  1  6  0  0  0
 75 79  1  0  0  0  0
M  END
>  <cdx:fragmentId>
198565

$$$$
