4026.cdx
  Mrv1902 05222410232D          

 34 36  0  0  0  0            999 V2000
   10.0915   -7.6942    0.0000 O   0  0  0  0  0  0  0  0  0  0  0  0
    1.5179   -7.6942    0.0000 C   0  0  0  0  0  0  0  0  0  0  0  0
    5.0902   -8.9317    0.0000 C   0  0  0  0  0  0  0  0  0  0  0  0
    3.6613   -8.9317    0.0000 C   0  0  0  0  0  0  0  0  0  0  0  0
    4.3758   -8.5192    0.0000 C   0  0  0  0  0  0  0  0  0  0  0  0
    2.2324   -6.4567    0.0000 C   0  0  0  0  0  0  0  0  0  0  0  0
    2.2324   -7.2817    0.0000 C   0  0  0  0  0  0  0  0  0  0  0  0
    2.9468   -7.6942    0.0000 C   0  0  0  0  0  0  0  0  0  0  0  0
    3.6613   -6.4567    0.0000 O   0  0  0  0  0  0  0  0  0  0  0  0
    3.6613   -7.2817    0.0000 C   0  0  0  0  0  0  0  0  0  0  0  0
    4.3758   -7.6942    0.0000 C   0  0  2  0  0  0  0  0  0  0  0  0
    5.0902   -7.2817    0.0000 C   0  0  0  0  0  0  0  0  0  0  0  0
    6.5192   -3.9817    0.0000 O   0  0  0  0  0  0  0  0  0  0  0  0
    5.0902   -3.9817    0.0000 O   0  0  0  0  0  0  0  0  0  0  0  0
    7.9481   -7.2817    0.0000 C   0  0  0  0  0  0  0  0  0  0  0  0
    8.6626   -7.6942    0.0000 C   0  0  0  0  0  0  0  0  0  0  0  0
    9.3771   -7.2817    0.0000 C   0  0  0  0  0  0  0  0  0  0  0  0
    9.3771   -6.4567    0.0000 C   0  0  0  0  0  0  0  0  0  0  0  0
    7.9481   -6.4567    0.0000 C   0  0  0  0  0  0  0  0  0  0  0  0
    8.6626   -6.0442    0.0000 C   0  0  0  0  0  0  0  0  0  0  0  0
    6.5192   -6.4567    0.0000 O   0  0  0  0  0  0  0  0  0  0  0  0
    7.2337   -6.0442    0.0000 C   0  0  1  0  0  0  0  0  0  0  0  0
    7.2337   -5.2192    0.0000 C   0  0  0  0  0  0  0  0  0  0  0  0
    6.5192   -4.8067    0.0000 C   0  0  0  0  0  0  0  0  0  0  0  0
    5.0902   -6.4567    0.0000 C   0  0  0  0  0  0  0  0  0  0  0  0
    5.8047   -6.0442    0.0000 C   0  0  0  0  0  0  0  0  0  0  0  0
    5.8047   -5.2192    0.0000 C   0  0  0  0  0  0  0  0  0  0  0  0
    5.0902   -4.8067    0.0000 C   0  0  0  0  0  0  0  0  0  0  0  0
    4.3758   -5.2192    0.0000 C   0  0  0  0  0  0  0  0  0  0  0  0
    4.3758   -6.0442    0.0000 C   0  0  0  0  0  0  0  0  0  0  0  0
    4.3758   -3.5692    0.0000 C   0  0  0  0  0  0  0  0  0  0  0  0
    7.2337   -7.6942    0.0000 O   0  0  0  0  0  0  0  0  0  0  0  0
    7.2337   -8.5192    0.0000 C   0  0  0  0  0  0  0  0  0  0  0  0
    7.2337   -6.8692    0.0000 H   0  0  0  0  0  0  0  0  0  0  0  0
 17  1  1  0  0  0  0
  7  2  1  0  0  0  0
  5  3  2  0  0  0  0
  5  4  1  0  0  0  0
 11  5  1  0  0  0  0
  7  6  1  0  0  0  0
  8  7  2  0  0  0  0
 10  8  1  0  0  0  0
  9 30  1  0  0  0  0
 11 10  1  6  0  0  0
 12 11  1  0  0  0  0
 25 12  1  0  0  0  0
 13 24  2  0  0  0  0
 28 14  1  0  0  0  0
 15 19  2  0  0  0  0
 16 15  1  0  0  0  0
 17 16  2  0  0  0  0
 18 17  1  0  0  0  0
 20 18  2  0  0  0  0
 19 22  1  0  0  0  0
 20 19  1  0  0  0  0
 21 26  1  0  0  0  0
 22 21  1  0  0  0  0
 23 22  1  0  0  0  0
 24 23  1  0  0  0  0
 27 24  1  0  0  0  0
 25 30  1  0  0  0  0
 26 25  2  0  0  0  0
 27 26  1  0  0  0  0
 28 27  2  0  0  0  0
 29 28  1  0  0  0  0
 30 29  2  0  0  0  0
 14 31  1  0  0  0  0
 15 32  1  0  0  0  0
 32 33  1  0  0  0  0
 22 34  1  6  0  0  0
M  END
>  <cdx:fragmentId>
5

$$$$
