40279.cdx
  Mrv1902 05222410242D          

 17 18  0  0  0  0            999 V2000
    6.1438  -14.1751    0.0000 C   0  0  0  0  0  0  0  0  0  0  0  0
    6.8582  -13.7626    0.0000 O   0  0  0  0  0  0  0  0  0  0  0  0
    6.8582  -12.9376    0.0000 C   0  0  0  0  0  0  0  0  0  0  0  0
    6.1438  -12.5251    0.0000 C   0  0  0  0  0  0  0  0  0  0  0  0
    7.5727  -12.5251    0.0000 C   0  0  0  0  0  0  0  0  0  0  0  0
    7.5727  -11.7001    0.0000 C   0  0  0  0  0  0  0  0  0  0  0  0
    6.8582  -11.2876    0.0000 C   0  0  0  0  0  0  0  0  0  0  0  0
    6.1438  -11.7001    0.0000 C   0  0  0  0  0  0  0  0  0  0  0  0
    6.8582  -10.4626    0.0000 C   0  0  0  0  0  0  0  0  0  0  0  0
    6.1438  -10.0501    0.0000 O   0  0  0  0  0  0  0  0  0  0  0  0
    7.5727  -10.0501    0.0000 O   0  0  0  0  0  0  0  0  0  0  0  0
    7.5727   -9.2251    0.0000 C   0  0  0  0  0  0  0  0  0  0  0  0
    6.8582   -8.8126    0.0000 C   0  0  0  0  0  0  0  0  0  0  0  0
    8.2872   -8.8126    0.0000 C   0  0  0  0  0  0  0  0  0  0  0  0
    8.2872   -7.9876    0.0000 C   0  0  0  0  0  0  0  0  0  0  0  0
    7.5727   -7.5751    0.0000 C   0  0  0  0  0  0  0  0  0  0  0  0
    6.8582   -7.9876    0.0000 C   0  0  0  0  0  0  0  0  0  0  0  0
  1  2  1  0  0  0  0
  2  3  1  0  0  0  0
  3  4  1  0  0  0  0
  3  5  2  0  0  0  0
  5  6  1  0  0  0  0
  6  7  2  0  0  0  0
  7  8  1  0  0  0  0
  8  4  2  0  0  0  0
  7  9  1  0  0  0  0
  9 10  2  0  0  0  0
 11  9  1  0  0  0  0
 11 12  1  0  0  0  0
 12 13  2  0  0  0  0
 12 14  1  0  0  0  0
 14 15  2  0  0  0  0
 15 16  1  0  0  0  0
 16 17  2  0  0  0  0
 17 13  1  0  0  0  0
M  END
>  <cdx:fragmentId>
5

$$$$
