40277.cdx
  Mrv1902 05222410212D          

 23 26  0  0  0  0            999 V2000
    4.3213  -10.1755    0.0000 C   0  0  0  0  0  0  0  0  0  0  0  0
    4.3128  -11.0004    0.0000 C   0  0  0  0  0  0  0  0  0  0  0  0
    5.0229  -11.4203    0.0000 C   0  0  0  0  0  0  0  0  0  0  0  0
    5.7416  -11.0152    0.0000 C   0  0  0  0  0  0  0  0  0  0  0  0
    5.7502  -10.1903    0.0000 C   0  0  0  0  0  0  0  0  0  0  0  0
    5.0400   -9.7704    0.0000 C   0  0  0  0  0  0  0  0  0  0  0  0
    6.5236  -11.2783    0.0000 N   0  0  0  0  0  0  0  0  0  0  0  0
    7.0154  -10.6159    0.0000 C   0  0  0  0  0  0  0  0  0  0  0  0
    6.5374   -9.9435    0.0000 C   0  0  2  0  0  0  0  0  0  0  0  0
    6.8513  -12.0354    0.0000 C   0  0  0  0  0  0  0  0  0  0  0  0
    7.6709  -12.1301    0.0000 C   0  0  0  0  0  0  0  0  0  0  0  0
    8.1627  -11.4678    0.0000 C   0  0  0  0  0  0  0  0  0  0  0  0
    7.8349  -10.7106    0.0000 N   0  0  0  0  0  0  0  0  0  0  0  0
    7.9986  -12.8872    0.0000 C   0  0  0  0  0  0  0  0  0  0  0  0
    8.8181  -12.9820    0.0000 C   0  0  0  0  0  0  0  0  0  0  0  0
    9.3099  -12.3196    0.0000 C   0  0  0  0  0  0  0  0  0  0  0  0
    8.9822  -11.5625    0.0000 C   0  0  0  0  0  0  0  0  0  0  0  0
    6.3595  -12.6978    0.0000 O   0  0  0  0  0  0  0  0  0  0  0  0
    6.3239   -9.1466    0.0000 O   0  0  0  0  0  0  0  0  0  0  0  0
    7.1208   -9.3601    0.0000 C   0  0  0  0  0  0  0  0  0  0  0  0
    6.9072   -8.5632    0.0000 C   0  0  0  0  0  0  0  0  0  0  0  0
    7.4906   -7.9799    0.0000 O   0  0  0  0  0  0  0  0  0  0  0  0
    6.1103   -8.3497    0.0000 C   0  0  0  0  0  0  0  0  0  0  0  0
  1  2  2  0  0  0  0
  2  3  1  0  0  0  0
  3  4  2  0  0  0  0
  4  5  1  0  0  0  0
  5  6  2  0  0  0  0
  6  1  1  0  0  0  0
  4  7  1  0  0  0  0
  7  8  1  0  0  0  0
  8  9  1  0  0  0  0
  9  5  1  0  0  0  0
  7 10  1  0  0  0  0
 10 11  1  0  0  0  0
 11 12  1  0  0  0  0
 12 13  1  0  0  0  0
 13  8  2  0  0  0  0
 11 14  2  0  0  0  0
 14 15  1  0  0  0  0
 15 16  2  0  0  0  0
 16 17  1  0  0  0  0
 17 12  2  0  0  0  0
 10 18  2  0  0  0  0
  9 19  1  1  0  0  0
  9 20  1  0  0  0  0
 20 21  1  0  0  0  0
 21 22  2  0  0  0  0
 21 23  1  0  0  0  0
M  END
>  <cdx:fragmentId>
5

$$$$
