40272.cdx
  Mrv1902 05222410232D          

 18 17  0  0  0  0            999 V2000
    8.2674   -8.6710    0.0000 C   0  0  0  0  0  0  0  0  0  0  0  0
    7.5529   -9.0835    0.0000 C   0  0  0  0  0  0  0  0  0  0  0  0
    6.8384   -8.6710    0.0000 C   0  0  0  0  0  0  0  0  0  0  0  0
    6.1239   -9.0835    0.0000 C   0  0  0  0  0  0  0  0  0  0  0  0
    5.4095   -8.6710    0.0000 C   0  0  0  0  0  0  0  0  0  0  0  0
    4.6950   -9.0835    0.0000 C   0  0  0  0  0  0  0  0  0  0  0  0
    3.9805   -8.6710    0.0000 C   0  0  0  0  0  0  0  0  0  0  0  0
    3.2661   -9.0835    0.0000 C   0  0  0  0  0  0  0  0  0  0  0  0
    2.5516   -8.6710    0.0000 C   0  0  0  0  0  0  0  0  0  0  0  0
    2.5516   -7.8460    0.0000 C   0  0  0  0  0  0  0  0  0  0  0  0
    8.2674   -7.8460    0.0000 O   0  0  0  0  0  0  0  0  0  0  0  0
    8.9818   -9.0835    0.0000 O   0  0  0  0  0  0  0  0  0  0  0  0
    1.8371   -9.0835    0.0000 C   0  0  0  0  0  0  0  0  0  0  0  0
    9.6963   -8.6710    0.0000 C   0  0  0  0  0  0  0  0  0  0  0  0
   10.4108   -9.0835    0.0000 C   0  0  0  0  0  0  0  0  0  0  0  0
   11.1252   -8.6710    0.0000 C   0  0  0  0  0  0  0  0  0  0  0  0
   11.8397   -9.0835    0.0000 C   0  0  0  0  0  0  0  0  0  0  0  0
   12.5542   -8.6710    0.0000 C   0  0  0  0  0  0  0  0  0  0  0  0
  1  2  1  0  0  0  0
  2  3  1  0  0  0  0
  3  4  1  0  0  0  0
  4  5  1  0  0  0  0
  5  6  1  0  0  0  0
  6  7  1  0  0  0  0
  7  8  1  0  0  0  0
  8  9  1  0  0  0  0
  9 10  1  0  0  0  0
  1 11  2  0  0  0  0
  1 12  1  0  0  0  0
  9 13  1  0  0  0  0
 14 15  1  0  0  0  0
 15 16  1  0  0  0  0
 16 17  1  0  0  0  0
 17 18  1  0  0  0  0
 12 14  1  0  0  0  0
M  END
>  <cdx:fragmentId>
5

$$$$
