40274.cdx
  Mrv1902 05222410212D          

 50 54  0  0  0  0            999 V2000
    4.4668   -8.0701    0.0000 C   0  0  0  0  0  0  0  0  0  0  0  0
    4.4668   -8.8951    0.0000 C   0  0  0  0  0  0  0  0  0  0  0  0
    5.1813   -9.3076    0.0000 C   0  0  0  0  0  0  0  0  0  0  0  0
    5.8957   -8.8951    0.0000 C   0  0  0  0  0  0  0  0  0  0  0  0
    5.8957   -8.0701    0.0000 C   0  0  0  0  0  0  0  0  0  0  0  0
    5.1813   -7.6576    0.0000 C   0  0  0  0  0  0  0  0  0  0  0  0
    6.6102   -9.3076    0.0000 C   0  0  0  0  0  0  0  0  0  0  0  0
    7.3247   -8.8951    0.0000 C   0  0  0  0  0  0  0  0  0  0  0  0
    7.3247   -8.0701    0.0000 C   0  0  0  0  0  0  0  0  0  0  0  0
    6.6102   -7.6576    0.0000 O   0  3  0  0  0  0  0  0  0  0  0  0
    8.0392   -9.3076    0.0000 O   0  0  0  0  0  0  0  0  0  0  0  0
    8.7536   -8.0701    0.0000 C   0  0  0  0  0  0  0  0  0  0  0  0
    8.0392   -7.6576    0.0000 C   0  0  0  0  0  0  0  0  0  0  0  0
    9.4681   -7.6576    0.0000 C   0  0  0  0  0  0  0  0  0  0  0  0
    9.4681   -6.8326    0.0000 C   0  0  0  0  0  0  0  0  0  0  0  0
    8.7536   -6.4201    0.0000 C   0  0  0  0  0  0  0  0  0  0  0  0
    8.0392   -6.8326    0.0000 C   0  0  0  0  0  0  0  0  0  0  0  0
   10.1826   -8.0701    0.0000 O   0  0  0  0  0  0  0  0  0  0  0  0
   10.8970   -7.6576    0.0000 C   0  0  0  0  0  0  0  0  0  0  0  0
   10.1826   -6.4201    0.0000 O   0  0  0  0  0  0  0  0  0  0  0  0
    6.6102  -10.1326    0.0000 O   0  0  0  0  0  0  0  0  0  0  0  0
    7.3247  -10.5451    0.0000 C   0  0  1  0  0  0  0  0  0  0  0  0
    8.0392  -10.1326    0.0000 C   0  0  1  0  0  0  0  0  0  0  0  0
    7.3247  -11.3701    0.0000 C   0  0  2  0  0  0  0  0  0  0  0  0
    8.0392  -11.7826    0.0000 C   0  0  1  0  0  0  0  0  0  0  0  0
    8.7536  -11.3701    0.0000 C   0  0  2  0  0  0  0  0  0  0  0  0
    8.7536  -10.5451    0.0000 O   0  0  0  0  0  0  0  0  0  0  0  0
    8.0392  -12.6076    0.0000 O   0  0  0  0  0  0  0  0  0  0  0  0
    9.4681  -11.7826    0.0000 C   0  0  0  0  0  0  0  0  0  0  0  0
   10.8970  -12.6076    0.0000 O   0  0  0  0  0  0  0  0  0  0  0  0
   10.8970  -11.7826    0.0000 C   0  0  0  0  0  0  0  0  0  0  0  0
   10.1826  -11.3701    0.0000 O   0  0  0  0  0  0  0  0  0  0  0  0
   12.3260  -12.6076    0.0000 O   0  0  0  0  0  0  0  0  0  0  0  0
   12.3260  -11.7826    0.0000 C   0  0  0  0  0  0  0  0  0  0  0  0
   11.6115  -11.3701    0.0000 C   0  0  0  0  0  0  0  0  0  0  0  0
    3.7523  -10.1326    0.0000 O   0  0  0  0  0  0  0  0  0  0  0  0
    4.4668  -10.5451    0.0000 C   0  0  1  0  0  0  0  0  0  0  0  0
    5.1813  -10.1326    0.0000 O   0  0  0  0  0  0  0  0  0  0  0  0
    3.0379  -10.5451    0.0000 C   0  0  1  0  0  0  0  0  0  0  0  0
    3.0379  -11.3701    0.0000 C   0  0  2  0  0  0  0  0  0  0  0  0
    3.7523  -11.7826    0.0000 C   0  0  1  0  0  0  0  0  0  0  0  0
    4.4668  -11.3701    0.0000 C   0  0  1  0  0  0  0  0  0  0  0  0
    2.3234  -10.1326    0.0000 C   0  0  0  0  0  0  0  0  0  0  0  0
    1.6089  -10.5451    0.0000 O   0  0  0  0  0  0  0  0  0  0  0  0
    2.3234  -11.7826    0.0000 O   0  0  0  0  0  0  0  0  0  0  0  0
   13.0405  -11.3701    0.0000 O   0  0  0  0  0  0  0  0  0  0  0  0
    3.7523   -7.6576    0.0000 O   0  0  0  0  0  0  0  0  0  0  0  0
    3.7523  -12.6076    0.0000 O   0  0  0  0  0  0  0  0  0  0  0  0
    5.1813  -11.7826    0.0000 O   0  0  0  0  0  0  0  0  0  0  0  0
    6.6102  -11.7826    0.0000 O   0  0  0  0  0  0  0  0  0  0  0  0
  1  2  1  0  0  0  0
  2  3  2  0  0  0  0
  3  4  1  0  0  0  0
  4  5  1  0  0  0  0
  5  6  1  0  0  0  0
  6  1  2  0  0  0  0
  4  7  2  0  0  0  0
  7  8  1  0  0  0  0
  8  9  2  0  0  0  0
  9 10  1  0  0  0  0
 10  5  2  0  0  0  0
  8 11  1  0  0  0  0
 12 13  2  0  0  0  0
 13  9  1  0  0  0  0
 12 14  1  0  0  0  0
 14 15  2  0  0  0  0
 15 16  1  0  0  0  0
 16 17  2  0  0  0  0
 17 13  1  0  0  0  0
 14 18  1  0  0  0  0
 18 19  1  0  0  0  0
 20 15  1  0  0  0  0
 22 21  1  1  0  0  0
 22 23  1  0  0  0  0
 23 11  1  6  0  0  0
 22 24  1  0  0  0  0
 24 25  1  0  0  0  0
 25 26  1  0  0  0  0
 26 27  1  0  0  0  0
 27 23  1  0  0  0  0
 25 28  1  1  0  0  0
 26 29  1  6  0  0  0
 30 31  2  0  0  0  0
 31 32  1  0  0  0  0
 32 29  1  0  0  0  0
 33 34  2  0  0  0  0
 34 35  1  0  0  0  0
 35 31  1  0  0  0  0
 36 37  1  0  0  0  0
 37 38  1  1  0  0  0
 38  3  1  0  0  0  0
 36 39  1  0  0  0  0
 39 40  1  0  0  0  0
 40 41  1  0  0  0  0
 41 42  1  0  0  0  0
 42 37  1  0  0  0  0
 39 43  1  1  0  0  0
 43 44  1  0  0  0  0
 40 45  1  6  0  0  0
 34 46  1  0  0  0  0
  1 47  1  0  0  0  0
 41 48  1  1  0  0  0
 42 49  1  6  0  0  0
 24 50  1  6  0  0  0
M  CHG  1  10   1
M  END
>  <cdx:fragmentId>
5

$$$$
