40278.cdx
  Mrv1902 05222410252D          

 14 16  0  0  0  0            999 V2000
    4.2881  -10.1739    0.0000 C   0  0  0  0  0  0  0  0  0  0  0  0
    4.2881  -10.9989    0.0000 C   0  0  0  0  0  0  0  0  0  0  0  0
    5.0025  -11.4114    0.0000 C   0  0  0  0  0  0  0  0  0  0  0  0
    5.7170  -10.9989    0.0000 C   0  0  0  0  0  0  0  0  0  0  0  0
    5.7170  -10.1739    0.0000 C   0  0  0  0  0  0  0  0  0  0  0  0
    5.0025   -9.7614    0.0000 C   0  0  0  0  0  0  0  0  0  0  0  0
    6.4315  -11.4114    0.0000 C   0  0  0  0  0  0  0  0  0  0  0  0
    7.1459  -10.9989    0.0000 C   0  0  0  0  0  0  0  0  0  0  0  0
    7.1459  -10.1739    0.0000 C   0  0  0  0  0  0  0  0  0  0  0  0
    6.4315   -9.7614    0.0000 C   0  0  0  0  0  0  0  0  0  0  0  0
    7.8604   -9.7614    0.0000 C   0  0  0  0  0  0  0  0  0  0  0  0
    7.8604   -8.9364    0.0000 C   0  0  0  0  0  0  0  0  0  0  0  0
    7.1459   -8.5239    0.0000 C   0  0  0  0  0  0  0  0  0  0  0  0
    6.4315   -8.9364    0.0000 C   0  0  0  0  0  0  0  0  0  0  0  0
  1  2  2  0  0  0  0
  2  3  1  0  0  0  0
  3  4  2  0  0  0  0
  4  5  1  0  0  0  0
  5  6  2  0  0  0  0
  6  1  1  0  0  0  0
  4  7  1  0  0  0  0
  7  8  2  0  0  0  0
  8  9  1  0  0  0  0
  9 10  1  0  0  0  0
 10  5  1  0  0  0  0
  9 11  2  0  0  0  0
 11 12  1  0  0  0  0
 12 13  2  0  0  0  0
 13 14  1  0  0  0  0
 14 10  2  0  0  0  0
M  END
>  <cdx:fragmentId>
5

$$$$
