40271.cdx
  Mrv1902 05222410222D          

 17 16  0  0  0  0            999 V2000
    7.9101   -8.3135    0.0000 C   0  0  0  0  0  0  0  0  0  0  0  0
    7.1956   -8.7260    0.0000 C   0  0  0  0  0  0  0  0  0  0  0  0
    6.4812   -8.3135    0.0000 C   0  0  0  0  0  0  0  0  0  0  0  0
    5.7667   -8.7260    0.0000 C   0  0  0  0  0  0  0  0  0  0  0  0
    5.0522   -8.3135    0.0000 C   0  0  0  0  0  0  0  0  0  0  0  0
    4.3378   -8.7260    0.0000 C   0  0  0  0  0  0  0  0  0  0  0  0
    3.6233   -8.3135    0.0000 C   0  0  0  0  0  0  0  0  0  0  0  0
    2.9088   -8.7260    0.0000 C   0  0  0  0  0  0  0  0  0  0  0  0
    2.9088   -9.5510    0.0000 C   0  0  0  0  0  0  0  0  0  0  0  0
    7.9101   -7.4885    0.0000 O   0  0  0  0  0  0  0  0  0  0  0  0
    8.6246   -8.7260    0.0000 O   0  0  0  0  0  0  0  0  0  0  0  0
    2.1944   -8.3135    0.0000 C   0  0  0  0  0  0  0  0  0  0  0  0
    9.3391   -8.3135    0.0000 C   0  0  0  0  0  0  0  0  0  0  0  0
   10.0535   -8.7260    0.0000 C   0  0  0  0  0  0  0  0  0  0  0  0
   10.7680   -8.3135    0.0000 C   0  0  0  0  0  0  0  0  0  0  0  0
   11.4825   -8.7260    0.0000 C   0  0  0  0  0  0  0  0  0  0  0  0
   12.1969   -8.3135    0.0000 C   0  0  0  0  0  0  0  0  0  0  0  0
  1  2  1  0  0  0  0
  2  3  1  0  0  0  0
  3  4  1  0  0  0  0
  4  5  1  0  0  0  0
  5  6  1  0  0  0  0
  6  7  1  0  0  0  0
  7  8  1  0  0  0  0
  8  9  1  0  0  0  0
  1 10  2  0  0  0  0
  1 11  1  0  0  0  0
  8 12  1  0  0  0  0
 13 14  1  0  0  0  0
 14 15  1  0  0  0  0
 15 16  1  0  0  0  0
 16 17  1  0  0  0  0
 11 13  1  0  0  0  0
M  END
>  <cdx:fragmentId>
5

$$$$
