40275.cdx
  Mrv1902 05222410212D          

 51 57  0  0  0  0            999 V2000
    1.7031  -11.9889    0.0000 O   0  0  0  0  0  0  0  0  0  0  0  0
    2.4175  -13.2264    0.0000 O   0  0  0  0  0  0  0  0  0  0  0  0
    3.1320  -12.8139    0.0000 C   0  0  2  0  0  0  0  0  0  0  0  0
    3.1320  -11.9889    0.0000 C   0  0  1  0  0  0  0  0  0  0  0  0
    2.4175  -11.5764    0.0000 C   0  0  0  0  0  0  0  0  0  0  0  0
    3.8465  -13.2264    0.0000 C   0  0  1  0  0  0  0  0  0  0  0  0
    4.5609  -12.8139    0.0000 C   0  0  2  0  0  0  0  0  0  0  0  0
    4.5609  -11.9889    0.0000 C   0  0  1  0  0  0  0  0  0  0  0  0
    3.8465  -11.5764    0.0000 O   0  0  0  0  0  0  0  0  0  0  0  0
    5.2754  -11.5764    0.0000 O   0  0  0  0  0  0  0  0  0  0  0  0
    5.2754  -10.7514    0.0000 C   0  0  2  0  0  0  0  0  0  0  0  0
    4.5609  -10.3389    0.0000 C   0  0  1  0  0  0  0  0  0  0  0  0
    3.8465  -10.7514    0.0000 C   0  0  0  0  0  0  0  0  0  0  0  0
    5.9899  -10.3389    0.0000 C   0  0  2  0  0  0  0  0  0  0  0  0
    5.9899   -9.5139    0.0000 C   0  0  0  0  0  0  0  0  0  0  0  0
    5.2754   -9.1014    0.0000 C   0  0  1  0  0  0  0  0  0  0  0  0
    4.5609   -9.5139    0.0000 O   0  0  0  0  0  0  0  0  0  0  0  0
    6.7044   -8.2764    0.0000 C   0  0  0  0  0  0  0  0  0  0  0  0
    5.9899   -7.8639    0.0000 C   0  0  2  0  0  0  0  0  0  0  0  0
    5.2754   -8.2764    0.0000 O   0  0  0  0  0  0  0  0  0  0  0  0
    7.4188   -7.8639    0.0000 C   0  0  0  0  0  0  0  0  0  0  0  0
    7.4188   -7.0389    0.0000 C   0  0  1  0  0  0  0  0  0  0  0  0
    6.7044   -6.6264    0.0000 C   0  0  1  0  0  0  0  0  0  0  0  0
    5.9899   -7.0389    0.0000 C   0  0  0  0  0  0  0  0  0  0  0  0
    8.1333   -6.6264    0.0000 C   0  0  2  0  0  0  0  0  0  0  0  0
    8.1333   -5.8014    0.0000 C   0  0  1  0  0  0  0  0  0  0  0  0
    7.4188   -5.3889    0.0000 C   0  0  0  0  0  0  0  0  0  0  0  0
    6.7044   -5.8014    0.0000 C   0  0  0  0  0  0  0  0  0  0  0  0
    8.8478   -7.0389    0.0000 C   0  0  0  0  0  0  0  0  0  0  0  0
    9.5622   -6.6264    0.0000 C   0  0  0  0  0  0  0  0  0  0  0  0
    9.5622   -5.8014    0.0000 C   0  0  1  0  0  0  0  0  0  0  0  0
    8.8478   -5.3889    0.0000 C   0  0  2  0  0  0  0  0  0  0  0  0
   10.1753   -5.2494    0.0000 C   0  0  2  0  0  0  0  0  0  0  0  0
    9.8398   -4.4957    0.0000 C   0  0  0  0  0  0  0  0  0  0  0  0
    9.0193   -4.5819    0.0000 C   0  0  0  0  0  0  0  0  0  0  0  0
   10.9823   -5.4209    0.0000 C   0  0  0  0  0  0  0  0  0  0  0  0
   11.3179   -6.1746    0.0000 C   0  0  0  0  0  0  0  0  0  0  0  0
   12.1383   -6.0883    0.0000 C   0  0  0  0  0  0  0  0  0  0  0  0
   12.3099   -5.2814    0.0000 O   0  0  0  0  0  0  0  0  0  0  0  0
   11.5954   -4.8689    0.0000 C   0  0  0  0  0  0  0  0  0  0  0  0
    6.7044  -10.7514    0.0000 O   0  0  0  0  0  0  0  0  0  0  0  0
    7.4188  -10.3389    0.0000 C   0  0  0  0  0  0  0  0  0  0  0  0
   12.6904   -6.7014    0.0000 O   0  0  0  0  0  0  0  0  0  0  0  0
    3.8465  -14.0514    0.0000 O   0  0  0  0  0  0  0  0  0  0  0  0
    5.2754  -13.2264    0.0000 O   0  0  0  0  0  0  0  0  0  0  0  0
    5.9899   -6.2139    0.0000 O   0  0  0  0  0  0  0  0  0  0  0  0
    8.1333   -7.4514    0.0000 C   0  0  0  0  0  0  0  0  0  0  0  0
    8.9302   -6.0149    0.0000 H   0  0  0  0  0  0  0  0  0  0  0  0
    8.1333   -4.9764    0.0000 O   0  0  0  0  0  0  0  0  0  0  0  0
   10.2767   -6.2139    0.0000 C   0  0  0  0  0  0  0  0  0  0  0  0
    8.9302   -6.4129    0.0000 H   0  0  0  0  0  0  0  0  0  0  0  0
  3  2  1  6  0  0  0
  3  4  1  0  0  0  0
  4  5  1  1  0  0  0
  5  1  1  0  0  0  0
  3  6  1  0  0  0  0
  6  7  1  0  0  0  0
  7  8  1  0  0  0  0
  8  9  1  0  0  0  0
  9  4  1  0  0  0  0
  8 10  1  1  0  0  0
 11 10  1  6  0  0  0
 11 12  1  0  0  0  0
 12 13  1  1  0  0  0
 11 14  1  0  0  0  0
 14 15  1  0  0  0  0
 15 16  1  0  0  0  0
 16 17  1  0  0  0  0
 17 12  1  0  0  0  0
 18 19  1  0  0  0  0
 19 20  1  6  0  0  0
 16 20  1  1  0  0  0
 18 21  1  0  0  0  0
 21 22  1  0  0  0  0
 22 23  1  0  0  0  0
 23 24  1  0  0  0  0
 24 19  1  0  0  0  0
 22 25  1  0  0  0  0
 25 26  1  0  0  0  0
 26 27  1  0  0  0  0
 27 28  1  0  0  0  0
 28 23  1  0  0  0  0
 25 29  1  0  0  0  0
 29 30  1  0  0  0  0
 30 31  1  0  0  0  0
 31 32  1  0  0  0  0
 32 26  1  0  0  0  0
 31 33  1  0  0  0  0
 33 34  1  0  0  0  0
 34 35  1  0  0  0  0
 35 32  1  0  0  0  0
 33 36  1  6  0  0  0
 36 37  2  0  0  0  0
 37 38  1  0  0  0  0
 38 39  1  0  0  0  0
 39 40  1  0  0  0  0
 40 36  1  0  0  0  0
 14 41  1  6  0  0  0
 41 42  1  0  0  0  0
 38 43  2  0  0  0  0
  6 44  1  1  0  0  0
  7 45  1  6  0  0  0
 23 46  1  6  0  0  0
 22 47  1  6  0  0  0
 26 48  1  6  0  0  0
 32 49  1  6  0  0  0
 31 50  1  6  0  0  0
 25 51  1  1  0  0  0
M  END
>  <cdx:fragmentId>
5

$$$$
