402879.cdx
  Mrv1902 05222410182D          

 31 32  0  0  0  0            999 V2000
    9.9934   -8.3560    0.0000 H   0  0  0  0  0  0  0  0  0  0  0  0
    8.4253   -8.6768    0.0000 H   0  0  0  0  0  0  0  0  0  0  0  0
    8.4164   -6.2018    0.0000 H   0  0  0  0  0  0  0  0  0  0  0  0
   11.3385  -10.0085    0.0000 C   0  0  0  0  0  0  0  0  0  0  0  0
    9.9811  -10.4550    0.0000 O   0  0  0  0  0  0  0  0  0  0  0  0
   10.5309   -9.8399    0.0000 C   0  0  0  0  0  0  0  0  0  0  0  0
   10.2732   -9.0562    0.0000 O   0  0  0  0  0  0  0  0  0  0  0  0
    8.9157   -9.5027    0.0000 C   0  0  0  0  0  0  0  0  0  0  0  0
    9.4656   -8.8876    0.0000 C   0  0  2  0  0  0  0  0  0  0  0  0
    7.7004   -5.7918    0.0000 C   0  0  0  0  0  0  0  0  0  0  0  0
   10.5153   -7.4317    0.0000 O   0  0  0  0  0  0  0  0  0  0  0  0
    8.4282   -9.5018    0.0000 C   0  0  0  0  0  0  0  0  0  0  0  0
    7.7123   -9.0918    0.0000 C   0  0  0  0  0  0  0  0  0  0  0  0
    6.9993   -9.5069    0.0000 C   0  0  0  0  0  0  0  0  0  0  0  0
    8.4223   -7.8518    0.0000 C   0  0  1  0  0  0  0  0  0  0  0  0
    7.7093   -8.2668    0.0000 C   0  0  1  0  0  0  0  0  0  0  0  0
    6.9934   -7.8569    0.0000 C   0  0  0  0  0  0  0  0  0  0  0  0
    6.9904   -7.0319    0.0000 C   0  0  2  0  0  0  0  0  0  0  0  0
    7.7034   -6.6168    0.0000 C   0  0  0  0  0  0  0  0  0  0  0  0
    8.4193   -7.0268    0.0000 C   0  0  2  0  0  0  0  0  0  0  0  0
    9.2030   -6.7690    0.0000 C   0  0  0  0  0  0  0  0  0  0  0  0
    9.6903   -7.4347    0.0000 C   0  0  0  0  0  0  0  0  0  0  0  0
    9.2078   -8.1039    0.0000 C   0  0  2  0  0  0  0  0  0  0  0  0
    4.1355   -7.8672    0.0000 C   0  0  0  0  0  0  0  0  0  0  0  0
    6.2744   -6.6220    0.0000 O   0  0  0  0  0  0  0  0  0  0  0  0
    5.5644   -7.8620    0.0000 O   0  0  0  0  0  0  0  0  0  0  0  0
    2.7036   -7.0473    0.0000 C   0  0  0  0  0  0  0  0  0  0  0  0
    3.4166   -6.6322    0.0000 C   0  0  0  0  0  0  0  0  0  0  0  0
    4.1325   -7.0422    0.0000 C   0  0  0  0  0  0  0  0  0  0  0  0
    4.8455   -6.6271    0.0000 C   0  0  0  0  0  0  0  0  0  0  0  0
    5.5615   -7.0370    0.0000 C   0  0  0  0  0  0  0  0  0  0  0  0
 23  1  1  1  0  0  0
 15  2  1  6  0  0  0
 20  3  1  1  0  0  0
 18 25  1  1  0  0  0
 23  9  1  0  0  0  0
  9  7  1  6  0  0  0
  7  6  1  0  0  0  0
  6  4  1  0  0  0  0
  6  5  2  0  0  0  0
  9  8  1  0  0  0  0
 19 10  2  0  0  0  0
 22 11  2  0  0  0  0
 16 13  1  6  0  0  0
 13 12  1  0  0  0  0
 14 13  1  0  0  0  0
 20 15  1  0  0  0  0
 23 15  1  0  0  0  0
 16 15  1  0  0  0  0
 17 16  1  0  0  0  0
 18 17  1  0  0  0  0
 19 18  1  0  0  0  0
 20 19  1  0  0  0  0
 21 20  1  0  0  0  0
 22 21  1  0  0  0  0
 23 22  1  0  0  0  0
 29 24  1  0  0  0  0
 31 25  1  0  0  0  0
 31 26  2  0  0  0  0
 28 27  1  0  0  0  0
 29 28  1  0  0  0  0
 30 29  2  0  0  0  0
 31 30  1  0  0  0  0
M  END
>  <cdx:groupId>
99454

>  <cdx:fragmentId>
99382

$$$$
