40283.cdx
  Mrv1902 05222410242D          

 26 27  0  0  0  0            999 V2000
    5.7593   -9.8714    0.0000 C   0  0  2  0  0  0  0  0  0  0  0  0
    5.7593  -10.6964    0.0000 C   0  0  2  0  0  0  0  0  0  0  0  0
    6.4738  -11.1089    0.0000 C   0  0  1  0  0  0  0  0  0  0  0  0
    7.1882  -10.6964    0.0000 C   0  0  2  0  0  0  0  0  0  0  0  0
    7.1882   -9.8714    0.0000 C   0  0  1  0  0  0  0  0  0  0  0  0
    6.4738   -9.4589    0.0000 O   0  0  0  0  0  0  0  0  0  0  0  0
    4.3304   -9.8714    0.0000 O   0  0  0  0  0  0  0  0  0  0  0  0
    5.0448   -9.4589    0.0000 C   0  0  0  0  0  0  0  0  0  0  0  0
    7.9027   -9.4589    0.0000 S   0  0  0  0  0  0  0  0  0  0  0  0
    7.9027   -8.6339    0.0000 C   0  0  0  0  0  0  0  0  0  0  0  0
    7.1882   -8.2214    0.0000 N   0  0  0  0  0  0  0  0  0  0  0  0
    8.6172   -8.2214    0.0000 C   0  0  0  0  0  0  0  0  0  0  0  0
    8.6172   -7.3964    0.0000 C   0  0  0  0  0  0  0  0  0  0  0  0
    7.9027   -6.9839    0.0000 C   0  0  0  0  0  0  0  0  0  0  0  0
    7.1882   -7.3964    0.0000 O   0  0  0  0  0  0  0  0  0  0  0  0
    9.3317   -6.9839    0.0000 C   0  0  0  0  0  0  0  0  0  0  0  0
    9.3317   -6.1589    0.0000 C   0  0  0  0  0  0  0  0  0  0  0  0
    8.6172   -5.7464    0.0000 C   0  0  0  0  0  0  0  0  0  0  0  0
    7.9027   -6.1589    0.0000 C   0  0  0  0  0  0  0  0  0  0  0  0
    5.0448  -11.1089    0.0000 O   0  0  0  0  0  0  0  0  0  0  0  0
    6.4738  -11.9339    0.0000 O   0  0  0  0  0  0  0  0  0  0  0  0
    7.9027  -11.1089    0.0000 O   0  0  0  0  0  0  0  0  0  0  0  0
    6.4738   -6.9839    0.0000 S   0  0  0  0  0  0  0  0  0  0  0  0
    5.7593   -6.5714    0.0000 O   0  0  0  0  0  0  0  0  0  0  0  0
    6.8863   -6.2694    0.0000 O   0  0  0  0  0  0  0  0  0  0  0  0
    6.0613   -7.6984    0.0000 O   0  0  0  0  0  0  0  0  0  0  0  0
  1  2  1  0  0  0  0
  2  3  1  0  0  0  0
  3  4  1  0  0  0  0
  4  5  1  0  0  0  0
  5  6  1  0  0  0  0
  6  1  1  0  0  0  0
  7  8  1  0  0  0  0
  1  8  1  1  0  0  0
  5  9  1  1  0  0  0
  9 10  1  0  0  0  0
 10 11  2  0  0  0  0
 10 12  1  0  0  0  0
 12 13  1  0  0  0  0
 13 14  2  0  0  0  0
 15 11  1  0  0  0  0
 13 16  1  0  0  0  0
 16 17  2  0  0  0  0
 17 18  1  0  0  0  0
 18 19  2  0  0  0  0
 19 14  1  0  0  0  0
  2 20  1  6  0  0  0
  3 21  1  1  0  0  0
  4 22  1  6  0  0  0
 15 23  1  0  0  0  0
 23 24  1  0  0  0  0
 23 25  2  0  0  0  0
 23 26  2  0  0  0  0
M  END
>  <cdx:fragmentId>
5

$$$$
