40284.cdx
  Mrv1902 05222410262D          

 14 14  0  0  0  0            999 V2000
    5.8281  -12.9239    0.0000 C   0  0  0  0  0  0  0  0  0  0  0  0
    5.8281  -13.7489    0.0000 C   0  0  0  0  0  0  0  0  0  0  0  0
    6.5425  -14.1614    0.0000 C   0  0  0  0  0  0  0  0  0  0  0  0
    7.2570  -13.7489    0.0000 C   0  0  0  0  0  0  0  0  0  0  0  0
    7.2570  -12.9239    0.0000 C   0  0  0  0  0  0  0  0  0  0  0  0
    6.5425  -12.5114    0.0000 C   0  0  0  0  0  0  0  0  0  0  0  0
    6.5457  -11.7060    0.0000 C   0  0  0  0  0  0  0  0  0  0  0  0
    7.2559  -11.2862    0.0000 C   0  0  0  0  0  0  0  0  0  0  0  0
    7.2474  -10.4613    0.0000 C   0  0  0  0  0  0  0  0  0  0  0  0
    7.9576  -10.0414    0.0000 C   0  0  0  0  0  0  0  0  0  0  0  0
    7.9491   -9.2165    0.0000 C   0  0  0  0  0  0  0  0  0  0  0  0
    8.6593   -8.7967    0.0000 C   0  0  0  0  0  0  0  0  0  0  0  0
    8.6508   -7.9717    0.0000 C   0  0  0  0  0  0  0  0  0  0  0  0
    9.3610   -7.5519    0.0000 C   0  0  0  0  0  0  0  0  0  0  0  0
  1  2  2  0  0  0  0
  2  3  1  0  0  0  0
  3  4  2  0  0  0  0
  4  5  1  0  0  0  0
  5  6  2  0  0  0  0
  6  1  1  0  0  0  0
  7  8  1  0  0  0  0
  8  9  1  0  0  0  0
  9 10  1  0  0  0  0
 10 11  1  0  0  0  0
 11 12  1  0  0  0  0
 12 13  1  0  0  0  0
 13 14  1  0  0  0  0
  7  6  1  0  0  0  0
M  END
>  <cdx:fragmentId>
21

$$$$
