40280.cdx
  Mrv1902 05222410232D          

 10 10  0  0  0  0            999 V2000
    6.4193   -7.8639    0.0000 C   0  0  0  0  0  0  0  0  0  0  0  0
    6.4193   -8.6889    0.0000 C   0  0  0  0  0  0  0  0  0  0  0  0
    7.1338   -9.1014    0.0000 C   0  0  0  0  0  0  0  0  0  0  0  0
    7.8482   -8.6889    0.0000 C   0  0  0  0  0  0  0  0  0  0  0  0
    7.8482   -7.8639    0.0000 C   0  0  0  0  0  0  0  0  0  0  0  0
    7.1338   -7.4514    0.0000 C   0  0  0  0  0  0  0  0  0  0  0  0
    7.1338   -6.6264    0.0000 O   0  0  0  0  0  0  0  0  0  0  0  0
    7.8482   -6.2139    0.0000 C   0  0  0  0  0  0  0  0  0  0  0  0
    7.8482   -5.3889    0.0000 C   0  0  0  0  0  0  0  0  0  0  0  0
    8.5627   -6.6264    0.0000 O   0  0  0  0  0  0  0  0  0  0  0  0
  1  2  2  0  0  0  0
  2  3  1  0  0  0  0
  3  4  2  0  0  0  0
  4  5  1  0  0  0  0
  5  6  2  0  0  0  0
  6  1  1  0  0  0  0
  6  7  1  0  0  0  0
  7  8  1  0  0  0  0
  8  9  1  0  0  0  0
  8 10  2  0  0  0  0
M  END
>  <cdx:fragmentId>
5

$$$$
