40288.cdx
  Mrv1902 05222410212D          

 36 41  0  0  0  0            999 V2000
    2.2948   -9.4291    0.0000 O   0  0  0  0  0  0  0  0  0  0  0  0
    8.0298   -6.9877    0.0000 C   0  0  0  0  0  0  0  0  0  0  0  0
   12.3138   -7.0212    0.0000 C   0  0  0  0  0  0  0  0  0  0  0  0
   11.6021   -6.6039    0.0000 O   0  0  0  0  0  0  0  0  0  0  0  0
    8.7443   -6.5848    0.0000 O   0  0  0  0  0  0  0  0  0  0  0  0
    3.0176   -8.1964    0.0000 C   0  0  0  0  0  0  0  0  0  0  0  0
    3.0120   -9.0214    0.0000 C   0  0  0  0  0  0  0  0  0  0  0  0
    3.7237   -9.4387    0.0000 C   0  0  0  0  0  0  0  0  0  0  0  0
    4.4409   -9.0310    0.0000 C   0  0  0  0  0  0  0  0  0  0  0  0
    4.4575   -6.5561    0.0000 C   0  0  0  0  0  0  0  0  0  0  0  0
    3.7403   -6.9638    0.0000 C   0  0  0  0  0  0  0  0  0  0  0  0
    3.7348   -7.7887    0.0000 C   0  0  0  0  0  0  0  0  0  0  0  0
    4.4465   -8.2060    0.0000 C   0  0  0  0  0  0  0  0  0  0  0  0
    5.8864   -6.5656    0.0000 C   0  0  0  0  0  0  0  0  0  0  0  0
    5.1692   -6.9733    0.0000 C   0  0  0  0  0  0  0  0  0  0  0  0
    5.1637   -7.7983    0.0000 C   0  0  0  0  0  0  0  0  0  0  0  0
    5.8754   -8.2156    0.0000 C   0  0  0  0  0  0  0  0  0  0  0  0
    5.8699   -9.0406    0.0000 O   0  0  0  0  0  0  0  0  0  0  0  0
    6.5815   -9.4578    0.0000 O   0  0  0  0  0  0  0  0  0  0  0  0
    7.3153   -6.5752    0.0000 O   0  0  0  0  0  0  0  0  0  0  0  0
    6.5981   -6.9829    0.0000 C   0  0  0  0  0  0  0  0  0  0  0  0
    6.5926   -7.8079    0.0000 C   0  0  0  0  0  0  0  0  0  0  0  0
    8.0215   -7.8175    0.0000 C   0  0  0  0  0  0  0  0  0  0  0  0
    7.3043   -8.2252    0.0000 C   0  0  0  0  0  0  0  0  0  0  0  0
    7.2988   -9.0501    0.0000 C   0  0  0  0  0  0  0  0  0  0  0  0
    8.0105   -9.4674    0.0000 C   0  0  0  0  0  0  0  0  0  0  0  0
    8.7332   -8.2347    0.0000 C   0  0  0  0  0  0  0  0  0  0  0  0
    8.7277   -9.0597    0.0000 C   0  0  0  0  0  0  0  0  0  0  0  0
    9.4394   -9.4770    0.0000 C   0  0  0  0  0  0  0  0  0  0  0  0
   10.1566   -9.0693    0.0000 C   0  0  0  0  0  0  0  0  0  0  0  0
    9.4559   -7.0020    0.0000 C   0  0  0  0  0  0  0  0  0  0  0  0
    9.4504   -7.8270    0.0000 C   0  0  0  0  0  0  0  0  0  0  0  0
   10.1621   -8.2443    0.0000 C   0  0  0  0  0  0  0  0  0  0  0  0
   10.8793   -7.8366    0.0000 C   0  0  0  0  0  0  0  0  0  0  0  0
   10.8849   -7.0116    0.0000 C   0  0  0  0  0  0  0  0  0  0  0  0
   10.1732   -6.5943    0.0000 C   0  0  0  0  0  0  0  0  0  0  0  0
  7  1  1  0  0  0  0
 20  2  1  0  0  0  0
  4  3  1  0  0  0  0
 35  4  1  0  0  0  0
 31  5  1  0  0  0  0
  6 12  1  0  0  0  0
  7  6  2  0  0  0  0
  8  7  1  0  0  0  0
  9  8  2  0  0  0  0
 13  9  1  0  0  0  0
 10 15  1  0  0  0  0
 11 10  1  0  0  0  0
 12 11  1  0  0  0  0
 13 12  2  0  0  0  0
 16 13  1  0  0  0  0
 14 21  1  0  0  0  0
 15 14  2  0  0  0  0
 16 15  1  0  0  0  0
 17 16  2  0  0  0  0
 17 22  1  0  0  0  0
 18 17  1  0  0  0  0
 25 19  1  0  0  0  0
 21 20  1  0  0  0  0
 22 21  2  0  0  0  0
 24 22  1  0  0  0  0
 23 27  2  0  0  0  0
 24 23  1  0  0  0  0
 25 24  2  0  0  0  0
 26 25  1  0  0  0  0
 28 26  2  0  0  0  0
 27 32  1  0  0  0  0
 28 27  1  0  0  0  0
 29 28  1  0  0  0  0
 30 29  1  0  0  0  0
 33 30  1  0  0  0  0
 31 36  2  0  0  0  0
 32 31  1  0  0  0  0
 33 32  2  0  0  0  0
 34 33  1  0  0  0  0
 35 34  2  0  0  0  0
 36 35  1  0  0  0  0
M  END
>  <cdx:fragmentId>
5

$$$$
