40302.cdx
  Mrv1902 05222410202D          

 21 20  0  0  0  0            999 V2000
    2.0875   -8.8275    0.0000 C   0  0  0  0  0  0  0  0  0  0  0  0
    2.8020   -8.4150    0.0000 C   0  0  0  0  0  0  0  0  0  0  0  0
    3.5165   -8.8275    0.0000 C   0  0  0  0  0  0  0  0  0  0  0  0
    4.2309   -8.4150    0.0000 C   0  0  0  0  0  0  0  0  0  0  0  0
    4.9454   -8.8275    0.0000 C   0  0  0  0  0  0  0  0  0  0  0  0
    5.6599   -8.4150    0.0000 C   0  0  0  0  0  0  0  0  0  0  0  0
    6.3744   -8.8275    0.0000 C   0  0  0  0  0  0  0  0  0  0  0  0
    7.0888   -8.4150    0.0000 C   0  0  0  0  0  0  0  0  0  0  0  0
    7.8033   -8.8275    0.0000 C   0  0  0  0  0  0  0  0  0  0  0  0
    8.5178   -8.4150    0.0000 C   0  0  0  0  0  0  0  0  0  0  0  0
    9.2322   -8.8275    0.0000 C   0  0  0  0  0  0  0  0  0  0  0  0
    9.9467   -8.4150    0.0000 C   0  0  0  0  0  0  0  0  0  0  0  0
   10.6612   -8.8275    0.0000 C   0  0  0  0  0  0  0  0  0  0  0  0
   11.3756   -8.4150    0.0000 C   0  0  0  0  0  0  0  0  0  0  0  0
   12.0901   -8.8275    0.0000 C   0  0  0  0  0  0  0  0  0  0  0  0
   12.8046   -8.4150    0.0000 C   0  0  0  0  0  0  0  0  0  0  0  0
    3.5165   -9.6525    0.0000 C   0  0  0  0  0  0  0  0  0  0  0  0
    4.2309   -7.5900    0.0000 H   0  0  0  0  0  0  0  0  0  0  0  0
    6.3744   -9.6525    0.0000 C   0  0  0  0  0  0  0  0  0  0  0  0
    9.2322   -9.6525    0.0000 C   0  0  0  0  0  0  0  0  0  0  0  0
   12.0901   -9.6525    0.0000 C   0  0  0  0  0  0  0  0  0  0  0  0
  1  2  2  0  0  0  0
  2  3  1  0  0  0  0
  3  4  2  0  0  0  0
  4  5  1  0  0  0  0
  5  6  1  0  0  0  0
  6  7  1  0  0  0  0
  7  8  1  0  0  0  0
  8  9  1  0  0  0  0
  9 10  1  0  0  0  0
 10 11  1  0  0  0  0
 11 12  1  0  0  0  0
 12 13  1  0  0  0  0
 13 14  1  0  0  0  0
 14 15  1  0  0  0  0
 15 16  1  0  0  0  0
  3 17  1  0  0  0  0
  4 18  1  0  0  0  0
  7 19  1  0  0  0  0
 11 20  1  0  0  0  0
 15 21  1  0  0  0  0
M  END
>  <cdx:fragmentId>
3

$$$$
