40305.cdx
  Mrv1902 05222410222D          

 37 43  0  0  0  0            999 V2000
   10.4132   -8.7616    0.0000 O   0  0  0  0  0  0  0  0  0  0  0  0
   10.9085   -7.1877    0.0000 O   0  0  0  0  0  0  0  0  0  0  0  0
    9.1719   -4.2643    0.0000 C   0  0  0  0  0  0  0  0  0  0  0  0
    8.5597   -4.8173    0.0000 C   0  0  0  0  0  0  0  0  0  0  0  0
    8.7324   -5.6240    0.0000 C   0  0  0  0  0  0  0  0  0  0  0  0
   10.1297   -5.3248    0.0000 C   0  0  0  0  0  0  0  0  0  0  0  0
    9.9569   -4.5181    0.0000 C   0  0  0  0  0  0  0  0  0  0  0  0
    9.5235   -5.8769    0.0000 C   0  0  0  0  0  0  0  0  0  0  0  0
    9.0502   -8.3327    0.0000 C   0  0  0  0  0  0  0  0  0  0  0  0
    9.8555   -8.1536    0.0000 C   0  0  0  0  0  0  0  0  0  0  0  0
   10.1031   -7.3667    0.0000 C   0  0  0  0  0  0  0  0  0  0  0  0
    9.5454   -6.7587    0.0000 N   0  0  0  0  0  0  0  0  0  0  0  0
    8.4925   -7.7247    0.0000 C   0  0  0  0  0  0  0  0  0  0  0  0
    8.7401   -6.9378    0.0000 C   0  0  0  0  0  0  0  0  0  0  0  0
    8.1824   -6.3298    0.0000 C   0  0  0  0  0  0  0  0  0  0  0  0
    7.3770   -6.5088    0.0000 C   0  0  0  0  0  0  0  0  0  0  0  0
    7.1294   -7.2958    0.0000 C   0  0  0  0  0  0  0  0  0  0  0  0
    2.3886   -8.6542    0.0000 C   0  0  0  0  0  0  0  0  0  0  0  0
    3.1756   -8.9018    0.0000 O   0  0  0  0  0  0  0  0  0  0  0  0
    3.4378   -9.6841    0.0000 C   0  0  0  0  0  0  0  0  0  0  0  0
    2.8915  -10.3023    0.0000 C   0  0  0  0  0  0  0  0  0  0  0  0
    3.1537  -11.0845    0.0000 C   0  0  0  0  0  0  0  0  0  0  0  0
    3.9622  -11.2485    0.0000 C   0  0  0  0  0  0  0  0  0  0  0  0
    4.9092   -9.3570    0.0000 N   0  0  0  0  0  0  0  0  0  0  0  0
    4.2463   -9.8481    0.0000 C   0  0  0  0  0  0  0  0  0  0  0  0
    4.5086  -10.6303    0.0000 C   0  0  0  0  0  0  0  0  0  0  0  0
    6.2013  -12.6255    0.0000 C   0  0  0  0  0  0  0  0  0  0  0  0
    5.6436  -12.0175    0.0000 O   0  0  0  0  0  0  0  0  0  0  0  0
    5.5812   -9.8357    0.0000 C   0  0  0  0  0  0  0  0  0  0  0  0
    5.3335  -10.6226    0.0000 C   0  0  0  0  0  0  0  0  0  0  0  0
    5.8912  -11.2306    0.0000 C   0  0  0  0  0  0  0  0  0  0  0  0
    6.6966  -11.0516    0.0000 C   0  0  0  0  0  0  0  0  0  0  0  0
    6.9442  -10.2646    0.0000 N   0  0  0  0  0  0  0  0  0  0  0  0
    6.3865   -9.6567    0.0000 C   0  0  0  0  0  0  0  0  0  0  0  0
    6.6341   -8.8697    0.0000 C   0  0  0  0  0  0  0  0  0  0  0  0
    7.4395   -8.6907    0.0000 C   0  0  0  0  0  0  0  0  0  0  0  0
    7.6871   -7.9037    0.0000 N   0  0  0  0  0  0  0  0  0  0  0  0
 10  1  2  0  0  0  0
 11  2  2  0  0  0  0
  8  6  1  0  0  0  0
  5  8  2  0  0  0  0
  5 15  1  0  0  0  0
  3  7  1  0  0  0  0
  4  3  2  0  0  0  0
  5  4  1  0  0  0  0
  7  6  2  0  0  0  0
 12  8  1  0  0  0  0
  9 13  2  0  0  0  0
 10  9  1  0  0  0  0
 11 10  1  0  0  0  0
 12 11  1  0  0  0  0
 14 12  1  0  0  0  0
 13 37  1  0  0  0  0
 14 13  1  0  0  0  0
 15 14  2  0  0  0  0
 16 15  1  0  0  0  0
 17 16  2  0  0  0  0
 37 17  1  0  0  0  0
 19 18  1  0  0  0  0
 20 19  1  0  0  0  0
 20 25  1  0  0  0  0
 21 20  2  0  0  0  0
 22 21  1  0  0  0  0
 23 22  2  0  0  0  0
 26 23  1  0  0  0  0
 24 29  1  0  0  0  0
 25 24  1  0  0  0  0
 26 25  2  0  0  0  0
 30 26  1  0  0  0  0
 28 27  1  0  0  0  0
 31 28  1  0  0  0  0
 29 34  1  0  0  0  0
 30 29  2  0  0  0  0
 31 30  1  0  0  0  0
 32 31  2  0  0  0  0
 33 32  1  0  0  0  0
 34 33  2  0  0  0  0
 35 34  1  0  0  0  0
 36 35  1  0  0  0  0
 37 36  1  0  0  0  0
M  END
>  <cdx:fragmentId>
5

$$$$
