40306.cdx
  Mrv1902 05222410232D          

 38 44  0  0  0  0            999 V2000
   12.1568   -5.9214    0.0000 C   0  0  0  0  0  0  0  0  0  0  0  0
   12.0764   -5.1003    0.0000 C   0  0  0  0  0  0  0  0  0  0  0  0
   11.3252   -4.7594    0.0000 C   0  0  0  0  0  0  0  0  0  0  0  0
   10.6543   -5.2396    0.0000 C   0  0  0  0  0  0  0  0  0  0  0  0
   10.7347   -6.0606    0.0000 C   0  0  0  0  0  0  0  0  0  0  0  0
   11.4860   -6.4015    0.0000 C   0  0  0  0  0  0  0  0  0  0  0  0
    9.8486   -5.0623    0.0000 N   0  0  0  0  0  0  0  0  0  0  0  0
    9.4310   -5.7738    0.0000 C   0  0  0  0  0  0  0  0  0  0  0  0
    9.9787   -6.3908    0.0000 C   0  0  0  0  0  0  0  0  0  0  0  0
    8.6228   -5.9396    0.0000 C   0  0  0  0  0  0  0  0  0  0  0  0
    8.3623   -6.7224    0.0000 N   0  3  0  0  0  0  0  0  0  0  0  0
    8.9100   -7.3394    0.0000 C   0  0  0  0  0  0  0  0  0  0  0  0
    9.7182   -7.1736    0.0000 C   0  0  0  0  0  0  0  0  0  0  0  0
    8.0752   -5.3226    0.0000 C   0  0  0  0  0  0  0  0  0  0  0  0
    7.2670   -5.4884    0.0000 C   0  0  0  0  0  0  0  0  0  0  0  0
    7.0065   -6.2712    0.0000 C   0  0  0  0  0  0  0  0  0  0  0  0
    7.5542   -6.8882    0.0000 C   0  0  0  0  0  0  0  0  0  0  0  0
    6.4855   -7.8368    0.0000 C   0  0  0  0  0  0  0  0  0  0  0  0
    7.2936   -7.6710    0.0000 C   0  0  0  0  0  0  0  0  0  0  0  0
    6.2250   -8.6196    0.0000 C   0  0  0  0  0  0  0  0  0  0  0  0
    6.7726   -9.2366    0.0000 C   0  0  0  0  0  0  0  0  0  0  0  0
    7.5808   -9.0708    0.0000 C   0  0  0  0  0  0  0  0  0  0  0  0
    7.8413   -8.2880    0.0000 N   0  0  0  0  0  0  0  0  0  0  0  0
    5.8215   -7.3471    0.0000 N   0  0  0  0  0  0  0  0  0  0  0  0
    5.1506   -7.8273    0.0000 C   0  0  0  0  0  0  0  0  0  0  0  0
    5.4000   -8.6137    0.0000 C   0  0  0  0  0  0  0  0  0  0  0  0
    4.3449   -7.6501    0.0000 C   0  0  0  0  0  0  0  0  0  0  0  0
    3.7885   -8.2592    0.0000 C   0  0  0  0  0  0  0  0  0  0  0  0
    4.0379   -9.0456    0.0000 C   0  0  0  0  0  0  0  0  0  0  0  0
    4.8436   -9.2229    0.0000 C   0  0  0  0  0  0  0  0  0  0  0  0
   10.2658   -7.7906    0.0000 O   0  0  0  0  0  0  0  0  0  0  0  0
    9.9816   -8.5651    0.0000 C   0  0  0  0  0  0  0  0  0  0  0  0
   11.2447   -3.9383    0.0000 O   0  0  0  0  0  0  0  0  0  0  0  0
   11.8781   -3.4097    0.0000 C   0  0  0  0  0  0  0  0  0  0  0  0
    6.5121  -10.0194    0.0000 O   0  0  0  0  0  0  0  0  0  0  0  0
    7.0408  -10.6527    0.0000 C   0  0  0  0  0  0  0  0  0  0  0  0
    4.0955   -6.8636    0.0000 O   0  0  0  0  0  0  0  0  0  0  0  0
    3.3210   -6.5794    0.0000 C   0  0  0  0  0  0  0  0  0  0  0  0
  1  2  2  0  0  0  0
  2  3  1  0  0  0  0
  3  4  2  0  0  0  0
  4  5  1  0  0  0  0
  5  6  2  0  0  0  0
  6  1  1  0  0  0  0
  4  7  1  0  0  0  0
  7  8  1  0  0  0  0
  8  9  2  0  0  0  0
  9  5  1  0  0  0  0
  8 10  1  0  0  0  0
 10 11  2  0  0  0  0
 11 12  1  0  0  0  0
 12 13  2  0  0  0  0
 13  9  1  0  0  0  0
 10 14  1  0  0  0  0
 14 15  1  0  0  0  0
 15 16  1  0  0  0  0
 16 17  1  0  0  0  0
 17 11  1  0  0  0  0
 18 19  1  0  0  0  0
 19 17  1  0  0  0  0
 18 20  2  0  0  0  0
 20 21  1  0  0  0  0
 21 22  2  0  0  0  0
 22 23  1  0  0  0  0
 23 19  2  0  0  0  0
 18 24  1  0  0  0  0
 24 25  1  0  0  0  0
 25 26  2  0  0  0  0
 26 20  1  0  0  0  0
 25 27  1  0  0  0  0
 27 28  2  0  0  0  0
 28 29  1  0  0  0  0
 29 30  2  0  0  0  0
 30 26  1  0  0  0  0
 13 31  1  0  0  0  0
 31 32  1  0  0  0  0
  3 33  1  0  0  0  0
 33 34  1  0  0  0  0
 21 35  1  0  0  0  0
 35 36  1  0  0  0  0
 27 37  1  0  0  0  0
 37 38  1  0  0  0  0
M  CHG  1  11   1
M  END
>  <cdx:fragmentId>
5

$$$$
