40307.cdx
  Mrv1902 05222410222D          

 33 37  0  0  0  0            999 V2000
   10.1889   -8.8034    0.0000 C   0  0  0  0  0  0  0  0  0  0  0  0
   10.1889   -7.9784    0.0000 C   0  0  0  0  0  0  0  0  0  0  0  0
    9.4744   -7.5659    0.0000 C   0  0  0  0  0  0  0  0  0  0  0  0
    8.7600   -7.9784    0.0000 C   0  0  0  0  0  0  0  0  0  0  0  0
    8.7600   -8.8034    0.0000 C   0  0  0  0  0  0  0  0  0  0  0  0
    9.4744   -9.2159    0.0000 C   0  0  0  0  0  0  0  0  0  0  0  0
    8.0455   -9.2159    0.0000 C   0  0  0  0  0  0  0  0  0  0  0  0
    8.0455  -10.0409    0.0000 C   0  0  0  0  0  0  0  0  0  0  0  0
    7.3310   -8.8034    0.0000 O   0  0  0  0  0  0  0  0  0  0  0  0
    6.6165   -9.2159    0.0000 C   0  0  0  0  0  0  0  0  0  0  0  0
    6.6165  -10.0409    0.0000 C   0  0  0  0  0  0  0  0  0  0  0  0
    7.3310  -10.4534    0.0000 C   0  0  0  0  0  0  0  0  0  0  0  0
    5.9021   -8.8034    0.0000 C   0  0  0  0  0  0  0  0  0  0  0  0
    5.1876   -9.2159    0.0000 C   0  0  0  0  0  0  0  0  0  0  0  0
    5.1876  -10.0409    0.0000 C   0  0  0  0  0  0  0  0  0  0  0  0
    5.9021  -10.4534    0.0000 C   0  0  0  0  0  0  0  0  0  0  0  0
    5.9021  -11.2784    0.0000 O   0  0  0  0  0  0  0  0  0  0  0  0
    7.3310  -11.2784    0.0000 O   0  0  0  0  0  0  0  0  0  0  0  0
   10.9034   -7.5659    0.0000 O   0  0  0  0  0  0  0  0  0  0  0  0
    5.7305   -7.9964    0.0000 C   0  0  0  0  0  0  0  0  0  0  0  0
    4.9101   -7.9102    0.0000 C   0  0  1  0  0  0  0  0  0  0  0  0
    4.5745   -8.6638    0.0000 O   0  0  0  0  0  0  0  0  0  0  0  0
    5.2456   -7.1565    0.0000 O   0  0  0  0  0  0  0  0  0  0  0  0
    4.6325   -6.6045    0.0000 C   0  0  1  0  0  0  0  0  0  0  0  0
    3.9181   -7.0170    0.0000 C   0  0  2  0  0  0  0  0  0  0  0  0
    4.0896   -7.8239    0.0000 C   0  0  2  0  0  0  0  0  0  0  0  0
    4.7188   -5.7840    0.0000 C   0  0  0  0  0  0  0  0  0  0  0  0
    5.5157   -5.5705    0.0000 O   0  0  0  0  0  0  0  0  0  0  0  0
    3.1644   -6.6814    0.0000 O   0  0  0  0  0  0  0  0  0  0  0  0
    3.1644   -5.8564    0.0000 C   0  0  0  0  0  0  0  0  0  0  0  0
    2.4499   -5.4439    0.0000 C   0  0  0  0  0  0  0  0  0  0  0  0
    3.8789   -5.4439    0.0000 O   0  0  0  0  0  0  0  0  0  0  0  0
    3.5376   -8.4370    0.0000 O   0  0  0  0  0  0  0  0  0  0  0  0
  1  2  1  0  0  0  0
  2  3  2  0  0  0  0
  3  4  1  0  0  0  0
  4  5  2  0  0  0  0
  5  6  1  0  0  0  0
  6  1  2  0  0  0  0
  5  7  1  0  0  0  0
  7  8  2  0  0  0  0
  7  9  1  0  0  0  0
  9 10  1  0  0  0  0
 10 11  1  0  0  0  0
 11 12  1  0  0  0  0
 12  8  1  0  0  0  0
 10 13  2  0  0  0  0
 13 14  1  0  0  0  0
 14 15  2  0  0  0  0
 15 16  1  0  0  0  0
 16 11  2  0  0  0  0
 16 17  1  0  0  0  0
 18 12  2  0  0  0  0
  2 19  1  0  0  0  0
 13 20  1  0  0  0  0
 20 21  1  0  0  0  0
 21 22  1  0  0  0  0
 22 14  1  0  0  0  0
 21 23  1  1  0  0  0
 23 24  1  0  0  0  0
 24 25  1  0  0  0  0
 25 26  1  0  0  0  0
 26 21  1  0  0  0  0
 24 27  1  1  0  0  0
 27 28  1  0  0  0  0
 25 29  1  6  0  0  0
 29 30  1  0  0  0  0
 30 31  1  0  0  0  0
 30 32  2  0  0  0  0
 26 33  1  1  0  0  0
M  END
>  <cdx:fragmentId>
5

$$$$
