40314.cdx
  Mrv1902 05222410212D          

 23 26  0  0  0  0            999 V2000
    5.7907   -7.1801    0.0000 C   0  0  0  0  0  0  0  0  0  0  0  0
    5.8001   -8.0050    0.0000 C   0  0  0  0  0  0  0  0  0  0  0  0
    6.5192   -8.4093    0.0000 C   0  0  0  0  0  0  0  0  0  0  0  0
    7.2289   -7.9887    0.0000 C   0  0  0  0  0  0  0  0  0  0  0  0
    7.2195   -7.1638    0.0000 C   0  0  0  0  0  0  0  0  0  0  0  0
    6.5004   -6.7595    0.0000 C   0  0  0  0  0  0  0  0  0  0  0  0
    6.5286   -9.2343    0.0000 C   0  0  0  0  0  0  0  0  0  0  0  0
    7.2477   -9.6386    0.0000 C   0  0  0  0  0  0  0  0  0  0  0  0
    7.9575   -9.2180    0.0000 C   0  0  0  0  0  0  0  0  0  0  0  0
    7.9481   -8.3930    0.0000 C   0  0  0  0  0  0  0  0  0  0  0  0
    5.8189   -9.6549    0.0000 C   0  0  0  0  0  0  0  0  0  0  0  0
    5.8283  -10.4799    0.0000 C   0  0  0  0  0  0  0  0  0  0  0  0
    6.5474  -10.8842    0.0000 C   0  0  0  0  0  0  0  0  0  0  0  0
    7.2572  -10.4636    0.0000 C   0  0  0  0  0  0  0  0  0  0  0  0
    5.0715   -6.7758    0.0000 O   0  0  0  0  0  0  0  0  0  0  0  0
    4.3618   -7.1964    0.0000 C   0  0  0  0  0  0  0  0  0  0  0  0
    5.0904   -8.4256    0.0000 O   0  0  0  0  0  0  0  0  0  0  0  0
    6.4910   -5.9345    0.0000 O   0  0  0  0  0  0  0  0  0  0  0  0
    5.7718   -5.5302    0.0000 C   0  0  0  0  0  0  0  0  0  0  0  0
    8.0139   -6.9412    0.0000 C   0  0  0  0  0  0  0  0  0  0  0  0
    8.5247   -7.8031    0.0000 N   0  0  0  0  0  0  0  0  0  0  0  0
    8.3209   -6.1754    0.0000 O   0  0  0  0  0  0  0  0  0  0  0  0
    4.3712   -8.0213    0.0000 C   0  0  0  0  0  0  0  0  0  0  0  0
  1  2  2  0  0  0  0
  2  3  1  0  0  0  0
  3  4  2  0  0  0  0
  4  5  1  0  0  0  0
  5  6  2  0  0  0  0
  6  1  1  0  0  0  0
  3  7  1  0  0  0  0
  7  8  2  0  0  0  0
  8  9  1  0  0  0  0
  9 10  2  0  0  0  0
 10  4  1  0  0  0  0
  7 11  1  0  0  0  0
 11 12  2  0  0  0  0
 12 13  1  0  0  0  0
 13 14  2  0  0  0  0
 14  8  1  0  0  0  0
  1 15  1  0  0  0  0
 15 16  1  0  0  0  0
 17  2  1  0  0  0  0
  6 18  1  0  0  0  0
 18 19  1  0  0  0  0
  5 20  1  0  0  0  0
 10 21  1  0  0  0  0
 20 21  1  0  0  0  0
 20 22  2  0  0  0  0
 17 23  1  0  0  0  0
M  END
>  <cdx:fragmentId>
109

$$$$
