40319.cdx
  Mrv1902 05222410252D          

 11 11  0  0  0  0            999 V2000
    5.8418   -8.9501    0.0000 C   0  0  0  0  0  0  0  0  0  0  0  0
    5.8418   -9.7751    0.0000 C   0  0  0  0  0  0  0  0  0  0  0  0
    6.5563  -10.1876    0.0000 C   0  0  0  0  0  0  0  0  0  0  0  0
    7.2707   -9.7751    0.0000 C   0  0  0  0  0  0  0  0  0  0  0  0
    7.2707   -8.9501    0.0000 C   0  0  0  0  0  0  0  0  0  0  0  0
    6.5563   -8.5376    0.0000 C   0  0  0  0  0  0  0  0  0  0  0  0
    6.5563  -11.0126    0.0000 C   0  0  0  0  0  0  0  0  0  0  0  0
    6.5563   -7.7126    0.0000 C   0  0  0  0  0  0  0  0  0  0  0  0
    6.5563   -6.8876    0.0000 O   0  0  0  0  0  0  0  0  0  0  0  0
    7.3813   -7.7126    0.0000 C   0  0  0  0  0  0  0  0  0  0  0  0
    5.7313   -7.7126    0.0000 C   0  0  0  0  0  0  0  0  0  0  0  0
  1  2  1  0  0  0  0
  2  3  1  0  0  0  0
  3  4  1  0  0  0  0
  4  5  1  0  0  0  0
  5  6  1  0  0  0  0
  6  1  2  0  0  0  0
  3  7  1  0  0  0  0
  6  8  1  0  0  0  0
  8  9  1  0  0  0  0
  8 10  1  0  0  0  0
  8 11  1  0  0  0  0
M  END
>  <cdx:fragmentId>
5

$$$$
