40316.cdx
  Mrv1902 05222410202D          

 34 36  0  0  0  0            999 V2000
    5.2368  -10.1189    0.0000 C   0  0  2  0  0  0  0  0  0  0  0  0
    5.2368  -10.9439    0.0000 C   0  0  2  0  0  0  0  0  0  0  0  0
    5.9513  -11.3564    0.0000 C   0  0  1  0  0  0  0  0  0  0  0  0
    6.6657  -10.9439    0.0000 C   0  0  2  0  0  0  0  0  0  0  0  0
    6.6657  -10.1189    0.0000 C   0  0  1  0  0  0  0  0  0  0  0  0
    5.9513   -9.7064    0.0000 O   0  0  0  0  0  0  0  0  0  0  0  0
    7.3802   -9.7064    0.0000 O   0  0  0  0  0  0  0  0  0  0  0  0
    5.9513   -7.2314    0.0000 C   0  0  0  0  0  0  0  0  0  0  0  0
   10.9526   -5.9939    0.0000 O   0  0  0  0  0  0  0  0  0  0  0  0
    8.8092   -4.7564    0.0000 O   0  0  0  0  0  0  0  0  0  0  0  0
    7.3802   -6.4064    0.0000 C   0  0  0  0  0  0  0  0  0  0  0  0
    8.0947   -5.9939    0.0000 C   0  0  0  0  0  0  0  0  0  0  0  0
    8.0947   -5.1689    0.0000 C   0  0  0  0  0  0  0  0  0  0  0  0
    7.3802   -4.7564    0.0000 C   0  0  0  0  0  0  0  0  0  0  0  0
    6.6657   -5.9939    0.0000 C   0  0  0  0  0  0  0  0  0  0  0  0
    6.6657   -5.1689    0.0000 C   0  0  0  0  0  0  0  0  0  0  0  0
    5.9513   -6.4064    0.0000 C   0  0  0  0  0  0  0  0  0  0  0  0
   10.2381   -7.2314    0.0000 C   0  0  0  0  0  0  0  0  0  0  0  0
   10.2381   -6.4064    0.0000 C   0  0  0  0  0  0  0  0  0  0  0  0
    9.5236   -5.9939    0.0000 C   0  0  0  0  0  0  0  0  0  0  0  0
    8.8092   -6.4064    0.0000 C   0  0  0  0  0  0  0  0  0  0  0  0
    9.5236   -7.6439    0.0000 C   0  0  0  0  0  0  0  0  0  0  0  0
    8.8092   -7.2314    0.0000 C   0  0  0  0  0  0  0  0  0  0  0  0
    8.0947   -7.6439    0.0000 C   0  0  0  0  0  0  0  0  0  0  0  0
    7.3802   -7.2314    0.0000 O   0  0  0  0  0  0  0  0  0  0  0  0
    6.6657   -7.6439    0.0000 C   0  0  0  0  0  0  0  0  0  0  0  0
    6.6657   -8.4689    0.0000 C   0  0  0  0  0  0  0  0  0  0  0  0
    4.5223   -9.7064    0.0000 C   0  0  0  0  0  0  0  0  0  0  0  0
    4.5223   -8.8814    0.0000 O   0  0  0  0  0  0  0  0  0  0  0  0
    8.0947   -8.4689    0.0000 C   0  0  0  0  0  0  0  0  0  0  0  0
    7.3802   -8.8814    0.0000 C   0  0  1  0  0  0  0  0  0  0  0  0
    5.9513  -12.1814    0.0000 O   0  0  0  0  0  0  0  0  0  0  0  0
    4.5223  -11.3564    0.0000 O   0  0  0  0  0  0  0  0  0  0  0  0
    7.3802  -11.3564    0.0000 O   0  0  0  0  0  0  0  0  0  0  0  0
  1  2  1  0  0  0  0
  2  3  1  0  0  0  0
  3  4  1  0  0  0  0
  4  5  1  0  0  0  0
  5  6  1  0  0  0  0
  6  1  1  0  0  0  0
 13 10  1  0  0  0  0
  5  7  1  1  0  0  0
 31  7  1  1  0  0  0
 19  9  1  0  0  0  0
 17  8  1  0  0  0  0
 11 15  2  0  0  0  0
 12 11  1  0  0  0  0
 13 12  2  0  0  0  0
 14 13  1  0  0  0  0
 16 14  2  0  0  0  0
 15 17  1  0  0  0  0
 16 15  1  0  0  0  0
  8 26  1  0  0  0  0
 18 22  1  0  0  0  0
 19 18  2  0  0  0  0
 20 19  1  0  0  0  0
 21 20  2  0  0  0  0
 23 21  1  0  0  0  0
 23 22  2  0  0  0  0
 24 23  1  0  0  0  0
 24 30  1  0  0  0  0
 26 25  2  0  0  0  0
 27 26  1  0  0  0  0
 31 27  1  0  0  0  0
 31 30  1  0  0  0  0
  1 28  1  1  0  0  0
 28 29  1  0  0  0  0
  3 32  1  1  0  0  0
  2 33  1  6  0  0  0
  4 34  1  6  0  0  0
M  END
>  <cdx:fragmentId>
5

$$$$
