40318.cdx
  Mrv1902 05222410252D          

 22 23  0  0  0  0            999 V2000
    7.4072   -9.8450    0.0000 C   0  0  0  0  0  0  0  0  0  0  0  0
    7.4072  -10.6700    0.0000 N   0  0  0  0  0  0  0  0  0  0  0  0
    8.1919  -10.9249    0.0000 C   0  0  0  0  0  0  0  0  0  0  0  0
    8.6768  -10.2575    0.0000 N   0  0  0  0  0  0  0  0  0  0  0  0
    8.1919   -9.5901    0.0000 C   0  0  2  0  0  0  0  0  0  0  0  0
    8.4468  -11.7096    0.0000 N   0  0  0  0  0  0  0  0  0  0  0  0
    6.7398  -11.1549    0.0000 C   0  0  0  0  0  0  0  0  0  0  0  0
    5.9861  -10.8194    0.0000 C   0  0  0  0  0  0  0  0  0  0  0  0
    5.3187  -11.3043    0.0000 C   0  0  0  0  0  0  0  0  0  0  0  0
    5.8999   -9.9989    0.0000 O   0  0  0  0  0  0  0  0  0  0  0  0
    4.5650  -10.9687    0.0000 C   0  0  0  0  0  0  0  0  0  0  0  0
    3.8976  -11.4537    0.0000 O   0  0  0  0  0  0  0  0  0  0  0  0
    9.4614  -10.0026    0.0000 C   0  0  1  0  0  0  0  0  0  0  0  0
    9.4614   -9.1776    0.0000 C   0  0  0  0  0  0  0  0  0  0  0  0
    8.6768   -8.9226    0.0000 C   0  0  1  0  0  0  0  0  0  0  0  0
   10.1288  -10.4876    0.0000 C   0  0  0  0  0  0  0  0  0  0  0  0
   10.8825  -10.1521    0.0000 C   0  0  0  0  0  0  0  0  0  0  0  0
   11.5499  -10.6372    0.0000 C   0  0  0  0  0  0  0  0  0  0  0  0
   10.9689   -9.3317    0.0000 C   0  0  0  0  0  0  0  0  0  0  0  0
    8.4218   -8.1380    0.0000 C   0  0  0  0  0  0  0  0  0  0  0  0
    8.9739   -7.5249    0.0000 O   0  0  0  0  0  0  0  0  0  0  0  0
    7.6149   -7.9665    0.0000 O   0  0  0  0  0  0  0  0  0  0  0  0
  1  2  1  0  0  0  0
  2  3  1  0  0  0  0
  3  4  1  0  0  0  0
  5  4  1  1  0  0  0
  5  1  1  0  0  0  0
  3  6  2  0  0  0  0
  2  7  1  0  0  0  0
  7  8  1  0  0  0  0
  8  9  1  0  0  0  0
  8 10  1  0  0  0  0
  9 11  1  0  0  0  0
 11 12  1  0  0  0  0
  4 13  1  0  0  0  0
 13 14  1  0  0  0  0
 14 15  1  0  0  0  0
 15  5  1  0  0  0  0
 13 16  1  1  0  0  0
 16 17  2  0  0  0  0
 17 18  1  0  0  0  0
 17 19  1  0  0  0  0
 15 20  1  6  0  0  0
 20 21  2  0  0  0  0
 20 22  1  0  0  0  0
M  END
>  <cdx:fragmentId>
114

$$$$
