40317.cdx
  Mrv1902 05222410212D          

 22 22  0  0  0  0            999 V2000
    7.4072   -9.8450    0.0000 C   0  0  0  0  0  0  0  0  0  0  0  0
    7.4072  -10.6700    0.0000 N   0  0  0  0  0  0  0  0  0  0  0  0
    8.1919  -10.9249    0.0000 C   0  0  0  0  0  0  0  0  0  0  0  0
    8.6768  -10.2575    0.0000 N   0  0  0  0  0  0  0  0  0  0  0  0
    8.1919   -9.5901    0.0000 C   0  0  2  0  0  0  0  0  0  0  0  0
    8.4468  -11.7096    0.0000 N   0  0  0  0  0  0  0  0  0  0  0  0
    8.4468   -8.8054    0.0000 C   0  0  2  0  0  0  0  0  0  0  0  0
    7.8948   -8.1923    0.0000 C   0  0  0  0  0  0  0  0  0  0  0  0
    9.2538   -8.6339    0.0000 C   0  0  0  0  0  0  0  0  0  0  0  0
    8.1497   -7.4077    0.0000 O   0  0  0  0  0  0  0  0  0  0  0  0
    7.0878   -8.3639    0.0000 O   0  0  0  0  0  0  0  0  0  0  0  0
    9.5087   -7.8493    0.0000 C   0  0  0  0  0  0  0  0  0  0  0  0
   10.3157   -7.6778    0.0000 C   0  0  0  0  0  0  0  0  0  0  0  0
   10.5706   -6.8931    0.0000 C   0  0  0  0  0  0  0  0  0  0  0  0
   10.0186   -6.2800    0.0000 C   0  0  0  0  0  0  0  0  0  0  0  0
   11.3776   -6.7216    0.0000 C   0  0  0  0  0  0  0  0  0  0  0  0
    6.7398  -11.1549    0.0000 C   0  0  0  0  0  0  0  0  0  0  0  0
    5.9861  -10.8194    0.0000 C   0  0  0  0  0  0  0  0  0  0  0  0
    5.3187  -11.3043    0.0000 C   0  0  0  0  0  0  0  0  0  0  0  0
    5.8999   -9.9989    0.0000 O   0  0  0  0  0  0  0  0  0  0  0  0
    4.5650  -10.9687    0.0000 C   0  0  0  0  0  0  0  0  0  0  0  0
    3.8976  -11.4537    0.0000 O   0  0  0  0  0  0  0  0  0  0  0  0
  1  2  1  0  0  0  0
  2  3  1  0  0  0  0
  3  4  1  0  0  0  0
  5  4  1  1  0  0  0
  5  1  1  0  0  0  0
  3  6  2  0  0  0  0
  5  7  1  0  0  0  0
  7  8  1  6  0  0  0
  7  9  1  0  0  0  0
  8 10  2  0  0  0  0
  8 11  1  0  0  0  0
  9 12  1  0  0  0  0
 12 13  1  0  0  0  0
 13 14  2  0  0  0  0
 14 15  1  0  0  0  0
 14 16  1  0  0  0  0
  2 17  1  0  0  0  0
 17 18  1  0  0  0  0
 18 19  1  0  0  0  0
 18 20  1  0  0  0  0
 19 21  1  0  0  0  0
 21 22  1  0  0  0  0
M  END
>  <cdx:fragmentId>
114

$$$$
