40313.cdx
  Mrv1902 05222410222D          

 16 17  0  0  0  0            999 V2000
    5.6747   -8.4700    0.0000 C   0  0  0  0  0  0  0  0  0  0  0  0
    5.6747   -9.2950    0.0000 N   0  0  0  0  0  0  0  0  0  0  0  0
    6.4594   -9.5499    0.0000 C   0  0  0  0  0  0  0  0  0  0  0  0
    6.9443   -8.8825    0.0000 N   0  0  0  0  0  0  0  0  0  0  0  0
    6.4594   -8.2151    0.0000 C   0  0  2  0  0  0  0  0  0  0  0  0
    6.7143  -10.3346    0.0000 N   0  0  0  0  0  0  0  0  0  0  0  0
    7.7289   -8.6276    0.0000 C   0  0  1  0  0  0  0  0  0  0  0  0
    7.7289   -7.8026    0.0000 C   0  0  0  0  0  0  0  0  0  0  0  0
    6.9443   -7.5476    0.0000 C   0  0  1  0  0  0  0  0  0  0  0  0
    8.3963   -9.1126    0.0000 C   0  0  0  0  0  0  0  0  0  0  0  0
    9.1500   -8.7771    0.0000 C   0  0  0  0  0  0  0  0  0  0  0  0
    9.8174   -9.2622    0.0000 C   0  0  0  0  0  0  0  0  0  0  0  0
    9.2364   -7.9567    0.0000 C   0  0  0  0  0  0  0  0  0  0  0  0
    6.6893   -6.7630    0.0000 C   0  0  0  0  0  0  0  0  0  0  0  0
    7.2414   -6.1499    0.0000 O   0  0  0  0  0  0  0  0  0  0  0  0
    5.8824   -6.5915    0.0000 O   0  0  0  0  0  0  0  0  0  0  0  0
  1  2  1  0  0  0  0
  2  3  1  0  0  0  0
  3  4  1  0  0  0  0
  5  4  1  1  0  0  0
  5  1  1  0  0  0  0
  3  6  2  0  0  0  0
  4  7  1  0  0  0  0
  7  8  1  0  0  0  0
  8  9  1  0  0  0  0
  9  5  1  0  0  0  0
  7 10  1  1  0  0  0
 10 11  2  0  0  0  0
 11 12  1  0  0  0  0
 11 13  1  0  0  0  0
  9 14  1  6  0  0  0
 14 15  2  0  0  0  0
 14 16  1  0  0  0  0
M  END
>  <cdx:fragmentId>
114

$$$$
