40321.cdx
  Mrv1902 05222410242D          

 11 11  0  0  0  0            999 V2000
    6.0750   -6.5439    0.0000 C   0  0  0  0  0  0  0  0  0  0  0  0
    4.6461   -6.5439    0.0000 C   0  0  0  0  0  0  0  0  0  0  0  0
    6.7895   -9.4314    0.0000 O   0  0  0  0  0  0  0  0  0  0  0  0
    5.3606  -10.2564    0.0000 C   0  0  0  0  0  0  0  0  0  0  0  0
    5.3606   -6.9564    0.0000 C   0  0  0  0  0  0  0  0  0  0  0  0
    5.3606   -7.7814    0.0000 C   0  0  0  0  0  0  0  0  0  0  0  0
    4.6461   -8.1939    0.0000 C   0  0  0  0  0  0  0  0  0  0  0  0
    4.6461   -9.0189    0.0000 C   0  0  0  0  0  0  0  0  0  0  0  0
    5.3606   -9.4314    0.0000 C   0  0  0  0  0  0  0  0  0  0  0  0
    6.0750   -9.0189    0.0000 C   0  0  0  0  0  0  0  0  0  0  0  0
    6.0750   -8.1939    0.0000 C   0  0  0  0  0  0  0  0  0  0  0  0
  5  1  2  0  0  0  0
  5  2  1  0  0  0  0
 10  3  1  0  0  0  0
  9  4  2  0  0  0  0
  6  5  1  0  0  0  0
  6 11  1  0  0  0  0
  7  6  1  0  0  0  0
  8  7  1  0  0  0  0
  9  8  1  0  0  0  0
 10  9  1  0  0  0  0
 11 10  1  0  0  0  0
M  END
>  <cdx:fragmentId>
5

$$$$
