40322.cdx
  Mrv1902 05222410232D          

 10 10  0  0  0  0            999 V2000
    6.4193   -7.3414    0.0000 C   0  0  0  0  0  0  0  0  0  0  0  0
    6.4193   -8.1664    0.0000 C   0  0  0  0  0  0  0  0  0  0  0  0
    7.1338   -8.5789    0.0000 C   0  0  0  0  0  0  0  0  0  0  0  0
    7.8482   -8.1664    0.0000 C   0  0  0  0  0  0  0  0  0  0  0  0
    7.8482   -7.3414    0.0000 C   0  0  0  0  0  0  0  0  0  0  0  0
    7.1338   -6.9289    0.0000 C   0  0  0  0  0  0  0  0  0  0  0  0
    7.1338   -9.4039    0.0000 C   0  0  0  0  0  0  0  0  0  0  0  0
    7.1338   -6.1039    0.0000 C   0  0  0  0  0  0  0  0  0  0  0  0
    7.8482   -5.6914    0.0000 C   0  0  0  0  0  0  0  0  0  0  0  0
    6.4193   -5.6914    0.0000 C   0  0  0  0  0  0  0  0  0  0  0  0
  1  2  2  0  0  0  0
  2  3  1  0  0  0  0
  3  4  1  0  0  0  0
  4  5  1  0  0  0  0
  5  6  1  0  0  0  0
  6  1  1  0  0  0  0
  3  7  1  0  0  0  0
  6  8  2  0  0  0  0
  8  9  1  0  0  0  0
  8 10  1  0  0  0  0
M  END
>  <cdx:fragmentId>
5

$$$$
