40329.cdx
  Mrv1902 05222410212D          

 41 45  0  0  0  0            999 V2000
    2.1843  -10.5314    0.0000 C   0  0  0  0  0  0  0  0  0  0  0  0
    2.1843  -11.3564    0.0000 C   0  0  0  0  0  0  0  0  0  0  0  0
    2.8988  -11.7689    0.0000 C   0  0  0  0  0  0  0  0  0  0  0  0
    3.6132  -11.3564    0.0000 C   0  0  0  0  0  0  0  0  0  0  0  0
    3.6132  -10.5314    0.0000 C   0  0  0  0  0  0  0  0  0  0  0  0
    2.8988  -10.1189    0.0000 C   0  0  0  0  0  0  0  0  0  0  0  0
    4.3277  -11.7689    0.0000 O   0  0  0  0  0  0  0  0  0  0  0  0
    5.0422  -11.3564    0.0000 C   0  0  0  0  0  0  0  0  0  0  0  0
    5.0422  -10.5314    0.0000 C   0  0  0  0  0  0  0  0  0  0  0  0
    4.3277  -10.1189    0.0000 C   0  0  0  0  0  0  0  0  0  0  0  0
    5.7567  -11.7689    0.0000 C   0  0  0  0  0  0  0  0  0  0  0  0
    6.4711  -11.3564    0.0000 C   0  0  0  0  0  0  0  0  0  0  0  0
    6.4711  -10.5314    0.0000 C   0  0  0  0  0  0  0  0  0  0  0  0
    5.7567  -10.1189    0.0000 C   0  0  0  0  0  0  0  0  0  0  0  0
    7.1856  -11.7689    0.0000 O   0  0  0  0  0  0  0  0  0  0  0  0
   11.4724   -9.2939    0.0000 O   0  0  0  0  0  0  0  0  0  0  0  0
    7.9001   -8.0564    0.0000 O   0  0  0  0  0  0  0  0  0  0  0  0
   12.9014  -11.7689    0.0000 O   0  0  0  0  0  0  0  0  0  0  0  0
   12.9014  -10.1189    0.0000 O   0  0  0  0  0  0  0  0  0  0  0  0
    7.1856  -10.9439    0.0000 H   0  0  0  0  0  0  0  0  0  0  0  0
   11.4724  -11.7689    0.0000 C   0  0  0  0  0  0  0  0  0  0  0  0
   12.1869  -11.3564    0.0000 C   0  0  2  0  0  0  0  0  0  0  0  0
   12.1869  -10.5314    0.0000 C   0  0  2  0  0  0  0  0  0  0  0  0
   11.4724  -10.1189    0.0000 C   0  0  1  0  0  0  0  0  0  0  0  0
   10.7580  -11.3564    0.0000 O   0  0  0  0  0  0  0  0  0  0  0  0
   10.7580  -10.5314    0.0000 C   0  0  1  0  0  0  0  0  0  0  0  0
    9.3290  -10.5314    0.0000 C   0  0  0  0  0  0  0  0  0  0  0  0
   10.0435  -10.1189    0.0000 O   0  0  0  0  0  0  0  0  0  0  0  0
    9.3290   -8.8814    0.0000 O   0  0  0  0  0  0  0  0  0  0  0  0
    1.4698  -10.1189    0.0000 O   0  0  0  0  0  0  0  0  0  0  0  0
    1.4698  -11.7689    0.0000 O   0  0  0  0  0  0  0  0  0  0  0  0
    4.3277   -9.2939    0.0000 O   0  0  0  0  0  0  0  0  0  0  0  0
    5.7567   -9.2939    0.0000 O   0  0  0  0  0  0  0  0  0  0  0  0
    7.9001  -10.5314    0.0000 O   0  0  0  0  0  0  0  0  0  0  0  0
    8.6145  -10.1189    0.0000 C   0  0  1  0  0  0  0  0  0  0  0  0
    8.6145   -9.2939    0.0000 C   0  0  2  0  0  0  0  0  0  0  0  0
    7.9001   -8.8814    0.0000 C   0  0  1  0  0  0  0  0  0  0  0  0
    7.1856  -10.1189    0.0000 C   0  0  2  0  0  0  0  0  0  0  0  0
    7.1856   -9.2939    0.0000 C   0  0  2  0  0  0  0  0  0  0  0  0
    6.4711   -8.8814    0.0000 O   0  0  0  0  0  0  0  0  0  0  0  0
    0.7554  -10.5314    0.0000 C   0  0  0  0  0  0  0  0  0  0  0  0
  1  2  2  0  0  0  0
  2  3  1  0  0  0  0
  3  4  2  0  0  0  0
  4  5  1  0  0  0  0
  5  6  2  0  0  0  0
  6  1  1  0  0  0  0
  4  7  1  0  0  0  0
  7  8  1  0  0  0  0
  8  9  2  0  0  0  0
  9 10  1  0  0  0  0
 10  5  1  0  0  0  0
  8 11  1  0  0  0  0
 11 12  2  0  0  0  0
 12 13  1  0  0  0  0
 13 14  2  0  0  0  0
 14  9  1  0  0  0  0
 24 16  1  1  0  0  0
 37 17  1  1  0  0  0
 12 15  1  0  0  0  0
 22 18  1  6  0  0  0
 38 13  1  0  0  0  0
 23 19  1  6  0  0  0
 38 20  1  6  0  0  0
 21 25  1  0  0  0  0
 22 21  1  0  0  0  0
 23 22  1  0  0  0  0
 24 23  1  0  0  0  0
 26 24  1  0  0  0  0
 26 25  1  0  0  0  0
 26 28  1  1  0  0  0
 35 27  1  1  0  0  0
 28 27  1  0  0  0  0
 36 29  1  6  0  0  0
 34 38  1  0  0  0  0
 35 34  1  0  0  0  0
 36 35  1  0  0  0  0
 37 36  1  0  0  0  0
  1 30  1  0  0  0  0
  2 31  1  0  0  0  0
 10 32  2  0  0  0  0
 14 33  1  0  0  0  0
 39 37  1  0  0  0  0
 39 38  1  0  0  0  0
 39 40  1  6  0  0  0
 30 41  1  0  0  0  0
M  END
>  <cdx:fragmentId>
5

$$$$
