40327.cdx
  Mrv1902 05222410252D          

 39 43  0  0  0  0            999 V2000
    2.6958   -6.0163    0.0000 O   0  0  0  0  0  0  0  0  0  0  0  0
    6.9752   -5.1537    0.0000 O   0  0  0  0  0  0  0  0  0  0  0  0
    7.0260  -10.9284    0.0000 O   0  0  0  0  0  0  0  0  0  0  0  0
    8.4549  -10.9159    0.0000 O   0  0  0  0  0  0  0  0  0  0  0  0
    8.4476  -10.0909    0.0000 C   0  0  2  0  0  0  0  0  0  0  0  0
    7.7295   -9.6847    0.0000 C   0  0  1  0  0  0  0  0  0  0  0  0
    7.0187  -10.1035    0.0000 C   0  0  0  0  0  0  0  0  0  0  0  0
    9.1584   -9.6721    0.0000 C   0  0  1  0  0  0  0  0  0  0  0  0
    5.5463   -5.1662    0.0000 O   0  0  0  0  0  0  0  0  0  0  0  0
    4.1247   -6.0038    0.0000 C   0  0  0  0  0  0  0  0  0  0  0  0
    3.4138   -6.4225    0.0000 C   0  0  0  0  0  0  0  0  0  0  0  0
    3.4211   -7.2475    0.0000 C   0  0  0  0  0  0  0  0  0  0  0  0
    4.1392   -7.6537    0.0000 C   0  0  0  0  0  0  0  0  0  0  0  0
    5.5535   -5.9912    0.0000 C   0  0  0  0  0  0  0  0  0  0  0  0
    4.8427   -6.4100    0.0000 C   0  0  0  0  0  0  0  0  0  0  0  0
    4.8500   -7.2349    0.0000 C   0  0  0  0  0  0  0  0  0  0  0  0
    5.5681   -7.6411    0.0000 O   0  0  0  0  0  0  0  0  0  0  0  0
    6.9824   -5.9786    0.0000 C   0  0  0  0  0  0  0  0  0  0  0  0
    6.2716   -6.3974    0.0000 C   0  0  0  0  0  0  0  0  0  0  0  0
    6.2789   -7.2224    0.0000 C   0  0  0  0  0  0  0  0  0  0  0  0
    6.9969   -7.6286    0.0000 C   0  0  0  0  0  0  0  0  0  0  0  0
    7.7005   -6.3848    0.0000 C   0  0  0  0  0  0  0  0  0  0  0  0
    7.7078   -7.2098    0.0000 C   0  0  0  0  0  0  0  0  0  0  0  0
    9.1512   -8.8472    0.0000 C   0  0  2  0  0  0  0  0  0  0  0  0
    8.4331   -8.4410    0.0000 C   0  0  1  0  0  0  0  0  0  0  0  0
    7.7223   -8.8597    0.0000 O   0  0  0  0  0  0  0  0  0  0  0  0
   12.7343  -10.0532    0.0000 O   0  0  0  0  0  0  0  0  0  0  0  0
    8.4258   -7.6160    0.0000 O   0  0  0  0  0  0  0  0  0  0  0  0
   12.7197   -8.4033    0.0000 O   0  0  0  0  0  0  0  0  0  0  0  0
   11.2836   -7.5909    0.0000 O   0  0  0  0  0  0  0  0  0  0  0  0
   11.3126  -10.8907    0.0000 C   0  0  0  0  0  0  0  0  0  0  0  0
   11.3054  -10.0658    0.0000 C   0  0  1  0  0  0  0  0  0  0  0  0
    9.8765  -10.0783    0.0000 O   0  0  0  0  0  0  0  0  0  0  0  0
   12.0162   -9.6470    0.0000 C   0  0  1  0  0  0  0  0  0  0  0  0
   12.0089   -8.8220    0.0000 C   0  0  2  0  0  0  0  0  0  0  0  0
   11.2909   -8.4158    0.0000 C   0  0  2  0  0  0  0  0  0  0  0  0
   10.5873   -9.6596    0.0000 O   0  0  0  0  0  0  0  0  0  0  0  0
   10.5800   -8.8346    0.0000 C   0  0  1  0  0  0  0  0  0  0  0  0
    9.8620   -8.4284    0.0000 O   0  0  0  0  0  0  0  0  0  0  0  0
 11  1  1  0  0  0  0
 18  2  1  0  0  0  0
  5  4  1  6  0  0  0
  5  6  1  0  0  0  0
  6  7  1  1  0  0  0
  7  3  1  0  0  0  0
 14  9  2  0  0  0  0
 10 15  2  0  0  0  0
 11 10  1  0  0  0  0
 12 11  2  0  0  0  0
 13 12  1  0  0  0  0
 16 13  2  0  0  0  0
 14 19  1  0  0  0  0
 15 14  1  0  0  0  0
 16 15  1  0  0  0  0
 17 16  1  0  0  0  0
 20 17  1  0  0  0  0
 18 22  1  0  0  0  0
 19 18  2  0  0  0  0
 20 19  1  0  0  0  0
 21 20  2  0  0  0  0
 23 21  1  0  0  0  0
 23 22  2  0  0  0  0
 28 23  1  0  0  0  0
  5  8  1  0  0  0  0
  8 24  1  0  0  0  0
 24 25  1  0  0  0  0
 25 26  1  0  0  0  0
 26  6  1  0  0  0  0
 34 27  1  1  0  0  0
 35 29  1  6  0  0  0
 24 39  1  6  0  0  0
 36 30  1  6  0  0  0
 25 28  1  1  0  0  0
 32 31  1  6  0  0  0
 32 37  1  0  0  0  0
 34 32  1  0  0  0  0
 35 34  1  0  0  0  0
 36 35  1  0  0  0  0
 38 36  1  0  0  0  0
  8 33  1  1  0  0  0
 38 37  1  0  0  0  0
 38 39  1  1  0  0  0
M  END
>  <cdx:fragmentId>
5

$$$$
