40325.cdx
  Mrv1902 05222410252D          

 30 32  0  0  0  0            999 V2000
    3.3256   -9.8576    0.0000 C   0  0  0  0  0  0  0  0  0  0  0  0
    3.3256  -10.6826    0.0000 C   0  0  0  0  0  0  0  0  0  0  0  0
    4.0400  -11.0951    0.0000 C   0  0  0  0  0  0  0  0  0  0  0  0
    4.7545  -10.6826    0.0000 C   0  0  0  0  0  0  0  0  0  0  0  0
    4.7545   -9.8576    0.0000 C   0  0  0  0  0  0  0  0  0  0  0  0
    4.0400   -9.4451    0.0000 C   0  0  0  0  0  0  0  0  0  0  0  0
    6.1834   -9.8576    0.0000 O   0  0  0  0  0  0  0  0  0  0  0  0
    5.4690   -9.4451    0.0000 C   0  0  0  0  0  0  0  0  0  0  0  0
    6.8979  -11.0951    0.0000 O   0  0  0  0  0  0  0  0  0  0  0  0
    7.6124  -10.6826    0.0000 C   0  0  1  0  0  0  0  0  0  0  0  0
    7.6124   -9.8576    0.0000 C   0  0  1  0  0  0  0  0  0  0  0  0
    6.8979   -9.4451    0.0000 C   0  0  0  0  0  0  0  0  0  0  0  0
    8.3269  -11.0951    0.0000 C   0  0  1  0  0  0  0  0  0  0  0  0
    9.0413  -10.6826    0.0000 C   0  0  2  0  0  0  0  0  0  0  0  0
    9.0413   -9.8576    0.0000 C   0  0  2  0  0  0  0  0  0  0  0  0
    8.3269   -9.4451    0.0000 O   0  0  0  0  0  0  0  0  0  0  0  0
    9.7558   -9.4451    0.0000 O   0  0  0  0  0  0  0  0  0  0  0  0
    9.7558   -8.6201    0.0000 C   0  0  2  0  0  0  0  0  0  0  0  0
    9.0413   -8.2076    0.0000 C   0  0  1  0  0  0  0  0  0  0  0  0
    8.3269   -8.6201    0.0000 O   0  0  0  0  0  0  0  0  0  0  0  0
   10.4703   -8.2076    0.0000 C   0  0  0  0  0  0  0  0  0  0  0  0
   10.4703   -7.3826    0.0000 O   0  0  0  0  0  0  0  0  0  0  0  0
    9.7558   -6.9701    0.0000 C   0  0  1  0  0  0  0  0  0  0  0  0
    9.0413   -7.3826    0.0000 C   0  0  1  0  0  0  0  0  0  0  0  0
    5.4690   -8.6201    0.0000 O   0  0  0  0  0  0  0  0  0  0  0  0
    9.7558   -6.1451    0.0000 C   0  0  0  0  0  0  0  0  0  0  0  0
    9.0413   -5.7326    0.0000 O   0  0  0  0  0  0  0  0  0  0  0  0
    8.3269  -11.9201    0.0000 O   0  0  0  0  0  0  0  0  0  0  0  0
    8.3269   -6.9701    0.0000 O   0  0  0  0  0  0  0  0  0  0  0  0
    9.7558  -11.0951    0.0000 O   0  0  0  0  0  0  0  0  0  0  0  0
  1  2  2  0  0  0  0
  2  3  1  0  0  0  0
  3  4  2  0  0  0  0
  4  5  1  0  0  0  0
  5  6  2  0  0  0  0
  6  1  1  0  0  0  0
  7  8  1  0  0  0  0
  8  5  1  0  0  0  0
 10  9  1  1  0  0  0
 10 11  1  0  0  0  0
 11 12  1  1  0  0  0
 12  7  1  0  0  0  0
 10 13  1  0  0  0  0
 13 14  1  0  0  0  0
 14 15  1  0  0  0  0
 15 16  1  0  0  0  0
 16 11  1  0  0  0  0
 15 17  1  6  0  0  0
 18 17  1  6  0  0  0
 18 19  1  0  0  0  0
 19 20  1  1  0  0  0
 18 21  1  0  0  0  0
 21 22  1  0  0  0  0
 22 23  1  0  0  0  0
 23 24  1  0  0  0  0
 24 19  1  0  0  0  0
  8 25  2  0  0  0  0
 23 26  1  1  0  0  0
 26 27  1  0  0  0  0
 13 28  1  1  0  0  0
 24 29  1  6  0  0  0
 14 30  1  6  0  0  0
M  END
>  <cdx:fragmentId>
5

$$$$
