40338.cdx
  Mrv1902 05222410222D          

 12 12  0  0  0  0            999 V2000
    6.4056   -8.1801    0.0000 C   0  0  0  0  0  0  0  0  0  0  0  0
    6.4056   -9.0051    0.0000 C   0  0  0  0  0  0  0  0  0  0  0  0
    7.1200   -9.4176    0.0000 C   0  0  0  0  0  0  0  0  0  0  0  0
    7.8345   -9.0051    0.0000 C   0  0  0  0  0  0  0  0  0  0  0  0
    7.8345   -8.1801    0.0000 C   0  0  0  0  0  0  0  0  0  0  0  0
    7.1200   -7.7676    0.0000 C   0  0  0  0  0  0  0  0  0  0  0  0
    7.1200   -6.9426    0.0000 C   0  0  0  0  0  0  0  0  0  0  0  0
    6.4056   -6.5301    0.0000 O   0  0  0  0  0  0  0  0  0  0  0  0
    7.8345   -6.5301    0.0000 O   0  0  0  0  0  0  0  0  0  0  0  0
    7.8345   -5.7051    0.0000 C   0  0  0  0  0  0  0  0  0  0  0  0
    8.5490   -5.2926    0.0000 C   0  0  0  0  0  0  0  0  0  0  0  0
    8.5490   -4.4676    0.0000 C   0  0  0  0  0  0  0  0  0  0  0  0
  1  2  2  0  0  0  0
  2  3  1  0  0  0  0
  3  4  2  0  0  0  0
  4  5  1  0  0  0  0
  5  6  2  0  0  0  0
  6  1  1  0  0  0  0
  6  7  1  0  0  0  0
  7  8  2  0  0  0  0
  7  9  1  0  0  0  0
  9 10  1  0  0  0  0
 10 11  1  0  0  0  0
 11 12  1  0  0  0  0
M  END
>  <cdx:fragmentId>
5

$$$$
