40334.cdx
  Mrv1902 05222410242D          

 24 25  0  0  0  0            999 V2000
    3.3531  -10.6964    0.0000 O   0  0  0  0  0  0  0  0  0  0  0  0
    4.0675  -11.9339    0.0000 O   0  0  0  0  0  0  0  0  0  0  0  0
    4.7820  -11.5214    0.0000 C   0  0  2  0  0  0  0  0  0  0  0  0
    4.7820  -10.6964    0.0000 C   0  0  1  0  0  0  0  0  0  0  0  0
    4.0675  -10.2839    0.0000 C   0  0  0  0  0  0  0  0  0  0  0  0
    5.4965  -11.9339    0.0000 C   0  0  1  0  0  0  0  0  0  0  0  0
    6.2109  -11.5214    0.0000 C   0  0  2  0  0  0  0  0  0  0  0  0
    6.2109  -10.6964    0.0000 C   0  0  1  0  0  0  0  0  0  0  0  0
    5.4965  -10.2839    0.0000 O   0  0  0  0  0  0  0  0  0  0  0  0
    6.9254  -11.9339    0.0000 O   0  0  0  0  0  0  0  0  0  0  0  0
    6.9254  -10.2839    0.0000 O   0  0  0  0  0  0  0  0  0  0  0  0
    6.9254   -9.4589    0.0000 C   0  0  0  0  0  0  0  0  0  0  0  0
    6.2109   -9.0464    0.0000 C   0  0  0  0  0  0  0  0  0  0  0  0
    7.6399   -9.0464    0.0000 C   0  0  0  0  0  0  0  0  0  0  0  0
    7.6399   -8.2214    0.0000 C   0  0  0  0  0  0  0  0  0  0  0  0
    6.9254   -7.8089    0.0000 C   0  0  0  0  0  0  0  0  0  0  0  0
    6.2109   -8.2214    0.0000 C   0  0  0  0  0  0  0  0  0  0  0  0
    8.3544   -7.8089    0.0000 C   0  0  0  0  0  0  0  0  0  0  0  0
    8.3544   -6.9839    0.0000 C   0  0  0  0  0  0  0  0  0  0  0  0
    5.4965  -12.7589    0.0000 O   0  0  0  0  0  0  0  0  0  0  0  0
    5.4965   -9.4589    0.0000 O   0  0  0  0  0  0  0  0  0  0  0  0
    6.9254   -6.9839    0.0000 O   0  0  0  0  0  0  0  0  0  0  0  0
    8.3544   -9.4589    0.0000 O   0  0  0  0  0  0  0  0  0  0  0  0
    9.0688   -8.2214    0.0000 O   0  0  0  0  0  0  0  0  0  0  0  0
  3  2  1  6  0  0  0
  3  4  1  0  0  0  0
  4  5  1  1  0  0  0
  5  1  1  0  0  0  0
  3  6  1  0  0  0  0
  6  7  1  0  0  0  0
  7  8  1  0  0  0  0
  8  9  1  0  0  0  0
  9  4  1  0  0  0  0
  7 10  1  6  0  0  0
  8 11  1  1  0  0  0
 11 12  1  0  0  0  0
 12 13  2  0  0  0  0
 12 14  1  0  0  0  0
 14 15  2  0  0  0  0
 15 16  1  0  0  0  0
 16 17  2  0  0  0  0
 17 13  1  0  0  0  0
 15 18  1  0  0  0  0
 18 19  1  0  0  0  0
  6 20  1  1  0  0  0
 13 21  1  0  0  0  0
 16 22  1  0  0  0  0
 14 23  1  0  0  0  0
 18 24  2  0  0  0  0
M  END
>  <cdx:fragmentId>
5

$$$$
