40333.cdx
  Mrv1902 05222410252D          

 41 45  0  0  0  0            999 V2000
    3.8844   -5.3417    0.0000 O   0  0  0  0  0  0  0  0  0  0  0  0
    3.1759   -6.5826    0.0000 O   0  0  0  0  0  0  0  0  0  0  0  0
    3.8924   -6.9917    0.0000 C   0  0  2  0  0  0  0  0  0  0  0  0
    4.6049   -6.5757    0.0000 C   0  0  1  0  0  0  0  0  0  0  0  0
    4.6009   -5.7507    0.0000 C   0  0  0  0  0  0  0  0  0  0  0  0
    3.8964   -7.8167    0.0000 C   0  0  1  0  0  0  0  0  0  0  0  0
    4.6128   -8.2257    0.0000 C   0  0  2  0  0  0  0  0  0  0  0  0
    5.3253   -7.8097    0.0000 C   0  0  1  0  0  0  0  0  0  0  0  0
    5.3213   -6.9848    0.0000 O   0  0  0  0  0  0  0  0  0  0  0  0
    1.7670  -10.7145    0.0000 O   0  0  0  0  0  0  0  0  0  0  0  0
    6.0418   -8.2188    0.0000 O   0  0  0  0  0  0  0  0  0  0  0  0
    3.1999  -11.5326    0.0000 O   0  0  0  0  0  0  0  0  0  0  0  0
    4.6248  -10.7007    0.0000 O   0  0  0  0  0  0  0  0  0  0  0  0
    1.7590   -9.0645    0.0000 C   0  0  0  0  0  0  0  0  0  0  0  0
    2.4754   -9.4735    0.0000 C   0  0  1  0  0  0  0  0  0  0  0  0
    6.7542   -7.8028    0.0000 C   0  0  0  0  0  0  0  0  0  0  0  0
    6.7502   -6.9778    0.0000 C   0  0  0  0  0  0  0  0  0  0  0  0
    6.0338   -6.5688    0.0000 O   0  0  0  0  0  0  0  0  0  0  0  0
    7.4707   -8.2119    0.0000 C   0  0  0  0  0  0  0  0  0  0  0  0
    8.1832   -7.7959    0.0000 C   0  0  0  0  0  0  0  0  0  0  0  0
    8.1792   -6.9709    0.0000 C   0  0  0  0  0  0  0  0  0  0  0  0
    7.4627   -6.5619    0.0000 C   0  0  0  0  0  0  0  0  0  0  0  0
    8.8996   -8.2050    0.0000 O   0  0  0  0  0  0  0  0  0  0  0  0
    9.6121   -7.7890    0.0000 C   0  0  0  0  0  0  0  0  0  0  0  0
    9.6081   -6.9640    0.0000 C   0  0  0  0  0  0  0  0  0  0  0  0
    8.8916   -6.5550    0.0000 C   0  0  0  0  0  0  0  0  0  0  0  0
   10.3285   -8.1980    0.0000 C   0  0  0  0  0  0  0  0  0  0  0  0
   11.0410   -7.7821    0.0000 C   0  0  0  0  0  0  0  0  0  0  0  0
   11.0370   -6.9571    0.0000 C   0  0  0  0  0  0  0  0  0  0  0  0
   10.3206   -6.5481    0.0000 C   0  0  0  0  0  0  0  0  0  0  0  0
    6.0298   -5.7438    0.0000 C   0  0  0  0  0  0  0  0  0  0  0  0
    8.8876   -5.7300    0.0000 O   0  0  0  0  0  0  0  0  0  0  0  0
   10.3166   -5.7231    0.0000 O   0  0  0  0  0  0  0  0  0  0  0  0
   11.7575   -8.1911    0.0000 O   0  0  0  0  0  0  0  0  0  0  0  0
    3.1839   -8.2326    0.0000 O   0  0  0  0  0  0  0  0  0  0  0  0
    2.4794  -10.2985    0.0000 C   0  0  1  0  0  0  0  0  0  0  0  0
    3.1959  -10.7076    0.0000 C   0  0  2  0  0  0  0  0  0  0  0  0
    3.9084  -10.2916    0.0000 C   0  0  2  0  0  0  0  0  0  0  0  0
    3.1879   -9.0576    0.0000 O   0  0  0  0  0  0  0  0  0  0  0  0
    3.9044   -9.4666    0.0000 C   0  0  1  0  0  0  0  0  0  0  0  0
    4.6168   -9.0507    0.0000 O   0  0  0  0  0  0  0  0  0  0  0  0
  3  2  1  6  0  0  0
  3  4  1  0  0  0  0
  4  5  1  1  0  0  0
  5  1  1  0  0  0  0
  3  6  1  0  0  0  0
  6  7  1  0  0  0  0
  7  8  1  0  0  0  0
  8  9  1  0  0  0  0
  9  4  1  0  0  0  0
 36 10  1  1  0  0  0
 37 12  1  6  0  0  0
  7 41  1  6  0  0  0
 38 13  1  6  0  0  0
  8 11  1  1  0  0  0
 15 14  1  6  0  0  0
 15 39  1  0  0  0  0
 36 15  1  0  0  0  0
 37 36  1  0  0  0  0
 38 37  1  0  0  0  0
 40 38  1  0  0  0  0
 11 16  1  0  0  0  0
 16 17  2  0  0  0  0
 17 18  1  0  0  0  0
 16 19  1  0  0  0  0
 19 20  2  0  0  0  0
 20 21  1  0  0  0  0
 21 22  2  0  0  0  0
 22 17  1  0  0  0  0
 20 23  1  0  0  0  0
 23 24  1  0  0  0  0
 24 25  1  0  0  0  0
 25 26  1  0  0  0  0
 26 21  1  0  0  0  0
 24 27  2  0  0  0  0
 27 28  1  0  0  0  0
 28 29  2  0  0  0  0
 29 30  1  0  0  0  0
 30 25  2  0  0  0  0
 18 31  1  0  0  0  0
 26 32  2  0  0  0  0
 30 33  1  0  0  0  0
 28 34  1  0  0  0  0
  6 35  1  1  0  0  0
 40 39  1  0  0  0  0
 40 41  1  1  0  0  0
M  END
>  <cdx:fragmentId>
5

$$$$
