40330.cdx
  Mrv1902 05222410252D          

 41 45  0  0  0  0            999 V2000
    2.1843  -10.5314    0.0000 C   0  0  0  0  0  0  0  0  0  0  0  0
    2.1843  -11.3564    0.0000 C   0  0  0  0  0  0  0  0  0  0  0  0
    2.8988  -11.7689    0.0000 C   0  0  0  0  0  0  0  0  0  0  0  0
    3.6132  -11.3564    0.0000 C   0  0  0  0  0  0  0  0  0  0  0  0
    3.6132  -10.5314    0.0000 C   0  0  0  0  0  0  0  0  0  0  0  0
    2.8988  -10.1189    0.0000 C   0  0  0  0  0  0  0  0  0  0  0  0
    4.3277  -11.7689    0.0000 O   0  0  0  0  0  0  0  0  0  0  0  0
    5.0422  -11.3564    0.0000 C   0  0  0  0  0  0  0  0  0  0  0  0
    5.0422  -10.5314    0.0000 C   0  0  0  0  0  0  0  0  0  0  0  0
    4.3277  -10.1189    0.0000 C   0  0  0  0  0  0  0  0  0  0  0  0
    5.7567  -11.7689    0.0000 C   0  0  0  0  0  0  0  0  0  0  0  0
    6.4711  -11.3564    0.0000 C   0  0  0  0  0  0  0  0  0  0  0  0
    6.4711  -10.5314    0.0000 C   0  0  0  0  0  0  0  0  0  0  0  0
    5.7567  -10.1189    0.0000 C   0  0  0  0  0  0  0  0  0  0  0  0
    7.1856  -11.7689    0.0000 O   0  0  0  0  0  0  0  0  0  0  0  0
    7.9001   -8.0564    0.0000 O   0  0  0  0  0  0  0  0  0  0  0  0
    7.1856  -10.9439    0.0000 H   0  0  0  0  0  0  0  0  0  0  0  0
   10.7580  -10.5314    0.0000 C   0  0  2  0  0  0  0  0  0  0  0  0
    9.3290  -10.5314    0.0000 C   0  0  0  0  0  0  0  0  0  0  0  0
   10.0435  -10.1189    0.0000 O   0  0  0  0  0  0  0  0  0  0  0  0
    9.3290   -8.8814    0.0000 O   0  0  0  0  0  0  0  0  0  0  0  0
    1.4698  -10.1189    0.0000 O   0  0  0  0  0  0  0  0  0  0  0  0
    1.4698  -11.7689    0.0000 O   0  0  0  0  0  0  0  0  0  0  0  0
    4.3277   -9.2939    0.0000 O   0  0  0  0  0  0  0  0  0  0  0  0
    5.7567   -9.2939    0.0000 O   0  0  0  0  0  0  0  0  0  0  0  0
    7.9001  -10.5314    0.0000 O   0  0  0  0  0  0  0  0  0  0  0  0
    8.6145  -10.1189    0.0000 C   0  0  1  0  0  0  0  0  0  0  0  0
    8.6145   -9.2939    0.0000 C   0  0  2  0  0  0  0  0  0  0  0  0
    7.9001   -8.8814    0.0000 C   0  0  1  0  0  0  0  0  0  0  0  0
    7.1856  -10.1189    0.0000 C   0  0  2  0  0  0  0  0  0  0  0  0
    7.1856   -9.2939    0.0000 C   0  0  2  0  0  0  0  0  0  0  0  0
    6.4711   -8.8814    0.0000 O   0  0  0  0  0  0  0  0  0  0  0  0
    0.7554  -10.5314    0.0000 C   0  0  0  0  0  0  0  0  0  0  0  0
   10.8442  -11.3519    0.0000 O   0  0  0  0  0  0  0  0  0  0  0  0
   11.6512  -11.5234    0.0000 C   0  0  0  0  0  0  0  0  0  0  0  0
   12.0637  -10.8089    0.0000 C   0  0  2  0  0  0  0  0  0  0  0  0
   11.5116  -10.1958    0.0000 C   0  0  1  0  0  0  0  0  0  0  0  0
   11.6832   -9.3889    0.0000 O   0  0  0  0  0  0  0  0  0  0  0  0
   12.7781  -10.3964    0.0000 O   0  0  0  0  0  0  0  0  0  0  0  0
   12.7781  -11.2214    0.0000 C   0  0  0  0  0  0  0  0  0  0  0  0
   13.4926  -10.8089    0.0000 O   0  0  0  0  0  0  0  0  0  0  0  0
  1  2  2  0  0  0  0
  2  3  1  0  0  0  0
  3  4  2  0  0  0  0
  4  5  1  0  0  0  0
  5  6  2  0  0  0  0
  6  1  1  0  0  0  0
  4  7  1  0  0  0  0
  7  8  1  0  0  0  0
  8  9  2  0  0  0  0
  9 10  1  0  0  0  0
 10  5  1  0  0  0  0
  8 11  1  0  0  0  0
 11 12  2  0  0  0  0
 12 13  1  0  0  0  0
 13 14  2  0  0  0  0
 14  9  1  0  0  0  0
 29 16  1  1  0  0  0
 12 15  1  0  0  0  0
 30 13  1  0  0  0  0
 30 17  1  6  0  0  0
 18 20  1  1  0  0  0
 27 19  1  1  0  0  0
 20 19  1  0  0  0  0
 28 21  1  6  0  0  0
 26 30  1  0  0  0  0
 27 26  1  0  0  0  0
 28 27  1  0  0  0  0
 29 28  1  0  0  0  0
  1 22  1  0  0  0  0
  2 23  1  0  0  0  0
 10 24  2  0  0  0  0
 14 25  1  0  0  0  0
 31 29  1  0  0  0  0
 31 30  1  0  0  0  0
 31 32  1  6  0  0  0
 22 33  1  0  0  0  0
 18 34  1  0  0  0  0
 34 35  1  0  0  0  0
 35 36  1  0  0  0  0
 36 37  1  0  0  0  0
 37 18  1  0  0  0  0
 37 38  1  6  0  0  0
 36 39  1  6  0  0  0
 36 40  1  1  0  0  0
 40 41  1  0  0  0  0
M  END
>  <cdx:fragmentId>
5

$$$$
