40332.cdx
  Mrv1902 05222410252D          

 43 47  0  0  0  0            999 V2000
    2.3139   -9.6657    0.0000 O   0  0  0  0  0  0  0  0  0  0  0  0
    2.3266   -7.1908    0.0000 C   0  0  0  0  0  0  0  0  0  0  0  0
    8.0423   -7.2199    0.0000 C   0  0  0  0  0  0  0  0  0  0  0  0
    8.0380   -8.0449    0.0000 O   0  0  0  0  0  0  0  0  0  0  0  0
    2.3223   -8.0158    0.0000 O   0  0  0  0  0  0  0  0  0  0  0  0
    6.6133   -7.2126    0.0000 O   0  0  0  0  0  0  0  0  0  0  0  0
    6.5541  -12.9743    0.0000 O   0  0  0  0  0  0  0  0  0  0  0  0
    7.9829  -12.9946    0.0000 O   0  0  0  0  0  0  0  0  0  0  0  0
    7.9946  -12.1697    0.0000 C   0  0  2  0  0  0  0  0  0  0  0  0
    7.2860  -11.7471    0.0000 C   0  0  1  0  0  0  0  0  0  0  0  0
    6.5658  -12.1494    0.0000 C   0  0  0  0  0  0  0  0  0  0  0  0
    8.7148  -11.7673    0.0000 C   0  0  1  0  0  0  0  0  0  0  0  0
    5.1844   -7.2054    0.0000 O   0  0  0  0  0  0  0  0  0  0  0  0
    3.7513   -8.0231    0.0000 C   0  0  0  0  0  0  0  0  0  0  0  0
    3.0347   -8.4319    0.0000 C   0  0  0  0  0  0  0  0  0  0  0  0
    3.0305   -9.2569    0.0000 C   0  0  0  0  0  0  0  0  0  0  0  0
    3.7429   -9.6730    0.0000 C   0  0  0  0  0  0  0  0  0  0  0  0
    5.1802   -8.0303    0.0000 C   0  0  0  0  0  0  0  0  0  0  0  0
    4.4636   -8.4392    0.0000 C   0  0  0  0  0  0  0  0  0  0  0  0
    4.4594   -9.2642    0.0000 C   0  0  0  0  0  0  0  0  0  0  0  0
    5.1718   -9.6803    0.0000 O   0  0  0  0  0  0  0  0  0  0  0  0
    6.6091   -8.0376    0.0000 C   0  0  0  0  0  0  0  0  0  0  0  0
    5.8926   -8.4465    0.0000 C   0  0  0  0  0  0  0  0  0  0  0  0
    5.8883   -9.2715    0.0000 C   0  0  0  0  0  0  0  0  0  0  0  0
    6.6007   -9.6876    0.0000 C   0  0  0  0  0  0  0  0  0  0  0  0
    7.3215   -8.4538    0.0000 C   0  0  0  0  0  0  0  0  0  0  0  0
    7.3173   -9.2788    0.0000 C   0  0  0  0  0  0  0  0  0  0  0  0
    8.7265  -10.9424    0.0000 C   0  0  2  0  0  0  0  0  0  0  0  0
    8.0179  -10.5198    0.0000 C   0  0  1  0  0  0  0  0  0  0  0  0
    7.2977  -10.9222    0.0000 O   0  0  0  0  0  0  0  0  0  0  0  0
   12.2810  -12.2304    0.0000 O   0  0  0  0  0  0  0  0  0  0  0  0
    8.0296   -9.6949    0.0000 O   0  0  0  0  0  0  0  0  0  0  0  0
   12.3043  -10.5805    0.0000 O   0  0  0  0  0  0  0  0  0  0  0  0
   10.8872   -9.7354    0.0000 O   0  0  0  0  0  0  0  0  0  0  0  0
   10.8405  -13.0351    0.0000 C   0  0  0  0  0  0  0  0  0  0  0  0
   10.8522  -12.2101    0.0000 C   0  0  1  0  0  0  0  0  0  0  0  0
    9.4234  -12.1899    0.0000 O   0  0  0  0  0  0  0  0  0  0  0  0
   11.5724  -11.8078    0.0000 C   0  0  1  0  0  0  0  0  0  0  0  0
   11.5841  -10.9829    0.0000 C   0  0  2  0  0  0  0  0  0  0  0  0
   10.8755  -10.5603    0.0000 C   0  0  2  0  0  0  0  0  0  0  0  0
   10.1436  -11.7876    0.0000 O   0  0  0  0  0  0  0  0  0  0  0  0
   10.1553  -10.9626    0.0000 C   0  0  1  0  0  0  0  0  0  0  0  0
    9.4467  -10.5401    0.0000 O   0  0  0  0  0  0  0  0  0  0  0  0
 16  1  1  0  0  0  0
  5  2  1  0  0  0  0
  4  3  1  0  0  0  0
 26  4  1  0  0  0  0
 15  5  1  0  0  0  0
 22  6  1  0  0  0  0
  9  8  1  6  0  0  0
  9 10  1  0  0  0  0
 10 11  1  1  0  0  0
 11  7  1  0  0  0  0
 18 13  2  0  0  0  0
 14 19  2  0  0  0  0
 15 14  1  0  0  0  0
 16 15  2  0  0  0  0
 17 16  1  0  0  0  0
 20 17  2  0  0  0  0
 18 23  1  0  0  0  0
 19 18  1  0  0  0  0
 20 19  1  0  0  0  0
 21 20  1  0  0  0  0
 24 21  1  0  0  0  0
 22 26  1  0  0  0  0
 23 22  2  0  0  0  0
 24 23  1  0  0  0  0
 25 24  2  0  0  0  0
 27 25  1  0  0  0  0
 27 26  2  0  0  0  0
 32 27  1  0  0  0  0
  9 12  1  0  0  0  0
 12 28  1  0  0  0  0
 28 29  1  0  0  0  0
 29 30  1  0  0  0  0
 30 10  1  0  0  0  0
 38 31  1  1  0  0  0
 39 33  1  6  0  0  0
 28 43  1  6  0  0  0
 40 34  1  6  0  0  0
 29 32  1  1  0  0  0
 36 35  1  6  0  0  0
 36 41  1  0  0  0  0
 38 36  1  0  0  0  0
 39 38  1  0  0  0  0
 40 39  1  0  0  0  0
 42 40  1  0  0  0  0
 12 37  1  1  0  0  0
 42 41  1  0  0  0  0
 42 43  1  1  0  0  0
M  END
>  <cdx:fragmentId>
5

$$$$
