40339.cdx
  Mrv1902 05222410222D          

 10 10  0  0  0  0            999 V2000
    5.9381   -9.8989    0.0000 C   0  0  0  0  0  0  0  0  0  0  0  0
    5.9381  -10.7239    0.0000 C   0  0  0  0  0  0  0  0  0  0  0  0
    6.6525  -11.1364    0.0000 C   0  0  0  0  0  0  0  0  0  0  0  0
    7.3670  -10.7239    0.0000 C   0  0  0  0  0  0  0  0  0  0  0  0
    7.3670   -9.8989    0.0000 C   0  0  0  0  0  0  0  0  0  0  0  0
    6.6525   -9.4864    0.0000 C   0  0  0  0  0  0  0  0  0  0  0  0
    5.2236   -9.4864    0.0000 H   0  0  0  0  0  0  0  0  0  0  0  0
    6.6525   -8.6614    0.0000 C   0  0  0  0  0  0  0  0  0  0  0  0
    7.3670   -8.2489    0.0000 C   0  0  0  0  0  0  0  0  0  0  0  0
    7.3670   -7.4239    0.0000 C   0  0  0  0  0  0  0  0  0  0  0  0
  1  2  1  0  0  0  0
  2  3  1  0  0  0  0
  3  4  1  0  0  0  0
  4  5  1  0  0  0  0
  5  6  1  0  0  0  0
  6  1  1  0  0  0  0
  1  7  1  0  0  0  0
  6  8  1  0  0  0  0
  8  9  1  0  0  0  0
  9 10  1  0  0  0  0
M  END
>  <cdx:fragmentId>
5

$$$$
