40342.cdx
  Mrv1902 05222410272D          

 65 72  0  0  0  0            999 V2000
   12.2204  -10.6718    0.0000 C   0  0  0  0  0  0  0  0  0  0  0  0
   11.5060  -11.0843    0.0000 C   0  0  0  0  0  0  0  0  0  0  0  0
   11.5060  -11.9093    0.0000 C   0  0  1  0  0  0  0  0  0  0  0  0
   12.2204  -12.3218    0.0000 C   0  0  2  0  0  0  0  0  0  0  0  0
   12.9349  -11.9093    0.0000 C   0  0  0  0  0  0  0  0  0  0  0  0
   13.6494  -12.3218    0.0000 C   0  0  0  0  0  0  0  0  0  0  0  0
   14.3638  -11.9093    0.0000 C   0  0  0  0  0  0  0  0  0  0  0  0
   14.3638  -11.0843    0.0000 C   0  0  1  0  0  0  0  0  0  0  0  0
   15.0783  -10.6718    0.0000 C   0  0  2  0  0  0  0  0  0  0  0  0
   15.0783   -9.8468    0.0000 C   0  0  0  0  0  0  0  0  0  0  0  0
   14.3638   -9.4343    0.0000 C   0  0  0  0  0  0  0  0  0  0  0  0
   13.6494   -9.8468    0.0000 C   0  0  0  0  0  0  0  0  0  0  0  0
   13.6494  -10.6718    0.0000 C   0  0  0  0  0  0  0  0  0  0  0  0
   12.9349  -11.0843    0.0000 C   0  0  1  0  0  0  0  0  0  0  0  0
   15.0783  -11.4968    0.0000 C   0  0  0  0  0  0  0  0  0  0  0  0
   12.9349  -10.2593    0.0000 C   0  0  0  0  0  0  0  0  0  0  0  0
   14.3638  -10.2593    0.0000 C   0  0  0  0  0  0  0  0  0  0  0  0
   12.6329  -13.0363    0.0000 C   0  0  0  0  0  0  0  0  0  0  0  0
   11.8079  -13.0363    0.0000 C   0  0  0  0  0  0  0  0  0  0  0  0
   10.7915  -12.3218    0.0000 O   0  0  0  0  0  0  0  0  0  0  0  0
   10.0786  -11.0834    0.0000 O   0  0  0  0  0  0  0  0  0  0  0  0
   10.0775  -11.9084    0.0000 C   0  0  2  0  0  0  0  0  0  0  0  0
    9.3626  -12.3200    0.0000 C   0  0  1  0  0  0  0  0  0  0  0  0
    8.6486  -11.9066    0.0000 C   0  0  2  0  0  0  0  0  0  0  0  0
    8.6496  -11.0816    0.0000 C   0  0  1  0  0  0  0  0  0  0  0  0
    9.3646  -10.6700    0.0000 C   0  0  1  0  0  0  0  0  0  0  0  0
    9.3615  -13.1450    0.0000 O   0  0  0  0  0  0  0  0  0  0  0  0
    7.9326  -13.1586    0.0000 O   0  0  0  0  0  0  0  0  0  0  0  0
    8.6510  -13.5643    0.0000 C   0  0  2  0  0  0  0  0  0  0  0  0
    8.6589  -14.3893    0.0000 C   0  0  1  0  0  0  0  0  0  0  0  0
    7.9484  -14.8086    0.0000 C   0  0  2  0  0  0  0  0  0  0  0  0
    7.2300  -14.4029    0.0000 C   0  0  1  0  0  0  0  0  0  0  0  0
    7.2221  -13.5779    0.0000 C   0  0  0  0  0  0  0  0  0  0  0  0
    6.5195  -14.8222    0.0000 O   0  0  0  0  0  0  0  0  0  0  0  0
    9.3657   -9.8450    0.0000 C   0  0  0  0  0  0  0  0  0  0  0  0
    8.6517   -9.4316    0.0000 O   0  0  0  0  0  0  0  0  0  0  0  0
    7.9357  -10.6682    0.0000 O   0  0  0  0  0  0  0  0  0  0  0  0
    7.9336  -12.3182    0.0000 O   0  0  0  0  0  0  0  0  0  0  0  0
   15.7928  -11.0843    0.0000 C   0  0  0  0  0  0  0  0  0  0  0  0
   16.5073  -10.6718    0.0000 C   0  0  0  0  0  0  0  0  0  0  0  0
   16.5073   -9.8468    0.0000 C   0  0  2  0  0  0  0  0  0  0  0  0
   15.7928   -9.4343    0.0000 C   0  0  0  0  0  0  0  0  0  0  0  0
   17.2217   -9.4343    0.0000 C   0  0  0  0  0  0  0  0  0  0  0  0
   17.2217   -8.6093    0.0000 C   0  0  0  0  0  0  0  0  0  0  0  0
   16.5073   -8.1968    0.0000 C   0  0  1  0  0  0  0  0  0  0  0  0
   15.7928   -8.6093    0.0000 C   0  0  0  0  0  0  0  0  0  0  0  0
   16.9198   -7.4823    0.0000 C   0  0  0  0  0  0  0  0  0  0  0  0
   16.0948   -7.4823    0.0000 C   0  0  0  0  0  0  0  0  0  0  0  0
   17.2217  -10.2593    0.0000 C   0  0  0  0  0  0  0  0  0  0  0  0
   17.2217  -11.0843    0.0000 O   0  0  0  0  0  0  0  0  0  0  0  0
   17.9362   -9.8468    0.0000 O   0  0  0  0  0  0  0  0  0  0  0  0
   17.9362  -11.4968    0.0000 C   0  0  2  0  0  0  0  0  0  0  0  0
   17.9362  -12.3218    0.0000 O   0  0  0  0  0  0  0  0  0  0  0  0
   18.6507  -12.7343    0.0000 C   0  0  1  0  0  0  0  0  0  0  0  0
   19.3651  -12.3218    0.0000 C   0  0  2  0  0  0  0  0  0  0  0  0
   19.3651  -11.4968    0.0000 C   0  0  1  0  0  0  0  0  0  0  0  0
   18.6507  -11.0843    0.0000 C   0  0  1  0  0  0  0  0  0  0  0  0
   18.6507  -13.5593    0.0000 C   0  0  0  0  0  0  0  0  0  0  0  0
   20.0796  -11.0843    0.0000 O   0  0  0  0  0  0  0  0  0  0  0  0
   18.6507  -10.2593    0.0000 O   0  0  0  0  0  0  0  0  0  0  0  0
   20.0796  -12.7343    0.0000 O   0  0  0  0  0  0  0  0  0  0  0  0
   19.3651  -13.9718    0.0000 O   0  0  0  0  0  0  0  0  0  0  0  0
   10.0806   -9.4334    0.0000 O   0  0  0  0  0  0  0  0  0  0  0  0
    9.3772  -14.7949    0.0000 O   0  0  0  0  0  0  0  0  0  0  0  0
    7.9562  -15.6335    0.0000 O   0  0  0  0  0  0  0  0  0  0  0  0
  1  2  1  0  0  0  0
  2  3  1  0  0  0  0
  3  4  1  0  0  0  0
  4  5  1  0  0  0  0
  5  6  1  0  0  0  0
  6  7  1  0  0  0  0
  7  8  1  0  0  0  0
  8  9  1  0  0  0  0
  9 10  1  0  0  0  0
 10 11  2  0  0  0  0
 11 12  1  0  0  0  0
 12 13  1  0  0  0  0
  8 13  1  0  0  0  0
 13 14  1  0  0  0  0
  5 14  1  0  0  0  0
  1 14  1  0  0  0  0
  9 15  1  6  0  0  0
 14 16  1  1  0  0  0
  8 17  1  1  0  0  0
  4 18  1  6  0  0  0
  4 19  1  1  0  0  0
 21 22  1  0  0  0  0
 22 23  1  0  0  0  0
 23 24  1  0  0  0  0
 24 25  1  0  0  0  0
 25 26  1  0  0  0  0
 21 26  1  0  0  0  0
 28 29  1  0  0  0  0
 29 30  1  0  0  0  0
 30 31  1  0  0  0  0
 31 32  1  0  0  0  0
 32 33  1  0  0  0  0
 28 33  1  0  0  0  0
 32 34  1  6  0  0  0
 29 27  1  1  0  0  0
 23 27  1  6  0  0  0
 35 36  1  0  0  0  0
 26 35  1  1  0  0  0
 25 37  1  6  0  0  0
 24 38  1  1  0  0  0
 22 20  1  1  0  0  0
  3 20  1  1  0  0  0
  9 39  1  0  0  0  0
 39 40  1  0  0  0  0
 40 41  1  0  0  0  0
 41 42  1  0  0  0  0
 42 10  1  0  0  0  0
 41 43  1  0  0  0  0
 43 44  1  0  0  0  0
 44 45  1  0  0  0  0
 45 46  1  0  0  0  0
 46 42  1  0  0  0  0
 45 47  1  1  0  0  0
 45 48  1  6  0  0  0
 41 49  1  1  0  0  0
 49 50  1  0  0  0  0
 49 51  2  0  0  0  0
 52 50  1  1  0  0  0
 52 53  1  0  0  0  0
 53 54  1  0  0  0  0
 54 55  1  0  0  0  0
 55 56  1  0  0  0  0
 56 57  1  0  0  0  0
 57 52  1  0  0  0  0
 54 58  1  1  0  0  0
 56 59  1  1  0  0  0
 57 60  1  6  0  0  0
 55 61  1  6  0  0  0
 58 62  1  0  0  0  0
 35 63  2  0  0  0  0
 30 64  1  6  0  0  0
 31 65  1  1  0  0  0
M  END
>  <cdx:fragmentId>
31943

$$$$
