40348.cdx
  Mrv1902 05222410182D          

 44 48  0  0  0  0            999 V2000
    6.1235  -11.4340    0.0000 C   0  0  2  0  0  0  0  0  0  0  0  0
    6.8348  -11.8519    0.0000 C   0  0  2  0  0  0  0  0  0  0  0  0
    7.5524  -11.4448    0.0000 C   0  0  1  0  0  0  0  0  0  0  0  0
    7.5586  -10.6198    0.0000 C   0  0  2  0  0  0  0  0  0  0  0  0
    6.8473  -10.2019    0.0000 C   0  0  1  0  0  0  0  0  0  0  0  0
    6.1297  -10.6090    0.0000 O   0  0  0  0  0  0  0  0  0  0  0  0
    6.8536   -9.3769    0.0000 O   0  0  0  0  0  0  0  0  0  0  0  0
    6.1422   -8.9590    0.0000 C   0  0  0  0  0  0  0  0  0  0  0  0
    5.4247   -9.3661    0.0000 C   0  0  0  0  0  0  0  0  0  0  0  0
    5.4184  -10.1911    0.0000 O   0  0  0  0  0  0  0  0  0  0  0  0
    6.1485   -8.1341    0.0000 C   0  0  0  0  0  0  0  0  0  0  0  0
    5.4372   -7.7161    0.0000 O   0  0  0  0  0  0  0  0  0  0  0  0
    4.7196   -8.1232    0.0000 C   0  0  0  0  0  0  0  0  0  0  0  0
    4.7133   -8.9482    0.0000 C   0  0  0  0  0  0  0  0  0  0  0  0
    4.0083   -7.7053    0.0000 C   0  0  0  0  0  0  0  0  0  0  0  0
    3.2907   -8.1124    0.0000 C   0  0  0  0  0  0  0  0  0  0  0  0
    3.2844   -8.9373    0.0000 C   0  0  0  0  0  0  0  0  0  0  0  0
    3.9958   -9.3552    0.0000 C   0  0  0  0  0  0  0  0  0  0  0  0
    3.9895  -10.1802    0.0000 O   0  0  0  0  0  0  0  0  0  0  0  0
    7.5774   -8.1449    0.0000 C   0  0  0  0  0  0  0  0  0  0  0  0
    6.8661   -7.7270    0.0000 C   0  0  0  0  0  0  0  0  0  0  0  0
    8.2950   -7.7378    0.0000 C   0  0  0  0  0  0  0  0  0  0  0  0
    8.3012   -6.9129    0.0000 C   0  0  0  0  0  0  0  0  0  0  0  0
    7.5899   -6.4949    0.0000 C   0  0  0  0  0  0  0  0  0  0  0  0
    6.8723   -6.9020    0.0000 C   0  0  0  0  0  0  0  0  0  0  0  0
   10.4610   -5.7042    0.0000 O   0  0  0  0  0  0  0  0  0  0  0  0
   10.4476   -6.5291    0.0000 C   0  0  1  0  0  0  0  0  0  0  0  0
    9.7265   -6.9299    0.0000 C   0  0  2  0  0  0  0  0  0  0  0  0
    9.0188   -6.5058    0.0000 O   0  0  0  0  0  0  0  0  0  0  0  0
   11.1552   -6.9531    0.0000 C   0  0  2  0  0  0  0  0  0  0  0  0
   11.1418   -7.7780    0.0000 C   0  0  1  0  0  0  0  0  0  0  0  0
   10.4207   -8.1788    0.0000 C   0  0  2  0  0  0  0  0  0  0  0  0
    9.7130   -7.7548    0.0000 O   0  0  0  0  0  0  0  0  0  0  0  0
    5.4059  -11.8410    0.0000 C   0  0  0  0  0  0  0  0  0  0  0  0
    5.3996  -12.6660    0.0000 O   0  0  0  0  0  0  0  0  0  0  0  0
    2.5794   -7.6945    0.0000 O   0  0  0  0  0  0  0  0  0  0  0  0
    7.5962   -5.6700    0.0000 O   0  0  0  0  0  0  0  0  0  0  0  0
   10.4073   -9.0037    0.0000 C   0  0  0  0  0  0  0  0  0  0  0  0
   11.1217   -9.4162    0.0000 O   0  0  0  0  0  0  0  0  0  0  0  0
    8.2637  -11.8627    0.0000 O   0  0  0  0  0  0  0  0  0  0  0  0
   11.8495   -8.2021    0.0000 O   0  0  0  0  0  0  0  0  0  0  0  0
    6.8285  -12.6768    0.0000 O   0  0  0  0  0  0  0  0  0  0  0  0
    8.2762  -10.2128    0.0000 O   0  0  0  0  0  0  0  0  0  0  0  0
   11.8763   -6.5523    0.0000 O   0  0  0  0  0  0  0  0  0  0  0  0
  1  2  1  0  0  0  0
  2  3  1  0  0  0  0
  3  4  1  0  0  0  0
  4  5  1  0  0  0  0
  5  6  1  0  0  0  0
  6  1  1  0  0  0  0
  5  7  1  1  0  0  0
  7  8  1  0  0  0  0
  8  9  1  0  0  0  0
  9 10  2  0  0  0  0
  8 11  2  0  0  0  0
 11 12  1  0  0  0  0
 12 13  1  0  0  0  0
 13 14  1  0  0  0  0
 14  9  1  0  0  0  0
 13 15  2  0  0  0  0
 15 16  1  0  0  0  0
 16 17  2  0  0  0  0
 17 18  1  0  0  0  0
 18 14  2  0  0  0  0
 18 19  1  0  0  0  0
 20 21  1  0  0  0  0
 21 11  1  0  0  0  0
 20 22  2  0  0  0  0
 22 23  1  0  0  0  0
 23 24  2  0  0  0  0
 24 25  1  0  0  0  0
 25 21  2  0  0  0  0
 27 26  1  6  0  0  0
 27 28  1  0  0  0  0
 28 29  1  1  0  0  0
 29 23  1  0  0  0  0
 27 30  1  0  0  0  0
 30 31  1  0  0  0  0
 31 32  1  0  0  0  0
 32 33  1  0  0  0  0
 33 28  1  0  0  0  0
  1 34  1  1  0  0  0
 34 35  1  0  0  0  0
 16 36  1  0  0  0  0
 24 37  1  0  0  0  0
 32 38  1  1  0  0  0
 38 39  1  0  0  0  0
  3 40  1  1  0  0  0
 31 41  1  6  0  0  0
  2 42  1  6  0  0  0
  4 43  1  6  0  0  0
 30 44  1  1  0  0  0
M  END
>  <cdx:fragmentId>
5

$$$$
