40347.cdx
  Mrv1902 05222410272D          

 38 42  0  0  0  0            999 V2000
    3.4218  -11.9889    0.0000 C   0  0  0  0  0  0  0  0  0  0  0  0
    3.4218  -12.8139    0.0000 C   0  0  1  0  0  0  0  0  0  0  0  0
    4.1363  -13.2264    0.0000 C   0  0  2  0  0  0  0  0  0  0  0  0
    4.8507  -12.8139    0.0000 C   0  0  1  0  0  0  0  0  0  0  0  0
    4.8507  -11.9889    0.0000 C   0  0  2  0  0  0  0  0  0  0  0  0
    4.1363  -11.5764    0.0000 C   0  0  0  0  0  0  0  0  0  0  0  0
    5.5652  -13.2264    0.0000 C   0  0  0  0  0  0  0  0  0  0  0  0
    6.2797  -12.8139    0.0000 C   0  0  0  0  0  0  0  0  0  0  0  0
    6.2797  -11.9889    0.0000 C   0  0  2  0  0  0  0  0  0  0  0  0
    5.5652  -11.5764    0.0000 C   0  0  1  0  0  0  0  0  0  0  0  0
    6.9942  -11.5764    0.0000 C   0  0  1  0  0  0  0  0  0  0  0  0
    6.9942  -10.7514    0.0000 C   0  0  2  0  0  0  0  0  0  0  0  0
    6.2797  -10.3389    0.0000 C   0  0  0  0  0  0  0  0  0  0  0  0
    5.5652  -10.7514    0.0000 C   0  0  0  0  0  0  0  0  0  0  0  0
    7.7788  -11.8313    0.0000 C   0  0  0  0  0  0  0  0  0  0  0  0
    8.2637  -11.1639    0.0000 C   0  0  0  0  0  0  0  0  0  0  0  0
    7.7788  -10.4965    0.0000 C   0  0  2  0  0  0  0  0  0  0  0  0
    3.7238  -13.9409    0.0000 C   0  0  0  0  0  0  0  0  0  0  0  0
    4.1363  -14.6553    0.0000 O   0  0  0  0  0  0  0  0  0  0  0  0
    2.8988  -13.9409    0.0000 O   0  0  0  0  0  0  0  0  0  0  0  0
    8.0337   -9.7118    0.0000 C   0  0  1  0  0  0  0  0  0  0  0  0
    8.8306   -9.4983    0.0000 C   0  0  0  0  0  0  0  0  0  0  0  0
    9.0441   -8.7014    0.0000 C   0  0  0  0  0  0  0  0  0  0  0  0
    9.8410   -8.4879    0.0000 C   0  0  0  0  0  0  0  0  0  0  0  0
   10.0545   -7.6910    0.0000 C   0  0  0  0  0  0  0  0  0  0  0  0
   10.8514   -7.4775    0.0000 C   0  0  0  0  0  0  0  0  0  0  0  0
    9.4712   -7.1076    0.0000 C   0  0  0  0  0  0  0  0  0  0  0  0
   10.4244   -9.0713    0.0000 C   0  0  0  0  0  0  0  0  0  0  0  0
    4.1363  -10.7514    0.0000 O   0  0  0  0  0  0  0  0  0  0  0  0
    2.7073  -13.2264    0.0000 O   0  0  0  0  0  0  0  0  0  0  0  0
    4.5488  -13.9409    0.0000 C   0  0  0  0  0  0  0  0  0  0  0  0
    4.8507  -11.1639    0.0000 C   0  0  0  0  0  0  0  0  0  0  0  0
    6.8631  -12.5723    0.0000 H   0  0  0  0  0  0  0  0  0  0  0  0
    6.9942   -9.9264    0.0000 C   0  0  0  0  0  0  0  0  0  0  0  0
    4.8507  -13.6389    0.0000 H   0  0  0  0  0  0  0  0  0  0  0  0
    7.2077  -12.3733    0.0000 C   0  0  0  0  0  0  0  0  0  0  0  0
    7.4658   -9.1134    0.0000 C   0  0  0  0  0  0  0  0  0  0  0  0
    8.5757  -10.2829    0.0000 H   0  0  0  0  0  0  0  0  0  0  0  0
  1  2  1  0  0  0  0
  2  3  1  0  0  0  0
  3  4  1  0  0  0  0
  4  5  1  0  0  0  0
  5  6  1  0  0  0  0
  6  1  1  0  0  0  0
  4  7  1  0  0  0  0
  7  8  1  0  0  0  0
  8  9  1  0  0  0  0
  9 10  1  0  0  0  0
 10  5  1  0  0  0  0
  9 11  1  0  0  0  0
 11 12  1  0  0  0  0
 12 13  1  0  0  0  0
 13 14  1  0  0  0  0
 14 10  1  0  0  0  0
 11 15  1  0  0  0  0
 15 16  1  0  0  0  0
 16 17  1  0  0  0  0
 17 12  1  0  0  0  0
  3 18  1  0  0  0  0
 18 19  1  0  0  0  0
 18 20  2  0  0  0  0
 17 21  1  0  0  0  0
 21 22  1  0  0  0  0
 22 23  1  0  0  0  0
 23 24  1  0  0  0  0
 24 25  1  0  0  0  0
 25 26  1  0  0  0  0
 25 27  1  0  0  0  0
 24 28  2  0  0  0  0
  6 29  2  0  0  0  0
  2 30  1  1  0  0  0
  3 31  1  1  0  0  0
  5 32  1  1  0  0  0
 10 32  1  1  0  0  0
  9 33  1  1  0  0  0
 12 34  1  1  0  0  0
  4 35  1  6  0  0  0
 11 36  1  6  0  0  0
 21 37  1  6  0  0  0
 17 38  1  6  0  0  0
M  END
>  <cdx:fragmentId>
5

$$$$
