40340.cdx
  Mrv1902 05222410262D          

  9  9  0  0  0  0            999 V2000
    5.3556  -10.8045    0.0000 C   0  0  0  0  0  0  0  0  0  0  0  0
    5.6119  -11.5887    0.0000 C   0  0  0  0  0  0  0  0  0  0  0  0
    6.4369  -11.5873    0.0000 C   0  0  0  0  0  0  0  0  0  0  0  0
    6.6905  -10.8022    0.0000 C   0  0  0  0  0  0  0  0  0  0  0  0
    6.0222  -10.3184    0.0000 C   0  0  0  0  0  0  0  0  0  0  0  0
    4.5705  -10.5510    0.0000 H   0  0  0  0  0  0  0  0  0  0  0  0
    6.0208   -9.4934    0.0000 C   0  0  0  0  0  0  0  0  0  0  0  0
    6.7352   -9.0809    0.0000 C   0  0  0  0  0  0  0  0  0  0  0  0
    6.7352   -8.2559    0.0000 C   0  0  0  0  0  0  0  0  0  0  0  0
  1  2  1  0  0  0  0
  2  3  1  0  0  0  0
  3  4  1  0  0  0  0
  4  5  1  0  0  0  0
  5  1  1  0  0  0  0
  1  6  1  0  0  0  0
  5  7  1  0  0  0  0
  7  8  1  0  0  0  0
  8  9  1  0  0  0  0
M  END
>  <cdx:fragmentId>
5

$$$$
