40346.cdx
  Mrv1902 05222410272D          

 15 16  0  0  0  0            999 V2000
    5.0031   -9.2389    0.0000 C   0  0  0  0  0  0  0  0  0  0  0  0
    5.0031  -10.0639    0.0000 N   0  0  0  0  0  0  0  0  0  0  0  0
    5.7175  -10.4764    0.0000 C   0  0  0  0  0  0  0  0  0  0  0  0
    6.4320  -10.0639    0.0000 C   0  0  0  0  0  0  0  0  0  0  0  0
    6.4320   -9.2389    0.0000 C   0  0  0  0  0  0  0  0  0  0  0  0
    5.7175   -8.8264    0.0000 N   0  0  0  0  0  0  0  0  0  0  0  0
    7.1465  -10.4764    0.0000 N   0  0  0  0  0  0  0  0  0  0  0  0
    7.8609  -10.0639    0.0000 C   0  0  0  0  0  0  0  0  0  0  0  0
    7.8609   -9.2389    0.0000 C   0  0  0  0  0  0  0  0  0  0  0  0
    7.1465   -8.8264    0.0000 N   0  0  0  0  0  0  0  0  0  0  0  0
    8.5754  -10.4764    0.0000 C   0  0  0  0  0  0  0  0  0  0  0  0
    9.2899  -10.0639    0.0000 O   0  0  0  0  0  0  0  0  0  0  0  0
    4.2886   -8.8264    0.0000 N   0  0  0  0  0  0  0  0  0  0  0  0
    5.7175  -11.3014    0.0000 O   0  0  0  0  0  0  0  0  0  0  0  0
    8.5754  -11.3014    0.0000 O   0  0  0  0  0  0  0  0  0  0  0  0
  1  2  1  0  0  0  0
  2  3  1  0  0  0  0
  3  4  1  0  0  0  0
  4  5  1  0  0  0  0
  5  6  1  0  0  0  0
  6  1  2  0  0  0  0
  4  7  2  0  0  0  0
  7  8  1  0  0  0  0
  8  9  2  0  0  0  0
  9 10  1  0  0  0  0
 10  5  2  0  0  0  0
  8 11  1  0  0  0  0
 11 12  1  0  0  0  0
  1 13  1  0  0  0  0
  3 14  2  0  0  0  0
 11 15  2  0  0  0  0
M  END
>  <cdx:fragmentId>
5

$$$$
