40354.cdx
  Mrv1902 05222410262D          

 44 48  0  0  0  0            999 V2000
    5.5668   -5.7464    0.0000 C   0  0  0  0  0  0  0  0  0  0  0  0
    5.5668   -6.5714    0.0000 C   0  0  0  0  0  0  0  0  0  0  0  0
    6.2813   -6.9839    0.0000 C   0  0  0  0  0  0  0  0  0  0  0  0
    6.9957   -6.5714    0.0000 C   0  0  0  0  0  0  0  0  0  0  0  0
    6.9957   -5.7464    0.0000 C   0  0  0  0  0  0  0  0  0  0  0  0
    6.2813   -5.3339    0.0000 C   0  0  0  0  0  0  0  0  0  0  0  0
    6.2813   -7.8089    0.0000 C   0  0  0  0  0  0  0  0  0  0  0  0
    6.9957   -8.2214    0.0000 C   0  0  0  0  0  0  0  0  0  0  0  0
    7.7102   -7.8089    0.0000 C   0  0  0  0  0  0  0  0  0  0  0  0
    7.7102   -6.9839    0.0000 O   0  0  0  0  0  0  0  0  0  0  0  0
    8.4247   -8.2214    0.0000 C   0  0  0  0  0  0  0  0  0  0  0  0
    9.1392   -7.8089    0.0000 C   0  0  0  0  0  0  0  0  0  0  0  0
    8.4247   -9.0464    0.0000 C   0  0  0  0  0  0  0  0  0  0  0  0
    9.1392   -9.4589    0.0000 C   0  0  0  0  0  0  0  0  0  0  0  0
    9.8536   -9.0464    0.0000 C   0  0  0  0  0  0  0  0  0  0  0  0
    9.8536   -8.2214    0.0000 C   0  0  0  0  0  0  0  0  0  0  0  0
    6.2813   -9.4589    0.0000 C   0  0  2  0  0  0  0  0  0  0  0  0
    6.9957   -9.0464    0.0000 O   0  0  0  0  0  0  0  0  0  0  0  0
    5.5668   -8.2214    0.0000 O   0  0  0  0  0  0  0  0  0  0  0  0
    4.8523   -6.9839    0.0000 O   0  0  0  0  0  0  0  0  0  0  0  0
    6.2813   -4.5089    0.0000 O   0  0  0  0  0  0  0  0  0  0  0  0
   10.5681   -7.8089    0.0000 O   0  0  0  0  0  0  0  0  0  0  0  0
   10.5681   -9.4589    0.0000 O   0  0  0  0  0  0  0  0  0  0  0  0
    5.5668   -9.0464    0.0000 O   0  0  0  0  0  0  0  0  0  0  0  0
    4.8523   -9.4589    0.0000 C   0  0  0  0  0  0  0  0  0  0  0  0
    4.8523  -10.2839    0.0000 C   0  0  2  0  0  0  0  0  0  0  0  0
    5.5668  -10.6964    0.0000 C   0  0  0  0  0  0  0  0  0  0  0  0
    6.2813  -10.2839    0.0000 C   0  0  0  0  0  0  0  0  0  0  0  0
    4.1379   -9.0464    0.0000 C   0  0  0  0  0  0  0  0  0  0  0  0
    5.5668  -11.5214    0.0000 O   0  0  0  0  0  0  0  0  0  0  0  0
    4.1379  -10.6964    0.0000 O   0  0  0  0  0  0  0  0  0  0  0  0
    6.9957  -10.6964    0.0000 O   0  0  0  0  0  0  0  0  0  0  0  0
    3.4234   -9.4589    0.0000 O   0  0  0  0  0  0  0  0  0  0  0  0
    6.9957  -11.5214    0.0000 C   0  0  2  0  0  0  0  0  0  0  0  0
    6.2813  -11.9339    0.0000 O   0  0  0  0  0  0  0  0  0  0  0  0
    6.2813  -12.7589    0.0000 C   0  0  0  0  0  0  0  0  0  0  0  0
    6.9957  -13.1714    0.0000 C   0  0  2  0  0  0  0  0  0  0  0  0
    7.7102  -12.7589    0.0000 C   0  0  0  0  0  0  0  0  0  0  0  0
    7.7102  -11.9339    0.0000 C   0  0  1  0  0  0  0  0  0  0  0  0
    5.5668  -13.1714    0.0000 C   0  0  0  0  0  0  0  0  0  0  0  0
    4.8523  -12.7589    0.0000 O   0  0  0  0  0  0  0  0  0  0  0  0
    8.4247  -11.5214    0.0000 O   0  0  0  0  0  0  0  0  0  0  0  0
    6.9957  -13.9964    0.0000 O   0  0  0  0  0  0  0  0  0  0  0  0
    8.4247  -13.1714    0.0000 O   0  0  0  0  0  0  0  0  0  0  0  0
  1  2  1  0  0  0  0
  2  3  2  0  0  0  0
  3  4  1  0  0  0  0
  4  5  2  0  0  0  0
  5  6  1  0  0  0  0
  6  1  2  0  0  0  0
  3  7  1  0  0  0  0
  7  8  1  0  0  0  0
  8  9  2  0  0  0  0
  9 10  1  0  0  0  0
 10  4  1  0  0  0  0
  9 11  1  0  0  0  0
 11 12  2  0  0  0  0
 11 13  1  0  0  0  0
 13 14  2  0  0  0  0
 14 15  1  0  0  0  0
 15 16  2  0  0  0  0
 16 12  1  0  0  0  0
 17 18  1  1  0  0  0
 18  8  1  0  0  0  0
  7 19  2  0  0  0  0
  2 20  1  0  0  0  0
  6 21  1  0  0  0  0
 16 22  1  0  0  0  0
 15 23  1  0  0  0  0
 17 24  1  0  0  0  0
 24 25  1  0  0  0  0
 25 26  1  0  0  0  0
 26 27  1  0  0  0  0
 27 28  1  0  0  0  0
 28 17  1  0  0  0  0
 25 29  1  0  0  0  0
 27 30  1  0  0  0  0
 26 31  1  6  0  0  0
 28 32  1  0  0  0  0
 29 33  1  0  0  0  0
 34 32  1  1  0  0  0
 34 35  1  0  0  0  0
 35 36  1  0  0  0  0
 36 37  1  0  0  0  0
 37 38  1  0  0  0  0
 38 39  1  0  0  0  0
 39 34  1  0  0  0  0
 36 40  1  0  0  0  0
 40 41  1  0  0  0  0
 39 42  1  6  0  0  0
 37 43  1  6  0  0  0
 38 44  1  0  0  0  0
M  END
>  <cdx:fragmentId>
5

$$$$
