4035.cdx
  Mrv1902 05222410252D          

 14 15  0  0  0  0            999 V2000
    4.8708   -7.2806    0.0000 C   0  0  0  0  0  0  0  0  0  0  0  0
    4.8708   -8.1056    0.0000 C   0  0  0  0  0  0  0  0  0  0  0  0
    5.5852   -8.5181    0.0000 C   0  0  0  0  0  0  0  0  0  0  0  0
    6.2997   -8.1056    0.0000 C   0  0  0  0  0  0  0  0  0  0  0  0
    6.2997   -7.2806    0.0000 C   0  0  0  0  0  0  0  0  0  0  0  0
    5.5852   -6.8681    0.0000 C   0  0  0  0  0  0  0  0  0  0  0  0
    7.0142   -8.5181    0.0000 O   0  0  0  0  0  0  0  0  0  0  0  0
    7.7287   -8.1056    0.0000 C   0  0  0  0  0  0  0  0  0  0  0  0
    7.7287   -7.2806    0.0000 C   0  0  0  0  0  0  0  0  0  0  0  0
    7.0142   -6.8681    0.0000 C   0  0  0  0  0  0  0  0  0  0  0  0
    7.0142   -6.0431    0.0000 O   0  0  0  0  0  0  0  0  0  0  0  0
    8.4431   -8.5181    0.0000 C   0  0  0  0  0  0  0  0  0  0  0  0
    8.4431   -6.8681    0.0000 O   0  0  0  0  0  0  0  0  0  0  0  0
    5.5852   -6.0431    0.0000 O   0  0  0  0  0  0  0  0  0  0  0  0
  1  2  2  0  0  0  0
  2  3  1  0  0  0  0
  3  4  2  0  0  0  0
  4  5  1  0  0  0  0
  5  6  2  0  0  0  0
  6  1  1  0  0  0  0
  4  7  1  0  0  0  0
  7  8  1  0  0  0  0
  8  9  2  0  0  0  0
  9 10  1  0  0  0  0
 10  5  1  0  0  0  0
 10 11  2  0  0  0  0
  8 12  1  0  0  0  0
  9 13  1  0  0  0  0
  6 14  1  0  0  0  0
M  END
>  <cdx:fragmentId>
5

$$$$
