40351.cdx
  Mrv1902 05222410282D          

 31 34  0  0  0  0            999 V2000
    3.9993   -9.9126    0.0000 C   0  0  0  0  0  0  0  0  0  0  0  0
    3.9993  -10.7376    0.0000 C   0  0  0  0  0  0  0  0  0  0  0  0
    4.7138  -11.1501    0.0000 C   0  0  0  0  0  0  0  0  0  0  0  0
    5.4282  -10.7376    0.0000 C   0  0  0  0  0  0  0  0  0  0  0  0
    5.4282   -9.9126    0.0000 C   0  0  0  0  0  0  0  0  0  0  0  0
    4.7138   -9.5001    0.0000 C   0  0  0  0  0  0  0  0  0  0  0  0
    6.1427   -9.5001    0.0000 C   0  0  0  0  0  0  0  0  0  0  0  0
    6.1427   -8.6751    0.0000 O   0  0  0  0  0  0  0  0  0  0  0  0
    4.7138   -8.6751    0.0000 O   0  0  0  0  0  0  0  0  0  0  0  0
    6.1427  -11.1501    0.0000 O   0  0  0  0  0  0  0  0  0  0  0  0
    6.8572  -10.7376    0.0000 C   0  0  0  0  0  0  0  0  0  0  0  0
    6.8572   -9.9126    0.0000 C   0  0  0  0  0  0  0  0  0  0  0  0
    7.5717   -9.5001    0.0000 O   0  0  0  0  0  0  0  0  0  0  0  0
    7.5717   -8.6751    0.0000 C   0  0  0  0  0  0  0  0  0  0  0  0
    6.8572   -8.2626    0.0000 O   0  0  0  0  0  0  0  0  0  0  0  0
    8.2861   -8.2626    0.0000 C   0  0  1  0  0  0  0  0  0  0  0  0
    8.2861   -7.4376    0.0000 C   0  0  2  0  0  0  0  0  0  0  0  0
    7.5717   -7.0251    0.0000 C   0  0  2  0  0  0  0  0  0  0  0  0
    6.8572   -7.4376    0.0000 C   0  0  0  0  0  0  0  0  0  0  0  0
    7.5717  -11.1501    0.0000 C   0  0  0  0  0  0  0  0  0  0  0  0
    8.2861  -10.7376    0.0000 C   0  0  0  0  0  0  0  0  0  0  0  0
    7.5717  -11.9751    0.0000 C   0  0  0  0  0  0  0  0  0  0  0  0
    8.2861  -12.3876    0.0000 C   0  0  0  0  0  0  0  0  0  0  0  0
    9.0006  -11.9751    0.0000 C   0  0  0  0  0  0  0  0  0  0  0  0
    9.0006  -11.1501    0.0000 C   0  0  0  0  0  0  0  0  0  0  0  0
    3.2848  -11.1501    0.0000 O   0  0  0  0  0  0  0  0  0  0  0  0
    8.2861  -13.2126    0.0000 O   0  0  0  0  0  0  0  0  0  0  0  0
    9.7151  -12.3876    0.0000 O   0  0  0  0  0  0  0  0  0  0  0  0
    9.0006   -8.6751    0.0000 O   0  0  0  0  0  0  0  0  0  0  0  0
    7.5717   -6.2001    0.0000 O   0  0  0  0  0  0  0  0  0  0  0  0
    9.0006   -7.0251    0.0000 O   0  0  0  0  0  0  0  0  0  0  0  0
  1  2  2  0  0  0  0
  2  3  1  0  0  0  0
  3  4  2  0  0  0  0
  4  5  1  0  0  0  0
  5  6  2  0  0  0  0
  6  1  1  0  0  0  0
  5  7  1  0  0  0  0
  7  8  2  0  0  0  0
  9  6  1  0  0  0  0
  4 10  1  0  0  0  0
 10 11  1  0  0  0  0
 11 12  2  0  0  0  0
 12  7  1  0  0  0  0
 12 13  1  0  0  0  0
 13 14  1  0  0  0  0
 14 15  1  0  0  0  0
 14 16  1  0  0  0  0
 16 17  1  0  0  0  0
 17 18  1  0  0  0  0
 18 19  1  0  0  0  0
 19 15  1  0  0  0  0
 11 20  1  0  0  0  0
 20 21  1  0  0  0  0
 20 22  2  0  0  0  0
 22 23  1  0  0  0  0
 23 24  2  0  0  0  0
 24 25  1  0  0  0  0
 25 21  2  0  0  0  0
  2 26  1  0  0  0  0
 23 27  1  0  0  0  0
 24 28  1  0  0  0  0
 16 29  1  1  0  0  0
 18 30  1  6  0  0  0
 17 31  1  6  0  0  0
M  END
>  <cdx:fragmentId>
5

$$$$
