40363.cdx
  Mrv1902 05222410192D          

 31 34  0  0  0  0            999 V2000
    4.6812   -8.1535    0.0000 C   0  0  0  0  0  0  0  0  0  0  0  0
    5.3941   -8.5687    0.0000 C   0  0  0  0  0  0  0  0  0  0  0  0
    6.1101   -8.1590    0.0000 C   0  0  0  0  0  0  0  0  0  0  0  0
    6.1133   -7.3340    0.0000 C   0  0  0  0  0  0  0  0  0  0  0  0
    5.4004   -6.9188    0.0000 C   0  0  0  0  0  0  0  0  0  0  0  0
    4.6843   -7.3285    0.0000 C   0  0  0  0  0  0  0  0  0  0  0  0
    6.8230   -8.5742    0.0000 C   0  0  0  0  0  0  0  0  0  0  0  0
    7.5390   -8.1645    0.0000 C   0  0  0  0  0  0  0  0  0  0  0  0
    7.5422   -7.3395    0.0000 C   0  0  0  0  0  0  0  0  0  0  0  0
    6.8293   -6.9242    0.0000 O   0  0  0  0  0  0  0  0  0  0  0  0
    5.3909   -9.3937    0.0000 O   0  0  0  0  0  0  0  0  0  0  0  0
    6.8198   -9.3992    0.0000 O   0  0  0  0  0  0  0  0  0  0  0  0
    8.2519   -8.5797    0.0000 O   0  0  0  0  0  0  0  0  0  0  0  0
    8.9711   -7.3449    0.0000 C   0  0  0  0  0  0  0  0  0  0  0  0
    8.2582   -6.9297    0.0000 C   0  0  0  0  0  0  0  0  0  0  0  0
    9.6872   -6.9352    0.0000 C   0  0  0  0  0  0  0  0  0  0  0  0
    9.6903   -6.1102    0.0000 C   0  0  0  0  0  0  0  0  0  0  0  0
    8.9775   -5.6949    0.0000 C   0  0  0  0  0  0  0  0  0  0  0  0
    8.2614   -6.1047    0.0000 C   0  0  0  0  0  0  0  0  0  0  0  0
    7.6009   -9.9155    0.0000 O   0  0  0  0  0  0  0  0  0  0  0  0
    8.2488   -9.4047    0.0000 C   0  0  1  0  0  0  0  0  0  0  0  0
    7.8865  -10.6895    0.0000 C   0  0  1  0  0  0  0  0  0  0  0  0
    8.7109  -10.6570    0.0000 C   0  0  2  0  0  0  0  0  0  0  0  0
    8.9348   -9.8630    0.0000 C   0  0  2  0  0  0  0  0  0  0  0  0
    3.9715   -6.9133    0.0000 O   0  0  0  0  0  0  0  0  0  0  0  0
    8.9806   -4.8700    0.0000 O   0  0  0  0  0  0  0  0  0  0  0  0
   10.4064   -5.7004    0.0000 O   0  0  0  0  0  0  0  0  0  0  0  0
    7.4282  -11.3755    0.0000 C   0  0  0  0  0  0  0  0  0  0  0  0
    7.7539  -12.1334    0.0000 O   0  0  0  0  0  0  0  0  0  0  0  0
    9.7087   -9.5774    0.0000 O   0  0  0  0  0  0  0  0  0  0  0  0
    9.2217  -11.3049    0.0000 O   0  0  0  0  0  0  0  0  0  0  0  0
  1  2  1  0  0  0  0
  2  3  2  0  0  0  0
  3  4  1  0  0  0  0
  4  5  2  0  0  0  0
  5  6  1  0  0  0  0
  6  1  2  0  0  0  0
  3  7  1  0  0  0  0
  7  8  1  0  0  0  0
  8  9  2  0  0  0  0
  9 10  1  0  0  0  0
 10  4  1  0  0  0  0
  2 11  1  0  0  0  0
 12  7  2  0  0  0  0
  8 13  1  0  0  0  0
 14 15  1  0  0  0  0
 15  9  1  0  0  0  0
 14 16  2  0  0  0  0
 16 17  1  0  0  0  0
 17 18  2  0  0  0  0
 18 19  1  0  0  0  0
 19 15  2  0  0  0  0
 20 21  1  0  0  0  0
 21 13  1  6  0  0  0
 20 22  1  0  0  0  0
 22 23  1  0  0  0  0
 23 24  1  0  0  0  0
 24 21  1  0  0  0  0
  6 25  1  0  0  0  0
 18 26  1  0  0  0  0
 17 27  1  0  0  0  0
 22 28  1  1  0  0  0
 28 29  1  0  0  0  0
 24 30  1  1  0  0  0
 23 31  1  6  0  0  0
M  END
>  <cdx:fragmentId>
5

$$$$
