40369.cdx
  Mrv1902 05222410262D          

 13 13  0  0  0  0            999 V2000
    6.1168   -9.5276    0.0000 C   0  0  0  0  0  0  0  0  0  0  0  0
    6.1168  -10.3526    0.0000 C   0  0  0  0  0  0  0  0  0  0  0  0
    6.8313  -10.7651    0.0000 C   0  0  0  0  0  0  0  0  0  0  0  0
    7.5457  -10.3526    0.0000 C   0  0  2  0  0  0  0  0  0  0  0  0
    7.5457   -9.5276    0.0000 C   0  0  0  0  0  0  0  0  0  0  0  0
    6.8313   -9.1151    0.0000 C   0  0  0  0  0  0  0  0  0  0  0  0
    8.2602   -9.1151    0.0000 C   0  0  0  0  0  0  0  0  0  0  0  0
    5.7043   -8.8132    0.0000 C   0  0  0  0  0  0  0  0  0  0  0  0
    5.3199   -9.7412    0.0000 C   0  0  0  0  0  0  0  0  0  0  0  0
    6.8313   -8.2901    0.0000 C   0  0  0  0  0  0  0  0  0  0  0  0
    6.1168   -7.8776    0.0000 O   0  0  0  0  0  0  0  0  0  0  0  0
    7.5457   -7.8776    0.0000 O   0  0  0  0  0  0  0  0  0  0  0  0
    8.2602  -10.7651    0.0000 O   0  0  0  0  0  0  0  0  0  0  0  0
  1  2  1  0  0  0  0
  2  3  1  0  0  0  0
  3  4  1  0  0  0  0
  4  5  1  0  0  0  0
  5  6  2  0  0  0  0
  6  1  1  0  0  0  0
  5  7  1  0  0  0  0
  1  8  1  0  0  0  0
  1  9  1  0  0  0  0
  6 10  1  0  0  0  0
 10 11  2  0  0  0  0
 10 12  1  0  0  0  0
  4 13  1  6  0  0  0
M  END
>  <cdx:fragmentId>
5

$$$$
