40367.cdx
  Mrv1902 05222410192D          

 32 34  0  0  0  0            999 V2000
    3.7518   -9.0601    0.0000 C   0  0  0  0  0  0  0  0  0  0  0  0
    3.7518   -9.8851    0.0000 C   0  0  0  0  0  0  0  0  0  0  0  0
    4.4663  -10.2976    0.0000 C   0  0  0  0  0  0  0  0  0  0  0  0
    5.1807   -9.8851    0.0000 C   0  0  0  0  0  0  0  0  0  0  0  0
    5.1807   -9.0601    0.0000 C   0  0  0  0  0  0  0  0  0  0  0  0
    4.4663   -8.6476    0.0000 C   0  0  0  0  0  0  0  0  0  0  0  0
    5.8952  -10.2976    0.0000 O   0  0  0  0  0  0  0  0  0  0  0  0
    6.6097   -9.8851    0.0000 C   0  0  0  0  0  0  0  0  0  0  0  0
    6.6097   -9.0601    0.0000 C   0  0  0  0  0  0  0  0  0  0  0  0
    5.8952   -8.6476    0.0000 C   0  0  0  0  0  0  0  0  0  0  0  0
    5.8952   -7.8226    0.0000 O   0  0  0  0  0  0  0  0  0  0  0  0
    4.4663   -7.8226    0.0000 O   0  0  0  0  0  0  0  0  0  0  0  0
    7.3242  -10.2976    0.0000 C   0  0  0  0  0  0  0  0  0  0  0  0
    8.0386   -9.8851    0.0000 C   0  0  0  0  0  0  0  0  0  0  0  0
    7.3242   -8.6476    0.0000 O   0  0  0  0  0  0  0  0  0  0  0  0
    7.3242  -11.1226    0.0000 C   0  0  0  0  0  0  0  0  0  0  0  0
    8.0386  -11.5351    0.0000 C   0  0  0  0  0  0  0  0  0  0  0  0
    8.7531  -11.1226    0.0000 C   0  0  0  0  0  0  0  0  0  0  0  0
    8.7531  -10.2976    0.0000 C   0  0  0  0  0  0  0  0  0  0  0  0
    8.7531   -7.8226    0.0000 O   0  0  0  0  0  0  0  0  0  0  0  0
    8.0386   -7.4101    0.0000 C   0  0  0  0  0  0  0  0  0  0  0  0
    7.3242   -7.8226    0.0000 C   0  0  0  0  0  0  0  0  0  0  0  0
    8.0386   -6.5851    0.0000 C   0  0  0  0  0  0  0  0  0  0  0  0
    7.3242   -6.1726    0.0000 O   0  0  0  0  0  0  0  0  0  0  0  0
    9.4676   -6.5851    0.0000 O   0  0  0  0  0  0  0  0  0  0  0  0
    8.7531   -6.1726    0.0000 C   0  0  0  0  0  0  0  0  0  0  0  0
    8.7531   -5.3476    0.0000 C   0  0  0  0  0  0  0  0  0  0  0  0
    8.0386   -4.9351    0.0000 H   0  0  0  0  0  0  0  0  0  0  0  0
    9.4676   -4.9351    0.0000 O   0  0  0  0  0  0  0  0  0  0  0  0
    3.0373  -10.2976    0.0000 O   0  0  0  0  0  0  0  0  0  0  0  0
    8.0386  -12.3601    0.0000 O   0  0  0  0  0  0  0  0  0  0  0  0
    9.4676  -11.5351    0.0000 O   0  0  0  0  0  0  0  0  0  0  0  0
  1  2  2  0  0  0  0
  2  3  1  0  0  0  0
  3  4  2  0  0  0  0
  4  5  1  0  0  0  0
  5  6  2  0  0  0  0
  6  1  1  0  0  0  0
  4  7  1  0  0  0  0
  7  8  1  0  0  0  0
  8  9  2  0  0  0  0
  9 10  1  0  0  0  0
 10  5  1  0  0  0  0
 10 11  2  0  0  0  0
 12  6  1  0  0  0  0
  8 13  1  0  0  0  0
 13 14  1  0  0  0  0
 15  9  1  0  0  0  0
 13 16  2  0  0  0  0
 16 17  1  0  0  0  0
 17 18  2  0  0  0  0
 18 19  1  0  0  0  0
 19 14  2  0  0  0  0
 20 21  1  0  0  0  0
 21 22  1  0  0  0  0
 22 15  1  0  0  0  0
 21 23  1  0  0  0  0
 23 24  1  0  0  0  0
 25 26  1  0  0  0  0
 26 23  1  0  0  0  0
 26 27  1  0  0  0  0
 27 28  1  0  0  0  0
 29 27  2  0  0  0  0
  2 30  1  0  0  0  0
 17 31  1  0  0  0  0
 18 32  1  0  0  0  0
M  END
>  <cdx:fragmentId>
5

$$$$
