40379.cdx
  Mrv1902 05222410282D          

 42 46  0  0  0  0            999 V2000
    6.5366  -12.6617    0.0000 O   0  0  0  0  0  0  0  0  0  0  0  0
    7.9653  -12.6402    0.0000 O   0  0  0  0  0  0  0  0  0  0  0  0
    7.9529  -11.8153    0.0000 C   0  0  2  0  0  0  0  0  0  0  0  0
    7.2323  -11.4136    0.0000 C   0  0  1  0  0  0  0  0  0  0  0  0
    6.5241  -11.8368    0.0000 C   0  0  0  0  0  0  0  0  0  0  0  0
    8.6611  -11.3921    0.0000 C   0  0  1  0  0  0  0  0  0  0  0  0
    8.6486  -10.5672    0.0000 C   0  0  2  0  0  0  0  0  0  0  0  0
    7.9280  -10.1655    0.0000 C   0  0  1  0  0  0  0  0  0  0  0  0
    7.2199  -10.5887    0.0000 O   0  0  0  0  0  0  0  0  0  0  0  0
    7.9156   -9.3406    0.0000 O   0  0  0  0  0  0  0  0  0  0  0  0
    7.1950   -8.9389    0.0000 C   0  0  0  0  0  0  0  0  0  0  0  0
    6.4868   -9.3621    0.0000 C   0  0  0  0  0  0  0  0  0  0  0  0
    6.4992  -10.1870    0.0000 O   0  0  0  0  0  0  0  0  0  0  0  0
    7.1825   -8.1140    0.0000 C   0  0  0  0  0  0  0  0  0  0  0  0
    6.4619   -7.7123    0.0000 O   0  0  0  0  0  0  0  0  0  0  0  0
    5.7538   -8.1355    0.0000 C   0  0  0  0  0  0  0  0  0  0  0  0
    5.7662   -8.9604    0.0000 C   0  0  0  0  0  0  0  0  0  0  0  0
    5.0331   -7.7339    0.0000 C   0  0  0  0  0  0  0  0  0  0  0  0
    4.3250   -8.1571    0.0000 C   0  0  0  0  0  0  0  0  0  0  0  0
    4.3374   -8.9820    0.0000 C   0  0  0  0  0  0  0  0  0  0  0  0
    5.0580   -9.3837    0.0000 C   0  0  0  0  0  0  0  0  0  0  0  0
    5.0705  -10.2086    0.0000 O   0  0  0  0  0  0  0  0  0  0  0  0
    8.6113   -8.0924    0.0000 C   0  0  0  0  0  0  0  0  0  0  0  0
    7.8907   -7.6908    0.0000 C   0  0  0  0  0  0  0  0  0  0  0  0
    9.3195   -7.6692    0.0000 C   0  0  0  0  0  0  0  0  0  0  0  0
    9.3070   -6.8443    0.0000 C   0  0  0  0  0  0  0  0  0  0  0  0
    8.5864   -6.4426    0.0000 C   0  0  0  0  0  0  0  0  0  0  0  0
    7.8783   -6.8659    0.0000 C   0  0  0  0  0  0  0  0  0  0  0  0
    6.4122   -4.4127    0.0000 O   0  0  0  0  0  0  0  0  0  0  0  0
    3.6044   -7.7554    0.0000 O   0  0  0  0  0  0  0  0  0  0  0  0
    4.9958   -5.2591    0.0000 O   0  0  0  0  0  0  0  0  0  0  0  0
    7.8534   -5.2160    0.0000 O   0  0  0  0  0  0  0  0  0  0  0  0
    7.1577   -6.4642    0.0000 C   0  0  0  0  0  0  0  0  0  0  0  0
    7.1452   -5.6393    0.0000 C   0  0  2  0  0  0  0  0  0  0  0  0
    6.4246   -5.2376    0.0000 C   0  0  1  0  0  0  0  0  0  0  0  0
   10.0152   -6.4211    0.0000 O   0  0  0  0  0  0  0  0  0  0  0  0
    9.3817  -11.7937    0.0000 O   0  0  0  0  0  0  0  0  0  0  0  0
    5.7164   -5.6608    0.0000 C   0  0  2  0  0  0  0  0  0  0  0  0
    6.4495   -6.8874    0.0000 O   0  0  0  0  0  0  0  0  0  0  0  0
    9.3568  -10.1439    0.0000 O   0  0  0  0  0  0  0  0  0  0  0  0
    5.7289   -6.4857    0.0000 C   0  0  1  0  0  0  0  0  0  0  0  0
    5.0207   -6.9089    0.0000 O   0  0  0  0  0  0  0  0  0  0  0  0
  3  2  1  6  0  0  0
  3  4  1  0  0  0  0
  4  5  1  1  0  0  0
  5  1  1  0  0  0  0
  3  6  1  0  0  0  0
  6  7  1  0  0  0  0
  7  8  1  0  0  0  0
  8  9  1  0  0  0  0
  9  4  1  0  0  0  0
  8 10  1  1  0  0  0
 10 11  1  0  0  0  0
 11 12  1  0  0  0  0
 12 13  2  0  0  0  0
 11 14  2  0  0  0  0
 14 15  1  0  0  0  0
 15 16  1  0  0  0  0
 16 17  2  0  0  0  0
 17 12  1  0  0  0  0
 16 18  1  0  0  0  0
 18 19  2  0  0  0  0
 19 20  1  0  0  0  0
 20 21  2  0  0  0  0
 21 17  1  0  0  0  0
 21 22  1  0  0  0  0
 23 24  2  0  0  0  0
 24 14  1  0  0  0  0
 23 25  1  0  0  0  0
 25 26  2  0  0  0  0
 26 27  1  0  0  0  0
 27 28  2  0  0  0  0
 28 24  1  0  0  0  0
 35 29  1  1  0  0  0
 38 31  1  6  0  0  0
 18 42  1  0  0  0  0
 34 32  1  6  0  0  0
 30 19  1  0  0  0  0
 33 39  1  0  0  0  0
 34 33  1  0  0  0  0
 35 34  1  0  0  0  0
 38 35  1  0  0  0  0
 41 38  1  0  0  0  0
 26 36  1  0  0  0  0
  6 37  1  1  0  0  0
 41 39  1  0  0  0  0
 41 42  1  1  0  0  0
  7 40  1  6  0  0  0
M  END
>  <cdx:fragmentId>
5

$$$$
