40375.cdx
  Mrv1902 05222410182D          

 25 26  0  0  0  0            999 V2000
    0.7400   -8.6201    0.0000 C   0  0  0  0  0  0  0  0  0  0  0  0
    1.4545   -8.2076    0.0000 C   0  0  0  0  0  0  0  0  0  0  0  0
    2.1690   -8.6201    0.0000 C   0  0  0  0  0  0  0  0  0  0  0  0
    2.8834   -8.2076    0.0000 N   0  0  0  0  0  0  0  0  0  0  0  0
    3.5979   -8.6201    0.0000 C   0  0  0  0  0  0  0  0  0  0  0  0
    4.3124   -8.2076    0.0000 C   0  0  0  0  0  0  0  0  0  0  0  0
    5.0269   -8.6201    0.0000 C   0  0  0  0  0  0  0  0  0  0  0  0
    5.7413   -8.2076    0.0000 C   0  0  0  0  0  0  0  0  0  0  0  0
    6.4558   -8.6201    0.0000 C   0  0  0  0  0  0  0  0  0  0  0  0
    7.1703   -8.2076    0.0000 C   0  0  0  0  0  0  0  0  0  0  0  0
    7.8847   -8.6201    0.0000 C   0  0  0  0  0  0  0  0  0  0  0  0
    8.5992   -8.2076    0.0000 C   0  0  0  0  0  0  0  0  0  0  0  0
    9.3137   -8.6201    0.0000 C   0  0  0  0  0  0  0  0  0  0  0  0
   10.0281   -8.2076    0.0000 C   0  0  0  0  0  0  0  0  0  0  0  0
   10.7426   -8.6201    0.0000 C   0  0  0  0  0  0  0  0  0  0  0  0
   10.7426   -9.4451    0.0000 C   0  0  0  0  0  0  0  0  0  0  0  0
   11.4571   -9.8576    0.0000 C   0  0  0  0  0  0  0  0  0  0  0  0
   12.1716   -9.4451    0.0000 C   0  0  0  0  0  0  0  0  0  0  0  0
   12.1716   -8.6201    0.0000 C   0  0  0  0  0  0  0  0  0  0  0  0
   11.4571   -8.2076    0.0000 C   0  0  0  0  0  0  0  0  0  0  0  0
   12.9562   -9.7001    0.0000 O   0  0  0  0  0  0  0  0  0  0  0  0
   13.4411   -9.0326    0.0000 C   0  0  0  0  0  0  0  0  0  0  0  0
   12.9562   -8.3652    0.0000 O   0  0  0  0  0  0  0  0  0  0  0  0
    1.4545   -7.3826    0.0000 C   0  0  0  0  0  0  0  0  0  0  0  0
    3.5979   -9.4451    0.0000 O   0  0  0  0  0  0  0  0  0  0  0  0
  1  2  1  0  0  0  0
  2  3  1  0  0  0  0
  3  4  1  0  0  0  0
  4  5  1  0  0  0  0
  5  6  1  0  0  0  0
  6  7  2  0  0  0  0
  7  8  1  0  0  0  0
  8  9  2  0  0  0  0
  9 10  1  0  0  0  0
 10 11  1  0  0  0  0
 11 12  1  0  0  0  0
 12 13  1  0  0  0  0
 13 14  2  0  0  0  0
 14 15  1  0  0  0  0
 15 16  2  0  0  0  0
 16 17  1  0  0  0  0
 17 18  2  0  0  0  0
 18 19  1  0  0  0  0
 19 20  2  0  0  0  0
 20 15  1  0  0  0  0
 18 21  1  0  0  0  0
 21 22  1  0  0  0  0
 22 23  1  0  0  0  0
 23 19  1  0  0  0  0
  2 24  1  0  0  0  0
  5 25  2  0  0  0  0
M  END
>  <cdx:fragmentId>
3

$$$$
