40376.cdx
  Mrv1902 05222410192D          

 33 36  0  0  0  0            999 V2000
    6.7913  -11.7114    0.0000 O   0  0  0  0  0  0  0  0  0  0  0  0
    8.2202  -11.7098    0.0000 O   0  0  0  0  0  0  0  0  0  0  0  0
    8.2193  -10.8848    0.0000 C   0  0  2  0  0  0  0  0  0  0  0  0
    7.5044  -10.4731    0.0000 C   0  0  1  0  0  0  0  0  0  0  0  0
    6.7904  -10.8864    0.0000 C   0  0  0  0  0  0  0  0  0  0  0  0
    8.9333  -10.4715    0.0000 C   0  0  1  0  0  0  0  0  0  0  0  0
    8.9324   -9.6465    0.0000 C   0  0  2  0  0  0  0  0  0  0  0  0
    8.2175   -9.2348    0.0000 C   0  0  1  0  0  0  0  0  0  0  0  0
    7.5035   -9.6481    0.0000 O   0  0  0  0  0  0  0  0  0  0  0  0
    8.2166   -8.4098    0.0000 O   0  0  0  0  0  0  0  0  0  0  0  0
    7.5016   -7.9981    0.0000 C   0  0  0  0  0  0  0  0  0  0  0  0
    6.7876   -8.4114    0.0000 C   0  0  0  0  0  0  0  0  0  0  0  0
    6.7885   -9.2364    0.0000 O   0  0  0  0  0  0  0  0  0  0  0  0
    7.5007   -7.1731    0.0000 C   0  0  0  0  0  0  0  0  0  0  0  0
    6.7858   -6.7614    0.0000 O   0  0  0  0  0  0  0  0  0  0  0  0
    6.0718   -7.1747    0.0000 C   0  0  0  0  0  0  0  0  0  0  0  0
    6.0727   -7.9997    0.0000 C   0  0  0  0  0  0  0  0  0  0  0  0
    5.3568   -6.7630    0.0000 C   0  0  0  0  0  0  0  0  0  0  0  0
    4.6428   -7.1763    0.0000 C   0  0  0  0  0  0  0  0  0  0  0  0
    4.6437   -8.0013    0.0000 C   0  0  0  0  0  0  0  0  0  0  0  0
    5.3587   -8.4130    0.0000 C   0  0  0  0  0  0  0  0  0  0  0  0
    8.9296   -7.1715    0.0000 C   0  0  0  0  0  0  0  0  0  0  0  0
    8.2147   -6.7598    0.0000 C   0  0  0  0  0  0  0  0  0  0  0  0
    9.6436   -6.7582    0.0000 C   0  0  0  0  0  0  0  0  0  0  0  0
    9.6427   -5.9332    0.0000 C   0  0  0  0  0  0  0  0  0  0  0  0
    8.9278   -5.5215    0.0000 C   0  0  0  0  0  0  0  0  0  0  0  0
    8.2138   -5.9348    0.0000 C   0  0  0  0  0  0  0  0  0  0  0  0
    5.3596   -9.2380    0.0000 O   0  0  0  0  0  0  0  0  0  0  0  0
    3.9279   -6.7646    0.0000 O   0  0  0  0  0  0  0  0  0  0  0  0
    3.2139   -7.1779    0.0000 C   0  0  0  0  0  0  0  0  0  0  0  0
   10.3567   -5.5199    0.0000 O   0  0  0  0  0  0  0  0  0  0  0  0
    9.6483  -10.8832    0.0000 O   0  0  0  0  0  0  0  0  0  0  0  0
    9.6464   -9.2332    0.0000 O   0  0  0  0  0  0  0  0  0  0  0  0
  3  2  1  6  0  0  0
  3  4  1  0  0  0  0
  4  5  1  1  0  0  0
  5  1  1  0  0  0  0
  3  6  1  0  0  0  0
  6  7  1  0  0  0  0
  7  8  1  0  0  0  0
  8  9  1  0  0  0  0
  9  4  1  0  0  0  0
  8 10  1  1  0  0  0
 10 11  1  0  0  0  0
 11 12  1  0  0  0  0
 12 13  2  0  0  0  0
 11 14  2  0  0  0  0
 14 15  1  0  0  0  0
 15 16  1  0  0  0  0
 16 17  1  0  0  0  0
 17 12  1  0  0  0  0
 16 18  2  0  0  0  0
 18 19  1  0  0  0  0
 19 20  2  0  0  0  0
 20 21  1  0  0  0  0
 21 17  2  0  0  0  0
 22 23  2  0  0  0  0
 23 14  1  0  0  0  0
 22 24  1  0  0  0  0
 24 25  2  0  0  0  0
 25 26  1  0  0  0  0
 26 27  2  0  0  0  0
 27 23  1  0  0  0  0
 21 28  1  0  0  0  0
 19 29  1  0  0  0  0
 29 30  1  0  0  0  0
 25 31  1  0  0  0  0
  6 32  1  1  0  0  0
  7 33  1  6  0  0  0
M  END
>  <cdx:fragmentId>
5

$$$$
