57403796.cdx
  Mrv1902 05222410192D          

 14 15  0  0  0  0            999 V2000
    8.9019  -14.1209    0.0000 C   0  0  0  0  0  0  0  0  0  0  0  0
    8.9019  -14.9459    0.0000 C   0  0  0  0  0  0  0  0  0  0  0  0
    8.1875  -15.3584    0.0000 C   0  0  0  0  0  0  0  0  0  0  0  0
    7.4730  -14.9459    0.0000 C   0  0  0  0  0  0  0  0  0  0  0  0
    7.4730  -14.1209    0.0000 C   0  0  0  0  0  0  0  0  0  0  0  0
    8.1875  -13.7084    0.0000 C   0  0  0  0  0  0  0  0  0  0  0  0
    9.6164  -13.7084    0.0000 O   0  0  0  0  0  0  0  0  0  0  0  0
    9.6164  -15.3584    0.0000 O   0  0  0  0  0  0  0  0  0  0  0  0
   10.3309  -14.9459    0.0000 C   0  0  0  0  0  0  0  0  0  0  0  0
    6.3460  -16.0729    0.0000 O   0  0  0  0  0  0  0  0  0  0  0  0
    6.7585  -15.3584    0.0000 C   0  0  0  0  0  0  0  0  0  0  0  0
    5.9335  -15.3584    0.0000 C   0  0  0  0  0  0  0  0  0  0  0  0
    5.2191  -14.9459    0.0000 C   0  0  0  0  0  0  0  0  0  0  0  0
    4.5046  -15.3584    0.0000 O   0  0  0  0  0  0  0  0  0  0  0  0
  1  2  1  0  0  0  0
  2  3  2  0  0  0  0
  3  4  1  0  0  0  0
  4  5  2  0  0  0  0
  5  6  1  0  0  0  0
  1  6  2  0  0  0  0
  1  7  1  0  0  0  0
  8  9  1  0  0  0  0
  2  8  1  0  0  0  0
 10 11  1  0  0  0  0
 11 12  1  0  0  0  0
 10 12  1  0  0  0  0
 13 14  1  0  0  0  0
 12 13  1  0  0  0  0
  4 11  1  0  0  0  0
M  END
>  <cdx:groupId>
193489

>  <cdx:fragmentId>
193449

$$$$
