40383.cdx
  Mrv1902 05222410262D          

 44 48  0  0  0  0            999 V2000
    7.0042   -5.5685    0.0000 C   0  0  0  0  0  0  0  0  0  0  0  0
    6.5986   -6.2869    0.0000 C   0  0  1  0  0  0  0  0  0  0  0  0
    2.7213  -10.8595    0.0000 O   0  0  0  0  0  0  0  0  0  0  0  0
    7.0181   -6.9973    0.0000 O   0  0  0  0  0  0  0  0  0  0  0  0
    2.7373   -9.2096    0.0000 C   0  0  0  0  0  0  0  0  0  0  0  0
    4.1421  -11.6983    0.0000 O   0  0  0  0  0  0  0  0  0  0  0  0
   12.0370   -8.0622    0.0000 O   0  0  0  0  0  0  0  0  0  0  0  0
   10.6161   -7.2234    0.0000 O   0  0  0  0  0  0  0  0  0  0  0  0
    8.4288  -11.7399    0.0000 O   0  0  0  0  0  0  0  0  0  0  0  0
    6.9999  -11.7261    0.0000 O   0  0  0  0  0  0  0  0  0  0  0  0
    6.6125   -7.7158    0.0000 C   0  0  1  0  0  0  0  0  0  0  0  0
    7.0319   -8.4262    0.0000 O   0  0  0  0  0  0  0  0  0  0  0  0
    5.7737   -6.2949    0.0000 C   0  0  2  0  0  0  0  0  0  0  0  0
    5.3681   -7.0133    0.0000 C   0  0  1  0  0  0  0  0  0  0  0  0
    5.7875   -7.7238    0.0000 C   0  0  1  0  0  0  0  0  0  0  0  0
    6.5848   -4.8580    0.0000 O   0  0  0  0  0  0  0  0  0  0  0  0
    5.3543   -5.5845    0.0000 O   0  0  0  0  0  0  0  0  0  0  0  0
    4.5432   -7.0213    0.0000 O   0  0  0  0  0  0  0  0  0  0  0  0
    5.3820   -8.4422    0.0000 O   0  0  0  0  0  0  0  0  0  0  0  0
   11.3105   -9.2927    0.0000 C   0  0  0  0  0  0  0  0  0  0  0  0
   11.3185   -8.4678    0.0000 C   0  0  0  0  0  0  0  0  0  0  0  0
   10.6081   -8.0484    0.0000 C   0  0  0  0  0  0  0  0  0  0  0  0
    9.8896   -8.4539    0.0000 C   0  0  0  0  0  0  0  0  0  0  0  0
    9.8656  -10.9288    0.0000 O   0  0  0  0  0  0  0  0  0  0  0  0
   10.5921   -9.6983    0.0000 C   0  0  0  0  0  0  0  0  0  0  0  0
    9.8816   -9.2789    0.0000 C   0  0  0  0  0  0  0  0  0  0  0  0
    8.4368  -10.9150    0.0000 C   0  0  0  0  0  0  0  0  0  0  0  0
    9.1552  -10.5094    0.0000 C   0  0  0  0  0  0  0  0  0  0  0  0
    9.1632   -9.6844    0.0000 C   0  0  0  0  0  0  0  0  0  0  0  0
    8.4528   -9.2650    0.0000 O   0  0  0  0  0  0  0  0  0  0  0  0
    7.0079  -10.9011    0.0000 C   0  0  0  0  0  0  0  0  0  0  0  0
    7.7263  -10.4955    0.0000 C   0  0  0  0  0  0  0  0  0  0  0  0
    7.7343   -9.6706    0.0000 C   0  0  0  0  0  0  0  0  0  0  0  0
    7.0239   -9.2512    0.0000 C   0  0  0  0  0  0  0  0  0  0  0  0
    5.5790  -10.8872    0.0000 O   0  0  0  0  0  0  0  0  0  0  0  0
    6.2975  -10.4817    0.0000 C   0  0  0  0  0  0  0  0  0  0  0  0
    6.3055   -9.6567    0.0000 C   0  0  0  0  0  0  0  0  0  0  0  0
    5.5950   -9.2373    0.0000 O   0  0  0  0  0  0  0  0  0  0  0  0
    4.1501  -10.8734    0.0000 C   0  0  1  0  0  0  0  0  0  0  0  0
    4.8686  -10.4678    0.0000 C   0  0  2  0  0  0  0  0  0  0  0  0
    4.8766   -9.6429    0.0000 C   0  0  1  0  0  0  0  0  0  0  0  0
    4.1662   -9.2235    0.0000 O   0  0  0  0  0  0  0  0  0  0  0  0
    3.4477   -9.6290    0.0000 C   0  0  2  0  0  0  0  0  0  0  0  0
    3.4397  -10.4540    0.0000 C   0  0  2  0  0  0  0  0  0  0  0  0
 44  3  1  1  0  0  0
  2  1  1  1  0  0  0
 43  5  1  6  0  0  0
 39  6  1  6  0  0  0
 21  7  1  0  0  0  0
 22  8  1  0  0  0  0
 27  9  2  0  0  0  0
 31 10  1  0  0  0  0
  2  4  1  0  0  0  0
  4 11  1  0  0  0  0
 11 12  1  1  0  0  0
  2 13  1  0  0  0  0
 13 14  1  0  0  0  0
 14 15  1  0  0  0  0
 12 34  1  0  0  0  0
 15 11  1  0  0  0  0
  1 16  1  0  0  0  0
 13 17  1  6  0  0  0
 14 18  1  1  0  0  0
 15 19  1  6  0  0  0
 20 25  2  0  0  0  0
 21 20  1  0  0  0  0
 22 21  2  0  0  0  0
 23 22  1  0  0  0  0
 26 23  2  0  0  0  0
 24 28  1  0  0  0  0
 26 25  1  0  0  0  0
 29 26  1  0  0  0  0
 27 32  1  0  0  0  0
 28 27  1  0  0  0  0
 29 28  2  0  0  0  0
 30 29  1  0  0  0  0
 33 30  1  0  0  0  0
 31 36  2  0  0  0  0
 32 31  1  0  0  0  0
 33 32  2  0  0  0  0
 34 33  1  0  0  0  0
 37 34  2  0  0  0  0
 40 35  1  6  0  0  0
 37 36  1  0  0  0  0
 38 37  1  0  0  0  0
 41 38  1  1  0  0  0
 39 44  1  0  0  0  0
 40 39  1  0  0  0  0
 41 40  1  0  0  0  0
 42 41  1  0  0  0  0
 43 42  1  0  0  0  0
 44 43  1  0  0  0  0
M  END
>  <cdx:fragmentId>
5

$$$$
