40381.cdx
  Mrv1902 05222410272D          

 32 35  0  0  0  0            999 V2000
   10.3601   -9.1901    0.0000 C   0  0  1  0  0  0  0  0  0  0  0  0
   11.0685   -8.7673    0.0000 C   0  0  1  0  0  0  0  0  0  0  0  0
   11.0565   -7.9423    0.0000 C   0  0  2  0  0  0  0  0  0  0  0  0
   10.3361   -7.5403    0.0000 C   0  0  2  0  0  0  0  0  0  0  0  0
    9.6277   -7.9631    0.0000 C   0  0  1  0  0  0  0  0  0  0  0  0
    9.6397   -8.7881    0.0000 O   0  0  0  0  0  0  0  0  0  0  0  0
    8.9073   -7.5611    0.0000 O   0  0  0  0  0  0  0  0  0  0  0  0
    8.1989   -7.9839    0.0000 C   0  0  0  0  0  0  0  0  0  0  0  0
    8.2109   -8.8089    0.0000 C   0  0  0  0  0  0  0  0  0  0  0  0
    7.4785   -7.5819    0.0000 C   0  0  0  0  0  0  0  0  0  0  0  0
    6.7701   -8.0048    0.0000 C   0  0  0  0  0  0  0  0  0  0  0  0
    6.7821   -8.8297    0.0000 C   0  0  0  0  0  0  0  0  0  0  0  0
    7.5025   -9.2317    0.0000 C   0  0  0  0  0  0  0  0  0  0  0  0
    6.0737   -9.2525    0.0000 C   0  0  0  0  0  0  0  0  0  0  0  0
    6.0857  -10.0774    0.0000 C   0  0  0  0  0  0  0  0  0  0  0  0
    6.8061  -10.4795    0.0000 O   0  0  0  0  0  0  0  0  0  0  0  0
    5.3533   -8.8505    0.0000 O   0  0  0  0  0  0  0  0  0  0  0  0
    4.6449   -9.2733    0.0000 C   0  0  0  0  0  0  0  0  0  0  0  0
    4.6569  -10.0982    0.0000 C   0  0  0  0  0  0  0  0  0  0  0  0
    5.3773  -10.5003    0.0000 C   0  0  0  0  0  0  0  0  0  0  0  0
    3.9245   -8.8713    0.0000 C   0  0  0  0  0  0  0  0  0  0  0  0
    3.2161   -9.2941    0.0000 C   0  0  0  0  0  0  0  0  0  0  0  0
    3.2281  -10.1190    0.0000 C   0  0  0  0  0  0  0  0  0  0  0  0
    3.9485  -10.5211    0.0000 C   0  0  0  0  0  0  0  0  0  0  0  0
    3.9605  -11.3460    0.0000 O   0  0  0  0  0  0  0  0  0  0  0  0
    5.3893  -11.3252    0.0000 O   0  0  0  0  0  0  0  0  0  0  0  0
    2.4957   -8.8921    0.0000 O   0  0  0  0  0  0  0  0  0  0  0  0
    3.9322   -8.0269    0.0000 O   0  0  0  0  0  0  0  0  0  0  0  0
   11.7889   -9.1693    0.0000 O   0  0  0  0  0  0  0  0  0  0  0  0
   10.3721  -10.0150    0.0000 C   0  0  0  0  0  0  0  0  0  0  0  0
   11.7649   -7.5195    0.0000 O   0  0  0  0  0  0  0  0  0  0  0  0
   10.3241   -6.7154    0.0000 O   0  0  0  0  0  0  0  0  0  0  0  0
  1  2  1  0  0  0  0
  2  3  1  0  0  0  0
  3  4  1  0  0  0  0
  4  5  1  0  0  0  0
  5  6  1  0  0  0  0
  6  1  1  0  0  0  0
  5  7  1  1  0  0  0
  7  8  1  0  0  0  0
  8  9  1  0  0  0  0
  8 10  2  0  0  0  0
 10 11  1  0  0  0  0
 11 12  2  0  0  0  0
 12 13  1  0  0  0  0
 13  9  2  0  0  0  0
 12 14  1  0  0  0  0
 14 15  2  0  0  0  0
 15 16  1  0  0  0  0
 14 17  1  0  0  0  0
 17 18  1  0  0  0  0
 18 19  2  0  0  0  0
 19 20  1  0  0  0  0
 20 15  1  0  0  0  0
 18 21  1  0  0  0  0
 21 22  2  0  0  0  0
 22 23  1  0  0  0  0
 23 24  2  0  0  0  0
 24 19  1  0  0  0  0
 24 25  1  0  0  0  0
 26 20  2  0  0  0  0
 22 27  1  0  0  0  0
 21 28  1  0  0  0  0
  2 29  1  1  0  0  0
  1 30  1  6  0  0  0
  3 31  1  6  0  0  0
  4 32  1  6  0  0  0
M  END
>  <cdx:fragmentId>
5

$$$$
