40387.cdx
  Mrv1902 05222410282D          

 24 24  0  0  0  0            999 V2000
    3.4631  -10.7926    0.0000 C   0  0  2  0  0  0  0  0  0  0  0  0
    3.4631  -11.6176    0.0000 C   0  0  2  0  0  0  0  0  0  0  0  0
    4.1775  -12.0301    0.0000 C   0  0  1  0  0  0  0  0  0  0  0  0
    4.8920  -11.6176    0.0000 C   0  0  2  0  0  0  0  0  0  0  0  0
    4.8920  -10.7926    0.0000 C   0  0  1  0  0  0  0  0  0  0  0  0
    4.1775  -10.3801    0.0000 O   0  0  0  0  0  0  0  0  0  0  0  0
    2.0609  -10.7772    0.0000 O   0  0  0  0  0  0  0  0  0  0  0  0
    2.7486  -10.3801    0.0000 C   0  0  0  0  0  0  0  0  0  0  0  0
   12.0367  -10.7927    0.0000 O   0  0  0  0  0  0  0  0  0  0  0  0
   11.3222  -10.3802    0.0000 C   0  0  0  0  0  0  0  0  0  0  0  0
   10.6078  -11.6177    0.0000 C   0  0  0  0  0  0  0  0  0  0  0  0
   10.6078  -10.7927    0.0000 C   0  0  0  0  0  0  0  0  0  0  0  0
    9.8933  -10.3802    0.0000 C   0  0  0  0  0  0  0  0  0  0  0  0
    9.1788  -10.7927    0.0000 C   0  0  0  0  0  0  0  0  0  0  0  0
    8.4644  -10.3802    0.0000 C   0  0  1  0  0  0  0  0  0  0  0  0
    8.4644   -9.5552    0.0000 O   0  0  0  0  0  0  0  0  0  0  0  0
    7.7499  -11.6177    0.0000 C   0  0  0  0  0  0  0  0  0  0  0  0
    7.7499  -10.7927    0.0000 C   0  0  0  0  0  0  0  0  0  0  0  0
    7.0354  -10.3802    0.0000 C   0  0  0  0  0  0  0  0  0  0  0  0
    6.3209  -10.7926    0.0000 C   0  0  0  0  0  0  0  0  0  0  0  0
    5.6065  -10.3801    0.0000 O   0  0  0  0  0  0  0  0  0  0  0  0
    4.1775  -12.8551    0.0000 O   0  0  0  0  0  0  0  0  0  0  0  0
    2.7486  -12.0301    0.0000 O   0  0  0  0  0  0  0  0  0  0  0  0
    5.6065  -12.0301    0.0000 O   0  0  0  0  0  0  0  0  0  0  0  0
  1  2  1  0  0  0  0
  2  3  1  0  0  0  0
  3  4  1  0  0  0  0
  4  5  1  0  0  0  0
  5  6  1  0  0  0  0
  6  1  1  0  0  0  0
  7  8  1  0  0  0  0
  1  8  1  1  0  0  0
 10  9  1  0  0  0  0
 12 10  1  0  0  0  0
  5 21  1  1  0  0  0
 12 11  1  0  0  0  0
 13 12  2  0  0  0  0
 13 14  1  0  0  0  0
 15 14  1  0  0  0  0
 15 18  1  0  0  0  0
 15 16  1  6  0  0  0
 18 17  1  0  0  0  0
 19 18  2  0  0  0  0
 20 19  1  0  0  0  0
 21 20  1  0  0  0  0
  3 22  1  1  0  0  0
  2 23  1  6  0  0  0
  4 24  1  6  0  0  0
M  END
>  <cdx:fragmentId>
5

$$$$
