40385.cdx
  Mrv1902 05222410272D          

 33 36  0  0  0  0            999 V2000
    2.7283   -9.6320    0.0000 C   0  0  1  0  0  0  0  0  0  0  0  0
    2.7156  -10.4569    0.0000 C   0  0  1  0  0  0  0  0  0  0  0  0
    3.4237  -10.8803    0.0000 C   0  0  2  0  0  0  0  0  0  0  0  0
    4.1444  -10.4788    0.0000 C   0  0  2  0  0  0  0  0  0  0  0  0
    4.1571   -9.6539    0.0000 C   0  0  1  0  0  0  0  0  0  0  0  0
    3.4490   -9.2305    0.0000 O   0  0  0  0  0  0  0  0  0  0  0  0
    9.8471   -7.1141    0.0000 O   0  0  0  0  0  0  0  0  0  0  0  0
   11.2884   -7.9172    0.0000 O   0  0  0  0  0  0  0  0  0  0  0  0
    7.7730  -11.6837    0.0000 O   0  0  0  0  0  0  0  0  0  0  0  0
    6.2940   -8.4058    0.0000 O   0  0  0  0  0  0  0  0  0  0  0  0
    6.3442  -11.7054    0.0000 O   0  0  0  0  0  0  0  0  0  0  0  0
   10.5929   -9.1655    0.0000 C   0  0  0  0  0  0  0  0  0  0  0  0
   10.5803   -8.3406    0.0000 C   0  0  0  0  0  0  0  0  0  0  0  0
    9.8597   -7.9390    0.0000 C   0  0  0  0  0  0  0  0  0  0  0  0
    9.1515   -8.3623    0.0000 C   0  0  0  0  0  0  0  0  0  0  0  0
    9.1892  -10.8370    0.0000 O   0  0  0  0  0  0  0  0  0  0  0  0
    9.8848   -9.5888    0.0000 C   0  0  0  0  0  0  0  0  0  0  0  0
    9.1641   -9.1872    0.0000 C   0  0  0  0  0  0  0  0  0  0  0  0
    7.7604  -10.8587    0.0000 C   0  0  0  0  0  0  0  0  0  0  0  0
    8.4685  -10.4354    0.0000 C   0  0  0  0  0  0  0  0  0  0  0  0
    8.4560   -9.6105    0.0000 C   0  0  0  0  0  0  0  0  0  0  0  0
    7.7353   -9.2089    0.0000 O   0  0  0  0  0  0  0  0  0  0  0  0
    6.3316  -10.8805    0.0000 C   0  0  0  0  0  0  0  0  0  0  0  0
    7.0398  -10.4572    0.0000 C   0  0  0  0  0  0  0  0  0  0  0  0
    7.0272   -9.6323    0.0000 C   0  0  0  0  0  0  0  0  0  0  0  0
    6.3065   -9.2307    0.0000 C   0  0  0  0  0  0  0  0  0  0  0  0
    5.6110  -10.4789    0.0000 C   0  0  0  0  0  0  0  0  0  0  0  0
    5.5984   -9.6540    0.0000 C   0  0  0  0  0  0  0  0  0  0  0  0
    4.8778   -9.2524    0.0000 O   0  0  0  0  0  0  0  0  0  0  0  0
    2.0202   -9.2086    0.0000 C   0  0  0  0  0  0  0  0  0  0  0  0
    3.4110  -11.7052    0.0000 O   0  0  0  0  0  0  0  0  0  0  0  0
    4.8525  -10.9022    0.0000 O   0  0  0  0  0  0  0  0  0  0  0  0
    1.9949  -10.8584    0.0000 O   0  0  0  0  0  0  0  0  0  0  0  0
  1  2  1  0  0  0  0
  2  3  1  0  0  0  0
 14  7  1  0  0  0  0
 13  8  1  0  0  0  0
 19  9  2  0  0  0  0
 26 10  1  0  0  0  0
 23 11  1  0  0  0  0
 12 17  2  0  0  0  0
 13 12  1  0  0  0  0
 14 13  2  0  0  0  0
 15 14  1  0  0  0  0
 18 15  2  0  0  0  0
 16 20  1  0  0  0  0
 18 17  1  0  0  0  0
 21 18  1  0  0  0  0
 19 24  1  0  0  0  0
 20 19  1  0  0  0  0
 21 20  2  0  0  0  0
 22 21  1  0  0  0  0
 25 22  1  0  0  0  0
 23 27  2  0  0  0  0
 24 23  1  0  0  0  0
 25 24  2  0  0  0  0
 26 25  1  0  0  0  0
 28 26  2  0  0  0  0
 28 27  1  0  0  0  0
 29 28  1  0  0  0  0
  3  4  1  0  0  0  0
  4  5  1  0  0  0  0
  5  6  1  0  0  0  0
  6  1  1  0  0  0  0
  5 29  1  1  0  0  0
  1 30  1  6  0  0  0
  3 31  1  6  0  0  0
  4 32  1  6  0  0  0
  2 33  1  1  0  0  0
M  END
>  <cdx:fragmentId>
5

$$$$
