40389.cdx
  Mrv1902 05222410182D          

 34 35  0  0  0  0            999 V2000
    4.4980  -10.1430    0.0000 C   0  0  0  0  0  0  0  0  0  0  0  0
    3.7800  -10.5491    0.0000 O   0  0  0  0  0  0  0  0  0  0  0  0
    3.0692  -10.1303    0.0000 C   0  0  1  0  0  0  0  0  0  0  0  0
    3.0764   -9.3054    0.0000 O   0  0  0  0  0  0  0  0  0  0  0  0
    2.3656   -8.8866    0.0000 C   0  0  1  0  0  0  0  0  0  0  0  0
    1.6475   -9.2928    0.0000 C   0  0  2  0  0  0  0  0  0  0  0  0
    1.6403  -10.1177    0.0000 C   0  0  1  0  0  0  0  0  0  0  0  0
    2.3511  -10.5365    0.0000 C   0  0  1  0  0  0  0  0  0  0  0  0
    0.9367   -8.8740    0.0000 O   0  0  0  0  0  0  0  0  0  0  0  0
    2.3438  -11.3615    0.0000 O   0  0  0  0  0  0  0  0  0  0  0  0
    0.9222  -10.5239    0.0000 O   0  0  0  0  0  0  0  0  0  0  0  0
    2.3729   -8.0616    0.0000 C   0  0  0  0  0  0  0  0  0  0  0  0
    5.2088  -10.5617    0.0000 C   0  0  2  0  0  0  0  0  0  0  0  0
    5.2016  -11.3867    0.0000 C   0  0  2  0  0  0  0  0  0  0  0  0
    5.9124  -11.8055    0.0000 C   0  0  1  0  0  0  0  0  0  0  0  0
    6.6304  -11.3993    0.0000 C   0  0  2  0  0  0  0  0  0  0  0  0
    6.6377  -10.5743    0.0000 C   0  0  1  0  0  0  0  0  0  0  0  0
    5.9269  -10.1556    0.0000 O   0  0  0  0  0  0  0  0  0  0  0  0
    1.7365   -7.6942    0.0000 O   0  0  0  0  0  0  0  0  0  0  0  0
   13.0714  -10.2186    0.0000 C   0  0  0  0  0  0  0  0  0  0  0  0
   12.3460  -11.4497    0.0000 C   0  0  0  0  0  0  0  0  0  0  0  0
   12.3533  -10.6248    0.0000 C   0  0  0  0  0  0  0  0  0  0  0  0
   11.6425  -10.2060    0.0000 C   0  0  0  0  0  0  0  0  0  0  0  0
   10.9244  -10.6122    0.0000 C   0  0  0  0  0  0  0  0  0  0  0  0
   10.2136  -10.1934    0.0000 C   0  0  1  0  0  0  0  0  0  0  0  0
   10.2209   -9.3684    0.0000 O   0  0  0  0  0  0  0  0  0  0  0  0
    9.4882  -11.4245    0.0000 C   0  0  0  0  0  0  0  0  0  0  0  0
    9.4955  -10.5996    0.0000 C   0  0  0  0  0  0  0  0  0  0  0  0
    8.7847  -10.1808    0.0000 C   0  0  0  0  0  0  0  0  0  0  0  0
    8.0666  -10.5870    0.0000 C   0  0  0  0  0  0  0  0  0  0  0  0
    7.3558  -10.1682    0.0000 O   0  0  0  0  0  0  0  0  0  0  0  0
    5.9051  -12.6305    0.0000 O   0  0  0  0  0  0  0  0  0  0  0  0
    4.4835  -11.7929    0.0000 O   0  0  0  0  0  0  0  0  0  0  0  0
    7.3413  -11.8181    0.0000 O   0  0  0  0  0  0  0  0  0  0  0  0
  2  1  1  0  0  0  0
  3  2  1  6  0  0  0
  3  4  1  0  0  0  0
  4  5  1  0  0  0  0
  5  6  1  0  0  0  0
  6  7  1  0  0  0  0
  7  8  1  0  0  0  0
  8  3  1  0  0  0  0
  6  9  1  6  0  0  0
  8 10  1  6  0  0  0
  7 11  1  1  0  0  0
 13 14  1  0  0  0  0
 14 15  1  0  0  0  0
 15 16  1  0  0  0  0
 16 17  1  0  0  0  0
 17 18  1  0  0  0  0
 18 13  1  0  0  0  0
  5 12  1  1  0  0  0
 12 19  1  0  0  0  0
 13  1  1  1  0  0  0
 22 20  1  0  0  0  0
 17 31  1  1  0  0  0
 22 21  1  0  0  0  0
 23 22  2  0  0  0  0
 23 24  1  0  0  0  0
 25 24  1  0  0  0  0
 25 28  1  0  0  0  0
 25 26  1  6  0  0  0
 28 27  1  0  0  0  0
 29 28  2  0  0  0  0
 30 29  1  0  0  0  0
 31 30  1  0  0  0  0
 15 32  1  1  0  0  0
 14 33  1  6  0  0  0
 16 34  1  6  0  0  0
M  END
>  <cdx:fragmentId>
5

$$$$
