403918.cdx
  Mrv1902 05222410242D          

 48 51  0  0  0  0            999 V2000
    5.2448   -9.1322    0.0000 C   0  0  0  0  0  0  0  0  0  0  0  0
    4.5303   -9.5447    0.0000 C   0  0  0  0  0  0  0  0  0  0  0  0
    3.8159   -9.1322    0.0000 C   0  0  0  0  0  0  0  0  0  0  0  0
    5.2448   -8.3072    0.0000 O   0  0  0  0  0  0  0  0  0  0  0  0
    5.9593   -9.5447    0.0000 O   0  0  0  0  0  0  0  0  0  0  0  0
    3.1014   -9.5447    0.0000 C   0  0  0  0  0  0  0  0  0  0  0  0
    2.3869   -9.1322    0.0000 C   0  0  0  0  0  0  0  0  0  0  0  0
    1.6725   -9.5447    0.0000 C   0  0  0  0  0  0  0  0  0  0  0  0
    1.6725  -10.3697    0.0000 C   0  0  0  0  0  0  0  0  0  0  0  0
    2.3869  -10.7822    0.0000 C   0  0  0  0  0  0  0  0  0  0  0  0
    3.1014  -10.3697    0.0000 C   0  0  0  0  0  0  0  0  0  0  0  0
    0.9580  -10.7822    0.0000 O   0  0  0  0  0  0  0  0  0  0  0  0
    0.9580   -9.1322    0.0000 O   0  0  0  0  0  0  0  0  0  0  0  0
    7.3882   -7.8947    0.0000 O   0  0  0  0  0  0  0  0  0  0  0  0
    6.6738   -8.3072    0.0000 C   0  0  1  0  0  0  0  0  0  0  0  0
    6.6738   -9.1322    0.0000 C   0  0  2  0  0  0  0  0  0  0  0  0
    7.3882   -9.5447    0.0000 C   0  0  1  0  0  0  0  0  0  0  0  0
    8.1027   -9.1322    0.0000 C   0  0  2  0  0  0  0  0  0  0  0  0
    8.1027   -8.3072    0.0000 C   0  0  2  0  0  0  0  0  0  0  0  0
    7.3882  -10.3697    0.0000 O   0  0  0  0  0  0  0  0  0  0  0  0
    5.9593  -10.3697    0.0000 O   0  0  0  0  0  0  0  0  0  0  0  0
    6.6738  -10.7822    0.0000 C   0  0  2  0  0  0  0  0  0  0  0  0
    6.6738  -11.6072    0.0000 C   0  0  1  0  0  0  0  0  0  0  0  0
    5.9593  -12.0197    0.0000 C   0  0  1  0  0  0  0  0  0  0  0  0
    5.2448  -11.6072    0.0000 C   0  0  2  0  0  0  0  0  0  0  0  0
    5.2448  -10.7822    0.0000 C   0  0  2  0  0  0  0  0  0  0  0  0
    4.5303  -10.3697    0.0000 C   0  0  0  0  0  0  0  0  0  0  0  0
    4.5303  -12.0197    0.0000 O   0  0  0  0  0  0  0  0  0  0  0  0
    5.9593  -12.8447    0.0000 O   0  0  0  0  0  0  0  0  0  0  0  0
    7.3882  -12.0197    0.0000 O   0  0  0  0  0  0  0  0  0  0  0  0
    5.9593   -7.8947    0.0000 C   0  0  0  0  0  0  0  0  0  0  0  0
    5.9593   -7.0697    0.0000 O   0  0  0  0  0  0  0  0  0  0  0  0
   10.9606   -8.3072    0.0000 C   0  0  0  0  0  0  0  0  0  0  0  0
   11.6751   -7.8947    0.0000 C   0  0  0  0  0  0  0  0  0  0  0  0
   12.3895   -8.3072    0.0000 C   0  0  0  0  0  0  0  0  0  0  0  0
   12.3895   -9.1322    0.0000 C   0  0  0  0  0  0  0  0  0  0  0  0
   11.6751   -9.5447    0.0000 C   0  0  0  0  0  0  0  0  0  0  0  0
   10.9606   -9.1322    0.0000 C   0  0  0  0  0  0  0  0  0  0  0  0
   13.1040   -7.8947    0.0000 O   0  0  0  0  0  0  0  0  0  0  0  0
   13.8185   -8.3072    0.0000 C   0  0  0  0  0  0  0  0  0  0  0  0
   13.1040   -9.5447    0.0000 O   0  0  0  0  0  0  0  0  0  0  0  0
    8.8172  -10.3697    0.0000 C   0  0  0  0  0  0  0  0  0  0  0  0
    9.5316  -10.7822    0.0000 O   0  0  0  0  0  0  0  0  0  0  0  0
    8.1027  -10.7822    0.0000 C   0  0  0  0  0  0  0  0  0  0  0  0
   10.2461   -7.8947    0.0000 C   0  0  0  0  0  0  0  0  0  0  0  0
    9.5316   -8.3072    0.0000 C   0  0  0  0  0  0  0  0  0  0  0  0
    8.8172   -7.8947    0.0000 O   0  0  0  0  0  0  0  0  0  0  0  0
    8.8172   -9.5447    0.0000 O   0  0  0  0  0  0  0  0  0  0  0  0
 45 33  1  0  0  0  0
 47 46  1  0  0  0  0
 46 45  1  0  0  0  0
 48 42  1  0  0  0  0
  1  2  1  0  0  0  0
  2  3  2  0  0  0  0
  1  4  2  0  0  0  0
  1  5  1  0  0  0  0
  6  7  1  0  0  0  0
  7  8  2  0  0  0  0
  8  9  1  0  0  0  0
  9 10  2  0  0  0  0
 10 11  1  0  0  0  0
  6 11  2  0  0  0  0
  9 12  1  0  0  0  0
  8 13  1  0  0  0  0
  3  6  1  0  0  0  0
 14 15  1  0  0  0  0
 15 16  1  0  0  0  0
 16 17  1  0  0  0  0
 17 18  1  0  0  0  0
 18 19  1  0  0  0  0
 14 19  1  0  0  0  0
 21 22  1  0  0  0  0
 22 23  1  0  0  0  0
 23 24  1  0  0  0  0
 24 25  1  0  0  0  0
 25 26  1  0  0  0  0
 21 26  1  0  0  0  0
 26 27  1  6  0  0  0
 25 28  1  1  0  0  0
 24 29  1  6  0  0  0
 23 30  1  6  0  0  0
 22 20  1  1  0  0  0
 17 20  1  1  0  0  0
 31 32  1  0  0  0  0
 15 31  1  1  0  0  0
 33 34  1  0  0  0  0
 34 35  2  0  0  0  0
 35 36  1  0  0  0  0
 36 37  2  0  0  0  0
 37 38  1  0  0  0  0
 33 38  2  0  0  0  0
 39 40  1  0  0  0  0
 35 39  1  0  0  0  0
 36 41  1  0  0  0  0
 19 47  1  1  0  0  0
 42 43  2  0  0  0  0
 42 44  1  0  0  0  0
 18 48  1  6  0  0  0
 16  5  1  6  0  0  0
M  END
>  <cdx:groupId>
38915

>  <cdx:fragmentId>
38811

$$$$
