403915.cdx
  Mrv1902 05222410222D          

 41 44  0  0  0  0            999 V2000
    9.6984   -8.3333    0.0000 O   0  0  0  0  0  0  0  0  0  0  0  0
    6.8480   -5.8496    0.0000 O   0  0  0  0  0  0  0  0  0  0  0  0
    6.8455   -6.6746    0.0000 C   0  0  0  0  0  0  0  0  0  0  0  0
   11.1348   -5.8626    0.0000 C   0  0  0  0  0  0  0  0  0  0  0  0
   11.8506   -5.4523    0.0000 C   0  0  0  0  0  0  0  0  0  0  0  0
   12.5638   -5.8670    0.0000 C   0  0  0  0  0  0  0  0  0  0  0  0
   12.5613   -6.6920    0.0000 C   0  0  0  0  0  0  0  0  0  0  0  0
   11.8455   -7.1023    0.0000 C   0  0  0  0  0  0  0  0  0  0  0  0
   11.1323   -6.6876    0.0000 C   0  0  0  0  0  0  0  0  0  0  0  0
   10.4166   -7.0980    0.0000 C   0  0  0  0  0  0  0  0  0  0  0  0
    9.7034   -6.6833    0.0000 O   0  0  0  0  0  0  0  0  0  0  0  0
    8.2619  -10.8039    0.0000 O   0  0  0  0  0  0  0  0  0  0  0  0
    6.8305  -11.6246    0.0000 O   0  0  0  0  0  0  0  0  0  0  0  0
    5.4040  -10.7952    0.0000 O   0  0  0  0  0  0  0  0  0  0  0  0
    5.4091   -9.1452    0.0000 C   0  0  0  0  0  0  0  0  0  0  0  0
    6.1223   -9.5599    0.0000 C   0  0  1  0  0  0  0  0  0  0  0  0
    6.1198  -10.3849    0.0000 C   0  0  1  0  0  0  0  0  0  0  0  0
    6.8330  -10.7996    0.0000 C   0  0  2  0  0  0  0  0  0  0  0  0
    7.5487  -10.3892    0.0000 C   0  0  2  0  0  0  0  0  0  0  0  0
    7.5512   -9.5642    0.0000 C   0  0  1  0  0  0  0  0  0  0  0  0
    6.8380   -9.1496    0.0000 O   0  0  0  0  0  0  0  0  0  0  0  0
    8.2669   -9.1539    0.0000 O   0  0  0  0  0  0  0  0  0  0  0  0
    8.9877   -7.0936    0.0000 C   0  0  1  0  0  0  0  0  0  0  0  0
    8.9852   -7.9186    0.0000 C   0  0  1  0  0  0  0  0  0  0  0  0
    8.2694   -8.3289    0.0000 C   0  0  2  0  0  0  0  0  0  0  0  0
    7.5562   -7.9143    0.0000 C   0  0  1  0  0  0  0  0  0  0  0  0
    7.5587   -7.0893    0.0000 C   0  0  2  0  0  0  0  0  0  0  0  0
    8.2745   -6.6789    0.0000 O   0  0  0  0  0  0  0  0  0  0  0  0
    1.8405   -7.8969    0.0000 O   0  0  0  0  0  0  0  0  0  0  0  0
    1.8355   -9.5469    0.0000 O   0  0  0  0  0  0  0  0  0  0  0  0
    3.9801   -9.1409    0.0000 C   0  0  0  0  0  0  0  0  0  0  0  0
    3.2644   -9.5512    0.0000 C   0  0  0  0  0  0  0  0  0  0  0  0
    2.5512   -9.1365    0.0000 C   0  0  0  0  0  0  0  0  0  0  0  0
    2.5537   -8.3115    0.0000 C   0  0  0  0  0  0  0  0  0  0  0  0
    3.2694   -7.9012    0.0000 C   0  0  0  0  0  0  0  0  0  0  0  0
    3.9826   -8.3159    0.0000 C   0  0  0  0  0  0  0  0  0  0  0  0
    6.8405   -8.3246    0.0000 O   0  0  0  0  0  0  0  0  0  0  0  0
    6.1298   -7.0849    0.0000 O   0  0  0  0  0  0  0  0  0  0  0  0
    4.6984   -7.9056    0.0000 C   0  0  0  0  0  0  0  0  0  0  0  0
    5.4116   -8.3202    0.0000 C   0  0  0  0  0  0  0  0  0  0  0  0
    6.1273   -7.9099    0.0000 C   0  0  0  0  0  0  0  0  0  0  0  0
 26 37  1  6  0  0  0
 24  1  1  6  0  0  0
 27  3  1  1  0  0  0
  3  2  1  0  0  0  0
 23 11  1  1  0  0  0
 10  9  1  0  0  0  0
  9  4  2  0  0  0  0
  5  4  1  0  0  0  0
  6  5  2  0  0  0  0
  7  6  1  0  0  0  0
  8  7  2  0  0  0  0
  9  8  1  0  0  0  0
 11 10  1  0  0  0  0
 25 22  1  1  0  0  0
 20 22  1  1  0  0  0
 19 12  1  6  0  0  0
 18 13  1  6  0  0  0
 17 14  1  1  0  0  0
 16 15  1  6  0  0  0
 21 16  1  0  0  0  0
 17 16  1  0  0  0  0
 18 17  1  0  0  0  0
 19 18  1  0  0  0  0
 20 19  1  0  0  0  0
 21 20  1  0  0  0  0
 28 23  1  0  0  0  0
 24 23  1  0  0  0  0
 25 24  1  0  0  0  0
 26 25  1  0  0  0  0
 27 26  1  0  0  0  0
 28 27  1  0  0  0  0
 39 36  1  0  0  0  0
 34 29  1  0  0  0  0
 33 30  1  0  0  0  0
 36 31  2  0  0  0  0
 32 31  1  0  0  0  0
 33 32  2  0  0  0  0
 34 33  1  0  0  0  0
 35 34  2  0  0  0  0
 36 35  1  0  0  0  0
 41 37  1  0  0  0  0
 41 38  2  0  0  0  0
 40 39  2  0  0  0  0
 41 40  1  0  0  0  0
M  END
>  <cdx:groupId>
38601

>  <cdx:fragmentId>
38518

$$$$
