40395.cdx
  Mrv1902 05222410272D          

 32 33  0  0  0  0            999 V2000
    5.0993  -11.0264    0.0000 C   0  0  2  0  0  0  0  0  0  0  0  0
    5.0993  -11.8514    0.0000 C   0  0  2  0  0  0  0  0  0  0  0  0
    5.8138  -12.2639    0.0000 C   0  0  1  0  0  0  0  0  0  0  0  0
    6.5282  -11.8514    0.0000 C   0  0  2  0  0  0  0  0  0  0  0  0
    6.5282  -11.0264    0.0000 C   0  0  1  0  0  0  0  0  0  0  0  0
    5.8138  -10.6139    0.0000 O   0  0  0  0  0  0  0  0  0  0  0  0
    2.2414  -11.8514    0.0000 O   0  0  0  0  0  0  0  0  0  0  0  0
   11.8315  -11.7409    0.0000 C   0  0  0  0  0  0  0  0  0  0  0  0
   12.6565  -10.3119    0.0000 C   0  0  0  0  0  0  0  0  0  0  0  0
   12.9585  -11.4389    0.0000 O   0  0  0  0  0  0  0  0  0  0  0  0
   12.2440  -11.0264    0.0000 C   0  0  0  0  0  0  0  0  0  0  0  0
   11.5295  -10.6139    0.0000 C   0  0  0  0  0  0  0  0  0  0  0  0
   10.8151  -11.0264    0.0000 C   0  0  0  0  0  0  0  0  0  0  0  0
   10.1006  -10.6139    0.0000 C   0  0  0  0  0  0  0  0  0  0  0  0
    5.8138  -13.0889    0.0000 O   0  0  0  0  0  0  0  0  0  0  0  0
    4.3848  -12.2639    0.0000 O   0  0  0  0  0  0  0  0  0  0  0  0
    7.2427  -12.2639    0.0000 O   0  0  0  0  0  0  0  0  0  0  0  0
    9.3861  -11.8514    0.0000 C   0  0  0  0  0  0  0  0  0  0  0  0
    9.3861  -11.0264    0.0000 C   0  0  0  0  0  0  0  0  0  0  0  0
    8.6717  -10.6139    0.0000 C   0  0  0  0  0  0  0  0  0  0  0  0
    7.9572  -11.0264    0.0000 C   0  0  0  0  0  0  0  0  0  0  0  0
    7.2427  -10.6139    0.0000 O   0  0  0  0  0  0  0  0  0  0  0  0
    0.8125  -11.0264    0.0000 O   0  0  0  0  0  0  0  0  0  0  0  0
    0.8125   -9.3764    0.0000 O   0  0  0  0  0  0  0  0  0  0  0  0
    2.9559   -9.7889    0.0000 O   0  0  0  0  0  0  0  0  0  0  0  0
    2.2414   -9.3764    0.0000 C   0  0  0  0  0  0  0  0  0  0  0  0
    1.5269   -9.7889    0.0000 C   0  0  1  0  0  0  0  0  0  0  0  0
    1.5269  -10.6139    0.0000 C   0  0  1  0  0  0  0  0  0  0  0  0
    2.2414  -11.0264    0.0000 C   0  0  2  0  0  0  0  0  0  0  0  0
    2.9559  -10.6139    0.0000 C   0  0  2  0  0  0  0  0  0  0  0  0
    4.3848  -10.6139    0.0000 C   0  0  0  0  0  0  0  0  0  0  0  0
    3.6704  -11.0264    0.0000 O   0  0  0  0  0  0  0  0  0  0  0  0
  1  2  1  0  0  0  0
  2  3  1  0  0  0  0
  3  4  1  0  0  0  0
  4  5  1  0  0  0  0
  5  6  1  0  0  0  0
  6  1  1  0  0  0  0
 29  7  1  6  0  0  0
 28 23  1  1  0  0  0
  1 31  1  1  0  0  0
 11  8  1  0  0  0  0
  5 22  1  1  0  0  0
 11  9  1  0  0  0  0
 11 10  1  0  0  0  0
 12 11  1  0  0  0  0
 12 13  1  0  0  0  0
 14 13  1  0  0  0  0
 14 19  1  0  0  0  0
 19 18  1  0  0  0  0
 20 19  2  0  0  0  0
 21 20  1  0  0  0  0
  3 15  1  1  0  0  0
  2 16  1  6  0  0  0
  4 17  1  6  0  0  0
 22 21  1  0  0  0  0
 27 24  1  1  0  0  0
 25 30  1  0  0  0  0
 26 25  1  0  0  0  0
 27 26  1  0  0  0  0
 28 27  1  0  0  0  0
 29 28  1  0  0  0  0
 30 29  1  0  0  0  0
 30 32  1  1  0  0  0
 32 31  1  0  0  0  0
M  END
>  <cdx:fragmentId>
5

$$$$
