403919.cdx
  Mrv1902 05222410242D          

 46 49  0  0  0  0            999 V2000
    4.9141   -9.5251    0.0000 C   0  0  0  0  0  0  0  0  0  0  0  0
    9.2171  -11.1323    0.0000 O   0  0  0  0  0  0  0  0  0  0  0  0
    9.2007   -9.4824    0.0000 O   0  0  0  0  0  0  0  0  0  0  0  0
    9.9192   -9.8878    0.0000 C   0  0  0  0  0  0  0  0  0  0  0  0
   10.6295   -9.4682    0.0000 C   0  0  0  0  0  0  0  0  0  0  0  0
    4.2037   -9.9447    0.0000 C   0  0  0  0  0  0  0  0  0  0  0  0
    4.9058   -8.7002    0.0000 O   0  0  0  0  0  0  0  0  0  0  0  0
    5.6326   -9.9305    0.0000 O   0  0  0  0  0  0  0  0  0  0  0  0
    6.3429   -9.5109    0.0000 C   0  0  0  0  0  0  0  0  0  0  0  0
    8.5150  -12.3769    0.0000 C   0  0  0  0  0  0  0  0  0  0  0  0
    9.9439  -12.3627    0.0000 O   0  0  0  0  0  0  0  0  0  0  0  0
    9.2253  -11.9573    0.0000 C   0  0  0  0  0  0  0  0  0  0  0  0
   13.4873   -9.4397    0.0000 O   0  0  0  0  0  0  0  0  0  0  0  0
   13.5037  -11.0896    0.0000 O   0  0  0  0  0  0  0  0  0  0  0  0
   11.3563  -10.6985    0.0000 C   0  0  0  0  0  0  0  0  0  0  0  0
   12.0748  -11.1039    0.0000 C   0  0  0  0  0  0  0  0  0  0  0  0
   12.7852  -10.6843    0.0000 C   0  0  0  0  0  0  0  0  0  0  0  0
   12.7770   -9.8593    0.0000 C   0  0  0  0  0  0  0  0  0  0  0  0
   12.0584   -9.4539    0.0000 C   0  0  0  0  0  0  0  0  0  0  0  0
   11.3481   -9.8735    0.0000 C   0  0  0  0  0  0  0  0  0  0  0  0
    6.3594  -11.1608    0.0000 O   0  0  0  0  0  0  0  0  0  0  0  0
    7.8129  -13.6214    0.0000 O   0  0  0  0  0  0  0  0  0  0  0  0
    6.3922  -14.4606    0.0000 O   0  0  0  0  0  0  0  0  0  0  0  0
    4.9551  -13.6499    0.0000 O   0  0  0  0  0  0  0  0  0  0  0  0
    4.9387  -12.0000    0.0000 C   0  0  0  0  0  0  0  0  0  0  0  0
    5.6573  -12.4054    0.0000 C   0  0  1  0  0  0  0  0  0  0  0  0
    5.6655  -13.2303    0.0000 C   0  0  1  0  0  0  0  0  0  0  0  0
    6.3840  -13.6357    0.0000 C   0  0  2  0  0  0  0  0  0  0  0  0
    7.0943  -13.2161    0.0000 C   0  0  2  0  0  0  0  0  0  0  0  0
    7.0861  -12.3911    0.0000 C   0  0  1  0  0  0  0  0  0  0  0  0
    6.3676  -11.9858    0.0000 O   0  0  0  0  0  0  0  0  0  0  0  0
    7.7965  -11.9715    0.0000 O   0  0  0  0  0  0  0  0  0  0  0  0
    8.4903   -9.9020    0.0000 C   0  0  1  0  0  0  0  0  0  0  0  0
    8.4986  -10.7270    0.0000 C   0  0  1  0  0  0  0  0  0  0  0  0
    7.7882  -11.1466    0.0000 C   0  0  2  0  0  0  0  0  0  0  0  0
    7.0697  -10.7412    0.0000 C   0  0  1  0  0  0  0  0  0  0  0  0
    7.0615   -9.9162    0.0000 C   0  0  2  0  0  0  0  0  0  0  0  0
    7.7718   -9.4966    0.0000 O   0  0  0  0  0  0  0  0  0  0  0  0
    3.4523   -6.2395    0.0000 O   0  0  0  0  0  0  0  0  0  0  0  0
    2.7584   -8.3090    0.0000 C   0  0  0  0  0  0  0  0  0  0  0  0
    2.7502   -7.4841    0.0000 C   0  0  0  0  0  0  0  0  0  0  0  0
    3.4605   -7.0645    0.0000 C   0  0  0  0  0  0  0  0  0  0  0  0
    4.1791   -7.4698    0.0000 C   0  0  0  0  0  0  0  0  0  0  0  0
    4.1873   -8.2948    0.0000 C   0  0  0  0  0  0  0  0  0  0  0  0
    3.4770   -8.7144    0.0000 C   0  0  0  0  0  0  0  0  0  0  0  0
    3.4852   -9.5393    0.0000 C   0  0  0  0  0  0  0  0  0  0  0  0
 37  9  1  1  0  0  0
 34  2  1  6  0  0  0
 12 10  1  0  0  0  0
 12 11  2  0  0  0  0
 33  3  1  1  0  0  0
 18 13  1  0  0  0  0
 17 14  1  0  0  0  0
 20 15  2  0  0  0  0
 16 15  1  0  0  0  0
 17 16  2  0  0  0  0
 18 17  1  0  0  0  0
 19 18  2  0  0  0  0
 20 19  1  0  0  0  0
 36 21  1  6  0  0  0
 35 32  1  1  0  0  0
 30 32  1  1  0  0  0
 29 22  1  6  0  0  0
 28 23  1  6  0  0  0
 27 24  1  1  0  0  0
 26 25  1  6  0  0  0
 31 26  1  0  0  0  0
 27 26  1  0  0  0  0
 28 27  1  0  0  0  0
 29 28  1  0  0  0  0
 30 29  1  0  0  0  0
 31 30  1  0  0  0  0
 38 33  1  0  0  0  0
 34 33  1  0  0  0  0
 35 34  1  0  0  0  0
 36 35  1  0  0  0  0
 37 36  1  0  0  0  0
 38 37  1  0  0  0  0
 46 45  1  0  0  0  0
 42 39  1  0  0  0  0
 45 40  2  0  0  0  0
 41 40  1  0  0  0  0
 42 41  2  0  0  0  0
 43 42  1  0  0  0  0
 44 43  2  0  0  0  0
 45 44  1  0  0  0  0
  2 12  1  0  0  0  0
  4  5  1  0  0  0  0
  3  4  1  0  0  0  0
  5 20  1  0  0  0  0
  1  6  1  0  0  0  0
  6 46  2  0  0  0  0
  1  7  2  0  0  0  0
  1  8  1  0  0  0  0
  8  9  1  0  0  0  0
M  END
>  <cdx:groupId>
39070

>  <cdx:fragmentId>
38972

$$$$
