40391.cdx
  Mrv1902 05222410272D          

 34 35  0  0  0  0            999 V2000
    4.3706   -8.2351    0.0000 C   0  0  2  0  0  0  0  0  0  0  0  0
    4.3706   -9.0601    0.0000 C   0  0  2  0  0  0  0  0  0  0  0  0
    5.0850   -9.4726    0.0000 C   0  0  1  0  0  0  0  0  0  0  0  0
    5.7995   -9.0601    0.0000 C   0  0  2  0  0  0  0  0  0  0  0  0
    5.7995   -8.2351    0.0000 C   0  0  1  0  0  0  0  0  0  0  0  0
    5.0850   -7.8226    0.0000 O   0  0  0  0  0  0  0  0  0  0  0  0
    3.0488   -8.1733    0.0000 O   0  0  0  0  0  0  0  0  0  0  0  0
    3.6561   -7.8226    0.0000 C   0  0  0  0  0  0  0  0  0  0  0  0
   12.2297   -7.8227    0.0000 C   0  0  0  0  0  0  0  0  0  0  0  0
   11.5153   -9.0602    0.0000 C   0  0  0  0  0  0  0  0  0  0  0  0
   11.5153   -8.2352    0.0000 C   0  0  0  0  0  0  0  0  0  0  0  0
   10.8008   -7.8227    0.0000 C   0  0  0  0  0  0  0  0  0  0  0  0
   10.0863   -8.2352    0.0000 C   0  0  0  0  0  0  0  0  0  0  0  0
    9.3719   -7.8227    0.0000 C   0  0  1  0  0  0  0  0  0  0  0  0
    9.3719   -6.9977    0.0000 O   0  0  0  0  0  0  0  0  0  0  0  0
    8.6574   -9.0602    0.0000 C   0  0  0  0  0  0  0  0  0  0  0  0
    8.6574   -8.2352    0.0000 C   0  0  0  0  0  0  0  0  0  0  0  0
    7.9429   -7.8227    0.0000 C   0  0  0  0  0  0  0  0  0  0  0  0
    7.2284   -8.2351    0.0000 C   0  0  0  0  0  0  0  0  0  0  0  0
    6.5140   -7.8226    0.0000 O   0  0  0  0  0  0  0  0  0  0  0  0
    5.0850  -10.2976    0.0000 O   0  0  0  0  0  0  0  0  0  0  0  0
    3.6561   -9.4726    0.0000 O   0  0  0  0  0  0  0  0  0  0  0  0
    6.5140   -9.4726    0.0000 O   0  0  0  0  0  0  0  0  0  0  0  0
    4.3706  -10.7101    0.0000 C   0  0  2  0  0  0  0  0  0  0  0  0
    3.6561  -10.2976    0.0000 O   0  0  0  0  0  0  0  0  0  0  0  0
    2.9416  -10.7101    0.0000 C   0  0  1  0  0  0  0  0  0  0  0  0
    2.9416  -11.5351    0.0000 C   0  0  2  0  0  0  0  0  0  0  0  0
    3.6561  -11.9476    0.0000 C   0  0  1  0  0  0  0  0  0  0  0  0
    4.3706  -11.5351    0.0000 C   0  0  1  0  0  0  0  0  0  0  0  0
    2.2271  -10.2976    0.0000 C   0  0  0  0  0  0  0  0  0  0  0  0
    3.6561  -12.7726    0.0000 O   0  0  0  0  0  0  0  0  0  0  0  0
    2.2271  -11.9476    0.0000 O   0  0  0  0  0  0  0  0  0  0  0  0
    5.0850  -11.9476    0.0000 O   0  0  0  0  0  0  0  0  0  0  0  0
    1.5135  -10.7097    0.0000 O   0  0  0  0  0  0  0  0  0  0  0  0
  1  2  1  0  0  0  0
  2  3  1  0  0  0  0
  3  4  1  0  0  0  0
  4  5  1  0  0  0  0
  5  6  1  0  0  0  0
  6  1  1  0  0  0  0
  7  8  1  0  0  0  0
  1  8  1  1  0  0  0
 11  9  1  0  0  0  0
  5 20  1  1  0  0  0
 11 10  1  0  0  0  0
 12 11  2  0  0  0  0
 12 13  1  0  0  0  0
 14 13  1  0  0  0  0
 14 17  1  0  0  0  0
 14 15  1  6  0  0  0
 17 16  1  0  0  0  0
 18 17  2  0  0  0  0
 19 18  1  0  0  0  0
 20 19  1  0  0  0  0
  3 21  1  1  0  0  0
  2 22  1  6  0  0  0
  4 23  1  6  0  0  0
 24 21  1  1  0  0  0
 24 25  1  0  0  0  0
 25 26  1  0  0  0  0
 26 27  1  0  0  0  0
 27 28  1  0  0  0  0
 28 29  1  0  0  0  0
 29 24  1  0  0  0  0
 26 30  1  1  0  0  0
 28 31  1  1  0  0  0
 27 32  1  6  0  0  0
 29 33  1  6  0  0  0
 30 34  1  0  0  0  0
M  END
>  <cdx:fragmentId>
5

$$$$
