403917.cdx
  Mrv1902 05222410222D          

 46 49  0  0  0  0            999 V2000
    5.5473   -8.8297    0.0000 C   0  0  0  0  0  0  0  0  0  0  0  0
    4.8328   -9.2422    0.0000 C   0  0  0  0  0  0  0  0  0  0  0  0
    4.1184   -8.8297    0.0000 C   0  0  0  0  0  0  0  0  0  0  0  0
    5.5473   -8.0047    0.0000 O   0  0  0  0  0  0  0  0  0  0  0  0
    6.2618   -9.2422    0.0000 O   0  0  0  0  0  0  0  0  0  0  0  0
    3.4039   -9.2422    0.0000 C   0  0  0  0  0  0  0  0  0  0  0  0
    2.6894   -8.8297    0.0000 C   0  0  0  0  0  0  0  0  0  0  0  0
    1.9750   -9.2422    0.0000 C   0  0  0  0  0  0  0  0  0  0  0  0
    1.9750  -10.0672    0.0000 C   0  0  0  0  0  0  0  0  0  0  0  0
    2.6894  -10.4797    0.0000 C   0  0  0  0  0  0  0  0  0  0  0  0
    3.4039  -10.0672    0.0000 C   0  0  0  0  0  0  0  0  0  0  0  0
    1.2605  -10.4797    0.0000 O   0  0  0  0  0  0  0  0  0  0  0  0
    1.2605   -8.8297    0.0000 O   0  0  0  0  0  0  0  0  0  0  0  0
    7.6907   -7.5922    0.0000 O   0  0  0  0  0  0  0  0  0  0  0  0
    6.9763   -8.0047    0.0000 C   0  0  1  0  0  0  0  0  0  0  0  0
    6.9763   -8.8297    0.0000 C   0  0  2  0  0  0  0  0  0  0  0  0
    7.6907   -9.2422    0.0000 C   0  0  1  0  0  0  0  0  0  0  0  0
    8.4052   -8.8297    0.0000 C   0  0  2  0  0  0  0  0  0  0  0  0
    8.4052   -8.0047    0.0000 C   0  0  2  0  0  0  0  0  0  0  0  0
    7.6907  -10.0672    0.0000 O   0  0  0  0  0  0  0  0  0  0  0  0
    6.2618  -10.0672    0.0000 O   0  0  0  0  0  0  0  0  0  0  0  0
    6.9763  -10.4797    0.0000 C   0  0  2  0  0  0  0  0  0  0  0  0
    6.9763  -11.3047    0.0000 C   0  0  1  0  0  0  0  0  0  0  0  0
    6.2618  -11.7172    0.0000 C   0  0  1  0  0  0  0  0  0  0  0  0
    5.5473  -11.3047    0.0000 C   0  0  2  0  0  0  0  0  0  0  0  0
    5.5473  -10.4797    0.0000 C   0  0  2  0  0  0  0  0  0  0  0  0
    4.8328  -10.0672    0.0000 C   0  0  0  0  0  0  0  0  0  0  0  0
    4.8328  -11.7172    0.0000 O   0  0  0  0  0  0  0  0  0  0  0  0
    6.2618  -12.5422    0.0000 O   0  0  0  0  0  0  0  0  0  0  0  0
    7.6907  -11.7172    0.0000 O   0  0  0  0  0  0  0  0  0  0  0  0
    6.2618   -7.5922    0.0000 C   0  0  0  0  0  0  0  0  0  0  0  0
    6.2618   -6.7672    0.0000 O   0  0  0  0  0  0  0  0  0  0  0  0
    9.1197  -10.0672    0.0000 C   0  0  0  0  0  0  0  0  0  0  0  0
    9.8341  -10.4797    0.0000 O   0  0  0  0  0  0  0  0  0  0  0  0
    8.4052  -10.4797    0.0000 C   0  0  0  0  0  0  0  0  0  0  0  0
   13.4065   -9.2422    0.0000 O   0  0  0  0  0  0  0  0  0  0  0  0
   11.9776   -7.5922    0.0000 C   0  0  0  0  0  0  0  0  0  0  0  0
   12.6920   -8.0047    0.0000 C   0  0  0  0  0  0  0  0  0  0  0  0
   12.6920   -8.8297    0.0000 C   0  0  0  0  0  0  0  0  0  0  0  0
   11.9776   -9.2422    0.0000 C   0  0  0  0  0  0  0  0  0  0  0  0
   11.2631   -8.8297    0.0000 C   0  0  0  0  0  0  0  0  0  0  0  0
   11.2631   -8.0047    0.0000 C   0  0  0  0  0  0  0  0  0  0  0  0
   10.5486   -7.5922    0.0000 C   0  0  0  0  0  0  0  0  0  0  0  0
    9.8341   -8.0047    0.0000 C   0  0  0  0  0  0  0  0  0  0  0  0
    9.1197   -7.5922    0.0000 O   0  0  0  0  0  0  0  0  0  0  0  0
    9.1197   -9.2422    0.0000 O   0  0  0  0  0  0  0  0  0  0  0  0
 43 42  1  0  0  0  0
 39 36  1  0  0  0  0
 42 37  2  0  0  0  0
 38 37  1  0  0  0  0
 39 38  2  0  0  0  0
 40 39  1  0  0  0  0
 41 40  2  0  0  0  0
 42 41  1  0  0  0  0
 45 44  1  0  0  0  0
 44 43  1  0  0  0  0
 46 33  1  0  0  0  0
  1  2  1  0  0  0  0
  2  3  2  0  0  0  0
  1  4  2  0  0  0  0
  1  5  1  0  0  0  0
  6  7  1  0  0  0  0
  7  8  2  0  0  0  0
  8  9  1  0  0  0  0
  9 10  2  0  0  0  0
 10 11  1  0  0  0  0
  6 11  2  0  0  0  0
  9 12  1  0  0  0  0
  8 13  1  0  0  0  0
  3  6  1  0  0  0  0
 14 15  1  0  0  0  0
 15 16  1  0  0  0  0
 16 17  1  0  0  0  0
 17 18  1  0  0  0  0
 18 19  1  0  0  0  0
 14 19  1  0  0  0  0
 21 22  1  0  0  0  0
 22 23  1  0  0  0  0
 23 24  1  0  0  0  0
 24 25  1  0  0  0  0
 25 26  1  0  0  0  0
 21 26  1  0  0  0  0
 26 27  1  6  0  0  0
 25 28  1  1  0  0  0
 24 29  1  6  0  0  0
 23 30  1  6  0  0  0
 22 20  1  1  0  0  0
 17 20  1  1  0  0  0
 19 45  1  1  0  0  0
 31 32  1  0  0  0  0
 15 31  1  1  0  0  0
 33 34  2  0  0  0  0
 33 35  1  0  0  0  0
 18 46  1  6  0  0  0
 16  5  1  6  0  0  0
M  END
>  <cdx:groupId>
38755

>  <cdx:fragmentId>
38657

$$$$
