40398.cdx
  Mrv1902 05222410192D          

 24 25  0  0  0  0            999 V2000
    5.0993  -11.0264    0.0000 C   0  0  2  0  0  0  0  0  0  0  0  0
    5.0993  -11.8514    0.0000 C   0  0  2  0  0  0  0  0  0  0  0  0
    5.8138  -12.2639    0.0000 C   0  0  1  0  0  0  0  0  0  0  0  0
    6.5282  -11.8514    0.0000 C   0  0  2  0  0  0  0  0  0  0  0  0
    6.5282  -11.0264    0.0000 C   0  0  1  0  0  0  0  0  0  0  0  0
    5.8138  -10.6139    0.0000 O   0  0  0  0  0  0  0  0  0  0  0  0
    5.8138  -13.0889    0.0000 O   0  0  0  0  0  0  0  0  0  0  0  0
    4.3848  -12.2639    0.0000 O   0  0  0  0  0  0  0  0  0  0  0  0
    7.2427  -12.2639    0.0000 O   0  0  0  0  0  0  0  0  0  0  0  0
    7.2427  -10.6139    0.0000 O   0  0  0  0  0  0  0  0  0  0  0  0
    4.3848  -10.6139    0.0000 C   0  0  0  0  0  0  0  0  0  0  0  0
    3.6704  -11.0264    0.0000 O   0  0  0  0  0  0  0  0  0  0  0  0
    7.2427   -9.7889    0.0000 C   0  0  0  0  0  0  0  0  0  0  0  0
    7.9572   -9.3764    0.0000 C   0  0  0  0  0  0  0  0  0  0  0  0
    7.9572   -8.5514    0.0000 C   0  0  0  0  0  0  0  0  0  0  0  0
    7.2427   -8.1389    0.0000 C   0  0  0  0  0  0  0  0  0  0  0  0
    6.5282   -8.5514    0.0000 C   0  0  0  0  0  0  0  0  0  0  0  0
    6.5282   -9.3764    0.0000 C   0  0  0  0  0  0  0  0  0  0  0  0
    8.6717   -9.7889    0.0000 O   0  0  0  0  0  0  0  0  0  0  0  0
    9.3861   -9.3764    0.0000 C   0  0  0  0  0  0  0  0  0  0  0  0
    7.2427   -7.3139    0.0000 C   0  0  0  0  0  0  0  0  0  0  0  0
    7.9572   -6.9014    0.0000 C   0  0  0  0  0  0  0  0  0  0  0  0
    7.9572   -6.0764    0.0000 C   0  0  0  0  0  0  0  0  0  0  0  0
    8.6717   -5.6639    0.0000 O   0  0  0  0  0  0  0  0  0  0  0  0
  1  2  1  0  0  0  0
  2  3  1  0  0  0  0
  3  4  1  0  0  0  0
  4  5  1  0  0  0  0
  5  6  1  0  0  0  0
  6  1  1  0  0  0  0
  1 11  1  1  0  0  0
  5 10  1  1  0  0  0
  3  7  1  1  0  0  0
  2  8  1  6  0  0  0
  4  9  1  6  0  0  0
 12 11  1  0  0  0  0
 10 13  1  0  0  0  0
 13 14  2  0  0  0  0
 14 15  1  0  0  0  0
 15 16  2  0  0  0  0
 16 17  1  0  0  0  0
 17 18  2  0  0  0  0
 18 13  1  0  0  0  0
 14 19  1  0  0  0  0
 19 20  1  0  0  0  0
 16 21  1  0  0  0  0
 21 22  1  0  0  0  0
 22 23  1  0  0  0  0
 23 24  1  0  0  0  0
M  END
>  <cdx:fragmentId>
5

$$$$
