40397.cdx
  Mrv1902 05222410262D          

 29 30  0  0  0  0            999 V2000
    5.3743   -9.9126    0.0000 C   0  0  2  0  0  0  0  0  0  0  0  0
    5.3743  -10.7376    0.0000 C   0  0  2  0  0  0  0  0  0  0  0  0
    6.0888  -11.1501    0.0000 C   0  0  1  0  0  0  0  0  0  0  0  0
    6.8032  -10.7376    0.0000 C   0  0  2  0  0  0  0  0  0  0  0  0
    6.8032   -9.9126    0.0000 C   0  0  1  0  0  0  0  0  0  0  0  0
    6.0888   -9.5001    0.0000 O   0  0  0  0  0  0  0  0  0  0  0  0
    4.6598  -11.1501    0.0000 O   0  0  0  0  0  0  0  0  0  0  0  0
    1.0875   -8.2626    0.0000 O   0  0  0  0  0  0  0  0  0  0  0  0
    1.0875   -9.9126    0.0000 O   0  0  0  0  0  0  0  0  0  0  0  0
    2.5164  -10.7376    0.0000 O   0  0  0  0  0  0  0  0  0  0  0  0
    2.5164   -8.2626    0.0000 C   0  0  0  0  0  0  0  0  0  0  0  0
    1.8019   -8.6751    0.0000 C   0  0  1  0  0  0  0  0  0  0  0  0
    1.8019   -9.5001    0.0000 C   0  0  1  0  0  0  0  0  0  0  0  0
    2.5164   -9.9126    0.0000 C   0  0  2  0  0  0  0  0  0  0  0  0
   13.2404   -9.6338    0.0000 C   0  0  0  0  0  0  0  0  0  0  0  0
   12.5167  -10.0300    0.0000 C   0  0  0  0  0  0  0  0  0  0  0  0
   11.8118   -9.6014    0.0000 C   0  0  0  0  0  0  0  0  0  0  0  0
   11.0882   -9.9976    0.0000 C   0  0  0  0  0  0  0  0  0  0  0  0
   10.3832   -9.5690    0.0000 C   0  0  0  0  0  0  0  0  0  0  0  0
    9.6596   -9.9653    0.0000 C   0  0  0  0  0  0  0  0  0  0  0  0
    8.9546   -9.5367    0.0000 C   0  0  0  0  0  0  0  0  0  0  0  0
    8.2310   -9.9329    0.0000 C   0  0  0  0  0  0  0  0  0  0  0  0
    7.5261   -9.5043    0.0000 O   0  0  0  0  0  0  0  0  0  0  0  0
    6.0888  -11.9751    0.0000 O   0  0  0  0  0  0  0  0  0  0  0  0
    7.5177  -11.1501    0.0000 O   0  0  0  0  0  0  0  0  0  0  0  0
    3.2309   -8.6751    0.0000 O   0  0  0  0  0  0  0  0  0  0  0  0
    3.2309   -9.5001    0.0000 C   0  0  1  0  0  0  0  0  0  0  0  0
    3.9454   -9.9126    0.0000 O   0  0  0  0  0  0  0  0  0  0  0  0
    4.6598   -9.5001    0.0000 C   0  0  0  0  0  0  0  0  0  0  0  0
  1  2  1  0  0  0  0
  2  3  1  0  0  0  0
  3  4  1  0  0  0  0
  4  5  1  0  0  0  0
  5  6  1  0  0  0  0
  6  1  1  0  0  0  0
 12  8  1  1  0  0  0
  1 29  1  1  0  0  0
  2  7  1  6  0  0  0
 13  9  1  1  0  0  0
 14 10  1  6  0  0  0
 11 26  1  0  0  0  0
 12 11  1  0  0  0  0
 13 12  1  0  0  0  0
 14 13  1  0  0  0  0
 27 14  1  0  0  0  0
 27 26  1  0  0  0  0
 16 15  1  0  0  0  0
 17 16  1  0  0  0  0
 18 17  1  0  0  0  0
 19 18  1  0  0  0  0
 20 19  1  0  0  0  0
 21 20  1  0  0  0  0
 22 21  1  0  0  0  0
 23 22  1  0  0  0  0
  5 23  1  1  0  0  0
 27 28  1  1  0  0  0
 29 28  1  0  0  0  0
  3 24  1  1  0  0  0
  4 25  1  6  0  0  0
M  END
>  <cdx:fragmentId>
6

$$$$
