40393.cdx
  Mrv1902 05222410282D          

 24 24  0  0  0  0            999 V2000
    4.1643  -12.5664    0.0000 C   0  0  2  0  0  0  0  0  0  0  0  0
    4.1643  -13.3914    0.0000 C   0  0  2  0  0  0  0  0  0  0  0  0
    4.8788  -13.8039    0.0000 C   0  0  1  0  0  0  0  0  0  0  0  0
    5.5932  -13.3914    0.0000 C   0  0  2  0  0  0  0  0  0  0  0  0
    5.5932  -12.5664    0.0000 C   0  0  1  0  0  0  0  0  0  0  0  0
    4.8788  -12.1539    0.0000 O   0  0  0  0  0  0  0  0  0  0  0  0
    2.7458  -12.5604    0.0000 O   0  0  0  0  0  0  0  0  0  0  0  0
    3.4498  -12.1539    0.0000 C   0  0  0  0  0  0  0  0  0  0  0  0
   10.8965  -13.2809    0.0000 C   0  0  0  0  0  0  0  0  0  0  0  0
   11.7215  -11.8519    0.0000 C   0  0  0  0  0  0  0  0  0  0  0  0
   12.0235  -12.9789    0.0000 O   0  0  0  0  0  0  0  0  0  0  0  0
   11.3090  -12.5664    0.0000 C   0  0  0  0  0  0  0  0  0  0  0  0
   10.5945  -12.1539    0.0000 C   0  0  0  0  0  0  0  0  0  0  0  0
    9.8801  -12.5664    0.0000 C   0  0  0  0  0  0  0  0  0  0  0  0
    9.1656  -12.1539    0.0000 C   0  0  1  0  0  0  0  0  0  0  0  0
    9.1656  -11.3289    0.0000 O   0  0  0  0  0  0  0  0  0  0  0  0
    4.8788  -14.6289    0.0000 O   0  0  0  0  0  0  0  0  0  0  0  0
    3.4498  -13.8039    0.0000 O   0  0  0  0  0  0  0  0  0  0  0  0
    6.3077  -13.8039    0.0000 O   0  0  0  0  0  0  0  0  0  0  0  0
    8.4511  -13.3914    0.0000 C   0  0  0  0  0  0  0  0  0  0  0  0
    8.4511  -12.5664    0.0000 C   0  0  0  0  0  0  0  0  0  0  0  0
    7.7367  -12.1539    0.0000 C   0  0  0  0  0  0  0  0  0  0  0  0
    7.0222  -12.5664    0.0000 C   0  0  0  0  0  0  0  0  0  0  0  0
    6.3077  -12.1539    0.0000 O   0  0  0  0  0  0  0  0  0  0  0  0
  1  2  1  0  0  0  0
  2  3  1  0  0  0  0
  3  4  1  0  0  0  0
  4  5  1  0  0  0  0
  5  6  1  0  0  0  0
  6  1  1  0  0  0  0
  7  8  1  0  0  0  0
  1  8  1  1  0  0  0
 12  9  1  0  0  0  0
  5 24  1  1  0  0  0
 12 10  1  0  0  0  0
 12 11  1  0  0  0  0
 13 12  1  0  0  0  0
 13 14  1  0  0  0  0
 15 14  1  0  0  0  0
 15 21  1  0  0  0  0
 15 16  1  6  0  0  0
 21 20  1  0  0  0  0
 22 21  2  0  0  0  0
 23 22  1  0  0  0  0
  3 17  1  1  0  0  0
  2 18  1  6  0  0  0
  4 19  1  6  0  0  0
 24 23  1  0  0  0  0
M  END
>  <cdx:fragmentId>
5

$$$$
