40400.cdx
  Mrv1902 05222410192D          

 28 31  0  0  0  0            999 V2000
    5.9516   -9.1246    0.0000 C   0  0  2  0  0  0  0  0  0  0  0  0
    5.7047   -9.9118    0.0000 C   0  0  2  0  0  0  0  0  0  0  0  0
    6.1661  -10.5957    0.0000 C   0  0  2  0  0  0  0  0  0  0  0  0
    6.9885  -10.6613    0.0000 C   0  0  0  0  0  0  0  0  0  0  0  0
    7.5525  -10.0592    0.0000 C   0  0  0  0  0  0  0  0  0  0  0  0
    7.4335   -9.2428    0.0000 C   0  0  0  0  0  0  0  0  0  0  0  0
    6.7210   -8.8269    0.0000 C   0  0  0  0  0  0  0  0  0  0  0  0
    8.2650  -10.4751    0.0000 C   0  0  0  0  0  0  0  0  0  0  0  0
    9.0344  -10.1774    0.0000 C   0  0  1  0  0  0  0  0  0  0  0  0
    9.2814   -9.3902    0.0000 C   0  0  0  0  0  0  0  0  0  0  0  0
    8.8199   -8.7063    0.0000 C   0  0  0  0  0  0  0  0  0  0  0  0
    7.9975   -8.6407    0.0000 C   0  0  0  0  0  0  0  0  0  0  0  0
    5.2792   -8.6465    0.0000 C   0  0  1  0  0  0  0  0  0  0  0  0
    4.6168   -9.1246    0.0000 C   0  0  1  0  0  0  0  0  0  0  0  0
    4.8797   -9.9118    0.0000 C   0  0  0  0  0  0  0  0  0  0  0  0
    4.1652  -10.3243    0.0000 C   0  0  0  0  0  0  0  0  0  0  0  0
    4.8797  -10.7368    0.0000 C   0  0  0  0  0  0  0  0  0  0  0  0
    6.7866   -8.0045    0.0000 C   0  0  0  0  0  0  0  0  0  0  0  0
    9.2480  -10.9742    0.0000 C   0  0  0  0  0  0  0  0  0  0  0  0
    9.8313  -10.3909    0.0000 O   0  0  0  0  0  0  0  0  0  0  0  0
   10.0977   -9.2711    0.0000 H   0  0  0  0  0  0  0  0  0  0  0  0
    8.1575   -9.2760    0.0000 C   0  0  0  0  0  0  0  0  0  0  0  0
    8.3500   -8.4102    0.0000 O   0  0  0  0  0  0  0  0  0  0  0  0
    3.8315   -8.8717    0.0000 O   0  0  0  0  0  0  0  0  0  0  0  0
    5.2764   -7.8215    0.0000 O   0  0  0  0  0  0  0  0  0  0  0  0
    5.4911  -10.7087    0.0000 O   0  0  0  0  0  0  0  0  0  0  0  0
    6.1651   -8.3278    0.0000 H   0  0  0  0  0  0  0  0  0  0  0  0
    6.1661  -11.4207    0.0000 O   0  0  0  0  0  0  0  0  0  0  0  0
  1  2  1  0  0  0  0
  2  3  1  0  0  0  0
  3  4  1  0  0  0  0
  4  5  1  0  0  0  0
  5  6  1  0  0  0  0
  6  7  1  0  0  0  0
  7  1  1  0  0  0  0
  5  8  1  0  0  0  0
  8  9  1  0  0  0  0
  9 10  1  0  0  0  0
 10 11  1  0  0  0  0
 11 12  1  0  0  0  0
 12  6  1  0  0  0  0
  1 13  1  0  0  0  0
 13 14  1  0  0  0  0
 14 15  1  0  0  0  0
 15  2  1  0  0  0  0
 15 16  1  0  0  0  0
 15 17  1  0  0  0  0
  7 18  2  0  0  0  0
  9 19  1  0  0  0  0
  9 20  1  6  0  0  0
 10 21  1  0  0  0  0
  5 22  1  0  0  0  0
 22 10  1  0  0  0  0
 22 23  1  0  0  0  0
 14 24  1  1  0  0  0
 13 25  1  1  0  0  0
  2 26  1  1  0  0  0
  1 27  1  6  0  0  0
  3 28  1  6  0  0  0
M  END
>  <cdx:fragmentId>
5

$$$$
