40405.cdx
  Mrv1902 05222410192D          

 23 23  0  0  0  0            999 V2000
    4.1231   -9.2114    0.0000 C   0  0  2  0  0  0  0  0  0  0  0  0
    4.1231  -10.0364    0.0000 C   0  0  2  0  0  0  0  0  0  0  0  0
    4.8375  -10.4489    0.0000 C   0  0  1  0  0  0  0  0  0  0  0  0
    5.5520  -10.0364    0.0000 C   0  0  2  0  0  0  0  0  0  0  0  0
    5.5520   -9.2114    0.0000 C   0  0  1  0  0  0  0  0  0  0  0  0
    4.8375   -8.7989    0.0000 O   0  0  0  0  0  0  0  0  0  0  0  0
    3.4086   -8.7989    0.0000 C   0  0  0  0  0  0  0  0  0  0  0  0
    2.7059   -9.2046    0.0000 O   0  0  0  0  0  0  0  0  0  0  0  0
   11.2678  -10.0364    0.0000 C   0  0  0  0  0  0  0  0  0  0  0  0
   11.9822   -8.7989    0.0000 C   0  0  0  0  0  0  0  0  0  0  0  0
   11.2678   -9.2114    0.0000 C   0  0  0  0  0  0  0  0  0  0  0  0
   10.5533   -8.7989    0.0000 C   0  0  0  0  0  0  0  0  0  0  0  0
    9.1244   -7.9739    0.0000 O   0  0  0  0  0  0  0  0  0  0  0  0
    9.8388   -9.2114    0.0000 C   0  0  0  0  0  0  0  0  0  0  0  0
    9.1244   -8.7989    0.0000 C   0  0  1  0  0  0  0  0  0  0  0  0
    8.4099  -10.0364    0.0000 C   0  0  0  0  0  0  0  0  0  0  0  0
    8.4099   -9.2114    0.0000 C   0  0  0  0  0  0  0  0  0  0  0  0
    7.6954   -8.7989    0.0000 C   0  0  0  0  0  0  0  0  0  0  0  0
    6.9809   -9.2114    0.0000 C   0  0  0  0  0  0  0  0  0  0  0  0
    6.2665   -8.7989    0.0000 O   0  0  0  0  0  0  0  0  0  0  0  0
    4.8375  -11.2739    0.0000 O   0  0  0  0  0  0  0  0  0  0  0  0
    3.4086  -10.4489    0.0000 O   0  0  0  0  0  0  0  0  0  0  0  0
    6.2665  -10.4489    0.0000 O   0  0  0  0  0  0  0  0  0  0  0  0
  1  2  1  0  0  0  0
  2  3  1  0  0  0  0
  3  4  1  0  0  0  0
  4  5  1  0  0  0  0
  5  6  1  0  0  0  0
  6  1  1  0  0  0  0
  1  7  1  1  0  0  0
  7  8  1  0  0  0  0
 11  9  1  0  0  0  0
  5 20  1  1  0  0  0
 11 10  1  0  0  0  0
 12 11  2  0  0  0  0
 14 12  1  0  0  0  0
 15 13  1  1  0  0  0
 15 14  1  0  0  0  0
 17 15  1  0  0  0  0
 17 16  1  0  0  0  0
 18 17  2  0  0  0  0
 19 18  1  0  0  0  0
 20 19  1  0  0  0  0
  3 21  1  1  0  0  0
  2 22  1  6  0  0  0
  4 23  1  6  0  0  0
M  END
>  <cdx:fragmentId>
5

$$$$
