40403.cdx
  Mrv1902 05222410202D          

 16 17  0  0  0  0            999 V2000
    5.4879  -10.5470    0.0000 C   0  0  0  0  0  0  0  0  0  0  0  0
    6.3129  -10.5422    0.0000 C   0  0  0  0  0  0  0  0  0  0  0  0
    6.7213   -9.8254    0.0000 C   0  0  0  0  0  0  0  0  0  0  0  0
    6.3047   -9.1133    0.0000 C   0  0  0  0  0  0  0  0  0  0  0  0
    5.4797   -9.1181    0.0000 C   0  0  0  0  0  0  0  0  0  0  0  0
    5.0713   -9.8349    0.0000 C   0  0  0  0  0  0  0  0  0  0  0  0
    4.2463   -9.8396    0.0000 O   0  0  0  0  0  0  0  0  0  0  0  0
    6.7295  -11.2543    0.0000 C   0  0  0  0  0  0  0  0  0  0  0  0
    6.3047   -8.2883    0.0000 C   0  0  0  0  0  0  0  0  0  0  0  0
    7.1015   -8.8998    0.0000 C   0  0  0  0  0  0  0  0  0  0  0  0
    7.2070  -10.4923    0.0000 O   0  0  0  0  0  0  0  0  0  0  0  0
    7.9913  -10.2364    0.0000 C   0  0  0  0  0  0  0  0  0  0  0  0
    7.9913   -9.4114    0.0000 C   0  0  0  0  0  0  0  0  0  0  0  0
    7.2070   -9.1574    0.0000 C   0  0  0  0  0  0  0  0  0  0  0  0
    8.4038  -10.9509    0.0000 C   0  0  0  0  0  0  0  0  0  0  0  0
    8.8163  -10.2364    0.0000 O   0  0  0  0  0  0  0  0  0  0  0  0
  1  2  2  0  0  0  0
  2  3  1  0  0  0  0
  3  4  1  0  0  0  0
  4  5  1  0  0  0  0
  5  6  1  0  0  0  0
  6  1  1  0  0  0  0
  6  7  1  0  0  0  0
  2  8  1  0  0  0  0
  4  9  1  0  0  0  0
  4 10  1  0  0  0  0
  3 11  1  0  0  0  0
 11 12  1  0  0  0  0
 12 13  1  0  0  0  0
 13 14  1  0  0  0  0
 14  3  1  0  0  0  0
 12 15  1  0  0  0  0
 12 16  1  0  0  0  0
M  END
>  <cdx:fragmentId>
5

$$$$
