40418.cdx
  Mrv1902 05222410272D          

 34 38  0  0  0  0            999 V2000
    6.6806  -13.9139    0.0000 C   0  0  0  0  0  0  0  0  0  0  0  0
    6.6806  -14.7389    0.0000 C   0  0  0  0  0  0  0  0  0  0  0  0
    7.3950  -15.1514    0.0000 C   0  0  0  0  0  0  0  0  0  0  0  0
    8.1095  -14.7389    0.0000 C   0  0  0  0  0  0  0  0  0  0  0  0
    8.1095  -13.9139    0.0000 C   0  0  0  0  0  0  0  0  0  0  0  0
    7.3950  -13.5014    0.0000 C   0  0  0  0  0  0  0  0  0  0  0  0
    7.3950  -12.6764    0.0000 C   0  0  0  0  0  0  0  0  0  0  0  0
    6.6806  -12.2639    0.0000 C   0  0  0  0  0  0  0  0  0  0  0  0
    5.9661  -12.6764    0.0000 C   0  0  0  0  0  0  0  0  0  0  0  0
    5.9661  -13.5014    0.0000 O   0  0  0  0  0  0  0  0  0  0  0  0
    8.8240  -13.5014    0.0000 C   0  0  0  0  0  0  0  0  0  0  0  0
    8.8240  -12.6764    0.0000 O   0  0  0  0  0  0  0  0  0  0  0  0
    8.1095  -12.2639    0.0000 C   0  0  0  0  0  0  0  0  0  0  0  0
    8.1095  -11.4389    0.0000 C   0  0  0  0  0  0  0  0  0  0  0  0
    7.3950  -11.0264    0.0000 C   0  0  0  0  0  0  0  0  0  0  0  0
    6.6806  -11.4389    0.0000 C   0  0  0  0  0  0  0  0  0  0  0  0
    7.3950  -10.2014    0.0000 O   0  0  0  0  0  0  0  0  0  0  0  0
    6.6806   -9.7889    0.0000 C   0  0  0  0  0  0  0  0  0  0  0  0
    5.9661  -10.2014    0.0000 C   0  0  0  0  0  0  0  0  0  0  0  0
    5.9661  -11.0264    0.0000 O   0  0  0  0  0  0  0  0  0  0  0  0
    6.6806   -8.9639    0.0000 C   0  0  0  0  0  0  0  0  0  0  0  0
    5.9661   -8.5514    0.0000 C   0  0  0  0  0  0  0  0  0  0  0  0
    5.2516   -8.9639    0.0000 C   0  0  0  0  0  0  0  0  0  0  0  0
    5.2516   -9.7889    0.0000 C   0  0  0  0  0  0  0  0  0  0  0  0
    4.5371   -8.5514    0.0000 O   0  0  0  0  0  0  0  0  0  0  0  0
    4.5371  -10.2014    0.0000 O   0  0  0  0  0  0  0  0  0  0  0  0
    7.3950   -8.5514    0.0000 C   0  0  0  0  0  0  0  0  0  0  0  0
    7.3950   -7.7264    0.0000 O   0  0  0  0  0  0  0  0  0  0  0  0
    5.9661  -15.1514    0.0000 O   0  0  0  0  0  0  0  0  0  0  0  0
    7.3950  -15.9764    0.0000 O   0  0  0  0  0  0  0  0  0  0  0  0
    5.2516  -12.2639    0.0000 O   0  0  0  0  0  0  0  0  0  0  0  0
    8.1095   -8.9639    0.0000 O   0  0  0  0  0  0  0  0  0  0  0  0
    8.8240  -11.0264    0.0000 O   0  0  0  0  0  0  0  0  0  0  0  0
    9.5384  -13.9139    0.0000 O   0  0  0  0  0  0  0  0  0  0  0  0
  1  2  1  0  0  0  0
  2  3  1  0  0  0  0
  3  4  2  0  0  0  0
  4  5  1  0  0  0  0
  5  6  1  0  0  0  0
  6  1  2  0  0  0  0
  6  7  1  0  0  0  0
  7  8  1  0  0  0  0
  8  9  2  0  0  0  0
  9 10  1  0  0  0  0
 10  1  1  0  0  0  0
  5 11  2  0  0  0  0
 11 12  1  0  0  0  0
 12 13  1  0  0  0  0
 13  7  2  0  0  0  0
 13 14  1  0  0  0  0
 14 15  1  0  0  0  0
 15 16  2  0  0  0  0
 16  8  1  0  0  0  0
 15 17  1  0  0  0  0
 18 19  2  0  0  0  0
 19 20  1  0  0  0  0
 20 16  1  0  0  0  0
 18 21  1  0  0  0  0
 21 22  2  0  0  0  0
 22 23  1  0  0  0  0
 23 24  2  0  0  0  0
 24 19  1  0  0  0  0
 23 25  1  0  0  0  0
 26 24  1  0  0  0  0
 21 27  1  0  0  0  0
 27 28  1  0  0  0  0
  2 29  2  0  0  0  0
 30  3  1  0  0  0  0
 31  9  1  0  0  0  0
 27 32  2  0  0  0  0
 14 33  2  0  0  0  0
 11 34  1  0  0  0  0
M  END
>  <cdx:fragmentId>
5

$$$$
