40419.cdx
  Mrv1902 05222410262D          

 29 31  0  0  0  0            999 V2000
    3.7518  -11.2189    0.0000 O   0  0  0  0  0  0  0  0  0  0  0  0
    4.4663  -12.4564    0.0000 O   0  0  0  0  0  0  0  0  0  0  0  0
    5.1807  -12.0439    0.0000 C   0  0  2  0  0  0  0  0  0  0  0  0
    5.1807  -11.2189    0.0000 C   0  0  1  0  0  0  0  0  0  0  0  0
    4.4663  -10.8064    0.0000 C   0  0  0  0  0  0  0  0  0  0  0  0
    5.8952  -12.4564    0.0000 C   0  0  1  0  0  0  0  0  0  0  0  0
    6.6097  -12.0439    0.0000 C   0  0  2  0  0  0  0  0  0  0  0  0
    6.6097  -11.2189    0.0000 C   0  0  1  0  0  0  0  0  0  0  0  0
    5.8952  -10.8064    0.0000 O   0  0  0  0  0  0  0  0  0  0  0  0
    7.3242  -10.8064    0.0000 O   0  0  0  0  0  0  0  0  0  0  0  0
    7.3242   -9.9814    0.0000 C   0  0  2  0  0  0  0  0  0  0  0  0
    6.6097   -9.5689    0.0000 O   0  0  0  0  0  0  0  0  0  0  0  0
    8.0386   -9.5689    0.0000 C   0  0  1  0  0  0  0  0  0  0  0  0
    8.0386   -8.7439    0.0000 C   0  0  1  0  0  0  0  0  0  0  0  0
    7.3242   -8.3314    0.0000 C   0  0  0  0  0  0  0  0  0  0  0  0
    6.6097   -8.7439    0.0000 C   0  0  0  0  0  0  0  0  0  0  0  0
    8.8233   -9.8238    0.0000 C   0  0  0  0  0  0  0  0  0  0  0  0
    9.3082   -9.1564    0.0000 C   0  0  0  0  0  0  0  0  0  0  0  0
    8.8233   -8.4890    0.0000 C   0  0  1  0  0  0  0  0  0  0  0  0
    7.3242   -7.5064    0.0000 C   0  0  0  0  0  0  0  0  0  0  0  0
    6.6097   -7.0939    0.0000 O   0  0  0  0  0  0  0  0  0  0  0  0
    8.0386   -7.0939    0.0000 O   0  0  0  0  0  0  0  0  0  0  0  0
    9.0782  -10.6085    0.0000 C   0  0  0  0  0  0  0  0  0  0  0  0
    9.8751  -10.8220    0.0000 O   0  0  0  0  0  0  0  0  0  0  0  0
    5.8952  -13.2814    0.0000 O   0  0  0  0  0  0  0  0  0  0  0  0
    7.3242  -12.4564    0.0000 O   0  0  0  0  0  0  0  0  0  0  0  0
    8.0386  -10.3939    0.0000 H   0  0  0  0  0  0  0  0  0  0  0  0
    8.0386   -7.9189    0.0000 H   0  0  0  0  0  0  0  0  0  0  0  0
    9.0782   -7.7043    0.0000 O   0  0  0  0  0  0  0  0  0  0  0  0
  3  2  1  6  0  0  0
  3  4  1  0  0  0  0
  4  5  1  1  0  0  0
  5  1  1  0  0  0  0
  3  6  1  0  0  0  0
  6  7  1  0  0  0  0
  7  8  1  0  0  0  0
  8  9  1  0  0  0  0
  9  4  1  0  0  0  0
  8 10  1  1  0  0  0
 11 10  1  6  0  0  0
 11 12  1  0  0  0  0
 11 13  1  0  0  0  0
 13 14  1  0  0  0  0
 14 15  1  0  0  0  0
 15 16  2  0  0  0  0
 16 12  1  0  0  0  0
 13 17  1  0  0  0  0
 17 18  2  0  0  0  0
 18 19  1  0  0  0  0
 19 14  1  0  0  0  0
 15 20  1  0  0  0  0
 20 21  1  0  0  0  0
 20 22  2  0  0  0  0
 17 23  1  0  0  0  0
 23 24  1  0  0  0  0
  6 25  1  1  0  0  0
  7 26  1  6  0  0  0
 13 27  1  6  0  0  0
 14 28  1  6  0  0  0
 19 29  1  6  0  0  0
M  END
>  <cdx:fragmentId>
5

$$$$
