40416.cdx
  Mrv1902 05222410202D          

 33 36  0  0  0  0            999 V2000
    2.9406   -9.8439    0.0000 C   0  0  2  0  0  0  0  0  0  0  0  0
    2.9406  -10.6689    0.0000 C   0  0  1  0  0  0  0  0  0  0  0  0
    3.6550  -11.0814    0.0000 C   0  0  2  0  0  0  0  0  0  0  0  0
    4.3695  -10.6689    0.0000 C   0  0  1  0  0  0  0  0  0  0  0  0
    4.3695   -9.8439    0.0000 O   0  0  0  0  0  0  0  0  0  0  0  0
    3.6550   -9.4314    0.0000 C   0  0  0  0  0  0  0  0  0  0  0  0
    3.6550  -11.9064    0.0000 O   0  0  0  0  0  0  0  0  0  0  0  0
    5.0840  -11.0814    0.0000 O   0  0  0  0  0  0  0  0  0  0  0  0
    5.7984  -12.3189    0.0000 O   0  0  0  0  0  0  0  0  0  0  0  0
    6.5129  -11.9064    0.0000 C   0  0  2  0  0  0  0  0  0  0  0  0
    6.5129  -11.0814    0.0000 C   0  0  1  0  0  0  0  0  0  0  0  0
    5.7984  -10.6689    0.0000 C   0  0  0  0  0  0  0  0  0  0  0  0
    7.2274  -12.3189    0.0000 C   0  0  1  0  0  0  0  0  0  0  0  0
    7.9419  -11.9064    0.0000 C   0  0  2  0  0  0  0  0  0  0  0  0
    7.9419  -11.0814    0.0000 C   0  0  1  0  0  0  0  0  0  0  0  0
    7.2274  -10.6689    0.0000 O   0  0  0  0  0  0  0  0  0  0  0  0
    8.6563  -10.6689    0.0000 O   0  0  0  0  0  0  0  0  0  0  0  0
    8.6563   -9.8439    0.0000 C   0  0  1  0  0  0  0  0  0  0  0  0
    7.9419   -9.4314    0.0000 C   0  0  0  0  0  0  0  0  0  0  0  0
    2.2261   -9.4314    0.0000 O   0  0  0  0  0  0  0  0  0  0  0  0
    2.2261  -11.0814    0.0000 O   0  0  0  0  0  0  0  0  0  0  0  0
    7.2274  -13.1439    0.0000 O   0  0  0  0  0  0  0  0  0  0  0  0
    8.6563  -12.3189    0.0000 O   0  0  0  0  0  0  0  0  0  0  0  0
    9.3708   -9.4314    0.0000 C   0  0  0  0  0  0  0  0  0  0  0  0
    8.3341   -7.7408    0.0000 C   0  0  1  0  0  0  0  0  0  0  0  0
    9.1023   -8.2495    0.0000 C   0  0  2  0  0  0  0  0  0  0  0  0
   10.1330   -9.7471    0.0000 C   0  0  0  0  0  0  0  0  0  0  0  0
    7.4620   -8.2691    0.0000 C   0  0  0  0  0  0  0  0  0  0  0  0
    9.2961   -6.9433    0.0000 C   0  0  0  0  0  0  0  0  0  0  0  0
    9.0826   -6.1464    0.0000 C   0  0  0  0  0  0  0  0  0  0  0  0
   10.0106   -6.5308    0.0000 C   0  0  0  0  0  0  0  0  0  0  0  0
    9.8167   -8.6620    0.0000 H   0  0  0  0  0  0  0  0  0  0  0  0
    7.6197   -7.3283    0.0000 H   0  0  0  0  0  0  0  0  0  0  0  0
  1  2  1  0  0  0  0
  2  3  1  0  0  0  0
  3  4  1  0  0  0  0
  4  5  1  0  0  0  0
  5  6  1  0  0  0  0
  6  1  1  0  0  0  0
  3  7  1  6  0  0  0
  4  8  1  1  0  0  0
 10  9  1  6  0  0  0
 10 11  1  0  0  0  0
 11 12  1  1  0  0  0
 12  8  1  0  0  0  0
 10 13  1  0  0  0  0
 13 14  1  0  0  0  0
 14 15  1  0  0  0  0
 15 16  1  0  0  0  0
 16 11  1  0  0  0  0
 15 17  1  1  0  0  0
 18 17  1  1  0  0  0
 18 19  1  0  0  0  0
  1 20  1  1  0  0  0
  2 21  1  1  0  0  0
 13 22  1  1  0  0  0
 14 23  1  6  0  0  0
 18 24  1  0  0  0  0
 19 25  1  0  0  0  0
 24 26  1  0  0  0  0
 24 27  2  0  0  0  0
 25 28  1  0  0  0  0
 28 26  1  0  0  0  0
 25 29  1  0  0  0  0
 26 29  1  0  0  0  0
 29 30  1  0  0  0  0
 29 31  1  0  0  0  0
 26 32  1  1  0  0  0
 25 33  1  6  0  0  0
M  END
>  <cdx:fragmentId>
5

$$$$
