40411.cdx
  Mrv1902 05222410192D          

 33 38  0  0  0  0            999 V2000
    6.3713   -7.7734    0.0000 C   0  0  2  0  0  0  0  0  0  0  0  0
    6.7314   -8.5157    0.0000 C   0  0  1  0  0  0  0  0  0  0  0  0
    6.3756   -9.2600    0.0000 C   0  0  1  0  0  0  0  0  0  0  0  0
    5.5718   -9.4460    0.0000 C   0  0  0  0  0  0  0  0  0  0  0  0
    4.9253   -8.9335    0.0000 C   0  0  1  0  0  0  0  0  0  0  0  0
    4.9229   -8.1085    0.0000 C   0  0  2  0  0  0  0  0  0  0  0  0
    5.5664   -7.5922    0.0000 C   0  0  2  0  0  0  0  0  0  0  0  0
    4.2121   -9.3480    0.0000 C   0  0  2  0  0  0  0  0  0  0  0  0
    3.4964   -8.9376    0.0000 C   0  0  0  0  0  0  0  0  0  0  0  0
    3.4940   -8.1126    0.0000 C   0  0  0  0  0  0  0  0  0  0  0  0
    4.2072   -7.6980    0.0000 C   0  0  2  0  0  0  0  0  0  0  0  0
    5.4901   -6.7707    0.0000 C   0  0  0  0  0  0  0  0  0  0  0  0
    6.2477   -6.4443    0.0000 C   0  0  1  0  0  0  0  0  0  0  0  0
    6.7923   -7.0640    0.0000 C   0  0  2  0  0  0  0  0  0  0  0  0
    4.2048   -6.8731    0.0000 O   0  0  0  0  0  0  0  0  0  0  0  0
    3.4937   -6.4549    0.0000 C   0  0  0  0  0  0  0  0  0  0  0  0
    4.2145  -10.1730    0.0000 C   0  0  0  0  0  0  0  0  0  0  0  0
    4.9225   -7.4525    0.0000 C   0  0  0  0  0  0  0  0  0  0  0  0
    4.2075   -8.4700    0.0000 N   0  0  0  0  0  0  0  0  0  0  0  0
    3.4925   -9.6525    0.0000 C   0  0  0  0  0  0  0  0  0  0  0  0
    7.5300   -8.3085    0.0000 C   0  0  0  0  0  0  0  0  0  0  0  0
    7.5625   -6.6275    0.0000 C   0  0  2  0  0  0  0  0  0  0  0  0
    6.9449   -9.3126    0.0000 O   0  0  0  0  0  0  0  0  0  0  0  0
    8.2775   -7.0675    0.0000 O   0  0  0  0  0  0  0  0  0  0  0  0
    4.9187   -9.7584    0.0000 H   0  0  0  0  0  0  0  0  0  0  0  0
    4.9831   -7.0088    0.0000 H   0  0  0  0  0  0  0  0  0  0  0  0
    7.1962   -7.7800    0.0000 H   0  0  0  0  0  0  0  0  0  0  0  0
    6.2477   -5.6193    0.0000 H   0  0  0  0  0  0  0  0  0  0  0  0
    6.3756  -10.0850    0.0000 H   0  0  0  0  0  0  0  0  0  0  0  0
    3.0250   -8.4700    0.0000 C   0  0  0  0  0  0  0  0  0  0  0  0
    8.2770   -6.2150    0.0000 O   0  0  0  0  0  0  0  0  0  0  0  0
    8.2770   -5.3900    0.0000 C   0  0  0  0  0  0  0  0  0  0  0  0
    2.4416   -7.8866    0.0000 C   0  0  0  0  0  0  0  0  0  0  0  0
  1  2  1  0  0  0  0
  2  3  1  0  0  0  0
  3  4  1  0  0  0  0
  4  5  1  0  0  0  0
  5  6  1  0  0  0  0
  6  7  1  0  0  0  0
  7  1  1  0  0  0  0
  5  8  1  0  0  0  0
  8  9  1  0  0  0  0
  9 10  1  0  0  0  0
 10 11  1  0  0  0  0
  6 11  1  1  0  0  0
  7 12  1  0  0  0  0
 12 13  1  0  0  0  0
 13 14  1  0  0  0  0
 14  1  1  0  0  0  0
 11 15  1  6  0  0  0
 15 16  1  0  0  0  0
  8 17  1  1  0  0  0
  6 18  1  0  0  0  0
  3 18  1  0  0  0  0
 18 19  1  0  0  0  0
 19 20  1  0  0  0  0
  8 20  1  0  0  0  0
  2 21  1  0  0  0  0
 13 22  1  0  0  0  0
 22 21  1  0  0  0  0
  2 23  1  1  0  0  0
 14 24  1  6  0  0  0
  5 25  1  1  0  0  0
  7 26  1  1  0  0  0
  1 27  1  1  0  0  0
 13 28  1  1  0  0  0
  3 29  1  6  0  0  0
 19 30  1  0  0  0  0
 22 31  1  1  0  0  0
 31 32  1  0  0  0  0
 30 33  1  0  0  0  0
M  END
>  <cdx:fragmentId>
491

$$$$
