404103.cdx
  Mrv1902 05222410222D          

 26 29  0  0  0  0            999 V2000
    8.7277   -7.4274    0.0000 N   0  3  0  0  0  0  0  0  0  0  0  0
    9.4422   -7.0149    0.0000 C   0  0  0  0  0  0  0  0  0  0  0  0
    9.4422   -6.1899    0.0000 C   0  0  0  0  0  0  0  0  0  0  0  0
   10.1566   -5.7774    0.0000 C   0  0  0  0  0  0  0  0  0  0  0  0
   10.8711   -6.1899    0.0000 C   0  0  0  0  0  0  0  0  0  0  0  0
   10.8711   -7.0149    0.0000 C   0  0  0  0  0  0  0  0  0  0  0  0
   10.1566   -7.4274    0.0000 C   0  0  0  0  0  0  0  0  0  0  0  0
    8.0132   -7.0149    0.0000 O   0  5  0  0  0  0  0  0  0  0  0  0
    8.7277   -8.2524    0.0000 N   0  0  0  0  0  0  0  0  0  0  0  0
    8.0132   -8.6649    0.0000 N   0  0  0  0  0  0  0  0  0  0  0  0
    8.0132   -9.4899    0.0000 C   0  0  0  0  0  0  0  0  0  0  0  0
    8.7277   -9.9024    0.0000 C   0  0  0  0  0  0  0  0  0  0  0  0
    8.7277  -10.7274    0.0000 C   0  0  0  0  0  0  0  0  0  0  0  0
    8.0132  -11.1399    0.0000 C   0  0  0  0  0  0  0  0  0  0  0  0
    7.2988  -10.7274    0.0000 C   0  0  0  0  0  0  0  0  0  0  0  0
    6.5843  -11.1399    0.0000 C   0  0  0  0  0  0  0  0  0  0  0  0
    5.8698  -10.7274    0.0000 C   0  0  0  0  0  0  0  0  0  0  0  0
    5.1554  -11.1399    0.0000 C   0  0  0  0  0  0  0  0  0  0  0  0
    4.4409  -10.7274    0.0000 C   0  0  0  0  0  0  0  0  0  0  0  0
    4.4409   -9.9024    0.0000 C   0  0  0  0  0  0  0  0  0  0  0  0
    5.1554   -9.4899    0.0000 C   0  0  0  0  0  0  0  0  0  0  0  0
    5.8698   -9.9024    0.0000 C   0  0  0  0  0  0  0  0  0  0  0  0
    6.5843   -9.4899    0.0000 C   0  0  0  0  0  0  0  0  0  0  0  0
    7.2988   -9.9024    0.0000 C   0  0  0  0  0  0  0  0  0  0  0  0
    6.5843  -11.9649    0.0000 O   0  0  0  0  0  0  0  0  0  0  0  0
    6.5843   -8.6649    0.0000 O   0  0  0  0  0  0  0  0  0  0  0  0
  2  3  1  0  0  0  0
  3  4  2  0  0  0  0
  4  5  1  0  0  0  0
  5  6  2  0  0  0  0
  6  7  1  0  0  0  0
  2  7  2  0  0  0  0
  1  2  1  0  0  0  0
  1  8  1  0  0  0  0
  9 10  1  0  0  0  0
 11 12  1  0  0  0  0
 12 13  2  0  0  0  0
 13 14  1  0  0  0  0
 14 15  2  0  0  0  0
 15 16  1  0  0  0  0
 16 17  1  0  0  0  0
 17 18  1  0  0  0  0
 18 19  2  0  0  0  0
 19 20  1  0  0  0  0
 20 21  2  0  0  0  0
 21 22  1  0  0  0  0
 17 22  2  0  0  0  0
 22 23  1  0  0  0  0
 23 24  1  0  0  0  0
 15 24  1  0  0  0  0
 11 24  2  0  0  0  0
 16 25  2  0  0  0  0
 23 26  2  0  0  0  0
 10 11  1  0  0  0  0
  1  9  2  0  0  0  0
M  CHG  2   1   1   8  -1
M  END
>  <cdx:fragmentId>
45158

$$$$
