40413.cdx
  Mrv1902 05222410182D          

 34 35  0  0  0  0            999 V2000
    4.3843  -10.1464    0.0000 C   0  0  2  0  0  0  0  0  0  0  0  0
    4.3843  -10.9714    0.0000 C   0  0  2  0  0  0  0  0  0  0  0  0
    5.0988  -11.3839    0.0000 C   0  0  1  0  0  0  0  0  0  0  0  0
    5.8132  -10.9714    0.0000 C   0  0  2  0  0  0  0  0  0  0  0  0
    5.8132  -10.1464    0.0000 C   0  0  1  0  0  0  0  0  0  0  0  0
    5.0988   -9.7339    0.0000 O   0  0  0  0  0  0  0  0  0  0  0  0
    6.5277   -9.7339    0.0000 O   0  0  0  0  0  0  0  0  0  0  0  0
    6.5277   -8.9089    0.0000 C   0  0  0  0  0  0  0  0  0  0  0  0
    7.2422   -8.4964    0.0000 C   0  0  0  0  0  0  0  0  0  0  0  0
    7.2422   -7.6714    0.0000 C   0  0  0  0  0  0  0  0  0  0  0  0
    6.5277   -7.2589    0.0000 C   0  0  0  0  0  0  0  0  0  0  0  0
    8.6711   -7.6714    0.0000 C   0  0  0  0  0  0  0  0  0  0  0  0
    7.9567   -7.2589    0.0000 C   0  0  1  0  0  0  0  0  0  0  0  0
   10.1001   -8.4964    0.0000 C   0  0  0  0  0  0  0  0  0  0  0  0
   10.1001   -7.6714    0.0000 C   0  0  0  0  0  0  0  0  0  0  0  0
    9.3856   -7.2589    0.0000 C   0  0  0  0  0  0  0  0  0  0  0  0
    9.3856   -6.4339    0.0000 O   0  0  0  0  0  0  0  0  0  0  0  0
    8.6711   -6.0214    0.0000 C   0  0  0  0  0  0  0  0  0  0  0  0
    7.9567   -6.4339    0.0000 O   0  0  0  0  0  0  0  0  0  0  0  0
    8.6711   -5.1964    0.0000 C   0  0  0  0  0  0  0  0  0  0  0  0
    7.9567   -4.7839    0.0000 C   0  0  0  0  0  0  0  0  0  0  0  0
    9.3856   -4.7839    0.0000 C   0  0  0  0  0  0  0  0  0  0  0  0
    9.3856   -3.9589    0.0000 C   0  0  0  0  0  0  0  0  0  0  0  0
    8.6711   -3.5464    0.0000 C   0  0  0  0  0  0  0  0  0  0  0  0
    7.9567   -3.9589    0.0000 C   0  0  0  0  0  0  0  0  0  0  0  0
    3.6698   -9.7339    0.0000 C   0  0  0  0  0  0  0  0  0  0  0  0
    3.0208  -10.1086    0.0000 O   0  0  0  0  0  0  0  0  0  0  0  0
   10.8145   -7.2589    0.0000 C   0  0  0  0  0  0  0  0  0  0  0  0
    7.2422   -3.5464    0.0000 O   0  0  0  0  0  0  0  0  0  0  0  0
    8.6711   -2.7214    0.0000 O   0  0  0  0  0  0  0  0  0  0  0  0
   10.1001   -3.5464    0.0000 O   0  0  0  0  0  0  0  0  0  0  0  0
    6.5277  -11.3839    0.0000 O   0  0  0  0  0  0  0  0  0  0  0  0
    3.6698  -11.3839    0.0000 O   0  0  0  0  0  0  0  0  0  0  0  0
    5.0988  -12.2089    0.0000 O   0  0  0  0  0  0  0  0  0  0  0  0
  1  2  1  0  0  0  0
  2  3  1  0  0  0  0
  3  4  1  0  0  0  0
  4  5  1  0  0  0  0
  5  6  1  0  0  0  0
  6  1  1  0  0  0  0
  5  7  1  1  0  0  0
  7  8  1  0  0  0  0
  8  9  1  0  0  0  0
  9 10  2  0  0  0  0
 10 11  1  0  0  0  0
 12 13  1  0  0  0  0
 13 10  1  0  0  0  0
 14 15  1  0  0  0  0
 15 16  2  0  0  0  0
 16 12  1  0  0  0  0
 17 18  2  0  0  0  0
 18 19  1  0  0  0  0
 13 19  1  6  0  0  0
 18 20  1  0  0  0  0
 20 21  1  0  0  0  0
 20 22  2  0  0  0  0
 22 23  1  0  0  0  0
 23 24  2  0  0  0  0
 24 25  1  0  0  0  0
 25 21  2  0  0  0  0
  1 26  1  1  0  0  0
 26 27  1  0  0  0  0
 15 28  1  0  0  0  0
 25 29  1  0  0  0  0
 24 30  1  0  0  0  0
 23 31  1  0  0  0  0
  4 32  1  6  0  0  0
  2 33  1  6  0  0  0
  3 34  1  1  0  0  0
M  END
>  <cdx:fragmentId>
5

$$$$
