40414.cdx
  Mrv1902 05222410192D          

 24 25  0  0  0  0            999 V2000
    5.7593   -9.4589    0.0000 C   0  0  2  0  0  0  0  0  0  0  0  0
    5.7593  -10.2839    0.0000 C   0  0  2  0  0  0  0  0  0  0  0  0
    6.4738  -10.6964    0.0000 C   0  0  1  0  0  0  0  0  0  0  0  0
    7.1882  -10.2839    0.0000 C   0  0  2  0  0  0  0  0  0  0  0  0
    7.1882   -9.4589    0.0000 C   0  0  1  0  0  0  0  0  0  0  0  0
    6.4738   -9.0464    0.0000 O   0  0  0  0  0  0  0  0  0  0  0  0
    7.9027   -9.0464    0.0000 O   0  0  0  0  0  0  0  0  0  0  0  0
    7.9027   -8.2214    0.0000 C   0  0  0  0  0  0  0  0  0  0  0  0
    5.0448   -9.0464    0.0000 C   0  0  0  0  0  0  0  0  0  0  0  0
    4.3284   -9.4600    0.0000 O   0  0  0  0  0  0  0  0  0  0  0  0
    7.9027  -10.6964    0.0000 O   0  0  0  0  0  0  0  0  0  0  0  0
    5.0448  -10.6964    0.0000 O   0  0  0  0  0  0  0  0  0  0  0  0
    6.4738  -11.5214    0.0000 O   0  0  0  0  0  0  0  0  0  0  0  0
    7.9027   -7.3964    0.0000 C   0  0  2  0  0  0  0  0  0  0  0  0
    8.7277   -8.2214    0.0000 C   0  0  0  0  0  0  0  0  0  0  0  0
    7.0777   -8.2214    0.0000 C   0  0  0  0  0  0  0  0  0  0  0  0
    9.3111   -8.8048    0.0000 C   0  0  0  0  0  0  0  0  0  0  0  0
    8.5702   -6.9115    0.0000 O   0  0  0  0  0  0  0  0  0  0  0  0
    8.3152   -6.1269    0.0000 C   0  0  0  0  0  0  0  0  0  0  0  0
    7.4902   -6.1269    0.0000 C   0  0  0  0  0  0  0  0  0  0  0  0
    7.2353   -6.9115    0.0000 C   0  0  0  0  0  0  0  0  0  0  0  0
    8.3152   -5.3019    0.0000 C   0  0  0  0  0  0  0  0  0  0  0  0
    9.1121   -5.9133    0.0000 C   0  0  0  0  0  0  0  0  0  0  0  0
    8.6996   -7.6099    0.0000 H   0  0  0  0  0  0  0  0  0  0  0  0
  1  2  1  0  0  0  0
  2  3  1  0  0  0  0
  3  4  1  0  0  0  0
  4  5  1  0  0  0  0
  5  6  1  0  0  0  0
  6  1  1  0  0  0  0
  5  7  1  1  0  0  0
  7  8  1  0  0  0  0
  1  9  1  1  0  0  0
  9 10  1  0  0  0  0
  4 11  1  6  0  0  0
  2 12  1  6  0  0  0
  3 13  1  1  0  0  0
  8 14  1  0  0  0  0
  8 15  1  0  0  0  0
  8 16  1  0  0  0  0
 15 17  2  0  0  0  0
 14 18  1  0  0  0  0
 18 19  1  0  0  0  0
 19 20  1  0  0  0  0
 20 21  1  0  0  0  0
 21 14  1  0  0  0  0
 19 22  1  0  0  0  0
 19 23  1  0  0  0  0
 14 24  1  6  0  0  0
M  END
>  <cdx:fragmentId>
128

$$$$
