40417.cdx
  Mrv1902 05222410202D          

 30 33  0  0  0  0            999 V2000
    3.6523  -11.9016    0.0000 O   0  0  0  0  0  0  0  0  0  0  0  0
    2.2261  -11.0718    0.0000 O   0  0  0  0  0  0  0  0  0  0  0  0
    2.2316   -9.4218    0.0000 O   0  0  0  0  0  0  0  0  0  0  0  0
    5.0840  -11.0814    0.0000 O   0  0  0  0  0  0  0  0  0  0  0  0
    5.7984  -12.3189    0.0000 O   0  0  0  0  0  0  0  0  0  0  0  0
    6.5129  -11.9064    0.0000 C   0  0  2  0  0  0  0  0  0  0  0  0
    6.5129  -11.0814    0.0000 C   0  0  1  0  0  0  0  0  0  0  0  0
    5.7984  -10.6689    0.0000 C   0  0  0  0  0  0  0  0  0  0  0  0
    7.2274  -12.3189    0.0000 C   0  0  1  0  0  0  0  0  0  0  0  0
    7.9419  -11.9064    0.0000 C   0  0  2  0  0  0  0  0  0  0  0  0
    7.9419  -11.0814    0.0000 C   0  0  1  0  0  0  0  0  0  0  0  0
    7.2274  -10.6689    0.0000 O   0  0  0  0  0  0  0  0  0  0  0  0
    8.6563  -10.6689    0.0000 O   0  0  0  0  0  0  0  0  0  0  0  0
    8.0852   -9.5411    0.0000 C   0  0  0  0  0  0  0  0  0  0  0  0
    8.1800   -8.8288    0.0000 C   0  0  0  0  0  0  0  0  0  0  0  0
    7.2274  -13.1439    0.0000 O   0  0  0  0  0  0  0  0  0  0  0  0
    8.6563  -12.3189    0.0000 O   0  0  0  0  0  0  0  0  0  0  0  0
    8.6547   -9.9793    0.0000 C   0  0  0  0  0  0  0  0  0  0  0  0
    9.6715   -8.5829    0.0000 C   0  0  0  0  0  0  0  0  0  0  0  0
    9.5171   -9.3704    0.0000 C   0  0  0  0  0  0  0  0  0  0  0  0
    9.0475   -7.9200    0.0000 C   0  0  0  0  0  0  0  0  0  0  0  0
   10.6332   -9.0925    0.0000 C   0  0  0  0  0  0  0  0  0  0  0  0
   11.2039   -8.6558    0.0000 C   0  0  0  0  0  0  0  0  0  0  0  0
   11.2027   -9.5307    0.0000 C   0  0  0  0  0  0  0  0  0  0  0  0
    2.9420  -10.6617    0.0000 C   0  0  2  0  0  0  0  0  0  0  0  0
    3.6550  -11.0766    0.0000 C   0  0  2  0  0  0  0  0  0  0  0  0
    4.3709  -10.6665    0.0000 C   0  0  1  0  0  0  0  0  0  0  0  0
    4.3737   -9.8415    0.0000 O   0  0  0  0  0  0  0  0  0  0  0  0
    3.6606   -9.4266    0.0000 C   0  0  0  0  0  0  0  0  0  0  0  0
    2.9447   -9.8367    0.0000 C   0  0  2  0  0  0  0  0  0  0  0  0
 26  1  1  6  0  0  0
 25  2  1  1  0  0  0
 30  3  1  1  0  0  0
 27  4  1  1  0  0  0
 25 30  1  0  0  0  0
 26 25  1  0  0  0  0
 27 26  1  0  0  0  0
 28 27  1  0  0  0  0
 29 28  1  0  0  0  0
 30 29  1  0  0  0  0
  6  5  1  6  0  0  0
  6  7  1  0  0  0  0
  7  8  1  1  0  0  0
  8  4  1  0  0  0  0
  6  9  1  0  0  0  0
  9 10  1  0  0  0  0
 10 11  1  0  0  0  0
 11 12  1  0  0  0  0
 12  7  1  0  0  0  0
 11 13  1  1  0  0  0
 14 15  1  0  0  0  0
  9 16  1  1  0  0  0
 10 17  1  6  0  0  0
 14 18  2  0  0  0  0
 15 19  1  0  0  0  0
 18 20  1  0  0  0  0
 19 21  1  0  0  0  0
 21 20  1  0  0  0  0
 19 22  1  0  0  0  0
 20 22  1  0  0  0  0
 22 23  1  0  0  0  0
 22 24  1  0  0  0  0
 18 13  1  0  0  0  0
M  END
>  <cdx:fragmentId>
5

$$$$
