40426.cdx
  Mrv1902 05222410262D          

 28 29  0  0  0  0            999 V2000
    6.6407   -3.8201    0.0000 C   0  0  0  0  0  0  0  0  0  0  0  0
    3.7810   -8.8512    0.0000 O   0  0  0  0  0  0  0  0  0  0  0  0
    7.3460   -7.5349    0.0000 C   0  0  2  0  0  0  0  0  0  0  0  0
    6.6328   -7.1201    0.0000 O   0  0  0  0  0  0  0  0  0  0  0  0
    8.0618   -7.1246    0.0000 C   0  0  1  0  0  0  0  0  0  0  0  0
    4.5226  -10.0726    0.0000 O   0  0  0  0  0  0  0  0  0  0  0  0
    5.2278   -9.6444    0.0000 C   0  0  2  0  0  0  0  0  0  0  0  0
    5.2096   -8.8196    0.0000 C   0  0  1  0  0  0  0  0  0  0  0  0
    4.4862   -8.4230    0.0000 C   0  0  0  0  0  0  0  0  0  0  0  0
    8.0644   -6.2997    0.0000 C   0  0  1  0  0  0  0  0  0  0  0  0
    7.3512   -5.8849    0.0000 C   0  0  0  0  0  0  0  0  0  0  0  0
    6.6354   -6.2951    0.0000 C   0  0  0  0  0  0  0  0  0  0  0  0
    8.7749   -7.5394    0.0000 C   0  0  0  0  0  0  0  0  0  0  0  0
    9.4907   -7.1292    0.0000 O   0  0  0  0  0  0  0  0  0  0  0  0
    8.7801   -5.8894    0.0000 C   0  0  0  0  0  0  0  0  0  0  0  0
    8.0696   -4.6497    0.0000 O   0  0  0  0  0  0  0  0  0  0  0  0
    7.3538   -5.0599    0.0000 C   0  0  0  0  0  0  0  0  0  0  0  0
    6.6407   -4.6451    0.0000 O   0  0  0  0  0  0  0  0  0  0  0  0
    9.4933   -6.3042    0.0000 C   0  0  0  0  0  0  0  0  0  0  0  0
   10.2091   -5.8940    0.0000 O   0  0  0  0  0  0  0  0  0  0  0  0
    8.7723   -8.3644    0.0000 C   0  0  0  0  0  0  0  0  0  0  0  0
    5.9512  -10.0410    0.0000 C   0  0  1  0  0  0  0  0  0  0  0  0
    6.6564   -9.6129    0.0000 C   0  0  2  0  0  0  0  0  0  0  0  0
    6.6382   -8.7881    0.0000 C   0  0  1  0  0  0  0  0  0  0  0  0
    5.9148   -8.3914    0.0000 O   0  0  0  0  0  0  0  0  0  0  0  0
    5.9695  -10.8658    0.0000 O   0  0  0  0  0  0  0  0  0  0  0  0
    7.3798  -10.0095    0.0000 O   0  0  0  0  0  0  0  0  0  0  0  0
    7.3434   -8.3599    0.0000 O   0  0  0  0  0  0  0  0  0  0  0  0
 18  1  1  0  0  0  0
  3 28  1  6  0  0  0
  3  4  1  0  0  0  0
  3  5  1  0  0  0  0
  5 10  1  0  0  0  0
 10 11  1  0  0  0  0
 11 12  2  0  0  0  0
 12  4  1  0  0  0  0
 19 14  2  0  0  0  0
  5 13  1  1  0  0  0
 20 19  1  0  0  0  0
 19 15  1  0  0  0  0
 10 15  1  1  0  0  0
 16 17  2  0  0  0  0
 17 11  1  0  0  0  0
 18 17  1  0  0  0  0
  7  6  1  6  0  0  0
 13 21  2  0  0  0  0
  7  8  1  0  0  0  0
  8  9  1  1  0  0  0
  9  2  1  0  0  0  0
  7 22  1  0  0  0  0
 22 23  1  0  0  0  0
 23 24  1  0  0  0  0
 24 25  1  0  0  0  0
 25  8  1  0  0  0  0
 24 28  1  1  0  0  0
 22 26  1  1  0  0  0
 23 27  1  6  0  0  0
M  END
>  <cdx:fragmentId>
5

$$$$
