40420.cdx
  Mrv1902 05222410272D          

 37 41  0  0  0  0            999 V2000
    3.5593  -10.9989    0.0000 C   0  0  0  0  0  0  0  0  0  0  0  0
    3.5593  -11.8239    0.0000 C   0  0  1  0  0  0  0  0  0  0  0  0
    4.2738  -12.2364    0.0000 C   0  0  0  0  0  0  0  0  0  0  0  0
    4.9882  -11.8239    0.0000 C   0  0  1  0  0  0  0  0  0  0  0  0
    4.9882  -10.9989    0.0000 C   0  0  2  0  0  0  0  0  0  0  0  0
    4.2738  -10.5864    0.0000 C   0  0  0  0  0  0  0  0  0  0  0  0
    5.7027  -12.2364    0.0000 C   0  0  0  0  0  0  0  0  0  0  0  0
    6.4172  -11.8239    0.0000 C   0  0  0  0  0  0  0  0  0  0  0  0
    6.4172  -10.9989    0.0000 C   0  0  2  0  0  0  0  0  0  0  0  0
    5.7027  -10.5864    0.0000 C   0  0  0  0  0  0  0  0  0  0  0  0
    7.1317  -10.5864    0.0000 C   0  0  1  0  0  0  0  0  0  0  0  0
    7.1317   -9.7614    0.0000 C   0  0  2  0  0  0  0  0  0  0  0  0
    6.4172   -9.3489    0.0000 C   0  0  0  0  0  0  0  0  0  0  0  0
    5.7027   -9.7614    0.0000 C   0  0  0  0  0  0  0  0  0  0  0  0
    7.9163  -10.8413    0.0000 C   0  0  0  0  0  0  0  0  0  0  0  0
    8.4012  -10.1739    0.0000 C   0  0  0  0  0  0  0  0  0  0  0  0
    7.9163   -9.5065    0.0000 C   0  0  2  0  0  0  0  0  0  0  0  0
    9.5572   -9.3340    0.0000 C   0  0  0  0  0  0  0  0  0  0  0  0
    9.0723   -8.6665    0.0000 C   0  0  2  0  0  0  0  0  0  0  0  0
    8.2518   -8.7528    0.0000 C   0  0  1  0  0  0  0  0  0  0  0  0
   10.3777   -9.2478    0.0000 C   0  0  0  0  0  0  0  0  0  0  0  0
   10.7133   -8.4941    0.0000 C   0  0  0  0  0  0  0  0  0  0  0  0
   10.2284   -7.8266    0.0000 C   0  0  0  0  0  0  0  0  0  0  0  0
    9.4079   -7.9129    0.0000 O   0  0  0  0  0  0  0  0  0  0  0  0
    3.8613  -12.9509    0.0000 C   0  0  0  0  0  0  0  0  0  0  0  0
    4.6863  -12.9509    0.0000 C   0  0  0  0  0  0  0  0  0  0  0  0
   11.5338   -8.4078    0.0000 C   0  0  0  0  0  0  0  0  0  0  0  0
   10.5639   -7.0730    0.0000 O   0  0  0  0  0  0  0  0  0  0  0  0
    9.8973   -8.6665    0.0000 H   0  0  0  0  0  0  0  0  0  0  0  0
    7.2179   -8.9409    0.0000 C   0  0  0  0  0  0  0  0  0  0  0  0
    7.0006  -11.5823    0.0000 H   0  0  0  0  0  0  0  0  0  0  0  0
    4.9882  -10.1739    0.0000 C   0  0  0  0  0  0  0  0  0  0  0  0
    2.8448  -12.2364    0.0000 O   0  0  0  0  0  0  0  0  0  0  0  0
    4.9882  -12.6489    0.0000 H   0  0  0  0  0  0  0  0  0  0  0  0
    7.3452  -11.3833    0.0000 C   0  0  0  0  0  0  0  0  0  0  0  0
    8.7132   -9.2929    0.0000 H   0  0  0  0  0  0  0  0  0  0  0  0
    7.7669   -8.0853    0.0000 C   0  0  0  0  0  0  0  0  0  0  0  0
  1  2  1  0  0  0  0
  2  3  1  0  0  0  0
  3  4  1  0  0  0  0
  4  5  1  0  0  0  0
  5  6  1  0  0  0  0
  6  1  1  0  0  0  0
  4  7  1  0  0  0  0
  7  8  1  0  0  0  0
  8  9  1  0  0  0  0
  9 10  1  0  0  0  0
 10  5  1  0  0  0  0
  9 11  1  0  0  0  0
 11 12  1  0  0  0  0
 12 13  1  0  0  0  0
 13 14  1  0  0  0  0
 14 10  2  0  0  0  0
 11 15  1  0  0  0  0
 15 16  1  0  0  0  0
 16 17  1  0  0  0  0
 17 12  1  0  0  0  0
 18 19  1  0  0  0  0
 19 20  1  0  0  0  0
 20 17  1  0  0  0  0
 18 21  1  0  0  0  0
 21 22  2  0  0  0  0
 22 23  1  0  0  0  0
 23 24  1  0  0  0  0
 24 19  1  0  0  0  0
  3 25  1  0  0  0  0
  3 26  1  0  0  0  0
 22 27  1  0  0  0  0
 23 28  2  0  0  0  0
 19 29  1  1  0  0  0
 12 30  1  1  0  0  0
  9 31  1  1  0  0  0
  5 32  1  1  0  0  0
  2 33  1  1  0  0  0
  4 34  1  6  0  0  0
 11 35  1  6  0  0  0
 17 36  1  6  0  0  0
 20 37  1  6  0  0  0
M  END
>  <cdx:fragmentId>
5

$$$$
