40422.cdx
  Mrv1902 05222410282D          

 37 40  0  0  0  0            999 V2000
    5.4293  -11.5764    0.0000 C   0  0  0  0  0  0  0  0  0  0  0  0
    5.4293  -12.4014    0.0000 C   0  0  0  0  0  0  0  0  0  0  0  0
    6.1438  -12.8139    0.0000 C   0  0  2  0  0  0  0  0  0  0  0  0
    6.8582  -12.4014    0.0000 C   0  0  2  0  0  0  0  0  0  0  0  0
    6.8582  -11.5764    0.0000 C   0  0  1  0  0  0  0  0  0  0  0  0
    6.1438  -11.1639    0.0000 C   0  0  2  0  0  0  0  0  0  0  0  0
    7.5727  -11.1639    0.0000 C   0  0  0  0  0  0  0  0  0  0  0  0
    7.5727  -10.3389    0.0000 C   0  0  0  0  0  0  0  0  0  0  0  0
    6.8582   -9.9264    0.0000 C   0  0  1  0  0  0  0  0  0  0  0  0
    6.1438  -10.3389    0.0000 C   0  0  1  0  0  0  0  0  0  0  0  0
    6.6867   -9.1194    0.0000 C   0  0  2  0  0  0  0  0  0  0  0  0
    5.8662   -9.0332    0.0000 C   0  0  0  0  0  0  0  0  0  0  0  0
    5.5307   -9.7869    0.0000 C   0  0  0  0  0  0  0  0  0  0  0  0
    7.5727  -11.9889    0.0000 C   0  0  0  0  0  0  0  0  0  0  0  0
    6.1438  -13.6389    0.0000 C   0  0  0  0  0  0  0  0  0  0  0  0
    6.8582  -14.0514    0.0000 C   0  0  0  0  0  0  0  0  0  0  0  0
    5.4293  -14.0514    0.0000 C   0  0  0  0  0  0  0  0  0  0  0  0
    5.4293  -14.8764    0.0000 O   0  0  0  0  0  0  0  0  0  0  0  0
    6.8582  -13.2264    0.0000 C   0  0  0  0  0  0  0  0  0  0  0  0
    7.5727  -13.6389    0.0000 C   0  0  0  0  0  0  0  0  0  0  0  0
    8.2872  -13.2264    0.0000 C   0  0  0  0  0  0  0  0  0  0  0  0
    9.0017  -13.6389    0.0000 O   0  0  0  0  0  0  0  0  0  0  0  0
    8.2872  -12.4014    0.0000 O   0  0  0  0  0  0  0  0  0  0  0  0
    7.2388   -8.5063    0.0000 C   0  0  1  0  0  0  0  0  0  0  0  0
    6.8263   -7.7919    0.0000 C   0  0  0  0  0  0  0  0  0  0  0  0
    7.2388   -7.0774    0.0000 C   0  0  0  0  0  0  0  0  0  0  0  0
    6.8263   -6.3629    0.0000 C   0  0  2  0  0  0  0  0  0  0  0  0
    7.2388   -5.6484    0.0000 C   0  0  0  0  0  0  0  0  0  0  0  0
    7.6513   -4.9340    0.0000 O   0  0  0  0  0  0  0  0  0  0  0  0
    6.5243   -5.2359    0.0000 C   0  0  0  0  0  0  0  0  0  0  0  0
    7.9532   -6.0609    0.0000 C   0  0  0  0  0  0  0  0  0  0  0  0
    6.0013   -6.3629    0.0000 O   0  0  0  0  0  0  0  0  0  0  0  0
    8.0592   -8.5926    0.0000 C   0  0  0  0  0  0  0  0  0  0  0  0
    6.4732   -8.3225    0.0000 H   0  0  0  0  0  0  0  0  0  0  0  0
    5.4293  -10.7514    0.0000 C   0  0  0  0  0  0  0  0  0  0  0  0
    7.5727   -9.5139    0.0000 C   0  0  0  0  0  0  0  0  0  0  0  0
    6.8582  -10.7514    0.0000 H   0  0  0  0  0  0  0  0  0  0  0  0
  1  2  1  0  0  0  0
  2  3  1  0  0  0  0
  3  4  1  0  0  0  0
  4  5  1  0  0  0  0
  5  6  1  0  0  0  0
  6  1  1  0  0  0  0
  5  7  1  0  0  0  0
  7  8  1  0  0  0  0
  8  9  1  0  0  0  0
  9 10  1  0  0  0  0
 10  6  1  0  0  0  0
  9 11  1  0  0  0  0
 11 12  1  0  0  0  0
 12 13  1  0  0  0  0
 13 10  1  0  0  0  0
  4 14  1  0  0  0  0
  5 14  1  6  0  0  0
  3 15  1  6  0  0  0
 15 16  2  0  0  0  0
 15 17  1  0  0  0  0
 17 18  1  0  0  0  0
  4 19  1  1  0  0  0
 19 20  1  0  0  0  0
 20 21  1  0  0  0  0
 21 22  1  0  0  0  0
 21 23  2  0  0  0  0
 11 24  1  0  0  0  0
 24 25  1  0  0  0  0
 25 26  1  0  0  0  0
 26 27  1  0  0  0  0
 27 28  1  0  0  0  0
 28 29  1  0  0  0  0
 28 30  1  0  0  0  0
 28 31  1  0  0  0  0
 27 32  1  1  0  0  0
 24 33  1  1  0  0  0
 11 34  1  1  0  0  0
 10 35  1  1  0  0  0
  9 36  1  6  0  0  0
  6 37  1  6  0  0  0
M  END
>  <cdx:fragmentId>
5

$$$$
