40421.cdx
  Mrv1902 05222410272D          

 22 21  0  0  0  0            999 V2000
    3.4565  -10.6134    0.0000 O   0  0  0  0  0  0  0  0  0  0  0  0
    3.4598   -9.7887    0.0000 C   0  0  0  0  0  0  0  0  0  0  0  0
    4.1930   -9.4110    0.0000 C   0  0  0  0  0  0  0  0  0  0  0  0
    4.9050   -9.8272    0.0000 C   0  0  0  0  0  0  0  0  0  0  0  0
    5.6215   -9.4186    0.0000 C   0  0  0  0  0  0  0  0  0  0  0  0
    6.3335   -9.8348    0.0000 C   0  0  0  0  0  0  0  0  0  0  0  0
    2.7563   -9.3577    0.0000 O   0  0  0  0  0  0  0  0  0  0  0  0
    7.0502   -9.4261    0.0000 C   0  0  0  0  0  0  0  0  0  0  0  0
    7.0546   -8.6011    0.0000 C   0  0  0  0  0  0  0  0  0  0  0  0
    7.7713   -8.1925    0.0000 C   0  0  0  0  0  0  0  0  0  0  0  0
    7.7757   -7.3675    0.0000 C   0  0  0  0  0  0  0  0  0  0  0  0
    8.4923   -6.9588    0.0000 C   0  0  0  0  0  0  0  0  0  0  0  0
    8.4968   -6.1338    0.0000 C   0  0  0  0  0  0  0  0  0  0  0  0
    9.2134   -5.7251    0.0000 C   0  0  0  0  0  0  0  0  0  0  0  0
    9.9257   -6.1415    0.0000 C   0  0  0  0  0  0  0  0  0  0  0  0
   10.6423   -5.7328    0.0000 C   0  0  0  0  0  0  0  0  0  0  0  0
   11.3546   -6.1491    0.0000 C   0  0  0  0  0  0  0  0  0  0  0  0
   11.3502   -6.9741    0.0000 C   0  0  0  0  0  0  0  0  0  0  0  0
   12.0624   -7.3904    0.0000 C   0  0  0  0  0  0  0  0  0  0  0  0
   12.0580   -8.2154    0.0000 C   0  0  0  0  0  0  0  0  0  0  0  0
   12.7703   -8.6317    0.0000 C   0  0  0  0  0  0  0  0  0  0  0  0
   12.7659   -9.4567    0.0000 C   0  0  0  0  0  0  0  0  0  0  0  0
  2  1  2  0  0  0  0
  3  2  1  0  0  0  0
  4  3  1  0  0  0  0
  5  4  1  0  0  0  0
  6  5  1  0  0  0  0
  2  7  1  0  0  0  0
  6  8  2  0  0  0  0
  8  9  1  0  0  0  0
  9 10  1  0  0  0  0
 10 11  1  0  0  0  0
 11 12  1  0  0  0  0
 12 13  1  0  0  0  0
 13 14  2  0  0  0  0
 14 15  1  0  0  0  0
 15 16  1  0  0  0  0
 16 17  2  0  0  0  0
 17 18  1  0  0  0  0
 18 19  1  0  0  0  0
 19 20  1  0  0  0  0
 20 21  1  0  0  0  0
 21 22  1  0  0  0  0
M  END
>  <cdx:fragmentId>
52

$$$$
