40429.cdx
  Mrv1902 05222410192D          

 52 60  0  0  0  0            999 V2000
    6.0617  -12.1632    0.0000 C   0  0  0  0  0  0  0  0  0  0  0  0
    6.3198  -12.9468    0.0000 C   0  0  0  0  0  0  0  0  0  0  0  0
    7.1274  -13.1150    0.0000 C   0  0  0  0  0  0  0  0  0  0  0  0
    7.6770  -12.4997    0.0000 N   0  3  0  0  0  0  0  0  0  0  0  0
    7.4189  -11.7161    0.0000 C   0  0  0  0  0  0  0  0  0  0  0  0
    6.6112  -11.5479    0.0000 C   0  0  0  0  0  0  0  0  0  0  0  0
    7.3855  -13.8986    0.0000 C   0  0  0  0  0  0  0  0  0  0  0  0
    8.1932  -14.0669    0.0000 C   0  0  0  0  0  0  0  0  0  0  0  0
    8.7427  -13.4516    0.0000 C   0  0  0  0  0  0  0  0  0  0  0  0
    8.4846  -12.6680    0.0000 C   0  0  0  0  0  0  0  0  0  0  0  0
    8.4513  -14.8505    0.0000 C   0  0  0  0  0  0  0  0  0  0  0  0
    9.2590  -15.0187    0.0000 C   0  0  0  0  0  0  0  0  0  0  0  0
    9.8085  -14.4034    0.0000 O   0  0  0  0  0  0  0  0  0  0  0  0
    9.5504  -13.6198    0.0000 C   0  0  0  0  0  0  0  0  0  0  0  0
    5.2367  -12.1665    0.0000 C   0  0  0  0  0  0  0  0  0  0  0  0
    4.9849  -12.9522    0.0000 C   0  0  0  0  0  0  0  0  0  0  0  0
    5.6543  -13.4344    0.0000 N   0  0  0  0  0  0  0  0  0  0  0  0
    4.6822  -11.5557    0.0000 C   0  0  0  0  0  0  0  0  0  0  0  0
    3.8759  -11.7305    0.0000 C   0  0  0  0  0  0  0  0  0  0  0  0
    3.6241  -12.5161    0.0000 C   0  0  0  0  0  0  0  0  0  0  0  0
    4.1786  -13.1270    0.0000 C   0  0  0  0  0  0  0  0  0  0  0  0
    7.9684  -11.1008    0.0000 O   0  0  0  0  0  0  0  0  0  0  0  0
    7.7103  -10.3172    0.0000 C   0  0  0  0  0  0  0  0  0  0  0  0
    6.9026  -10.1490    0.0000 C   0  0  0  0  0  0  0  0  0  0  0  0
    6.3531  -10.7643    0.0000 C   0  0  0  0  0  0  0  0  0  0  0  0
    6.6445   -9.3654    0.0000 C   0  0  0  0  0  0  0  0  0  0  0  0
    5.8369   -9.1971    0.0000 C   0  0  0  0  0  0  0  0  0  0  0  0
    5.2873   -9.8124    0.0000 C   0  0  0  0  0  0  0  0  0  0  0  0
    7.1941   -8.7501    0.0000 C   0  0  0  0  0  0  0  0  0  0  0  0
    6.9360   -7.9665    0.0000 C   0  0  0  0  0  0  0  0  0  0  0  0
    6.1283   -7.7982    0.0000 N   0  0  0  0  0  0  0  0  0  0  0  0
    5.5788   -8.4135    0.0000 C   0  0  0  0  0  0  0  0  0  0  0  0
    7.4855   -7.3512    0.0000 C   0  0  0  0  0  0  0  0  0  0  0  0
    7.2274   -6.5676    0.0000 C   0  0  0  0  0  0  0  0  0  0  0  0
    6.4198   -6.3993    0.0000 C   0  0  0  0  0  0  0  0  0  0  0  0
    5.8702   -7.0146    0.0000 C   0  0  0  0  0  0  0  0  0  0  0  0
    8.3105   -7.3512    0.0000 N   0  0  0  0  0  0  0  0  0  0  0  0
    8.5623   -6.5676    0.0000 C   0  0  0  0  0  0  0  0  0  0  0  0
    7.8929   -6.0854    0.0000 C   0  0  0  0  0  0  0  0  0  0  0  0
    9.3146   -6.2290    0.0000 C   0  0  0  0  0  0  0  0  0  0  0  0
    9.3975   -5.4081    0.0000 C   0  0  0  0  0  0  0  0  0  0  0  0
    8.7281   -4.9259    0.0000 C   0  0  0  0  0  0  0  0  0  0  0  0
    7.9758   -5.2645    0.0000 C   0  0  0  0  0  0  0  0  0  0  0  0
   10.1000  -13.0045    0.0000 C   0  0  0  0  0  0  0  0  0  0  0  0
    7.9018  -15.4658    0.0000 C   0  0  0  0  0  0  0  0  0  0  0  0
    7.0941  -15.2975    0.0000 O   0  0  0  0  0  0  0  0  0  0  0  0
    8.1599  -16.2494    0.0000 O   0  0  0  0  0  0  0  0  0  0  0  0
    7.5765  -16.8327    0.0000 C   0  0  0  0  0  0  0  0  0  0  0  0
    8.2599   -9.7019    0.0000 O   0  0  0  0  0  0  0  0  0  0  0  0
    9.0567   -9.9154    0.0000 C   0  0  0  0  0  0  0  0  0  0  0  0
    4.4797   -9.6442    0.0000 C   0  0  0  0  0  0  0  0  0  0  0  0
    5.5454  -10.5960    0.0000 H   0  0  0  0  0  0  0  0  0  0  0  0
  1  2  2  0  0  0  0
  2  3  1  0  0  0  0
  3  4  2  0  0  0  0
  4  5  1  0  0  0  0
  5  6  2  0  0  0  0
  6  1  1  0  0  0  0
  3  7  1  0  0  0  0
  7  8  1  0  0  0  0
  8  9  1  0  0  0  0
  9 10  1  0  0  0  0
 10  4  1  0  0  0  0
  8 11  1  0  0  0  0
 11 12  2  0  0  0  0
 12 13  1  0  0  0  0
 13 14  1  0  0  0  0
 14  9  1  0  0  0  0
  1 15  1  0  0  0  0
 15 16  1  0  0  0  0
 16 17  1  0  0  0  0
 17  2  1  0  0  0  0
 15 18  2  0  0  0  0
 18 19  1  0  0  0  0
 19 20  2  0  0  0  0
 20 21  1  0  0  0  0
 21 16  2  0  0  0  0
 22 23  2  0  0  0  0
 23 24  1  0  0  0  0
 24 25  1  0  0  0  0
 25  6  1  0  0  0  0
 24 26  1  0  0  0  0
 26 27  1  0  0  0  0
 27 28  2  0  0  0  0
 26 29  1  0  0  0  0
 29 30  1  0  0  0  0
 30 31  1  0  0  0  0
 31 32  1  0  0  0  0
 32 27  1  0  0  0  0
 30 33  1  0  0  0  0
 33 34  2  0  0  0  0
 34 35  1  0  0  0  0
 35 36  1  0  0  0  0
 36 31  1  0  0  0  0
 33 37  1  0  0  0  0
 37 38  1  0  0  0  0
 38 39  2  0  0  0  0
 39 34  1  0  0  0  0
 38 40  1  0  0  0  0
 40 41  2  0  0  0  0
 41 42  1  0  0  0  0
 42 43  2  0  0  0  0
 43 39  1  0  0  0  0
 14 44  1  0  0  0  0
 11 45  1  0  0  0  0
 45 46  2  0  0  0  0
 45 47  1  0  0  0  0
 47 48  1  0  0  0  0
 23 49  1  0  0  0  0
 49 50  1  0  0  0  0
 28 51  1  0  0  0  0
 28 52  1  0  0  0  0
M  CHG  1   4   1
M  END
>  <cdx:fragmentId>
5

$$$$
