40424.cdx
  Mrv1902 05222410272D          

 27 29  0  0  0  0            999 V2000
    4.2331  -10.5176    0.0000 O   0  0  0  0  0  0  0  0  0  0  0  0
    4.9475  -11.7551    0.0000 O   0  0  0  0  0  0  0  0  0  0  0  0
    5.6620  -11.3426    0.0000 C   0  0  2  0  0  0  0  0  0  0  0  0
    5.6620  -10.5176    0.0000 C   0  0  1  0  0  0  0  0  0  0  0  0
    4.9475  -10.1051    0.0000 C   0  0  0  0  0  0  0  0  0  0  0  0
    6.3765  -11.7551    0.0000 C   0  0  1  0  0  0  0  0  0  0  0  0
    7.0909  -11.3426    0.0000 C   0  0  2  0  0  0  0  0  0  0  0  0
    7.0909  -10.5176    0.0000 C   0  0  1  0  0  0  0  0  0  0  0  0
    6.3765  -10.1051    0.0000 O   0  0  0  0  0  0  0  0  0  0  0  0
    7.8054  -10.1051    0.0000 O   0  0  0  0  0  0  0  0  0  0  0  0
    7.8054   -9.2801    0.0000 C   0  0  2  0  0  0  0  0  0  0  0  0
    7.0909   -8.8676    0.0000 O   0  0  0  0  0  0  0  0  0  0  0  0
    8.5199   -8.8676    0.0000 C   0  0  1  0  0  0  0  0  0  0  0  0
    8.5199   -8.0426    0.0000 C   0  0  1  0  0  0  0  0  0  0  0  0
    7.8054   -7.6301    0.0000 C   0  0  0  0  0  0  0  0  0  0  0  0
    7.0909   -8.0426    0.0000 C   0  0  0  0  0  0  0  0  0  0  0  0
    7.8054   -6.8051    0.0000 C   0  0  0  0  0  0  0  0  0  0  0  0
    7.0909   -6.3926    0.0000 O   0  0  0  0  0  0  0  0  0  0  0  0
    9.2344   -7.6301    0.0000 C   0  0  0  0  0  0  0  0  0  0  0  0
    8.5199   -6.3926    0.0000 O   0  0  0  0  0  0  0  0  0  0  0  0
    9.2344   -9.2801    0.0000 C   0  0  0  0  0  0  0  0  0  0  0  0
    9.9488   -8.8676    0.0000 C   0  0  0  0  0  0  0  0  0  0  0  0
    6.3765  -12.5801    0.0000 O   0  0  0  0  0  0  0  0  0  0  0  0
    7.8054  -11.7551    0.0000 O   0  0  0  0  0  0  0  0  0  0  0  0
    9.2344   -6.8051    0.0000 C   0  0  0  0  0  0  0  0  0  0  0  0
    9.9488   -6.3926    0.0000 O   0  0  0  0  0  0  0  0  0  0  0  0
    9.2344   -8.4551    0.0000 H   0  0  0  0  0  0  0  0  0  0  0  0
  3  2  1  6  0  0  0
  3  4  1  0  0  0  0
  4  5  1  1  0  0  0
  5  1  1  0  0  0  0
  3  6  1  0  0  0  0
  6  7  1  0  0  0  0
  7  8  1  0  0  0  0
  8  9  1  0  0  0  0
  9  4  1  0  0  0  0
  8 10  1  1  0  0  0
 11 10  1  6  0  0  0
 11 12  1  0  0  0  0
 11 13  1  0  0  0  0
 13 14  1  0  0  0  0
 14 15  1  0  0  0  0
 15 16  2  0  0  0  0
 16 12  1  0  0  0  0
 15 17  1  0  0  0  0
 17 18  2  0  0  0  0
 14 19  1  0  0  0  0
 20 17  1  0  0  0  0
 13 21  1  1  0  0  0
 22 21  2  0  0  0  0
  6 23  1  1  0  0  0
  7 24  1  6  0  0  0
 19 25  1  0  0  0  0
 20 25  1  0  0  0  0
 25 26  1  0  0  0  0
 14 27  1  6  0  0  0
M  END
>  <cdx:fragmentId>
5

$$$$
