40436.cdx
  Mrv1902 05222410282D          

 16 16  0  0  0  0            999 V2000
    5.8418   -7.5476    0.0000 C   0  0  1  0  0  0  0  0  0  0  0  0
    5.8418   -8.3726    0.0000 C   0  0  0  0  0  0  0  0  0  0  0  0
    6.5563   -8.7851    0.0000 C   0  0  1  0  0  0  0  0  0  0  0  0
    7.2707   -8.3726    0.0000 C   0  0  0  0  0  0  0  0  0  0  0  0
    7.2707   -7.5476    0.0000 C   0  0  0  0  0  0  0  0  0  0  0  0
    6.5563   -7.1351    0.0000 C   0  0  2  0  0  0  0  0  0  0  0  0
    5.1273   -7.1351    0.0000 C   0  0  0  0  0  0  0  0  0  0  0  0
    6.1438   -6.4207    0.0000 C   0  0  0  0  0  0  0  0  0  0  0  0
    6.5563   -9.6101    0.0000 C   0  0  0  0  0  0  0  0  0  0  0  0
    5.1273   -6.3101    0.0000 C   0  0  0  0  0  0  0  0  0  0  0  0
    4.4129   -7.5476    0.0000 C   0  0  0  0  0  0  0  0  0  0  0  0
    5.1273   -8.7851    0.0000 O   0  0  0  0  0  0  0  0  0  0  0  0
    5.8418  -10.0226    0.0000 C   0  0  0  0  0  0  0  0  0  0  0  0
    7.2707  -10.0226    0.0000 C   0  0  0  0  0  0  0  0  0  0  0  0
    6.9688   -6.4207    0.0000 C   0  0  0  0  0  0  0  0  0  0  0  0
    7.7938   -6.4207    0.0000 C   0  0  0  0  0  0  0  0  0  0  0  0
  1  2  1  0  0  0  0
  2  3  1  0  0  0  0
  3  4  1  0  0  0  0
  4  5  1  0  0  0  0
  5  6  1  0  0  0  0
  6  1  1  0  0  0  0
  1  7  1  6  0  0  0
  6  8  1  1  0  0  0
  3  9  1  1  0  0  0
  7 10  2  0  0  0  0
  7 11  1  0  0  0  0
  2 12  2  0  0  0  0
  9 13  1  0  0  0  0
  9 14  1  0  0  0  0
  6 15  1  0  0  0  0
 15 16  2  0  0  0  0
M  END
>  <cdx:fragmentId>
5

$$$$
