40430.cdx
  Mrv1902 05222410272D          

 49 55  0  0  0  0            999 V2000
    7.3455   -7.1658    0.0000 C   0  0  2  0  0  0  0  0  0  0  0  0
    7.3455   -6.3408    0.0000 C   0  0  0  0  0  0  0  0  0  0  0  0
    8.0600   -5.9283    0.0000 C   0  0  0  0  0  0  0  0  0  0  0  0
    8.7745   -6.3408    0.0000 C   0  0  2  0  0  0  0  0  0  0  0  0
    9.5591   -6.0859    0.0000 C   0  0  2  0  0  0  0  0  0  0  0  0
   10.0440   -6.7533    0.0000 C   0  0  2  0  0  0  0  0  0  0  0  0
    9.5591   -7.4208    0.0000 C   0  0  1  0  0  0  0  0  0  0  0  0
    8.7745   -7.1658    0.0000 C   0  0  1  0  0  0  0  0  0  0  0  0
    8.0600   -7.5783    0.0000 C   0  0  2  0  0  0  0  0  0  0  0  0
    8.0600   -8.4033    0.0000 C   0  0  0  0  0  0  0  0  0  0  0  0
    7.3455   -8.8158    0.0000 C   0  0  0  0  0  0  0  0  0  0  0  0
    6.6311   -8.4033    0.0000 C   0  0  1  0  0  0  0  0  0  0  0  0
    5.9166   -8.8158    0.0000 C   0  0  1  0  0  0  0  0  0  0  0  0
    5.2021   -8.4033    0.0000 C   0  0  2  0  0  0  0  0  0  0  0  0
    5.2021   -7.5783    0.0000 C   0  0  0  0  0  0  0  0  0  0  0  0
    5.9166   -7.1658    0.0000 C   0  0  0  0  0  0  0  0  0  0  0  0
    6.6311   -7.5783    0.0000 C   0  0  2  0  0  0  0  0  0  0  0  0
    6.6311   -6.7533    0.0000 C   0  0  0  0  0  0  0  0  0  0  0  0
    4.4876   -8.8158    0.0000 O   0  0  0  0  0  0  0  0  0  0  0  0
    3.7732   -7.5783    0.0000 O   0  0  0  0  0  0  0  0  0  0  0  0
    3.7732   -8.4033    0.0000 C   0  0  2  0  0  0  0  0  0  0  0  0
    3.0587   -8.8158    0.0000 C   0  0  1  0  0  0  0  0  0  0  0  0
    2.3442   -8.4033    0.0000 C   0  0  2  0  0  0  0  0  0  0  0  0
    2.3442   -7.5783    0.0000 C   0  0  1  0  0  0  0  0  0  0  0  0
    3.0587   -7.1658    0.0000 C   0  0  0  0  0  0  0  0  0  0  0  0
    1.6298   -7.1658    0.0000 O   0  0  0  0  0  0  0  0  0  0  0  0
    1.6298   -8.8158    0.0000 O   0  0  0  0  0  0  0  0  0  0  0  0
    3.0587   -9.6408    0.0000 O   0  0  0  0  0  0  0  0  0  0  0  0
    6.3291   -9.5303    0.0000 C   0  0  0  0  0  0  0  0  0  0  0  0
    5.5041   -9.5303    0.0000 C   0  0  0  0  0  0  0  0  0  0  0  0
    8.7745   -7.9908    0.0000 C   0  0  0  0  0  0  0  0  0  0  0  0
    8.7745   -5.5158    0.0000 C   0  0  0  0  0  0  0  0  0  0  0  0
    9.1466   -5.3714    0.0000 H   0  0  0  0  0  0  0  0  0  0  0  0
    6.6311   -9.2283    0.0000 H   0  0  0  0  0  0  0  0  0  0  0  0
   10.4225   -6.0225    0.0000 O   0  0  0  0  0  0  0  0  0  0  0  0
   11.2001   -5.9134    0.0000 C   0  0  2  0  0  0  0  0  0  0  0  0
   10.7151   -5.2460    0.0000 C   0  0  0  0  0  0  0  0  0  0  0  0
    9.8947   -5.3322    0.0000 C   0  0  1  0  0  0  0  0  0  0  0  0
   12.0205   -5.8272    0.0000 C   0  0  1  0  0  0  0  0  0  0  0  0
   12.5055   -6.4946    0.0000 C   0  0  0  0  0  0  0  0  0  0  0  0
   13.2199   -6.0821    0.0000 C   0  0  0  0  0  0  0  0  0  0  0  0
   11.7910   -6.9071    0.0000 C   0  0  0  0  0  0  0  0  0  0  0  0
   12.9180   -7.2091    0.0000 O   0  0  0  0  0  0  0  0  0  0  0  0
   12.3561   -5.0735    0.0000 O   0  0  0  0  0  0  0  0  0  0  0  0
   11.4136   -5.1165    0.0000 H   0  0  0  0  0  0  0  0  0  0  0  0
    9.4097   -4.6648    0.0000 C   0  0  0  0  0  0  0  0  0  0  0  0
    9.8140   -8.2054    0.0000 O   0  0  0  0  0  0  0  0  0  0  0  0
   10.7460   -7.1867    0.0000 O   0  0  0  0  0  0  0  0  0  0  0  0
    8.0600   -6.7533    0.0000 H   0  0  0  0  0  0  0  0  0  0  0  0
  1  2  1  0  0  0  0
  2  3  1  0  0  0  0
  3  4  1  0  0  0  0
  4  5  1  0  0  0  0
  6  7  1  0  0  0  0
  7  8  1  0  0  0  0
  8  9  1  0  0  0  0
  9 10  1  0  0  0  0
 10 11  1  0  0  0  0
 11 12  1  0  0  0  0
 12 13  1  0  0  0  0
 13 14  1  0  0  0  0
 14 15  1  0  0  0  0
 15 16  1  0  0  0  0
 16 17  1  0  0  0  0
 17 18  1  1  0  0  0
  1 18  1  1  0  0  0
  1  9  1  0  0  0  0
  1 17  1  0  0  0  0
  4  8  1  0  0  0  0
  5  6  1  0  0  0  0
 12 17  1  0  0  0  0
 20 21  1  0  0  0  0
 21 22  1  0  0  0  0
 22 23  1  0  0  0  0
 23 24  1  0  0  0  0
 24 25  1  0  0  0  0
 20 25  1  0  0  0  0
 24 26  1  6  0  0  0
 23 27  1  1  0  0  0
 22 28  1  6  0  0  0
 21 19  1  1  0  0  0
 14 19  1  1  0  0  0
 13 29  1  0  0  0  0
 13 30  1  1  0  0  0
  8 31  1  6  0  0  0
  4 32  1  1  0  0  0
  5 33  1  6  0  0  0
 12 34  1  6  0  0  0
  6 35  1  0  0  0  0
 35 36  1  0  0  0  0
 36 37  1  0  0  0  0
 37 38  1  0  0  0  0
 38  5  1  0  0  0  0
 36 39  1  0  0  0  0
 39 40  1  0  0  0  0
 40 41  1  0  0  0  0
 40 42  1  0  0  0  0
 40 43  1  0  0  0  0
 39 44  1  6  0  0  0
 36 45  1  1  0  0  0
 38 46  1  6  0  0  0
  7 47  1  6  0  0  0
  6 48  1  6  0  0  0
  9 49  1  1  0  0  0
M  END
>  <cdx:fragmentId>
39

$$$$
