40437.cdx
  Mrv1902 05222410282D          

 18 18  0  0  0  0            999 V2000
    5.0735   -8.1425    0.0000 C   0  0  0  0  0  0  0  0  0  0  0  0
    4.3589   -8.5548    0.0000 C   0  0  0  0  0  0  0  0  0  0  0  0
    4.3587   -9.3798    0.0000 C   0  0  0  0  0  0  0  0  0  0  0  0
    5.0730   -9.7925    0.0000 C   0  0  0  0  0  0  0  0  0  0  0  0
    5.7876   -9.3802    0.0000 C   0  0  0  0  0  0  0  0  0  0  0  0
    5.7878   -8.5552    0.0000 C   0  0  0  0  0  0  0  0  0  0  0  0
    3.6445   -8.1421    0.0000 O   0  0  0  0  0  0  0  0  0  0  0  0
    3.6441   -9.7921    0.0000 O   0  0  0  0  0  0  0  0  0  0  0  0
    5.0728  -10.6175    0.0000 O   0  0  0  0  0  0  0  0  0  0  0  0
    3.6447   -7.3171    0.0000 C   0  0  0  0  0  0  0  0  0  0  0  0
    5.7872  -11.0302    0.0000 C   0  0  0  0  0  0  0  0  0  0  0  0
    6.5024   -8.1429    0.0000 C   0  0  0  0  0  0  0  0  0  0  0  0
    7.2168   -8.5555    0.0000 C   0  0  0  0  0  0  0  0  0  0  0  0
    7.9313   -8.1432    0.0000 C   0  0  0  0  0  0  0  0  0  0  0  0
    7.9316   -7.3182    0.0000 O   0  0  0  0  0  0  0  0  0  0  0  0
    8.6457   -8.5559    0.0000 O   0  0  0  0  0  0  0  0  0  0  0  0
    9.3603   -8.1436    0.0000 C   0  0  0  0  0  0  0  0  0  0  0  0
   10.0746   -8.5563    0.0000 C   0  0  0  0  0  0  0  0  0  0  0  0
  1  2  2  0  0  0  0
  2  3  1  0  0  0  0
  3  4  2  0  0  0  0
  4  5  1  0  0  0  0
  5  6  2  0  0  0  0
  6  1  1  0  0  0  0
  2  7  1  0  0  0  0
  3  8  1  0  0  0  0
  4  9  1  0  0  0  0
  7 10  1  0  0  0  0
  9 11  1  0  0  0  0
  6 12  1  0  0  0  0
 12 13  2  0  0  0  0
 13 14  1  0  0  0  0
 14 15  2  0  0  0  0
 14 16  1  0  0  0  0
 16 17  1  0  0  0  0
 17 18  1  0  0  0  0
M  END
>  <cdx:fragmentId>
5

$$$$
