40439.cdx
  Mrv1902 05222410192D          

 71 75  0  0  0  0            999 V2000
    2.6793  -10.6001    0.0000 O   0  0  0  0  0  0  0  0  0  0  0  0
    2.6793  -11.4251    0.0000 C   0  0  0  0  0  0  0  0  0  0  0  0
    3.3938  -11.8376    0.0000 O   0  0  0  0  0  0  0  0  0  0  0  0
    4.1082  -11.4251    0.0000 C   0  0  2  0  0  0  0  0  0  0  0  0
    4.1082  -10.6001    0.0000 C   0  0  1  0  0  0  0  0  0  0  0  0
    3.3938  -10.1876    0.0000 C   0  0  0  0  0  0  0  0  0  0  0  0
    4.8227  -11.8376    0.0000 C   0  0  1  0  0  0  0  0  0  0  0  0
    5.5372  -11.4251    0.0000 C   0  0  2  0  0  0  0  0  0  0  0  0
    5.5372  -10.6001    0.0000 C   0  0  2  0  0  0  0  0  0  0  0  0
    4.8227  -10.1876    0.0000 O   0  0  0  0  0  0  0  0  0  0  0  0
    6.2517  -11.8376    0.0000 O   0  0  0  0  0  0  0  0  0  0  0  0
    6.2517  -10.1876    0.0000 O   0  0  0  0  0  0  0  0  0  0  0  0
    1.9648  -11.8376    0.0000 C   0  0  0  0  0  0  0  0  0  0  0  0
    3.3938   -9.3626    0.0000 O   0  0  0  0  0  0  0  0  0  0  0  0
    2.6793   -8.9501    0.0000 C   0  0  0  0  0  0  0  0  0  0  0  0
    2.6793   -8.1251    0.0000 C   0  0  0  0  0  0  0  0  0  0  0  0
    1.9648   -9.3626    0.0000 O   0  0  0  0  0  0  0  0  0  0  0  0
    6.2517  -12.6626    0.0000 C   0  0  0  0  0  0  0  0  0  0  0  0
    6.9661  -13.0751    0.0000 C   0  0  0  0  0  0  0  0  0  0  0  0
    5.5372  -13.0751    0.0000 O   0  0  0  0  0  0  0  0  0  0  0  0
    6.4652   -9.3908    0.0000 C   0  0  1  0  0  0  0  0  0  0  0  0
    6.9267   -8.7069    0.0000 C   0  0  2  0  0  0  0  0  0  0  0  0
    6.4189   -8.0567    0.0000 C   0  0  1  0  0  0  0  0  0  0  0  0
    5.6436   -8.3387    0.0000 C   0  0  2  0  0  0  0  0  0  0  0  0
    5.6722   -9.1632    0.0000 O   0  0  0  0  0  0  0  0  0  0  0  0
    7.0485   -9.9741    0.0000 C   0  0  0  0  0  0  0  0  0  0  0  0
    7.0485  -10.7991    0.0000 O   0  0  0  0  0  0  0  0  0  0  0  0
    7.7630  -11.2116    0.0000 C   0  0  0  0  0  0  0  0  0  0  0  0
    8.4775  -10.7991    0.0000 C   0  0  0  0  0  0  0  0  0  0  0  0
    9.1920  -11.2116    0.0000 C   0  0  0  0  0  0  0  0  0  0  0  0
    9.9064  -10.7991    0.0000 C   0  0  0  0  0  0  0  0  0  0  0  0
    7.7630  -12.0366    0.0000 O   0  0  0  0  0  0  0  0  0  0  0  0
   10.6209  -11.2116    0.0000 C   0  0  0  0  0  0  0  0  0  0  0  0
   11.3354  -10.7991    0.0000 C   0  0  0  0  0  0  0  0  0  0  0  0
   11.3354   -9.9741    0.0000 C   0  0  0  0  0  0  0  0  0  0  0  0
   10.6209   -9.5616    0.0000 C   0  0  0  0  0  0  0  0  0  0  0  0
    9.9064   -9.9741    0.0000 C   0  0  0  0  0  0  0  0  0  0  0  0
   12.0498   -9.5616    0.0000 O   0  0  0  0  0  0  0  0  0  0  0  0
   12.0498  -11.2116    0.0000 O   0  0  0  0  0  0  0  0  0  0  0  0
   12.7643  -10.7991    0.0000 C   0  0  0  0  0  0  0  0  0  0  0  0
    7.7512   -8.6783    0.0000 O   0  0  0  0  0  0  0  0  0  0  0  0
    6.6464   -7.2637    0.0000 O   0  0  0  0  0  0  0  0  0  0  0  0
    8.1637   -7.9638    0.0000 C   0  0  0  0  0  0  0  0  0  0  0  0
    8.9887   -7.9638    0.0000 C   0  0  0  0  0  0  0  0  0  0  0  0
    9.4012   -7.2493    0.0000 C   0  0  0  0  0  0  0  0  0  0  0  0
   10.2262   -7.2493    0.0000 C   0  0  0  0  0  0  0  0  0  0  0  0
    7.7512   -7.2493    0.0000 O   0  0  0  0  0  0  0  0  0  0  0  0
   10.6387   -7.9638    0.0000 C   0  0  0  0  0  0  0  0  0  0  0  0
   11.4637   -7.9638    0.0000 C   0  0  0  0  0  0  0  0  0  0  0  0
   11.8762   -7.2493    0.0000 C   0  0  0  0  0  0  0  0  0  0  0  0
   11.4637   -6.5349    0.0000 C   0  0  0  0  0  0  0  0  0  0  0  0
   10.6387   -6.5349    0.0000 C   0  0  0  0  0  0  0  0  0  0  0  0
   12.7012   -7.2493    0.0000 O   0  0  0  0  0  0  0  0  0  0  0  0
   11.8762   -8.6783    0.0000 O   0  0  0  0  0  0  0  0  0  0  0  0
   12.7012   -8.6783    0.0000 C   0  0  0  0  0  0  0  0  0  0  0  0
    4.9597   -7.8772    0.0000 C   0  0  0  0  0  0  0  0  0  0  0  0
    4.9597   -7.0522    0.0000 O   0  0  0  0  0  0  0  0  0  0  0  0
    4.2452   -6.6397    0.0000 C   0  0  0  0  0  0  0  0  0  0  0  0
    4.2452   -5.8147    0.0000 C   0  0  0  0  0  0  0  0  0  0  0  0
    3.5308   -7.0522    0.0000 O   0  0  0  0  0  0  0  0  0  0  0  0
    3.5308   -5.4022    0.0000 C   0  0  0  0  0  0  0  0  0  0  0  0
    3.5308   -4.5772    0.0000 C   0  0  0  0  0  0  0  0  0  0  0  0
    4.2452   -4.1647    0.0000 C   0  0  0  0  0  0  0  0  0  0  0  0
    4.2452   -3.3397    0.0000 C   0  0  0  0  0  0  0  0  0  0  0  0
    3.5308   -2.9272    0.0000 C   0  0  0  0  0  0  0  0  0  0  0  0
    2.8163   -3.3397    0.0000 C   0  0  0  0  0  0  0  0  0  0  0  0
    2.8163   -4.1647    0.0000 C   0  0  0  0  0  0  0  0  0  0  0  0
    3.5308   -2.1022    0.0000 O   0  0  0  0  0  0  0  0  0  0  0  0
    4.9597   -2.9272    0.0000 O   0  0  0  0  0  0  0  0  0  0  0  0
    4.9597   -2.1022    0.0000 C   0  0  0  0  0  0  0  0  0  0  0  0
    4.8227  -12.6626    0.0000 O   0  0  0  0  0  0  0  0  0  0  0  0
  1  2  2  0  0  0  0
  2  3  1  0  0  0  0
  4  3  1  6  0  0  0
  4  5  1  0  0  0  0
  5  6  1  1  0  0  0
  4  7  1  0  0  0  0
  7  8  1  0  0  0  0
  8  9  1  0  0  0  0
  9 10  1  0  0  0  0
 10  5  1  0  0  0  0
  8 11  1  6  0  0  0
  9 12  1  6  0  0  0
  2 13  1  0  0  0  0
  6 14  1  0  0  0  0
 14 15  1  0  0  0  0
 15 16  1  0  0  0  0
 15 17  2  0  0  0  0
 11 18  1  0  0  0  0
 18 19  1  0  0  0  0
 18 20  2  0  0  0  0
 21 12  1  6  0  0  0
 21 22  1  0  0  0  0
 22 23  1  0  0  0  0
 23 24  1  0  0  0  0
 24 25  1  0  0  0  0
 25 21  1  0  0  0  0
 21 26  1  1  0  0  0
 26 27  1  0  0  0  0
 27 28  1  0  0  0  0
 28 29  1  0  0  0  0
 29 30  2  0  0  0  0
 30 31  1  0  0  0  0
 28 32  2  0  0  0  0
 31 33  2  0  0  0  0
 33 34  1  0  0  0  0
 34 35  2  0  0  0  0
 35 36  1  0  0  0  0
 36 37  2  0  0  0  0
 37 31  1  0  0  0  0
 35 38  1  0  0  0  0
 34 39  1  0  0  0  0
 39 40  1  0  0  0  0
 22 41  1  6  0  0  0
 23 42  1  1  0  0  0
 41 43  1  0  0  0  0
 43 44  1  0  0  0  0
 44 45  2  0  0  0  0
 45 46  1  0  0  0  0
 43 47  2  0  0  0  0
 46 48  2  0  0  0  0
 48 49  1  0  0  0  0
 49 50  2  0  0  0  0
 50 51  1  0  0  0  0
 51 52  2  0  0  0  0
 52 46  1  0  0  0  0
 50 53  1  0  0  0  0
 49 54  1  0  0  0  0
 54 55  1  0  0  0  0
 24 56  1  6  0  0  0
 56 57  1  0  0  0  0
 57 58  1  0  0  0  0
 58 59  1  0  0  0  0
 58 60  2  0  0  0  0
 59 61  2  0  0  0  0
 61 62  1  0  0  0  0
 62 63  2  0  0  0  0
 63 64  1  0  0  0  0
 64 65  2  0  0  0  0
 65 66  1  0  0  0  0
 66 67  2  0  0  0  0
 67 62  1  0  0  0  0
 65 68  1  0  0  0  0
 64 69  1  0  0  0  0
 69 70  1  0  0  0  0
  7 71  1  1  0  0  0
M  END
>  <cdx:fragmentId>
5

$$$$
