40434.cdx
  Mrv1902 05222410272D          

 26 29  0  0  0  0            999 V2000
    4.9481  -10.1051    0.0000 C   0  0  0  0  0  0  0  0  0  0  0  0
    4.9481  -10.9301    0.0000 C   0  0  0  0  0  0  0  0  0  0  0  0
    5.6625  -11.3426    0.0000 C   0  0  2  0  0  0  0  0  0  0  0  0
    6.3770  -10.9301    0.0000 C   0  0  2  0  0  0  0  0  0  0  0  0
    6.3770  -10.1051    0.0000 C   0  0  1  0  0  0  0  0  0  0  0  0
    5.6625   -9.6926    0.0000 C   0  0  0  0  0  0  0  0  0  0  0  0
    7.0915  -11.3426    0.0000 C   0  0  0  0  0  0  0  0  0  0  0  0
    7.8059  -10.9301    0.0000 C   0  0  0  0  0  0  0  0  0  0  0  0
    7.8059  -10.1051    0.0000 C   0  0  1  0  0  0  0  0  0  0  0  0
    7.0915   -9.6926    0.0000 C   0  0  1  0  0  0  0  0  0  0  0  0
    5.2500  -12.0571    0.0000 C   0  0  0  0  0  0  0  0  0  0  0  0
    4.4250  -12.0571    0.0000 O   0  0  0  0  0  0  0  0  0  0  0  0
    5.6625  -12.7716    0.0000 O   0  0  0  0  0  0  0  0  0  0  0  0
    8.5739   -9.8037    0.0000 C   0  0  0  0  0  0  0  0  0  0  0  0
    8.8171   -9.0154    0.0000 C   0  0  2  0  0  0  0  0  0  0  0  0
    8.3523   -8.3337    0.0000 C   0  0  2  0  0  0  0  0  0  0  0  0
    7.5296   -8.2721    0.0000 C   0  0  0  0  0  0  0  0  0  0  0  0
    6.9685   -8.8769    0.0000 C   0  0  0  0  0  0  0  0  0  0  0  0
    7.7372   -9.1151    0.0000 C   0  0  0  0  0  0  0  0  0  0  0  0
    6.0750  -12.0571    0.0000 C   0  0  0  0  0  0  0  0  0  0  0  0
    6.3770  -11.7551    0.0000 H   0  0  0  0  0  0  0  0  0  0  0  0
    6.5081   -9.1093    0.0000 H   0  0  0  0  0  0  0  0  0  0  0  0
    6.1635   -9.3083    0.0000 C   0  0  0  0  0  0  0  0  0  0  0  0
    8.7648   -7.6193    0.0000 H   0  0  0  0  0  0  0  0  0  0  0  0
    9.6329   -8.8924    0.0000 C   0  0  0  0  0  0  0  0  0  0  0  0
   10.0454   -9.6069    0.0000 O   0  0  0  0  0  0  0  0  0  0  0  0
  1  2  1  0  0  0  0
  2  3  1  0  0  0  0
  3  4  1  0  0  0  0
  4  5  1  0  0  0  0
  5  6  1  0  0  0  0
  6  1  1  0  0  0  0
  4  7  1  0  0  0  0
  7  8  1  0  0  0  0
  9  8  1  6  0  0  0
  9 10  1  0  0  0  0
 10  5  1  0  0  0  0
  3 11  1  0  0  0  0
 11 12  1  0  0  0  0
 11 13  2  0  0  0  0
  9 14  1  0  0  0  0
 14 15  1  0  0  0  0
 15 16  1  0  0  0  0
 16 17  1  0  0  0  0
 17 18  1  0  0  0  0
 18 10  1  0  0  0  0
  9 19  1  0  0  0  0
 19 16  1  0  0  0  0
  3 20  1  1  0  0  0
  4 21  1  1  0  0  0
 10 22  1  1  0  0  0
  5 23  1  6  0  0  0
 16 24  1  6  0  0  0
 15 25  1  6  0  0  0
 25 26  1  0  0  0  0
M  END
>  <cdx:fragmentId>
5

$$$$
