40438.cdx
  Mrv1902 05222410192D          

 34 37  0  0  0  0            999 V2000
    3.9856  -10.8614    0.0000 C   0  0  0  0  0  0  0  0  0  0  0  0
    3.9856  -11.6864    0.0000 C   0  0  0  0  0  0  0  0  0  0  0  0
    4.7000  -12.0989    0.0000 C   0  0  0  0  0  0  0  0  0  0  0  0
    5.4145  -11.6864    0.0000 C   0  0  0  0  0  0  0  0  0  0  0  0
    5.4145  -10.8614    0.0000 C   0  0  2  0  0  0  0  0  0  0  0  0
    4.7000  -10.4489    0.0000 C   0  0  0  0  0  0  0  0  0  0  0  0
    6.1290  -12.0989    0.0000 C   0  0  0  0  0  0  0  0  0  0  0  0
    6.8434  -11.6864    0.0000 C   0  0  0  0  0  0  0  0  0  0  0  0
    6.8434  -10.8614    0.0000 C   0  0  2  0  0  0  0  0  0  0  0  0
    6.1290  -10.4489    0.0000 C   0  0  2  0  0  0  0  0  0  0  0  0
    7.5579  -10.4489    0.0000 C   0  0  1  0  0  0  0  0  0  0  0  0
    7.5579   -9.6239    0.0000 C   0  0  2  0  0  0  0  0  0  0  0  0
    6.8434   -9.2114    0.0000 C   0  0  0  0  0  0  0  0  0  0  0  0
    6.1290   -9.6239    0.0000 C   0  0  0  0  0  0  0  0  0  0  0  0
    8.3425  -10.7038    0.0000 C   0  0  0  0  0  0  0  0  0  0  0  0
    8.8275  -10.0364    0.0000 C   0  0  0  0  0  0  0  0  0  0  0  0
    8.3425   -9.3690    0.0000 C   0  0  2  0  0  0  0  0  0  0  0  0
    3.2711  -12.0989    0.0000 O   0  0  0  0  0  0  0  0  0  0  0  0
    8.5975   -8.5843    0.0000 C   0  0  1  0  0  0  0  0  0  0  0  0
    9.3944   -8.3708    0.0000 C   0  0  0  0  0  0  0  0  0  0  0  0
    9.6079   -7.5739    0.0000 C   0  0  0  0  0  0  0  0  0  0  0  0
   10.4048   -7.3604    0.0000 C   0  0  2  0  0  0  0  0  0  0  0  0
   10.6183   -6.5635    0.0000 C   0  0  0  0  0  0  0  0  0  0  0  0
   10.9881   -7.9438    0.0000 C   0  0  0  0  0  0  0  0  0  0  0  0
   10.0349   -5.9801    0.0000 C   0  0  0  0  0  0  0  0  0  0  0  0
   11.4152   -6.3500    0.0000 C   0  0  0  0  0  0  0  0  0  0  0  0
   11.7850   -7.7302    0.0000 C   0  0  0  0  0  0  0  0  0  0  0  0
    6.1290  -11.2739    0.0000 H   0  0  0  0  0  0  0  0  0  0  0  0
    7.5579  -11.2739    0.0000 H   0  0  0  0  0  0  0  0  0  0  0  0
    9.1394   -9.1554    0.0000 H   0  0  0  0  0  0  0  0  0  0  0  0
    8.0296   -7.9859    0.0000 C   0  0  0  0  0  0  0  0  0  0  0  0
    5.4145  -10.0364    0.0000 C   0  0  0  0  0  0  0  0  0  0  0  0
    6.8434  -10.0364    0.0000 H   0  0  0  0  0  0  0  0  0  0  0  0
    7.5579   -8.7989    0.0000 C   0  0  0  0  0  0  0  0  0  0  0  0
  1  2  1  0  0  0  0
  2  3  1  0  0  0  0
  3  4  1  0  0  0  0
  4  5  1  0  0  0  0
  5  6  1  0  0  0  0
  6  1  1  0  0  0  0
  4  7  2  0  0  0  0
  7  8  1  0  0  0  0
  8  9  1  0  0  0  0
  9 10  1  0  0  0  0
 10  5  1  0  0  0  0
  9 11  1  0  0  0  0
 11 12  1  0  0  0  0
 12 13  1  0  0  0  0
 13 14  1  0  0  0  0
 14 10  1  0  0  0  0
 11 15  1  0  0  0  0
 15 16  1  0  0  0  0
 16 17  1  0  0  0  0
 17 12  1  0  0  0  0
  2 18  2  0  0  0  0
 17 19  1  0  0  0  0
 19 20  1  0  0  0  0
 20 21  1  0  0  0  0
 22 21  1  6  0  0  0
 22 23  1  0  0  0  0
 22 24  1  0  0  0  0
 23 25  1  0  0  0  0
 23 26  1  0  0  0  0
 24 27  1  0  0  0  0
 10 28  1  6  0  0  0
 11 29  1  6  0  0  0
 17 30  1  6  0  0  0
 19 31  1  6  0  0  0
  5 32  1  1  0  0  0
  9 33  1  1  0  0  0
 12 34  1  1  0  0  0
M  END
>  <cdx:fragmentId>
5

$$$$
