40431.cdx
  Mrv1902 05222410262D          

 40 46  0  0  0  0            999 V2000
    9.1983   -5.2251    0.0000 C   0  0  2  0  0  0  0  0  0  0  0  0
    8.4869   -4.8073    0.0000 C   0  0  0  0  0  0  0  0  0  0  0  0
    7.7694   -5.2145    0.0000 C   0  0  0  0  0  0  0  0  0  0  0  0
    7.7632   -6.0394    0.0000 C   0  0  2  0  0  0  0  0  0  0  0  0
    8.4746   -6.4573    0.0000 C   0  0  1  0  0  0  0  0  0  0  0  0
    9.1921   -6.0501    0.0000 C   0  0  1  0  0  0  0  0  0  0  0  0
    7.0457   -6.4466    0.0000 C   0  0  2  0  0  0  0  0  0  0  0  0
    7.0395   -7.2715    0.0000 C   0  0  1  0  0  0  0  0  0  0  0  0
    7.7509   -7.6894    0.0000 C   0  0  0  0  0  0  0  0  0  0  0  0
    8.4684   -7.2822    0.0000 C   0  0  0  0  0  0  0  0  0  0  0  0
    6.3343   -6.0287    0.0000 C   0  0  1  0  0  0  0  0  0  0  0  0
    5.6168   -6.4359    0.0000 C   0  0  0  0  0  0  0  0  0  0  0  0
    5.6106   -7.2609    0.0000 O   0  0  0  0  0  0  0  0  0  0  0  0
    6.3220   -7.6787    0.0000 C   0  0  1  0  0  0  0  0  0  0  0  0
    9.9748   -6.3109    0.0000 C   0  0  1  0  0  0  0  0  0  0  0  0
   10.4647   -5.6471    0.0000 O   0  0  0  0  0  0  0  0  0  0  0  0
    9.9848   -4.9761    0.0000 C   0  0  2  0  0  0  0  0  0  0  0  0
   10.5725   -4.3971    0.0000 C   0  0  0  0  0  0  0  0  0  0  0  0
    9.7637   -4.1813    0.0000 C   0  0  0  0  0  0  0  0  0  0  0  0
    7.0580   -4.7966    0.0000 O   0  0  0  0  0  0  0  0  0  0  0  0
    7.0519   -5.6216    0.0000 O   0  0  0  0  0  0  0  0  0  0  0  0
    7.7711   -6.8644    0.0000 C   0  0  0  0  0  0  0  0  0  0  0  0
    7.0334   -8.0965    0.0000 C   0  0  0  0  0  0  0  0  0  0  0  0
    4.9054   -6.0180    0.0000 O   0  0  0  0  0  0  0  0  0  0  0  0
    6.3158   -8.5037    0.0000 C   0  0  0  0  0  0  0  0  0  0  0  0
    5.6448   -8.9836    0.0000 C   0  0  0  0  0  0  0  0  0  0  0  0
    5.8938   -9.7701    0.0000 O   0  0  0  0  0  0  0  0  0  0  0  0
    6.7188   -9.7763    0.0000 C   0  0  0  0  0  0  0  0  0  0  0  0
    6.9796   -8.9936    0.0000 C   0  0  0  0  0  0  0  0  0  0  0  0
    4.8621   -8.7228    0.0000 O   0  0  0  0  0  0  0  0  0  0  0  0
    7.1987  -10.4473    0.0000 O   0  0  0  0  0  0  0  0  0  0  0  0
    8.4808   -5.6323    0.0000 H   0  0  0  0  0  0  0  0  0  0  0  0
    9.2045   -4.4002    0.0000 H   0  0  0  0  0  0  0  0  0  0  0  0
    8.6625   -6.6275    0.0000 C   0  0  0  0  0  0  0  0  0  0  0  0
    8.7404   -7.4058    0.0000 O   0  0  0  0  0  0  0  0  0  0  0  0
    9.5231   -7.6666    0.0000 C   0  0  0  0  0  0  0  0  0  0  0  0
   10.1403   -7.1191    0.0000 C   0  0  0  0  0  0  0  0  0  0  0  0
    9.6886   -8.4748    0.0000 O   0  0  0  0  0  0  0  0  0  0  0  0
   10.7737   -6.5168    0.0000 H   0  0  0  0  0  0  0  0  0  0  0  0
    6.1132   -5.2339    0.0000 H   0  0  0  0  0  0  0  0  0  0  0  0
  1  2  1  0  0  0  0
  2  3  1  0  0  0  0
  3  4  1  0  0  0  0
  4  5  1  0  0  0  0
  5  6  1  0  0  0  0
  6  1  1  0  0  0  0
  4  7  1  0  0  0  0
  7  8  1  0  0  0  0
  8  9  1  0  0  0  0
  9 10  1  0  0  0  0
 10  5  1  0  0  0  0
  7 11  1  0  0  0  0
 11 12  1  0  0  0  0
 12 13  1  0  0  0  0
 13 14  1  0  0  0  0
 14  8  1  0  0  0  0
  6 15  1  0  0  0  0
 15 16  1  0  0  0  0
 16 17  1  0  0  0  0
 17  1  1  0  0  0  0
 17 18  1  1  0  0  0
 17 19  1  6  0  0  0
  3 20  2  0  0  0  0
  7 21  1  1  0  0  0
 11 21  1  1  0  0  0
  4 22  1  1  0  0  0
  8 23  1  6  0  0  0
 12 24  2  0  0  0  0
 14 25  1  6  0  0  0
 25 26  1  0  0  0  0
 26 27  1  0  0  0  0
 27 28  1  0  0  0  0
 28 29  1  0  0  0  0
 29 25  2  0  0  0  0
 26 30  1  0  0  0  0
 28 31  2  0  0  0  0
  5 32  1  6  0  0  0
  1 33  1  6  0  0  0
  6 34  1  1  0  0  0
 34 35  1  0  0  0  0
 35 36  1  0  0  0  0
 36 37  1  0  0  0  0
 37 15  1  0  0  0  0
 36 38  2  0  0  0  0
 15 39  1  6  0  0  0
 11 40  1  6  0  0  0
M  END
>  <cdx:fragmentId>
5

$$$$
