40435.cdx
  Mrv1902 05222410272D          

 38 43  0  0  0  0            999 V2000
    2.9406   -7.6851    0.0000 C   0  0  0  0  0  0  0  0  0  0  0  0
    2.9406   -8.5101    0.0000 C   0  0  0  0  0  0  0  0  0  0  0  0
    3.6550   -8.9226    0.0000 C   0  0  0  0  0  0  0  0  0  0  0  0
    4.3695   -8.5101    0.0000 C   0  0  0  0  0  0  0  0  0  0  0  0
    4.3695   -7.6851    0.0000 C   0  0  0  0  0  0  0  0  0  0  0  0
    3.6550   -7.2726    0.0000 C   0  0  0  0  0  0  0  0  0  0  0  0
    5.0840   -8.9226    0.0000 O   0  0  0  0  0  0  0  0  0  0  0  0
    5.7984   -8.5101    0.0000 C   0  0  1  0  0  0  0  0  0  0  0  0
    5.7984   -7.6851    0.0000 C   0  0  2  0  0  0  0  0  0  0  0  0
    5.0840   -7.2726    0.0000 C   0  0  0  0  0  0  0  0  0  0  0  0
    5.0840   -6.4476    0.0000 O   0  0  0  0  0  0  0  0  0  0  0  0
    3.6550   -6.4476    0.0000 O   0  0  0  0  0  0  0  0  0  0  0  0
    2.2261   -8.9226    0.0000 O   0  0  0  0  0  0  0  0  0  0  0  0
    6.2109   -9.2246    0.0000 C   0  0  0  0  0  0  0  0  0  0  0  0
    5.5098   -9.6593    0.0000 C   0  0  0  0  0  0  0  0  0  0  0  0
    5.5356  -10.4839    0.0000 C   0  0  1  0  0  0  0  0  0  0  0  0
    6.2627  -10.8738    0.0000 C   0  0  0  0  0  0  0  0  0  0  0  0
    6.9639  -10.4391    0.0000 C   0  0  1  0  0  0  0  0  0  0  0  0
    6.9380   -9.6145    0.0000 C   0  0  2  0  0  0  0  0  0  0  0  0
    7.7561  -10.6693    0.0000 O   0  0  0  0  0  0  0  0  0  0  0  0
    8.2199   -9.9870    0.0000 C   0  0  0  0  0  0  0  0  0  0  0  0
    7.7142   -9.3351    0.0000 C   0  0  2  0  0  0  0  0  0  0  0  0
    6.2886  -11.6984    0.0000 O   0  0  0  0  0  0  0  0  0  0  0  0
    8.5111   -9.5486    0.0000 C   0  0  1  0  0  0  0  0  0  0  0  0
    9.2256   -9.1361    0.0000 C   0  0  0  0  0  0  0  0  0  0  0  0
    9.9401   -9.5486    0.0000 C   0  0  0  0  0  0  0  0  0  0  0  0
   10.6545   -9.1361    0.0000 C   0  0  0  0  0  0  0  0  0  0  0  0
   10.6545   -8.3111    0.0000 C   0  0  0  0  0  0  0  0  0  0  0  0
    9.9401   -7.8986    0.0000 C   0  0  0  0  0  0  0  0  0  0  0  0
    9.2256   -8.3111    0.0000 C   0  0  0  0  0  0  0  0  0  0  0  0
    4.8345  -10.9186    0.0000 H   0  0  0  0  0  0  0  0  0  0  0  0
   11.3690   -7.8986    0.0000 O   0  0  0  0  0  0  0  0  0  0  0  0
   11.3690   -9.5486    0.0000 O   0  0  0  0  0  0  0  0  0  0  0  0
   12.0835   -9.9611    0.0000 C   0  0  0  0  0  0  0  0  0  0  0  0
    6.5129   -7.2726    0.0000 O   0  0  0  0  0  0  0  0  0  0  0  0
    6.9380   -8.7895    0.0000 H   0  0  0  0  0  0  0  0  0  0  0  0
    7.7142   -8.5101    0.0000 H   0  0  0  0  0  0  0  0  0  0  0  0
    6.9639  -11.2641    0.0000 O   0  0  0  0  0  0  0  0  0  0  0  0
  1  2  1  0  0  0  0
  2  3  2  0  0  0  0
  3  4  1  0  0  0  0
  4  5  2  0  0  0  0
  5  6  1  0  0  0  0
  6  1  2  0  0  0  0
  4  7  1  0  0  0  0
  7  8  1  0  0  0  0
  8  9  1  0  0  0  0
  9 10  1  0  0  0  0
 10  5  1  0  0  0  0
 10 11  2  0  0  0  0
 12  6  1  0  0  0  0
  2 13  1  0  0  0  0
  8 14  1  1  0  0  0
 14 15  2  0  0  0  0
 15 16  1  0  0  0  0
 16 17  1  0  0  0  0
 17 18  1  0  0  0  0
 18 19  1  0  0  0  0
 19 14  1  0  0  0  0
 18 20  1  0  0  0  0
 20 21  1  0  0  0  0
 22 19  1  0  0  0  0
 17 23  2  0  0  0  0
 22 24  1  0  0  0  0
 24 16  1  0  0  0  0
 22 21  1  0  0  0  0
 24 25  1  1  0  0  0
 25 26  2  0  0  0  0
 26 27  1  0  0  0  0
 27 28  2  0  0  0  0
 28 29  1  0  0  0  0
 29 30  2  0  0  0  0
 30 25  1  0  0  0  0
 16 31  1  1  0  0  0
 28 32  1  0  0  0  0
 27 33  1  0  0  0  0
  9 35  1  6  0  0  0
 19 36  1  6  0  0  0
 22 37  1  6  0  0  0
 18 38  1  6  0  0  0
 33 34  1  0  0  0  0
M  STY  1   1 SUP
M  SAL   1  2  33  34
M  SBL   1  1  38
M  SMT   1 OCH3
M  SAP   1  1  33  27  1
M  END
>  <cdx:fragmentId>
5

$$$$
