40444.cdx
  Mrv1902 05222410232D          

 36 38  0  0  0  0            999 V2000
    9.6534   -8.9924    0.0000 O   0  0  0  0  0  0  0  0  0  0  0  0
    6.0910   -9.4837    0.0000 O   0  0  0  0  0  0  0  0  0  0  0  0
    7.5070   -7.7600    0.0000 C   0  0  0  0  0  0  0  0  0  0  0  0
    7.5029   -6.9372    0.0000 C   0  0  0  0  0  0  0  0  0  0  0  0
   10.3551   -5.2774    0.0000 O   0  0  0  0  0  0  0  0  0  0  0  0
    9.6420   -5.6924    0.0000 C   0  0  0  0  0  0  0  0  0  0  0  0
    6.8326  -10.7051    0.0000 O   0  0  0  0  0  0  0  0  0  0  0  0
    7.5378  -10.2769    0.0000 C   0  0  2  0  0  0  0  0  0  0  0  0
    7.5196   -9.4521    0.0000 C   0  0  1  0  0  0  0  0  0  0  0  0
    6.7962   -9.0555    0.0000 C   0  0  0  0  0  0  0  0  0  0  0  0
    8.9261   -5.2823    0.0000 O   0  0  0  0  0  0  0  0  0  0  0  0
    8.2159   -6.5223    0.0000 C   0  0  0  0  0  0  0  0  0  0  0  0
    8.2216   -8.1723    0.0000 C   0  0  0  0  0  0  0  0  0  0  0  0
   10.3607   -6.9274    0.0000 C   0  0  0  0  0  0  0  0  0  0  0  0
    9.6449   -6.5174    0.0000 C   0  0  0  0  0  0  0  0  0  0  0  0
    8.9318   -6.9323    0.0000 C   0  0  2  0  0  0  0  0  0  0  0  0
    8.9346   -7.7573    0.0000 C   0  0  2  0  0  0  0  0  0  0  0  0
   10.3636   -7.7524    0.0000 O   0  0  0  0  0  0  0  0  0  0  0  0
    9.6505   -8.1674    0.0000 C   0  0  1  0  0  0  0  0  0  0  0  0
    8.2612  -10.6735    0.0000 C   0  0  1  0  0  0  0  0  0  0  0  0
    8.9664  -10.2454    0.0000 C   0  0  2  0  0  0  0  0  0  0  0  0
    8.9482   -9.4206    0.0000 C   0  0  1  0  0  0  0  0  0  0  0  0
    8.2248   -9.0239    0.0000 O   0  0  0  0  0  0  0  0  0  0  0  0
    8.2795  -11.4983    0.0000 O   0  0  0  0  0  0  0  0  0  0  0  0
    9.6898  -10.6420    0.0000 O   0  0  0  0  0  0  0  0  0  0  0  0
    6.7870   -6.5272    0.0000 C   0  0  0  0  0  0  0  0  0  0  0  0
    6.7827   -5.7022    0.0000 C   0  0  0  0  0  0  0  0  0  0  0  0
    6.0661   -5.2934    0.0000 C   0  0  0  0  0  0  0  0  0  0  0  0
    5.3538   -5.7022    0.0000 C   0  0  0  0  0  0  0  0  0  0  0  0
    5.3538   -6.5272    0.0000 N   0  3  0  0  0  0  0  0  0  0  0  0
    6.0661   -6.9360    0.0000 C   0  0  0  0  0  0  0  0  0  0  0  0
    6.0651   -4.4684    0.0000 C   0  0  0  0  0  0  0  0  0  0  0  0
    6.7790   -4.0550    0.0000 O   0  0  0  0  0  0  0  0  0  0  0  0
    5.3501   -4.0568    0.0000 O   0  5  0  0  0  0  0  0  0  0  0  0
    4.6399   -6.9406    0.0000 C   0  0  0  0  0  0  0  0  0  0  0  0
    3.9249   -6.5290    0.0000 C   0  0  0  0  0  0  0  0  0  0  0  0
 13  3  2  0  0  0  0
  6 15  1  0  0  0  0
  5  6  2  0  0  0  0
 11  6  1  0  0  0  0
 16 12  1  6  0  0  0
  4 12  2  0  0  0  0
 17 13  1  6  0  0  0
 14 18  1  0  0  0  0
 15 14  2  0  0  0  0
 16 15  1  0  0  0  0
 17 16  1  0  0  0  0
 19 17  1  0  0  0  0
 19 18  1  0  0  0  0
 19  1  1  1  0  0  0
  8  7  1  6  0  0  0
  8  9  1  0  0  0  0
  9 10  1  1  0  0  0
 10  2  1  0  0  0  0
  8 20  1  0  0  0  0
 20 21  1  0  0  0  0
 21 22  1  0  0  0  0
 22 23  1  0  0  0  0
 23  9  1  0  0  0  0
 22  1  1  1  0  0  0
 20 24  1  1  0  0  0
 21 25  1  6  0  0  0
  4 26  1  0  0  0  0
 26 27  2  0  0  0  0
 27 28  1  0  0  0  0
 28 29  2  0  0  0  0
 29 30  1  0  0  0  0
 30 31  2  0  0  0  0
 31 26  1  0  0  0  0
 28 32  1  0  0  0  0
 32 33  2  0  0  0  0
 32 34  1  0  0  0  0
 30 35  1  0  0  0  0
 35 36  1  0  0  0  0
M  CHG  2  30   1  34  -1
M  END
>  <cdx:fragmentId>
5

$$$$
