40442.cdx
  Mrv1902 05222410252D          

 40 42  0  0  0  0            999 V2000
   10.6434   -8.6624    0.0000 O   0  0  0  0  0  0  0  0  0  0  0  0
    7.0810   -9.1537    0.0000 O   0  0  0  0  0  0  0  0  0  0  0  0
    8.4970   -7.4300    0.0000 C   0  0  0  0  0  0  0  0  0  0  0  0
    8.4929   -6.6072    0.0000 C   0  0  0  0  0  0  0  0  0  0  0  0
   11.3451   -4.9474    0.0000 O   0  0  0  0  0  0  0  0  0  0  0  0
   10.6320   -5.3624    0.0000 C   0  0  0  0  0  0  0  0  0  0  0  0
    7.8226  -10.3751    0.0000 O   0  0  0  0  0  0  0  0  0  0  0  0
    8.5278   -9.9469    0.0000 C   0  0  2  0  0  0  0  0  0  0  0  0
    8.5096   -9.1221    0.0000 C   0  0  1  0  0  0  0  0  0  0  0  0
    7.7862   -8.7255    0.0000 C   0  0  0  0  0  0  0  0  0  0  0  0
    9.9161   -4.9523    0.0000 O   0  0  0  0  0  0  0  0  0  0  0  0
    9.2059   -6.1923    0.0000 C   0  0  0  0  0  0  0  0  0  0  0  0
    9.2116   -7.8423    0.0000 C   0  0  0  0  0  0  0  0  0  0  0  0
   11.3507   -6.5974    0.0000 C   0  0  0  0  0  0  0  0  0  0  0  0
   10.6349   -6.1874    0.0000 C   0  0  0  0  0  0  0  0  0  0  0  0
    9.9218   -6.6023    0.0000 C   0  0  2  0  0  0  0  0  0  0  0  0
    9.9246   -7.4273    0.0000 C   0  0  2  0  0  0  0  0  0  0  0  0
   11.3536   -7.4224    0.0000 O   0  0  0  0  0  0  0  0  0  0  0  0
   10.6405   -7.8374    0.0000 C   0  0  1  0  0  0  0  0  0  0  0  0
    9.2512  -10.3435    0.0000 C   0  0  1  0  0  0  0  0  0  0  0  0
    9.9564   -9.9154    0.0000 C   0  0  2  0  0  0  0  0  0  0  0  0
    9.9382   -9.0906    0.0000 C   0  0  1  0  0  0  0  0  0  0  0  0
    9.2148   -8.6939    0.0000 O   0  0  0  0  0  0  0  0  0  0  0  0
    9.2695  -11.1683    0.0000 O   0  0  0  0  0  0  0  0  0  0  0  0
   10.6798  -10.3120    0.0000 O   0  0  0  0  0  0  0  0  0  0  0  0
    7.7770   -6.1972    0.0000 C   0  0  0  0  0  0  0  0  0  0  0  0
    7.7727   -5.3722    0.0000 C   0  0  0  0  0  0  0  0  0  0  0  0
    7.0561   -4.9634    0.0000 C   0  0  0  0  0  0  0  0  0  0  0  0
    6.3438   -5.3722    0.0000 C   0  0  0  0  0  0  0  0  0  0  0  0
    6.3438   -6.1972    0.0000 N   0  3  0  0  0  0  0  0  0  0  0  0
    7.0561   -6.6060    0.0000 C   0  0  0  0  0  0  0  0  0  0  0  0
    7.0551   -4.1384    0.0000 C   0  0  0  0  0  0  0  0  0  0  0  0
    7.7690   -3.7250    0.0000 O   0  0  0  0  0  0  0  0  0  0  0  0
    6.3401   -3.7268    0.0000 O   0  5  0  0  0  0  0  0  0  0  0  0
    5.6299   -6.6106    0.0000 C   0  0  0  0  0  0  0  0  0  0  0  0
    4.9149   -6.1990    0.0000 C   0  0  0  0  0  0  0  0  0  0  0  0
    4.2009   -6.6125    0.0000 C   0  0  0  0  0  0  0  0  0  0  0  0
    3.4859   -6.2009    0.0000 C   0  0  0  0  0  0  0  0  0  0  0  0
    2.7720   -6.6143    0.0000 O   0  0  0  0  0  0  0  0  0  0  0  0
    3.4849   -5.3759    0.0000 O   0  0  0  0  0  0  0  0  0  0  0  0
 13  3  2  0  0  0  0
  6 15  1  0  0  0  0
  5  6  2  0  0  0  0
 11  6  1  0  0  0  0
 16 12  1  6  0  0  0
  4 12  2  0  0  0  0
 17 13  1  6  0  0  0
 14 18  1  0  0  0  0
 15 14  2  0  0  0  0
 16 15  1  0  0  0  0
 17 16  1  0  0  0  0
 19 17  1  0  0  0  0
 19 18  1  0  0  0  0
 19  1  1  1  0  0  0
  8  7  1  6  0  0  0
  8  9  1  0  0  0  0
  9 10  1  1  0  0  0
 10  2  1  0  0  0  0
  8 20  1  0  0  0  0
 20 21  1  0  0  0  0
 21 22  1  0  0  0  0
 22 23  1  0  0  0  0
 23  9  1  0  0  0  0
 22  1  1  1  0  0  0
 20 24  1  1  0  0  0
 21 25  1  6  0  0  0
  4 26  1  0  0  0  0
 26 27  2  0  0  0  0
 27 28  1  0  0  0  0
 28 29  2  0  0  0  0
 29 30  1  0  0  0  0
 30 31  2  0  0  0  0
 31 26  1  0  0  0  0
 28 32  1  0  0  0  0
 32 33  2  0  0  0  0
 32 34  1  0  0  0  0
 30 35  1  0  0  0  0
 35 36  1  0  0  0  0
 36 37  1  0  0  0  0
 37 38  1  0  0  0  0
 38 39  1  0  0  0  0
 38 40  2  0  0  0  0
M  CHG  2  30   1  34  -1
M  END
>  <cdx:fragmentId>
5

$$$$
