40458.cdx
  Mrv1902 05222410202D          

 34 37  0  0  0  0            999 V2000
    4.1643   -9.4314    0.0000 C   0  0  0  0  0  0  0  0  0  0  0  0
    4.1643  -10.2564    0.0000 C   0  0  0  0  0  0  0  0  0  0  0  0
    4.8788  -10.6689    0.0000 C   0  0  0  0  0  0  0  0  0  0  0  0
    5.5932  -10.2564    0.0000 C   0  0  0  0  0  0  0  0  0  0  0  0
    5.5932   -9.4314    0.0000 C   0  0  2  0  0  0  0  0  0  0  0  0
    4.8788   -9.0189    0.0000 C   0  0  0  0  0  0  0  0  0  0  0  0
    6.3077  -10.6689    0.0000 C   0  0  0  0  0  0  0  0  0  0  0  0
    7.0222  -10.2564    0.0000 C   0  0  0  0  0  0  0  0  0  0  0  0
    7.0222   -9.4314    0.0000 C   0  0  2  0  0  0  0  0  0  0  0  0
    6.3077   -9.0189    0.0000 C   0  0  2  0  0  0  0  0  0  0  0  0
    7.7367   -9.0189    0.0000 C   0  0  1  0  0  0  0  0  0  0  0  0
    7.7367   -8.1939    0.0000 C   0  0  2  0  0  0  0  0  0  0  0  0
    7.0222   -7.7814    0.0000 C   0  0  0  0  0  0  0  0  0  0  0  0
    6.3077   -8.1939    0.0000 C   0  0  0  0  0  0  0  0  0  0  0  0
    8.5213   -9.2738    0.0000 C   0  0  0  0  0  0  0  0  0  0  0  0
    9.0062   -8.6064    0.0000 C   0  0  0  0  0  0  0  0  0  0  0  0
    8.5213   -7.9390    0.0000 C   0  0  2  0  0  0  0  0  0  0  0  0
    5.5932   -8.6064    0.0000 C   0  0  0  0  0  0  0  0  0  0  0  0
    7.7367   -7.3689    0.0000 C   0  0  0  0  0  0  0  0  0  0  0  0
    8.7762   -7.1543    0.0000 C   0  0  2  0  0  0  0  0  0  0  0  0
    8.2242   -6.5412    0.0000 C   0  0  0  0  0  0  0  0  0  0  0  0
    9.5832   -6.9828    0.0000 C   0  0  0  0  0  0  0  0  0  0  0  0
    9.7967   -6.1859    0.0000 C   0  0  0  0  0  0  0  0  0  0  0  0
   10.5936   -5.9724    0.0000 C   0  0  0  0  0  0  0  0  0  0  0  0
   10.8071   -5.1755    0.0000 C   0  0  0  0  0  0  0  0  0  0  0  0
   11.1770   -6.5558    0.0000 C   0  0  0  0  0  0  0  0  0  0  0  0
   10.2238   -4.5921    0.0000 C   0  0  0  0  0  0  0  0  0  0  0  0
   11.6040   -4.9620    0.0000 C   0  0  0  0  0  0  0  0  0  0  0  0
   11.9739   -6.3422    0.0000 C   0  0  0  0  0  0  0  0  0  0  0  0
    6.3077   -9.8439    0.0000 H   0  0  0  0  0  0  0  0  0  0  0  0
    7.7367   -9.8439    0.0000 H   0  0  0  0  0  0  0  0  0  0  0  0
    9.3182   -7.7254    0.0000 H   0  0  0  0  0  0  0  0  0  0  0  0
    7.0222   -8.6064    0.0000 H   0  0  0  0  0  0  0  0  0  0  0  0
   12.5572   -6.9256    0.0000 O   0  0  0  0  0  0  0  0  0  0  0  0
  1  2  1  0  0  0  0
  2  3  1  0  0  0  0
  3  4  1  0  0  0  0
  4  5  1  0  0  0  0
  5  6  1  0  0  0  0
  6  1  1  0  0  0  0
  4  7  1  0  0  0  0
  7  8  1  0  0  0  0
  8  9  1  0  0  0  0
  9 10  1  0  0  0  0
 10  5  1  0  0  0  0
  9 11  1  0  0  0  0
 11 12  1  0  0  0  0
 12 13  1  0  0  0  0
 13 14  1  0  0  0  0
 14 10  1  0  0  0  0
 11 15  1  0  0  0  0
 15 16  1  0  0  0  0
 16 17  1  0  0  0  0
 17 12  1  0  0  0  0
  5 18  1  1  0  0  0
 12 19  1  1  0  0  0
 17 20  1  0  0  0  0
 20 21  1  6  0  0  0
 20 22  1  0  0  0  0
 22 23  1  0  0  0  0
 23 24  2  0  0  0  0
 24 25  1  0  0  0  0
 24 26  1  0  0  0  0
 25 27  1  0  0  0  0
 25 28  1  0  0  0  0
 26 29  2  0  0  0  0
 10 30  1  6  0  0  0
 11 31  1  6  0  0  0
 17 32  1  6  0  0  0
  9 33  1  1  0  0  0
 29 34  1  0  0  0  0
M  END
>  <cdx:fragmentId>
5

$$$$
