40460.cdx
  Mrv1902 05222410232D          

 34 37  0  0  0  0            999 V2000
    3.7518   -9.7201    0.0000 C   0  0  0  0  0  0  0  0  0  0  0  0
    3.7518  -10.5451    0.0000 C   0  0  0  0  0  0  0  0  0  0  0  0
    4.4663  -10.9576    0.0000 C   0  0  0  0  0  0  0  0  0  0  0  0
    5.1807  -10.5451    0.0000 C   0  0  0  0  0  0  0  0  0  0  0  0
    5.1807   -9.7201    0.0000 C   0  0  2  0  0  0  0  0  0  0  0  0
    4.4663   -9.3076    0.0000 C   0  0  0  0  0  0  0  0  0  0  0  0
    5.8952  -10.9576    0.0000 C   0  0  0  0  0  0  0  0  0  0  0  0
    6.6097  -10.5451    0.0000 C   0  0  0  0  0  0  0  0  0  0  0  0
    6.6097   -9.7201    0.0000 C   0  0  2  0  0  0  0  0  0  0  0  0
    5.8952   -9.3076    0.0000 C   0  0  2  0  0  0  0  0  0  0  0  0
    7.3242   -9.3076    0.0000 C   0  0  1  0  0  0  0  0  0  0  0  0
    7.3242   -8.4826    0.0000 C   0  0  2  0  0  0  0  0  0  0  0  0
    6.6097   -8.0701    0.0000 C   0  0  0  0  0  0  0  0  0  0  0  0
    5.8952   -8.4826    0.0000 C   0  0  0  0  0  0  0  0  0  0  0  0
    8.1088   -9.5626    0.0000 C   0  0  0  0  0  0  0  0  0  0  0  0
    8.5937   -8.8951    0.0000 C   0  0  0  0  0  0  0  0  0  0  0  0
    8.1088   -8.2277    0.0000 C   0  0  2  0  0  0  0  0  0  0  0  0
    5.1807   -8.8951    0.0000 C   0  0  0  0  0  0  0  0  0  0  0  0
    7.3242   -7.6576    0.0000 C   0  0  0  0  0  0  0  0  0  0  0  0
    8.3637   -7.4431    0.0000 C   0  0  1  0  0  0  0  0  0  0  0  0
    9.1707   -7.2716    0.0000 C   0  0  0  0  0  0  0  0  0  0  0  0
    7.8117   -6.8300    0.0000 C   0  0  0  0  0  0  0  0  0  0  0  0
    9.3842   -6.4747    0.0000 C   0  0  0  0  0  0  0  0  0  0  0  0
   10.1811   -6.2611    0.0000 C   0  0  1  0  0  0  0  0  0  0  0  0
   10.7645   -6.8445    0.0000 C   0  0  0  0  0  0  0  0  0  0  0  0
   10.3946   -5.4643    0.0000 C   0  0  0  0  0  0  0  0  0  0  0  0
   11.1915   -5.2507    0.0000 C   0  0  0  0  0  0  0  0  0  0  0  0
    9.8113   -4.8809    0.0000 C   0  0  0  0  0  0  0  0  0  0  0  0
    5.8952  -10.1326    0.0000 H   0  0  0  0  0  0  0  0  0  0  0  0
    8.9057   -8.0142    0.0000 H   0  0  0  0  0  0  0  0  0  0  0  0
   11.5614   -6.6310    0.0000 C   0  0  0  0  0  0  0  0  0  0  0  0
    6.6097   -8.8951    0.0000 H   0  0  0  0  0  0  0  0  0  0  0  0
    7.3242  -10.1326    0.0000 H   0  0  0  0  0  0  0  0  0  0  0  0
   12.1447   -7.2143    0.0000 O   0  0  0  0  0  0  0  0  0  0  0  0
  1  2  1  0  0  0  0
  2  3  1  0  0  0  0
  3  4  1  0  0  0  0
  4  5  1  0  0  0  0
  5  6  1  0  0  0  0
  6  1  1  0  0  0  0
  4  7  1  0  0  0  0
  7  8  1  0  0  0  0
  8  9  1  0  0  0  0
  9 10  1  0  0  0  0
 10  5  1  0  0  0  0
  9 11  1  0  0  0  0
 11 12  1  0  0  0  0
 12 13  1  0  0  0  0
 13 14  1  0  0  0  0
 14 10  1  0  0  0  0
 11 15  1  0  0  0  0
 15 16  1  0  0  0  0
 16 17  1  0  0  0  0
 17 12  1  0  0  0  0
  5 18  1  1  0  0  0
 12 19  1  1  0  0  0
 17 20  1  0  0  0  0
 20 21  1  0  0  0  0
 20 22  1  6  0  0  0
 21 23  1  0  0  0  0
 24 23  1  6  0  0  0
 24 25  1  0  0  0  0
 24 26  1  0  0  0  0
 26 27  1  0  0  0  0
 26 28  1  0  0  0  0
 10 29  1  6  0  0  0
 17 30  1  6  0  0  0
 25 31  2  0  0  0  0
  9 32  1  1  0  0  0
 11 33  1  6  0  0  0
 31 34  1  0  0  0  0
M  END
>  <cdx:fragmentId>
5

$$$$
