40469.cdx
  Mrv1902 05222410252D          

 47 51  0  0  0  0            999 V2000
    4.6043   -7.1901    0.0000 C   0  0  0  0  0  0  0  0  0  0  0  0
    4.6043   -8.0151    0.0000 C   0  0  0  0  0  0  0  0  0  0  0  0
    5.3188   -8.4276    0.0000 C   0  0  0  0  0  0  0  0  0  0  0  0
    6.0332   -8.0151    0.0000 C   0  0  0  0  0  0  0  0  0  0  0  0
    6.0332   -7.1901    0.0000 C   0  0  0  0  0  0  0  0  0  0  0  0
    5.3188   -6.7776    0.0000 C   0  0  0  0  0  0  0  0  0  0  0  0
    6.7477   -8.4276    0.0000 C   0  0  0  0  0  0  0  0  0  0  0  0
    7.4622   -8.0151    0.0000 C   0  0  0  0  0  0  0  0  0  0  0  0
    7.4622   -7.1901    0.0000 C   0  0  0  0  0  0  0  0  0  0  0  0
    6.7477   -6.7776    0.0000 O   0  0  0  0  0  0  0  0  0  0  0  0
    5.3188   -9.2526    0.0000 O   0  0  0  0  0  0  0  0  0  0  0  0
    6.7477   -9.2526    0.0000 O   0  0  0  0  0  0  0  0  0  0  0  0
    8.1767   -8.4276    0.0000 O   0  0  0  0  0  0  0  0  0  0  0  0
    8.8911   -7.1901    0.0000 C   0  0  0  0  0  0  0  0  0  0  0  0
    8.1767   -6.7776    0.0000 C   0  0  0  0  0  0  0  0  0  0  0  0
    9.6056   -6.7776    0.0000 C   0  0  0  0  0  0  0  0  0  0  0  0
    9.6056   -5.9526    0.0000 C   0  0  0  0  0  0  0  0  0  0  0  0
    8.8911   -5.5401    0.0000 C   0  0  0  0  0  0  0  0  0  0  0  0
    8.1767   -5.9526    0.0000 C   0  0  0  0  0  0  0  0  0  0  0  0
    7.4622   -9.6651    0.0000 O   0  0  0  0  0  0  0  0  0  0  0  0
    8.1767   -9.2526    0.0000 C   0  0  2  0  0  0  0  0  0  0  0  0
    7.4622  -10.4901    0.0000 C   0  0  1  0  0  0  0  0  0  0  0  0
    8.1767  -10.9026    0.0000 C   0  0  2  0  0  0  0  0  0  0  0  0
    8.8911  -10.4901    0.0000 C   0  0  1  0  0  0  0  0  0  0  0  0
    8.8911   -9.6651    0.0000 C   0  0  1  0  0  0  0  0  0  0  0  0
    6.7477  -10.9026    0.0000 C   0  0  0  0  0  0  0  0  0  0  0  0
    6.7477  -11.7276    0.0000 O   0  0  0  0  0  0  0  0  0  0  0  0
    8.1767  -11.7276    0.0000 O   0  0  0  0  0  0  0  0  0  0  0  0
    5.3188  -11.7276    0.0000 O   0  0  0  0  0  0  0  0  0  0  0  0
    6.0332  -12.1401    0.0000 C   0  0  2  0  0  0  0  0  0  0  0  0
    4.6043  -12.1401    0.0000 C   0  0  2  0  0  0  0  0  0  0  0  0
    4.6043  -12.9651    0.0000 C   0  0  1  0  0  0  0  0  0  0  0  0
    5.3188  -13.3776    0.0000 C   0  0  2  0  0  0  0  0  0  0  0  0
    6.0332  -12.9651    0.0000 C   0  0  1  0  0  0  0  0  0  0  0  0
    3.8898   -6.7776    0.0000 O   0  0  0  0  0  0  0  0  0  0  0  0
    3.1754   -7.1901    0.0000 C   0  0  0  0  0  0  0  0  0  0  0  0
    8.8911   -4.7151    0.0000 O   0  0  0  0  0  0  0  0  0  0  0  0
    8.1767   -4.3026    0.0000 C   0  0  0  0  0  0  0  0  0  0  0  0
   10.3201   -5.5401    0.0000 O   0  0  0  0  0  0  0  0  0  0  0  0
   10.3201   -7.1901    0.0000 O   0  0  0  0  0  0  0  0  0  0  0  0
   10.3201   -8.0151    0.0000 C   0  0  0  0  0  0  0  0  0  0  0  0
    9.6056  -10.9026    0.0000 O   0  0  0  0  0  0  0  0  0  0  0  0
    3.8898  -13.3776    0.0000 O   0  0  0  0  0  0  0  0  0  0  0  0
    3.8898  -11.7276    0.0000 C   0  0  0  0  0  0  0  0  0  0  0  0
    5.3188  -14.2026    0.0000 O   0  0  0  0  0  0  0  0  0  0  0  0
    6.7477  -13.3776    0.0000 O   0  0  0  0  0  0  0  0  0  0  0  0
    9.6056   -9.2526    0.0000 O   0  0  0  0  0  0  0  0  0  0  0  0
  1  2  2  0  0  0  0
  2  3  1  0  0  0  0
  3  4  2  0  0  0  0
  4  5  1  0  0  0  0
  5  6  2  0  0  0  0
  6  1  1  0  0  0  0
  4  7  1  0  0  0  0
  7  8  1  0  0  0  0
  8  9  2  0  0  0  0
  9 10  1  0  0  0  0
 10  5  1  0  0  0  0
  3 11  1  0  0  0  0
 12  7  2  0  0  0  0
  8 13  1  0  0  0  0
 14 15  1  0  0  0  0
 15  9  1  0  0  0  0
 14 16  2  0  0  0  0
 16 17  1  0  0  0  0
 17 18  2  0  0  0  0
 18 19  1  0  0  0  0
 19 15  2  0  0  0  0
 20 21  1  0  0  0  0
 21 13  1  1  0  0  0
 20 22  1  0  0  0  0
 22 23  1  0  0  0  0
 23 24  1  0  0  0  0
 24 25  1  0  0  0  0
 25 21  1  0  0  0  0
 22 26  1  1  0  0  0
 26 27  1  0  0  0  0
 23 28  1  6  0  0  0
 29 30  1  0  0  0  0
 30 27  1  1  0  0  0
 29 31  1  0  0  0  0
 31 32  1  0  0  0  0
 32 33  1  0  0  0  0
 33 34  1  0  0  0  0
 34 30  1  0  0  0  0
  1 35  1  0  0  0  0
 35 36  1  0  0  0  0
 18 37  1  0  0  0  0
 37 38  1  0  0  0  0
 17 39  1  0  0  0  0
 16 40  1  0  0  0  0
 40 41  1  0  0  0  0
 24 42  1  1  0  0  0
 32 43  1  1  0  0  0
 31 44  1  6  0  0  0
 33 45  1  6  0  0  0
 34 46  1  6  0  0  0
 25 47  1  6  0  0  0
M  END
>  <cdx:fragmentId>
5

$$$$
