40468.cdx
  Mrv1902 05222410252D          

 43 46  0  0  0  0            999 V2000
    1.8818   -8.5376    0.0000 C   0  0  0  0  0  0  0  0  0  0  0  0
    1.8818   -9.3626    0.0000 C   0  0  0  0  0  0  0  0  0  0  0  0
    2.5963   -9.7751    0.0000 C   0  0  0  0  0  0  0  0  0  0  0  0
    3.3107   -9.3626    0.0000 C   0  0  0  0  0  0  0  0  0  0  0  0
    3.3107   -8.5376    0.0000 C   0  0  0  0  0  0  0  0  0  0  0  0
    2.5963   -8.1251    0.0000 C   0  0  0  0  0  0  0  0  0  0  0  0
    4.7397   -8.5376    0.0000 C   0  0  0  0  0  0  0  0  0  0  0  0
    4.0252   -8.1251    0.0000 C   0  0  0  0  0  0  0  0  0  0  0  0
    5.4542   -8.1251    0.0000 C   0  0  0  0  0  0  0  0  0  0  0  0
    5.4542   -7.3001    0.0000 O   0  0  0  0  0  0  0  0  0  0  0  0
    6.1686   -8.5376    0.0000 O   0  0  0  0  0  0  0  0  0  0  0  0
    6.8831   -8.1251    0.0000 C   0  0  2  0  0  0  0  0  0  0  0  0
    6.8831   -7.3001    0.0000 C   0  0  1  0  0  0  0  0  0  0  0  0
    6.1686   -6.8876    0.0000 C   0  0  0  0  0  0  0  0  0  0  0  0
    7.5976   -8.5376    0.0000 C   0  0  1  0  0  0  0  0  0  0  0  0
    8.3120   -8.1251    0.0000 C   0  0  2  0  0  0  0  0  0  0  0  0
    8.3120   -7.3001    0.0000 C   0  0  1  0  0  0  0  0  0  0  0  0
    7.5976   -6.8876    0.0000 O   0  0  0  0  0  0  0  0  0  0  0  0
    4.7397  -11.0126    0.0000 O   0  0  0  0  0  0  0  0  0  0  0  0
    9.0265   -8.5376    0.0000 O   0  0  0  0  0  0  0  0  0  0  0  0
    4.7397   -9.3626    0.0000 C   0  0  0  0  0  0  0  0  0  0  0  0
    6.1686  -11.8376    0.0000 O   0  0  0  0  0  0  0  0  0  0  0  0
    7.5976  -11.0126    0.0000 O   0  0  0  0  0  0  0  0  0  0  0  0
    5.4542   -9.7751    0.0000 C   0  0  1  0  0  0  0  0  0  0  0  0
   13.3133   -8.5376    0.0000 O   0  0  0  0  0  0  0  0  0  0  0  0
   11.8844   -8.5376    0.0000 C   0  0  0  0  0  0  0  0  0  0  0  0
   12.5989   -8.1251    0.0000 C   0  0  0  0  0  0  0  0  0  0  0  0
   12.5989   -7.3001    0.0000 C   0  0  0  0  0  0  0  0  0  0  0  0
   11.8844   -6.8876    0.0000 C   0  0  0  0  0  0  0  0  0  0  0  0
   11.1699   -8.1251    0.0000 C   0  0  0  0  0  0  0  0  0  0  0  0
   11.1699   -7.3001    0.0000 C   0  0  0  0  0  0  0  0  0  0  0  0
   10.4555   -6.8876    0.0000 C   0  0  0  0  0  0  0  0  0  0  0  0
    1.1673   -8.1251    0.0000 O   0  0  0  0  0  0  0  0  0  0  0  0
    1.1673   -9.7751    0.0000 O   0  0  0  0  0  0  0  0  0  0  0  0
    6.1686   -6.0626    0.0000 O   0  0  0  0  0  0  0  0  0  0  0  0
    9.7410   -7.3001    0.0000 C   0  0  0  0  0  0  0  0  0  0  0  0
    9.0265   -6.8876    0.0000 O   0  0  0  0  0  0  0  0  0  0  0  0
    5.4542  -10.6001    0.0000 C   0  0  1  0  0  0  0  0  0  0  0  0
    6.1686  -11.0126    0.0000 C   0  0  2  0  0  0  0  0  0  0  0  0
    6.8831  -10.6001    0.0000 C   0  0  2  0  0  0  0  0  0  0  0  0
    6.1686   -9.3626    0.0000 O   0  0  0  0  0  0  0  0  0  0  0  0
    6.8831   -9.7751    0.0000 C   0  0  1  0  0  0  0  0  0  0  0  0
    7.5976   -9.3626    0.0000 O   0  0  0  0  0  0  0  0  0  0  0  0
  1  2  2  0  0  0  0
  2  3  1  0  0  0  0
  3  4  2  0  0  0  0
  4  5  1  0  0  0  0
  5  6  2  0  0  0  0
  6  1  1  0  0  0  0
  7  8  2  0  0  0  0
  8  5  1  0  0  0  0
  7  9  1  0  0  0  0
  9 10  2  0  0  0  0
  9 11  1  0  0  0  0
 12 11  1  6  0  0  0
 12 13  1  0  0  0  0
 13 14  1  1  0  0  0
 12 15  1  0  0  0  0
 15 16  1  0  0  0  0
 16 17  1  0  0  0  0
 17 18  1  0  0  0  0
 18 13  1  0  0  0  0
 38 19  1  1  0  0  0
 24 21  1  6  0  0  0
 15 43  1  1  0  0  0
 39 22  1  6  0  0  0
 16 20  1  6  0  0  0
 40 23  1  6  0  0  0
 24 41  1  0  0  0  0
 38 24  1  0  0  0  0
 39 38  1  0  0  0  0
 40 39  1  0  0  0  0
 42 40  1  0  0  0  0
 27 25  1  0  0  0  0
 17 37  1  1  0  0  0
 26 30  2  0  0  0  0
 27 26  1  0  0  0  0
 28 27  2  0  0  0  0
 29 28  1  0  0  0  0
 31 29  2  0  0  0  0
 31 30  1  0  0  0  0
 32 31  1  0  0  0  0
 36 32  1  0  0  0  0
 37 36  1  0  0  0  0
  1 33  1  0  0  0  0
  2 34  1  0  0  0  0
 14 35  1  0  0  0  0
 42 41  1  0  0  0  0
 42 43  1  1  0  0  0
M  END
>  <cdx:fragmentId>
5

$$$$
