40462.cdx
  Mrv1902 05222410222D          

 37 41  0  0  0  0            999 V2000
    3.7518   -9.7201    0.0000 C   0  0  0  0  0  0  0  0  0  0  0  0
    3.7518  -10.5451    0.0000 C   0  0  1  0  0  0  0  0  0  0  0  0
    4.4663  -10.9576    0.0000 C   0  0  0  0  0  0  0  0  0  0  0  0
    5.1807  -10.5451    0.0000 C   0  0  1  0  0  0  0  0  0  0  0  0
    5.1807   -9.7201    0.0000 C   0  0  2  0  0  0  0  0  0  0  0  0
    4.4663   -9.3076    0.0000 C   0  0  0  0  0  0  0  0  0  0  0  0
    5.8952  -10.9576    0.0000 C   0  0  1  0  0  0  0  0  0  0  0  0
    6.6097  -10.5451    0.0000 C   0  0  0  0  0  0  0  0  0  0  0  0
    6.6097   -9.7201    0.0000 C   0  0  2  0  0  0  0  0  0  0  0  0
    5.8952   -9.3076    0.0000 C   0  0  2  0  0  0  0  0  0  0  0  0
    7.3242   -9.3076    0.0000 C   0  0  1  0  0  0  0  0  0  0  0  0
    7.3242   -8.4826    0.0000 C   0  0  0  0  0  0  0  0  0  0  0  0
    6.6097   -8.0701    0.0000 C   0  0  0  0  0  0  0  0  0  0  0  0
    5.8952   -8.4826    0.0000 C   0  0  0  0  0  0  0  0  0  0  0  0
    5.1807   -8.8951    0.0000 C   0  0  0  0  0  0  0  0  0  0  0  0
    3.0373  -10.9576    0.0000 O   0  0  0  0  0  0  0  0  0  0  0  0
    5.1807  -11.3701    0.0000 H   0  0  0  0  0  0  0  0  0  0  0  0
    5.8952  -10.1326    0.0000 H   0  0  0  0  0  0  0  0  0  0  0  0
    8.0386   -9.7201    0.0000 C   0  0  0  0  0  0  0  0  0  0  0  0
    8.7531   -9.3076    0.0000 C   0  0  0  0  0  0  0  0  0  0  0  0
    8.7531   -8.4826    0.0000 C   0  0  2  0  0  0  0  0  0  0  0  0
    8.0386   -8.0701    0.0000 C   0  0  1  0  0  0  0  0  0  0  0  0
    9.4676   -8.0701    0.0000 C   0  0  0  0  0  0  0  0  0  0  0  0
    9.4676   -7.2451    0.0000 C   0  0  0  0  0  0  0  0  0  0  0  0
    8.7531   -6.8326    0.0000 C   0  0  0  0  0  0  0  0  0  0  0  0
    8.0386   -7.2451    0.0000 C   0  0  0  0  0  0  0  0  0  0  0  0
    4.0538  -11.6721    0.0000 C   0  0  0  0  0  0  0  0  0  0  0  0
    4.8788  -11.6721    0.0000 C   0  0  0  0  0  0  0  0  0  0  0  0
    8.3406   -6.1182    0.0000 C   0  0  0  0  0  0  0  0  0  0  0  0
    9.1656   -6.1182    0.0000 C   0  0  0  0  0  0  0  0  0  0  0  0
    9.4676   -8.8951    0.0000 C   0  0  0  0  0  0  0  0  0  0  0  0
    9.4676   -9.7201    0.0000 O   0  0  0  0  0  0  0  0  0  0  0  0
   10.1820   -8.4826    0.0000 O   0  0  0  0  0  0  0  0  0  0  0  0
    5.8952  -11.7826    0.0000 O   0  0  0  0  0  0  0  0  0  0  0  0
    6.6097   -8.8951    0.0000 C   0  0  0  0  0  0  0  0  0  0  0  0
    7.3242   -7.6576    0.0000 H   0  0  0  0  0  0  0  0  0  0  0  0
    7.3242  -10.1326    0.0000 C   0  0  0  0  0  0  0  0  0  0  0  0
  1  2  1  0  0  0  0
  2  3  1  0  0  0  0
  3  4  1  0  0  0  0
  4  5  1  0  0  0  0
  5  6  1  0  0  0  0
  6  1  1  0  0  0  0
  4  7  1  0  0  0  0
  7  8  1  0  0  0  0
  8  9  1  0  0  0  0
  9 10  1  0  0  0  0
 10  5  1  0  0  0  0
  9 11  1  0  0  0  0
 11 12  1  0  0  0  0
 12 13  2  0  0  0  0
 13 14  1  0  0  0  0
 14 10  1  0  0  0  0
  5 15  1  1  0  0  0
  2 16  1  1  0  0  0
  4 17  1  6  0  0  0
 10 18  1  6  0  0  0
 11 19  1  0  0  0  0
 19 20  1  0  0  0  0
 20 21  1  0  0  0  0
 21 22  1  0  0  0  0
 22 12  1  0  0  0  0
 21 23  1  0  0  0  0
 23 24  1  0  0  0  0
 24 25  1  0  0  0  0
 25 26  1  0  0  0  0
 26 22  1  0  0  0  0
  3 27  1  0  0  0  0
  3 28  1  0  0  0  0
 25 29  1  0  0  0  0
 25 30  1  0  0  0  0
 21 31  1  1  0  0  0
 31 32  2  0  0  0  0
 31 33  1  0  0  0  0
  7 34  1  1  0  0  0
  9 35  1  1  0  0  0
 22 36  1  1  0  0  0
 11 37  1  6  0  0  0
M  END
>  <cdx:fragmentId>
5

$$$$
