4046.cdx
  Mrv1902 05222410262D          

 16 17  0  0  0  0            999 V2000
    6.1289   -6.7650    0.0000 C   0  0  0  0  0  0  0  0  0  0  0  0
    6.1289   -7.5900    0.0000 C   0  0  0  0  0  0  0  0  0  0  0  0
    6.8434   -8.0025    0.0000 C   0  0  0  0  0  0  0  0  0  0  0  0
    7.5578   -7.5900    0.0000 C   0  0  0  0  0  0  0  0  0  0  0  0
    7.5578   -6.7650    0.0000 C   0  0  0  0  0  0  0  0  0  0  0  0
    6.8434   -6.3525    0.0000 C   0  0  0  0  0  0  0  0  0  0  0  0
    6.8434   -5.5275    0.0000 O   0  0  0  0  0  0  0  0  0  0  0  0
    8.2723   -6.3525    0.0000 C   0  0  0  0  0  0  0  0  0  0  0  0
    5.4144   -8.0025    0.0000 C   0  0  0  0  0  0  0  0  0  0  0  0
    4.6608   -7.6669    0.0000 C   0  0  0  0  0  0  0  0  0  0  0  0
    4.1087   -8.2800    0.0000 C   0  0  0  0  0  0  0  0  0  0  0  0
    4.5212   -8.9945    0.0000 C   0  0  0  0  0  0  0  0  0  0  0  0
    5.3282   -8.8230    0.0000 C   0  0  0  0  0  0  0  0  0  0  0  0
    5.4144   -7.1775    0.0000 C   0  0  0  0  0  0  0  0  0  0  0  0
    3.9463   -7.2544    0.0000 C   0  0  0  0  0  0  0  0  0  0  0  0
    4.8743   -6.8701    0.0000 C   0  0  0  0  0  0  0  0  0  0  0  0
  1  2  2  0  0  0  0
  2  3  1  0  0  0  0
  3  4  2  0  0  0  0
  4  5  1  0  0  0  0
  5  6  2  0  0  0  0
  6  1  1  0  0  0  0
  6  7  1  0  0  0  0
  5  8  1  0  0  0  0
  2  9  1  0  0  0  0
  9 10  1  0  0  0  0
 10 11  1  0  0  0  0
 11 12  1  0  0  0  0
 12 13  1  0  0  0  0
 13  9  1  0  0  0  0
  9 14  1  0  0  0  0
 10 15  1  0  0  0  0
 10 16  1  0  0  0  0
M  END
>  <cdx:fragmentId>
5

$$$$
