40463.cdx
  Mrv1902 05222410222D          

 26 28  0  0  0  0            999 V2000
    4.1231  -11.9889    0.0000 O   0  0  0  0  0  0  0  0  0  0  0  0
    4.8375  -13.2264    0.0000 O   0  0  0  0  0  0  0  0  0  0  0  0
    5.5520  -12.8139    0.0000 C   0  0  2  0  0  0  0  0  0  0  0  0
    5.5520  -11.9889    0.0000 C   0  0  1  0  0  0  0  0  0  0  0  0
    4.8375  -11.5764    0.0000 C   0  0  0  0  0  0  0  0  0  0  0  0
    6.2665  -13.2264    0.0000 C   0  0  1  0  0  0  0  0  0  0  0  0
    6.9809  -12.8139    0.0000 C   0  0  2  0  0  0  0  0  0  0  0  0
    6.9809  -11.9889    0.0000 C   0  0  1  0  0  0  0  0  0  0  0  0
    6.2665  -11.5764    0.0000 O   0  0  0  0  0  0  0  0  0  0  0  0
    7.6954  -11.5764    0.0000 O   0  0  0  0  0  0  0  0  0  0  0  0
    7.6954  -10.7514    0.0000 C   0  0  2  0  0  0  0  0  0  0  0  0
    6.9809  -10.3389    0.0000 O   0  0  0  0  0  0  0  0  0  0  0  0
    8.4099  -10.3389    0.0000 C   0  0  1  0  0  0  0  0  0  0  0  0
    8.4099   -9.5139    0.0000 C   0  0  1  0  0  0  0  0  0  0  0  0
    7.6954   -9.1014    0.0000 C   0  0  0  0  0  0  0  0  0  0  0  0
    6.9809   -9.5139    0.0000 C   0  0  0  0  0  0  0  0  0  0  0  0
    9.1244   -9.1014    0.0000 C   0  0  0  0  0  0  0  0  0  0  0  0
    9.1244   -8.2764    0.0000 C   0  0  0  0  0  0  0  0  0  0  0  0
    8.4099   -7.8639    0.0000 O   0  0  0  0  0  0  0  0  0  0  0  0
    7.6954   -8.2764    0.0000 C   0  0  0  0  0  0  0  0  0  0  0  0
    6.2665  -14.0514    0.0000 O   0  0  0  0  0  0  0  0  0  0  0  0
    9.1244  -10.7514    0.0000 C   0  0  0  0  0  0  0  0  0  0  0  0
    7.6954  -13.2264    0.0000 O   0  0  0  0  0  0  0  0  0  0  0  0
    9.1244   -9.9264    0.0000 H   0  0  0  0  0  0  0  0  0  0  0  0
    6.9809   -7.8639    0.0000 O   0  0  0  0  0  0  0  0  0  0  0  0
    9.1244  -11.5764    0.0000 C   0  0  0  0  0  0  0  0  0  0  0  0
  3  2  1  6  0  0  0
  3  4  1  0  0  0  0
  4  5  1  1  0  0  0
  5  1  1  0  0  0  0
  3  6  1  0  0  0  0
  6  7  1  0  0  0  0
  7  8  1  0  0  0  0
  8  9  1  0  0  0  0
  9  4  1  0  0  0  0
  8 10  1  1  0  0  0
 11 10  1  6  0  0  0
 11 12  1  0  0  0  0
 11 13  1  0  0  0  0
 13 14  1  0  0  0  0
 14 15  1  0  0  0  0
 15 16  2  0  0  0  0
 16 12  1  0  0  0  0
 14 17  1  0  0  0  0
 17 18  1  0  0  0  0
 18 19  1  0  0  0  0
 19 20  1  0  0  0  0
 20 15  1  0  0  0  0
  6 21  1  1  0  0  0
 13 22  1  1  0  0  0
  7 23  1  6  0  0  0
 14 24  1  6  0  0  0
 20 25  2  0  0  0  0
 22 26  2  0  0  0  0
M  END
>  <cdx:fragmentId>
5

$$$$
