40475.cdx
  Mrv1902 05222410222D          

 28 32  0  0  0  0            999 V2000
    5.7593   -8.6064    0.0000 C   0  0  2  0  0  0  0  0  0  0  0  0
    5.7593   -9.4314    0.0000 C   0  0  1  0  0  0  0  0  0  0  0  0
    6.4738   -9.8439    0.0000 C   0  0  1  0  0  0  0  0  0  0  0  0
    7.1882   -9.4314    0.0000 C   0  0  2  0  0  0  0  0  0  0  0  0
    7.1882   -8.6064    0.0000 C   0  0  1  0  0  0  0  0  0  0  0  0
    6.4738   -8.1939    0.0000 C   0  0  1  0  0  0  0  0  0  0  0  0
    6.4738  -10.6689    0.0000 C   0  0  0  0  0  0  0  0  0  0  0  0
    7.1882  -11.0814    0.0000 C   0  0  0  0  0  0  0  0  0  0  0  0
    7.9027  -10.6689    0.0000 C   0  0  2  0  0  0  0  0  0  0  0  0
    7.9027   -9.8439    0.0000 C   0  0  2  0  0  0  0  0  0  0  0  0
    8.6172  -11.0814    0.0000 C   0  0  0  0  0  0  0  0  0  0  0  0
    9.3317  -10.6689    0.0000 C   0  0  2  0  0  0  0  0  0  0  0  0
    9.3317   -9.8439    0.0000 C   0  0  0  0  0  0  0  0  0  0  0  0
    8.6172   -9.4314    0.0000 C   0  0  0  0  0  0  0  0  0  0  0  0
    4.9747   -8.3515    0.0000 C   0  0  1  0  0  0  0  0  0  0  0  0
    4.4898   -9.0189    0.0000 C   0  0  0  0  0  0  0  0  0  0  0  0
    4.9747   -9.6863    0.0000 C   0  0  0  0  0  0  0  0  0  0  0  0
    4.7197   -7.5668    0.0000 C   0  0  0  0  0  0  0  0  0  0  0  0
    5.2718   -6.9537    0.0000 O   0  0  0  0  0  0  0  0  0  0  0  0
    3.9128   -7.3953    0.0000 C   0  0  0  0  0  0  0  0  0  0  0  0
    5.7593   -7.7814    0.0000 C   0  0  0  0  0  0  0  0  0  0  0  0
    6.4738   -7.3689    0.0000 O   0  0  0  0  0  0  0  0  0  0  0  0
    5.7593  -10.2564    0.0000 O   0  0  0  0  0  0  0  0  0  0  0  0
    8.1162   -9.0470    0.0000 C   0  0  0  0  0  0  0  0  0  0  0  0
   10.0461  -11.0814    0.0000 O   0  0  0  0  0  0  0  0  0  0  0  0
    7.9027   -8.1939    0.0000 O   0  0  0  0  0  0  0  0  0  0  0  0
    7.7716   -8.8480    0.0000 H   0  0  0  0  0  0  0  0  0  0  0  0
    8.1162  -11.4658    0.0000 H   0  0  0  0  0  0  0  0  0  0  0  0
  1  2  1  0  0  0  0
  2  3  1  0  0  0  0
  3  4  1  0  0  0  0
  4  5  1  0  0  0  0
  5  6  1  0  0  0  0
  6  1  1  0  0  0  0
  3  7  1  0  0  0  0
  7  8  1  0  0  0  0
  8  9  1  0  0  0  0
  9 10  1  0  0  0  0
 10  4  1  0  0  0  0
  9 11  1  0  0  0  0
 11 12  1  0  0  0  0
 12 13  1  0  0  0  0
 13 14  1  0  0  0  0
 14 10  1  0  0  0  0
  1 15  1  0  0  0  0
 15 16  1  0  0  0  0
 16 17  1  0  0  0  0
 17  2  1  0  0  0  0
 15 18  1  1  0  0  0
 18 19  2  0  0  0  0
 18 20  1  0  0  0  0
  1 21  1  6  0  0  0
  6 22  1  6  0  0  0
  2 23  1  6  0  0  0
  3 23  1  6  0  0  0
 10 24  1  6  0  0  0
 12 25  1  6  0  0  0
  5 26  1  1  0  0  0
  4 27  1  1  0  0  0
  9 28  1  1  0  0  0
M  END
>  <cdx:fragmentId>
5

$$$$
