40473.cdx
  Mrv1902 05222410212D          

 31 34  0  0  0  0            999 V2000
    4.4393   -9.1151    0.0000 C   0  0  0  0  0  0  0  0  0  0  0  0
    4.4393   -9.9401    0.0000 C   0  0  0  0  0  0  0  0  0  0  0  0
    5.1538  -10.3526    0.0000 C   0  0  0  0  0  0  0  0  0  0  0  0
    5.8682   -9.9401    0.0000 C   0  0  0  0  0  0  0  0  0  0  0  0
    5.8682   -9.1151    0.0000 C   0  0  0  0  0  0  0  0  0  0  0  0
    5.1538   -8.7026    0.0000 C   0  0  0  0  0  0  0  0  0  0  0  0
    6.5827  -10.3526    0.0000 O   0  0  0  0  0  0  0  0  0  0  0  0
    7.2972   -9.9401    0.0000 C   0  0  1  0  0  0  0  0  0  0  0  0
    7.2972   -9.1151    0.0000 C   0  0  2  0  0  0  0  0  0  0  0  0
    6.5827   -8.7026    0.0000 C   0  0  0  0  0  0  0  0  0  0  0  0
    6.5827   -7.8776    0.0000 O   0  0  0  0  0  0  0  0  0  0  0  0
    5.1538   -7.8776    0.0000 O   0  0  0  0  0  0  0  0  0  0  0  0
    8.0117   -8.7026    0.0000 O   0  0  0  0  0  0  0  0  0  0  0  0
    8.0117   -7.8776    0.0000 C   0  0  2  0  0  0  0  0  0  0  0  0
    7.2972   -7.4651    0.0000 O   0  0  0  0  0  0  0  0  0  0  0  0
    8.7261   -7.4651    0.0000 C   0  0  1  0  0  0  0  0  0  0  0  0
    8.7261   -6.6401    0.0000 C   0  0  2  0  0  0  0  0  0  0  0  0
    8.0117   -6.2276    0.0000 C   0  0  1  0  0  0  0  0  0  0  0  0
    7.2972   -6.6401    0.0000 C   0  0  0  0  0  0  0  0  0  0  0  0
    8.0117  -10.3526    0.0000 C   0  0  0  0  0  0  0  0  0  0  0  0
    8.7261   -9.9401    0.0000 C   0  0  0  0  0  0  0  0  0  0  0  0
    8.0117  -11.1776    0.0000 C   0  0  0  0  0  0  0  0  0  0  0  0
    8.7261  -11.5901    0.0000 C   0  0  0  0  0  0  0  0  0  0  0  0
    9.4406  -11.1776    0.0000 C   0  0  0  0  0  0  0  0  0  0  0  0
    9.4406  -10.3526    0.0000 C   0  0  0  0  0  0  0  0  0  0  0  0
    3.7248  -10.3526    0.0000 O   0  0  0  0  0  0  0  0  0  0  0  0
    8.7261  -12.4151    0.0000 O   0  0  0  0  0  0  0  0  0  0  0  0
   10.1551  -11.5901    0.0000 O   0  0  0  0  0  0  0  0  0  0  0  0
    9.4406   -7.8776    0.0000 O   0  0  0  0  0  0  0  0  0  0  0  0
    8.0117   -5.4026    0.0000 O   0  0  0  0  0  0  0  0  0  0  0  0
    9.4406   -6.2276    0.0000 O   0  0  0  0  0  0  0  0  0  0  0  0
  1  2  2  0  0  0  0
  2  3  1  0  0  0  0
  3  4  2  0  0  0  0
  4  5  1  0  0  0  0
  5  6  2  0  0  0  0
  6  1  1  0  0  0  0
  4  7  1  0  0  0  0
  7  8  1  0  0  0  0
  8  9  1  0  0  0  0
  9 10  1  0  0  0  0
 10  5  1  0  0  0  0
 10 11  2  0  0  0  0
 12  6  1  0  0  0  0
  9 13  1  6  0  0  0
 14 13  1  6  0  0  0
 14 15  1  0  0  0  0
 14 16  1  0  0  0  0
 16 17  1  0  0  0  0
 17 18  1  0  0  0  0
 18 19  1  0  0  0  0
 19 15  1  0  0  0  0
  8 20  1  1  0  0  0
 20 21  1  0  0  0  0
 20 22  2  0  0  0  0
 22 23  1  0  0  0  0
 23 24  2  0  0  0  0
 24 25  1  0  0  0  0
 25 21  2  0  0  0  0
  2 26  1  0  0  0  0
 23 27  1  0  0  0  0
 24 28  1  0  0  0  0
 16 29  1  1  0  0  0
 18 30  1  1  0  0  0
 17 31  1  6  0  0  0
M  END
>  <cdx:fragmentId>
5

$$$$
