40483.cdx
  Mrv1902 05222410252D          

  6  5  0  0  0  0            999 V2000
    4.6038   -7.4651    0.0000 Cl  0  0  0  0  0  0  0  0  0  0  0  0
    5.3182   -7.0526    0.0000 C   0  0  0  0  0  0  0  0  0  0  0  0
    6.0327   -7.4651    0.0000 C   0  0  0  0  0  0  0  0  0  0  0  0
    5.3182   -6.2276    0.0000 Cl  0  0  0  0  0  0  0  0  0  0  0  0
    6.0327   -8.2901    0.0000 Cl  0  0  0  0  0  0  0  0  0  0  0  0
    6.7472   -7.0526    0.0000 Cl  0  0  0  0  0  0  0  0  0  0  0  0
  1  2  1  0  0  0  0
  2  3  2  0  0  0  0
  2  4  1  0  0  0  0
  3  5  1  0  0  0  0
  3  6  1  0  0  0  0
M  END
>  <cdx:fragmentId>
3

$$$$
