40482.cdx
  Mrv1902 05222410252D          

 12 12  0  0  0  0            999 V2000
    5.3606   -8.3589    0.0000 C   0  0  0  0  0  0  0  0  0  0  0  0
    5.3606   -9.1839    0.0000 C   0  0  0  0  0  0  0  0  0  0  0  0
    6.0750   -9.5964    0.0000 C   0  0  0  0  0  0  0  0  0  0  0  0
    6.7895   -9.1839    0.0000 C   0  0  0  0  0  0  0  0  0  0  0  0
    6.7895   -8.3589    0.0000 C   0  0  0  0  0  0  0  0  0  0  0  0
    6.0750   -7.9464    0.0000 C   0  0  0  0  0  0  0  0  0  0  0  0
    4.6461   -7.9464    0.0000 O   0  0  0  0  0  0  0  0  0  0  0  0
    7.5040   -9.5964    0.0000 O   0  0  0  0  0  0  0  0  0  0  0  0
    6.0750   -7.1214    0.0000 C   0  0  0  0  0  0  0  0  0  0  0  0
    6.0750   -6.2964    0.0000 C   0  0  0  0  0  0  0  0  0  0  0  0
    6.9000   -7.1214    0.0000 C   0  0  0  0  0  0  0  0  0  0  0  0
    5.2500   -7.1214    0.0000 C   0  0  0  0  0  0  0  0  0  0  0  0
  1  2  2  0  0  0  0
  2  3  1  0  0  0  0
  3  4  2  0  0  0  0
  4  5  1  0  0  0  0
  5  6  2  0  0  0  0
  6  1  1  0  0  0  0
  1  7  1  0  0  0  0
  4  8  1  0  0  0  0
  6  9  1  0  0  0  0
  9 10  1  0  0  0  0
  9 11  1  0  0  0  0
  9 12  1  0  0  0  0
M  END
>  <cdx:fragmentId>
5

$$$$
