40484.cdx
  Mrv1902 05222410242D          

 39 39  0  0  0  0            999 V2000
    4.5840  -14.8476    0.0000 C   0  0  0  0  0  0  0  0  0  0  0  0
    4.5818  -14.2701    0.0000 C   0  0  0  0  0  0  0  0  0  0  0  0
    5.0809  -13.9794    0.0000 C   0  0  0  0  0  0  0  0  0  0  0  0
    5.0787  -13.4019    0.0000 C   0  0  0  0  0  0  0  0  0  0  0  0
    5.5777  -13.1113    0.0000 O   0  0  0  0  0  0  0  0  0  0  0  0
    5.5755  -12.5338    0.0000 C   0  0  0  0  0  0  0  0  0  0  0  0
    6.0745  -12.2431    0.0000 C   0  0  0  0  0  0  0  0  0  0  0  0
    6.0723  -11.6656    0.0000 C   0  0  0  0  0  0  0  0  0  0  0  0
    6.5714  -11.3750    0.0000 C   0  0  0  0  0  0  0  0  0  0  0  0
    6.5692  -10.7975    0.0000 C   0  0  0  0  0  0  0  0  0  0  0  0
    7.0682  -10.5068    0.0000 C   0  0  0  0  0  0  0  0  0  0  0  0
    7.0660   -9.9293    0.0000 C   0  0  0  0  0  0  0  0  0  0  0  0
    7.5650   -9.6387    0.0000 C   0  0  0  0  0  0  0  0  0  0  0  0
    7.5628   -9.0612    0.0000 C   0  0  0  0  0  0  0  0  0  0  0  0
    8.0619   -8.7705    0.0000 C   0  0  0  0  0  0  0  0  0  0  0  0
    8.0597   -8.1930    0.0000 C   0  0  0  0  0  0  0  0  0  0  0  0
    8.5587   -7.9024    0.0000 C   0  0  0  0  0  0  0  0  0  0  0  0
    8.5565   -7.3249    0.0000 C   0  0  0  0  0  0  0  0  0  0  0  0
    9.0555   -7.0342    0.0000 C   0  0  0  0  0  0  0  0  0  0  0  0
    9.0533   -6.4567    0.0000 C   0  0  0  0  0  0  0  0  0  0  0  0
    9.5523   -6.1661    0.0000 C   0  0  0  0  0  0  0  0  0  0  0  0
    9.5501   -5.5886    0.0000 C   0  0  0  0  0  0  0  0  0  0  0  0
   10.0492   -5.2979    0.0000 C   0  0  0  0  0  0  0  0  0  0  0  0
   10.0470   -4.7205    0.0000 C   0  0  0  0  0  0  0  0  0  0  0  0
   10.5460   -4.4298    0.0000 C   0  0  0  0  0  0  0  0  0  0  0  0
   10.5438   -3.8523    0.0000 C   0  0  0  0  0  0  0  0  0  0  0  0
   11.0428   -3.5617    0.0000 C   0  0  0  0  0  0  0  0  0  0  0  0
   11.0406   -2.9842    0.0000 C   0  0  0  0  0  0  0  0  0  0  0  0
   11.5397   -2.6935    0.0000 C   0  0  0  0  0  0  0  0  0  0  0  0
    4.0850  -15.1382    0.0000 C   0  0  0  0  0  0  0  0  0  0  0  0
    4.0872  -15.7157    0.0000 C   0  0  0  0  0  0  0  0  0  0  0  0
    4.5884  -16.0026    0.0000 C   0  0  0  0  0  0  0  0  0  0  0  0
    5.0875  -15.7119    0.0000 C   0  0  0  0  0  0  0  0  0  0  0  0
    5.0853  -15.1344    0.0000 C   0  0  0  0  0  0  0  0  0  0  0  0
    4.5906  -16.5800    0.0000 O   0  0  0  0  0  0  0  0  0  0  0  0
    3.5882  -16.0064    0.0000 O   0  0  0  0  0  0  0  0  0  0  0  0
    4.0806  -13.9832    0.0000 H   0  0  0  0  0  0  0  0  0  0  0  0
    5.5821  -14.2663    0.0000 H   0  0  0  0  0  0  0  0  0  0  0  0
    4.5775  -13.1151    0.0000 O   0  0  0  0  0  0  0  0  0  0  0  0
  1  2  1  0  0  0  0
  2  3  2  0  0  0  0
  3  4  1  0  0  0  0
  4  5  1  0  0  0  0
  5  6  1  0  0  0  0
  6  7  1  0  0  0  0
  7  8  1  0  0  0  0
  8  9  1  0  0  0  0
  9 10  1  0  0  0  0
 10 11  1  0  0  0  0
 11 12  1  0  0  0  0
 12 13  1  0  0  0  0
 13 14  1  0  0  0  0
 14 15  1  0  0  0  0
 15 16  1  0  0  0  0
 16 17  1  0  0  0  0
 17 18  1  0  0  0  0
 18 19  1  0  0  0  0
 19 20  1  0  0  0  0
 20 21  1  0  0  0  0
 21 22  1  0  0  0  0
 22 23  1  0  0  0  0
 23 24  1  0  0  0  0
 24 25  1  0  0  0  0
 25 26  1  0  0  0  0
 26 27  1  0  0  0  0
 27 28  1  0  0  0  0
 28 29  1  0  0  0  0
  1 30  2  0  0  0  0
 30 31  1  0  0  0  0
 31 32  2  0  0  0  0
 32 33  1  0  0  0  0
 33 34  2  0  0  0  0
 34  1  1  0  0  0  0
 32 35  1  0  0  0  0
 31 36  1  0  0  0  0
  2 37  1  0  0  0  0
  3 38  1  0  0  0  0
  4 39  2  0  0  0  0
M  END
>  <cdx:fragmentId>
3

$$$$
