40485.cdx
  Mrv1902 05222410242D          

 30 33  0  0  0  0            999 V2000
    6.6687   -8.9689    0.0000 C   0  0  1  0  0  0  0  0  0  0  0  0
    7.4937   -8.9689    0.0000 C   0  0  2  0  0  0  0  0  0  0  0  0
    7.7486   -8.1843    0.0000 C   0  0  0  0  0  0  0  0  0  0  0  0
    7.0812   -7.6994    0.0000 C   0  0  0  0  0  0  0  0  0  0  0  0
    6.4137   -8.1843    0.0000 C   0  0  1  0  0  0  0  0  0  0  0  0
    6.4137   -9.7536    0.0000 C   0  0  2  0  0  0  0  0  0  0  0  0
    7.0812  -10.2385    0.0000 C   0  0  0  0  0  0  0  0  0  0  0  0
    7.7486   -9.7536    0.0000 C   0  0  1  0  0  0  0  0  0  0  0  0
    8.5736   -8.1843    0.0000 C   0  0  0  0  0  0  0  0  0  0  0  0
    8.5736   -9.7536    0.0000 C   0  0  0  0  0  0  0  0  0  0  0  0
    8.9925   -8.9650    0.0000 O   0  0  0  0  0  0  0  0  0  0  0  0
    7.0812   -6.8744    0.0000 O   0  0  0  0  0  0  0  0  0  0  0  0
    5.6168   -8.3978    0.0000 C   0  0  0  0  0  0  0  0  0  0  0  0
    5.6168   -9.5400    0.0000 C   0  0  1  0  0  0  0  0  0  0  0  0
    4.9623  -10.0423    0.0000 C   0  0  0  0  0  0  0  0  0  0  0  0
    4.2001   -9.7265    0.0000 C   0  0  0  0  0  0  0  0  0  0  0  0
    5.0700  -10.8602    0.0000 C   0  0  0  0  0  0  0  0  0  0  0  0
    4.3790  -10.6256    0.0000 O   0  0  0  0  0  0  0  0  0  0  0  0
    6.0586  -10.4982    0.0000 O   0  0  0  0  0  0  0  0  0  0  0  0
    7.0812   -9.6834    0.0000 O   0  0  0  0  0  0  0  0  0  0  0  0
    7.2802   -8.1720    0.0000 O   0  0  0  0  0  0  0  0  0  0  0  0
    8.7871  -10.5504    0.0000 C   0  0  0  0  0  0  0  0  0  0  0  0
    9.2881  -10.1661    0.0000 C   0  0  0  0  0  0  0  0  0  0  0  0
    8.9972   -7.4764    0.0000 C   0  0  0  0  0  0  0  0  0  0  0  0
    9.8221   -7.4892    0.0000 C   0  0  0  0  0  0  0  0  0  0  0  0
    4.9024   -9.1275    0.0000 H   0  0  0  0  0  0  0  0  0  0  0  0
    7.9621  -10.5504    0.0000 H   0  0  0  0  0  0  0  0  0  0  0  0
    6.2002   -7.3874    0.0000 H   0  0  0  0  0  0  0  0  0  0  0  0
   10.2457   -6.7812    0.0000 C   0  0  0  0  0  0  0  0  0  0  0  0
   10.2234   -8.2100    0.0000 C   0  0  0  0  0  0  0  0  0  0  0  0
  1  2  1  0  0  0  0
  2  3  1  0  0  0  0
  3  4  1  0  0  0  0
  4  5  1  0  0  0  0
  5  1  1  0  0  0  0
  1  6  1  0  0  0  0
  6  7  1  0  0  0  0
  7  8  1  0  0  0  0
  8  2  1  0  0  0  0
  3  9  2  0  0  0  0
  8 10  1  0  0  0  0
 10 11  1  0  0  0  0
 11  9  1  0  0  0  0
  4 12  2  0  0  0  0
  5 13  1  0  0  0  0
  6 14  1  0  0  0  0
 13 14  1  0  0  0  0
 14 15  1  0  0  0  0
 15 16  1  0  0  0  0
 15 17  1  0  0  0  0
 15 18  1  0  0  0  0
  6 19  1  1  0  0  0
  1 20  1  1  0  0  0
  2 21  1  1  0  0  0
 10 22  1  0  0  0  0
 10 23  1  0  0  0  0
  9 24  1  0  0  0  0
 24 25  1  0  0  0  0
 14 26  1  1  0  0  0
  8 27  1  1  0  0  0
  5 28  1  1  0  0  0
 25 29  1  0  0  0  0
 25 30  1  0  0  0  0
M  END
>  <cdx:fragmentId>
191

$$$$
