40488.cdx
  Mrv1902 05222410222D          

 22 25  0  0  0  0            999 V2000
    4.4593  -10.2370    0.0000 C   0  0  0  0  0  0  0  0  0  0  0  0
    4.7263  -11.0177    0.0000 C   0  0  0  0  0  0  0  0  0  0  0  0
    5.5512  -11.0050    0.0000 C   0  0  0  0  0  0  0  0  0  0  0  0
    5.7940  -10.2165    0.0000 C   0  0  0  0  0  0  0  0  0  0  0  0
    5.1192   -9.7419    0.0000 C   0  0  0  0  0  0  0  0  0  0  0  0
    3.6498  -10.0780    0.0000 C   0  0  0  0  0  0  0  0  0  0  0  0
    3.1072  -10.6995    0.0000 C   0  0  0  0  0  0  0  0  0  0  0  0
    3.3742  -11.4801    0.0000 C   0  0  0  0  0  0  0  0  0  0  0  0
    4.1837  -11.6392    0.0000 C   0  0  0  0  0  0  0  0  0  0  0  0
    6.1126  -11.6095    0.0000 C   0  0  0  0  0  0  0  0  0  0  0  0
    6.9168  -11.4256    0.0000 C   0  0  0  0  0  0  0  0  0  0  0  0
    7.1596  -10.6371    0.0000 C   0  0  0  0  0  0  0  0  0  0  0  0
    6.5982  -10.0326    0.0000 C   0  0  0  0  0  0  0  0  0  0  0  0
    8.2824  -11.8462    0.0000 O   0  0  0  0  0  0  0  0  0  0  0  0
    8.5253  -11.0577    0.0000 C   0  0  0  0  0  0  0  0  0  0  0  0
    7.9639  -10.4532    0.0000 N   0  0  0  0  0  0  0  0  0  0  0  0
    9.3295  -10.8738    0.0000 C   0  0  0  0  0  0  0  0  0  0  0  0
    9.5723  -10.0853    0.0000 O   0  0  0  0  0  0  0  0  0  0  0  0
   10.0043  -11.3484    0.0000 C   0  0  0  0  0  0  0  0  0  0  0  0
   10.6642  -10.8532    0.0000 C   0  0  0  0  0  0  0  0  0  0  0  0
   10.3972  -10.0853    0.0000 C   0  0  0  0  0  0  0  0  0  0  0  0
    5.1065   -8.9170    0.0000 O   0  0  0  0  0  0  0  0  0  0  0  0
  1  2  2  0  0  0  0
  2  3  1  0  0  0  0
  3  4  2  0  0  0  0
  4  5  1  0  0  0  0
  5  1  1  0  0  0  0
  1  6  1  0  0  0  0
  6  7  2  0  0  0  0
  7  8  1  0  0  0  0
  8  9  2  0  0  0  0
  9  2  1  0  0  0  0
  3 10  1  0  0  0  0
 10 11  2  0  0  0  0
 11 12  1  0  0  0  0
 12 13  2  0  0  0  0
 13  4  1  0  0  0  0
 14 15  2  0  0  0  0
 15 16  1  0  0  0  0
 16 12  1  0  0  0  0
 15 17  1  0  0  0  0
 17 18  1  0  0  0  0
 17 19  1  0  0  0  0
 19 20  1  0  0  0  0
 20 21  1  0  0  0  0
 21 18  1  0  0  0  0
  5 22  2  0  0  0  0
M  END
>  <cdx:fragmentId>
5

$$$$
