40486.cdx
  Mrv1902 05222410232D          

 14 13  0  0  0  0            999 V2000
    2.6788   -9.1014    0.0000 C   0  0  0  0  0  0  0  0  0  0  0  0
    3.3932   -8.6889    0.0000 C   0  0  0  0  0  0  0  0  0  0  0  0
    4.1077   -9.1014    0.0000 C   0  0  0  0  0  0  0  0  0  0  0  0
    4.8222   -8.6889    0.0000 C   0  0  0  0  0  0  0  0  0  0  0  0
    5.5367   -9.1014    0.0000 C   0  0  0  0  0  0  0  0  0  0  0  0
    6.2511   -8.6889    0.0000 C   0  0  0  0  0  0  0  0  0  0  0  0
    6.9656   -9.1014    0.0000 C   0  0  0  0  0  0  0  0  0  0  0  0
    7.6801   -8.6889    0.0000 C   0  0  0  0  0  0  0  0  0  0  0  0
    8.3945   -9.1014    0.0000 C   0  0  0  0  0  0  0  0  0  0  0  0
    9.1090   -8.6889    0.0000 C   0  0  0  0  0  0  0  0  0  0  0  0
    9.8235   -9.1014    0.0000 C   0  0  0  0  0  0  0  0  0  0  0  0
   10.5380   -8.6889    0.0000 C   0  0  0  0  0  0  0  0  0  0  0  0
   11.2524   -9.1014    0.0000 C   0  0  0  0  0  0  0  0  0  0  0  0
   11.9669   -8.6889    0.0000 C   0  0  0  0  0  0  0  0  0  0  0  0
  1  2  1  0  0  0  0
  2  3  1  0  0  0  0
  3  4  1  0  0  0  0
  4  5  1  0  0  0  0
  5  6  1  0  0  0  0
  6  7  1  0  0  0  0
  7  8  1  0  0  0  0
  8  9  1  0  0  0  0
  9 10  1  0  0  0  0
 10 11  1  0  0  0  0
 11 12  1  0  0  0  0
 12 13  1  0  0  0  0
 13 14  1  0  0  0  0
M  END
>  <cdx:fragmentId>
3

$$$$
