40491.cdx
  Mrv1902 05222410242D          

 11 12  0  0  0  0            999 V2000
    8.4789   -5.1916    0.0000 C   0  0  0  0  0  0  0  0  0  0  0  0
    7.9783   -4.5358    0.0000 C   0  0  0  0  0  0  0  0  0  0  0  0
    7.1999   -4.8093    0.0000 C   0  0  0  0  0  0  0  0  0  0  0  0
    7.2195   -5.6341    0.0000 C   0  0  0  0  0  0  0  0  0  0  0  0
    8.0100   -5.8703    0.0000 C   0  0  0  0  0  0  0  0  0  0  0  0
    8.2145   -3.7454    0.0000 C   0  0  0  0  0  0  0  0  0  0  0  0
    8.2835   -6.6487    0.0000 O   0  0  0  0  0  0  0  0  0  0  0  0
    6.4955   -5.2387    0.0000 C   0  0  0  0  0  0  0  0  0  0  0  0
    6.8170   -6.3543    0.0000 C   0  0  0  0  0  0  0  0  0  0  0  0
    7.2394   -7.0629    0.0000 C   0  0  0  0  0  0  0  0  0  0  0  0
    5.9921   -6.3658    0.0000 C   0  0  0  0  0  0  0  0  0  0  0  0
  1  2  1  0  0  0  0
  2  3  1  0  0  0  0
  3  4  1  0  0  0  0
  4  5  1  0  0  0  0
  5  1  2  0  0  0  0
  2  6  1  0  0  0  0
  5  7  1  0  0  0  0
  3  8  1  0  0  0  0
  8  4  1  0  0  0  0
  4  9  1  0  0  0  0
  9 10  1  0  0  0  0
  9 11  1  0  0  0  0
M  END
>  <cdx:fragmentId>
5

$$$$
