40490.cdx
  Mrv1902 05222410242D          

 24 25  0  0  0  0            999 V2000
    3.0368   -8.8814    0.0000 C   0  0  0  0  0  0  0  0  0  0  0  0
    3.7513  -10.1189    0.0000 O   0  0  0  0  0  0  0  0  0  0  0  0
    4.4657   -9.7064    0.0000 C   0  0  0  0  0  0  0  0  0  0  0  0
    4.4657   -8.8814    0.0000 C   0  0  0  0  0  0  0  0  0  0  0  0
    3.7513   -8.4689    0.0000 O   0  0  0  0  0  0  0  0  0  0  0  0
    5.1802  -10.1189    0.0000 C   0  0  0  0  0  0  0  0  0  0  0  0
    5.8947   -9.7064    0.0000 C   0  0  0  0  0  0  0  0  0  0  0  0
    5.8947   -8.8814    0.0000 C   0  0  0  0  0  0  0  0  0  0  0  0
    5.1802   -8.4689    0.0000 C   0  0  0  0  0  0  0  0  0  0  0  0
    7.3236   -9.7064    0.0000 C   0  0  0  0  0  0  0  0  0  0  0  0
    7.3236   -8.8814    0.0000 C   0  0  1  0  0  0  0  0  0  0  0  0
    6.6092   -8.4689    0.0000 C   0  0  1  0  0  0  0  0  0  0  0  0
    8.0381  -10.1189    0.0000 O   0  0  0  0  0  0  0  0  0  0  0  0
    8.7526   -8.8814    0.0000 C   0  0  0  0  0  0  0  0  0  0  0  0
    8.0381   -8.4689    0.0000 C   0  0  0  0  0  0  0  0  0  0  0  0
    9.4670   -8.4689    0.0000 C   0  0  0  0  0  0  0  0  0  0  0  0
    9.4670   -7.6439    0.0000 C   0  0  0  0  0  0  0  0  0  0  0  0
    8.7526   -7.2314    0.0000 C   0  0  0  0  0  0  0  0  0  0  0  0
    8.0381   -7.6439    0.0000 C   0  0  0  0  0  0  0  0  0  0  0  0
   10.1815   -8.8814    0.0000 O   0  0  0  0  0  0  0  0  0  0  0  0
   10.8960   -8.4689    0.0000 C   0  0  0  0  0  0  0  0  0  0  0  0
   10.1815   -7.2314    0.0000 O   0  0  0  0  0  0  0  0  0  0  0  0
    6.6092   -7.6439    0.0000 O   0  0  0  0  0  0  0  0  0  0  0  0
    5.8947   -7.2314    0.0000 C   0  0  0  0  0  0  0  0  0  0  0  0
  2  3  1  0  0  0  0
  3  4  2  0  0  0  0
  4  5  1  0  0  0  0
  5  1  1  0  0  0  0
  3  6  1  0  0  0  0
  6  7  2  0  0  0  0
  7  8  1  0  0  0  0
  8  9  2  0  0  0  0
  9  4  1  0  0  0  0
 11 10  1  1  0  0  0
 11 12  1  0  0  0  0
 12  8  1  0  0  0  0
 10 13  1  0  0  0  0
 14 15  2  0  0  0  0
 15 11  1  0  0  0  0
 14 16  1  0  0  0  0
 16 17  2  0  0  0  0
 17 18  1  0  0  0  0
 18 19  2  0  0  0  0
 19 15  1  0  0  0  0
 16 20  1  0  0  0  0
 20 21  1  0  0  0  0
 22 17  1  0  0  0  0
 12 23  1  6  0  0  0
 23 24  1  0  0  0  0
M  END
>  <cdx:fragmentId>
5

$$$$
