40497.cdx
  Mrv1902 05222410252D          

 58 65  0  0  0  0            999 V2000
    6.8919  -10.8629    0.0000 O   0  0  0  0  0  0  0  0  0  0  0  0
    6.0976   -9.4167    0.0000 O   0  0  0  0  0  0  0  0  0  0  0  0
    8.5416  -10.8981    0.0000 O   0  0  0  0  0  0  0  0  0  0  0  0
    6.1278   -8.0057    0.0000 O   0  0  0  0  0  0  0  0  0  0  0  0
    6.9528   -8.0057    0.0000 C   0  0  0  0  0  0  0  0  0  0  0  0
    9.3968   -9.4871    0.0000 O   0  0  0  0  0  0  0  0  0  0  0  0
    9.3870  -11.1370    0.0000 O   0  0  0  0  0  0  0  0  0  0  0  0
   10.1039  -10.7288    0.0000 C   0  0  1  0  0  0  0  0  0  0  0  0
   10.1088   -9.9038    0.0000 C   0  0  1  0  0  0  0  0  0  0  0  0
   10.8159  -11.1455    0.0000 C   0  0  2  0  0  0  0  0  0  0  0  0
   11.5329  -10.7373    0.0000 C   0  0  1  0  0  0  0  0  0  0  0  0
   11.5378   -9.9123    0.0000 O   0  0  0  0  0  0  0  0  0  0  0  0
   10.8257   -9.4955    0.0000 C   0  0  2  0  0  0  0  0  0  0  0  0
   12.2449  -11.1540    0.0000 O   0  0  0  0  0  0  0  0  0  0  0  0
   12.9618  -10.7457    0.0000 C   0  0  1  0  0  0  0  0  0  0  0  0
   12.9667   -9.9208    0.0000 C   0  0  0  0  0  0  0  0  0  0  0  0
   13.6738  -11.1625    0.0000 C   0  0  0  0  0  0  0  0  0  0  0  0
   14.3907  -10.7542    0.0000 C   0  0  1  0  0  0  0  0  0  0  0  0
   14.3956   -9.9292    0.0000 C   0  0  2  0  0  0  0  0  0  0  0  0
   13.6836   -9.5125    0.0000 C   0  0  0  0  0  0  0  0  0  0  0  0
   15.1027  -11.1710    0.0000 C   0  0  0  0  0  0  0  0  0  0  0  0
   15.8196  -10.7627    0.0000 C   0  0  0  0  0  0  0  0  0  0  0  0
   15.8245   -9.9377    0.0000 C   0  0  2  0  0  0  0  0  0  0  0  0
   15.1125   -9.5210    0.0000 C   0  0  2  0  0  0  0  0  0  0  0  0
   16.5414   -9.5295    0.0000 C   0  0  1  0  0  0  0  0  0  0  0  0
   16.5463   -8.7045    0.0000 C   0  0  2  0  0  0  0  0  0  0  0  0
   15.8343   -8.2878    0.0000 C   0  0  0  0  0  0  0  0  0  0  0  0
   15.1174   -8.6960    0.0000 C   0  0  0  0  0  0  0  0  0  0  0  0
   17.3245   -9.7891    0.0000 C   0  0  0  0  0  0  0  0  0  0  0  0
   17.8134   -9.1245    0.0000 C   0  0  1  0  0  0  0  0  0  0  0  0
   17.3324   -8.4542    0.0000 C   0  0  2  0  0  0  0  0  0  0  0  0
   18.5995   -8.8743    0.0000 O   0  0  0  0  0  0  0  0  0  0  0  0
   18.6044   -8.0493    0.0000 C   0  0  1  0  0  0  0  0  0  0  0  0
   17.8213   -7.7897    0.0000 C   0  0  1  0  0  0  0  0  0  0  0  0
   19.3561   -8.3893    0.0000 C   0  0  0  0  0  0  0  0  0  0  0  0
   20.0264   -7.9083    0.0000 C   0  0  0  0  0  0  0  0  0  0  0  0
   19.9450   -7.0874    0.0000 C   0  0  2  0  0  0  0  0  0  0  0  0
   19.1933   -6.7473    0.0000 C   0  0  0  0  0  0  0  0  0  0  0  0
   18.5230   -7.2283    0.0000 O   0  0  0  0  0  0  0  0  0  0  0  0
   10.8306   -8.6706    0.0000 C   0  0  0  0  0  0  0  0  0  0  0  0
   10.1162   -8.2581    0.0000 O   0  0  0  0  0  0  0  0  0  0  0  0
    8.5720   -9.4695    0.0000 C   0  0  2  0  0  0  0  0  0  0  0  0
    8.1748   -8.7464    0.0000 O   0  0  0  0  0  0  0  0  0  0  0  0
    7.3500   -8.7288    0.0000 C   0  0  1  0  0  0  0  0  0  0  0  0
    6.9224   -9.4343    0.0000 C   0  0  2  0  0  0  0  0  0  0  0  0
   14.4005   -9.1043    0.0000 C   0  0  0  0  0  0  0  0  0  0  0  0
   15.8245   -9.1127    0.0000 H   0  0  0  0  0  0  0  0  0  0  0  0
   16.5463   -7.8795    0.0000 C   0  0  0  0  0  0  0  0  0  0  0  0
   20.6153   -6.6064    0.0000 C   0  0  0  0  0  0  0  0  0  0  0  0
   17.5710   -7.0036    0.0000 C   0  0  0  0  0  0  0  0  0  0  0  0
   16.9242   -7.7373    0.0000 H   0  0  0  0  0  0  0  0  0  0  0  0
   18.3933   -9.7113    0.0000 H   0  0  0  0  0  0  0  0  0  0  0  0
   16.5414  -10.3545    0.0000 H   0  0  0  0  0  0  0  0  0  0  0  0
   15.1076  -10.3460    0.0000 H   0  0  0  0  0  0  0  0  0  0  0  0
   14.3858  -11.5792    0.0000 H   0  0  0  0  0  0  0  0  0  0  0  0
   10.8110  -11.9705    0.0000 O   0  0  0  0  0  0  0  0  0  0  0  0
    7.3196  -10.1574    0.0000 C   0  0  1  0  0  0  0  0  0  0  0  0
    8.1444  -10.1750    0.0000 C   0  0  1  0  0  0  0  0  0  0  0  0
 57  1  1  1  0  0  0
 45  2  1  6  0  0  0
 58  3  1  6  0  0  0
  5  4  1  0  0  0  0
 44  5  1  1  0  0  0
 42  6  1  1  0  0  0
 42 58  1  0  0  0  0
  8  7  1  1  0  0  0
  8  9  1  0  0  0  0
  9  6  1  6  0  0  0
 43 42  1  0  0  0  0
  8 10  1  0  0  0  0
 10 11  1  0  0  0  0
 11 12  1  0  0  0  0
 12 13  1  0  0  0  0
 13  9  1  0  0  0  0
 11 14  1  1  0  0  0
 15 14  1  1  0  0  0
 15 16  1  0  0  0  0
 15 17  1  0  0  0  0
 17 18  1  0  0  0  0
 18 19  1  0  0  0  0
 19 20  1  0  0  0  0
 20 16  1  0  0  0  0
 18 21  1  0  0  0  0
 21 22  1  0  0  0  0
 22 23  1  0  0  0  0
 23 24  1  0  0  0  0
 24 19  1  0  0  0  0
 23 25  1  0  0  0  0
 25 26  1  0  0  0  0
 26 27  1  0  0  0  0
 27 28  1  0  0  0  0
 28 24  1  0  0  0  0
 25 29  1  0  0  0  0
 29 30  1  0  0  0  0
 30 31  1  0  0  0  0
 31 26  1  0  0  0  0
 30 32  1  0  0  0  0
 33 32  1  6  0  0  0
 33 34  1  0  0  0  0
 34 31  1  0  0  0  0
 33 35  1  0  0  0  0
 35 36  1  0  0  0  0
 36 37  1  0  0  0  0
 37 38  1  0  0  0  0
 38 39  1  0  0  0  0
 39 33  1  0  0  0  0
 44 43  1  0  0  0  0
 45 44  1  0  0  0  0
 57 45  1  0  0  0  0
 58 57  1  0  0  0  0
 13 40  1  1  0  0  0
 40 41  1  0  0  0  0
 19 46  1  1  0  0  0
 23 47  1  1  0  0  0
 26 48  1  1  0  0  0
 37 49  1  6  0  0  0
 34 50  1  6  0  0  0
 31 51  1  6  0  0  0
 30 52  1  6  0  0  0
 25 53  1  6  0  0  0
 24 54  1  6  0  0  0
 18 55  1  6  0  0  0
 10 56  1  6  0  0  0
M  END
>  <cdx:fragmentId>
5

$$$$
