40493.cdx
  Mrv1902 05222410232D          

 15 16  0  0  0  0            999 V2000
    8.2376   -5.0561    0.0000 C   0  0  0  0  0  0  0  0  0  0  0  0
    8.6011   -5.7967    0.0000 C   0  0  0  0  0  0  0  0  0  0  0  0
    8.2488   -6.5427    0.0000 C   0  0  0  0  0  0  0  0  0  0  0  0
    7.4459   -6.7323    0.0000 C   0  0  0  0  0  0  0  0  0  0  0  0
    6.7970   -6.2228    0.0000 C   0  0  0  0  0  0  0  0  0  0  0  0
    6.7908   -5.3978    0.0000 C   0  0  0  0  0  0  0  0  0  0  0  0
    7.4319   -4.8786    0.0000 C   0  0  0  0  0  0  0  0  0  0  0  0
    6.0857   -6.6407    0.0000 C   0  0  0  0  0  0  0  0  0  0  0  0
    5.3681   -6.2336    0.0000 C   0  0  0  0  0  0  0  0  0  0  0  0
    5.3619   -5.4086    0.0000 C   0  0  0  0  0  0  0  0  0  0  0  0
    6.0732   -4.9908    0.0000 C   0  0  0  0  0  0  0  0  0  0  0  0
    8.7471   -4.4072    0.0000 C   0  0  0  0  0  0  0  0  0  0  0  0
    6.9347   -4.5855    0.0000 C   0  0  0  0  0  0  0  0  0  0  0  0
    6.4225   -4.2433    0.0000 C   0  0  0  0  0  0  0  0  0  0  0  0
    5.6006   -4.3146    0.0000 C   0  0  0  0  0  0  0  0  0  0  0  0
  1  2  1  0  0  0  0
  2  3  1  0  0  0  0
  3  4  1  0  0  0  0
  4  5  1  0  0  0  0
  5  6  1  0  0  0  0
  6  7  1  0  0  0  0
  7  1  2  0  0  0  0
  5  8  2  0  0  0  0
  8  9  1  0  0  0  0
  9 10  1  0  0  0  0
 10 11  1  0  0  0  0
 11  6  1  0  0  0  0
  1 12  1  0  0  0  0
  6 13  1  0  0  0  0
 11 14  1  0  0  0  0
 11 15  1  0  0  0  0
M  END
>  <cdx:fragmentId>
5

$$$$
