405023.cdx
  Mrv1902 05222410222D          

 34 36  0  0  0  0            999 V2000
    2.8194   -6.4932    0.0000 N   0  0  0  0  0  0  0  0  0  0  0  0
    2.1051   -6.9060    0.0000 C   0  0  0  0  0  0  0  0  0  0  0  0
    2.1054   -7.7310    0.0000 N   0  0  0  0  0  0  0  0  0  0  0  0
    2.8201   -8.1432    0.0000 C   0  0  0  0  0  0  0  0  0  0  0  0
    3.5344   -7.7304    0.0000 C   0  0  0  0  0  0  0  0  0  0  0  0
    4.2490   -8.1425    0.0000 N   0  0  0  0  0  0  0  0  0  0  0  0
    4.9633   -7.7297    0.0000 C   0  0  0  0  0  0  0  0  0  0  0  0
    4.9630   -6.9047    0.0000 C   0  0  0  0  0  0  0  0  0  0  0  0
    4.2483   -6.4925    0.0000 N   0  0  0  0  0  0  0  0  0  0  0  0
    3.5340   -6.9054    0.0000 C   0  0  0  0  0  0  0  0  0  0  0  0
    2.8204   -8.9682    0.0000 O   0  0  0  0  0  0  0  0  0  0  0  0
    1.3904   -6.4938    0.0000 N   0  0  0  0  0  0  0  0  0  0  0  0
   11.3941   -8.9644    0.0000 C   0  0  0  0  0  0  0  0  0  0  0  0
   10.6798   -9.3772    0.0000 C   0  0  2  0  0  0  0  0  0  0  0  0
   10.6802  -10.2022    0.0000 C   0  0  0  0  0  0  0  0  0  0  0  0
   11.3948  -10.6144    0.0000 C   0  0  0  0  0  0  0  0  0  0  0  0
   11.3952  -11.4394    0.0000 C   0  0  0  0  0  0  0  0  0  0  0  0
   11.3937   -8.1394    0.0000 O   0  0  0  0  0  0  0  0  0  0  0  0
   12.1087   -9.3766    0.0000 O   0  0  0  0  0  0  0  0  0  0  0  0
   10.6809  -11.8522    0.0000 O   0  0  0  0  0  0  0  0  0  0  0  0
    8.5362   -8.9657    0.0000 C   0  0  0  0  0  0  0  0  0  0  0  0
    8.5358   -8.1407    0.0000 C   0  0  0  0  0  0  0  0  0  0  0  0
    7.8212   -7.7285    0.0000 C   0  0  0  0  0  0  0  0  0  0  0  0
    7.1069   -8.1413    0.0000 C   0  0  0  0  0  0  0  0  0  0  0  0
    7.1073   -8.9663    0.0000 C   0  0  0  0  0  0  0  0  0  0  0  0
    7.8219   -9.3785    0.0000 C   0  0  0  0  0  0  0  0  0  0  0  0
    9.2512  -10.2028    0.0000 O   0  0  0  0  0  0  0  0  0  0  0  0
    6.3923   -7.7291    0.0000 N   0  0  0  0  0  0  0  0  0  0  0  0
    6.3919   -6.9041    0.0000 C   0  0  0  0  0  0  0  0  0  0  0  0
    7.1062   -6.4913    0.0000 O   0  0  0  0  0  0  0  0  0  0  0  0
    5.6780   -8.1419    0.0000 C   0  0  0  0  0  0  0  0  0  0  0  0
    9.2509   -9.3778    0.0000 C   0  0  0  0  0  0  0  0  0  0  0  0
    9.9652   -8.9650    0.0000 N   0  0  0  0  0  0  0  0  0  0  0  0
   12.1098  -11.8516    0.0000 O   0  0  0  0  0  0  0  0  0  0  0  0
 14 33  1  6  0  0  0
 33 32  1  0  0  0  0
 32 27  2  0  0  0  0
 28 31  1  0  0  0  0
 31  7  1  0  0  0  0
  1  2  2  0  0  0  0
  2  3  1  0  0  0  0
  3  4  1  0  0  0  0
  4  5  1  0  0  0  0
  5  6  2  0  0  0  0
  6  7  1  0  0  0  0
  7  8  2  0  0  0  0
  8  9  1  0  0  0  0
  9 10  2  0  0  0  0
  1 10  1  0  0  0  0
  5 10  1  0  0  0  0
  4 11  2  0  0  0  0
  2 12  1  0  0  0  0
 14 13  1  0  0  0  0
 14 15  1  0  0  0  0
 15 16  1  0  0  0  0
 16 17  1  0  0  0  0
 13 18  2  0  0  0  0
 32 21  1  0  0  0  0
 21 22  1  0  0  0  0
 22 23  2  0  0  0  0
 23 24  1  0  0  0  0
 24 25  2  0  0  0  0
 25 26  1  0  0  0  0
 21 26  2  0  0  0  0
 13 19  1  0  0  0  0
 29 30  2  0  0  0  0
 28 29  1  0  0  0  0
 24 28  1  0  0  0  0
 17 20  2  0  0  0  0
 17 34  1  0  0  0  0
M  END
>  <cdx:fragmentId>
49

$$$$
