40507.cdx
  Mrv1902 05222410212D          

  8  8  0  0  0  0            999 V2000
    5.1268   -8.5239    0.0000 C   0  0  2  0  0  0  0  0  0  0  0  0
    5.1268   -9.3489    0.0000 C   0  0  0  0  0  0  0  0  0  0  0  0
    5.8413   -9.7614    0.0000 C   0  0  0  0  0  0  0  0  0  0  0  0
    6.5557   -9.3489    0.0000 C   0  0  0  0  0  0  0  0  0  0  0  0
    6.5557   -8.5239    0.0000 C   0  0  2  0  0  0  0  0  0  0  0  0
    5.8413   -8.1114    0.0000 C   0  0  0  0  0  0  0  0  0  0  0  0
    4.4123   -8.1114    0.0000 C   0  0  0  0  0  0  0  0  0  0  0  0
    7.2702   -8.1114    0.0000 C   0  0  0  0  0  0  0  0  0  0  0  0
  1  2  1  0  0  0  0
  2  3  1  0  0  0  0
  3  4  1  0  0  0  0
  4  5  1  0  0  0  0
  5  6  1  0  0  0  0
  6  1  1  0  0  0  0
  1  7  1  1  0  0  0
  5  8  1  6  0  0  0
M  END
>  <cdx:fragmentId>
5

$$$$
