40512.cdx
  Mrv1902 05222410212D          

 15 15  0  0  0  0            999 V2000
    2.1013   -8.4826    0.0000 O   0  0  0  0  0  0  0  0  0  0  0  0
    2.8157   -8.0701    0.0000 C   0  0  0  0  0  0  0  0  0  0  0  0
    3.5302   -8.4826    0.0000 C   0  0  0  0  0  0  0  0  0  0  0  0
    4.2447   -8.0701    0.0000 C   0  0  0  0  0  0  0  0  0  0  0  0
    4.9592   -8.4826    0.0000 C   0  0  1  0  0  0  0  0  0  0  0  0
    2.8157   -7.2451    0.0000 H   0  0  0  0  0  0  0  0  0  0  0  0
    3.5302   -9.3076    0.0000 H   0  0  0  0  0  0  0  0  0  0  0  0
    4.2447   -7.2451    0.0000 H   0  0  0  0  0  0  0  0  0  0  0  0
    5.7842   -8.4826    0.0000 C   0  0  1  0  0  0  0  0  0  0  0  0
    5.3717   -9.1971    0.0000 O   0  0  0  0  0  0  0  0  0  0  0  0
    6.4986   -8.0701    0.0000 C   0  0  0  0  0  0  0  0  0  0  0  0
    7.2131   -8.4826    0.0000 C   0  0  0  0  0  0  0  0  0  0  0  0
    7.9276   -8.0701    0.0000 C   0  0  0  0  0  0  0  0  0  0  0  0
    8.6420   -8.4826    0.0000 C   0  0  0  0  0  0  0  0  0  0  0  0
    9.3565   -8.0701    0.0000 C   0  0  0  0  0  0  0  0  0  0  0  0
  1  2  2  0  0  0  0
  2  3  1  0  0  0  0
  3  4  2  0  0  0  0
  5  4  1  1  0  0  0
  2  6  1  0  0  0  0
  3  7  1  0  0  0  0
  4  8  1  0  0  0  0
  5  9  1  0  0  0  0
  5 10  1  0  0  0  0
 10  9  1  0  0  0  0
  9 11  1  6  0  0  0
 11 12  1  0  0  0  0
 12 13  1  0  0  0  0
 13 14  1  0  0  0  0
 14 15  1  0  0  0  0
M  END
>  <cdx:fragmentId>
3

$$$$
