40515.cdx
  Mrv1902 05222410222D          

 31 33  0  0  0  0            999 V2000
    6.1168  -11.0264    0.0000 C   0  0  2  0  0  0  0  0  0  0  0  0
    6.1168  -11.8514    0.0000 C   0  0  2  0  0  0  0  0  0  0  0  0
    6.8313  -12.2639    0.0000 C   0  0  1  0  0  0  0  0  0  0  0  0
    7.5457  -11.8514    0.0000 C   0  0  2  0  0  0  0  0  0  0  0  0
    7.5457  -11.0264    0.0000 C   0  0  1  0  0  0  0  0  0  0  0  0
    6.8313  -10.6139    0.0000 O   0  0  0  0  0  0  0  0  0  0  0  0
    5.4023   -9.7889    0.0000 O   0  0  0  0  0  0  0  0  0  0  0  0
    5.4023  -10.6139    0.0000 C   0  0  0  0  0  0  0  0  0  0  0  0
    8.2602  -10.6139    0.0000 O   0  0  0  0  0  0  0  0  0  0  0  0
    8.2602   -9.7889    0.0000 C   0  0  0  0  0  0  0  0  0  0  0  0
    7.5457   -9.3764    0.0000 C   0  0  0  0  0  0  0  0  0  0  0  0
    8.9747   -9.3764    0.0000 C   0  0  0  0  0  0  0  0  0  0  0  0
    8.9747   -8.5514    0.0000 C   0  0  0  0  0  0  0  0  0  0  0  0
    8.2602   -8.1389    0.0000 C   0  0  0  0  0  0  0  0  0  0  0  0
    7.5457   -8.5514    0.0000 C   0  0  0  0  0  0  0  0  0  0  0  0
    6.8313   -8.1389    0.0000 C   0  0  0  0  0  0  0  0  0  0  0  0
    6.1168   -8.5514    0.0000 H   0  0  0  0  0  0  0  0  0  0  0  0
    6.8313   -7.3139    0.0000 C   0  0  0  0  0  0  0  0  0  0  0  0
    6.1168   -6.9014    0.0000 C   0  0  0  0  0  0  0  0  0  0  0  0
    5.4023   -7.3139    0.0000 C   0  0  0  0  0  0  0  0  0  0  0  0
    6.1168   -6.0764    0.0000 C   0  0  0  0  0  0  0  0  0  0  0  0
    5.4023   -5.6639    0.0000 C   0  0  0  0  0  0  0  0  0  0  0  0
    4.6879   -6.0764    0.0000 C   0  0  0  0  0  0  0  0  0  0  0  0
    4.6879   -6.9014    0.0000 C   0  0  0  0  0  0  0  0  0  0  0  0
    3.9734   -5.6639    0.0000 O   0  0  0  0  0  0  0  0  0  0  0  0
    5.4023   -4.8389    0.0000 O   0  0  0  0  0  0  0  0  0  0  0  0
    7.5457   -6.9014    0.0000 H   0  0  0  0  0  0  0  0  0  0  0  0
    9.6892   -8.1389    0.0000 O   0  0  0  0  0  0  0  0  0  0  0  0
    6.8313  -13.0889    0.0000 O   0  0  0  0  0  0  0  0  0  0  0  0
    5.4023  -12.2639    0.0000 O   0  0  0  0  0  0  0  0  0  0  0  0
    8.2602  -12.2639    0.0000 O   0  0  0  0  0  0  0  0  0  0  0  0
  1  2  1  0  0  0  0
  2  3  1  0  0  0  0
  3  4  1  0  0  0  0
  4  5  1  0  0  0  0
  5  6  1  0  0  0  0
  6  1  1  0  0  0  0
  7  8  1  0  0  0  0
  1  8  1  1  0  0  0
  5  9  1  1  0  0  0
  9 10  1  0  0  0  0
 10 11  2  0  0  0  0
 10 12  1  0  0  0  0
 12 13  2  0  0  0  0
 13 14  1  0  0  0  0
 14 15  2  0  0  0  0
 15 11  1  0  0  0  0
 15 16  1  0  0  0  0
 16 17  1  0  0  0  0
 16 18  2  0  0  0  0
 18 19  1  0  0  0  0
 19 20  1  0  0  0  0
 19 21  2  0  0  0  0
 21 22  1  0  0  0  0
 22 23  2  0  0  0  0
 23 24  1  0  0  0  0
 24 20  2  0  0  0  0
 23 25  1  0  0  0  0
 22 26  1  0  0  0  0
 18 27  1  0  0  0  0
 13 28  1  0  0  0  0
  3 29  1  1  0  0  0
  2 30  1  6  0  0  0
  4 31  1  6  0  0  0
M  END
>  <cdx:fragmentId>
5

$$$$
