4051.cdx
  Mrv1902 05222410262D          

  9  8  0  0  0  0            999 V2000
    3.6259   -6.9094    0.0000 O   0  0  0  0  0  0  0  0  0  0  0  0
    4.3403   -6.4969    0.0000 C   0  0  0  0  0  0  0  0  0  0  0  0
    5.0548   -6.9094    0.0000 C   0  0  0  0  0  0  0  0  0  0  0  0
    5.7693   -6.4969    0.0000 C   0  0  0  0  0  0  0  0  0  0  0  0
    6.4838   -6.9094    0.0000 C   0  0  0  0  0  0  0  0  0  0  0  0
    7.1982   -6.4969    0.0000 C   0  0  0  0  0  0  0  0  0  0  0  0
    7.9127   -6.9094    0.0000 C   0  0  0  0  0  0  0  0  0  0  0  0
    8.6272   -6.4969    0.0000 C   0  0  0  0  0  0  0  0  0  0  0  0
    5.0548   -7.7344    0.0000 C   0  0  0  0  0  0  0  0  0  0  0  0
  1  2  1  0  0  0  0
  2  3  1  0  0  0  0
  3  4  1  0  0  0  0
  4  5  1  0  0  0  0
  5  6  1  0  0  0  0
  6  7  1  0  0  0  0
  7  8  2  0  0  0  0
  3  9  1  0  0  0  0
M  END
>  <cdx:fragmentId>
3

$$$$
