40510.cdx
  Mrv1902 05222410202D          

  7  6  0  0  0  0            999 V2000
    5.2016   -8.3055    0.0000 O   0  0  0  0  0  0  0  0  0  0  0  0
    9.4884   -8.3055    0.0000 C   0  0  0  0  0  0  0  0  0  0  0  0
    8.7739   -8.7180    0.0000 C   0  0  0  0  0  0  0  0  0  0  0  0
    8.0595   -8.3055    0.0000 C   0  0  0  0  0  0  0  0  0  0  0  0
    7.3450   -8.7180    0.0000 C   0  0  0  0  0  0  0  0  0  0  0  0
    6.6305   -8.3055    0.0000 C   0  0  0  0  0  0  0  0  0  0  0  0
    5.9160   -8.7180    0.0000 C   0  0  0  0  0  0  0  0  0  0  0  0
  7  1  1  0  0  0  0
  3  2  1  0  0  0  0
  4  3  1  0  0  0  0
  5  4  1  0  0  0  0
  6  5  2  0  0  0  0
  7  6  1  0  0  0  0
M  END
>  <cdx:fragmentId>
5

$$$$
