405281.cdx
  Mrv1902 05222410202D          

 49 56  0  0  0  0            999 V2000
    7.2191   -9.8628    0.0000 O   0  0  0  0  0  0  0  0  0  0  0  0
    9.9604  -11.6755    0.0000 O   0  0  0  0  0  0  0  0  0  0  0  0
    9.6185  -12.4263    0.0000 C   0  0  0  0  0  0  0  0  0  0  0  0
    8.7988  -12.3332    0.0000 O   0  0  0  0  0  0  0  0  0  0  0  0
    8.6341  -11.5248    0.0000 C   0  0  0  0  0  0  0  0  0  0  0  0
    9.3520  -11.1183    0.0000 C   0  0  0  0  0  0  0  0  0  0  0  0
    7.9231  -11.1063    0.0000 C   0  0  0  0  0  0  0  0  0  0  0  0
    7.9300  -10.2813    0.0000 C   0  0  0  0  0  0  0  0  0  0  0  0
    8.6480   -9.8748    0.0000 C   0  0  0  0  0  0  0  0  0  0  0  0
    9.3589  -10.2933    0.0000 C   0  0  0  0  0  0  0  0  0  0  0  0
   10.4129   -7.7951    0.0000 O   0  0  0  0  0  0  0  0  0  0  0  0
   10.1514   -8.5775    0.0000 C   0  0  0  0  0  0  0  0  0  0  0  0
    9.3264   -8.5706    0.0000 C   0  0  2  0  0  0  0  0  0  0  0  0
    9.0781   -7.7838    0.0000 C   0  0  2  0  0  0  0  0  0  0  0  0
    9.7496   -7.3045    0.0000 C   0  0  2  0  0  0  0  0  0  0  0  0
    7.9916   -8.5593    0.0000 O   0  0  0  0  0  0  0  0  0  0  0  0
    8.6549   -9.0499    0.0000 C   0  0  2  0  0  0  0  0  0  0  0  0
    8.2531   -7.7769    0.0000 C   0  0  0  0  0  0  0  0  0  0  0  0
    8.8298   -6.9971    0.0000 H   0  0  0  0  0  0  0  0  0  0  0  0
    9.5747   -9.3573    0.0000 H   0  0  0  0  0  0  0  0  0  0  0  0
   10.4814   -5.2481    0.0000 C   0  0  0  0  0  0  0  0  0  0  0  0
   10.4745   -6.0731    0.0000 C   0  0  0  0  0  0  0  0  0  0  0  0
    9.7565   -6.4796    0.0000 C   0  0  0  0  0  0  0  0  0  0  0  0
    9.0456   -6.0611    0.0000 C   0  0  0  0  0  0  0  0  0  0  0  0
    9.7704   -4.8296    0.0000 C   0  0  0  0  0  0  0  0  0  0  0  0
    9.0525   -5.2361    0.0000 C   0  0  0  0  0  0  0  0  0  0  0  0
    8.4441   -4.6789    0.0000 O   0  0  0  0  0  0  0  0  0  0  0  0
    8.7860   -3.9281    0.0000 C   0  0  0  0  0  0  0  0  0  0  0  0
    9.6057   -4.0212    0.0000 O   0  0  0  0  0  0  0  0  0  0  0  0
    8.6866  -12.8282    0.0000 O   0  0  0  0  0  0  0  0  0  0  0  0
    8.3508  -13.9526    0.0000 O   0  0  0  0  0  0  0  0  0  0  0  0
    8.4302  -14.7737    0.0000 O   0  0  0  0  0  0  0  0  0  0  0  0
    7.6793  -14.4319    0.0000 C   0  0  0  0  0  0  0  0  0  0  0  0
    6.7750  -13.6037    0.0000 C   0  0  0  0  0  0  0  0  0  0  0  0
    7.6000  -13.6107    0.0000 C   0  0  2  0  0  0  0  0  0  0  0  0
    7.8616  -12.8282    0.0000 C   0  0  2  0  0  0  0  0  0  0  0  0
    7.1982  -12.3377    0.0000 C   0  0  1  0  0  0  0  0  0  0  0  0
    6.5267  -12.8170    0.0000 O   0  0  0  0  0  0  0  0  0  0  0  0
    7.2052  -11.5127    0.0000 O   0  0  0  0  0  0  0  0  0  0  0  0
    4.3682   -9.0137    0.0000 O   0  0  0  0  0  0  0  0  0  0  0  0
    4.3613   -9.8387    0.0000 C   0  0  0  0  0  0  0  0  0  0  0  0
    5.7693  -12.3257    0.0000 O   0  0  0  0  0  0  0  0  0  0  0  0
    4.3474  -11.4887    0.0000 O   0  0  0  0  0  0  0  0  0  0  0  0
    6.5012  -10.2693    0.0000 C   0  0  1  0  0  0  0  0  0  0  0  0
    6.4942  -11.0942    0.0000 C   0  0  1  0  0  0  0  0  0  0  0  0
    5.7763  -11.5007    0.0000 C   0  0  2  0  0  0  0  0  0  0  0  0
    5.0653  -11.0822    0.0000 C   0  0  1  0  0  0  0  0  0  0  0  0
    5.0723  -10.2572    0.0000 C   0  0  2  0  0  0  0  0  0  0  0  0
    5.7902   -9.8508    0.0000 O   0  0  0  0  0  0  0  0  0  0  0  0
 44  1  1  1  0  0  0
 24 26  2  0  0  0  0
 21 25  2  0  0  0  0
 22 21  1  0  0  0  0
 23 22  2  0  0  0  0
 24 23  1  0  0  0  0
 29 25  1  0  0  0  0
 26 25  1  0  0  0  0
 27 26  1  0  0  0  0
 28 27  1  0  0  0  0
  2  3  1  0  0  0  0
  3  4  1  0  0  0  0
  4  5  1  0  0  0  0
  5  6  1  0  0  0  0
  2  6  1  0  0  0  0
 45 39  1  6  0  0  0
 37 39  1  1  0  0  0
 36 30  1  6  0  0  0
 35 31  1  6  0  0  0
 35 33  1  1  0  0  0
 33 32  1  0  0  0  0
 38 34  1  0  0  0  0
 35 34  1  0  0  0  0
 36 35  1  0  0  0  0
 37 36  1  0  0  0  0
 38 37  1  0  0  0  0
 48 41  1  1  0  0  0
 41 40  1  0  0  0  0
 46 42  1  1  0  0  0
 47 43  1  6  0  0  0
 49 44  1  0  0  0  0
 45 44  1  0  0  0  0
 46 45  1  0  0  0  0
 47 46  1  0  0  0  0
 48 47  1  0  0  0  0
 49 48  1  0  0  0  0
  7  8  1  0  0  0  0
  8  9  2  0  0  0  0
  9 10  1  0  0  0  0
 10  6  2  0  0  0  0
  7  5  2  0  0  0  0
 11 12  1  0  0  0  0
 12 13  1  0  0  0  0
 13 14  1  0  0  0  0
 14 15  1  0  0  0  0
 11 15  1  0  0  0  0
 16 17  1  0  0  0  0
 16 18  1  0  0  0  0
 17 13  1  0  0  0  0
 18 14  1  0  0  0  0
 29 28  1  0  0  0  0
 15 23  1  6  0  0  0
 17  9  1  1  0  0  0
  1  8  1  0  0  0  0
 14 19  1  6  0  0  0
 13 20  1  6  0  0  0
M  END
>  <cdx:fragmentId>
39293

$$$$
