40524.cdx
  Mrv1902 05222410232D          

 12 13  0  0  0  0            999 V2000
    7.0848   -4.6613    0.0000 C   0  0  2  0  0  0  0  0  0  0  0  0
    7.8694   -4.4063    0.0000 C   0  0  2  0  0  0  0  0  0  0  0  0
    8.3543   -5.0738    0.0000 C   0  0  0  0  0  0  0  0  0  0  0  0
    7.8694   -5.7412    0.0000 C   0  0  0  0  0  0  0  0  0  0  0  0
    7.0848   -5.4863    0.0000 C   0  0  2  0  0  0  0  0  0  0  0  0
    6.3703   -5.0738    0.0000 C   0  0  0  0  0  0  0  0  0  0  0  0
    7.2341   -6.9074    0.0000 C   0  0  0  0  0  0  0  0  0  0  0  0
    6.7492   -6.2400    0.0000 C   0  0  0  0  0  0  0  0  0  0  0  0
    5.9287   -6.3262    0.0000 C   0  0  0  0  0  0  0  0  0  0  0  0
    7.4569   -3.6919    0.0000 C   0  0  0  0  0  0  0  0  0  0  0  0
    8.2819   -3.6919    0.0000 O   0  0  0  0  0  0  0  0  0  0  0  0
    6.7492   -3.9076    0.0000 H   0  0  0  0  0  0  0  0  0  0  0  0
  1  2  1  0  0  0  0
  2  3  1  0  0  0  0
  3  4  1  0  0  0  0
  4  5  1  0  0  0  0
  5  6  1  0  0  0  0
  1  6  1  0  0  0  0
  1  5  1  0  0  0  0
  7  8  1  0  0  0  0
  8  9  1  0  0  0  0
  5  8  1  1  0  0  0
  2 10  1  0  0  0  0
  2 11  1  6  0  0  0
  1 12  1  1  0  0  0
M  END
>  <cdx:fragmentId>
50

$$$$
