40529.cdx
  Mrv1902 05222410222D          

 36 40  0  0  0  0            999 V2000
    5.9277   -9.0673    0.0000 C   0  0  2  0  0  0  0  0  0  0  0  0
    5.2133   -8.6548    0.0000 C   0  0  0  0  0  0  0  0  0  0  0  0
    5.2133   -9.4798    0.0000 C   0  0  1  0  0  0  0  0  0  0  0  0
    4.4988   -9.0673    0.0000 C   0  0  0  0  0  0  0  0  0  0  0  0
    3.7843   -9.4798    0.0000 C   0  0  0  0  0  0  0  0  0  0  0  0
    3.7843  -10.3048    0.0000 C   0  0  1  0  0  0  0  0  0  0  0  0
    4.4988  -10.7173    0.0000 C   0  0  0  0  0  0  0  0  0  0  0  0
    5.2133  -10.3048    0.0000 C   0  0  2  0  0  0  0  0  0  0  0  0
    5.9277  -10.7173    0.0000 C   0  0  0  0  0  0  0  0  0  0  0  0
    6.6422  -10.3048    0.0000 C   0  0  0  0  0  0  0  0  0  0  0  0
    6.6422   -9.4798    0.0000 C   0  0  1  0  0  0  0  0  0  0  0  0
    7.3567   -9.0673    0.0000 C   0  0  2  0  0  0  0  0  0  0  0  0
    8.1413   -9.3223    0.0000 C   0  0  0  0  0  0  0  0  0  0  0  0
    8.6262   -8.6548    0.0000 C   0  0  0  0  0  0  0  0  0  0  0  0
    8.1413   -7.9874    0.0000 C   0  0  2  0  0  0  0  0  0  0  0  0
    7.3567   -8.2423    0.0000 C   0  0  1  0  0  0  0  0  0  0  0  0
    6.6422   -7.8298    0.0000 C   0  0  0  0  0  0  0  0  0  0  0  0
    5.9277   -8.2423    0.0000 C   0  0  0  0  0  0  0  0  0  0  0  0
    3.0699  -10.7173    0.0000 O   0  0  0  0  0  0  0  0  0  0  0  0
    7.4429   -7.4219    0.0000 C   0  0  0  0  0  0  0  0  0  0  0  0
    7.3567   -9.8923    0.0000 C   0  0  0  0  0  0  0  0  0  0  0  0
    4.9113  -11.4318    0.0000 C   0  0  0  0  0  0  0  0  0  0  0  0
    4.0863  -11.4318    0.0000 C   0  0  0  0  0  0  0  0  0  0  0  0
    7.8442   -6.5897    0.0000 C   0  0  0  0  0  0  0  0  0  0  0  0
    8.3962   -7.2028    0.0000 C   0  0  1  0  0  0  0  0  0  0  0  0
    9.2032   -7.0313    0.0000 C   0  0  0  0  0  0  0  0  0  0  0  0
    9.4582   -6.2466    0.0000 C   0  0  0  0  0  0  0  0  0  0  0  0
   10.2651   -6.0751    0.0000 C   0  0  0  0  0  0  0  0  0  0  0  0
   10.5201   -5.2905    0.0000 C   0  0  0  0  0  0  0  0  0  0  0  0
    9.9680   -4.6774    0.0000 C   0  0  0  0  0  0  0  0  0  0  0  0
   11.3270   -5.1190    0.0000 C   0  0  0  0  0  0  0  0  0  0  0  0
   10.8172   -6.6882    0.0000 C   0  0  0  0  0  0  0  0  0  0  0  0
   11.6241   -6.5167    0.0000 C   0  0  0  0  0  0  0  0  0  0  0  0
    6.6422   -8.6548    0.0000 H   0  0  0  0  0  0  0  0  0  0  0  0
    8.9561   -7.8583    0.0000 H   0  0  0  0  0  0  0  0  0  0  0  0
    5.2133  -11.1298    0.0000 H   0  0  0  0  0  0  0  0  0  0  0  0
  1  2  1  1  0  0  0
  3  2  1  1  0  0  0
  3  4  1  0  0  0  0
  4  5  1  0  0  0  0
  5  6  1  0  0  0  0
  6  7  1  0  0  0  0
  7  8  1  0  0  0  0
  8  9  1  0  0  0  0
  9 10  1  0  0  0  0
 10 11  1  0  0  0  0
 11 12  1  0  0  0  0
 12 13  1  0  0  0  0
 13 14  1  0  0  0  0
 15 14  1  0  0  0  0
 15 16  1  0  0  0  0
 16 17  1  0  0  0  0
 17 18  1  0  0  0  0
  1 18  1  0  0  0  0
  1 11  1  0  0  0  0
 12 16  1  0  0  0  0
  3  8  1  0  0  0  0
  1  3  1  0  0  0  0
  6 19  1  1  0  0  0
 16 20  1  1  0  0  0
 12 21  1  6  0  0  0
  7 22  1  0  0  0  0
  7 23  1  0  0  0  0
 25 24  1  1  0  0  0
 25 26  1  0  0  0  0
 26 27  1  0  0  0  0
 27 28  1  0  0  0  0
 28 29  1  0  0  0  0
 29 30  2  0  0  0  0
 29 31  1  0  0  0  0
 32 33  1  0  0  0  0
 28 32  1  0  0  0  0
 15 25  1  0  0  0  0
 11 34  1  1  0  0  0
 15 35  1  1  0  0  0
  8 36  1  6  0  0  0
M  END
>  <cdx:fragmentId>
5

$$$$
