40528.cdx
  Mrv1902 05222410232D          

 16 18  0  0  0  0            999 V2000
    5.6159   -9.8058    0.0000 C   0  0  0  0  0  0  0  0  0  0  0  0
    5.9338  -10.5671    0.0000 C   0  0  0  0  0  0  0  0  0  0  0  0
    6.6969  -10.8806    0.0000 C   0  0  0  0  0  0  0  0  0  0  0  0
    7.4582  -10.5626    0.0000 C   0  0  0  0  0  0  0  0  0  0  0  0
    7.7717   -9.7995    0.0000 C   0  0  0  0  0  0  0  0  0  0  0  0
    8.0432  -11.1443    0.0000 C   0  0  0  0  0  0  0  0  0  0  0  0
    7.8320  -11.9418    0.0000 C   0  0  0  0  0  0  0  0  0  0  0  0
    8.8395  -10.9284    0.0000 C   0  0  0  0  0  0  0  0  0  0  0  0
    7.1529   -8.9888    0.0000 C   0  0  0  0  0  0  0  0  0  0  0  0
    4.7909   -9.8058    0.0000 C   0  0  0  0  0  0  0  0  0  0  0  0
    6.6663   -9.6514    0.0000 C   0  0  0  0  0  0  0  0  0  0  0  0
    5.9729   -8.3668    0.0000 C   0  0  0  0  0  0  0  0  0  0  0  0
    6.2425   -7.7000    0.0000 C   0  0  0  0  0  0  0  0  0  0  0  0
    7.0675   -7.7000    0.0000 C   0  0  0  0  0  0  0  0  0  0  0  0
    5.1760   -8.5803    0.0000 C   0  0  0  0  0  0  0  0  0  0  0  0
    4.5927   -7.9969    0.0000 O   0  0  0  0  0  0  0  0  0  0  0  0
  1  2  1  0  0  0  0
  2  3  1  0  0  0  0
  3  4  1  0  0  0  0
  4  5  1  0  0  0  0
  4  6  1  0  0  0  0
  6  7  1  0  0  0  0
  6  8  1  0  0  0  0
  5  9  1  0  0  0  0
  9  1  1  0  0  0  0
  1 10  1  0  0  0  0
  1 11  1  0  0  0  0
 11  5  1  0  0  0  0
 11 12  1  0  0  0  0
 12 13  2  0  0  0  0
 13 14  1  0  0  0  0
 14  9  1  0  0  0  0
 12 15  1  0  0  0  0
 15 16  1  0  0  0  0
M  END
>  <cdx:fragmentId>
5

$$$$
