4052.cdx
  Mrv1902 05222410262D          

 11 11  0  0  0  0            999 V2000
    6.1993   -4.8114    0.0000 C   0  0  0  0  0  0  0  0  0  0  0  0
    6.1993   -5.6364    0.0000 C   0  0  0  0  0  0  0  0  0  0  0  0
    6.9138   -6.0489    0.0000 C   0  0  1  0  0  0  0  0  0  0  0  0
    7.6282   -5.6364    0.0000 C   0  0  0  0  0  0  0  0  0  0  0  0
    7.6282   -4.8114    0.0000 C   0  0  0  0  0  0  0  0  0  0  0  0
    6.9138   -4.3989    0.0000 C   0  0  1  0  0  0  0  0  0  0  0  0
    6.5013   -3.6844    0.0000 C   0  0  0  0  0  0  0  0  0  0  0  0
    7.3263   -3.6844    0.0000 O   0  0  0  0  0  0  0  0  0  0  0  0
    6.9138   -6.8739    0.0000 C   0  0  0  0  0  0  0  0  0  0  0  0
    7.6282   -7.2864    0.0000 C   0  0  0  0  0  0  0  0  0  0  0  0
    6.1993   -7.2864    0.0000 C   0  0  0  0  0  0  0  0  0  0  0  0
  1  2  1  0  0  0  0
  2  3  1  0  0  0  0
  3  4  1  0  0  0  0
  4  5  2  0  0  0  0
  5  6  1  0  0  0  0
  6  1  1  0  0  0  0
  6  7  1  0  0  0  0
  6  8  1  1  0  0  0
  3  9  1  1  0  0  0
  9 10  2  0  0  0  0
  9 11  1  0  0  0  0
M  END
>  <cdx:fragmentId>
5

$$$$
