4053.cdx
  Mrv1902 05222410272D          

 11 10  0  0  0  0            999 V2000
    3.0484   -8.3325    0.0000 O   0  0  0  0  0  0  0  0  0  0  0  0
    3.7628   -7.9200    0.0000 C   0  0  0  0  0  0  0  0  0  0  0  0
    4.4773   -7.5075    0.0000 C   0  0  0  0  0  0  0  0  0  0  0  0
    5.1918   -7.9200    0.0000 C   0  0  0  0  0  0  0  0  0  0  0  0
    5.9063   -7.5075    0.0000 C   0  0  0  0  0  0  0  0  0  0  0  0
    6.6207   -7.9200    0.0000 C   0  0  0  0  0  0  0  0  0  0  0  0
    7.3352   -7.5075    0.0000 C   0  0  0  0  0  0  0  0  0  0  0  0
    8.0497   -7.9200    0.0000 C   0  0  0  0  0  0  0  0  0  0  0  0
    6.6207   -8.7450    0.0000 C   0  0  0  0  0  0  0  0  0  0  0  0
    3.3503   -7.2055    0.0000 C   0  0  0  0  0  0  0  0  0  0  0  0
    4.1753   -8.6345    0.0000 C   0  0  0  0  0  0  0  0  0  0  0  0
  1  2  1  0  0  0  0
  2  3  1  0  0  0  0
  3  4  2  0  0  0  0
  4  5  1  0  0  0  0
  5  6  1  0  0  0  0
  6  7  1  0  0  0  0
  7  8  2  0  0  0  0
  6  9  2  0  0  0  0
  2 10  1  0  0  0  0
  2 11  1  0  0  0  0
M  END
>  <cdx:fragmentId>
3

$$$$
