40534.cdx
  Mrv1902 05222410252D          

 42 46  0  0  0  0            999 V2000
    3.8068  -10.5039    0.0000 C   0  0  1  0  0  0  0  0  0  0  0  0
    3.8068  -11.3289    0.0000 C   0  0  1  0  0  0  0  0  0  0  0  0
    4.5213  -11.7414    0.0000 C   0  0  2  0  0  0  0  0  0  0  0  0
    5.2357  -11.3289    0.0000 C   0  0  2  0  0  0  0  0  0  0  0  0
    5.2357  -10.5039    0.0000 C   0  0  1  0  0  0  0  0  0  0  0  0
    4.5213  -10.0914    0.0000 O   0  0  0  0  0  0  0  0  0  0  0  0
    5.9502  -10.0914    0.0000 O   0  0  0  0  0  0  0  0  0  0  0  0
    5.9502   -9.2664    0.0000 C   0  0  2  0  0  0  0  0  0  0  0  0
    5.2357   -8.8539    0.0000 C   0  0  1  0  0  0  0  0  0  0  0  0
    4.5213   -9.2664    0.0000 O   0  0  0  0  0  0  0  0  0  0  0  0
    6.6647   -8.8539    0.0000 C   0  0  1  0  0  0  0  0  0  0  0  0
    6.6647   -8.0289    0.0000 O   0  0  0  0  0  0  0  0  0  0  0  0
    5.9502   -7.6164    0.0000 C   0  0  1  0  0  0  0  0  0  0  0  0
    5.2357   -8.0289    0.0000 C   0  0  1  0  0  0  0  0  0  0  0  0
    5.9502   -6.7914    0.0000 C   0  0  0  0  0  0  0  0  0  0  0  0
    5.2357   -6.3789    0.0000 O   0  0  0  0  0  0  0  0  0  0  0  0
    4.5213   -7.6164    0.0000 O   0  0  0  0  0  0  0  0  0  0  0  0
    6.6647  -10.5039    0.0000 O   0  0  0  0  0  0  0  0  0  0  0  0
    7.3792  -10.0914    0.0000 C   0  0  0  0  0  0  0  0  0  0  0  0
    7.3792   -9.2664    0.0000 C   0  0  0  0  0  0  0  0  0  0  0  0
    8.0936  -10.5039    0.0000 C   0  0  0  0  0  0  0  0  0  0  0  0
    8.8081  -10.0914    0.0000 C   0  0  0  0  0  0  0  0  0  0  0  0
    8.8081   -9.2664    0.0000 C   0  0  0  0  0  0  0  0  0  0  0  0
    8.0936   -8.8539    0.0000 C   0  0  0  0  0  0  0  0  0  0  0  0
    9.5226   -8.8539    0.0000 C   0  0  0  0  0  0  0  0  0  0  0  0
    9.5226   -8.0289    0.0000 C   0  0  0  0  0  0  0  0  0  0  0  0
    8.8081   -7.6164    0.0000 C   0  0  0  0  0  0  0  0  0  0  0  0
    8.0936   -8.0289    0.0000 O   0  0  0  0  0  0  0  0  0  0  0  0
    8.8081   -6.7914    0.0000 C   0  0  0  0  0  0  0  0  0  0  0  0
    8.0936   -6.3789    0.0000 C   0  0  0  0  0  0  0  0  0  0  0  0
    9.5226   -6.3789    0.0000 C   0  0  0  0  0  0  0  0  0  0  0  0
    9.5226   -5.5539    0.0000 C   0  0  0  0  0  0  0  0  0  0  0  0
    8.8081   -5.1414    0.0000 C   0  0  0  0  0  0  0  0  0  0  0  0
    8.0936   -5.5539    0.0000 C   0  0  0  0  0  0  0  0  0  0  0  0
    8.8081   -4.3164    0.0000 O   0  0  0  0  0  0  0  0  0  0  0  0
   10.2370   -9.2664    0.0000 O   0  0  0  0  0  0  0  0  0  0  0  0
    9.5226  -10.5039    0.0000 O   0  0  0  0  0  0  0  0  0  0  0  0
    3.0923  -11.7414    0.0000 O   0  0  0  0  0  0  0  0  0  0  0  0
    3.0923  -10.0914    0.0000 C   0  0  0  0  0  0  0  0  0  0  0  0
    4.5213  -12.5664    0.0000 O   0  0  0  0  0  0  0  0  0  0  0  0
    5.9502  -11.7414    0.0000 O   0  0  0  0  0  0  0  0  0  0  0  0
    7.3792   -8.4414    0.0000 H   0  0  0  0  0  0  0  0  0  0  0  0
  1  2  1  0  0  0  0
  2  3  1  0  0  0  0
  3  4  1  0  0  0  0
  4  5  1  0  0  0  0
  5  6  1  0  0  0  0
  6  1  1  0  0  0  0
  5  7  1  1  0  0  0
  8  7  1  6  0  0  0
  8  9  1  0  0  0  0
  9 10  1  1  0  0  0
  8 11  1  0  0  0  0
 11 12  1  0  0  0  0
 12 13  1  0  0  0  0
 13 14  1  0  0  0  0
 14  9  1  0  0  0  0
 13 15  1  1  0  0  0
 15 16  1  0  0  0  0
 14 17  1  6  0  0  0
 18 19  1  0  0  0  0
 19 20  2  0  0  0  0
 20 11  1  0  0  0  0
 19 21  1  0  0  0  0
 21 22  2  0  0  0  0
 22 23  1  0  0  0  0
 23 24  2  0  0  0  0
 24 20  1  0  0  0  0
 23 25  1  0  0  0  0
 25 26  1  0  0  0  0
 26 27  2  0  0  0  0
 27 28  1  0  0  0  0
 28 24  1  0  0  0  0
 27 29  1  0  0  0  0
 29 30  1  0  0  0  0
 29 31  2  0  0  0  0
 31 32  1  0  0  0  0
 32 33  2  0  0  0  0
 33 34  1  0  0  0  0
 34 30  2  0  0  0  0
 33 35  1  0  0  0  0
 25 36  2  0  0  0  0
 22 37  1  0  0  0  0
  2 38  1  1  0  0  0
  1 39  1  6  0  0  0
  3 40  1  6  0  0  0
  4 41  1  6  0  0  0
 11 42  1  6  0  0  0
M  END
>  <cdx:fragmentId>
5

$$$$
