40530.cdx
  Mrv1902 05222410232D          

 19 20  0  0  0  0            999 V2000
    9.5561   -6.1529    0.0000 C   0  0  0  0  0  0  0  0  0  0  0  0
    8.8442   -5.7360    0.0000 C   0  0  0  0  0  0  0  0  0  0  0  0
    8.1272   -6.1441    0.0000 C   0  0  0  0  0  0  0  0  0  0  0  0
    8.1221   -6.9691    0.0000 C   0  0  0  0  0  0  0  0  0  0  0  0
    8.8340   -7.3860    0.0000 C   0  0  0  0  0  0  0  0  0  0  0  0
    9.5510   -6.9779    0.0000 C   0  0  0  0  0  0  0  0  0  0  0  0
   10.2731   -5.7448    0.0000 O   0  0  0  0  0  0  0  0  0  0  0  0
   10.2630   -7.3948    0.0000 O   0  0  0  0  0  0  0  0  0  0  0  0
   10.9774   -6.9823    0.0000 C   0  0  0  0  0  0  0  0  0  0  0  0
    7.4051   -7.3771    0.0000 C   0  0  0  0  0  0  0  0  0  0  0  0
    6.6932   -6.9602    0.0000 C   0  0  0  0  0  0  0  0  0  0  0  0
    5.9762   -7.3683    0.0000 C   0  0  0  0  0  0  0  0  0  0  0  0
    5.2643   -6.9514    0.0000 C   0  0  0  0  0  0  0  0  0  0  0  0
    4.5473   -7.3595    0.0000 C   0  0  0  0  0  0  0  0  0  0  0  0
    4.5422   -8.1845    0.0000 C   0  0  0  0  0  0  0  0  0  0  0  0
    5.2541   -8.6014    0.0000 C   0  0  0  0  0  0  0  0  0  0  0  0
    5.9711   -8.1933    0.0000 C   0  0  0  0  0  0  0  0  0  0  0  0
    3.8354   -6.9426    0.0000 O   0  0  0  0  0  0  0  0  0  0  0  0
    5.2490   -9.4264    0.0000 O   0  0  0  0  0  0  0  0  0  0  0  0
  1  2  2  0  0  0  0
  2  3  1  0  0  0  0
  3  4  2  0  0  0  0
  4  5  1  0  0  0  0
  5  6  2  0  0  0  0
  6  1  1  0  0  0  0
  1  7  1  0  0  0  0
  6  8  1  0  0  0  0
  8  9  1  0  0  0  0
  4 10  1  0  0  0  0
 10 11  1  0  0  0  0
 11 12  1  0  0  0  0
 12 13  2  0  0  0  0
 13 14  1  0  0  0  0
 14 15  2  0  0  0  0
 15 16  1  0  0  0  0
 16 17  2  0  0  0  0
 17 12  1  0  0  0  0
 14 18  1  0  0  0  0
 16 19  1  0  0  0  0
M  END
>  <cdx:fragmentId>
5

$$$$
