40532.cdx
  Mrv1902 05222410242D          

 11 10  0  0  0  0            999 V2000
    3.4350   -6.8739    0.0000 C   0  0  0  0  0  0  0  0  0  0  0  0
    4.1495   -6.4614    0.0000 C   0  0  0  0  0  0  0  0  0  0  0  0
    4.8640   -6.8739    0.0000 C   0  0  0  0  0  0  0  0  0  0  0  0
    5.5784   -6.4614    0.0000 C   0  0  0  0  0  0  0  0  0  0  0  0
    6.2929   -6.8739    0.0000 C   0  0  0  0  0  0  0  0  0  0  0  0
    7.0074   -6.4614    0.0000 C   0  0  0  0  0  0  0  0  0  0  0  0
    7.7219   -6.8739    0.0000 C   0  0  0  0  0  0  0  0  0  0  0  0
    8.4363   -6.4614    0.0000 C   0  0  0  0  0  0  0  0  0  0  0  0
    9.1508   -6.8739    0.0000 C   0  0  0  0  0  0  0  0  0  0  0  0
    9.8653   -6.4614    0.0000 C   0  0  0  0  0  0  0  0  0  0  0  0
   10.5797   -6.8739    0.0000 C   0  0  0  0  0  0  0  0  0  0  0  0
  1  2  1  0  0  0  0
  2  3  1  0  0  0  0
  3  4  1  0  0  0  0
  4  5  1  0  0  0  0
  5  6  1  0  0  0  0
  6  7  1  0  0  0  0
  7  8  1  0  0  0  0
  8  9  1  0  0  0  0
  9 10  1  0  0  0  0
 10 11  1  0  0  0  0
M  END
>  <cdx:fragmentId>
3

$$$$
