40549.cdx
  Mrv1902 05222410192D          

 12 13  0  0  0  0            999 V2000
    6.2352   -7.2139    0.0000 C   0  0  0  0  0  0  0  0  0  0  0  0
    7.0319   -6.9998    0.0000 C   0  0  1  0  0  0  0  0  0  0  0  0
    7.8286   -7.2139    0.0000 C   0  0  0  0  0  0  0  0  0  0  0  0
    8.2423   -6.5002    0.0000 C   0  0  0  0  0  0  0  0  0  0  0  0
    5.9613   -6.6102    0.0000 C   0  0  0  0  0  0  0  0  0  0  0  0
    7.4455   -6.2861    0.0000 C   0  0  1  0  0  0  0  0  0  0  0  0
    7.0333   -5.5724    0.0000 C   0  0  0  0  0  0  0  0  0  0  0  0
    6.7925   -7.7550    0.0000 H   0  0  0  0  0  0  0  0  0  0  0  0
    7.9200   -5.6925    0.0000 H   0  0  0  0  0  0  0  0  0  0  0  0
    6.4500   -4.9891    0.0000 C   0  0  0  0  0  0  0  0  0  0  0  0
    7.2469   -4.7755    0.0000 C   0  0  0  0  0  0  0  0  0  0  0  0
    5.8829   -7.9599    0.0000 C   0  0  0  0  0  0  0  0  0  0  0  0
  1  2  1  0  0  0  0
  2  3  1  0  0  0  0
  3  4  1  0  0  0  0
  1  5  1  0  0  0  0
  5  6  1  0  0  0  0
  4  6  1  0  0  0  0
  6  7  1  0  0  0  0
  2  7  1  0  0  0  0
  2  8  1  1  0  0  0
  6  9  1  6  0  0  0
  7 10  1  0  0  0  0
  7 11  1  0  0  0  0
  1 12  2  0  0  0  0
M  END
>  <cdx:fragmentId>
834

$$$$
