40547.cdx
  Mrv1902 05222410262D          

 27 27  0  0  0  0            999 V2000
    7.8540  -11.1537    0.0000 C   0  0  0  0  0  0  0  0  0  0  0  0
    6.8436  -12.1641    0.0000 C   0  0  0  0  0  0  0  0  0  0  0  0
    7.0571  -11.3672    0.0000 C   0  0  0  0  0  0  0  0  0  0  0  0
    6.4738  -10.7838    0.0000 C   0  0  0  0  0  0  0  0  0  0  0  0
    8.6172   -6.4674    0.0000 C   0  0  0  0  0  0  0  0  0  0  0  0
    8.6172   -8.1174    0.0000 O   0  0  0  0  0  0  0  0  0  0  0  0
    7.9027   -6.8799    0.0000 C   0  0  0  0  0  0  0  0  0  0  0  0
    7.9027   -7.7049    0.0000 C   0  0  0  0  0  0  0  0  0  0  0  0
    3.6159   -6.8799    0.0000 C   0  0  0  0  0  0  0  0  0  0  0  0
    4.3304   -5.6424    0.0000 C   0  0  0  0  0  0  0  0  0  0  0  0
    4.3304   -6.4674    0.0000 C   0  0  0  0  0  0  0  0  0  0  0  0
    5.0448   -6.8799    0.0000 C   0  0  0  0  0  0  0  0  0  0  0  0
    5.0448   -7.7049    0.0000 C   0  0  0  0  0  0  0  0  0  0  0  0
    6.4738   -6.8799    0.0000 O   0  0  0  0  0  0  0  0  0  0  0  0
    7.9027   -9.3549    0.0000 O   0  0  0  0  0  0  0  0  0  0  0  0
    6.8863  -10.0694    0.0000 C   0  0  0  0  0  0  0  0  0  0  0  0
    6.0613  -10.0694    0.0000 O   0  0  0  0  0  0  0  0  0  0  0  0
    5.0448   -9.3549    0.0000 O   0  0  0  0  0  0  0  0  0  0  0  0
    6.4738   -9.3549    0.0000 C   0  0  0  0  0  0  0  0  0  0  0  0
    7.1882   -8.9424    0.0000 C   0  0  0  0  0  0  0  0  0  0  0  0
    7.1882   -8.1174    0.0000 C   0  0  0  0  0  0  0  0  0  0  0  0
    6.4738   -7.7049    0.0000 C   0  0  0  0  0  0  0  0  0  0  0  0
    5.7593   -8.1174    0.0000 C   0  0  0  0  0  0  0  0  0  0  0  0
    5.7593   -8.9424    0.0000 C   0  0  0  0  0  0  0  0  0  0  0  0
    8.6172   -5.6424    0.0000 C   0  0  0  0  0  0  0  0  0  0  0  0
    9.3317   -6.8799    0.0000 C   0  0  0  0  0  0  0  0  0  0  0  0
    9.3317   -5.2299    0.0000 C   0  0  0  0  0  0  0  0  0  0  0  0
  3  1  1  0  0  0  0
  3  2  1  0  0  0  0
  4  3  2  0  0  0  0
 16  4  1  0  0  0  0
  7  5  1  0  0  0  0
  8  6  2  0  0  0  0
  8  7  1  0  0  0  0
 21  8  1  0  0  0  0
 11  9  1  0  0  0  0
 11 10  1  0  0  0  0
 12 11  2  0  0  0  0
 13 12  1  0  0  0  0
 23 13  1  0  0  0  0
 22 14  1  0  0  0  0
 20 15  2  0  0  0  0
 19 16  1  0  0  0  0
 19 17  1  0  0  0  0
 24 18  1  0  0  0  0
 19 24  1  0  0  0  0
 20 19  1  0  0  0  0
 21 20  1  0  0  0  0
 22 21  2  0  0  0  0
 23 22  1  0  0  0  0
 24 23  2  0  0  0  0
  5 25  1  0  0  0  0
  5 26  1  0  0  0  0
 25 27  1  0  0  0  0
M  END
>  <cdx:fragmentId>
5

$$$$
