40558.cdx
  Mrv1902 05222410182D          

 10  9  0  0  0  0            999 V2000
    3.1875   -6.7089    0.0000 C   0  0  0  0  0  0  0  0  0  0  0  0
    3.9020   -6.2964    0.0000 C   0  0  0  0  0  0  0  0  0  0  0  0
    4.6165   -6.7089    0.0000 C   0  0  0  0  0  0  0  0  0  0  0  0
    5.3309   -6.2964    0.0000 C   0  0  0  0  0  0  0  0  0  0  0  0
    6.0454   -6.7089    0.0000 C   0  0  0  0  0  0  0  0  0  0  0  0
    6.7599   -6.2964    0.0000 C   0  0  0  0  0  0  0  0  0  0  0  0
    7.4744   -6.7089    0.0000 C   0  0  0  0  0  0  0  0  0  0  0  0
    8.1888   -6.2964    0.0000 C   0  0  0  0  0  0  0  0  0  0  0  0
    4.6165   -7.5339    0.0000 C   0  0  0  0  0  0  0  0  0  0  0  0
    7.4744   -7.5339    0.0000 C   0  0  0  0  0  0  0  0  0  0  0  0
  1  2  2  0  0  0  0
  2  3  1  0  0  0  0
  3  4  1  0  0  0  0
  4  5  1  0  0  0  0
  5  6  1  0  0  0  0
  6  7  1  0  0  0  0
  7  8  1  0  0  0  0
  3  9  2  0  0  0  0
  7 10  2  0  0  0  0
M  END
>  <cdx:fragmentId>
3

$$$$
