40567.cdx
  Mrv1902 05222410182D          

 14 14  0  0  0  0            999 V2000
    5.2093   -9.5139    0.0000 C   0  0  0  0  0  0  0  0  0  0  0  0
    5.2093  -10.3389    0.0000 C   0  0  0  0  0  0  0  0  0  0  0  0
    5.9238  -10.7514    0.0000 C   0  0  0  0  0  0  0  0  0  0  0  0
    6.6382  -10.3389    0.0000 C   0  0  0  0  0  0  0  0  0  0  0  0
    6.6382   -9.5139    0.0000 C   0  0  0  0  0  0  0  0  0  0  0  0
    5.9238   -9.1014    0.0000 C   0  0  0  0  0  0  0  0  0  0  0  0
    5.9238  -11.5764    0.0000 C   0  0  0  0  0  0  0  0  0  0  0  0
    5.9238   -8.2764    0.0000 C   0  0  0  0  0  0  0  0  0  0  0  0
    5.9238   -7.4514    0.0000 O   0  0  0  0  0  0  0  0  0  0  0  0
    6.7488   -8.2764    0.0000 C   0  0  0  0  0  0  0  0  0  0  0  0
    5.0988   -8.2764    0.0000 C   0  0  0  0  0  0  0  0  0  0  0  0
    6.6382   -7.0389    0.0000 C   0  0  0  0  0  0  0  0  0  0  0  0
    7.3527   -7.4514    0.0000 O   0  0  0  0  0  0  0  0  0  0  0  0
    6.6382   -6.2139    0.0000 C   0  0  0  0  0  0  0  0  0  0  0  0
  1  2  1  0  0  0  0
  2  3  1  0  0  0  0
  3  4  2  0  0  0  0
  4  5  1  0  0  0  0
  5  6  1  0  0  0  0
  6  1  1  0  0  0  0
  3  7  1  0  0  0  0
  6  8  1  0  0  0  0
  8  9  1  0  0  0  0
  8 10  1  0  0  0  0
  8 11  1  0  0  0  0
  9 12  1  0  0  0  0
 12 13  2  0  0  0  0
 12 14  1  0  0  0  0
M  END
>  <cdx:fragmentId>
5

$$$$
