40576.cdx
  Mrv1902 05222410202D          

 15 16  0  0  0  0            999 V2000
    6.6631   -4.9602    0.0000 C   0  0  0  0  0  0  0  0  0  0  0  0
    7.4880   -4.9640    0.0000 C   0  0  0  0  0  0  0  0  0  0  0  0
    7.9038   -4.2514    0.0000 C   0  0  1  0  0  0  0  0  0  0  0  0
    7.4945   -3.5350    0.0000 C   0  0  0  0  0  0  0  0  0  0  0  0
    6.6695   -3.5313    0.0000 C   0  0  0  0  0  0  0  0  0  0  0  0
    6.2538   -4.2439    0.0000 C   0  0  0  0  0  0  0  0  0  0  0  0
    8.3881   -4.9192    0.0000 C   0  0  2  0  0  0  0  0  0  0  0  0
    9.1730   -4.6649    0.0000 C   0  0  0  0  0  0  0  0  0  0  0  0
    9.1730   -3.8399    0.0000 C   0  0  0  0  0  0  0  0  0  0  0  0
    8.3881   -3.5843    0.0000 C   0  0  2  0  0  0  0  0  0  0  0  0
    5.4288   -4.2402    0.0000 C   0  0  0  0  0  0  0  0  0  0  0  0
    8.1334   -2.7997    0.0000 C   0  0  0  0  0  0  0  0  0  0  0  0
    7.3264   -2.6280    0.0000 C   0  0  0  0  0  0  0  0  0  0  0  0
    8.6855   -2.1867    0.0000 C   0  0  0  0  0  0  0  0  0  0  0  0
    8.1326   -5.7036    0.0000 C   0  0  0  0  0  0  0  0  0  0  0  0
  1  2  1  0  0  0  0
  3  2  1  6  0  0  0
  3  4  1  0  0  0  0
  4  5  1  0  0  0  0
  5  6  2  0  0  0  0
  6  1  1  0  0  0  0
  3  7  1  0  0  0  0
  7  8  1  0  0  0  0
  8  9  1  0  0  0  0
  9 10  1  0  0  0  0
 10  3  1  0  0  0  0
  6 11  1  0  0  0  0
 10 12  1  1  0  0  0
 12 13  2  0  0  0  0
 12 14  1  0  0  0  0
  7 15  1  6  0  0  0
M  END
>  <cdx:fragmentId>
5

$$$$
