40589.cdx
  Mrv1902 05222410202D          

 12 12  0  0  0  0            999 V2000
    3.9962   -9.0864    0.0000 C   0  0  0  0  0  0  0  0  0  0  0  0
    3.7355   -9.8691    0.0000 C   0  0  0  0  0  0  0  0  0  0  0  0
    4.3993  -10.3590    0.0000 O   0  0  0  0  0  0  0  0  0  0  0  0
    5.0703   -9.8790    0.0000 C   0  0  2  0  0  0  0  0  0  0  0  0
    4.8212   -9.0925    0.0000 C   0  0  0  0  0  0  0  0  0  0  0  0
    2.9490  -10.1183    0.0000 O   0  0  0  0  0  0  0  0  0  0  0  0
    5.8530  -10.1397    0.0000 C   0  0  0  0  0  0  0  0  0  0  0  0
    6.4702   -9.5922    0.0000 C   0  0  0  0  0  0  0  0  0  0  0  0
    7.2529   -9.8530    0.0000 C   0  0  0  0  0  0  0  0  0  0  0  0
    7.8700   -9.3055    0.0000 C   0  0  0  0  0  0  0  0  0  0  0  0
    8.6528   -9.5662    0.0000 C   0  0  0  0  0  0  0  0  0  0  0  0
    9.2699   -9.0187    0.0000 C   0  0  0  0  0  0  0  0  0  0  0  0
  1  2  1  0  0  0  0
  2  3  1  0  0  0  0
  3  4  1  0  0  0  0
  4  5  1  0  0  0  0
  5  1  1  0  0  0  0
  2  6  2  0  0  0  0
  4  7  1  6  0  0  0
  7  8  1  0  0  0  0
  8  9  1  0  0  0  0
  9 10  1  0  0  0  0
 10 11  1  0  0  0  0
 11 12  1  0  0  0  0
M  END
>  <cdx:fragmentId>
5

$$$$
