40597.cdx
  Mrv1902 05222410272D          

 33 34  0  0  0  0            999 V2000
    9.4803   -7.5719    0.0000 C   0  0  0  0  0  0  0  0  0  0  0  0
    9.4803   -8.2319    0.0000 C   0  0  1  0  0  0  0  0  0  0  0  0
   10.0519   -8.5619    0.0000 C   0  0  1  0  0  0  0  0  0  0  0  0
   10.6235   -8.2319    0.0000 C   0  0  0  0  0  0  0  0  0  0  0  0
   10.6235   -7.5719    0.0000 C   0  0  0  0  0  0  0  0  0  0  0  0
   10.0519   -7.2419    0.0000 C   0  0  0  0  0  0  0  0  0  0  0  0
   11.2512   -8.4359    0.0000 C   0  0  0  0  0  0  0  0  0  0  0  0
   11.6391   -7.9019    0.0000 O   0  0  0  0  0  0  0  0  0  0  0  0
   11.2512   -7.3680    0.0000 C   0  0  0  0  0  0  0  0  0  0  0  0
   11.4220   -6.7305    0.0000 C   0  0  0  0  0  0  0  0  0  0  0  0
   12.0595   -6.5597    0.0000 C   0  0  0  0  0  0  0  0  0  0  0  0
   12.2303   -5.9222    0.0000 C   0  0  0  0  0  0  0  0  0  0  0  0
   12.8678   -5.7513    0.0000 C   0  0  0  0  0  0  0  0  0  0  0  0
   11.4220   -9.0734    0.0000 O   0  0  0  0  0  0  0  0  0  0  0  0
    8.9087   -8.5619    0.0000 O   0  0  0  0  0  0  0  0  0  0  0  0
   10.0396   -9.2219    0.0000 O   0  0  0  0  0  0  0  0  0  0  0  0
    9.4680   -9.5519    0.0000 C   0  0  0  0  0  0  0  0  0  0  0  0
    8.8965   -9.2219    0.0000 C   0  0  0  0  0  0  0  0  0  0  0  0
    8.3249   -9.5519    0.0000 C   0  0  0  0  0  0  0  0  0  0  0  0
    7.7533   -9.2219    0.0000 C   0  0  0  0  0  0  0  0  0  0  0  0
    7.1817   -9.5519    0.0000 C   0  0  0  0  0  0  0  0  0  0  0  0
    6.6101   -9.2219    0.0000 C   0  0  0  0  0  0  0  0  0  0  0  0
    6.0386   -9.5519    0.0000 C   0  0  0  0  0  0  0  0  0  0  0  0
    5.4670   -9.2219    0.0000 C   0  0  0  0  0  0  0  0  0  0  0  0
    4.8954   -9.5519    0.0000 C   0  0  0  0  0  0  0  0  0  0  0  0
    4.3238   -9.2219    0.0000 C   0  0  0  0  0  0  0  0  0  0  0  0
    3.7523   -9.5519    0.0000 C   0  0  0  0  0  0  0  0  0  0  0  0
    3.1807   -9.2219    0.0000 C   0  0  0  0  0  0  0  0  0  0  0  0
    2.6091   -9.5519    0.0000 C   0  0  0  0  0  0  0  0  0  0  0  0
    2.0375   -9.2219    0.0000 C   0  0  0  0  0  0  0  0  0  0  0  0
    1.4660   -9.5519    0.0000 C   0  0  0  0  0  0  0  0  0  0  0  0
    0.8944   -9.2219    0.0000 C   0  0  0  0  0  0  0  0  0  0  0  0
    9.4680  -10.3769    0.0000 O   0  0  0  0  0  0  0  0  0  0  0  0
  1  2  1  0  0  0  0
  2  3  1  0  0  0  0
  3  4  1  0  0  0  0
  4  5  2  0  0  0  0
  5  6  1  0  0  0  0
  6  1  1  0  0  0  0
  4  7  1  0  0  0  0
  7  8  1  0  0  0  0
  8  9  1  0  0  0  0
  9  5  1  0  0  0  0
  9 10  2  0  0  0  0
 10 11  1  0  0  0  0
 11 12  1  0  0  0  0
 12 13  1  0  0  0  0
  7 14  2  0  0  0  0
  2 15  1  1  0  0  0
 17 16  1  0  0  0  0
 18 17  1  0  0  0  0
 19 18  1  0  0  0  0
 20 19  1  0  0  0  0
 21 20  1  0  0  0  0
 22 21  1  0  0  0  0
 23 22  1  0  0  0  0
 24 23  1  0  0  0  0
 25 24  1  0  0  0  0
 26 25  1  0  0  0  0
 27 26  1  0  0  0  0
 28 27  1  0  0  0  0
 29 28  1  0  0  0  0
 30 29  1  0  0  0  0
 31 30  1  0  0  0  0
 32 31  1  0  0  0  0
  3 16  1  1  0  0  0
 17 33  2  0  0  0  0
M  END
>  <cdx:fragmentId>
150

$$$$
