40598.cdx
  Mrv1902 05222410182D          

 11 11  0  0  0  0            999 V2000
    5.6046   -8.4208    0.0000 C   0  0  0  0  0  0  0  0  0  0  0  0
    5.6046   -9.2458    0.0000 C   0  0  0  0  0  0  0  0  0  0  0  0
    6.3191   -9.6583    0.0000 C   0  0  0  0  0  0  0  0  0  0  0  0
    7.0336   -9.2458    0.0000 C   0  0  0  0  0  0  0  0  0  0  0  0
    7.0336   -8.4208    0.0000 C   0  0  0  0  0  0  0  0  0  0  0  0
    6.3191   -8.0083    0.0000 C   0  0  0  0  0  0  0  0  0  0  0  0
    6.3191  -10.4833    0.0000 C   0  0  0  0  0  0  0  0  0  0  0  0
    6.3191   -7.1833    0.0000 C   0  0  0  0  0  0  0  0  0  0  0  0
    6.3191   -6.3583    0.0000 O   0  0  0  0  0  0  0  0  0  0  0  0
    7.1441   -7.1833    0.0000 C   0  0  0  0  0  0  0  0  0  0  0  0
    5.4941   -7.1833    0.0000 C   0  0  0  0  0  0  0  0  0  0  0  0
  1  2  1  0  0  0  0
  2  3  1  0  0  0  0
  3  4  1  0  0  0  0
  4  5  1  0  0  0  0
  5  6  1  0  0  0  0
  6  1  1  0  0  0  0
  3  7  2  0  0  0  0
  6  8  1  0  0  0  0
  8  9  1  0  0  0  0
  8 10  1  0  0  0  0
  8 11  1  0  0  0  0
M  END
>  <cdx:fragmentId>
5

$$$$
