4059.cdx
  Mrv1902 05222410182D          

 13 13  0  0  0  0            999 V2000
    6.9196   -3.6517    0.0000 C   0  0  0  0  0  0  0  0  0  0  0  0
    5.4907   -5.3017    0.0000 C   0  0  0  0  0  0  0  0  0  0  0  0
    4.7762   -4.8892    0.0000 C   0  0  0  0  0  0  0  0  0  0  0  0
    4.7762   -4.0642    0.0000 C   0  0  0  0  0  0  0  0  0  0  0  0
    5.4907   -3.6517    0.0000 C   0  0  0  0  0  0  0  0  0  0  0  0
    6.2052   -4.0642    0.0000 C   0  0  0  0  0  0  0  0  0  0  0  0
    6.2052   -4.8892    0.0000 C   0  0  0  0  0  0  0  0  0  0  0  0
    6.9196   -5.3017    0.0000 O   0  0  0  0  0  0  0  0  0  0  0  0
    8.3486   -6.1267    0.0000 O   0  0  0  0  0  0  0  0  0  0  0  0
    9.7775   -5.3017    0.0000 O   0  0  0  0  0  0  0  0  0  0  0  0
    7.6341   -4.8892    0.0000 C   0  0  0  0  0  0  0  0  0  0  0  0
    8.3486   -5.3017    0.0000 C   0  0  0  0  0  0  0  0  0  0  0  0
    9.0630   -4.8892    0.0000 C   0  0  0  0  0  0  0  0  0  0  0  0
 11  8  1  0  0  0  0
  6  1  1  0  0  0  0
  8  7  1  0  0  0  0
  7  2  2  0  0  0  0
  3  2  1  0  0  0  0
  4  3  2  0  0  0  0
  5  4  1  0  0  0  0
  6  5  2  0  0  0  0
  7  6  1  0  0  0  0
 12  9  1  0  0  0  0
 13 10  1  0  0  0  0
 12 11  1  0  0  0  0
 13 12  1  0  0  0  0
M  END
>  <cdx:groupId>
41

>  <cdx:fragmentId>
17

$$$$
