40609.cdx
  Mrv1902 05222410282D          

 42 41  0  0  0  0            999 V2000
    3.0549  -11.0728    0.0000 C   0  0  0  0  0  0  0  0  0  0  0  0
    3.7691  -10.6605    0.0000 C   0  0  0  0  0  0  0  0  0  0  0  0
    4.4834  -11.0728    0.0000 C   0  0  0  0  0  0  0  0  0  0  0  0
    5.1976  -10.6605    0.0000 C   0  0  0  0  0  0  0  0  0  0  0  0
    5.9119  -11.0728    0.0000 C   0  0  0  0  0  0  0  0  0  0  0  0
    6.6261  -10.6605    0.0000 C   0  0  0  0  0  0  0  0  0  0  0  0
    7.3404  -11.0728    0.0000 C   0  0  0  0  0  0  0  0  0  0  0  0
    8.0546  -10.6605    0.0000 C   0  0  0  0  0  0  0  0  0  0  0  0
    8.7689  -11.0728    0.0000 C   0  0  0  0  0  0  0  0  0  0  0  0
    9.4831  -10.6605    0.0000 C   0  0  0  0  0  0  0  0  0  0  0  0
   10.1974  -11.0728    0.0000 C   0  0  0  0  0  0  0  0  0  0  0  0
   10.9116  -10.6605    0.0000 C   0  0  0  0  0  0  0  0  0  0  0  0
   11.6258  -11.0728    0.0000 C   0  0  0  0  0  0  0  0  0  0  0  0
   12.3401  -10.6605    0.0000 C   0  0  0  0  0  0  0  0  0  0  0  0
   13.0543  -11.0728    0.0000 C   0  0  0  0  0  0  0  0  0  0  0  0
   13.7686  -10.6605    0.0000 C   0  0  0  0  0  0  0  0  0  0  0  0
   14.4828  -11.0728    0.0000 C   0  0  0  0  0  0  0  0  0  0  0  0
   15.1971  -10.6605    0.0000 C   0  0  0  0  0  0  0  0  0  0  0  0
   15.9113  -11.0728    0.0000 C   0  0  0  0  0  0  0  0  0  0  0  0
   16.6256  -10.6605    0.0000 C   0  0  0  0  0  0  0  0  0  0  0  0
   17.3398  -11.0728    0.0000 C   0  0  0  0  0  0  0  0  0  0  0  0
   18.0541  -10.6605    0.0000 C   0  0  0  0  0  0  0  0  0  0  0  0
   18.7683  -11.0728    0.0000 C   0  0  0  0  0  0  0  0  0  0  0  0
   19.4826  -10.6605    0.0000 C   0  0  0  0  0  0  0  0  0  0  0  0
   20.1968  -11.0728    0.0000 C   0  0  0  0  0  0  0  0  0  0  0  0
   20.9110  -10.6605    0.0000 C   0  0  0  0  0  0  0  0  0  0  0  0
   21.6253  -11.0728    0.0000 C   0  0  0  0  0  0  0  0  0  0  0  0
   22.3395  -10.6605    0.0000 C   0  0  0  0  0  0  0  0  0  0  0  0
    2.3406  -10.6605    0.0000 C   0  0  0  0  0  0  0  0  0  0  0  0
    2.3406   -9.8357    0.0000 C   0  0  0  0  0  0  0  0  0  0  0  0
    1.6264   -9.4234    0.0000 C   0  0  0  0  0  0  0  0  0  0  0  0
    1.6264   -8.5986    0.0000 C   0  0  0  0  0  0  0  0  0  0  0  0
    2.3406   -8.1862    0.0000 C   0  0  0  0  0  0  0  0  0  0  0  0
    2.3406   -7.3615    0.0000 C   0  0  0  0  0  0  0  0  0  0  0  0
    3.0549   -6.9491    0.0000 C   0  0  0  0  0  0  0  0  0  0  0  0
    3.0549   -6.1244    0.0000 C   0  0  0  0  0  0  0  0  0  0  0  0
    3.7691   -5.7120    0.0000 C   0  0  0  0  0  0  0  0  0  0  0  0
    8.7689  -11.8976    0.0000 O   0  0  0  0  0  0  0  0  0  0  0  0
    9.4831   -9.8357    0.0000 O   0  0  0  0  0  0  0  0  0  0  0  0
   10.1974  -11.8976    0.0000 O   0  0  0  0  0  0  0  0  0  0  0  0
   10.9116   -9.8357    0.0000 O   0  0  0  0  0  0  0  0  0  0  0  0
   11.6258  -11.8976    0.0000 O   0  0  0  0  0  0  0  0  0  0  0  0
  1  2  1  0  0  0  0
  2  3  1  0  0  0  0
  3  4  1  0  0  0  0
  4  5  1  0  0  0  0
  5  6  1  0  0  0  0
  6  7  1  0  0  0  0
  7  8  1  0  0  0  0
  8  9  1  0  0  0  0
  9 10  1  0  0  0  0
 10 11  1  0  0  0  0
 11 12  1  0  0  0  0
 12 13  1  0  0  0  0
 13 14  1  0  0  0  0
 14 15  1  0  0  0  0
 15 16  1  0  0  0  0
 16 17  1  0  0  0  0
 17 18  1  0  0  0  0
 18 19  1  0  0  0  0
 19 20  1  0  0  0  0
 20 21  1  0  0  0  0
 21 22  1  0  0  0  0
 22 23  1  0  0  0  0
 23 24  1  0  0  0  0
 24 25  1  0  0  0  0
 25 26  1  0  0  0  0
 26 27  1  0  0  0  0
 27 28  1  0  0  0  0
  1 29  2  0  0  0  0
 29 30  1  0  0  0  0
 30 31  1  0  0  0  0
 31 32  2  0  0  0  0
 32 33  1  0  0  0  0
 33 34  1  0  0  0  0
 34 35  1  0  0  0  0
 35 36  1  0  0  0  0
 36 37  1  0  0  0  0
  9 38  2  0  0  0  0
 10 39  1  0  0  0  0
 11 40  1  0  0  0  0
 12 41  1  0  0  0  0
 13 42  2  0  0  0  0
M  END
>  <cdx:fragmentId>
3

$$$$
