40600.cdx
  Mrv1902 05222410202D          

 40 41  0  0  0  0            999 V2000
    1.4384  -13.3089    0.0000 C   0  0  0  0  0  0  0  0  0  0  0  0
    1.4384  -14.1339    0.0000 C   0  0  0  0  0  0  0  0  0  0  0  0
    2.1528  -14.5464    0.0000 C   0  0  0  0  0  0  0  0  0  0  0  0
    2.8673  -14.1339    0.0000 C   0  0  0  0  0  0  0  0  0  0  0  0
    2.8673  -13.3089    0.0000 C   0  0  0  0  0  0  0  0  0  0  0  0
    2.1528  -12.8964    0.0000 C   0  0  0  0  0  0  0  0  0  0  0  0
    2.1566  -12.0866    0.0000 C   0  0  0  0  0  0  0  0  0  0  0  0
    2.8722  -11.6761    0.0000 C   0  0  0  0  0  0  0  0  0  0  0  0
    2.8745  -10.8511    0.0000 C   0  0  0  0  0  0  0  0  0  0  0  0
    3.5901  -10.4405    0.0000 C   0  0  0  0  0  0  0  0  0  0  0  0
    3.5924   -9.6155    0.0000 C   0  0  0  0  0  0  0  0  0  0  0  0
    4.3080   -9.2050    0.0000 C   0  0  0  0  0  0  0  0  0  0  0  0
    4.3103   -8.3800    0.0000 C   0  0  0  0  0  0  0  0  0  0  0  0
    5.0259   -7.9695    0.0000 C   0  0  0  0  0  0  0  0  0  0  0  0
    5.0282   -7.1445    0.0000 C   0  0  0  0  0  0  0  0  0  0  0  0
    5.7438   -6.7340    0.0000 C   0  0  0  0  0  0  0  0  0  0  0  0
    5.7461   -5.9090    0.0000 C   0  0  0  0  0  0  0  0  0  0  0  0
    6.4617   -5.4985    0.0000 C   0  0  0  0  0  0  0  0  0  0  0  0
    6.4640   -4.6735    0.0000 C   0  0  0  0  0  0  0  0  0  0  0  0
    7.1750   -5.9129    0.0000 C   0  0  0  0  0  0  0  0  0  0  0  0
    7.8906   -5.5024    0.0000 C   0  0  0  0  0  0  0  0  0  0  0  0
    8.6039   -5.9169    0.0000 C   0  0  0  0  0  0  0  0  0  0  0  0
    9.3195   -5.5064    0.0000 C   0  0  0  0  0  0  0  0  0  0  0  0
   10.0329   -5.9209    0.0000 C   0  0  0  0  0  0  0  0  0  0  0  0
   10.7485   -5.5103    0.0000 C   0  0  0  0  0  0  0  0  0  0  0  0
   11.4618   -5.9248    0.0000 C   0  0  0  0  0  0  0  0  0  0  0  0
   11.4584   -6.7498    0.0000 C   0  0  0  0  0  0  0  0  0  0  0  0
   12.1711   -7.1653    0.0000 C   0  0  0  0  0  0  0  0  0  0  0  0
   12.8873   -6.7498    0.0000 C   0  0  0  0  0  0  0  0  0  0  0  0
   12.8873   -5.9248    0.0000 C   0  0  0  0  0  0  0  0  0  0  0  0
   12.1711   -5.5093    0.0000 C   0  0  0  0  0  0  0  0  0  0  0  0
    3.5818  -12.8964    0.0000 C   0  0  0  0  0  0  0  0  0  0  0  0
    0.6134  -13.3089    0.0000 C   0  0  0  0  0  0  0  0  0  0  0  0
    1.0259  -12.5944    0.0000 C   0  0  0  0  0  0  0  0  0  0  0  0
   10.7422   -7.1593    0.0000 C   0  0  0  0  0  0  0  0  0  0  0  0
   11.7586   -4.7949    0.0000 C   0  0  0  0  0  0  0  0  0  0  0  0
   12.5836   -4.7949    0.0000 C   0  0  0  0  0  0  0  0  0  0  0  0
    2.1612  -10.4366    0.0000 C   0  0  0  0  0  0  0  0  0  0  0  0
    3.5970   -7.9655    0.0000 C   0  0  0  0  0  0  0  0  0  0  0  0
    9.3218   -4.6814    0.0000 C   0  0  0  0  0  0  0  0  0  0  0  0
  1  2  1  0  0  0  0
  2  3  1  0  0  0  0
  3  4  1  0  0  0  0
  4  5  1  0  0  0  0
  5  6  2  0  0  0  0
  6  1  1  0  0  0  0
  7  8  2  0  0  0  0
  8  9  1  0  0  0  0
  9 10  2  0  0  0  0
 10 11  1  0  0  0  0
 11 12  2  0  0  0  0
 12 13  1  0  0  0  0
 13 14  2  0  0  0  0
 14 15  1  0  0  0  0
 15 16  2  0  0  0  0
 16 17  1  0  0  0  0
 17 18  2  0  0  0  0
  7  6  1  0  0  0  0
 18 19  1  0  0  0  0
 18 20  1  0  0  0  0
 20 21  2  0  0  0  0
 21 22  1  0  0  0  0
 22 23  2  0  0  0  0
 23 24  1  0  0  0  0
 24 25  2  0  0  0  0
 25 26  1  0  0  0  0
 26 27  2  0  0  0  0
 27 28  1  0  0  0  0
 28 29  1  0  0  0  0
 29 30  1  0  0  0  0
 30 31  1  0  0  0  0
 31 26  1  0  0  0  0
  5 32  1  0  0  0  0
  1 33  1  0  0  0  0
  1 34  1  0  0  0  0
 27 35  1  0  0  0  0
 31 36  1  0  0  0  0
 31 37  1  0  0  0  0
  9 38  1  0  0  0  0
 13 39  1  0  0  0  0
 23 40  1  0  0  0  0
M  END
>  <cdx:fragmentId>
21

$$$$
