40613.cdx
  Mrv1902 05222410192D          

 33 35  0  0  0  0            999 V2000
    6.7596  -10.1533    0.0000 C   0  0  2  0  0  0  0  0  0  0  0  0
    6.7596  -10.9783    0.0000 C   0  0  2  0  0  0  0  0  0  0  0  0
    7.4741  -11.3908    0.0000 C   0  0  1  0  0  0  0  0  0  0  0  0
    8.1886  -10.9783    0.0000 C   0  0  2  0  0  0  0  0  0  0  0  0
    8.1886  -10.1533    0.0000 C   0  0  1  0  0  0  0  0  0  0  0  0
    7.4741   -9.7408    0.0000 O   0  0  0  0  0  0  0  0  0  0  0  0
    7.4741  -12.2158    0.0000 O   0  0  0  0  0  0  0  0  0  0  0  0
    8.9030  -11.3908    0.0000 O   0  0  0  0  0  0  0  0  0  0  0  0
    8.9030   -9.7408    0.0000 O   0  0  0  0  0  0  0  0  0  0  0  0
    8.9030   -8.9158    0.0000 C   0  0  0  0  0  0  0  0  0  0  0  0
    8.1886   -8.5033    0.0000 O   0  0  0  0  0  0  0  0  0  0  0  0
    9.6175   -8.5033    0.0000 C   0  0  0  0  0  0  0  0  0  0  0  0
    9.6175   -7.6783    0.0000 C   0  0  0  0  0  0  0  0  0  0  0  0
   10.3320   -8.9158    0.0000 C   0  0  0  0  0  0  0  0  0  0  0  0
   11.0464   -8.5033    0.0000 C   0  0  0  0  0  0  0  0  0  0  0  0
   11.0464   -7.6783    0.0000 C   0  0  0  0  0  0  0  0  0  0  0  0
   10.3320   -7.2658    0.0000 C   0  0  0  0  0  0  0  0  0  0  0  0
   10.3320   -6.4408    0.0000 O   0  0  0  0  0  0  0  0  0  0  0  0
   11.7609   -7.2658    0.0000 O   0  0  0  0  0  0  0  0  0  0  0  0
   11.7609   -8.9158    0.0000 O   0  0  0  0  0  0  0  0  0  0  0  0
    6.0451   -9.7408    0.0000 C   0  0  0  0  0  0  0  0  0  0  0  0
    5.3307  -10.1533    0.0000 O   0  0  0  0  0  0  0  0  0  0  0  0
    6.0451  -11.3908    0.0000 O   0  0  0  0  0  0  0  0  0  0  0  0
    4.6162   -9.7408    0.0000 C   0  0  0  0  0  0  0  0  0  0  0  0
    3.9017  -10.1533    0.0000 C   0  0  0  0  0  0  0  0  0  0  0  0
    4.6162   -8.9158    0.0000 O   0  0  0  0  0  0  0  0  0  0  0  0
    3.1873   -9.7408    0.0000 C   0  0  0  0  0  0  0  0  0  0  0  0
    2.4728  -10.1533    0.0000 C   0  0  0  0  0  0  0  0  0  0  0  0
    1.7583   -9.7408    0.0000 C   0  0  0  0  0  0  0  0  0  0  0  0
    1.0438  -10.1533    0.0000 C   0  0  0  0  0  0  0  0  0  0  0  0
    1.0438  -10.9783    0.0000 C   0  0  0  0  0  0  0  0  0  0  0  0
    1.7583  -11.3908    0.0000 C   0  0  0  0  0  0  0  0  0  0  0  0
    2.4728  -10.9783    0.0000 C   0  0  0  0  0  0  0  0  0  0  0  0
  1  2  1  0  0  0  0
  2  3  1  0  0  0  0
  3  4  1  0  0  0  0
  4  5  1  0  0  0  0
  5  6  1  0  0  0  0
  6  1  1  0  0  0  0
  3  7  1  1  0  0  0
  4  8  1  6  0  0  0
  5  9  1  1  0  0  0
  9 10  1  0  0  0  0
 10 11  2  0  0  0  0
 10 12  1  0  0  0  0
 12 13  1  0  0  0  0
 12 14  2  0  0  0  0
 14 15  1  0  0  0  0
 15 16  2  0  0  0  0
 16 17  1  0  0  0  0
 17 13  2  0  0  0  0
 17 18  1  0  0  0  0
 16 19  1  0  0  0  0
 15 20  1  0  0  0  0
  1 21  1  1  0  0  0
 21 22  1  0  0  0  0
  2 23  1  6  0  0  0
 22 24  1  0  0  0  0
 24 25  1  0  0  0  0
 24 26  2  0  0  0  0
 25 27  2  0  0  0  0
 27 28  1  0  0  0  0
 28 29  2  0  0  0  0
 29 30  1  0  0  0  0
 30 31  2  0  0  0  0
 31 32  1  0  0  0  0
 32 33  2  0  0  0  0
 33 28  1  0  0  0  0
M  END
>  <cdx:fragmentId>
5

$$$$
