40614.cdx
  Mrv1902 05222410202D          

 20 22  0  0  0  0            999 V2000
    7.5885   -5.1122    0.0000 H   0  0  0  0  0  0  0  0  0  0  0  0
    7.5724   -7.5309    0.0000 H   0  0  0  0  0  0  0  0  0  0  0  0
    5.9463   -5.0732    0.0000 C   0  0  0  0  0  0  0  0  0  0  0  0
    5.2346   -4.6559    0.0000 O   0  0  0  0  0  0  0  0  0  0  0  0
    5.2126   -7.9558    0.0000 C   0  0  0  0  0  0  0  0  0  0  0  0
    9.4614   -6.3341    0.0000 O   0  0  0  0  0  0  0  0  0  0  0  0
    8.3968   -7.7791    0.0000 C   0  0  0  0  0  0  0  0  0  0  0  0
    8.1471   -6.9928    0.0000 C   0  0  0  0  0  0  0  0  0  0  0  0
    8.6364   -6.3286    0.0000 C   0  0  0  0  0  0  0  0  0  0  0  0
    8.1560   -5.6580    0.0000 O   0  0  0  0  0  0  0  0  0  0  0  0
    6.6470   -7.1404    0.0000 C   0  0  0  0  0  0  0  0  0  0  0  0
    7.3642   -6.7326    0.0000 C   0  0  1  0  0  0  0  0  0  0  0  0
    7.3697   -5.9077    0.0000 C   0  0  1  0  0  0  0  0  0  0  0  0
    6.6580   -5.4904    0.0000 C   0  0  0  0  0  0  0  0  0  0  0  0
    5.2181   -7.1308    0.0000 C   0  0  2  0  0  0  0  0  0  0  0  0
    5.9353   -6.7231    0.0000 C   0  0  0  0  0  0  0  0  0  0  0  0
    5.9408   -5.8981    0.0000 C   0  0  1  0  0  0  0  0  0  0  0  0
    5.2291   -5.4809    0.0000 C   0  0  1  0  0  0  0  0  0  0  0  0
    4.5119   -5.8886    0.0000 C   0  0  0  0  0  0  0  0  0  0  0  0
    4.5064   -6.7136    0.0000 C   0  0  0  0  0  0  0  0  0  0  0  0
 13  1  1  6  0  0  0
 12  2  1  6  0  0  0
 17  3  1  1  0  0  0
 18  4  1  1  0  0  0
 15  5  1  1  0  0  0
  9  6  2  0  0  0  0
  8  7  2  0  0  0  0
  8 12  1  0  0  0  0
  9  8  1  0  0  0  0
 10  9  1  0  0  0  0
 13 10  1  0  0  0  0
 11 16  2  0  0  0  0
 12 11  1  0  0  0  0
 13 12  1  0  0  0  0
 14 13  1  0  0  0  0
 17 14  1  0  0  0  0
 15 20  1  0  0  0  0
 16 15  1  0  0  0  0
 17 16  1  0  0  0  0
 18 17  1  0  0  0  0
 19 18  1  0  0  0  0
 20 19  1  0  0  0  0
M  END
>  <cdx:fragmentId>
5

$$$$
