40615.cdx
  Mrv1902 05222410202D          

 22 24  0  0  0  0            999 V2000
    6.4709   -9.9883    0.0000 C   0  0  1  0  0  0  0  0  0  0  0  0
    6.4709  -10.8133    0.0000 C   0  0  1  0  0  0  0  0  0  0  0  0
    7.1853  -11.2258    0.0000 C   0  0  0  0  0  0  0  0  0  0  0  0
    7.8998  -10.8133    0.0000 C   0  0  0  0  0  0  0  0  0  0  0  0
    7.8998   -9.9883    0.0000 C   0  0  2  0  0  0  0  0  0  0  0  0
    7.1853   -9.5758    0.0000 C   0  0  2  0  0  0  0  0  0  0  0  0
    8.6143   -9.5758    0.0000 C   0  0  1  0  0  0  0  0  0  0  0  0
    8.6143   -8.7508    0.0000 C   0  0  0  0  0  0  0  0  0  0  0  0
    7.8998   -8.3383    0.0000 C   0  0  0  0  0  0  0  0  0  0  0  0
    7.1853   -8.7508    0.0000 C   0  0  2  0  0  0  0  0  0  0  0  0
    5.6862   -9.7333    0.0000 O   0  0  0  0  0  0  0  0  0  0  0  0
    5.2013  -10.4008    0.0000 C   0  0  0  0  0  0  0  0  0  0  0  0
    5.6862  -11.0682    0.0000 C   0  0  0  0  0  0  0  0  0  0  0  0
    4.3763  -10.4008    0.0000 O   0  0  0  0  0  0  0  0  0  0  0  0
    5.4313  -11.8528    0.0000 C   0  0  0  0  0  0  0  0  0  0  0  0
    6.3603   -8.7508    0.0000 C   0  0  0  0  0  0  0  0  0  0  0  0
    6.7728   -8.0363    0.0000 O   0  0  0  0  0  0  0  0  0  0  0  0
    8.6143  -10.4008    0.0000 C   0  0  0  0  0  0  0  0  0  0  0  0
    9.3288   -9.9883    0.0000 O   0  0  0  0  0  0  0  0  0  0  0  0
    6.3846   -9.1678    0.0000 H   0  0  0  0  0  0  0  0  0  0  0  0
    6.3846  -11.6338    0.0000 H   0  0  0  0  0  0  0  0  0  0  0  0
    7.8998   -9.1633    0.0000 H   0  0  0  0  0  0  0  0  0  0  0  0
  1  2  1  0  0  0  0
  2  3  1  0  0  0  0
  3  4  1  0  0  0  0
  4  5  1  0  0  0  0
  5  6  1  0  0  0  0
  6  1  1  0  0  0  0
  5  7  1  0  0  0  0
  7  8  1  0  0  0  0
  8  9  1  0  0  0  0
  9 10  1  0  0  0  0
 10  6  1  0  0  0  0
  1 11  1  0  0  0  0
 11 12  1  0  0  0  0
 12 13  1  0  0  0  0
 13  2  1  0  0  0  0
 12 14  2  0  0  0  0
 13 15  2  0  0  0  0
 10 16  1  0  0  0  0
 10 17  1  6  0  0  0
  5 18  1  1  0  0  0
  7 19  1  1  0  0  0
  1 20  1  1  0  0  0
  2 21  1  6  0  0  0
  6 22  1  6  0  0  0
M  END
>  <cdx:fragmentId>
5

$$$$
