40622.cdx
  Mrv1902 05222410272D          

 47 50  0  0  0  0            999 V2000
    5.6244   -9.3981    0.0000 C   0  0  1  0  0  0  0  0  0  0  0  0
    5.6244  -10.2231    0.0000 C   0  0  1  0  0  0  0  0  0  0  0  0
    6.3389  -10.6356    0.0000 C   0  0  2  0  0  0  0  0  0  0  0  0
    7.0533  -10.2231    0.0000 C   0  0  2  0  0  0  0  0  0  0  0  0
    7.0533   -9.3981    0.0000 C   0  0  1  0  0  0  0  0  0  0  0  0
    6.3389   -8.9856    0.0000 O   0  0  0  0  0  0  0  0  0  0  0  0
    3.4810   -8.1606    0.0000 C   0  0  0  0  0  0  0  0  0  0  0  0
    3.4810   -8.9856    0.0000 C   0  0  0  0  0  0  0  0  0  0  0  0
    2.7665   -7.7481    0.0000 C   0  0  0  0  0  0  0  0  0  0  0  0
    9.1967   -6.5106    0.0000 O   0  0  0  0  0  0  0  0  0  0  0  0
    9.9112   -6.9231    0.0000 C   0  0  0  0  0  0  0  0  0  0  0  0
   10.6257   -6.5106    0.0000 C   0  0  0  0  0  0  0  0  0  0  0  0
    6.3389   -5.6856    0.0000 O   0  0  0  0  0  0  0  0  0  0  0  0
    9.1967   -8.1606    0.0000 O   0  0  0  0  0  0  0  0  0  0  0  0
    8.4823   -9.3981    0.0000 O   0  0  0  0  0  0  0  0  0  0  0  0
   13.4836   -6.5106    0.0000 O   0  0  0  0  0  0  0  0  0  0  0  0
   13.4836   -8.1606    0.0000 O   0  0  0  0  0  0  0  0  0  0  0  0
   11.3402   -7.7481    0.0000 C   0  0  0  0  0  0  0  0  0  0  0  0
   12.0546   -8.1606    0.0000 C   0  0  0  0  0  0  0  0  0  0  0  0
   12.7691   -7.7481    0.0000 C   0  0  0  0  0  0  0  0  0  0  0  0
   12.7691   -6.9231    0.0000 C   0  0  0  0  0  0  0  0  0  0  0  0
   11.3402   -6.9231    0.0000 C   0  0  0  0  0  0  0  0  0  0  0  0
    9.1967   -8.9856    0.0000 C   0  0  0  0  0  0  0  0  0  0  0  0
    9.9112   -9.3981    0.0000 C   0  0  0  0  0  0  0  0  0  0  0  0
   12.0546   -6.5106    0.0000 C   0  0  0  0  0  0  0  0  0  0  0  0
    2.0520   -8.1606    0.0000 C   0  0  0  0  0  0  0  0  0  0  0  0
    2.0520   -8.9856    0.0000 C   0  0  0  0  0  0  0  0  0  0  0  0
    2.7665   -9.3981    0.0000 C   0  0  0  0  0  0  0  0  0  0  0  0
    1.3376   -7.7481    0.0000 O   0  0  0  0  0  0  0  0  0  0  0  0
    1.3376   -9.3981    0.0000 O   0  0  0  0  0  0  0  0  0  0  0  0
    4.1954   -7.7481    0.0000 C   0  0  0  0  0  0  0  0  0  0  0  0
    4.9099   -8.1606    0.0000 C   0  0  0  0  0  0  0  0  0  0  0  0
    6.3389   -6.5106    0.0000 C   0  0  0  0  0  0  0  0  0  0  0  0
    5.6244   -6.9231    0.0000 O   0  0  0  0  0  0  0  0  0  0  0  0
    5.6244   -7.7481    0.0000 C   0  0  0  0  0  0  0  0  0  0  0  0
    6.3389   -8.1606    0.0000 O   0  0  0  0  0  0  0  0  0  0  0  0
    8.4823   -6.9231    0.0000 C   0  0  2  0  0  0  0  0  0  0  0  0
    7.7678   -6.5106    0.0000 O   0  0  0  0  0  0  0  0  0  0  0  0
    7.0533   -6.9231    0.0000 C   0  0  1  0  0  0  0  0  0  0  0  0
    7.0533   -7.7481    0.0000 C   0  0  2  0  0  0  0  0  0  0  0  0
    8.4823   -7.7481    0.0000 C   0  0  1  0  0  0  0  0  0  0  0  0
    7.7678   -8.1606    0.0000 C   0  0  1  0  0  0  0  0  0  0  0  0
    7.7678   -8.9856    0.0000 O   0  0  0  0  0  0  0  0  0  0  0  0
    4.9099  -10.6356    0.0000 O   0  0  0  0  0  0  0  0  0  0  0  0
    4.9099   -8.9856    0.0000 C   0  0  0  0  0  0  0  0  0  0  0  0
    6.3389  -11.4606    0.0000 O   0  0  0  0  0  0  0  0  0  0  0  0
    7.7678  -10.6356    0.0000 O   0  0  0  0  0  0  0  0  0  0  0  0
  1  2  1  0  0  0  0
  2  3  1  0  0  0  0
  7  8  1  0  0  0  0
 10 11  1  0  0  0  0
 33 13  1  0  0  0  0
 11 12  1  0  0  0  0
 21 16  1  0  0  0  0
 20 17  1  0  0  0  0
 22 12  1  0  0  0  0
 18 22  1  0  0  0  0
 19 18  2  0  0  0  0
 20 19  1  0  0  0  0
 21 20  2  0  0  0  0
 25 21  1  0  0  0  0
 25 22  2  0  0  0  0
 15 23  2  0  0  0  0
 37 10  1  1  0  0  0
 23 14  1  0  0  0  0
  7  9  2  0  0  0  0
  9 26  1  0  0  0  0
 26 27  2  0  0  0  0
 27 28  1  0  0  0  0
 28  8  2  0  0  0  0
 26 29  1  0  0  0  0
 31  7  1  0  0  0  0
 27 30  1  0  0  0  0
 32 31  2  0  0  0  0
 35 32  1  0  0  0  0
 39 33  1  1  0  0  0
 35 34  2  0  0  0  0
 36 35  1  0  0  0  0
 40 36  1  6  0  0  0
 37 41  1  0  0  0  0
 38 37  1  0  0  0  0
 39 38  1  0  0  0  0
 40 39  1  0  0  0  0
 42 40  1  0  0  0  0
 41 14  1  6  0  0  0
 42 41  1  0  0  0  0
 42 43  1  1  0  0  0
  3  4  1  0  0  0  0
 23 24  1  0  0  0  0
  4  5  1  0  0  0  0
  5  6  1  0  0  0  0
  6  1  1  0  0  0  0
  5 43  1  1  0  0  0
  2 44  1  1  0  0  0
  1 45  1  6  0  0  0
  3 46  1  6  0  0  0
  4 47  1  6  0  0  0
M  END
>  <cdx:fragmentId>
5

$$$$
