40625.cdx
  Mrv1902 05222410262D          

 12 12  0  0  0  0            999 V2000
    6.3203   -6.4839    0.0000 C   0  0  0  0  0  0  0  0  0  0  0  0
    6.3203   -5.6589    0.0000 C   0  0  0  0  0  0  0  0  0  0  0  0
    7.0348   -5.2464    0.0000 C   0  0  0  0  0  0  0  0  0  0  0  0
    7.7492   -5.6589    0.0000 C   0  0  0  0  0  0  0  0  0  0  0  0
    7.7492   -6.4839    0.0000 C   0  0  0  0  0  0  0  0  0  0  0  0
    7.0348   -6.8964    0.0000 C   0  0  0  0  0  0  0  0  0  0  0  0
    5.6058   -6.8964    0.0000 O   0  0  0  0  0  0  0  0  0  0  0  0
    8.4637   -6.8964    0.0000 C   0  0  0  0  0  0  0  0  0  0  0  0
    9.1782   -6.4839    0.0000 C   0  0  0  0  0  0  0  0  0  0  0  0
    9.8926   -6.8964    0.0000 C   0  0  0  0  0  0  0  0  0  0  0  0
    5.6058   -5.2464    0.0000 O   0  0  0  0  0  0  0  0  0  0  0  0
    4.8914   -5.6589    0.0000 C   0  0  0  0  0  0  0  0  0  0  0  0
  1  2  1  0  0  0  0
  2  3  2  0  0  0  0
  3  4  1  0  0  0  0
  4  5  2  0  0  0  0
  5  6  1  0  0  0  0
  1  6  2  0  0  0  0
  1  7  1  0  0  0  0
  8  9  2  0  0  0  0
  9 10  1  0  0  0  0
  5  8  1  0  0  0  0
 11 12  1  0  0  0  0
  2 11  1  0  0  0  0
M  END
>  <cdx:fragmentId>
52

$$$$
