40637.cdx
  Mrv1902 05222410272D          

 26 28  0  0  0  0            999 V2000
    8.2518   -7.3598    0.0000 C   0  0  0  0  0  0  0  0  0  0  0  0
    7.5363   -7.7705    0.0000 C   0  0  0  0  0  0  0  0  0  0  0  0
    7.5343   -8.5955    0.0000 C   0  0  2  0  0  0  0  0  0  0  0  0
    8.2477   -9.0098    0.0000 C   0  0  0  0  0  0  0  0  0  0  0  0
    8.2457   -9.8348    0.0000 C   0  0  0  0  0  0  0  0  0  0  0  0
    7.5302  -10.2455    0.0000 C   0  0  0  0  0  0  0  0  0  0  0  0
    6.8168   -9.8313    0.0000 C   0  0  2  0  0  0  0  0  0  0  0  0
    6.1013  -10.2420    0.0000 C   0  0  2  0  0  0  0  0  0  0  0  0
    5.3878   -9.8277    0.0000 C   0  0  1  0  0  0  0  0  0  0  0  0
    5.3899   -9.0027    0.0000 C   0  0  0  0  0  0  0  0  0  0  0  0
    6.1053   -8.5920    0.0000 C   0  0  0  0  0  0  0  0  0  0  0  0
    6.8188   -9.0063    0.0000 C   0  0  1  0  0  0  0  0  0  0  0  0
    8.9632   -8.5991    0.0000 C   0  0  0  0  0  0  0  0  0  0  0  0
    6.8208   -8.1813    0.0000 C   0  0  0  0  0  0  0  0  0  0  0  0
    5.6870  -10.9555    0.0000 C   0  0  0  0  0  0  0  0  0  0  0  0
    6.5120  -10.9575    0.0000 C   0  0  0  0  0  0  0  0  0  0  0  0
    6.0977  -11.6709    0.0000 O   0  0  0  0  0  0  0  0  0  0  0  0
    4.6723  -10.2385    0.0000 O   0  0  0  0  0  0  0  0  0  0  0  0
    6.8147  -10.6563    0.0000 H   0  0  0  0  0  0  0  0  0  0  0  0
    6.8024   -6.3012    0.0000 O   0  0  0  0  0  0  0  0  0  0  0  0
    9.7065   -6.3084    0.0000 O   0  0  0  0  0  0  0  0  0  0  0  0
    7.8445   -5.2643    0.0000 C   0  0  0  0  0  0  0  0  0  0  0  0
    7.5876   -6.0482    0.0000 C   0  0  2  0  0  0  0  0  0  0  0  0
    8.2538   -6.5348    0.0000 C   0  0  0  0  0  0  0  0  0  0  0  0
    8.9225   -6.0515    0.0000 C   0  0  0  0  0  0  0  0  0  0  0  0
    8.6695   -5.2663    0.0000 O   0  0  0  0  0  0  0  0  0  0  0  0
 23 20  1  6  0  0  0
 25 21  2  0  0  0  0
 26 22  1  0  0  0  0
 23 22  1  0  0  0  0
 24 23  1  0  0  0  0
 25 24  1  0  0  0  0
 26 25  1  0  0  0  0
  1  2  1  0  0  0  0
  3  4  1  0  0  0  0
  4  5  1  0  0  0  0
  5  6  1  0  0  0  0
  6  7  1  0  0  0  0
  7  8  1  0  0  0  0
  8  9  1  0  0  0  0
  9 10  1  0  0  0  0
 10 11  1  0  0  0  0
 11 12  1  0  0  0  0
  3 12  1  0  0  0  0
  7 12  1  0  0  0  0
  4 13  2  0  0  0  0
 12 14  1  6  0  0  0
  8 15  1  1  0  0  0
 16 17  1  0  0  0  0
  8 16  1  6  0  0  0
  9 18  1  6  0  0  0
  3  2  1  6  0  0  0
 24  1  2  0  0  0  0
  7 19  1  1  0  0  0
M  END
>  <cdx:fragmentId>
23

$$$$
