40645.cdx
  Mrv1902 05222410242D          

 18 20  0  0  0  0            999 V2000
    3.7071   -8.2145    0.0000 C   0  0  0  0  0  0  0  0  0  0  0  0
    3.7071   -9.0395    0.0000 C   0  0  0  0  0  0  0  0  0  0  0  0
    4.4216   -9.4520    0.0000 C   0  0  2  0  0  0  0  0  0  0  0  0
    5.1361   -9.0395    0.0000 C   0  0  1  0  0  0  0  0  0  0  0  0
    5.1361   -8.2145    0.0000 C   0  0  0  0  0  0  0  0  0  0  0  0
    4.4216   -7.8020    0.0000 C   0  0  0  0  0  0  0  0  0  0  0  0
    5.8505   -9.4520    0.0000 C   0  0  1  0  0  0  0  0  0  0  0  0
    6.5650   -9.0395    0.0000 C   0  0  1  0  0  0  0  0  0  0  0  0
    6.5650   -8.2145    0.0000 C   0  0  0  0  0  0  0  0  0  0  0  0
    5.8505   -7.8020    0.0000 C   0  0  0  0  0  0  0  0  0  0  0  0
    6.5650   -9.8645    0.0000 C   0  0  0  0  0  0  0  0  0  0  0  0
    7.2795   -7.8020    0.0000 O   0  0  0  0  0  0  0  0  0  0  0  0
    6.3515  -10.6614    0.0000 C   0  0  0  0  0  0  0  0  0  0  0  0
    7.3619  -10.0781    0.0000 C   0  0  0  0  0  0  0  0  0  0  0  0
    4.4216  -10.2770    0.0000 C   0  0  0  0  0  0  0  0  0  0  0  0
    5.1361   -9.8645    0.0000 C   0  0  0  0  0  0  0  0  0  0  0  0
    5.4380  -10.1665    0.0000 H   0  0  0  0  0  0  0  0  0  0  0  0
    7.3900   -9.0395    0.0000 H   0  0  0  0  0  0  0  0  0  0  0  0
  1  2  1  0  0  0  0
  2  3  1  0  0  0  0
  3  4  1  0  0  0  0
  4  5  1  0  0  0  0
  5  6  1  0  0  0  0
  6  1  1  0  0  0  0
  4  7  1  0  0  0  0
  7  8  1  0  0  0  0
  8  9  1  0  0  0  0
  9 10  1  0  0  0  0
 10  5  2  0  0  0  0
  7 11  1  0  0  0  0
 11  8  1  0  0  0  0
  9 12  2  0  0  0  0
 11 13  1  0  0  0  0
 11 14  1  0  0  0  0
  3 15  1  6  0  0  0
  4 16  1  6  0  0  0
  7 17  1  6  0  0  0
  8 18  1  6  0  0  0
M  END
>  <cdx:fragmentId>
5

$$$$
