40647.cdx
  Mrv1902 05222410232D          

 49 54  0  0  0  0            999 V2000
    3.1709  -12.9170    0.0000 O   0  0  0  0  0  0  0  0  0  0  0  0
    3.8853  -14.1545    0.0000 O   0  0  0  0  0  0  0  0  0  0  0  0
    4.5998  -13.7420    0.0000 C   0  0  2  0  0  0  0  0  0  0  0  0
    4.5998  -12.9170    0.0000 C   0  0  1  0  0  0  0  0  0  0  0  0
    3.8853  -12.5045    0.0000 C   0  0  0  0  0  0  0  0  0  0  0  0
    5.3143  -14.1545    0.0000 C   0  0  1  0  0  0  0  0  0  0  0  0
    6.0288  -13.7420    0.0000 C   0  0  2  0  0  0  0  0  0  0  0  0
    6.0288  -12.9170    0.0000 C   0  0  1  0  0  0  0  0  0  0  0  0
    5.3143  -12.5045    0.0000 O   0  0  0  0  0  0  0  0  0  0  0  0
    6.7432  -12.5045    0.0000 O   0  0  0  0  0  0  0  0  0  0  0  0
    6.7432  -11.6795    0.0000 C   0  0  1  0  0  0  0  0  0  0  0  0
    6.0288  -11.2670    0.0000 C   0  0  1  0  0  0  0  0  0  0  0  0
    5.3143  -11.6795    0.0000 O   0  0  0  0  0  0  0  0  0  0  0  0
    7.4577  -11.2670    0.0000 C   0  0  2  0  0  0  0  0  0  0  0  0
    7.4577  -10.4420    0.0000 C   0  0  1  0  0  0  0  0  0  0  0  0
    6.7432  -10.0295    0.0000 C   0  0  2  0  0  0  0  0  0  0  0  0
    6.0288  -10.4420    0.0000 C   0  0  0  0  0  0  0  0  0  0  0  0
    8.1722  -10.0295    0.0000 C   0  0  0  0  0  0  0  0  0  0  0  0
    8.1722   -9.2045    0.0000 C   0  0  0  0  0  0  0  0  0  0  0  0
    7.4577   -8.7920    0.0000 C   0  0  2  0  0  0  0  0  0  0  0  0
    6.7432   -9.2045    0.0000 C   0  0  2  0  0  0  0  0  0  0  0  0
    7.4577   -7.9670    0.0000 C   0  0  1  0  0  0  0  0  0  0  0  0
    6.7432   -7.5545    0.0000 C   0  0  0  0  0  0  0  0  0  0  0  0
    6.0288   -7.9670    0.0000 C   0  0  0  0  0  0  0  0  0  0  0  0
    6.0288   -8.7920    0.0000 C   0  0  0  0  0  0  0  0  0  0  0  0
    8.1722   -7.5545    0.0000 C   0  0  0  0  0  0  0  0  0  0  0  0
    8.1722   -6.7295    0.0000 C   0  0  0  0  0  0  0  0  0  0  0  0
    7.4577   -6.3170    0.0000 C   0  0  2  0  0  0  0  0  0  0  0  0
    6.7432   -6.7295    0.0000 C   0  0  1  0  0  0  0  0  0  0  0  0
    7.4577   -5.4920    0.0000 C   0  0  0  0  0  0  0  0  0  0  0  0
    6.7432   -5.0795    0.0000 C   0  0  0  0  0  0  0  0  0  0  0  0
    6.0288   -5.4920    0.0000 C   0  0  0  0  0  0  0  0  0  0  0  0
    6.0288   -6.3170    0.0000 C   0  0  0  0  0  0  0  0  0  0  0  0
    7.8702  -11.9815    0.0000 C   0  0  0  0  0  0  0  0  0  0  0  0
    8.6952  -11.9815    0.0000 O   0  0  0  0  0  0  0  0  0  0  0  0
    8.1722   -5.9045    0.0000 C   0  0  0  0  0  0  0  0  0  0  0  0
    8.8866   -6.3170    0.0000 O   0  0  0  0  0  0  0  0  0  0  0  0
    8.1722   -5.0795    0.0000 O   0  0  0  0  0  0  0  0  0  0  0  0
    5.2038   -5.4920    0.0000 C   0  0  0  0  0  0  0  0  0  0  0  0
    5.6163   -4.7776    0.0000 C   0  0  0  0  0  0  0  0  0  0  0  0
    5.3143  -14.9795    0.0000 O   0  0  0  0  0  0  0  0  0  0  0  0
    8.2827  -11.2670    0.0000 C   0  0  0  0  0  0  0  0  0  0  0  0
    6.0288   -9.6170    0.0000 C   0  0  0  0  0  0  0  0  0  0  0  0
    8.2546   -8.5785    0.0000 C   0  0  0  0  0  0  0  0  0  0  0  0
    6.0288   -7.1420    0.0000 H   0  0  0  0  0  0  0  0  0  0  0  0
    8.2546   -8.1806    0.0000 C   0  0  0  0  0  0  0  0  0  0  0  0
    7.4577   -9.6170    0.0000 H   0  0  0  0  0  0  0  0  0  0  0  0
    8.1722  -10.8545    0.0000 H   0  0  0  0  0  0  0  0  0  0  0  0
    6.7432  -14.1545    0.0000 O   0  0  0  0  0  0  0  0  0  0  0  0
  3  2  1  6  0  0  0
  3  4  1  0  0  0  0
  4  5  1  1  0  0  0
  5  1  1  0  0  0  0
  3  6  1  0  0  0  0
  6  7  1  0  0  0  0
  7  8  1  0  0  0  0
  8  9  1  0  0  0  0
  9  4  1  0  0  0  0
  8 10  1  1  0  0  0
 11 10  1  1  0  0  0
 11 12  1  0  0  0  0
 12 13  1  1  0  0  0
 11 14  1  0  0  0  0
 14 15  1  0  0  0  0
 15 16  1  0  0  0  0
 16 17  1  0  0  0  0
 17 12  1  0  0  0  0
 15 18  1  0  0  0  0
 18 19  1  0  0  0  0
 19 20  1  0  0  0  0
 20 21  1  0  0  0  0
 21 16  1  0  0  0  0
 20 22  1  0  0  0  0
 22 23  1  0  0  0  0
 23 24  2  0  0  0  0
 24 25  1  0  0  0  0
 25 21  1  0  0  0  0
 22 26  1  0  0  0  0
 26 27  1  0  0  0  0
 27 28  1  0  0  0  0
 28 29  1  0  0  0  0
 29 23  1  0  0  0  0
 28 30  1  0  0  0  0
 30 31  1  0  0  0  0
 31 32  1  0  0  0  0
 32 33  1  0  0  0  0
 33 29  1  0  0  0  0
 14 34  1  0  0  0  0
 34 35  1  0  0  0  0
 28 36  1  1  0  0  0
 36 37  2  0  0  0  0
 36 38  1  0  0  0  0
 32 39  1  0  0  0  0
 32 40  1  0  0  0  0
  6 41  1  1  0  0  0
 14 42  1  1  0  0  0
 16 43  1  1  0  0  0
 20 44  1  1  0  0  0
 29 45  1  1  0  0  0
 22 46  1  6  0  0  0
 21 47  1  6  0  0  0
 15 48  1  6  0  0  0
  7 49  1  6  0  0  0
M  END
>  <cdx:fragmentId>
5

$$$$
