40641.cdx
  Mrv1902 05222410252D          

 24 29  0  0  0  0            999 V2000
    5.4602  -11.0401    0.0000 C   0  0  0  0  0  0  0  0  0  0  0  0
    5.4602  -11.8651    0.0000 C   0  0  0  0  0  0  0  0  0  0  0  0
    6.1747  -12.2776    0.0000 C   0  0  0  0  0  0  0  0  0  0  0  0
    6.8892  -11.8651    0.0000 C   0  0  0  0  0  0  0  0  0  0  0  0
    6.8892  -11.0401    0.0000 C   0  0  0  0  0  0  0  0  0  0  0  0
    6.1747  -10.6276    0.0000 C   0  0  0  0  0  0  0  0  0  0  0  0
    7.6037  -10.6276    0.0000 C   0  0  0  0  0  0  0  0  0  0  0  0
    7.6037   -9.8026    0.0000 C   0  0  0  0  0  0  0  0  0  0  0  0
    6.8892   -9.3901    0.0000 C   0  0  0  0  0  0  0  0  0  0  0  0
    6.1747   -9.8026    0.0000 C   0  0  0  0  0  0  0  0  0  0  0  0
    6.8892   -8.5651    0.0000 C   0  0  0  0  0  0  0  0  0  0  0  0
    6.1747   -8.1526    0.0000 C   0  0  0  0  0  0  0  0  0  0  0  0
    5.4602   -8.5651    0.0000 C   0  0  0  0  0  0  0  0  0  0  0  0
    5.4602   -9.3901    0.0000 C   0  0  0  0  0  0  0  0  0  0  0  0
    7.6037  -12.2776    0.0000 C   0  0  0  0  0  0  0  0  0  0  0  0
    8.3181  -11.8651    0.0000 C   0  0  0  0  0  0  0  0  0  0  0  0
    8.3181  -11.0401    0.0000 N   0  0  0  0  0  0  0  0  0  0  0  0
    4.6756  -10.7852    0.0000 O   0  0  0  0  0  0  0  0  0  0  0  0
    4.1907  -11.4526    0.0000 C   0  0  0  0  0  0  0  0  0  0  0  0
    4.6756  -12.1201    0.0000 O   0  0  0  0  0  0  0  0  0  0  0  0
    8.4005   -9.5891    0.0000 C   0  0  0  0  0  0  0  0  0  0  0  0
    8.9839  -10.1725    0.0000 C   0  0  0  0  0  0  0  0  0  0  0  0
    8.6141   -8.7922    0.0000 O   0  0  0  0  0  0  0  0  0  0  0  0
    9.8071  -10.1185    0.0000 O   0  0  0  0  0  0  0  0  0  0  0  0
  1  2  2  0  0  0  0
  2  3  1  0  0  0  0
  3  4  2  0  0  0  0
  4  5  1  0  0  0  0
  5  6  2  0  0  0  0
  6  1  1  0  0  0  0
  5  7  1  0  0  0  0
  7  8  2  0  0  0  0
  8  9  1  0  0  0  0
  9 10  1  0  0  0  0
 10  6  1  0  0  0  0
  9 11  2  0  0  0  0
 11 12  1  0  0  0  0
 12 13  2  0  0  0  0
 13 14  1  0  0  0  0
 14 10  2  0  0  0  0
  4 15  1  0  0  0  0
 15 16  1  0  0  0  0
 16 17  1  0  0  0  0
 17  7  1  0  0  0  0
  1 18  1  0  0  0  0
 18 19  1  0  0  0  0
 19 20  1  0  0  0  0
 20  2  1  0  0  0  0
  8 21  1  0  0  0  0
 21 22  1  0  0  0  0
 17 22  1  0  0  0  0
 21 23  2  0  0  0  0
 22 24  2  0  0  0  0
M  END
>  <cdx:fragmentId>
5

$$$$
