40654.cdx
  Mrv1902 05222410252D          

 33 34  0  0  0  0            999 V2000
   11.8695   -7.2256    0.0000 C   0  0  0  0  0  0  0  0  0  0  0  0
    1.8669   -8.0506    0.0000 C   0  0  0  0  0  0  0  0  0  0  0  0
    1.1525   -6.8131    0.0000 C   0  0  0  0  0  0  0  0  0  0  0  0
    6.8682   -5.9881    0.0000 O   0  0  0  0  0  0  0  0  0  0  0  0
    1.8669   -7.2256    0.0000 C   0  0  0  0  0  0  0  0  0  0  0  0
    2.5814   -6.8131    0.0000 C   0  0  0  0  0  0  0  0  0  0  0  0
    3.2959   -7.2256    0.0000 C   0  0  0  0  0  0  0  0  0  0  0  0
    4.0103   -6.8131    0.0000 C   0  0  0  0  0  0  0  0  0  0  0  0
    4.7248   -7.2256    0.0000 C   0  0  0  0  0  0  0  0  0  0  0  0
    5.4393   -6.8131    0.0000 C   0  0  0  0  0  0  0  0  0  0  0  0
    6.1538   -7.2256    0.0000 C   0  0  0  0  0  0  0  0  0  0  0  0
    6.8682   -6.8131    0.0000 C   0  0  0  0  0  0  0  0  0  0  0  0
    7.5827   -7.2256    0.0000 N   0  0  0  0  0  0  0  0  0  0  0  0
    8.2972   -6.8131    0.0000 C   0  0  0  0  0  0  0  0  0  0  0  0
   11.1551   -8.4631    0.0000 O   0  0  0  0  0  0  0  0  0  0  0  0
   11.1551   -6.8131    0.0000 O   0  0  0  0  0  0  0  0  0  0  0  0
    9.7261   -6.8131    0.0000 C   0  0  0  0  0  0  0  0  0  0  0  0
    9.0116   -7.2256    0.0000 C   0  0  0  0  0  0  0  0  0  0  0  0
    9.0116   -8.0506    0.0000 C   0  0  0  0  0  0  0  0  0  0  0  0
    9.7261   -8.4631    0.0000 C   0  0  0  0  0  0  0  0  0  0  0  0
   10.4406   -8.0506    0.0000 C   0  0  0  0  0  0  0  0  0  0  0  0
   10.4406   -7.2256    0.0000 C   0  0  0  0  0  0  0  0  0  0  0  0
   10.4373  -10.5309    0.0000 C   0  0  2  0  0  0  0  0  0  0  0  0
   11.1524  -10.9423    0.0000 C   0  0  2  0  0  0  0  0  0  0  0  0
   11.8663  -10.5287    0.0000 C   0  0  1  0  0  0  0  0  0  0  0  0
   11.8650   -9.7037    0.0000 C   0  0  2  0  0  0  0  0  0  0  0  0
   11.1499   -9.2923    0.0000 C   0  0  1  0  0  0  0  0  0  0  0  0
   10.4360   -9.7059    0.0000 O   0  0  0  0  0  0  0  0  0  0  0  0
    9.7235  -10.9445    0.0000 C   0  0  0  0  0  0  0  0  0  0  0  0
   12.5814  -10.9401    0.0000 O   0  0  0  0  0  0  0  0  0  0  0  0
   11.1537  -11.7673    0.0000 O   0  0  0  0  0  0  0  0  0  0  0  0
   12.5788   -9.2901    0.0000 O   0  0  0  0  0  0  0  0  0  0  0  0
    9.7248  -11.7695    0.0000 O   0  0  0  0  0  0  0  0  0  0  0  0
 16  1  1  0  0  0  0
  5  2  1  0  0  0  0
  5  3  1  0  0  0  0
 12  4  2  0  0  0  0
  6  5  1  0  0  0  0
  7  6  2  0  0  0  0
  8  7  1  0  0  0  0
  9  8  1  0  0  0  0
 10  9  1  0  0  0  0
 11 10  1  0  0  0  0
 12 11  1  0  0  0  0
 13 12  1  0  0  0  0
 14 13  1  0  0  0  0
 18 14  1  0  0  0  0
 21 15  1  0  0  0  0
 22 16  1  0  0  0  0
 17 22  1  0  0  0  0
 18 17  2  0  0  0  0
 19 18  1  0  0  0  0
 20 19  2  0  0  0  0
 21 20  1  0  0  0  0
 22 21  2  0  0  0  0
 23 24  1  0  0  0  0
 24 25  1  0  0  0  0
 25 26  1  0  0  0  0
 26 27  1  0  0  0  0
 27 28  1  0  0  0  0
 28 23  1  0  0  0  0
 23 29  1  1  0  0  0
 25 30  1  1  0  0  0
 24 31  1  6  0  0  0
 26 32  1  6  0  0  0
 29 33  1  0  0  0  0
 27 15  1  1  0  0  0
M  END
>  <cdx:fragmentId>
5

$$$$
