406573.cdx
  Mrv1902 05222410182D          

 65 68  0  0  0  0            999 V2000
   18.7263   -8.6297    0.0000 O   0  0  0  0  0  0  0  0  0  0  0  0
   18.0119   -8.2172    0.0000 C   0  0  2  0  0  0  0  0  0  0  0  0
   18.0119   -7.3922    0.0000 C   0  0  1  0  0  0  0  0  0  0  0  0
   18.7263   -6.9797    0.0000 C   0  0  1  0  0  0  0  0  0  0  0  0
   19.4408   -7.3922    0.0000 C   0  0  2  0  0  0  0  0  0  0  0  0
   19.4408   -8.2172    0.0000 C   0  0  2  0  0  0  0  0  0  0  0  0
   17.2974   -6.9797    0.0000 O   0  0  0  0  0  0  0  0  0  0  0  0
   18.7263   -6.1547    0.0000 O   0  0  0  0  0  0  0  0  0  0  0  0
   20.1553   -6.9797    0.0000 O   0  0  0  0  0  0  0  0  0  0  0  0
   20.1553   -8.6297    0.0000 C   0  0  0  0  0  0  0  0  0  0  0  0
   17.2974   -8.6297    0.0000 O   0  0  0  0  0  0  0  0  0  0  0  0
   16.5829   -8.2172    0.0000 C   0  0  0  0  0  0  0  0  0  0  0  0
   15.8685   -9.4547    0.0000 O   0  0  0  0  0  0  0  0  0  0  0  0
   15.8685   -8.6297    0.0000 C   0  0  1  0  0  0  0  0  0  0  0  0
   15.1540   -8.2172    0.0000 C   0  0  2  0  0  0  0  0  0  0  0  0
   14.4395   -8.6297    0.0000 C   0  0  1  0  0  0  0  0  0  0  0  0
   14.4395   -9.4547    0.0000 C   0  0  2  0  0  0  0  0  0  0  0  0
   15.1540   -9.8672    0.0000 C   0  0  2  0  0  0  0  0  0  0  0  0
   15.1540   -7.3922    0.0000 O   0  0  0  0  0  0  0  0  0  0  0  0
   13.7250   -7.3922    0.0000 O   0  0  0  0  0  0  0  0  0  0  0  0
   14.4395   -6.9797    0.0000 C   0  0  2  0  0  0  0  0  0  0  0  0
   14.4395   -6.1547    0.0000 C   0  0  1  0  0  0  0  0  0  0  0  0
   13.7250   -5.7422    0.0000 C   0  0  1  0  0  0  0  0  0  0  0  0
   13.0106   -6.1547    0.0000 C   0  0  2  0  0  0  0  0  0  0  0  0
   13.0106   -6.9797    0.0000 C   0  0  2  0  0  0  0  0  0  0  0  0
   12.2961   -7.3922    0.0000 C   0  0  0  0  0  0  0  0  0  0  0  0
   12.2961   -5.7422    0.0000 O   0  0  0  0  0  0  0  0  0  0  0  0
   13.7250   -4.9172    0.0000 O   0  0  0  0  0  0  0  0  0  0  0  0
   15.1540   -5.7422    0.0000 O   0  0  0  0  0  0  0  0  0  0  0  0
   15.1540  -10.6922    0.0000 O   0  0  0  0  0  0  0  0  0  0  0  0
   14.4395  -11.1047    0.0000 C   0  0  0  0  0  0  0  0  0  0  0  0
   14.4395  -11.9297    0.0000 C   0  0  0  0  0  0  0  0  0  0  0  0
   13.7250  -12.3422    0.0000 C   0  0  0  0  0  0  0  0  0  0  0  0
   13.0106  -11.9297    0.0000 C   0  0  0  0  0  0  0  0  0  0  0  0
   12.2961  -12.3422    0.0000 C   0  0  0  0  0  0  0  0  0  0  0  0
   11.5816  -11.9297    0.0000 C   0  0  0  0  0  0  0  0  0  0  0  0
   10.8672  -12.3422    0.0000 C   0  0  0  0  0  0  0  0  0  0  0  0
   10.1527  -11.9297    0.0000 C   0  0  0  0  0  0  0  0  0  0  0  0
    9.4382  -12.3422    0.0000 C   0  0  0  0  0  0  0  0  0  0  0  0
    8.7238  -11.9297    0.0000 C   0  0  0  0  0  0  0  0  0  0  0  0
    8.0093  -12.3422    0.0000 C   0  0  0  0  0  0  0  0  0  0  0  0
    7.2948  -11.9297    0.0000 C   0  0  0  0  0  0  0  0  0  0  0  0
    6.5803  -12.3422    0.0000 C   0  0  0  0  0  0  0  0  0  0  0  0
    5.8659  -11.9297    0.0000 C   0  0  1  0  0  0  0  0  0  0  0  0
    5.8659  -11.1047    0.0000 C   0  0  0  0  0  0  0  0  0  0  0  0
    5.1514  -10.6922    0.0000 C   0  0  0  0  0  0  0  0  0  0  0  0
    5.1514  -12.3422    0.0000 O   0  0  0  0  0  0  0  0  0  0  0  0
    4.4369  -11.1047    0.0000 O   0  0  0  0  0  0  0  0  0  0  0  0
    4.4369  -11.9297    0.0000 C   0  0  2  0  0  0  0  0  0  0  0  0
    3.7225  -12.3422    0.0000 C   0  0  1  0  0  0  0  0  0  0  0  0
    3.0080  -11.9297    0.0000 C   0  0  2  0  0  0  0  0  0  0  0  0
    3.0080  -11.1047    0.0000 C   0  0  1  0  0  0  0  0  0  0  0  0
    3.7225  -10.6922    0.0000 C   0  0  1  0  0  0  0  0  0  0  0  0
    3.7225   -9.8672    0.0000 C   0  0  0  0  0  0  0  0  0  0  0  0
    3.0080   -9.4547    0.0000 O   0  0  0  0  0  0  0  0  0  0  0  0
    2.2935  -10.6922    0.0000 O   0  0  0  0  0  0  0  0  0  0  0  0
    2.2935  -12.3422    0.0000 O   0  0  0  0  0  0  0  0  0  0  0  0
    3.7225  -13.1672    0.0000 O   0  0  0  0  0  0  0  0  0  0  0  0
    5.8659  -12.7547    0.0000 C   0  0  0  0  0  0  0  0  0  0  0  0
   11.5816  -11.1047    0.0000 C   0  0  0  0  0  0  0  0  0  0  0  0
   15.1540  -12.3422    0.0000 C   0  0  0  0  0  0  0  0  0  0  0  0
    8.7238  -11.1047    0.0000 C   0  0  0  0  0  0  0  0  0  0  0  0
    8.0093  -10.6922    0.0000 O   0  0  0  0  0  0  0  0  0  0  0  0
   13.7250   -9.8672    0.0000 O   0  0  0  0  0  0  0  0  0  0  0  0
   13.7250   -8.2172    0.0000 O   0  0  0  0  0  0  0  0  0  0  0  0
  1  2  1  0  0  0  0
  2  3  1  0  0  0  0
  3  4  1  0  0  0  0
  4  5  1  0  0  0  0
  5  6  1  0  0  0  0
  1  6  1  0  0  0  0
  3  7  1  6  0  0  0
  4  8  1  6  0  0  0
  5  9  1  1  0  0  0
  6 10  1  6  0  0  0
 11 12  1  0  0  0  0
 13 14  1  0  0  0  0
 14 15  1  0  0  0  0
 15 16  1  0  0  0  0
 16 17  1  0  0  0  0
 17 18  1  0  0  0  0
 13 18  1  0  0  0  0
 20 21  1  0  0  0  0
 21 22  1  0  0  0  0
 22 23  1  0  0  0  0
 23 24  1  0  0  0  0
 24 25  1  0  0  0  0
 20 25  1  0  0  0  0
 25 26  1  1  0  0  0
 24 27  1  6  0  0  0
 23 28  1  1  0  0  0
 22 29  1  1  0  0  0
 21 19  1  6  0  0  0
 15 19  1  6  0  0  0
 31 32  1  0  0  0  0
 32 33  2  0  0  0  0
 33 34  1  0  0  0  0
 34 35  1  0  0  0  0
 35 36  1  0  0  0  0
 36 37  2  0  0  0  0
 37 38  1  0  0  0  0
 38 39  1  0  0  0  0
 39 40  1  0  0  0  0
 40 41  2  0  0  0  0
 41 42  1  0  0  0  0
 42 43  1  0  0  0  0
 43 44  1  0  0  0  0
 44 45  1  0  0  0  0
 45 46  2  0  0  0  0
 30 31  1  0  0  0  0
 48 49  1  0  0  0  0
 49 50  1  0  0  0  0
 50 51  1  0  0  0  0
 51 52  1  0  0  0  0
 52 53  1  0  0  0  0
 48 53  1  0  0  0  0
 54 55  1  0  0  0  0
 53 54  1  1  0  0  0
 52 56  1  6  0  0  0
 51 57  1  1  0  0  0
 50 58  1  6  0  0  0
 49 47  1  1  0  0  0
 44 47  1  0  0  0  0
 44 59  1  1  0  0  0
 36 60  1  0  0  0  0
 32 61  1  0  0  0  0
 62 63  1  0  0  0  0
 40 62  1  0  0  0  0
 18 30  1  1  0  0  0
 17 64  1  6  0  0  0
 16 65  1  1  0  0  0
 14 12  1  1  0  0  0
  2 11  1  1  0  0  0
M  END
>  <cdx:fragmentId>
65

$$$$
