40667.cdx
  Mrv1902 05222410212D          

 30 32  0  0  0  0            999 V2000
    4.2227  -11.6795    0.0000 C   0  0  2  0  0  0  0  0  0  0  0  0
    4.2227  -12.5045    0.0000 C   0  0  2  0  0  0  0  0  0  0  0  0
    4.9372  -12.9170    0.0000 C   0  0  1  0  0  0  0  0  0  0  0  0
    5.6517  -12.5045    0.0000 C   0  0  2  0  0  0  0  0  0  0  0  0
    5.6517  -11.6795    0.0000 C   0  0  1  0  0  0  0  0  0  0  0  0
    4.9372  -11.2670    0.0000 O   0  0  0  0  0  0  0  0  0  0  0  0
    6.3662  -12.9170    0.0000 O   0  0  0  0  0  0  0  0  0  0  0  0
    7.0806  -12.5045    0.0000 C   0  0  2  0  0  0  0  0  0  0  0  0
    7.0806  -11.6795    0.0000 O   0  0  0  0  0  0  0  0  0  0  0  0
    6.3662  -11.2670    0.0000 O   0  0  0  0  0  0  0  0  0  0  0  0
    6.3662  -10.4420    0.0000 C   0  0  0  0  0  0  0  0  0  0  0  0
    7.0806  -10.0295    0.0000 C   0  0  0  0  0  0  0  0  0  0  0  0
    7.0806   -9.2045    0.0000 C   0  0  0  0  0  0  0  0  0  0  0  0
    6.3662   -8.7920    0.0000 C   0  0  0  0  0  0  0  0  0  0  0  0
    7.7951   -8.7920    0.0000 C   0  0  0  0  0  0  0  0  0  0  0  0
    7.7951   -7.9670    0.0000 C   0  0  0  0  0  0  0  0  0  0  0  0
    7.0806   -7.5545    0.0000 C   0  0  0  0  0  0  0  0  0  0  0  0
    6.3662   -7.9670    0.0000 C   0  0  0  0  0  0  0  0  0  0  0  0
    3.5083  -11.2670    0.0000 C   0  0  0  0  0  0  0  0  0  0  0  0
    3.5083  -12.9170    0.0000 O   0  0  0  0  0  0  0  0  0  0  0  0
    7.8652  -12.7595    0.0000 C   0  0  1  0  0  0  0  0  0  0  0  0
    8.3502  -12.0920    0.0000 C   0  0  2  0  0  0  0  0  0  0  0  0
    7.8652  -11.4246    0.0000 C   0  0  0  0  0  0  0  0  0  0  0  0
    7.0806   -6.7295    0.0000 O   0  0  0  0  0  0  0  0  0  0  0  0
    2.7938  -11.6795    0.0000 O   0  0  0  0  0  0  0  0  0  0  0  0
    9.0646  -11.6795    0.0000 C   0  0  0  0  0  0  0  0  0  0  0  0
    9.7791  -12.0920    0.0000 O   0  0  0  0  0  0  0  0  0  0  0  0
    4.9372  -13.7420    0.0000 O   0  0  0  0  0  0  0  0  0  0  0  0
    8.1202  -13.5441    0.0000 O   0  0  0  0  0  0  0  0  0  0  0  0
    8.9335  -12.6754    0.0000 O   0  0  0  0  0  0  0  0  0  0  0  0
  1  2  1  0  0  0  0
  2  3  1  0  0  0  0
  3  4  1  0  0  0  0
  4  5  1  0  0  0  0
  5  6  1  0  0  0  0
  6  1  1  0  0  0  0
  4  7  1  6  0  0  0
  8  7  1  6  0  0  0
  8  9  1  0  0  0  0
  5 10  1  1  0  0  0
 10 11  1  0  0  0  0
 11 12  1  0  0  0  0
 12 13  1  0  0  0  0
 13 14  2  0  0  0  0
 13 15  1  0  0  0  0
 15 16  2  0  0  0  0
 16 17  1  0  0  0  0
 17 18  2  0  0  0  0
 18 14  1  0  0  0  0
  1 19  1  1  0  0  0
  2 20  1  6  0  0  0
  8 21  1  0  0  0  0
 21 22  1  0  0  0  0
 22 23  1  0  0  0  0
 23  9  1  0  0  0  0
 17 24  1  0  0  0  0
 19 25  1  0  0  0  0
 22 26  1  0  0  0  0
 26 27  1  0  0  0  0
  3 28  1  1  0  0  0
 21 29  1  1  0  0  0
 22 30  1  1  0  0  0
M  END
>  <cdx:fragmentId>
5

$$$$
