40664.cdx
  Mrv1902 05222410212D          

  9 10  0  0  0  0            999 V2000
    4.4496   -6.9358    0.0000 C   0  0  0  0  0  0  0  0  0  0  0  0
    4.4496   -7.7608    0.0000 C   0  0  0  0  0  0  0  0  0  0  0  0
    5.1641   -8.1733    0.0000 C   0  0  0  0  0  0  0  0  0  0  0  0
    5.8786   -7.7608    0.0000 C   0  0  0  0  0  0  0  0  0  0  0  0
    5.8786   -6.9358    0.0000 C   0  0  0  0  0  0  0  0  0  0  0  0
    5.1641   -6.5233    0.0000 C   0  0  0  0  0  0  0  0  0  0  0  0
    6.6632   -8.0157    0.0000 O   0  0  0  0  0  0  0  0  0  0  0  0
    7.1481   -7.3483    0.0000 C   0  0  0  0  0  0  0  0  0  0  0  0
    6.6632   -6.6808    0.0000 C   0  0  0  0  0  0  0  0  0  0  0  0
  1  2  2  0  0  0  0
  2  3  1  0  0  0  0
  3  4  2  0  0  0  0
  4  5  1  0  0  0  0
  5  6  2  0  0  0  0
  6  1  1  0  0  0  0
  4  7  1  0  0  0  0
  7  8  1  0  0  0  0
  8  9  2  0  0  0  0
  9  5  1  0  0  0  0
M  END
>  <cdx:fragmentId>
6

$$$$
