40662.cdx
  Mrv1902 05222410232D          

 11 11  0  0  0  0            999 V2000
    6.5414   -5.2250    0.0000 C   0  0  0  0  0  0  0  0  0  0  0  0
    6.5414   -6.0500    0.0000 C   0  0  0  0  0  0  0  0  0  0  0  0
    7.2559   -6.4625    0.0000 C   0  0  1  0  0  0  0  0  0  0  0  0
    7.9703   -6.0500    0.0000 C   0  0  0  0  0  0  0  0  0  0  0  0
    7.9703   -5.2250    0.0000 C   0  0  0  0  0  0  0  0  0  0  0  0
    7.2559   -4.8125    0.0000 C   0  0  1  0  0  0  0  0  0  0  0  0
    7.2559   -7.2875    0.0000 C   0  0  0  0  0  0  0  0  0  0  0  0
    6.5414   -7.7000    0.0000 C   0  0  0  0  0  0  0  0  0  0  0  0
    7.9703   -7.7000    0.0000 C   0  0  0  0  0  0  0  0  0  0  0  0
    6.8434   -4.0980    0.0000 C   0  0  0  0  0  0  0  0  0  0  0  0
    7.6684   -4.0980    0.0000 O   0  0  0  0  0  0  0  0  0  0  0  0
  1  2  1  0  0  0  0
  2  3  1  0  0  0  0
  3  4  1  0  0  0  0
  4  5  2  0  0  0  0
  5  6  1  0  0  0  0
  6  1  1  0  0  0  0
  3  7  1  1  0  0  0
  7  8  1  0  0  0  0
  7  9  1  0  0  0  0
  6 10  1  0  0  0  0
  6 11  1  1  0  0  0
M  END
>  <cdx:fragmentId>
51

$$$$
