40665.cdx
  Mrv1902 05222410212D          

 42 46  0  0  0  0            999 V2000
    1.8521  -12.5459    0.0000 O   0  0  0  0  0  0  0  0  0  0  0  0
    2.5538  -13.7907    0.0000 O   0  0  0  0  0  0  0  0  0  0  0  0
   13.3195   -8.5064    0.0000 O   0  0  0  0  0  0  0  0  0  0  0  0
    9.7275  -12.2000    0.0000 O   0  0  0  0  0  0  0  0  0  0  0  0
    8.2986  -12.1924    0.0000 O   0  0  0  0  0  0  0  0  0  0  0  0
    3.2725  -13.3855    0.0000 C   0  0  2  0  0  0  0  0  0  0  0  0
    3.2809  -12.5606    0.0000 C   0  0  1  0  0  0  0  0  0  0  0  0
    2.5707  -12.1407    0.0000 C   0  0  0  0  0  0  0  0  0  0  0  0
   12.5985   -9.7401    0.0000 C   0  0  0  0  0  0  0  0  0  0  0  0
   12.6028   -8.9151    0.0000 C   0  0  0  0  0  0  0  0  0  0  0  0
   11.8905   -8.4989    0.0000 C   0  0  0  0  0  0  0  0  0  0  0  0
   11.1739   -8.9076    0.0000 C   0  0  0  0  0  0  0  0  0  0  0  0
   11.1608  -11.3826    0.0000 O   0  0  0  0  0  0  0  0  0  0  0  0
   11.8818  -10.1489    0.0000 C   0  0  0  0  0  0  0  0  0  0  0  0
   11.1695   -9.7326    0.0000 C   0  0  0  0  0  0  0  0  0  0  0  0
    9.7319  -11.3750    0.0000 C   0  0  0  0  0  0  0  0  0  0  0  0
   10.4485  -10.9663    0.0000 C   0  0  0  0  0  0  0  0  0  0  0  0
   10.4529  -10.1413    0.0000 C   0  0  0  0  0  0  0  0  0  0  0  0
    9.7406   -9.7250    0.0000 O   0  0  0  0  0  0  0  0  0  0  0  0
    8.3030  -11.3675    0.0000 C   0  0  0  0  0  0  0  0  0  0  0  0
    9.0196  -10.9587    0.0000 C   0  0  0  0  0  0  0  0  0  0  0  0
    9.0240  -10.1338    0.0000 C   0  0  0  0  0  0  0  0  0  0  0  0
    8.3117   -9.7175    0.0000 C   0  0  0  0  0  0  0  0  0  0  0  0
    7.5907  -10.9512    0.0000 C   0  0  0  0  0  0  0  0  0  0  0  0
    7.5951  -10.1262    0.0000 C   0  0  0  0  0  0  0  0  0  0  0  0
    3.9826  -13.8053    0.0000 C   0  0  1  0  0  0  0  0  0  0  0  0
    4.7013  -13.4002    0.0000 C   0  0  2  0  0  0  0  0  0  0  0  0
    4.7098  -12.5752    0.0000 C   0  0  1  0  0  0  0  0  0  0  0  0
    3.9996  -12.1554    0.0000 O   0  0  0  0  0  0  0  0  0  0  0  0
    5.4285  -12.1701    0.0000 O   0  0  0  0  0  0  0  0  0  0  0  0
    5.4370  -11.3452    0.0000 C   0  0  2  0  0  0  0  0  0  0  0  0
    4.7268  -10.9253    0.0000 C   0  0  1  0  0  0  0  0  0  0  0  0
    4.0081  -11.3305    0.0000 O   0  0  0  0  0  0  0  0  0  0  0  0
    6.1556  -10.9400    0.0000 C   0  0  2  0  0  0  0  0  0  0  0  0
    6.1641  -10.1151    0.0000 C   0  0  1  0  0  0  0  0  0  0  0  0
    5.4539   -9.6952    0.0000 O   0  0  0  0  0  0  0  0  0  0  0  0
    4.7352  -10.1004    0.0000 C   0  0  1  0  0  0  0  0  0  0  0  0
    6.8828   -9.7099    0.0000 O   0  0  0  0  0  0  0  0  0  0  0  0
    5.4115  -13.8200    0.0000 O   0  0  0  0  0  0  0  0  0  0  0  0
    4.0250   -9.6806    0.0000 C   0  0  0  0  0  0  0  0  0  0  0  0
    6.8658  -11.3598    0.0000 O   0  0  0  0  0  0  0  0  0  0  0  0
    3.9742  -14.6303    0.0000 O   0  0  0  0  0  0  0  0  0  0  0  0
 10  3  1  0  0  0  0
 16  4  2  0  0  0  0
 20  5  1  0  0  0  0
  6  2  1  6  0  0  0
  6  7  1  0  0  0  0
  7  8  1  1  0  0  0
  9 14  1  0  0  0  0
 10  9  2  0  0  0  0
 11 10  1  0  0  0  0
 12 11  2  0  0  0  0
 15 12  1  0  0  0  0
 13 17  1  0  0  0  0
 15 14  2  0  0  0  0
 18 15  1  0  0  0  0
 16 21  1  0  0  0  0
 17 16  1  0  0  0  0
 18 17  2  0  0  0  0
 19 18  1  0  0  0  0
 22 19  1  0  0  0  0
 20 24  1  0  0  0  0
 21 20  2  0  0  0  0
 22 21  1  0  0  0  0
 23 22  2  0  0  0  0
 25 23  1  0  0  0  0
 25 24  2  0  0  0  0
 38 25  1  0  0  0  0
  8  1  1  0  0  0  0
  6 26  1  0  0  0  0
 26 27  1  0  0  0  0
 27 28  1  0  0  0  0
 28 29  1  0  0  0  0
 29  7  1  0  0  0  0
 28 30  1  1  0  0  0
 31 30  1  6  0  0  0
 31 32  1  0  0  0  0
 32 33  1  1  0  0  0
 31 34  1  0  0  0  0
 34 35  1  0  0  0  0
 35 36  1  0  0  0  0
 36 37  1  0  0  0  0
 37 32  1  0  0  0  0
 35 38  1  1  0  0  0
 27 39  1  6  0  0  0
 37 40  1  6  0  0  0
 34 41  1  6  0  0  0
 26 42  1  1  0  0  0
M  END
>  <cdx:fragmentId>
5

$$$$
