40684.cdx
  Mrv1902 05222410232D          

 18 18  0  0  0  0            999 V2000
    5.5634   -9.8645    0.0000 C   0  0  2  0  0  0  0  0  0  0  0  0
    5.5634  -10.6895    0.0000 C   0  0  2  0  0  0  0  0  0  0  0  0
    6.2778  -11.1020    0.0000 C   0  0  1  0  0  0  0  0  0  0  0  0
    6.9923  -10.6895    0.0000 C   0  0  2  0  0  0  0  0  0  0  0  0
    6.9923   -9.8645    0.0000 C   0  0  1  0  0  0  0  0  0  0  0  0
    6.2778   -9.4520    0.0000 O   0  0  0  0  0  0  0  0  0  0  0  0
    4.8489   -9.4520    0.0000 C   0  0  0  0  0  0  0  0  0  0  0  0
    4.1888   -9.8331    0.0000 O   0  0  0  0  0  0  0  0  0  0  0  0
    7.7068   -9.4520    0.0000 O   0  0  0  0  0  0  0  0  0  0  0  0
    7.7068   -8.6270    0.0000 C   0  0  1  0  0  0  0  0  0  0  0  0
    8.4213   -8.2145    0.0000 C   0  0  0  0  0  0  0  0  0  0  0  0
    6.9923   -8.2145    0.0000 C   0  0  0  0  0  0  0  0  0  0  0  0
    9.1357   -8.6270    0.0000 C   0  0  0  0  0  0  0  0  0  0  0  0
    8.4213   -7.3895    0.0000 C   0  0  0  0  0  0  0  0  0  0  0  0
    6.2778   -7.8020    0.0000 N   0  0  0  0  0  0  0  0  0  0  0  0
    6.2778  -11.9270    0.0000 O   0  0  0  0  0  0  0  0  0  0  0  0
    4.8489  -11.1020    0.0000 O   0  0  0  0  0  0  0  0  0  0  0  0
    7.7068  -11.1020    0.0000 O   0  0  0  0  0  0  0  0  0  0  0  0
  1  2  1  0  0  0  0
  2  3  1  0  0  0  0
  3  4  1  0  0  0  0
  4  5  1  0  0  0  0
  5  6  1  0  0  0  0
  6  1  1  0  0  0  0
  1  7  1  1  0  0  0
  7  8  1  0  0  0  0
  5  9  1  1  0  0  0
 10  9  1  6  0  0  0
 10 11  1  0  0  0  0
 10 12  1  0  0  0  0
 11 13  1  0  0  0  0
 11 14  1  0  0  0  0
 12 15  3  0  0  0  0
  3 16  1  1  0  0  0
  2 17  1  6  0  0  0
  4 18  1  6  0  0  0
M  END
>  <cdx:fragmentId>
5

$$$$
