40682.cdx
  Mrv1902 05222410252D          

  9  8  0  0  0  0            999 V2000
    4.1122   -7.3689    0.0000 O   0  0  0  0  0  0  0  0  0  0  0  0
    4.8267   -7.7814    0.0000 C   0  0  0  0  0  0  0  0  0  0  0  0
    5.5412   -7.3689    0.0000 C   0  0  0  0  0  0  0  0  0  0  0  0
    6.2556   -7.7814    0.0000 C   0  0  0  0  0  0  0  0  0  0  0  0
    6.9701   -7.3689    0.0000 C   0  0  0  0  0  0  0  0  0  0  0  0
    7.6846   -7.7814    0.0000 C   0  0  0  0  0  0  0  0  0  0  0  0
    8.3990   -7.3689    0.0000 C   0  0  0  0  0  0  0  0  0  0  0  0
    9.1135   -7.7814    0.0000 C   0  0  0  0  0  0  0  0  0  0  0  0
    4.8267   -8.6064    0.0000 O   0  0  0  0  0  0  0  0  0  0  0  0
  2  1  1  0  0  0  0
  3  2  1  0  0  0  0
  4  3  1  0  0  0  0
  5  4  1  0  0  0  0
  6  5  1  0  0  0  0
  7  6  1  0  0  0  0
  8  7  1  0  0  0  0
  2  9  2  0  0  0  0
M  END
>  <cdx:fragmentId>
3

$$$$
