40687.cdx
  Mrv1902 05222410242D          

 29 30  0  0  0  0            999 V2000
    7.3494   -8.7637    0.0000 O   0  0  0  0  0  0  0  0  0  0  0  0
   10.2073   -4.6387    0.0000 O   0  0  0  0  0  0  0  0  0  0  0  0
   10.9217   -5.8762    0.0000 O   0  0  0  0  0  0  0  0  0  0  0  0
   10.2073   -5.4637    0.0000 C   0  0  0  0  0  0  0  0  0  0  0  0
    7.3494   -5.4637    0.0000 O   0  0  0  0  0  0  0  0  0  0  0  0
    8.0638   -5.8762    0.0000 C   0  0  0  0  0  0  0  0  0  0  0  0
    8.7783   -5.4637    0.0000 C   0  0  0  0  0  0  0  0  0  0  0  0
    9.4928   -5.8762    0.0000 C   0  0  0  0  0  0  0  0  0  0  0  0
    9.4928   -6.7012    0.0000 C   0  0  0  0  0  0  0  0  0  0  0  0
    8.7783   -7.1137    0.0000 C   0  0  0  0  0  0  0  0  0  0  0  0
    8.0638   -6.7012    0.0000 C   0  0  0  0  0  0  0  0  0  0  0  0
    7.3494   -7.1137    0.0000 O   0  0  0  0  0  0  0  0  0  0  0  0
    5.2060  -10.8262    0.0000 O   0  0  0  0  0  0  0  0  0  0  0  0
    3.7770  -10.0012    0.0000 O   0  0  0  0  0  0  0  0  0  0  0  0
    3.7770   -8.3512    0.0000 O   0  0  0  0  0  0  0  0  0  0  0  0
    5.9204   -7.1137    0.0000 C   0  0  0  0  0  0  0  0  0  0  0  0
    6.6349   -7.5262    0.0000 C   0  0  1  0  0  0  0  0  0  0  0  0
    6.6349   -8.3512    0.0000 C   0  0  1  0  0  0  0  0  0  0  0  0
    5.2060   -8.3512    0.0000 C   0  0  0  0  0  0  0  0  0  0  0  0
    5.9204   -8.7637    0.0000 C   0  0  0  0  0  0  0  0  0  0  0  0
    5.9204   -9.5887    0.0000 C   0  0  0  0  0  0  0  0  0  0  0  0
    5.2060  -10.0012    0.0000 C   0  0  0  0  0  0  0  0  0  0  0  0
    4.4915   -9.5887    0.0000 C   0  0  0  0  0  0  0  0  0  0  0  0
    4.4915   -8.7637    0.0000 C   0  0  0  0  0  0  0  0  0  0  0  0
    3.7770   -7.5262    0.0000 C   0  0  0  0  0  0  0  0  0  0  0  0
    3.0625   -9.5887    0.0000 C   0  0  0  0  0  0  0  0  0  0  0  0
    4.4915  -11.2387    0.0000 C   0  0  0  0  0  0  0  0  0  0  0  0
    6.6349   -5.8762    0.0000 C   0  0  0  0  0  0  0  0  0  0  0  0
   11.6362   -5.4637    0.0000 C   0  0  0  0  0  0  0  0  0  0  0  0
 18  1  1  6  0  0  0
  4  2  2  0  0  0  0
  4  3  1  0  0  0  0
  8  4  1  0  0  0  0
  6  5  1  0  0  0  0
  6 11  1  0  0  0  0
  7  6  2  0  0  0  0
  8  7  1  0  0  0  0
  9  8  2  0  0  0  0
 10  9  1  0  0  0  0
 11 10  2  0  0  0  0
 12 11  1  0  0  0  0
 17 12  1  6  0  0  0
 22 13  1  0  0  0  0
 23 14  1  0  0  0  0
 24 15  1  0  0  0  0
 17 16  1  0  0  0  0
 18 17  1  0  0  0  0
 20 18  1  0  0  0  0
 19 24  1  0  0  0  0
 20 19  2  0  0  0  0
 21 20  1  0  0  0  0
 22 21  2  0  0  0  0
 23 22  1  0  0  0  0
 24 23  2  0  0  0  0
 15 25  1  0  0  0  0
 14 26  1  0  0  0  0
 13 27  1  0  0  0  0
  5 28  1  0  0  0  0
  3 29  1  0  0  0  0
M  END
>  <cdx:fragmentId>
5

$$$$
