40694.cdx
  Mrv1902 05222410252D          

 32 34  0  0  0  0            999 V2000
    9.9480  -11.5639    0.0000 O   0  0  0  0  0  0  0  0  0  0  0  0
   10.3856   -9.9729    0.0000 O   0  0  0  0  0  0  0  0  0  0  0  0
    7.1925  -10.8061    0.0000 O   0  0  0  0  0  0  0  0  0  0  0  0
    7.9907  -10.5978    0.0000 C   0  0  0  0  0  0  0  0  0  0  0  0
    8.5702  -11.1850    0.0000 C   0  0  0  0  0  0  0  0  0  0  0  0
    9.3685  -10.9767    0.0000 C   0  0  0  0  0  0  0  0  0  0  0  0
    9.5873  -10.1812    0.0000 C   0  0  0  0  0  0  0  0  0  0  0  0
    9.0078   -9.5940    0.0000 C   0  0  0  0  0  0  0  0  0  0  0  0
    8.2095   -9.8023    0.0000 C   0  0  0  0  0  0  0  0  0  0  0  0
    8.6470   -8.2114    0.0000 C   0  0  0  0  0  0  0  0  0  0  0  0
    5.4539   -9.0445    0.0000 C   0  0  0  0  0  0  0  0  0  0  0  0
    6.2522   -8.8362    0.0000 C   0  0  1  0  0  0  0  0  0  0  0  0
    6.8317   -9.4234    0.0000 O   0  0  0  0  0  0  0  0  0  0  0  0
    7.6300   -9.2151    0.0000 C   0  0  1  0  0  0  0  0  0  0  0  0
    7.8487   -8.4197    0.0000 C   0  0  2  0  0  0  0  0  0  0  0  0
    7.2692   -7.8325    0.0000 O   0  0  0  0  0  0  0  0  0  0  0  0
    6.4709   -8.0408    0.0000 C   0  0  1  0  0  0  0  0  0  0  0  0
    6.9085   -6.4498    0.0000 O   0  0  0  0  0  0  0  0  0  0  0  0
    3.7154   -7.2829    0.0000 O   0  0  0  0  0  0  0  0  0  0  0  0
    4.1529   -5.6920    0.0000 O   0  0  0  0  0  0  0  0  0  0  0  0
    5.0932   -7.6618    0.0000 C   0  0  0  0  0  0  0  0  0  0  0  0
    5.8914   -7.4536    0.0000 C   0  0  0  0  0  0  0  0  0  0  0  0
    6.1102   -6.6581    0.0000 C   0  0  0  0  0  0  0  0  0  0  0  0
    5.5307   -6.0709    0.0000 C   0  0  0  0  0  0  0  0  0  0  0  0
    4.7324   -6.2792    0.0000 C   0  0  0  0  0  0  0  0  0  0  0  0
    4.5136   -7.0747    0.0000 C   0  0  0  0  0  0  0  0  0  0  0  0
   10.9651  -10.5601    0.0000 C   0  0  0  0  0  0  0  0  0  0  0  0
    9.7293  -12.3593    0.0000 C   0  0  0  0  0  0  0  0  0  0  0  0
    6.6129  -10.2189    0.0000 C   0  0  0  0  0  0  0  0  0  0  0  0
    7.4880   -7.0370    0.0000 C   0  0  0  0  0  0  0  0  0  0  0  0
    4.3716   -4.8965    0.0000 C   0  0  0  0  0  0  0  0  0  0  0  0
    3.1359   -6.6958    0.0000 C   0  0  0  0  0  0  0  0  0  0  0  0
  6  1  1  0  0  0  0
  7  2  1  0  0  0  0
  4  3  1  0  0  0  0
  4  9  1  0  0  0  0
  5  4  2  0  0  0  0
  6  5  1  0  0  0  0
  7  6  2  0  0  0  0
  8  7  1  0  0  0  0
  9  8  2  0  0  0  0
 14  9  1  1  0  0  0
 15 10  1  6  0  0  0
 12 11  1  6  0  0  0
 12 17  1  0  0  0  0
 13 12  1  0  0  0  0
 14 13  1  0  0  0  0
 15 14  1  0  0  0  0
 16 15  1  0  0  0  0
 17 16  1  0  0  0  0
 17 22  1  6  0  0  0
 23 18  1  0  0  0  0
 26 19  1  0  0  0  0
 25 20  1  0  0  0  0
 21 26  1  0  0  0  0
 22 21  2  0  0  0  0
 23 22  1  0  0  0  0
 24 23  2  0  0  0  0
 25 24  1  0  0  0  0
 26 25  2  0  0  0  0
  2 27  1  0  0  0  0
  1 28  1  0  0  0  0
  3 29  1  0  0  0  0
 18 30  1  0  0  0  0
 20 31  1  0  0  0  0
 19 32  1  0  0  0  0
M  END
>  <cdx:fragmentId>
5

$$$$
