40695.cdx
  Mrv1902 05222410252D          

 28 30  0  0  0  0            999 V2000
    6.3530  -11.6338    0.0000 O   0  0  0  0  0  0  0  0  0  0  0  0
    7.7820  -10.8088    0.0000 O   0  0  0  0  0  0  0  0  0  0  0  0
    4.9241   -6.6838    0.0000 C   0  0  0  0  0  0  0  0  0  0  0  0
    9.2109   -8.3338    0.0000 O   0  0  0  0  0  0  0  0  0  0  0  0
    7.7820   -9.1588    0.0000 O   0  0  0  0  0  0  0  0  0  0  0  0
    7.7820   -5.8588    0.0000 O   0  0  0  0  0  0  0  0  0  0  0  0
    5.6386  -10.3963    0.0000 C   0  0  0  0  0  0  0  0  0  0  0  0
    6.3530  -10.8088    0.0000 C   0  0  0  0  0  0  0  0  0  0  0  0
    7.0675  -10.3963    0.0000 C   0  0  0  0  0  0  0  0  0  0  0  0
    7.0675   -9.5713    0.0000 C   0  0  0  0  0  0  0  0  0  0  0  0
    4.9241   -8.3338    0.0000 C   0  0  0  0  0  0  0  0  0  0  0  0
    4.9241   -9.1588    0.0000 O   0  0  0  0  0  0  0  0  0  0  0  0
    5.6386   -9.5713    0.0000 C   0  0  0  0  0  0  0  0  0  0  0  0
    6.3530   -9.1588    0.0000 C   0  0  0  0  0  0  0  0  0  0  0  0
    6.3530   -6.6838    0.0000 C   0  0  0  0  0  0  0  0  0  0  0  0
    5.6386   -7.0963    0.0000 C   0  0  0  0  0  0  0  0  0  0  0  0
    5.6386   -7.9213    0.0000 C   0  0  1  0  0  0  0  0  0  0  0  0
    6.3530   -8.3338    0.0000 C   0  0  2  0  0  0  0  0  0  0  0  0
    7.7820   -6.6838    0.0000 C   0  0  0  0  0  0  0  0  0  0  0  0
    7.0675   -7.0963    0.0000 C   0  0  0  0  0  0  0  0  0  0  0  0
    7.0675   -7.9213    0.0000 C   0  0  0  0  0  0  0  0  0  0  0  0
    7.7820   -8.3338    0.0000 C   0  0  0  0  0  0  0  0  0  0  0  0
    8.4964   -7.9213    0.0000 C   0  0  0  0  0  0  0  0  0  0  0  0
    8.4964   -7.0963    0.0000 C   0  0  0  0  0  0  0  0  0  0  0  0
    9.9254   -7.9213    0.0000 C   0  0  0  0  0  0  0  0  0  0  0  0
    4.2096   -9.5713    0.0000 C   0  0  0  0  0  0  0  0  0  0  0  0
    8.4964  -10.3963    0.0000 C   0  0  0  0  0  0  0  0  0  0  0  0
    7.0675  -12.0463    0.0000 C   0  0  0  0  0  0  0  0  0  0  0  0
  8  1  1  0  0  0  0
  9  2  1  0  0  0  0
 16  3  1  0  0  0  0
 23  4  1  0  0  0  0
 22  5  2  0  0  0  0
 19  6  2  0  0  0  0
  7 13  2  0  0  0  0
  8  7  1  0  0  0  0
  9  8  2  0  0  0  0
 10  9  1  0  0  0  0
 14 10  2  0  0  0  0
 17 11  1  1  0  0  0
 13 12  1  0  0  0  0
 14 13  1  0  0  0  0
 18 14  1  6  0  0  0
 15 20  1  0  0  0  0
 16 15  2  0  0  0  0
 17 16  1  0  0  0  0
 18 17  1  0  0  0  0
 21 18  1  0  0  0  0
 19 24  1  0  0  0  0
 20 19  1  0  0  0  0
 21 20  2  0  0  0  0
 22 21  1  0  0  0  0
 23 22  1  0  0  0  0
 24 23  2  0  0  0  0
  4 25  1  0  0  0  0
 12 26  1  0  0  0  0
  2 27  1  0  0  0  0
  1 28  1  0  0  0  0
M  END
>  <cdx:fragmentId>
73

$$$$
