40690.cdx
  Mrv1902 05222410232D          

 30 32  0  0  0  0            999 V2000
    3.8067   -7.6550    0.0000 C   0  0  0  0  0  0  0  0  0  0  0  0
    4.5212   -8.8925    0.0000 O   0  0  0  0  0  0  0  0  0  0  0  0
    5.2357   -8.4800    0.0000 C   0  0  0  0  0  0  0  0  0  0  0  0
    5.2357   -7.6550    0.0000 C   0  0  0  0  0  0  0  0  0  0  0  0
    4.5212   -7.2425    0.0000 O   0  0  0  0  0  0  0  0  0  0  0  0
    5.9501   -8.8925    0.0000 C   0  0  0  0  0  0  0  0  0  0  0  0
    6.6646   -8.4800    0.0000 C   0  0  0  0  0  0  0  0  0  0  0  0
    6.6646   -7.6550    0.0000 C   0  0  0  0  0  0  0  0  0  0  0  0
    5.9501   -7.2425    0.0000 C   0  0  0  0  0  0  0  0  0  0  0  0
    7.3791   -8.8925    0.0000 C   0  0  2  0  0  0  0  0  0  0  0  0
    8.0935   -8.4800    0.0000 C   0  0  1  0  0  0  0  0  0  0  0  0
    8.0935   -7.6550    0.0000 C   0  0  2  0  0  0  0  0  0  0  0  0
    7.3791   -7.2425    0.0000 C   0  0  0  0  0  0  0  0  0  0  0  0
    8.8080   -8.8925    0.0000 C   0  0  0  0  0  0  0  0  0  0  0  0
    9.5225   -8.4800    0.0000 O   0  0  0  0  0  0  0  0  0  0  0  0
    9.5225   -7.6550    0.0000 O   0  0  0  0  0  0  0  0  0  0  0  0
    8.8080   -7.2425    0.0000 C   0  0  0  0  0  0  0  0  0  0  0  0
    5.9501   -9.7175    0.0000 O   0  0  0  0  0  0  0  0  0  0  0  0
    6.6646  -10.1300    0.0000 C   0  0  0  0  0  0  0  0  0  0  0  0
    7.3791   -9.7175    0.0000 C   0  0  0  0  0  0  0  0  0  0  0  0
    6.6646  -10.9550    0.0000 C   0  0  0  0  0  0  0  0  0  0  0  0
    7.3791  -11.3675    0.0000 C   0  0  0  0  0  0  0  0  0  0  0  0
    8.0935  -10.9550    0.0000 C   0  0  0  0  0  0  0  0  0  0  0  0
    8.0935  -10.1300    0.0000 C   0  0  0  0  0  0  0  0  0  0  0  0
    5.9501  -11.3675    0.0000 O   0  0  0  0  0  0  0  0  0  0  0  0
    5.9501  -12.1925    0.0000 C   0  0  0  0  0  0  0  0  0  0  0  0
    7.3791  -12.1925    0.0000 O   0  0  0  0  0  0  0  0  0  0  0  0
    8.8080  -12.1925    0.0000 C   0  0  0  0  0  0  0  0  0  0  0  0
    8.8080  -11.3675    0.0000 O   0  0  0  0  0  0  0  0  0  0  0  0
    5.2357  -10.1300    0.0000 C   0  0  0  0  0  0  0  0  0  0  0  0
  2  3  1  0  0  0  0
  3  4  2  0  0  0  0
  4  5  1  0  0  0  0
  5  1  1  0  0  0  0
  3  6  1  0  0  0  0
  6  7  2  0  0  0  0
  7  8  1  0  0  0  0
  8  9  2  0  0  0  0
  9  4  1  0  0  0  0
  7 10  1  0  0  0  0
 10 11  1  0  0  0  0
 11 12  1  0  0  0  0
 12 13  1  0  0  0  0
 13  8  1  0  0  0  0
 11 14  1  1  0  0  0
 14 15  1  0  0  0  0
 16 17  1  0  0  0  0
 12 17  1  6  0  0  0
  6 18  1  0  0  0  0
 19 20  2  0  0  0  0
 10 20  1  6  0  0  0
 19 21  1  0  0  0  0
 21 22  2  0  0  0  0
 22 23  1  0  0  0  0
 23 24  2  0  0  0  0
 24 20  1  0  0  0  0
 21 25  1  0  0  0  0
 25 26  1  0  0  0  0
 27 22  1  0  0  0  0
 28 29  1  0  0  0  0
 29 23  1  0  0  0  0
 18 30  1  0  0  0  0
M  END
>  <cdx:fragmentId>
111

$$$$
