40692.cdx
  Mrv1902 05222410242D          

 31 34  0  0  0  0            999 V2000
    5.7019   -8.6450    0.0000 C   0  0  0  0  0  0  0  0  0  0  0  0
    5.7019   -9.4700    0.0000 C   0  0  0  0  0  0  0  0  0  0  0  0
    6.4164   -9.8825    0.0000 C   0  0  0  0  0  0  0  0  0  0  0  0
    7.1309   -9.4700    0.0000 C   0  0  0  0  0  0  0  0  0  0  0  0
    7.1309   -8.6450    0.0000 C   0  0  0  0  0  0  0  0  0  0  0  0
    6.4164   -8.2325    0.0000 C   0  0  0  0  0  0  0  0  0  0  0  0
    7.8453   -9.8825    0.0000 C   0  0  0  0  0  0  0  0  0  0  0  0
    8.5598   -9.4700    0.0000 C   0  0  0  0  0  0  0  0  0  0  0  0
    8.5598   -8.6450    0.0000 C   0  0  2  0  0  0  0  0  0  0  0  0
    7.8453   -8.2325    0.0000 O   0  0  0  0  0  0  0  0  0  0  0  0
    9.2743   -8.2325    0.0000 C   0  0  0  0  0  0  0  0  0  0  0  0
    9.2743   -7.4075    0.0000 C   0  0  0  0  0  0  0  0  0  0  0  0
    9.9888   -8.6450    0.0000 C   0  0  0  0  0  0  0  0  0  0  0  0
   10.7032   -8.2325    0.0000 C   0  0  0  0  0  0  0  0  0  0  0  0
   10.7032   -7.4075    0.0000 C   0  0  0  0  0  0  0  0  0  0  0  0
    9.9888   -6.9950    0.0000 C   0  0  0  0  0  0  0  0  0  0  0  0
   11.4177   -6.9950    0.0000 O   0  0  0  0  0  0  0  0  0  0  0  0
    7.8453  -10.7075    0.0000 O   0  0  0  0  0  0  0  0  0  0  0  0
    4.9875   -8.2325    0.0000 O   0  0  0  0  0  0  0  0  0  0  0  0
    6.4164  -10.7075    0.0000 O   0  0  0  0  0  0  0  0  0  0  0  0
    3.5363   -9.9031    0.0000 C   0  0  2  0  0  0  0  0  0  0  0  0
    3.5363  -10.7281    0.0000 C   0  0  2  0  0  0  0  0  0  0  0  0
    4.2508  -11.1406    0.0000 C   0  0  1  0  0  0  0  0  0  0  0  0
    4.9652  -10.7281    0.0000 C   0  0  2  0  0  0  0  0  0  0  0  0
    4.9652   -9.9031    0.0000 C   0  0  0  0  0  0  0  0  0  0  0  0
    4.2508   -9.4906    0.0000 O   0  0  0  0  0  0  0  0  0  0  0  0
    2.8218   -9.4906    0.0000 C   0  0  0  0  0  0  0  0  0  0  0  0
    4.2508  -11.9656    0.0000 O   0  0  0  0  0  0  0  0  0  0  0  0
    5.6797  -11.1406    0.0000 O   0  0  0  0  0  0  0  0  0  0  0  0
    2.8218  -11.1406    0.0000 O   0  0  0  0  0  0  0  0  0  0  0  0
    2.1074   -9.9031    0.0000 O   0  0  0  0  0  0  0  0  0  0  0  0
  1  2  2  0  0  0  0
  2  3  1  0  0  0  0
  3  4  2  0  0  0  0
  4  5  1  0  0  0  0
  5  6  2  0  0  0  0
  6  1  1  0  0  0  0
  4  7  1  0  0  0  0
  7  8  1  0  0  0  0
  8  9  1  0  0  0  0
  9 10  1  0  0  0  0
 10  5  1  0  0  0  0
  9 11  1  6  0  0  0
 11 12  1  0  0  0  0
 11 13  2  0  0  0  0
 13 14  1  0  0  0  0
 14 15  2  0  0  0  0
 15 16  1  0  0  0  0
 16 12  2  0  0  0  0
 15 17  1  0  0  0  0
  7 18  2  0  0  0  0
  1 19  1  0  0  0  0
  3 20  1  0  0  0  0
 21 22  1  0  0  0  0
 22 23  1  0  0  0  0
 23 24  1  0  0  0  0
 24 25  1  0  0  0  0
 25 26  1  0  0  0  0
 26 21  1  0  0  0  0
 21 27  1  1  0  0  0
 23 28  1  1  0  0  0
 24 29  1  6  0  0  0
 22 30  1  6  0  0  0
 27 31  1  0  0  0  0
  2 25  1  0  0  0  0
M  END
>  <cdx:fragmentId>
144

$$$$
