40698.cdx
  Mrv1902 05222410212D          

 23 24  0  0  0  0            999 V2000
    9.1169   -4.7189    0.0000 C   0  0  0  0  0  0  0  0  0  0  0  0
    9.1169   -3.8939    0.0000 C   0  0  0  0  0  0  0  0  0  0  0  0
    8.4024   -3.4814    0.0000 C   0  0  0  0  0  0  0  0  0  0  0  0
    7.6879   -3.8939    0.0000 C   0  0  0  0  0  0  0  0  0  0  0  0
    7.6879   -4.7189    0.0000 C   0  0  0  0  0  0  0  0  0  0  0  0
    8.4024   -5.1314    0.0000 C   0  0  1  0  0  0  0  0  0  0  0  0
    8.4024   -2.6564    0.0000 O   0  0  0  0  0  0  0  0  0  0  0  0
    7.8117   -5.8051    0.0000 O   0  0  0  0  0  0  0  0  0  0  0  0
    5.5407   -6.3395    0.0000 C   0  0  2  0  0  0  0  0  0  0  0  0
    5.5453   -7.1645    0.0000 C   0  0  2  0  0  0  0  0  0  0  0  0
    6.2620   -7.5731    0.0000 C   0  0  1  0  0  0  0  0  0  0  0  0
    6.9742   -7.1566    0.0000 C   0  0  2  0  0  0  0  0  0  0  0  0
    6.9696   -6.3316    0.0000 C   0  0  1  0  0  0  0  0  0  0  0  0
    6.2529   -5.9231    0.0000 O   0  0  0  0  0  0  0  0  0  0  0  0
    4.8239   -5.9310    0.0000 C   0  0  0  0  0  0  0  0  0  0  0  0
    6.2666   -8.3980    0.0000 O   0  0  0  0  0  0  0  0  0  0  0  0
    4.8331   -7.5810    0.0000 O   0  0  0  0  0  0  0  0  0  0  0  0
    7.6910   -7.5651    0.0000 O   0  0  0  0  0  0  0  0  0  0  0  0
    4.1095   -6.3435    0.0000 O   0  0  0  0  0  0  0  0  0  0  0  0
    6.9734   -5.1314    0.0000 C   0  0  0  0  0  0  0  0  0  0  0  0
    9.8313   -5.1314    0.0000 C   0  0  0  0  0  0  0  0  0  0  0  0
    9.8313   -4.3064    0.0000 C   0  0  0  0  0  0  0  0  0  0  0  0
    8.9782   -5.7222    0.0000 H   0  0  0  0  0  0  0  0  0  0  0  0
  1  2  1  0  0  0  0
  2  3  1  0  0  0  0
  3  4  1  0  0  0  0
  4  5  2  0  0  0  0
  5  6  1  0  0  0  0
  6  1  1  0  0  0  0
  3  7  2  0  0  0  0
  6  8  1  6  0  0  0
  9 10  1  0  0  0  0
 10 11  1  0  0  0  0
 11 12  1  0  0  0  0
 12 13  1  0  0  0  0
 13 14  1  0  0  0  0
 14  9  1  0  0  0  0
  9 15  1  1  0  0  0
 11 16  1  1  0  0  0
 10 17  1  6  0  0  0
 12 18  1  6  0  0  0
 15 19  1  0  0  0  0
 13  8  1  1  0  0  0
  5 20  1  0  0  0  0
  1 21  1  0  0  0  0
  1 22  1  0  0  0  0
  6 23  1  1  0  0  0
M  END
>  <cdx:fragmentId>
5

$$$$
