40710.cdx
  Mrv1902 05222410222D          

  9  8  0  0  0  0            999 V2000
    9.6066   -6.5369    0.0000 C   0  0  0  0  0  0  0  0  0  0  0  0
    8.8922   -6.9494    0.0000 C   0  0  0  0  0  0  0  0  0  0  0  0
    8.1777   -6.5369    0.0000 C   0  0  0  0  0  0  0  0  0  0  0  0
    7.4632   -6.9494    0.0000 C   0  0  0  0  0  0  0  0  0  0  0  0
    6.7488   -6.5369    0.0000 C   0  0  0  0  0  0  0  0  0  0  0  0
    6.0343   -6.9494    0.0000 C   0  0  0  0  0  0  0  0  0  0  0  0
    5.3198   -6.5369    0.0000 C   0  0  0  0  0  0  0  0  0  0  0  0
    4.6054   -6.9494    0.0000 C   0  0  0  0  0  0  0  0  0  0  0  0
    8.1777   -5.7119    0.0000 O   0  0  0  0  0  0  0  0  0  0  0  0
  1  2  2  0  0  0  0
  2  3  1  0  0  0  0
  3  4  1  0  0  0  0
  4  5  1  0  0  0  0
  5  6  1  0  0  0  0
  6  7  2  0  0  0  0
  7  8  1  0  0  0  0
  3  9  1  0  0  0  0
M  END
>  <cdx:groupId>
65647

>  <cdx:fragmentId>
65624

$$$$
