4076.cdx
  Mrv1902 05222410192D          

102112  0  0  0  0            999 V2000
   10.8080  -10.3125    0.0000 C   0  0  2  0  0  0  0  0  0  0  0  0
   10.8080  -11.1375    0.0000 C   0  0  1  0  0  0  0  0  0  0  0  0
   11.5225  -11.5500    0.0000 C   0  0  0  0  0  0  0  0  0  0  0  0
   12.2370  -11.1375    0.0000 C   0  0  1  0  0  0  0  0  0  0  0  0
   12.2370  -10.3125    0.0000 C   0  0  2  0  0  0  0  0  0  0  0  0
   11.5225   -9.9000    0.0000 C   0  0  0  0  0  0  0  0  0  0  0  0
   12.9514  -11.5500    0.0000 C   0  0  0  0  0  0  0  0  0  0  0  0
   13.6659  -11.1375    0.0000 C   0  0  0  0  0  0  0  0  0  0  0  0
   13.6659  -10.3125    0.0000 C   0  0  2  0  0  0  0  0  0  0  0  0
   12.9514   -9.9000    0.0000 C   0  0  2  0  0  0  0  0  0  0  0  0
   14.3804   -9.9000    0.0000 C   0  0  1  0  0  0  0  0  0  0  0  0
   14.3804   -9.0750    0.0000 C   0  0  0  0  0  0  0  0  0  0  0  0
   13.6659   -8.6625    0.0000 C   0  0  0  0  0  0  0  0  0  0  0  0
   12.9514   -9.0750    0.0000 C   0  0  0  0  0  0  0  0  0  0  0  0
   15.0949  -10.3125    0.0000 C   0  0  0  0  0  0  0  0  0  0  0  0
   15.8093   -9.9000    0.0000 C   0  0  2  0  0  0  0  0  0  0  0  0
   15.8093   -9.0750    0.0000 C   0  0  2  0  0  0  0  0  0  0  0  0
   15.0949   -8.6625    0.0000 C   0  0  1  0  0  0  0  0  0  0  0  0
   16.5238   -8.6625    0.0000 C   0  0  0  0  0  0  0  0  0  0  0  0
   16.5238   -7.8375    0.0000 C   0  0  0  0  0  0  0  0  0  0  0  0
   15.8093   -7.4250    0.0000 C   0  0  0  0  0  0  0  0  0  0  0  0
   15.0949   -7.8375    0.0000 C   0  0  0  0  0  0  0  0  0  0  0  0
   10.0936   -9.9000    0.0000 O   0  0  0  0  0  0  0  0  0  0  0  0
   10.0936  -11.5500    0.0000 O   0  0  0  0  0  0  0  0  0  0  0  0
    9.3791  -11.1375    0.0000 C   0  0  2  0  0  0  0  0  0  0  0  0
    9.3791  -10.3125    0.0000 O   0  0  0  0  0  0  0  0  0  0  0  0
    8.6646   -9.9000    0.0000 C   0  0  1  0  0  0  0  0  0  0  0  0
    7.9501  -10.3125    0.0000 C   0  0  2  0  0  0  0  0  0  0  0  0
    7.9501  -11.1375    0.0000 C   0  0  1  0  0  0  0  0  0  0  0  0
    8.6646  -11.5500    0.0000 C   0  0  1  0  0  0  0  0  0  0  0  0
    8.6646   -9.0750    0.0000 C   0  0  0  0  0  0  0  0  0  0  0  0
    7.2357  -11.5500    0.0000 O   0  0  0  0  0  0  0  0  0  0  0  0
    8.6646  -12.3750    0.0000 O   0  0  0  0  0  0  0  0  0  0  0  0
    7.2357   -9.9000    0.0000 O   0  0  0  0  0  0  0  0  0  0  0  0
   11.1100  -12.2645    0.0000 C   0  0  0  0  0  0  0  0  0  0  0  0
   11.9350  -12.2645    0.0000 C   0  0  0  0  0  0  0  0  0  0  0  0
   11.5225  -12.9789    0.0000 O   0  0  0  0  0  0  0  0  0  0  0  0
   12.2370   -9.4875    0.0000 C   0  0  0  0  0  0  0  0  0  0  0  0
   12.2370  -11.9625    0.0000 H   0  0  0  0  0  0  0  0  0  0  0  0
   12.9514  -10.7250    0.0000 H   0  0  0  0  0  0  0  0  0  0  0  0
   13.6659   -9.4875    0.0000 C   0  0  0  0  0  0  0  0  0  0  0  0
   14.3804  -10.7250    0.0000 C   0  0  0  0  0  0  0  0  0  0  0  0
   15.0949   -9.4875    0.0000 H   0  0  0  0  0  0  0  0  0  0  0  0
   15.8093  -10.7250    0.0000 O   0  0  0  0  0  0  0  0  0  0  0  0
   16.5238   -9.4875    0.0000 C   0  0  0  0  0  0  0  0  0  0  0  0
   17.2383   -9.0750    0.0000 O   0  0  0  0  0  0  0  0  0  0  0  0
   16.5238  -10.3125    0.0000 O   0  0  0  0  0  0  0  0  0  0  0  0
   15.3968   -6.7105    0.0000 C   0  0  0  0  0  0  0  0  0  0  0  0
   16.2218   -6.7105    0.0000 C   0  0  0  0  0  0  0  0  0  0  0  0
   17.9527   -9.4875    0.0000 C   0  0  2  0  0  0  0  0  0  0  0  0
   17.9527  -10.3125    0.0000 O   0  0  0  0  0  0  0  0  0  0  0  0
   18.6672  -10.7250    0.0000 C   0  0  0  0  0  0  0  0  0  0  0  0
   19.3817  -10.3125    0.0000 C   0  0  1  0  0  0  0  0  0  0  0  0
   19.3817   -9.4875    0.0000 C   0  0  1  0  0  0  0  0  0  0  0  0
   18.6672   -9.0750    0.0000 C   0  0  1  0  0  0  0  0  0  0  0  0
   18.6672   -8.2500    0.0000 O   0  0  0  0  0  0  0  0  0  0  0  0
   20.0962   -9.0750    0.0000 O   0  0  0  0  0  0  0  0  0  0  0  0
   20.0962  -10.7250    0.0000 O   0  0  0  0  0  0  0  0  0  0  0  0
   19.3817   -7.8375    0.0000 C   0  0  2  0  0  0  0  0  0  0  0  0
   20.0962   -8.2500    0.0000 O   0  0  0  0  0  0  0  0  0  0  0  0
   20.8106   -7.8375    0.0000 C   0  0  2  0  0  0  0  0  0  0  0  0
   20.8106   -7.0125    0.0000 C   0  0  1  0  0  0  0  0  0  0  0  0
   20.0962   -6.6000    0.0000 C   0  0  2  0  0  0  0  0  0  0  0  0
   19.3817   -7.0125    0.0000 C   0  0  1  0  0  0  0  0  0  0  0  0
   18.6672   -6.6000    0.0000 O   0  0  0  0  0  0  0  0  0  0  0  0
   20.0962   -5.7750    0.0000 O   0  0  0  0  0  0  0  0  0  0  0  0
   21.5251   -6.6000    0.0000 O   0  0  0  0  0  0  0  0  0  0  0  0
   21.5251   -8.2500    0.0000 C   0  0  0  0  0  0  0  0  0  0  0  0
   22.2396   -7.0125    0.0000 C   0  0  2  0  0  0  0  0  0  0  0  0
   22.2396   -7.8375    0.0000 O   0  0  0  0  0  0  0  0  0  0  0  0
   22.9540   -8.2500    0.0000 C   0  0  0  0  0  0  0  0  0  0  0  0
   23.6685   -7.8375    0.0000 C   0  0  2  0  0  0  0  0  0  0  0  0
   23.6685   -7.0125    0.0000 C   0  0  1  0  0  0  0  0  0  0  0  0
   22.9540   -6.6000    0.0000 C   0  0  1  0  0  0  0  0  0  0  0  0
   22.9540   -5.7750    0.0000 O   0  0  0  0  0  0  0  0  0  0  0  0
   24.3830   -8.2500    0.0000 O   0  0  0  0  0  0  0  0  0  0  0  0
   26.9194   -8.0452    0.0000 C   0  0  0  0  0  0  0  0  0  0  0  0
   27.1329   -7.2483    0.0000 O   0  0  0  0  0  0  0  0  0  0  0  0
   26.0525   -6.0065    0.0000 O   0  0  0  0  0  0  0  0  0  0  0  0
   25.0743   -7.8975    0.0000 O   0  0  0  0  0  0  0  0  0  0  0  0
   25.8634   -8.1380    0.0000 C   0  0  0  0  0  0  0  0  0  0  0  0
   26.3361   -7.4618    0.0000 C   0  0  1  0  0  0  0  0  0  0  0  0
   25.8390   -6.8034    0.0000 C   0  0  2  0  0  0  0  0  0  0  0  0
   25.0592   -7.0726    0.0000 C   0  0  2  0  0  0  0  0  0  0  0  0
   24.3830   -6.6000    0.0000 O   0  0  0  0  0  0  0  0  0  0  0  0
   27.7163   -7.8317    0.0000 O   0  0  0  0  0  0  0  0  0  0  0  0
   10.3131  -12.4780    0.0000 O   0  0  0  0  0  0  0  0  0  0  0  0
    7.9501   -8.6625    0.0000 O   0  0  0  0  0  0  0  0  0  0  0  0
    6.5212  -11.1375    0.0000 C   0  0  2  0  0  0  0  0  0  0  0  0
    6.5212  -10.3125    0.0000 O   0  0  0  0  0  0  0  0  0  0  0  0
    5.8067   -9.9000    0.0000 C   0  0  1  0  0  0  0  0  0  0  0  0
    5.0923  -10.3125    0.0000 C   0  0  2  0  0  0  0  0  0  0  0  0
    5.0923  -11.1375    0.0000 C   0  0  1  0  0  0  0  0  0  0  0  0
    5.8067  -11.5500    0.0000 C   0  0  1  0  0  0  0  0  0  0  0  0
    5.8067   -9.0750    0.0000 C   0  0  0  0  0  0  0  0  0  0  0  0
    4.3778  -11.5500    0.0000 O   0  0  0  0  0  0  0  0  0  0  0  0
    5.0923   -8.6625    0.0000 O   0  0  0  0  0  0  0  0  0  0  0  0
    4.3778   -9.9000    0.0000 O   0  0  0  0  0  0  0  0  0  0  0  0
    5.8067  -12.3750    0.0000 O   0  0  0  0  0  0  0  0  0  0  0  0
   17.9527   -7.0125    0.0000 C   0  0  0  0  0  0  0  0  0  0  0  0
   17.2383   -6.6000    0.0000 C   0  0  0  0  0  0  0  0  0  0  0  0
   17.9527   -7.8375    0.0000 O   0  0  0  0  0  0  0  0  0  0  0  0
  1  2  1  0  0  0  0
  2  3  1  0  0  0  0
  3  4  1  0  0  0  0
  4  5  1  0  0  0  0
  5  6  1  0  0  0  0
  6  1  1  0  0  0  0
  4  7  1  0  0  0  0
  7  8  1  0  0  0  0
  8  9  1  0  0  0  0
  9 10  1  0  0  0  0
 10  5  1  0  0  0  0
  9 11  1  0  0  0  0
 11 12  1  0  0  0  0
 12 13  2  0  0  0  0
 13 14  1  0  0  0  0
 14 10  1  0  0  0  0
 11 15  1  0  0  0  0
 15 16  1  0  0  0  0
 16 17  1  0  0  0  0
 17 18  1  0  0  0  0
 18 12  1  0  0  0  0
 17 19  1  0  0  0  0
 19 20  1  0  0  0  0
 20 21  1  0  0  0  0
 21 22  1  0  0  0  0
 22 18  1  0  0  0  0
  1 23  1  1  0  0  0
  2 24  1  1  0  0  0
 25 24  1  1  0  0  0
 25 26  1  0  0  0  0
 26 27  1  0  0  0  0
 27 28  1  0  0  0  0
 28 29  1  0  0  0  0
 29 30  1  0  0  0  0
 30 25  1  0  0  0  0
 27 31  1  1  0  0  0
 29 32  1  1  0  0  0
 30 33  1  6  0  0  0
 28 34  1  6  0  0  0
  3 35  1  0  0  0  0
  3 36  1  0  0  0  0
 36 37  1  0  0  0  0
  5 38  1  1  0  0  0
  4 39  1  6  0  0  0
 10 40  1  6  0  0  0
  9 41  1  1  0  0  0
 11 42  1  6  0  0  0
 18 43  1  1  0  0  0
 16 44  1  6  0  0  0
 17 45  1  1  0  0  0
 45 46  1  0  0  0  0
 45 47  2  0  0  0  0
 21 48  1  0  0  0  0
 21 49  1  0  0  0  0
 50 46  1  1  0  0  0
 50 51  1  0  0  0  0
 51 52  1  0  0  0  0
 52 53  1  0  0  0  0
 53 54  1  0  0  0  0
 54 55  1  0  0  0  0
 55 50  1  0  0  0  0
 55 56  1  6  0  0  0
 54 57  1  1  0  0  0
 53 58  1  1  0  0  0
 59 56  1  1  0  0  0
 59 60  1  0  0  0  0
 60 61  1  0  0  0  0
 61 62  1  0  0  0  0
 62 63  1  0  0  0  0
 63 64  1  0  0  0  0
 64 59  1  0  0  0  0
 64 65  1  6  0  0  0
 63 66  1  6  0  0  0
 62 67  1  1  0  0  0
 61 68  1  6  0  0  0
 69 67  1  1  0  0  0
 69 70  1  0  0  0  0
 70 71  1  0  0  0  0
 71 72  1  0  0  0  0
 72 73  1  0  0  0  0
 73 74  1  0  0  0  0
 74 69  1  0  0  0  0
 74 75  1  6  0  0  0
 73 85  1  1  0  0  0
 72 76  1  6  0  0  0
 82 77  1  0  0  0  0
 82 78  1  6  0  0  0
 83 79  1  6  0  0  0
 80 84  1  0  0  0  0
 81 80  1  0  0  0  0
 82 81  1  0  0  0  0
 83 82  1  0  0  0  0
 84 83  1  0  0  0  0
 84 85  1  1  0  0  0
 77 86  1  0  0  0  0
 35 87  1  0  0  0  0
 31 88  1  0  0  0  0
 89 32  1  1  0  0  0
 89 90  1  0  0  0  0
 90 91  1  0  0  0  0
 91 92  1  0  0  0  0
 92 93  1  0  0  0  0
 93 94  1  0  0  0  0
 94 89  1  0  0  0  0
 91 95  1  1  0  0  0
 93 96  1  1  0  0  0
 95 97  1  0  0  0  0
 92 98  1  6  0  0  0
 94 99  1  6  0  0  0
 65100  1  0  0  0  0
100101  1  0  0  0  0
100102  2  0  0  0  0
M  END
>  <cdx:fragmentId>
548

$$$$
