4087.cdx
  Mrv1902 05222410262D          

 40 43  0  0  0  0            999 V2000
    7.5039   -8.3462    0.0000 C   0  0  0  0  0  0  0  0  0  0  0  0
    7.5039   -9.1713    0.0000 C   0  0  0  0  0  0  0  0  0  0  0  0
    8.2184   -9.5838    0.0000 C   0  0  0  0  0  0  0  0  0  0  0  0
    8.9328   -9.1713    0.0000 C   0  0  0  0  0  0  0  0  0  0  0  0
    8.9328   -8.3462    0.0000 C   0  0  0  0  0  0  0  0  0  0  0  0
    8.2184   -7.9337    0.0000 C   0  0  0  0  0  0  0  0  0  0  0  0
    9.6473   -9.5838    0.0000 C   0  0  0  0  0  0  0  0  0  0  0  0
   10.3618   -9.1713    0.0000 C   0  0  0  0  0  0  0  0  0  0  0  0
   10.3618   -8.3462    0.0000 C   0  0  0  0  0  0  0  0  0  0  0  0
    9.6473   -7.9337    0.0000 O   0  0  0  0  0  0  0  0  0  0  0  0
    6.7894   -7.9337    0.0000 O   0  0  0  0  0  0  0  0  0  0  0  0
    8.2184  -10.4087    0.0000 C   0  0  0  0  0  0  0  0  0  0  0  0
   11.0763   -7.9337    0.0000 C   0  0  0  0  0  0  0  0  0  0  0  0
    9.6473  -10.4087    0.0000 O   0  0  0  0  0  0  0  0  0  0  0  0
   11.7907   -8.3462    0.0000 C   0  0  2  0  0  0  0  0  0  0  0  0
   12.5052   -7.9337    0.0000 C   0  0  0  0  0  0  0  0  0  0  0  0
   11.3782   -9.0607    0.0000 O   0  0  0  0  0  0  0  0  0  0  0  0
   12.2032   -9.0607    0.0000 H   0  0  0  0  0  0  0  0  0  0  0  0
    5.9161   -6.7647    0.0000 C   0  0  0  0  0  0  0  0  0  0  0  0
    5.9128   -5.9397    0.0000 O   0  0  0  0  0  0  0  0  0  0  0  0
    1.6360   -8.4320    0.0000 O   0  0  0  0  0  0  0  0  0  0  0  0
    3.0582   -6.7762    0.0000 C   0  0  0  0  0  0  0  0  0  0  0  0
    2.3454   -7.1916    0.0000 C   0  0  0  0  0  0  0  0  0  0  0  0
    2.3488   -8.0166    0.0000 C   0  0  0  0  0  0  0  0  0  0  0  0
    3.0649   -8.4262    0.0000 C   0  0  0  0  0  0  0  0  0  0  0  0
    3.7777   -8.0109    0.0000 C   0  0  0  0  0  0  0  0  0  0  0  0
    3.7744   -7.1859    0.0000 C   0  0  0  0  0  0  0  0  0  0  0  0
    4.4872   -6.7705    0.0000 C   0  0  0  0  0  0  0  0  0  0  0  0
    5.2033   -7.1801    0.0000 C   0  0  0  0  0  0  0  0  0  0  0  0
    8.9327   -6.0150    0.0000 C   0  0  2  0  0  0  0  0  0  0  0  0
    8.2175   -5.6038    0.0000 C   0  0  2  0  0  0  0  0  0  0  0  0
    7.5038   -6.0177    0.0000 C   0  0  1  0  0  0  0  0  0  0  0  0
    7.5053   -6.8427    0.0000 C   0  0  2  0  0  0  0  0  0  0  0  0
    8.2205   -7.2538    0.0000 C   0  0  1  0  0  0  0  0  0  0  0  0
    8.9342   -6.8400    0.0000 O   0  0  0  0  0  0  0  0  0  0  0  0
    9.6464   -5.6012    0.0000 C   0  0  0  0  0  0  0  0  0  0  0  0
    6.7885   -5.6065    0.0000 O   0  0  0  0  0  0  0  0  0  0  0  0
    8.2159   -4.7788    0.0000 O   0  0  0  0  0  0  0  0  0  0  0  0
    6.7916   -7.2565    0.0000 O   0  0  0  0  0  0  0  0  0  0  0  0
    9.6449   -4.7762    0.0000 O   0  0  0  0  0  0  0  0  0  0  0  0
  1  2  2  0  0  0  0
  2  3  1  0  0  0  0
  3  4  2  0  0  0  0
  4  5  1  0  0  0  0
  5  6  2  0  0  0  0
  6  1  1  0  0  0  0
  4  7  1  0  0  0  0
  7  8  1  0  0  0  0
  8  9  2  0  0  0  0
  9 10  1  0  0  0  0
 10  5  1  0  0  0  0
  1 11  1  0  0  0  0
  3 12  1  0  0  0  0
  9 13  1  0  0  0  0
  7 14  2  0  0  0  0
 13 15  1  0  0  0  0
 15 16  1  0  0  0  0
 15 17  1  6  0  0  0
 15 18  1  1  0  0  0
 24 21  1  0  0  0  0
 19 29  1  0  0  0  0
 19 20  2  0  0  0  0
 22 27  1  0  0  0  0
 23 22  2  0  0  0  0
 24 23  1  0  0  0  0
 25 24  2  0  0  0  0
 26 25  1  0  0  0  0
 27 26  2  0  0  0  0
 28 27  1  0  0  0  0
 29 28  2  0  0  0  0
 30 31  1  0  0  0  0
 31 32  1  0  0  0  0
 32 33  1  0  0  0  0
 33 34  1  0  0  0  0
 34 35  1  0  0  0  0
 35 30  1  0  0  0  0
 30 36  1  1  0  0  0
 32 37  1  1  0  0  0
 31 38  1  6  0  0  0
 33 39  1  6  0  0  0
 36 40  1  0  0  0  0
 34  6  1  1  0  0  0
 19 39  1  0  0  0  0
M  END
>  <cdx:fragmentId>
5

$$$$
