4101.cdx
  Mrv1902 05222410202D          

 17 18  0  0  0  0            999 V2000
    8.4195   -7.7511    0.0000 C   0  0  0  0  0  0  0  0  0  0  0  0
    8.4176   -6.9261    0.0000 C   0  0  0  0  0  0  0  0  0  0  0  0
    7.7022   -6.5153    0.0000 C   0  0  0  0  0  0  0  0  0  0  0  0
    6.9887   -6.9295    0.0000 C   0  0  0  0  0  0  0  0  0  0  0  0
    6.9906   -7.7545    0.0000 C   0  0  2  0  0  0  0  0  0  0  0  0
    7.7060   -8.1653    0.0000 C   0  0  0  0  0  0  0  0  0  0  0  0
    6.2733   -6.5186    0.0000 C   0  0  0  0  0  0  0  0  0  0  0  0
    5.5597   -6.9328    0.0000 C   0  0  1  0  0  0  0  0  0  0  0  0
    5.5617   -7.7578    0.0000 C   0  0  0  0  0  0  0  0  0  0  0  0
    6.2771   -8.1686    0.0000 C   0  0  0  0  0  0  0  0  0  0  0  0
    9.1350   -8.1620    0.0000 O   0  0  0  0  0  0  0  0  0  0  0  0
    7.7003   -5.6903    0.0000 C   0  0  0  0  0  0  0  0  0  0  0  0
    9.1311   -6.5120    0.0000 O   0  0  0  0  0  0  0  0  0  0  0  0
    4.8443   -6.5219    0.0000 C   0  0  0  0  0  0  0  0  0  0  0  0
    4.1308   -6.9361    0.0000 C   0  0  0  0  0  0  0  0  0  0  0  0
    4.8424   -5.6970    0.0000 C   0  0  0  0  0  0  0  0  0  0  0  0
    6.9925   -8.5795    0.0000 C   0  0  0  0  0  0  0  0  0  0  0  0
  1  2  1  0  0  0  0
  2  3  1  0  0  0  0
  3  4  2  0  0  0  0
  4  5  1  0  0  0  0
  5  6  1  0  0  0  0
  6  1  2  0  0  0  0
  4  7  1  0  0  0  0
  7  8  1  0  0  0  0
  8  9  1  0  0  0  0
  9 10  1  0  0  0  0
 10  5  1  0  0  0  0
  1 11  1  0  0  0  0
  3 12  1  0  0  0  0
  2 13  2  0  0  0  0
  8 14  1  1  0  0  0
 14 15  2  0  0  0  0
 14 16  1  0  0  0  0
  5 17  1  1  0  0  0
M  END
>  <cdx:fragmentId>
5

$$$$
