410351.cdx
  Mrv1902 05222410242D          

 36 39  0  0  0  0            999 V2000
    9.8513   -6.0105    0.0000 C   0  0  0  0  0  0  0  0  0  0  0  0
    9.5964   -6.7951    0.0000 C   0  0  0  0  0  0  0  0  0  0  0  0
    8.7894   -6.9666    0.0000 C   0  0  1  0  0  0  0  0  0  0  0  0
    8.2374   -6.3535    0.0000 C   0  0  0  0  0  0  0  0  0  0  0  0
   10.9133   -5.0543    0.0000 O   0  0  0  0  0  0  0  0  0  0  0  0
    4.8920   -8.8312    0.0000 C   0  0  0  0  0  0  0  0  0  0  0  0
    4.1775   -9.2437    0.0000 C   0  0  0  0  0  0  0  0  0  0  0  0
    4.1775  -10.0687    0.0000 C   0  0  0  0  0  0  0  0  0  0  0  0
    4.8920  -10.4812    0.0000 C   0  0  0  0  0  0  0  0  0  0  0  0
    5.6065  -10.0687    0.0000 C   0  0  2  0  0  0  0  0  0  0  0  0
    6.3209  -10.4812    0.0000 C   0  0  0  0  0  0  0  0  0  0  0  0
    7.0354  -10.0687    0.0000 C   0  0  1  0  0  0  0  0  0  0  0  0
    7.0354   -9.2437    0.0000 C   0  0  0  0  0  0  0  0  0  0  0  0
    7.7499   -8.8312    0.0000 C   0  0  2  0  0  0  0  0  0  0  0  0
    8.5345   -9.0861    0.0000 C   0  0  0  0  0  0  0  0  0  0  0  0
    9.0194   -8.4187    0.0000 C   0  0  0  0  0  0  0  0  0  0  0  0
    8.5345   -7.7512    0.0000 C   0  0  1  0  0  0  0  0  0  0  0  0
    7.7499   -8.0062    0.0000 C   0  0  1  0  0  0  0  0  0  0  0  0
    7.0354   -7.5937    0.0000 C   0  0  1  0  0  0  0  0  0  0  0  0
    6.3209   -8.0062    0.0000 C   0  0  0  0  0  0  0  0  0  0  0  0
    6.3209   -8.8312    0.0000 C   0  0  0  0  0  0  0  0  0  0  0  0
    5.6065   -9.2437    0.0000 C   0  0  1  0  0  0  0  0  0  0  0  0
    8.7894   -9.8707    0.0000 O   0  0  0  0  0  0  0  0  0  0  0  0
    5.6065   -7.5937    0.0000 O   0  0  0  0  0  0  0  0  0  0  0  0
    3.4631  -10.4812    0.0000 O   0  0  0  0  0  0  0  0  0  0  0  0
    7.7499   -9.6562    0.0000 C   0  0  0  0  0  0  0  0  0  0  0  0
    7.7499   -7.1812    0.0000 C   0  0  0  0  0  0  0  0  0  0  0  0
    5.6065   -8.4187    0.0000 C   0  0  0  0  0  0  0  0  0  0  0  0
    5.3045  -11.1957    0.0000 C   0  0  0  0  0  0  0  0  0  0  0  0
    4.4795  -11.1957    0.0000 C   0  0  0  0  0  0  0  0  0  0  0  0
    7.0354   -6.7687    0.0000 O   0  0  0  0  0  0  0  0  0  0  0  0
    7.7499  -10.4812    0.0000 O   0  0  0  0  0  0  0  0  0  0  0  0
    5.6065  -10.8937    0.0000 H   0  0  0  0  0  0  0  0  0  0  0  0
   11.2104   -6.4520    0.0000 O   0  0  0  0  0  0  0  0  0  0  0  0
   10.6583   -5.8389    0.0000 C   0  0  0  0  0  0  0  0  0  0  0  0
    9.3191   -7.4963    0.0000 H   0  0  0  0  0  0  0  0  0  0  0  0
 35  5  1  0  0  0  0
 35 34  2  0  0  0  0
 35  1  1  0  0  0  0
  1  2  1  0  0  0  0
  2  3  1  0  0  0  0
  3  4  1  6  0  0  0
  6  7  1  0  0  0  0
  7  8  1  0  0  0  0
  8  9  1  0  0  0  0
  9 10  1  0  0  0  0
 10 11  1  0  0  0  0
 11 12  1  0  0  0  0
 12 13  1  0  0  0  0
 13 14  1  0  0  0  0
 14 15  1  0  0  0  0
 15 16  1  0  0  0  0
 17 16  1  0  0  0  0
 17 18  1  0  0  0  0
 14 18  1  0  0  0  0
 18 19  1  0  0  0  0
 19 20  1  0  0  0  0
 20 21  1  0  0  0  0
 13 21  2  0  0  0  0
 21 22  1  0  0  0  0
 10 22  1  0  0  0  0
  6 22  1  0  0  0  0
 15 23  2  0  0  0  0
 20 24  2  0  0  0  0
  8 25  2  0  0  0  0
 14 26  1  6  0  0  0
 18 27  1  1  0  0  0
 22 28  1  1  0  0  0
  9 29  1  0  0  0  0
  9 30  1  0  0  0  0
 19 31  1  1  0  0  0
 12 32  1  1  0  0  0
  3 17  1  0  0  0  0
 10 33  1  6  0  0  0
 17 36  1  6  0  0  0
M  END
>  <cdx:groupId>
39361

>  <cdx:fragmentId>
39270

$$$$
