4103.cdx
  Mrv1902 05222410192D          

 22 23  0  0  0  0            999 V2000
    5.5720   -8.9306    0.0000 C   0  0  2  0  0  0  0  0  0  0  0  0
    5.5720   -9.7556    0.0000 C   0  0  1  0  0  0  0  0  0  0  0  0
    6.2865  -10.1681    0.0000 C   0  0  1  0  0  0  0  0  0  0  0  0
    7.0010   -9.7556    0.0000 C   0  0  2  0  0  0  0  0  0  0  0  0
    7.0010   -8.9306    0.0000 C   0  0  2  0  0  0  0  0  0  0  0  0
    6.2865   -8.5181    0.0000 O   0  0  0  0  0  0  0  0  0  0  0  0
    7.7154   -8.5181    0.0000 O   0  0  0  0  0  0  0  0  0  0  0  0
    7.7154   -7.6931    0.0000 C   0  0  2  0  0  0  0  0  0  0  0  0
    7.0010   -7.2806    0.0000 C   0  0  1  0  0  0  0  0  0  0  0  0
    6.2865   -7.6931    0.0000 O   0  0  0  0  0  0  0  0  0  0  0  0
    8.4299   -7.2806    0.0000 C   0  0  0  0  0  0  0  0  0  0  0  0
    8.4299   -6.4556    0.0000 N   0  0  0  0  0  0  0  0  0  0  0  0
    7.7154   -6.0431    0.0000 C   0  0  1  0  0  0  0  0  0  0  0  0
    7.0010   -6.4556    0.0000 C   0  0  1  0  0  0  0  0  0  0  0  0
    4.8576   -8.5181    0.0000 C   0  0  0  0  0  0  0  0  0  0  0  0
    4.1431   -8.9306    0.0000 O   0  0  0  0  0  0  0  0  0  0  0  0
    7.7154   -5.2181    0.0000 C   0  0  0  0  0  0  0  0  0  0  0  0
    7.0010   -4.8056    0.0000 O   0  0  0  0  0  0  0  0  0  0  0  0
    4.8576  -10.1681    0.0000 O   0  0  0  0  0  0  0  0  0  0  0  0
    6.2865  -10.9931    0.0000 O   0  0  0  0  0  0  0  0  0  0  0  0
    6.2865   -6.0431    0.0000 O   0  0  0  0  0  0  0  0  0  0  0  0
    7.7154  -10.1681    0.0000 O   0  0  0  0  0  0  0  0  0  0  0  0
  1  2  1  0  0  0  0
  2  3  1  0  0  0  0
  3  4  1  0  0  0  0
  4  5  1  0  0  0  0
  5  6  1  0  0  0  0
  6  1  1  0  0  0  0
  5  7  1  6  0  0  0
  8  7  1  6  0  0  0
  8  9  1  0  0  0  0
  9 10  1  1  0  0  0
  8 11  1  0  0  0  0
 11 12  1  0  0  0  0
 12 13  1  0  0  0  0
 13 14  1  0  0  0  0
 14  9  1  0  0  0  0
  1 15  1  1  0  0  0
 15 16  1  0  0  0  0
 13 17  1  1  0  0  0
 17 18  1  0  0  0  0
  2 19  1  1  0  0  0
  3 20  1  1  0  0  0
 14 21  1  6  0  0  0
  4 22  1  6  0  0  0
M  END
>  <cdx:fragmentId>
5

$$$$
