101410732.cdx
  Mrv1902 05222410282D          

 46 52  0  0  0  0            999 V2000
    4.7920  -16.4154    0.0000 O   0  0  0  0  0  0  0  0  0  0  0  0
    4.7920  -17.2404    0.0000 C   0  0  2  0  0  0  0  0  0  0  0  0
    4.0776  -17.6529    0.0000 C   0  0  1  0  0  0  0  0  0  0  0  0
    3.3631  -17.2404    0.0000 C   0  0  2  0  0  0  0  0  0  0  0  0
    3.3631  -16.4154    0.0000 C   0  0  1  0  0  0  0  0  0  0  0  0
    4.0776  -16.0029    0.0000 C   0  0  0  0  0  0  0  0  0  0  0  0
    4.0776  -18.4779    0.0000 O   0  0  0  0  0  0  0  0  0  0  0  0
    2.6486  -17.6529    0.0000 O   0  0  0  0  0  0  0  0  0  0  0  0
    2.6486  -16.0029    0.0000 O   0  0  0  0  0  0  0  0  0  0  0  0
    5.5065  -17.6529    0.0000 O   0  0  0  0  0  0  0  0  0  0  0  0
    8.3644  -16.0029    0.0000 C   0  0  2  0  0  0  0  0  0  0  0  0
    7.6499  -15.5904    0.0000 C   0  0  0  0  0  0  0  0  0  0  0  0
    7.6499  -16.4154    0.0000 C   0  0  1  0  0  0  0  0  0  0  0  0
    6.9354  -16.0029    0.0000 C   0  0  0  0  0  0  0  0  0  0  0  0
    6.2210  -16.4154    0.0000 C   0  0  0  0  0  0  0  0  0  0  0  0
    6.2210  -17.2404    0.0000 C   0  0  1  0  0  0  0  0  0  0  0  0
    6.9354  -17.6529    0.0000 C   0  0  0  0  0  0  0  0  0  0  0  0
    7.6499  -17.2404    0.0000 C   0  0  2  0  0  0  0  0  0  0  0  0
    8.3644  -17.6529    0.0000 C   0  0  2  0  0  0  0  0  0  0  0  0
    9.0789  -17.2404    0.0000 C   0  0  0  0  0  0  0  0  0  0  0  0
    9.0789  -16.4154    0.0000 C   0  0  1  0  0  0  0  0  0  0  0  0
    9.7933  -16.0029    0.0000 C   0  0  2  0  0  0  0  0  0  0  0  0
   10.5780  -16.2579    0.0000 C   0  0  0  0  0  0  0  0  0  0  0  0
   11.0629  -15.5904    0.0000 C   0  0  0  0  0  0  0  0  0  0  0  0
   10.5780  -14.9230    0.0000 C   0  0  1  0  0  0  0  0  0  0  0  0
    9.7933  -15.1779    0.0000 C   0  0  1  0  0  0  0  0  0  0  0  0
    9.0789  -14.7654    0.0000 C   0  0  0  0  0  0  0  0  0  0  0  0
    8.3644  -15.1779    0.0000 C   0  0  0  0  0  0  0  0  0  0  0  0
    9.8796  -14.3574    0.0000 C   0  0  0  0  0  0  0  0  0  0  0  0
    9.7933  -16.8279    0.0000 C   0  0  0  0  0  0  0  0  0  0  0  0
    7.3479  -18.3674    0.0000 C   0  0  0  0  0  0  0  0  0  0  0  0
    6.5229  -18.3674    0.0000 C   0  0  0  0  0  0  0  0  0  0  0  0
   11.3849  -13.5253    0.0000 O   0  0  0  0  0  0  0  0  0  0  0  0
   10.8329  -14.1384    0.0000 C   0  0  1  0  0  0  0  0  0  0  0  0
   10.0792  -13.8028    0.0000 C   0  0  0  0  0  0  0  0  0  0  0  0
   10.1655  -12.9823    0.0000 C   0  0  0  0  0  0  0  0  0  0  0  0
   10.9724  -12.8108    0.0000 C   0  0  0  0  0  0  0  0  0  0  0  0
   11.3849  -14.7514    0.0000 C   0  0  0  0  0  0  0  0  0  0  0  0
   12.1228  -11.9281    0.0000 C   0  0  0  0  0  0  0  0  0  0  0  0
   11.3080  -12.0571    0.0000 C   0  0  0  0  0  0  0  0  0  0  0  0
   10.8231  -11.3897    0.0000 C   0  0  0  0  0  0  0  0  0  0  0  0
   11.6435  -11.3034    0.0000 O   0  0  0  0  0  0  0  0  0  0  0  0
   11.8879  -15.5904    0.0000 O   0  0  0  0  0  0  0  0  0  0  0  0
    8.3644  -18.4779    0.0000 O   0  0  0  0  0  0  0  0  0  0  0  0
    7.6499  -18.0654    0.0000 H   0  0  0  0  0  0  0  0  0  0  0  0
    9.0789  -15.5904    0.0000 H   0  0  0  0  0  0  0  0  0  0  0  0
  1  2  1  0  0  0  0
  2  3  1  0  0  0  0
  3  4  1  0  0  0  0
  4  5  1  0  0  0  0
  5  6  1  0  0  0  0
  1  6  1  0  0  0  0
  3  7  1  6  0  0  0
  4  8  1  1  0  0  0
  5  9  1  6  0  0  0
 11 12  1  1  0  0  0
 13 12  1  1  0  0  0
 13 14  1  0  0  0  0
 14 15  1  0  0  0  0
 15 16  1  0  0  0  0
 16 17  1  0  0  0  0
 17 18  1  0  0  0  0
 18 19  1  0  0  0  0
 19 20  1  0  0  0  0
 20 21  1  0  0  0  0
 21 22  1  0  0  0  0
 22 23  1  0  0  0  0
 23 24  1  0  0  0  0
 24 25  1  0  0  0  0
 25 26  1  0  0  0  0
 26 27  1  0  0  0  0
 27 28  1  0  0  0  0
 11 28  1  0  0  0  0
 11 21  1  0  0  0  0
 22 26  1  0  0  0  0
 13 18  1  0  0  0  0
 11 13  1  0  0  0  0
 26 29  1  1  0  0  0
 22 30  1  6  0  0  0
 17 31  1  0  0  0  0
 17 32  1  0  0  0  0
 33 34  1  0  0  0  0
 34 35  1  0  0  0  0
 35 36  1  0  0  0  0
 36 37  1  0  0  0  0
 33 37  1  0  0  0  0
 34 38  1  1  0  0  0
 39 40  1  0  0  0  0
 40 41  1  0  0  0  0
 40 42  1  0  0  0  0
 37 40  1  0  0  0  0
 25 34  1  1  0  0  0
 24 43  1  0  0  0  0
 19 44  1  6  0  0  0
 16 10  1  1  0  0  0
  2 10  1  1  0  0  0
 18 45  1  6  0  0  0
 21 46  1  1  0  0  0
M  END
>  <cdx:groupId>
242568

>  <cdx:fragmentId>
242447

$$$$
