41114.cdx
  Mrv1902 05222410272D          

  8  9  0  0  0  0            999 V2000
    6.2430   -6.1050    0.0000 C   0  0  0  0  0  0  0  0  0  0  0  0
    6.2430   -6.9300    0.0000 C   0  0  0  0  0  0  0  0  0  0  0  0
    6.9575   -7.3425    0.0000 C   0  0  0  0  0  0  0  0  0  0  0  0
    7.6720   -6.9300    0.0000 C   0  0  0  0  0  0  0  0  0  0  0  0
    7.6720   -6.1050    0.0000 C   0  0  0  0  0  0  0  0  0  0  0  0
    6.9575   -5.6925    0.0000 C   0  0  0  0  0  0  0  0  0  0  0  0
    8.4970   -6.9300    0.0000 C   0  0  0  0  0  0  0  0  0  0  0  0
    8.4970   -6.1050    0.0000 C   0  0  0  0  0  0  0  0  0  0  0  0
  1  2  2  0  0  0  0
  2  3  1  0  0  0  0
  3  4  2  0  0  0  0
  4  5  1  0  0  0  0
  5  6  2  0  0  0  0
  6  1  1  0  0  0  0
  4  7  1  0  0  0  0
  7  8  1  0  0  0  0
  8  5  1  0  0  0  0
M  END
>  <cdx:fragmentId>
237

$$$$
