411370.cdx
  Mrv1902 05222410262D          

 31 33  0  0  0  0            999 V2000
    5.0905  -10.2156    0.0000 O   0  0  0  0  0  0  0  0  0  0  0  0
    4.3754  -10.6269    0.0000 C   0  0  1  0  0  0  0  0  0  0  0  0
    4.3741  -11.4519    0.0000 C   0  0  2  0  0  0  0  0  0  0  0  0
    5.0879  -11.8656    0.0000 C   0  0  1  0  0  0  0  0  0  0  0  0
    5.8030  -11.4542    0.0000 C   0  0  2  0  0  0  0  0  0  0  0  0
    5.8043  -10.6292    0.0000 C   0  0  2  0  0  0  0  0  0  0  0  0
    8.6629   -6.5054    0.0000 C   0  0  0  0  0  0  0  0  0  0  0  0
    8.6629   -5.6804    0.0000 C   0  0  0  0  0  0  0  0  0  0  0  0
    9.3773   -5.2679    0.0000 C   0  0  0  0  0  0  0  0  0  0  0  0
   10.0918   -5.6804    0.0000 C   0  0  0  0  0  0  0  0  0  0  0  0
   10.0918   -6.5054    0.0000 C   0  0  0  0  0  0  0  0  0  0  0  0
    9.3773   -6.9179    0.0000 C   0  0  0  0  0  0  0  0  0  0  0  0
   10.8063   -6.9179    0.0000 C   0  0  0  0  0  0  0  0  0  0  0  0
    9.3773   -4.4429    0.0000 O   0  0  0  0  0  0  0  0  0  0  0  0
    3.6590  -11.8633    0.0000 O   0  0  0  0  0  0  0  0  0  0  0  0
    5.0866  -12.6906    0.0000 O   0  0  0  0  0  0  0  0  0  0  0  0
    6.5168  -11.8679    0.0000 O   0  0  0  0  0  0  0  0  0  0  0  0
    6.5195  -10.2179    0.0000 O   0  0  0  0  0  0  0  0  0  0  0  0
    3.6616  -10.2133    0.0000 C   0  0  0  0  0  0  0  0  0  0  0  0
    2.9465  -10.6247    0.0000 O   0  0  0  0  0  0  0  0  0  0  0  0
    7.9484  -10.2179    0.0000 O   0  0  0  0  0  0  0  0  0  0  0  0
    9.3773   -9.3929    0.0000 O   0  0  0  0  0  0  0  0  0  0  0  0
    9.3773   -7.7429    0.0000 O   0  0  0  0  0  0  0  0  0  0  0  0
    7.9484   -6.9179    0.0000 O   0  0  0  0  0  0  0  0  0  0  0  0
    7.9484   -7.7429    0.0000 C   0  0  1  0  0  0  0  0  0  0  0  0
    8.6629   -8.1554    0.0000 C   0  0  1  0  0  0  0  0  0  0  0  0
    8.6629   -8.9804    0.0000 C   0  0  2  0  0  0  0  0  0  0  0  0
    7.9484   -9.3929    0.0000 C   0  0  1  0  0  0  0  0  0  0  0  0
    7.2339   -8.9804    0.0000 C   0  0  2  0  0  0  0  0  0  0  0  0
    7.2339   -8.1554    0.0000 O   0  0  0  0  0  0  0  0  0  0  0  0
    6.5195   -9.3929    0.0000 C   0  0  0  0  0  0  0  0  0  0  0  0
 29 31  1  1  0  0  0
 28 21  1  6  0  0  0
 27 22  1  1  0  0  0
 26 23  1  6  0  0  0
 25 24  1  1  0  0  0
 30 25  1  0  0  0  0
 26 25  1  0  0  0  0
 27 26  1  0  0  0  0
 28 27  1  0  0  0  0
 29 28  1  0  0  0  0
 30 29  1  0  0  0  0
 18 31  1  0  0  0  0
  1  2  1  0  0  0  0
  2  3  1  0  0  0  0
  3  4  1  0  0  0  0
  4  5  1  0  0  0  0
  7  8  1  0  0  0  0
  8  9  2  0  0  0  0
  9 10  1  0  0  0  0
 10 11  2  0  0  0  0
 11 12  1  0  0  0  0
  7 12  2  0  0  0  0
 24  7  1  0  0  0  0
 11 13  1  0  0  0  0
  9 14  1  0  0  0  0
  5  6  1  0  0  0  0
  1  6  1  0  0  0  0
  3 15  1  6  0  0  0
  4 16  1  1  0  0  0
  5 17  1  6  0  0  0
  6 18  1  1  0  0  0
 19 20  1  0  0  0  0
  2 19  1  1  0  0  0
M  END
>  <cdx:fragmentId>
41

$$$$
