411377.cdx
  Mrv1902 05222410282D          

134146  0  0  0  0            999 V2000
   15.0722   -7.1805    0.0000 C   0  0  0  0  0  0  0  0  0  0  0  0
   15.7867   -6.7680    0.0000 C   0  0  0  0  0  0  0  0  0  0  0  0
   16.5012   -7.1805    0.0000 C   0  0  2  0  0  0  0  0  0  0  0  0
   16.5012   -8.0055    0.0000 C   0  0  0  0  0  0  0  0  0  0  0  0
   15.7867   -8.4180    0.0000 C   0  0  2  0  0  0  0  0  0  0  0  0
   15.7867   -9.2430    0.0000 C   0  0  1  0  0  0  0  0  0  0  0  0
   15.0722   -9.6555    0.0000 C   0  0  0  0  0  0  0  0  0  0  0  0
   14.3577   -9.2430    0.0000 C   0  0  1  0  0  0  0  0  0  0  0  0
   13.6433   -9.6555    0.0000 C   0  0  2  0  0  0  0  0  0  0  0  0
   13.6433  -10.4805    0.0000 C   0  0  0  0  0  0  0  0  0  0  0  0
   12.9288  -10.8930    0.0000 C   0  0  0  0  0  0  0  0  0  0  0  0
   12.2143  -10.4805    0.0000 C   0  0  1  0  0  0  0  0  0  0  0  0
   11.4999  -10.8930    0.0000 C   0  0  0  0  0  0  0  0  0  0  0  0
   10.7854  -10.4805    0.0000 C   0  0  2  0  0  0  0  0  0  0  0  0
   10.7854   -9.6555    0.0000 C   0  0  0  0  0  0  0  0  0  0  0  0
   11.4999   -9.2430    0.0000 C   0  0  0  0  0  0  0  0  0  0  0  0
   12.2143   -9.6555    0.0000 C   0  0  2  0  0  0  0  0  0  0  0  0
   12.9288   -9.2430    0.0000 C   0  0  1  0  0  0  0  0  0  0  0  0
   12.9288   -8.4180    0.0000 C   0  0  0  0  0  0  0  0  0  0  0  0
   13.6433   -8.0055    0.0000 C   0  0  0  0  0  0  0  0  0  0  0  0
   14.3577   -8.4180    0.0000 C   0  0  0  0  0  0  0  0  0  0  0  0
   15.0722   -8.0055    0.0000 C   0  0  2  0  0  0  0  0  0  0  0  0
   16.5012   -8.8305    0.0000 C   0  0  0  0  0  0  0  0  0  0  0  0
   16.5012   -9.6555    0.0000 O   0  0  0  0  0  0  0  0  0  0  0  0
   17.2156   -8.4180    0.0000 O   0  0  0  0  0  0  0  0  0  0  0  0
   11.9124  -11.6075    0.0000 C   0  0  0  0  0  0  0  0  0  0  0  0
   11.0874  -11.6075    0.0000 C   0  0  0  0  0  0  0  0  0  0  0  0
   15.3742   -6.0535    0.0000 C   0  0  0  0  0  0  0  0  0  0  0  0
   16.1992   -6.0535    0.0000 C   0  0  0  0  0  0  0  0  0  0  0  0
   17.2156   -6.7680    0.0000 O   0  0  0  0  0  0  0  0  0  0  0  0
   17.9301   -7.1805    0.0000 C   0  0  0  0  0  0  0  0  0  0  0  0
   18.6446   -6.7680    0.0000 C   0  0  0  0  0  0  0  0  0  0  0  0
   19.3590   -7.1805    0.0000 C   0  0  0  0  0  0  0  0  0  0  0  0
   20.0735   -6.7680    0.0000 C   0  0  0  0  0  0  0  0  0  0  0  0
   20.7880   -7.1805    0.0000 C   0  0  0  0  0  0  0  0  0  0  0  0
   21.5025   -6.7680    0.0000 C   0  0  1  0  0  0  0  0  0  0  0  0
   21.5025   -5.9430    0.0000 C   0  0  0  0  0  0  0  0  0  0  0  0
   20.7880   -5.5305    0.0000 C   0  0  0  0  0  0  0  0  0  0  0  0
   17.9301   -8.0055    0.0000 O   0  0  0  0  0  0  0  0  0  0  0  0
   22.2169   -7.1805    0.0000 O   0  0  0  0  0  0  0  0  0  0  0  0
   23.6459   -7.1805    0.0000 O   0  0  0  0  0  0  0  0  0  0  0  0
   22.9314   -6.7680    0.0000 C   0  0  2  0  0  0  0  0  0  0  0  0
   22.9314   -5.9430    0.0000 C   0  0  1  0  0  0  0  0  0  0  0  0
   23.6459   -5.5305    0.0000 C   0  0  2  0  0  0  0  0  0  0  0  0
   24.3603   -5.9430    0.0000 C   0  0  1  0  0  0  0  0  0  0  0  0
   24.3603   -6.7680    0.0000 C   0  0  0  0  0  0  0  0  0  0  0  0
   25.0748   -5.5305    0.0000 O   0  0  0  0  0  0  0  0  0  0  0  0
   23.6459   -4.7055    0.0000 O   0  0  0  0  0  0  0  0  0  0  0  0
   22.2169   -5.5305    0.0000 O   0  0  0  0  0  0  0  0  0  0  0  0
   21.5025   -7.5930    0.0000 C   0  0  0  0  0  0  0  0  0  0  0  0
   18.6446   -5.9430    0.0000 C   0  0  0  0  0  0  0  0  0  0  0  0
   10.0709  -10.8930    0.0000 O   0  0  0  0  0  0  0  0  0  0  0  0
    8.6420  -10.8930    0.0000 O   0  0  0  0  0  0  0  0  0  0  0  0
    9.3565  -10.4805    0.0000 C   0  0  2  0  0  0  0  0  0  0  0  0
    9.3565   -9.6555    0.0000 C   0  0  1  0  0  0  0  0  0  0  0  0
    8.6420   -9.2430    0.0000 C   0  0  2  0  0  0  0  0  0  0  0  0
    7.9275   -9.6555    0.0000 C   0  0  1  0  0  0  0  0  0  0  0  0
    7.9275  -10.4805    0.0000 C   0  0  1  0  0  0  0  0  0  0  0  0
    7.2130   -9.2430    0.0000 O   0  0  0  0  0  0  0  0  0  0  0  0
    8.6420   -8.4180    0.0000 O   0  0  0  0  0  0  0  0  0  0  0  0
   10.0709   -9.2430    0.0000 N   0  0  0  0  0  0  0  0  0  0  0  0
    7.2130  -10.8930    0.0000 C   0  0  0  0  0  0  0  0  0  0  0  0
    6.4986  -10.4805    0.0000 O   0  0  0  0  0  0  0  0  0  0  0  0
    5.0696  -10.4805    0.0000 O   0  0  0  0  0  0  0  0  0  0  0  0
    5.7841  -10.8930    0.0000 C   0  0  2  0  0  0  0  0  0  0  0  0
    5.7841  -11.7180    0.0000 C   0  0  1  0  0  0  0  0  0  0  0  0
    5.0696  -12.1305    0.0000 C   0  0  2  0  0  0  0  0  0  0  0  0
    4.3552  -11.7180    0.0000 C   0  0  2  0  0  0  0  0  0  0  0  0
    4.3552  -10.8930    0.0000 C   0  0  1  0  0  0  0  0  0  0  0  0
    6.4986  -12.1305    0.0000 O   0  0  0  0  0  0  0  0  0  0  0  0
    5.7841  -13.3680    0.0000 O   0  0  0  0  0  0  0  0  0  0  0  0
    6.4986  -12.9555    0.0000 C   0  0  2  0  0  0  0  0  0  0  0  0
    7.2130  -13.3680    0.0000 C   0  0  1  0  0  0  0  0  0  0  0  0
    7.2130  -14.1930    0.0000 C   0  0  2  0  0  0  0  0  0  0  0  0
    6.4986  -14.6055    0.0000 C   0  0  1  0  0  0  0  0  0  0  0  0
    5.7841  -14.1930    0.0000 C   0  0  0  0  0  0  0  0  0  0  0  0
    6.4986  -15.4305    0.0000 O   0  0  0  0  0  0  0  0  0  0  0  0
    7.9275  -14.6055    0.0000 O   0  0  0  0  0  0  0  0  0  0  0  0
    7.9275  -12.9555    0.0000 O   0  0  0  0  0  0  0  0  0  0  0  0
    3.6407  -10.4805    0.0000 C   0  0  0  0  0  0  0  0  0  0  0  0
    3.6407  -12.1305    0.0000 O   0  0  0  0  0  0  0  0  0  0  0  0
    5.0696  -12.9555    0.0000 O   0  0  0  0  0  0  0  0  0  0  0  0
   12.2143  -11.3055    0.0000 H   0  0  0  0  0  0  0  0  0  0  0  0
   15.0722   -8.8305    0.0000 H   0  0  0  0  0  0  0  0  0  0  0  0
   18.6446   -8.4180    0.0000 O   0  0  0  0  0  0  0  0  0  0  0  0
   17.9301   -8.8305    0.0000 C   0  0  2  0  0  0  0  0  0  0  0  0
   17.9301   -9.6555    0.0000 C   0  0  1  0  0  0  0  0  0  0  0  0
   18.6446  -10.0680    0.0000 C   0  0  2  0  0  0  0  0  0  0  0  0
   19.3590   -9.6555    0.0000 C   0  0  1  0  0  0  0  0  0  0  0  0
   19.3590   -8.8305    0.0000 C   0  0  1  0  0  0  0  0  0  0  0  0
   20.0735   -8.4180    0.0000 C   0  0  0  0  0  0  0  0  0  0  0  0
   20.7880   -8.8305    0.0000 O   0  0  0  0  0  0  0  0  0  0  0  0
   20.0735  -10.0680    0.0000 O   0  0  0  0  0  0  0  0  0  0  0  0
   18.6446  -10.8930    0.0000 O   0  0  0  0  0  0  0  0  0  0  0  0
   16.0113  -10.8353    0.0000 O   0  0  0  0  0  0  0  0  0  0  0  0
   16.8358  -10.8058    0.0000 C   0  0  2  0  0  0  0  0  0  0  0  0
   17.2735  -11.5051    0.0000 C   0  0  1  0  0  0  0  0  0  0  0  0
   16.8867  -12.2339    0.0000 C   0  0  1  0  0  0  0  0  0  0  0  0
   16.0623  -12.2633    0.0000 C   0  0  2  0  0  0  0  0  0  0  0  0
   15.6246  -11.5640    0.0000 C   0  0  2  0  0  0  0  0  0  0  0  0
   17.3443  -12.9984    0.0000 O   0  0  0  0  0  0  0  0  0  0  0  0
   16.6775  -14.2622    0.0000 O   0  0  0  0  0  0  0  0  0  0  0  0
   17.3758  -13.8228    0.0000 C   0  0  2  0  0  0  0  0  0  0  0  0
   18.1054  -14.2078    0.0000 C   0  0  1  0  0  0  0  0  0  0  0  0
   18.1369  -15.0322    0.0000 C   0  0  2  0  0  0  0  0  0  0  0  0
   17.4387  -15.4716    0.0000 C   0  0  1  0  0  0  0  0  0  0  0  0
   16.7090  -15.0866    0.0000 C   0  0  1  0  0  0  0  0  0  0  0  0
   16.0108  -15.5261    0.0000 C   0  0  0  0  0  0  0  0  0  0  0  0
   16.0422  -16.3505    0.0000 O   0  0  0  0  0  0  0  0  0  0  0  0
   17.4701  -16.2960    0.0000 O   0  0  0  0  0  0  0  0  0  0  0  0
   18.8666  -15.4171    0.0000 O   0  0  0  0  0  0  0  0  0  0  0  0
   18.8037  -13.7683    0.0000 O   0  0  0  0  0  0  0  0  0  0  0  0
   14.8001  -11.5934    0.0000 C   0  0  0  0  0  0  0  0  0  0  0  0
   18.0980  -11.4757    0.0000 O   0  0  0  0  0  0  0  0  0  0  0  0
   15.6625  -13.0162    0.0000 O   0  0  0  0  0  0  0  0  0  0  0  0
   14.2108  -12.7840    0.0000 O   0  0  0  0  0  0  0  0  0  0  0  0
   14.8775  -13.2700    0.0000 C   0  0  2  0  0  0  0  0  0  0  0  0
   14.6213  -14.0542    0.0000 C   0  0  1  0  0  0  0  0  0  0  0  0
   13.7963  -14.0529    0.0000 C   0  0  2  0  0  0  0  0  0  0  0  0
   13.5426  -13.2679    0.0000 C   0  0  2  0  0  0  0  0  0  0  0  0
   12.7583  -13.0118    0.0000 C   0  0  0  0  0  0  0  0  0  0  0  0
   12.1444  -13.5628    0.0000 O   0  0  0  0  0  0  0  0  0  0  0  0
   13.3104  -14.7196    0.0000 O   0  0  0  0  0  0  0  0  0  0  0  0
   15.1052  -14.7224    0.0000 O   0  0  0  0  0  0  0  0  0  0  0  0
   12.2143   -8.8305    0.0000 C   0  0  0  0  0  0  0  0  0  0  0  0
   13.6433   -8.8305    0.0000 C   0  0  0  0  0  0  0  0  0  0  0  0
   14.3577  -10.0680    0.0000 C   0  0  0  0  0  0  0  0  0  0  0  0
   12.9288  -10.0680    0.0000 H   0  0  0  0  0  0  0  0  0  0  0  0
   17.2225  -10.0771    0.0000 O   0  0  0  0  0  0  0  0  0  0  0  0
   15.7867  -10.0680    0.0000 O   0  0  0  0  0  0  0  0  0  0  0  0
   19.3590   -5.5305    0.0000 O   0  0  0  0  0  0  0  0  0  0  0  0
   10.0709   -8.4180    0.0000 C   0  0  0  0  0  0  0  0  0  0  0  0
    9.3565   -8.0055    0.0000 C   0  0  0  0  0  0  0  0  0  0  0  0
   10.7854   -8.0055    0.0000 O   0  0  0  0  0  0  0  0  0  0  0  0
  1  2  1  0  0  0  0
  2  3  1  0  0  0  0
  3  4  1  0  0  0  0
  4  5  1  0  0  0  0
  5  6  1  0  0  0  0
  6  7  1  0  0  0  0
  7  8  1  0  0  0  0
  8  9  1  0  0  0  0
  9 10  1  0  0  0  0
 10 11  1  0  0  0  0
 11 12  1  0  0  0  0
 12 13  1  0  0  0  0
 13 14  1  0  0  0  0
 14 15  1  0  0  0  0
 15 16  1  0  0  0  0
 16 17  1  0  0  0  0
 12 17  1  0  0  0  0
 17 18  1  0  0  0  0
  9 18  1  0  0  0  0
 18 19  1  0  0  0  0
 19 20  1  0  0  0  0
 20 21  2  0  0  0  0
  8 21  1  0  0  0  0
 21 22  1  0  0  0  0
  5 22  1  0  0  0  0
  1 22  1  0  0  0  0
 23 24  2  0  0  0  0
 23 25  1  0  0  0  0
  5 23  1  1  0  0  0
 13 26  1  0  0  0  0
 13 27  1  0  0  0  0
  2 28  1  0  0  0  0
  2 29  1  0  0  0  0
 31 32  1  0  0  0  0
 32 33  2  0  0  0  0
 33 34  1  0  0  0  0
 34 35  1  0  0  0  0
 35 36  1  0  0  0  0
 36 37  1  0  0  0  0
 37 38  2  0  0  0  0
 31 39  2  0  0  0  0
 41 42  1  0  0  0  0
 42 43  1  0  0  0  0
 43 44  1  0  0  0  0
 44 45  1  0  0  0  0
 45 46  1  0  0  0  0
 41 46  1  0  0  0  0
 45 47  1  6  0  0  0
 44 48  1  1  0  0  0
 43 49  1  6  0  0  0
 42 40  1  1  0  0  0
 36 40  1  0  0  0  0
 36 50  1  6  0  0  0
 32 51  1  0  0  0  0
 30 31  1  0  0  0  0
  3 30  1  1  0  0  0
 53 54  1  0  0  0  0
 54 55  1  0  0  0  0
 55 56  1  0  0  0  0
 56 57  1  0  0  0  0
 57 58  1  0  0  0  0
 53 58  1  0  0  0  0
 57 59  1  1  0  0  0
 56 60  1  6  0  0  0
 55 61  1  1  0  0  0
 64 65  1  0  0  0  0
 65 66  1  0  0  0  0
 66 67  1  0  0  0  0
 67 68  1  0  0  0  0
 68 69  1  0  0  0  0
 64 69  1  0  0  0  0
 71 72  1  0  0  0  0
 72 73  1  0  0  0  0
 73 74  1  0  0  0  0
 74 75  1  0  0  0  0
 75 76  1  0  0  0  0
 71 76  1  0  0  0  0
 75 77  1  6  0  0  0
 74 78  1  1  0  0  0
 73 79  1  6  0  0  0
 72 70  1  1  0  0  0
 66 70  1  6  0  0  0
 69 80  1  1  0  0  0
 68 81  1  1  0  0  0
 67 82  1  1  0  0  0
 65 63  1  1  0  0  0
 62 63  1  0  0  0  0
 58 62  1  6  0  0  0
 54 52  1  6  0  0  0
 14 52  1  1  0  0  0
 12 83  1  6  0  0  0
 22 84  1  1  0  0  0
 85 86  1  0  0  0  0
 86 87  1  0  0  0  0
 87 88  1  0  0  0  0
 88 89  1  0  0  0  0
 89 90  1  0  0  0  0
 85 90  1  0  0  0  0
 91 92  1  0  0  0  0
 90 91  1  6  0  0  0
 89 93  1  1  0  0  0
 88 94  1  6  0  0  0
 95 96  1  0  0  0  0
 96 97  1  0  0  0  0
 97 98  1  0  0  0  0
 98 99  1  0  0  0  0
 99100  1  0  0  0  0
 95100  1  0  0  0  0
102103  1  0  0  0  0
103104  1  0  0  0  0
104105  1  0  0  0  0
105106  1  0  0  0  0
106107  1  0  0  0  0
102107  1  0  0  0  0
108109  1  0  0  0  0
107108  1  1  0  0  0
106110  1  6  0  0  0
105111  1  1  0  0  0
104112  1  6  0  0  0
103101  1  1  0  0  0
 98101  1  6  0  0  0
100113  1  6  0  0  0
 97114  1  6  0  0  0
116117  1  0  0  0  0
117118  1  0  0  0  0
118119  1  0  0  0  0
119120  1  0  0  0  0
116120  1  0  0  0  0
121122  1  0  0  0  0
120121  1  6  0  0  0
119123  1  1  0  0  0
118124  1  6  0  0  0
117115  1  1  0  0  0
 99115  1  1  0  0  0
 86 25  1  6  0  0  0
 17125  1  1  0  0  0
  9126  1  1  0  0  0
  8127  1  6  0  0  0
 18128  1  6  0  0  0
 96129  1  1  0  0  0
 87129  1  1  0  0  0
  6130  1  6  0  0  0
 51131  1  0  0  0  0
 61132  1  0  0  0  0
132133  1  0  0  0  0
132134  2  0  0  0  0
M  END
>  <cdx:fragmentId>
166833

$$$$
