4114.cdx
  Mrv1902 05222410202D          

 16 18  0  0  0  0            999 V2000
    5.4020   -4.0336    0.0000 C   0  0  0  0  0  0  0  0  0  0  0  0
    5.4020   -4.8586    0.0000 C   0  0  0  0  0  0  0  0  0  0  0  0
    6.1165   -5.2711    0.0000 C   0  0  0  0  0  0  0  0  0  0  0  0
    6.8310   -4.8586    0.0000 C   0  0  0  0  0  0  0  0  0  0  0  0
    7.5454   -5.2711    0.0000 C   0  0  0  0  0  0  0  0  0  0  0  0
    8.2599   -4.8586    0.0000 C   0  0  0  0  0  0  0  0  0  0  0  0
    8.2599   -4.0336    0.0000 C   0  0  0  0  0  0  0  0  0  0  0  0
    7.5454   -3.6211    0.0000 C   0  0  0  0  0  0  0  0  0  0  0  0
    6.8310   -4.0336    0.0000 C   0  0  0  0  0  0  0  0  0  0  0  0
    6.1165   -3.6211    0.0000 O   0  0  0  0  0  0  0  0  0  0  0  0
    9.0445   -3.7787    0.0000 O   0  0  0  0  0  0  0  0  0  0  0  0
    9.0445   -5.1136    0.0000 C   0  0  0  0  0  0  0  0  0  0  0  0
    9.5295   -4.4461    0.0000 C   0  0  0  0  0  0  0  0  0  0  0  0
    4.6876   -3.6211    0.0000 O   0  0  0  0  0  0  0  0  0  0  0  0
    7.5454   -2.7961    0.0000 O   0  0  0  0  0  0  0  0  0  0  0  0
    8.2599   -2.3836    0.0000 C   0  0  0  0  0  0  0  0  0  0  0  0
  1  2  1  0  0  0  0
  2  3  2  0  0  0  0
  3  4  1  0  0  0  0
  4  5  2  0  0  0  0
  5  6  1  0  0  0  0
  6  7  2  0  0  0  0
  7  8  1  0  0  0  0
  8  9  2  0  0  0  0
  4  9  1  0  0  0  0
  9 10  1  0  0  0  0
  1 10  1  0  0  0  0
 12 13  2  0  0  0  0
 11 13  1  0  0  0  0
 12  6  1  0  0  0  0
 11  7  1  0  0  0  0
  1 14  2  0  0  0  0
 15 16  1  0  0  0  0
  8 15  1  0  0  0  0
M  END
>  <cdx:fragmentId>
5

$$$$
