4116.cdx
  Mrv1902 05222410192D          

 12 12  0  0  0  0            999 V2000
    6.1358   -6.3388    0.0000 C   0  0  0  0  0  0  0  0  0  0  0  0
    6.1358   -7.1638    0.0000 C   0  0  0  0  0  0  0  0  0  0  0  0
    6.8502   -7.5762    0.0000 C   0  0  0  0  0  0  0  0  0  0  0  0
    7.5647   -7.1638    0.0000 C   0  0  0  0  0  0  0  0  0  0  0  0
    7.5647   -6.3388    0.0000 C   0  0  0  0  0  0  0  0  0  0  0  0
    6.8502   -5.9262    0.0000 C   0  0  0  0  0  0  0  0  0  0  0  0
    6.8502   -5.1013    0.0000 C   0  0  0  0  0  0  0  0  0  0  0  0
    7.5647   -4.6888    0.0000 C   0  0  0  0  0  0  0  0  0  0  0  0
    7.5647   -3.8638    0.0000 O   0  0  0  0  0  0  0  0  0  0  0  0
    8.2792   -3.4513    0.0000 C   0  0  0  0  0  0  0  0  0  0  0  0
    8.2792   -2.6263    0.0000 C   0  0  0  0  0  0  0  0  0  0  0  0
    8.9937   -3.8638    0.0000 O   0  0  0  0  0  0  0  0  0  0  0  0
  1  2  2  0  0  0  0
  2  3  1  0  0  0  0
  3  4  2  0  0  0  0
  4  5  1  0  0  0  0
  5  6  2  0  0  0  0
  6  1  1  0  0  0  0
  6  7  1  0  0  0  0
  7  8  1  0  0  0  0
  8  9  1  0  0  0  0
  9 10  1  0  0  0  0
 10 11  1  0  0  0  0
 10 12  2  0  0  0  0
M  END
>  <cdx:fragmentId>
5

$$$$
