4119.cdx
  Mrv1902 05222410262D          

 14 15  0  0  0  0            999 V2000
    8.0094   -8.9102    0.0000 C   0  0  0  0  0  0  0  0  0  0  0  0
    7.3960   -8.0241    0.0000 C   0  0  0  0  0  0  0  0  0  0  0  0
    5.9643   -8.9672    0.0000 C   0  0  0  0  0  0  0  0  0  0  0  0
    5.4517   -8.4842    0.0000 C   0  0  0  0  0  0  0  0  0  0  0  0
    5.8629   -8.0356    0.0000 C   0  0  0  0  0  0  0  0  0  0  0  0
    6.8982   -8.5505    0.0000 C   0  0  0  0  0  0  0  0  0  0  0  0
    6.8956   -7.0833    0.0000 C   0  0  0  0  0  0  0  0  0  0  0  0
    8.8344   -8.9102    0.0000 C   0  0  0  0  0  0  0  0  0  0  0  0
    8.2230   -9.7070    0.0000 C   0  0  0  0  0  0  0  0  0  0  0  0
    5.9643   -9.7922    0.0000 C   0  0  0  0  0  0  0  0  0  0  0  0
    5.2498  -10.2047    0.0000 O   0  0  0  0  0  0  0  0  0  0  0  0
    5.2498  -11.0297    0.0000 C   0  0  0  0  0  0  0  0  0  0  0  0
    5.9643  -11.4422    0.0000 O   0  0  0  0  0  0  0  0  0  0  0  0
    4.5353  -11.4422    0.0000 C   0  0  0  0  0  0  0  0  0  0  0  0
  6  1  1  0  0  0  0
  1  2  1  0  0  0  0
  2  7  1  0  0  0  0
  6  3  1  0  0  0  0
  3  4  2  0  0  0  0
  4  5  1  0  0  0  0
  2  5  1  0  0  0  0
  6  7  1  0  0  0  0
  1  8  1  0  0  0  0
  1  9  1  0  0  0  0
  3 10  1  0  0  0  0
 10 11  1  0  0  0  0
 11 12  1  0  0  0  0
 12 13  2  0  0  0  0
 12 14  1  0  0  0  0
M  END
>  <cdx:groupId>
813

>  <cdx:fragmentId>
814

$$$$
