101412310.cdx
  Mrv1902 05222410192D          

 58 63  0  0  0  0            999 V2000
    5.3093  -16.6046    0.0000 C   0  0  0  0  0  0  0  0  0  0  0  0
    4.5948  -17.0171    0.0000 C   0  0  0  0  0  0  0  0  0  0  0  0
    4.5948  -17.8421    0.0000 C   0  0  1  0  0  0  0  0  0  0  0  0
    5.3093  -18.2546    0.0000 C   0  0  0  0  0  0  0  0  0  0  0  0
    6.0237  -17.8421    0.0000 C   0  0  0  0  0  0  0  0  0  0  0  0
    6.7382  -18.2546    0.0000 C   0  0  0  0  0  0  0  0  0  0  0  0
    7.4527  -17.8421    0.0000 C   0  0  0  0  0  0  0  0  0  0  0  0
    7.4527  -17.0171    0.0000 C   0  0  1  0  0  0  0  0  0  0  0  0
    8.1672  -16.6046    0.0000 C   0  0  2  0  0  0  0  0  0  0  0  0
    8.9518  -16.8595    0.0000 C   0  0  0  0  0  0  0  0  0  0  0  0
    9.4367  -16.1921    0.0000 C   0  0  0  0  0  0  0  0  0  0  0  0
    8.9518  -15.5246    0.0000 C   0  0  1  0  0  0  0  0  0  0  0  0
    8.1672  -15.7796    0.0000 C   0  0  1  0  0  0  0  0  0  0  0  0
    7.4527  -15.3671    0.0000 C   0  0  0  0  0  0  0  0  0  0  0  0
    6.7382  -15.7796    0.0000 C   0  0  0  0  0  0  0  0  0  0  0  0
    6.7382  -16.6046    0.0000 C   0  0  1  0  0  0  0  0  0  0  0  0
    6.0237  -17.0171    0.0000 C   0  0  2  0  0  0  0  0  0  0  0  0
    6.0237  -15.3671    0.0000 O   0  0  0  0  0  0  0  0  0  0  0  0
    3.8803  -18.2546    0.0000 O   0  0  0  0  0  0  0  0  0  0  0  0
    2.4514  -18.2546    0.0000 O   0  0  0  0  0  0  0  0  0  0  0  0
    3.1659  -17.8421    0.0000 C   0  0  2  0  0  0  0  0  0  0  0  0
    3.1659  -17.0171    0.0000 C   0  0  1  0  0  0  0  0  0  0  0  0
    2.4514  -16.6046    0.0000 C   0  0  2  0  0  0  0  0  0  0  0  0
    1.7369  -17.0171    0.0000 C   0  0  1  0  0  0  0  0  0  0  0  0
    1.7369  -17.8421    0.0000 C   0  0  1  0  0  0  0  0  0  0  0  0
    1.0224  -18.2546    0.0000 C   0  0  0  0  0  0  0  0  0  0  0  0
    0.3080  -17.8421    0.0000 O   0  0  0  0  0  0  0  0  0  0  0  0
    1.0224  -16.6046    0.0000 O   0  0  0  0  0  0  0  0  0  0  0  0
    2.4514  -15.7796    0.0000 O   0  0  0  0  0  0  0  0  0  0  0  0
    3.8803  -16.6046    0.0000 O   0  0  0  0  0  0  0  0  0  0  0  0
    8.1672  -17.4296    0.0000 C   0  0  0  0  0  0  0  0  0  0  0  0
    8.2534  -14.9591    0.0000 C   0  0  0  0  0  0  0  0  0  0  0  0
    6.7382  -17.4296    0.0000 C   0  0  0  0  0  0  0  0  0  0  0  0
    5.7218  -18.9691    0.0000 C   0  0  0  0  0  0  0  0  0  0  0  0
    4.8968  -18.9691    0.0000 C   0  0  0  0  0  0  0  0  0  0  0  0
    8.6547  -14.1269    0.0000 C   0  0  0  0  0  0  0  0  0  0  0  0
    9.2067  -14.7400    0.0000 C   0  0  2  0  0  0  0  0  0  0  0  0
   10.0137  -14.5685    0.0000 C   0  0  0  0  0  0  0  0  0  0  0  0
   10.2686  -13.7839    0.0000 C   0  0  0  0  0  0  0  0  0  0  0  0
   11.0756  -13.6123    0.0000 C   0  0  2  0  0  0  0  0  0  0  0  0
   11.6276  -14.2254    0.0000 C   0  0  0  0  0  0  0  0  0  0  0  0
   12.4346  -14.0539    0.0000 C   0  0  0  0  0  0  0  0  0  0  0  0
   11.3305  -12.8277    0.0000 O   0  0  0  0  0  0  0  0  0  0  0  0
   12.6895  -13.2693    0.0000 O   0  0  0  0  0  0  0  0  0  0  0  0
   12.1375  -12.6562    0.0000 C   0  0  1  0  0  0  0  0  0  0  0  0
   12.3925  -11.8716    0.0000 C   0  0  1  0  0  0  0  0  0  0  0  0
   13.1994  -11.7000    0.0000 C   0  0  2  0  0  0  0  0  0  0  0  0
   13.7515  -12.3131    0.0000 C   0  0  1  0  0  0  0  0  0  0  0  0
   13.4965  -13.0978    0.0000 C   0  0  1  0  0  0  0  0  0  0  0  0
   14.0485  -13.7109    0.0000 C   0  0  0  0  0  0  0  0  0  0  0  0
   14.8555  -13.5393    0.0000 O   0  0  0  0  0  0  0  0  0  0  0  0
   14.5584  -12.1416    0.0000 O   0  0  0  0  0  0  0  0  0  0  0  0
   13.4544  -10.9154    0.0000 O   0  0  0  0  0  0  0  0  0  0  0  0
   11.8404  -11.2585    0.0000 O   0  0  0  0  0  0  0  0  0  0  0  0
   11.3727  -15.0101    0.0000 C   0  0  0  0  0  0  0  0  0  0  0  0
   12.1797  -14.8385    0.0000 O   0  0  0  0  0  0  0  0  0  0  0  0
    7.4527  -16.1921    0.0000 H   0  0  0  0  0  0  0  0  0  0  0  0
    6.0237  -16.1921    0.0000 H   0  0  0  0  0  0  0  0  0  0  0  0
  1  2  1  0  0  0  0
  2  3  1  0  0  0  0
  3  4  1  0  0  0  0
  4  5  1  0  0  0  0
  5  6  2  0  0  0  0
  6  7  1  0  0  0  0
  7  8  1  0  0  0  0
  8  9  1  0  0  0  0
  9 10  1  0  0  0  0
 10 11  1  0  0  0  0
 12 11  1  1  0  0  0
 12 13  1  0  0  0  0
  9 13  1  0  0  0  0
 13 14  1  0  0  0  0
 14 15  1  0  0  0  0
 15 16  1  0  0  0  0
  8 16  1  0  0  0  0
 16 17  1  0  0  0  0
  5 17  1  0  0  0  0
  1 17  1  0  0  0  0
 15 18  2  0  0  0  0
 20 21  1  0  0  0  0
 21 22  1  0  0  0  0
 22 23  1  0  0  0  0
 23 24  1  0  0  0  0
 24 25  1  0  0  0  0
 20 25  1  0  0  0  0
 26 27  1  0  0  0  0
 25 26  1  6  0  0  0
 24 28  1  1  0  0  0
 23 29  1  6  0  0  0
 22 30  1  1  0  0  0
 21 19  1  6  0  0  0
  3 19  1  1  0  0  0
  9 31  1  6  0  0  0
 13 32  1  1  0  0  0
 16 33  1  1  0  0  0
  4 34  1  0  0  0  0
  4 35  1  0  0  0  0
 37 36  1  6  0  0  0
 37 38  1  0  0  0  0
 38 39  1  0  0  0  0
 39 40  1  0  0  0  0
 40 41  1  0  0  0  0
 41 42  1  0  0  0  0
 44 45  1  0  0  0  0
 45 46  1  0  0  0  0
 46 47  1  0  0  0  0
 47 48  1  0  0  0  0
 48 49  1  0  0  0  0
 44 49  1  0  0  0  0
 50 51  1  0  0  0  0
 49 50  1  1  0  0  0
 48 52  1  6  0  0  0
 47 53  1  1  0  0  0
 46 54  1  6  0  0  0
 45 43  1  6  0  0  0
 40 43  1  1  0  0  0
 41 55  1  0  0  0  0
 41 56  1  0  0  0  0
 12 37  1  0  0  0  0
  8 57  1  1  0  0  0
 17 58  1  6  0  0  0
M  END
>  <cdx:groupId>
242760

>  <cdx:fragmentId>
242584

$$$$
