4125.cdx
  Mrv1902 05222410262D          

 44 48  0  0  0  0            999 V2000
    3.8455   -6.9300    0.0000 C   0  0  0  0  0  0  0  0  0  0  0  0
    3.8455   -7.5900    0.0000 C   0  0  0  0  0  0  0  0  0  0  0  0
    4.4170   -7.9200    0.0000 C   0  0  0  0  0  0  0  0  0  0  0  0
    4.9886   -7.5900    0.0000 C   0  0  0  0  0  0  0  0  0  0  0  0
    4.9886   -6.9300    0.0000 C   0  0  0  0  0  0  0  0  0  0  0  0
    4.4170   -6.6000    0.0000 C   0  0  0  0  0  0  0  0  0  0  0  0
    5.5602   -7.9200    0.0000 C   0  0  0  0  0  0  0  0  0  0  0  0
    6.1318   -7.5900    0.0000 C   0  0  0  0  0  0  0  0  0  0  0  0
    6.1318   -6.9300    0.0000 C   0  0  0  0  0  0  0  0  0  0  0  0
    5.5602   -6.6000    0.0000 O   0  0  0  0  0  0  0  0  0  0  0  0
    6.7033   -6.6000    0.0000 C   0  0  0  0  0  0  0  0  0  0  0  0
    6.7033   -5.9400    0.0000 C   0  0  0  0  0  0  0  0  0  0  0  0
    7.2749   -6.9300    0.0000 C   0  0  0  0  0  0  0  0  0  0  0  0
    7.8465   -6.6000    0.0000 C   0  0  0  0  0  0  0  0  0  0  0  0
    7.8465   -5.9400    0.0000 C   0  0  0  0  0  0  0  0  0  0  0  0
    7.2749   -5.6100    0.0000 C   0  0  0  0  0  0  0  0  0  0  0  0
    8.4181   -5.6100    0.0000 O   0  0  0  0  0  0  0  0  0  0  0  0
    8.9896   -5.9400    0.0000 C   0  0  0  0  0  0  0  0  0  0  0  0
    8.9896   -6.6000    0.0000 O   0  0  0  0  0  0  0  0  0  0  0  0
    9.5612   -5.6100    0.0000 C   0  0  0  0  0  0  0  0  0  0  0  0
   10.1328   -5.9400    0.0000 C   0  0  0  0  0  0  0  0  0  0  0  0
   10.7044   -5.6100    0.0000 C   0  0  0  0  0  0  0  0  0  0  0  0
   11.2760   -5.9400    0.0000 C   0  0  0  0  0  0  0  0  0  0  0  0
   11.8475   -5.6100    0.0000 C   0  0  0  0  0  0  0  0  0  0  0  0
   11.8475   -4.9500    0.0000 C   0  0  0  0  0  0  0  0  0  0  0  0
   11.2760   -4.6200    0.0000 C   0  0  0  0  0  0  0  0  0  0  0  0
   10.7044   -4.9500    0.0000 C   0  0  0  0  0  0  0  0  0  0  0  0
    7.2749   -4.9500    0.0000 O   0  0  0  0  0  0  0  0  0  0  0  0
   12.4191   -4.6200    0.0000 O   0  0  0  0  0  0  0  0  0  0  0  0
   12.4191   -5.9400    0.0000 O   0  0  0  0  0  0  0  0  0  0  0  0
    5.5602   -8.5800    0.0000 O   0  0  0  0  0  0  0  0  0  0  0  0
    4.4170   -8.5800    0.0000 O   0  0  0  0  0  0  0  0  0  0  0  0
    3.2739   -6.6000    0.0000 O   0  0  0  0  0  0  0  0  0  0  0  0
    3.2739   -7.9200    0.0000 C   0  0  1  0  0  0  0  0  0  0  0  0
    2.7023   -7.5900    0.0000 C   0  0  1  0  0  0  0  0  0  0  0  0
    2.1307   -7.9200    0.0000 C   0  0  2  0  0  0  0  0  0  0  0  0
    2.1307   -8.5800    0.0000 C   0  0  1  0  0  0  0  0  0  0  0  0
    2.7023   -8.9100    0.0000 C   0  0  0  0  0  0  0  0  0  0  0  0
    3.2739   -8.5800    0.0000 O   0  0  0  0  0  0  0  0  0  0  0  0
    1.5591   -7.5900    0.0000 O   0  0  0  0  0  0  0  0  0  0  0  0
    2.7023   -6.9300    0.0000 O   0  0  0  0  0  0  0  0  0  0  0  0
    1.5591   -8.9100    0.0000 O   0  0  0  0  0  0  0  0  0  0  0  0
    2.7023   -9.5700    0.0000 C   0  0  0  0  0  0  0  0  0  0  0  0
    2.1307   -9.9000    0.0000 O   0  0  0  0  0  0  0  0  0  0  0  0
  1  2  1  0  0  0  0
  2  3  2  0  0  0  0
  3  4  1  0  0  0  0
  4  5  2  0  0  0  0
  5  6  1  0  0  0  0
  6  1  2  0  0  0  0
  4  7  1  0  0  0  0
  7  8  1  0  0  0  0
  8  9  2  0  0  0  0
  9 10  1  0  0  0  0
 10  5  1  0  0  0  0
  9 11  1  0  0  0  0
 11 12  1  0  0  0  0
 11 13  2  0  0  0  0
 13 14  1  0  0  0  0
 14 15  2  0  0  0  0
 15 16  1  0  0  0  0
 16 12  2  0  0  0  0
 15 17  1  0  0  0  0
 17 18  1  0  0  0  0
 18 19  2  0  0  0  0
 18 20  1  0  0  0  0
 20 21  2  0  0  0  0
 21 22  1  0  0  0  0
 22 23  2  0  0  0  0
 23 24  1  0  0  0  0
 24 25  2  0  0  0  0
 25 26  1  0  0  0  0
 26 27  2  0  0  0  0
 27 22  1  0  0  0  0
 16 28  1  0  0  0  0
 25 29  1  0  0  0  0
 24 30  1  0  0  0  0
  7 31  2  0  0  0  0
  3 32  1  0  0  0  0
  1 33  1  0  0  0  0
 34  2  1  6  0  0  0
 34 35  1  0  0  0  0
 35 36  1  0  0  0  0
 36 37  1  0  0  0  0
 37 38  1  0  0  0  0
 38 39  1  0  0  0  0
 39 34  1  0  0  0  0
 36 40  1  6  0  0  0
 35 41  1  1  0  0  0
 37 42  1  1  0  0  0
 38 43  1  0  0  0  0
 43 44  1  0  0  0  0
M  END
>  <cdx:fragmentId>
5

$$$$
