412558.cdx
  Mrv1902 05222410222D          

 30 31  0  0  0  0            999 V2000
    6.9119   -6.6362    0.0000 O   0  0  0  0  0  0  0  0  0  0  0  0
    7.6230   -6.2178    0.0000 C   0  0  0  0  0  0  0  0  0  0  0  0
    8.3408   -6.6245    0.0000 C   0  0  0  0  0  0  0  0  0  0  0  0
    9.0519   -6.2061    0.0000 C   0  0  0  0  0  0  0  0  0  0  0  0
    7.6162   -5.3929    0.0000 O   0  0  0  0  0  0  0  0  0  0  0  0
   11.1783   -4.1262    0.0000 O   0  0  0  0  0  0  0  0  0  0  0  0
   11.9029   -5.3578    0.0000 O   0  0  0  0  0  0  0  0  0  0  0  0
   11.1851   -4.9511    0.0000 C   0  0  0  0  0  0  0  0  0  0  0  0
   10.4740   -5.3695    0.0000 C   0  0  0  0  0  0  0  0  0  0  0  0
   11.9096   -6.1827    0.0000 O   0  0  0  0  0  0  0  0  0  0  0  0
   11.9232   -7.8327    0.0000 O   0  0  0  0  0  0  0  0  0  0  0  0
    9.7764   -7.4377    0.0000 C   0  0  0  0  0  0  0  0  0  0  0  0
   10.4943   -7.8444    0.0000 C   0  0  0  0  0  0  0  0  0  0  0  0
   11.2053   -7.4261    0.0000 C   0  0  0  0  0  0  0  0  0  0  0  0
   11.1986   -6.6011    0.0000 C   0  0  0  0  0  0  0  0  0  0  0  0
   10.4808   -6.1944    0.0000 C   0  0  0  0  0  0  0  0  0  0  0  0
    9.7697   -6.6128    0.0000 C   0  0  0  0  0  0  0  0  0  0  0  0
    4.0338   -4.1847    0.0000 O   0  0  0  0  0  0  0  0  0  0  0  0
    2.6117   -5.0213    0.0000 O   0  0  0  0  0  0  0  0  0  0  0  0
    4.0541   -6.6596    0.0000 C   0  0  0  0  0  0  0  0  0  0  0  0
    3.3363   -6.2529    0.0000 C   0  0  0  0  0  0  0  0  0  0  0  0
    3.3295   -5.4280    0.0000 C   0  0  0  0  0  0  0  0  0  0  0  0
    4.0406   -5.0096    0.0000 C   0  0  0  0  0  0  0  0  0  0  0  0
    4.7584   -5.4163    0.0000 C   0  0  0  0  0  0  0  0  0  0  0  0
    4.7652   -6.2412    0.0000 C   0  0  0  0  0  0  0  0  0  0  0  0
    5.4695   -4.9979    0.0000 O   0  0  0  0  0  0  0  0  0  0  0  0
    6.8984   -4.9862    0.0000 O   0  0  0  0  0  0  0  0  0  0  0  0
    5.4830   -6.6479    0.0000 C   0  0  0  0  0  0  0  0  0  0  0  0
    6.1941   -6.2295    0.0000 C   0  0  2  0  0  0  0  0  0  0  0  0
    6.1873   -5.4046    0.0000 C   0  0  0  0  0  0  0  0  0  0  0  0
 29  1  1  6  0  0  0
 16  9  1  0  0  0  0
  9  8  1  0  0  0  0
  8  6  1  0  0  0  0
  8  7  2  0  0  0  0
 15 10  1  0  0  0  0
 14 11  1  0  0  0  0
 17 12  2  0  0  0  0
 13 12  1  0  0  0  0
 14 13  2  0  0  0  0
 15 14  1  0  0  0  0
 16 15  2  0  0  0  0
 17 16  1  0  0  0  0
 28 25  1  0  0  0  0
 23 18  1  0  0  0  0
 22 19  1  0  0  0  0
 25 20  2  0  0  0  0
 21 20  1  0  0  0  0
 22 21  2  0  0  0  0
 23 22  1  0  0  0  0
 24 23  2  0  0  0  0
 25 24  1  0  0  0  0
 30 26  1  0  0  0  0
 30 27  2  0  0  0  0
 29 28  1  0  0  0  0
 30 29  1  0  0  0  0
  2  3  1  0  0  0  0
  3  4  2  0  0  0  0
  2  5  2  0  0  0  0
  4 17  1  0  0  0  0
  1  2  1  0  0  0  0
M  END
>  <cdx:fragmentId>
41

$$$$
