41262.cdx
  Mrv1902 05222410272D          

 16 17  0  0  0  0            999 V2000
    5.5818   -2.6892    0.0000 C   0  0  0  0  0  0  0  0  0  0  0  0
    5.5818   -3.5142    0.0000 C   0  0  0  0  0  0  0  0  0  0  0  0
    4.8673   -3.9267    0.0000 C   0  0  0  0  0  0  0  0  0  0  0  0
    4.1529   -3.5142    0.0000 C   0  0  0  0  0  0  0  0  0  0  0  0
    4.1529   -2.6892    0.0000 C   0  0  0  0  0  0  0  0  0  0  0  0
    4.8673   -2.2767    0.0000 C   0  0  0  0  0  0  0  0  0  0  0  0
    3.4384   -3.9267    0.0000 C   0  0  0  0  0  0  0  0  0  0  0  0
    3.4384   -4.7517    0.0000 C   0  0  0  0  0  0  0  0  0  0  0  0
    2.7239   -3.5142    0.0000 C   0  0  0  0  0  0  0  0  0  0  0  0
    6.2963   -2.2767    0.0000 C   0  0  0  0  0  0  0  0  0  0  0  0
    7.0108   -2.6892    0.0000 C   0  0  0  0  0  0  0  0  0  0  0  0
    7.7252   -2.2767    0.0000 C   0  0  0  0  0  0  0  0  0  0  0  0
    8.4397   -2.6892    0.0000 C   0  0  0  0  0  0  0  0  0  0  0  0
    8.4397   -3.5142    0.0000 C   0  0  0  0  0  0  0  0  0  0  0  0
    7.7252   -3.9267    0.0000 C   0  0  0  0  0  0  0  0  0  0  0  0
    7.0108   -3.5142    0.0000 C   0  0  0  0  0  0  0  0  0  0  0  0
  1  2  1  0  0  0  0
  2  3  1  0  0  0  0
  3  4  1  0  0  0  0
  4  5  1  0  0  0  0
  5  6  1  0  0  0  0
  1  6  1  0  0  0  0
  7  8  1  0  0  0  0
  7  9  1  0  0  0  0
  4  7  1  0  0  0  0
 11 12  1  0  0  0  0
 12 13  1  0  0  0  0
 13 14  1  0  0  0  0
 14 15  1  0  0  0  0
 15 16  1  0  0  0  0
 11 16  1  0  0  0  0
 10 11  1  0  0  0  0
  1 10  1  0  0  0  0
M  END
>  <cdx:groupId>
51

>  <cdx:fragmentId>
5

$$$$
