41261.cdx
  Mrv1902 05222410262D          

 13 14  0  0  0  0            999 V2000
    6.4375   -8.2477    0.0000 C   0  0  0  0  0  0  0  0  0  0  0  0
    5.9289   -8.8972    0.0000 C   0  0  0  0  0  0  0  0  0  0  0  0
    6.1197   -9.6999    0.0000 C   0  0  0  0  0  0  0  0  0  0  0  0
    6.8662  -10.0512    0.0000 C   0  0  0  0  0  0  0  0  0  0  0  0
    7.6062   -9.6866    0.0000 C   0  0  0  0  0  0  0  0  0  0  0  0
    7.7826   -8.8807    0.0000 C   0  0  0  0  0  0  0  0  0  0  0  0
    7.2625   -8.2403    0.0000 C   0  0  0  0  0  0  0  0  0  0  0  0
    7.6138   -7.4938    0.0000 C   0  0  0  0  0  0  0  0  0  0  0  0
    5.7072  -10.4143    0.0000 C   0  0  0  0  0  0  0  0  0  0  0  0
    6.4537  -10.7657    0.0000 C   0  0  0  0  0  0  0  0  0  0  0  0
    5.2947  -11.1288    0.0000 C   0  0  0  0  0  0  0  0  0  0  0  0
    4.9927  -10.0018    0.0000 C   0  0  0  0  0  0  0  0  0  0  0  0
    8.3207  -10.0991    0.0000 C   0  0  0  0  0  0  0  0  0  0  0  0
  1  2  1  0  0  0  0
  2  3  1  0  0  0  0
  3  4  1  0  0  0  0
  4  5  1  0  0  0  0
  5  6  1  0  0  0  0
  6  7  1  0  0  0  0
  7  1  1  0  0  0  0
  7  8  2  0  0  0  0
  3  9  1  0  0  0  0
  4 10  1  0  0  0  0
 10  9  1  0  0  0  0
  9 11  1  0  0  0  0
  9 12  1  0  0  0  0
  5 13  1  0  0  0  0
M  END
>  <cdx:fragmentId>
74

$$$$
