2-propeonic acid.cdx
  Mrv1902 05222410272D          

  5  4  0  0  0  0            999 V2000
    5.2552   -7.3012    0.0000 C   0  0  0  0  0  0  0  0  0  0  0  0
    5.9697   -6.8888    0.0000 C   0  0  0  0  0  0  0  0  0  0  0  0
    6.6842   -7.3012    0.0000 C   0  0  0  0  0  0  0  0  0  0  0  0
    4.5408   -6.8888    0.0000 O   0  0  0  0  0  0  0  0  0  0  0  0
    5.2552   -8.1263    0.0000 O   0  0  0  0  0  0  0  0  0  0  0  0
  1  2  1  0  0  0  0
  2  3  2  0  0  0  0
  1  4  1  0  0  0  0
  1  5  2  0  0  0  0
M  END
>  <cdx:fragmentId>
3

$$$$
