41260.cdx
  Mrv1902 05222410262D          

 17 19  0  0  0  0            999 V2000
    6.5602   -8.0441    0.0000 C   0  0  0  0  0  0  0  0  0  0  0  0
    5.9209   -8.5656    0.0000 C   0  0  0  0  0  0  0  0  0  0  0  0
    5.9301   -9.3906    0.0000 C   0  0  2  0  0  0  0  0  0  0  0  0
    6.5807   -9.8978    0.0000 C   0  0  0  0  0  0  0  0  0  0  0  0
    7.3830   -9.7053    0.0000 O   0  0  0  0  0  0  0  0  0  0  0  0
    7.7327   -8.9581    0.0000 C   0  0  0  0  0  0  0  0  0  0  0  0
    7.3665   -8.2188    0.0000 C   0  0  2  0  0  0  0  0  0  0  0  0
    8.5560   -9.0106    0.0000 C   0  0  2  0  0  0  0  0  0  0  0  0
    9.0131   -8.3239    0.0000 C   0  0  0  0  0  0  0  0  0  0  0  0
    8.6470   -7.5846    0.0000 C   0  0  0  0  0  0  0  0  0  0  0  0
    7.8236   -7.5320    0.0000 C   0  0  0  0  0  0  0  0  0  0  0  0
    5.1908   -9.7568    0.0000 H   0  0  0  0  0  0  0  0  0  0  0  0
    5.9974  -10.4812    0.0000 C   0  0  0  0  0  0  0  0  0  0  0  0
    6.7943  -10.6947    0.0000 C   0  0  0  0  0  0  0  0  0  0  0  0
    6.7100   -8.8275    0.0000 C   0  0  0  0  0  0  0  0  0  0  0  0
    8.9222   -9.7499    0.0000 C   0  0  0  0  0  0  0  0  0  0  0  0
    6.9540   -7.5043    0.0000 C   0  0  0  0  0  0  0  0  0  0  0  0
  1  2  1  0  0  0  0
  2  3  1  0  0  0  0
  3  4  1  0  0  0  0
  4  5  1  0  0  0  0
  5  6  1  0  0  0  0
  6  7  1  0  0  0  0
  7  1  1  0  0  0  0
  6  8  1  0  0  0  0
  8  9  1  0  0  0  0
  9 10  1  0  0  0  0
 10 11  1  0  0  0  0
 11  7  1  0  0  0  0
  3 12  1  6  0  0  0
  4 13  1  0  0  0  0
  4 14  1  0  0  0  0
  6 15  1  0  0  0  0
  8 16  1  6  0  0  0
  7 17  1  6  0  0  0
 15  3  1  0  0  0  0
M  END
>  <cdx:fragmentId>
74

$$$$
