14412869.cdx
  Mrv1902 05222410182D          

 19 20  0  0  0  0            999 V2000
    8.5395  -11.0807    0.0000 C   0  0  0  0  0  0  0  0  0  0  0  0
    9.0244  -10.4133    0.0000 C   0  0  0  0  0  0  0  0  0  0  0  0
    8.5395   -9.7458    0.0000 C   0  0  0  0  0  0  0  0  0  0  0  0
    7.7549  -10.0008    0.0000 C   0  0  1  0  0  0  0  0  0  0  0  0
    7.1099   -9.4864    0.0000 C   0  0  0  0  0  0  0  0  0  0  0  0
    6.3055   -9.6700    0.0000 C   0  0  0  0  0  0  0  0  0  0  0  0
    5.9476  -10.4133    0.0000 C   0  0  0  0  0  0  0  0  0  0  0  0
    6.3055  -11.1566    0.0000 C   0  0  0  0  0  0  0  0  0  0  0  0
    7.1099  -11.3402    0.0000 C   0  0  1  0  0  0  0  0  0  0  0  0
    7.7549  -10.8258    0.0000 C   0  0  1  0  0  0  0  0  0  0  0  0
    5.7912   -9.0250    0.0000 C   0  0  0  0  0  0  0  0  0  0  0  0
    4.9754   -9.1479    0.0000 O   0  0  0  0  0  0  0  0  0  0  0  0
    5.1226  -10.4133    0.0000 C   0  0  0  0  0  0  0  0  0  0  0  0
    4.7101  -11.1277    0.0000 O   0  0  0  0  0  0  0  0  0  0  0  0
    7.2934  -12.1445    0.0000 C   0  0  0  0  0  0  0  0  0  0  0  0
    9.7389  -10.0008    0.0000 C   0  0  0  0  0  0  0  0  0  0  0  0
    9.7389  -10.8258    0.0000 C   0  0  0  0  0  0  0  0  0  0  0  0
    7.9022   -9.1890    0.0000 H   0  0  0  0  0  0  0  0  0  0  0  0
    7.9022  -11.6375    0.0000 H   0  0  0  0  0  0  0  0  0  0  0  0
  1  2  1  0  0  0  0
  2  3  1  0  0  0  0
  3  4  1  0  0  0  0
  4  5  1  0  0  0  0
  5  6  2  0  0  0  0
  6  7  1  0  0  0  0
  7  8  2  0  0  0  0
  8  9  1  0  0  0  0
  9 10  1  0  0  0  0
  1 10  1  0  0  0  0
  4 10  1  0  0  0  0
 11 12  2  0  0  0  0
  6 11  1  0  0  0  0
 13 14  2  0  0  0  0
  7 13  1  0  0  0  0
  9 15  1  1  0  0  0
  2 16  1  0  0  0  0
  2 17  1  0  0  0  0
  4 18  1  1  0  0  0
 10 19  1  1  0  0  0
M  END
>  <cdx:fragmentId>
1189

$$$$
