413064.cdx
  Mrv1902 05222410252D          

 37 42  0  0  0  0            999 V2000
    6.0665   -8.5786    0.0000 C   0  0  2  0  0  0  0  0  0  0  0  0
    5.3520   -8.1661    0.0000 C   0  0  0  0  0  0  0  0  0  0  0  0
    5.3520   -8.9911    0.0000 C   0  0  1  0  0  0  0  0  0  0  0  0
    4.6375   -8.5786    0.0000 C   0  0  0  0  0  0  0  0  0  0  0  0
    3.9231   -8.9911    0.0000 C   0  0  0  0  0  0  0  0  0  0  0  0
    3.9231   -9.8161    0.0000 C   0  0  1  0  0  0  0  0  0  0  0  0
    4.6375  -10.2286    0.0000 C   0  0  0  0  0  0  0  0  0  0  0  0
    5.3520   -9.8161    0.0000 C   0  0  2  0  0  0  0  0  0  0  0  0
    6.0665  -10.2286    0.0000 C   0  0  0  0  0  0  0  0  0  0  0  0
    6.7809   -9.8161    0.0000 C   0  0  0  0  0  0  0  0  0  0  0  0
    6.7809   -8.9911    0.0000 C   0  0  0  0  0  0  0  0  0  0  0  0
    7.4954   -8.5786    0.0000 C   0  0  2  0  0  0  0  0  0  0  0  0
    8.2800   -8.8336    0.0000 C   0  0  0  0  0  0  0  0  0  0  0  0
    8.7650   -8.1661    0.0000 C   0  0  0  0  0  0  0  0  0  0  0  0
    8.2800   -7.4987    0.0000 C   0  0  1  0  0  0  0  0  0  0  0  0
    7.4954   -7.7536    0.0000 C   0  0  1  0  0  0  0  0  0  0  0  0
    6.7809   -7.3411    0.0000 C   0  0  0  0  0  0  0  0  0  0  0  0
    6.0665   -7.7536    0.0000 C   0  0  2  0  0  0  0  0  0  0  0  0
    9.5900   -8.1661    0.0000 O   0  0  0  0  0  0  0  0  0  0  0  0
    7.4954   -6.9286    0.0000 C   0  0  0  0  0  0  0  0  0  0  0  0
    7.4954   -9.4036    0.0000 C   0  0  0  0  0  0  0  0  0  0  0  0
    5.0500  -10.9431    0.0000 C   0  0  0  0  0  0  0  0  0  0  0  0
    4.2250  -10.9431    0.0000 C   0  0  0  0  0  0  0  0  0  0  0  0
    5.3520   -7.3411    0.0000 O   0  0  0  0  0  0  0  0  0  0  0  0
    3.2086  -10.2286    0.0000 O   0  0  0  0  0  0  0  0  0  0  0  0
    7.9829   -6.1010    0.0000 C   0  0  0  0  0  0  0  0  0  0  0  0
    8.5350   -6.7141    0.0000 C   0  0  2  0  0  0  0  0  0  0  0  0
    9.3420   -6.5425    0.0000 C   0  0  0  0  0  0  0  0  0  0  0  0
    9.5969   -5.7579    0.0000 C   0  0  0  0  0  0  0  0  0  0  0  0
    9.0449   -5.1448    0.0000 O   0  0  0  0  0  0  0  0  0  0  0  0
   11.1885   -5.8413    0.0000 O   0  0  0  0  0  0  0  0  0  0  0  0
   10.4039   -5.5864    0.0000 C   0  0  2  0  0  0  0  0  0  0  0  0
   11.0170   -5.0344    0.0000 C   0  0  0  0  0  0  0  0  0  0  0  0
   10.8454   -4.2274    0.0000 C   0  0  0  0  0  0  0  0  0  0  0  0
   11.6301   -4.4823    0.0000 C   0  0  0  0  0  0  0  0  0  0  0  0
    5.3520  -10.6411    0.0000 H   0  0  0  0  0  0  0  0  0  0  0  0
    9.0647   -7.2437    0.0000 H   0  0  0  0  0  0  0  0  0  0  0  0
  1  2  1  1  0  0  0
  3  2  1  1  0  0  0
  3  4  1  0  0  0  0
  4  5  1  0  0  0  0
  5  6  1  0  0  0  0
  6  7  1  0  0  0  0
  7  8  1  0  0  0  0
  8  9  1  0  0  0  0
  9 10  1  0  0  0  0
 10 11  2  0  0  0  0
 11 12  1  0  0  0  0
 12 13  1  0  0  0  0
 13 14  1  0  0  0  0
 15 14  1  0  0  0  0
 15 16  1  0  0  0  0
 16 17  1  0  0  0  0
 17 18  1  0  0  0  0
  1 18  1  0  0  0  0
  1 11  1  0  0  0  0
 12 16  1  0  0  0  0
  3  8  1  0  0  0  0
  1  3  1  0  0  0  0
 14 19  2  0  0  0  0
 16 20  1  1  0  0  0
 12 21  1  6  0  0  0
  7 22  1  0  0  0  0
  7 23  1  0  0  0  0
 18 24  1  1  0  0  0
  6 25  1  1  0  0  0
 27 26  1  6  0  0  0
 27 28  1  0  0  0  0
 28 29  1  0  0  0  0
 29 30  2  0  0  0  0
 31 32  1  0  0  0  0
 32 33  1  0  0  0  0
 31 33  1  0  0  0  0
 33 34  1  0  0  0  0
 33 35  1  0  0  0  0
 32 29  1  1  0  0  0
 15 27  1  0  0  0  0
  8 36  1  6  0  0  0
 15 37  1  6  0  0  0
M  END
>  <cdx:fragmentId>
48799

$$$$
