41306.cdx
  Mrv1902 05222410272D          

 15 14  0  0  0  0            999 V2000
    2.4328   -3.0033    0.0000 C   0  0  0  0  0  0  0  0  0  0  0  0
    3.1473   -2.5908    0.0000 C   0  0  0  0  0  0  0  0  0  0  0  0
    3.8617   -3.0033    0.0000 C   0  0  0  0  0  0  0  0  0  0  0  0
    4.5762   -2.5908    0.0000 C   0  0  0  0  0  0  0  0  0  0  0  0
    5.2907   -3.0033    0.0000 C   0  0  0  0  0  0  0  0  0  0  0  0
    6.0052   -2.5908    0.0000 C   0  0  0  0  0  0  0  0  0  0  0  0
    6.7196   -3.0033    0.0000 C   0  0  0  0  0  0  0  0  0  0  0  0
    7.4341   -2.5908    0.0000 C   0  0  0  0  0  0  0  0  0  0  0  0
    8.1486   -3.0033    0.0000 C   0  0  0  0  0  0  0  0  0  0  0  0
    8.8630   -2.5908    0.0000 C   0  0  0  0  0  0  0  0  0  0  0  0
    9.5775   -3.0033    0.0000 C   0  0  0  0  0  0  0  0  0  0  0  0
   10.2920   -2.5908    0.0000 C   0  0  0  0  0  0  0  0  0  0  0  0
   11.0065   -3.0033    0.0000 C   0  0  0  0  0  0  0  0  0  0  0  0
    7.4341   -1.7658    0.0000 C   0  0  0  0  0  0  0  0  0  0  0  0
    4.5762   -1.7658    0.0000 C   0  0  0  0  0  0  0  0  0  0  0  0
  1  2  1  0  0  0  0
  2  3  1  0  0  0  0
  3  4  1  0  0  0  0
  4  5  1  0  0  0  0
  5  6  1  0  0  0  0
  6  7  1  0  0  0  0
  7  8  1  0  0  0  0
  8  9  1  0  0  0  0
  9 10  1  0  0  0  0
 10 11  1  0  0  0  0
 11 12  1  0  0  0  0
 12 13  1  0  0  0  0
  8 14  1  0  0  0  0
  4 15  1  0  0  0  0
M  END
>  <cdx:groupId>
46

>  <cdx:fragmentId>
5

$$$$
