41310.cdx
  Mrv1902 05222410282D          

 16 15  0  0  0  0            999 V2000
   10.2062   -3.7046    0.0000 C   0  0  0  0  0  0  0  0  0  0  0  0
    9.4917   -4.1171    0.0000 C   0  0  0  0  0  0  0  0  0  0  0  0
    8.7773   -3.7046    0.0000 C   0  0  0  0  0  0  0  0  0  0  0  0
    8.0628   -4.1171    0.0000 C   0  0  0  0  0  0  0  0  0  0  0  0
    7.3483   -3.7046    0.0000 C   0  0  0  0  0  0  0  0  0  0  0  0
    6.6338   -4.1171    0.0000 C   0  0  0  0  0  0  0  0  0  0  0  0
    5.9194   -3.7046    0.0000 C   0  0  0  0  0  0  0  0  0  0  0  0
    5.2049   -4.1171    0.0000 C   0  0  0  0  0  0  0  0  0  0  0  0
    4.4904   -3.7046    0.0000 C   0  0  0  0  0  0  0  0  0  0  0  0
    3.7760   -4.1171    0.0000 C   0  0  0  0  0  0  0  0  0  0  0  0
    3.0615   -3.7046    0.0000 C   0  0  0  0  0  0  0  0  0  0  0  0
    2.3470   -4.1171    0.0000 C   0  0  0  0  0  0  0  0  0  0  0  0
    1.6325   -3.7046    0.0000 C   0  0  0  0  0  0  0  0  0  0  0  0
    7.3483   -2.8796    0.0000 C   0  0  0  0  0  0  0  0  0  0  0  0
    8.0628   -2.4671    0.0000 C   0  0  0  0  0  0  0  0  0  0  0  0
    8.0628   -1.6421    0.0000 C   0  0  0  0  0  0  0  0  0  0  0  0
  1  2  1  0  0  0  0
  2  3  1  0  0  0  0
  3  4  1  0  0  0  0
  4  5  1  0  0  0  0
  5  6  1  0  0  0  0
  6  7  1  0  0  0  0
  7  8  1  0  0  0  0
  8  9  1  0  0  0  0
  9 10  1  0  0  0  0
 10 11  1  0  0  0  0
 11 12  1  0  0  0  0
 12 13  1  0  0  0  0
 14 15  1  0  0  0  0
 15 16  1  0  0  0  0
  5 14  1  0  0  0  0
M  END
>  <cdx:groupId>
49

>  <cdx:fragmentId>
5

$$$$
