4142.cdx
  Mrv1902 05222410252D          

 18 17  0  0  0  0            999 V2000
    1.9346   -4.6612    0.0000 C   0  0  0  0  0  0  0  0  0  0  0  0
    2.3471   -5.3757    0.0000 C   0  0  0  0  0  0  0  0  0  0  0  0
    3.1721   -5.3757    0.0000 C   0  0  0  0  0  0  0  0  0  0  0  0
    3.5846   -6.0902    0.0000 C   0  0  0  0  0  0  0  0  0  0  0  0
    4.4096   -6.0902    0.0000 C   0  0  0  0  0  0  0  0  0  0  0  0
    4.8221   -6.8047    0.0000 C   0  0  0  0  0  0  0  0  0  0  0  0
    5.6471   -6.8047    0.0000 C   0  0  0  0  0  0  0  0  0  0  0  0
    6.0596   -7.5191    0.0000 C   0  0  0  0  0  0  0  0  0  0  0  0
    6.8846   -7.5191    0.0000 C   0  0  0  0  0  0  0  0  0  0  0  0
    7.2971   -6.8047    0.0000 C   0  0  0  0  0  0  0  0  0  0  0  0
    8.1221   -6.8047    0.0000 C   0  0  0  0  0  0  0  0  0  0  0  0
    8.9471   -6.8047    0.0000 C   0  0  0  0  0  0  0  0  0  0  0  0
    9.7721   -6.8047    0.0000 C   0  0  0  0  0  0  0  0  0  0  0  0
   10.5971   -6.8047    0.0000 C   0  0  0  0  0  0  0  0  0  0  0  0
   11.4221   -6.8047    0.0000 C   0  0  0  0  0  0  0  0  0  0  0  0
   11.8346   -6.0902    0.0000 C   0  0  0  0  0  0  0  0  0  0  0  0
   11.4221   -5.3757    0.0000 C   0  0  0  0  0  0  0  0  0  0  0  0
   11.8346   -4.6612    0.0000 O   0  0  0  0  0  0  0  0  0  0  0  0
  1  2  1  0  0  0  0
  2  3  1  0  0  0  0
  3  4  1  0  0  0  0
  4  5  1  0  0  0  0
  5  6  1  0  0  0  0
  6  7  1  0  0  0  0
  7  8  1  0  0  0  0
  8  9  2  0  0  0  0
  9 10  1  0  0  0  0
 10 11  1  0  0  0  0
 11 12  3  0  0  0  0
 12 13  1  0  0  0  0
 13 14  3  0  0  0  0
 14 15  1  0  0  0  0
 15 16  2  0  0  0  0
 16 17  1  0  0  0  0
 17 18  1  0  0  0  0
M  END
>  <cdx:fragmentId>
3

$$$$
