41442.cdx
  Mrv1902 05222410202D          

 11 10  0  0  0  0            999 V2000
    2.5484   -2.2894    0.0000 C   0  0  0  0  0  0  0  0  0  0  0  0
    3.2628   -2.7019    0.0000 C   0  0  0  0  0  0  0  0  0  0  0  0
    3.9773   -3.1144    0.0000 C   0  0  0  0  0  0  0  0  0  0  0  0
    4.6918   -3.5269    0.0000 C   0  0  0  0  0  0  0  0  0  0  0  0
    5.4062   -3.9394    0.0000 C   0  0  0  0  0  0  0  0  0  0  0  0
    6.1207   -3.5269    0.0000 C   0  0  0  0  0  0  0  0  0  0  0  0
    6.8352   -3.9394    0.0000 C   0  0  0  0  0  0  0  0  0  0  0  0
    7.5496   -3.5269    0.0000 C   0  0  0  0  0  0  0  0  0  0  0  0
    6.8352   -4.7644    0.0000 C   0  0  0  0  0  0  0  0  0  0  0  0
    3.2628   -1.8769    0.0000 C   0  0  0  0  0  0  0  0  0  0  0  0
    2.5484   -3.1144    0.0000 C   0  0  0  0  0  0  0  0  0  0  0  0
  1  2  1  0  0  0  0
  2  3  1  0  0  0  0
  3  4  3  0  0  0  0
  4  5  1  0  0  0  0
  5  6  1  0  0  0  0
  6  7  1  0  0  0  0
  7  8  1  0  0  0  0
  7  9  1  0  0  0  0
  2 10  1  0  0  0  0
  2 11  1  0  0  0  0
M  END
>  <cdx:groupId>
34

>  <cdx:fragmentId>
5

$$$$
