10414856.cdx
  Mrv1902 05222410202D          

 40 45  0  0  0  0            999 V2000
    7.3864  -16.4912    0.0000 C   0  0  0  0  0  0  0  0  0  0  0  0
    7.3864  -15.6662    0.0000 C   0  0  0  0  0  0  0  0  0  0  0  0
    6.6719  -15.2537    0.0000 C   0  0  0  0  0  0  0  0  0  0  0  0
    5.9575  -15.6662    0.0000 C   0  0  0  0  0  0  0  0  0  0  0  0
    5.2430  -15.2537    0.0000 C   0  0  0  0  0  0  0  0  0  0  0  0
    4.5285  -15.6662    0.0000 C   0  0  0  0  0  0  0  0  0  0  0  0
    4.5285  -16.4912    0.0000 C   0  0  0  0  0  0  0  0  0  0  0  0
    5.2430  -16.9037    0.0000 C   0  0  0  0  0  0  0  0  0  0  0  0
    5.9575  -16.4912    0.0000 C   0  0  0  0  0  0  0  0  0  0  0  0
    6.6719  -16.9037    0.0000 O   0  0  0  0  0  0  0  0  0  0  0  0
    6.6719  -14.4287    0.0000 O   0  0  0  0  0  0  0  0  0  0  0  0
    8.1009  -16.9037    0.0000 C   0  0  0  0  0  0  0  0  0  0  0  0
    8.8153  -16.4912    0.0000 C   0  0  0  0  0  0  0  0  0  0  0  0
    9.5298  -16.9037    0.0000 C   0  0  0  0  0  0  0  0  0  0  0  0
    9.5298  -17.7287    0.0000 C   0  0  0  0  0  0  0  0  0  0  0  0
    8.8153  -18.1412    0.0000 C   0  0  0  0  0  0  0  0  0  0  0  0
    8.1009  -17.7287    0.0000 C   0  0  0  0  0  0  0  0  0  0  0  0
   10.2443  -18.1412    0.0000 O   0  0  0  0  0  0  0  0  0  0  0  0
    3.8140  -16.9037    0.0000 O   0  0  0  0  0  0  0  0  0  0  0  0
    5.2430  -14.4287    0.0000 O   0  0  0  0  0  0  0  0  0  0  0  0
    7.8151  -12.9437    0.0000 C   0  0  0  0  0  0  0  0  0  0  0  0
    8.5295  -12.5312    0.0000 C   0  0  0  0  0  0  0  0  0  0  0  0
    9.2440  -12.9437    0.0000 C   0  0  0  0  0  0  0  0  0  0  0  0
    9.2440  -13.7687    0.0000 C   0  0  0  0  0  0  0  0  0  0  0  0
    9.9585  -14.1812    0.0000 C   0  0  0  0  0  0  0  0  0  0  0  0
    9.9585  -15.0062    0.0000 C   0  0  0  0  0  0  0  0  0  0  0  0
    9.2440  -15.4187    0.0000 C   0  0  0  0  0  0  0  0  0  0  0  0
    8.5295  -15.0062    0.0000 C   0  0  0  0  0  0  0  0  0  0  0  0
    8.5295  -14.1812    0.0000 C   0  0  0  0  0  0  0  0  0  0  0  0
    7.8151  -13.7687    0.0000 O   0  0  0  0  0  0  0  0  0  0  0  0
    9.9585  -12.5312    0.0000 O   0  0  0  0  0  0  0  0  0  0  0  0
    7.1006  -12.5312    0.0000 C   0  0  0  0  0  0  0  0  0  0  0  0
    6.3861  -12.9437    0.0000 C   0  0  0  0  0  0  0  0  0  0  0  0
    5.6717  -12.5312    0.0000 C   0  0  0  0  0  0  0  0  0  0  0  0
    5.6717  -11.7062    0.0000 C   0  0  0  0  0  0  0  0  0  0  0  0
    6.3861  -11.2937    0.0000 C   0  0  0  0  0  0  0  0  0  0  0  0
    7.1006  -11.7062    0.0000 C   0  0  0  0  0  0  0  0  0  0  0  0
    4.9572  -11.2937    0.0000 O   0  0  0  0  0  0  0  0  0  0  0  0
    9.2440  -16.2437    0.0000 O   0  0  0  0  0  0  0  0  0  0  0  0
   10.6730  -13.7687    0.0000 O   0  0  0  0  0  0  0  0  0  0  0  0
  1  2  2  0  0  0  0
  2  3  1  0  0  0  0
  3  4  1  0  0  0  0
  4  5  2  0  0  0  0
  5  6  1  0  0  0  0
  6  7  2  0  0  0  0
  7  8  1  0  0  0  0
  8  9  2  0  0  0  0
  4  9  1  0  0  0  0
  9 10  1  0  0  0  0
  1 10  1  0  0  0  0
  3 11  2  0  0  0  0
 12 13  1  0  0  0  0
 13 14  2  0  0  0  0
 14 15  1  0  0  0  0
 15 16  2  0  0  0  0
 16 17  1  0  0  0  0
 12 17  2  0  0  0  0
 15 18  1  0  0  0  0
  1 12  1  0  0  0  0
  7 19  1  0  0  0  0
  5 20  1  0  0  0  0
 21 22  2  0  0  0  0
 22 23  1  0  0  0  0
 23 24  1  0  0  0  0
 24 25  1  0  0  0  0
 25 26  2  0  0  0  0
 26 27  1  0  0  0  0
 27 28  2  0  0  0  0
 28 29  1  0  0  0  0
 24 29  2  0  0  0  0
 29 30  1  0  0  0  0
 21 30  1  0  0  0  0
 23 31  2  0  0  0  0
 32 33  1  0  0  0  0
 33 34  2  0  0  0  0
 34 35  1  0  0  0  0
 35 36  2  0  0  0  0
 36 37  1  0  0  0  0
 32 37  2  0  0  0  0
 35 38  1  0  0  0  0
 21 32  1  0  0  0  0
 27 39  1  0  0  0  0
 25 40  1  0  0  0  0
  2 28  1  0  0  0  0
M  END
>  <cdx:groupId>
49044

>  <cdx:fragmentId>
48962

$$$$
