414857.cdx
  Mrv1902 05222410212D          

 40 45  0  0  0  0            999 V2000
    5.9518   -8.9837    0.0000 C   0  0  0  0  0  0  0  0  0  0  0  0
    6.6663   -9.3962    0.0000 C   0  0  0  0  0  0  0  0  0  0  0  0
    6.6663  -10.2212    0.0000 C   0  0  0  0  0  0  0  0  0  0  0  0
    5.9518  -10.6337    0.0000 C   0  0  0  0  0  0  0  0  0  0  0  0
    5.2373  -10.2212    0.0000 C   0  0  0  0  0  0  0  0  0  0  0  0
    4.5229  -10.6337    0.0000 C   0  0  0  0  0  0  0  0  0  0  0  0
    3.8084  -10.2212    0.0000 C   0  0  0  0  0  0  0  0  0  0  0  0
    3.0939  -10.6337    0.0000 C   0  0  0  0  0  0  0  0  0  0  0  0
    2.3794  -10.2212    0.0000 C   0  0  0  0  0  0  0  0  0  0  0  0
    2.3794   -9.3962    0.0000 C   0  0  0  0  0  0  0  0  0  0  0  0
    3.0939   -8.9837    0.0000 C   0  0  0  0  0  0  0  0  0  0  0  0
    3.8084   -9.3962    0.0000 C   0  0  0  0  0  0  0  0  0  0  0  0
    4.5229   -8.9837    0.0000 C   0  0  0  0  0  0  0  0  0  0  0  0
    5.2373   -9.3962    0.0000 C   0  0  0  0  0  0  0  0  0  0  0  0
    4.5229   -8.1587    0.0000 O   0  0  0  0  0  0  0  0  0  0  0  0
    4.5229  -11.4587    0.0000 O   0  0  0  0  0  0  0  0  0  0  0  0
    8.0952   -9.3962    0.0000 C   0  0  0  0  0  0  0  0  0  0  0  0
    7.3807   -8.9837    0.0000 C   0  0  0  0  0  0  0  0  0  0  0  0
    7.3807   -8.1587    0.0000 C   0  0  0  0  0  0  0  0  0  0  0  0
    8.0952   -7.7462    0.0000 C   0  0  0  0  0  0  0  0  0  0  0  0
    8.8097   -8.1587    0.0000 C   0  0  0  0  0  0  0  0  0  0  0  0
    9.5241   -7.7462    0.0000 C   0  0  0  0  0  0  0  0  0  0  0  0
   10.2386   -8.1587    0.0000 C   0  0  0  0  0  0  0  0  0  0  0  0
   10.9531   -7.7462    0.0000 C   0  0  0  0  0  0  0  0  0  0  0  0
   11.6676   -8.1587    0.0000 C   0  0  0  0  0  0  0  0  0  0  0  0
   11.6676   -8.9837    0.0000 C   0  0  0  0  0  0  0  0  0  0  0  0
   10.9531   -9.3962    0.0000 C   0  0  0  0  0  0  0  0  0  0  0  0
   10.2386   -8.9837    0.0000 C   0  0  0  0  0  0  0  0  0  0  0  0
    9.5241   -9.3962    0.0000 C   0  0  0  0  0  0  0  0  0  0  0  0
    8.8097   -8.9837    0.0000 C   0  0  0  0  0  0  0  0  0  0  0  0
    9.5241   -6.9212    0.0000 O   0  0  0  0  0  0  0  0  0  0  0  0
    9.5241  -10.2212    0.0000 O   0  0  0  0  0  0  0  0  0  0  0  0
    6.6663   -7.7462    0.0000 C   0  0  0  0  0  0  0  0  0  0  0  0
   10.9531  -10.2212    0.0000 O   0  0  0  0  0  0  0  0  0  0  0  0
   12.3820   -7.7462    0.0000 O   0  0  0  0  0  0  0  0  0  0  0  0
    8.0952  -10.2212    0.0000 O   0  0  0  0  0  0  0  0  0  0  0  0
    7.3807  -10.6337    0.0000 C   0  0  0  0  0  0  0  0  0  0  0  0
    3.0939   -8.1587    0.0000 O   0  0  0  0  0  0  0  0  0  0  0  0
    1.6650  -10.6337    0.0000 O   0  0  0  0  0  0  0  0  0  0  0  0
    5.9518   -8.1587    0.0000 O   0  0  0  0  0  0  0  0  0  0  0  0
  1  2  1  0  0  0  0
  2  3  2  0  0  0  0
  3  4  1  0  0  0  0
  4  5  2  0  0  0  0
  5  6  1  0  0  0  0
  6  7  1  0  0  0  0
  7  8  1  0  0  0  0
  8  9  2  0  0  0  0
  9 10  1  0  0  0  0
 10 11  2  0  0  0  0
 11 12  1  0  0  0  0
  7 12  2  0  0  0  0
 12 13  1  0  0  0  0
 13 14  1  0  0  0  0
  5 14  1  0  0  0  0
  1 14  2  0  0  0  0
 13 15  2  0  0  0  0
  6 16  2  0  0  0  0
 17 18  1  0  0  0  0
 18 19  2  0  0  0  0
 19 20  1  0  0  0  0
 20 21  2  0  0  0  0
 21 22  1  0  0  0  0
 22 23  1  0  0  0  0
 23 24  1  0  0  0  0
 24 25  2  0  0  0  0
 25 26  1  0  0  0  0
 26 27  2  0  0  0  0
 27 28  1  0  0  0  0
 23 28  2  0  0  0  0
 28 29  1  0  0  0  0
 29 30  1  0  0  0  0
 21 30  1  0  0  0  0
 17 30  2  0  0  0  0
 22 31  2  0  0  0  0
 29 32  2  0  0  0  0
 19 33  1  0  0  0  0
 27 34  1  0  0  0  0
 25 35  1  0  0  0  0
 17 36  1  0  0  0  0
  2 18  1  0  0  0  0
  3 37  1  0  0  0  0
 11 38  1  0  0  0  0
  9 39  1  0  0  0  0
  1 40  1  0  0  0  0
M  END
>  <cdx:fragmentId>
49093

$$$$
