4149.cdx
  Mrv1902 05222410222D          

 50 55  0  0  0  0            999 V2000
    4.9700   -9.5278    0.0000 H   0  0  0  0  0  0  0  0  0  0  0  0
    7.1321   -6.6411    0.0000 C   0  0  1  0  0  0  0  0  0  0  0  0
    7.8466   -6.2287    0.0000 C   0  0  1  0  0  0  0  0  0  0  0  0
    8.5610   -6.6414    0.0000 C   0  0  0  0  0  0  0  0  0  0  0  0
    8.5608   -7.4664    0.0000 C   0  0  0  0  0  0  0  0  0  0  0  0
    7.8462   -7.8787    0.0000 C   0  0  2  0  0  0  0  0  0  0  0  0
    7.8460   -8.7037    0.0000 C   0  0  0  0  0  0  0  0  0  0  0  0
    7.1314   -9.1161    0.0000 C   0  0  0  0  0  0  0  0  0  0  0  0
    6.4170   -8.7034    0.0000 C   0  0  1  0  0  0  0  0  0  0  0  0
    5.7024   -9.1157    0.0000 C   0  0  2  0  0  0  0  0  0  0  0  0
    5.7022   -9.9407    0.0000 C   0  0  0  0  0  0  0  0  0  0  0  0
    4.9876  -10.3530    0.0000 C   0  0  0  0  0  0  0  0  0  0  0  0
    4.2733   -9.9403    0.0000 C   0  0  1  0  0  0  0  0  0  0  0  0
    3.5587  -10.3526    0.0000 C   0  0  1  0  0  0  0  0  0  0  0  0
    2.8443   -9.9399    0.0000 C   0  0  1  0  0  0  0  0  0  0  0  0
    2.8445   -9.1149    0.0000 C   0  0  1  0  0  0  0  0  0  0  0  0
    3.5591   -8.7026    0.0000 C   0  0  0  0  0  0  0  0  0  0  0  0
    4.2735   -9.1153    0.0000 C   0  0  2  0  0  0  0  0  0  0  0  0
    4.9881   -8.7030    0.0000 C   0  0  1  0  0  0  0  0  0  0  0  0
    4.9883   -7.8780    0.0000 C   0  0  0  0  0  0  0  0  0  0  0  0
    5.7029   -7.4657    0.0000 C   0  0  0  0  0  0  0  0  0  0  0  0
    6.4172   -7.8784    0.0000 C   0  0  0  0  0  0  0  0  0  0  0  0
    7.1318   -7.4661    0.0000 C   0  0  2  0  0  0  0  0  0  0  0  0
    8.5605   -8.2914    0.0000 C   0  0  0  0  0  0  0  0  0  0  0  0
    8.5603   -9.1164    0.0000 O   0  0  0  0  0  0  0  0  0  0  0  0
    9.2751   -7.8791    0.0000 O   0  0  0  0  0  0  0  0  0  0  0  0
    4.2737   -8.2903    0.0000 C   0  0  0  0  0  0  0  0  0  0  0  0
    3.9710  -11.0671    0.0000 C   0  0  0  0  0  0  0  0  0  0  0  0
    3.1460  -11.0669    0.0000 C   0  0  0  0  0  0  0  0  0  0  0  0
    6.4168   -9.5284    0.0000 C   0  0  0  0  0  0  0  0  0  0  0  0
    7.8469   -5.4037    0.0000 C   0  0  0  0  0  0  0  0  0  0  0  0
    6.7198   -5.9265    0.0000 C   0  0  0  0  0  0  0  0  0  0  0  0
    2.1302   -8.7022    0.0000 O   0  0  0  0  0  0  0  0  0  0  0  0
    2.1297  -10.3522    0.0000 O   0  0  0  0  0  0  0  0  0  0  0  0
    6.3071   -6.6408    0.0000 O   0  0  0  0  0  0  0  0  0  0  0  0
    4.2730  -10.7653    0.0000 H   0  0  0  0  0  0  0  0  0  0  0  0
    7.1316   -8.2911    0.0000 H   0  0  0  0  0  0  0  0  0  0  0  0
    5.7027   -8.2907    0.0000 C   0  0  0  0  0  0  0  0  0  0  0  0
    3.5583  -11.7815    0.0000 O   0  0  0  0  0  0  0  0  0  0  0  0
    9.9895   -8.2918    0.0000 C   0  0  2  0  0  0  0  0  0  0  0  0
    9.9891   -9.1168    0.0000 O   0  0  0  0  0  0  0  0  0  0  0  0
   10.7034   -9.5296    0.0000 C   0  0  1  0  0  0  0  0  0  0  0  0
   11.4181   -9.1168    0.0000 C   0  0  2  0  0  0  0  0  0  0  0  0
   11.4181   -8.2918    0.0000 C   0  0  1  0  0  0  0  0  0  0  0  0
   10.7034   -7.8790    0.0000 C   0  0  1  0  0  0  0  0  0  0  0  0
   10.7034  -10.3546    0.0000 C   0  0  0  0  0  0  0  0  0  0  0  0
   12.1326   -7.8794    0.0000 O   0  0  0  0  0  0  0  0  0  0  0  0
   12.1326   -9.5293    0.0000 O   0  0  0  0  0  0  0  0  0  0  0  0
   10.7033   -7.0540    0.0000 O   0  0  0  0  0  0  0  0  0  0  0  0
   11.4178  -10.7672    0.0000 O   0  0  0  0  0  0  0  0  0  0  0  0
 19  1  1  6  0  0  0
  2  3  1  0  0  0  0
  3  4  1  0  0  0  0
  4  5  1  0  0  0  0
  5  6  1  0  0  0  0
  6  7  1  0  0  0  0
  7  8  1  0  0  0  0
  8  9  1  0  0  0  0
  9 10  1  0  0  0  0
 10 11  1  0  0  0  0
 11 12  1  0  0  0  0
 12 13  1  0  0  0  0
 13 14  1  0  0  0  0
 14 15  1  0  0  0  0
 15 16  1  0  0  0  0
 16 17  1  0  0  0  0
 17 18  1  0  0  0  0
 13 18  1  0  0  0  0
 18 19  1  0  0  0  0
 10 19  1  0  0  0  0
 19 20  1  0  0  0  0
 20 21  1  0  0  0  0
 21 22  2  0  0  0  0
  9 22  1  0  0  0  0
 22 23  1  0  0  0  0
  6 23  1  0  0  0  0
  2 23  1  0  0  0  0
 24 25  2  0  0  0  0
 24 26  1  0  0  0  0
  6 24  1  1  0  0  0
 18 27  1  1  0  0  0
 14 28  1  6  0  0  0
 14 29  1  1  0  0  0
  9 30  1  6  0  0  0
  3 31  1  6  0  0  0
  2 32  1  1  0  0  0
 16 33  1  6  0  0  0
 15 34  1  6  0  0  0
  2 35  1  6  0  0  0
 13 36  1  6  0  0  0
 23 37  1  1  0  0  0
 10 38  1  1  0  0  0
 29 39  1  0  0  0  0
 40 26  1  1  0  0  0
 40 41  1  0  0  0  0
 41 42  1  0  0  0  0
 42 43  1  0  0  0  0
 43 44  1  0  0  0  0
 44 45  1  0  0  0  0
 45 40  1  0  0  0  0
 42 46  1  1  0  0  0
 44 47  1  1  0  0  0
 43 48  1  6  0  0  0
 45 49  1  6  0  0  0
 46 50  1  0  0  0  0
M  END
>  <cdx:fragmentId>
5

$$$$
