300876.cdx
  Mrv1902 05222410212D          

  5  3  0  0  0  0            999 V2000
    5.1300   -7.3721    0.0000 Ca  0  2  0  0  0  0  0  0  0  0  0  0
    5.2411   -6.5471    0.0000 C   0  0  0  0  0  0  0  0  0  0  0  0
    4.5266   -6.9596    0.0000 O   0  5  0  0  0  0  0  0  0  0  0  0
    5.2411   -5.7221    0.0000 O   0  0  0  0  0  0  0  0  0  0  0  0
    5.9555   -6.9596    0.0000 O   0  5  0  0  0  0  0  0  0  0  0  0
  2  3  1  0  0  0  0
  2  4  2  0  0  0  0
  2  5  1  0  0  0  0
M  CHG  3   1   2   3  -1   5  -1
M  END
>  <cdx:fragmentId>
373

$$$$
