4151.cdx
  Mrv1902 05222410242D          

 35 39  0  0  0  0            999 V2000
    2.9733   -7.5075    0.0000 C   0  0  1  0  0  0  0  0  0  0  0  0
    2.9733   -8.3325    0.0000 C   0  0  2  0  0  0  0  0  0  0  0  0
    3.6877   -8.7450    0.0000 C   0  0  1  0  0  0  0  0  0  0  0  0
    4.4022   -8.3325    0.0000 C   0  0  0  0  0  0  0  0  0  0  0  0
    4.4022   -7.5075    0.0000 C   0  0  2  0  0  0  0  0  0  0  0  0
    3.6877   -7.0950    0.0000 C   0  0  0  0  0  0  0  0  0  0  0  0
    5.1167   -8.7450    0.0000 C   0  0  0  0  0  0  0  0  0  0  0  0
    5.8312   -8.3325    0.0000 C   0  0  0  0  0  0  0  0  0  0  0  0
    5.8312   -7.5075    0.0000 C   0  0  2  0  0  0  0  0  0  0  0  0
    5.1167   -7.0950    0.0000 C   0  0  0  0  0  0  0  0  0  0  0  0
    6.5456   -7.0950    0.0000 C   0  0  1  0  0  0  0  0  0  0  0  0
    6.5456   -6.2700    0.0000 C   0  0  0  0  0  0  0  0  0  0  0  0
    5.8312   -5.8575    0.0000 C   0  0  0  0  0  0  0  0  0  0  0  0
    5.1167   -6.2700    0.0000 C   0  0  0  0  0  0  0  0  0  0  0  0
    7.2601   -7.5075    0.0000 C   0  0  0  0  0  0  0  0  0  0  0  0
    7.9746   -7.0950    0.0000 C   0  0  0  0  0  0  0  0  0  0  0  0
    7.9746   -6.2700    0.0000 C   0  0  2  0  0  0  0  0  0  0  0  0
    7.2601   -5.8575    0.0000 C   0  0  0  0  0  0  0  0  0  0  0  0
    8.6890   -5.8575    0.0000 C   0  0  0  0  0  0  0  0  0  0  0  0
    8.6890   -5.0325    0.0000 C   0  0  0  0  0  0  0  0  0  0  0  0
    7.9746   -4.6200    0.0000 C   0  0  2  0  0  0  0  0  0  0  0  0
    7.2601   -5.0325    0.0000 C   0  0  2  0  0  0  0  0  0  0  0  0
    8.6890   -6.6825    0.0000 C   0  0  0  0  0  0  0  0  0  0  0  0
    9.4035   -6.2700    0.0000 H   0  0  0  0  0  0  0  0  0  0  0  0
    8.6890   -7.5075    0.0000 O   0  0  0  0  0  0  0  0  0  0  0  0
    4.1002   -9.4595    0.0000 C   0  0  0  0  0  0  0  0  0  0  0  0
    4.4022   -6.6825    0.0000 C   0  0  0  0  0  0  0  0  0  0  0  0
    5.8312   -6.6825    0.0000 C   0  0  0  0  0  0  0  0  0  0  0  0
    6.4351   -5.0325    0.0000 C   0  0  0  0  0  0  0  0  0  0  0  0
    3.2752   -9.4595    0.0000 C   0  0  0  0  0  0  0  0  0  0  0  0
    6.5456   -7.9200    0.0000 C   0  0  0  0  0  0  0  0  0  0  0  0
    2.2588   -7.0950    0.0000 O   0  0  0  0  0  0  0  0  0  0  0  0
    2.2588   -8.7450    0.0000 O   0  0  0  0  0  0  0  0  0  0  0  0
    6.8476   -4.3180    0.0000 O   0  0  0  0  0  0  0  0  0  0  0  0
    7.9746   -3.7950    0.0000 C   0  0  0  0  0  0  0  0  0  0  0  0
  1  2  1  0  0  0  0
  2  3  1  0  0  0  0
  3  4  1  0  0  0  0
  4  5  1  0  0  0  0
  5  6  1  0  0  0  0
  6  1  1  0  0  0  0
  4  7  1  0  0  0  0
  7  8  1  0  0  0  0
  8  9  1  0  0  0  0
  9 10  1  0  0  0  0
 10  5  1  0  0  0  0
  9 11  1  0  0  0  0
 11 12  1  0  0  0  0
 12 13  2  0  0  0  0
 13 14  1  0  0  0  0
 14 10  1  0  0  0  0
 11 15  1  0  0  0  0
 15 16  1  0  0  0  0
 16 17  1  0  0  0  0
 17 18  1  0  0  0  0
 18 12  1  0  0  0  0
 17 19  1  0  0  0  0
 19 20  1  0  0  0  0
 20 21  1  0  0  0  0
 21 22  1  0  0  0  0
 22 18  1  0  0  0  0
 17 23  1  1  0  0  0
 23 24  1  0  0  0  0
 23 25  2  0  0  0  0
  3 26  1  1  0  0  0
  5 27  1  1  0  0  0
  9 28  1  1  0  0  0
 22 29  1  1  0  0  0
  3 30  1  6  0  0  0
 11 31  1  6  0  0  0
  1 32  1  6  0  0  0
  2 33  1  6  0  0  0
 22 34  1  6  0  0  0
 21 35  1  6  0  0  0
M  END
>  <cdx:fragmentId>
5

$$$$
