4154.cdx
  Mrv1902 05222410252D          

 38 42  0  0  0  0            999 V2000
    4.7143   -9.4462    0.0000 C   0  0  1  0  0  0  0  0  0  0  0  0
    4.7143  -10.2713    0.0000 C   0  0  2  0  0  0  0  0  0  0  0  0
    5.4288  -10.6837    0.0000 C   0  0  2  0  0  0  0  0  0  0  0  0
    6.1432  -10.2713    0.0000 C   0  0  1  0  0  0  0  0  0  0  0  0
    6.1432   -9.4462    0.0000 C   0  0  2  0  0  0  0  0  0  0  0  0
    5.4288   -9.0337    0.0000 C   0  0  0  0  0  0  0  0  0  0  0  0
    6.8577  -10.6837    0.0000 C   0  0  0  0  0  0  0  0  0  0  0  0
    7.5722  -10.2713    0.0000 C   0  0  0  0  0  0  0  0  0  0  0  0
    7.5722   -9.4462    0.0000 C   0  0  2  0  0  0  0  0  0  0  0  0
    6.8577   -9.0337    0.0000 C   0  0  2  0  0  0  0  0  0  0  0  0
    8.2867   -9.0337    0.0000 C   0  0  1  0  0  0  0  0  0  0  0  0
    8.2867   -8.2088    0.0000 C   0  0  0  0  0  0  0  0  0  0  0  0
    7.5722   -7.7963    0.0000 C   0  0  0  0  0  0  0  0  0  0  0  0
    6.8577   -8.2088    0.0000 C   0  0  0  0  0  0  0  0  0  0  0  0
    9.0011   -9.4462    0.0000 C   0  0  0  0  0  0  0  0  0  0  0  0
    9.7156   -9.0337    0.0000 C   0  0  0  0  0  0  0  0  0  0  0  0
    9.7156   -8.2088    0.0000 C   0  0  2  0  0  0  0  0  0  0  0  0
    9.0011   -7.7963    0.0000 C   0  0  1  0  0  0  0  0  0  0  0  0
   10.4301   -7.7963    0.0000 C   0  0  0  0  0  0  0  0  0  0  0  0
   10.4301   -6.9712    0.0000 C   0  0  0  0  0  0  0  0  0  0  0  0
    9.7156   -6.5587    0.0000 C   0  0  2  0  0  0  0  0  0  0  0  0
    9.0011   -6.9712    0.0000 C   0  0  2  0  0  0  0  0  0  0  0  0
    3.9998   -9.0337    0.0000 O   0  0  0  0  0  0  0  0  0  0  0  0
    5.8413  -11.3982    0.0000 C   0  0  0  0  0  0  0  0  0  0  0  0
    8.2867   -9.8588    0.0000 C   0  0  0  0  0  0  0  0  0  0  0  0
    9.7156   -5.7338    0.0000 C   0  0  0  0  0  0  0  0  0  0  0  0
    3.9998  -10.6837    0.0000 O   0  0  0  0  0  0  0  0  0  0  0  0
    5.0163  -11.3982    0.0000 C   0  0  0  0  0  0  0  0  0  0  0  0
    6.1432   -8.6212    0.0000 C   0  0  0  0  0  0  0  0  0  0  0  0
    7.5722   -8.6212    0.0000 C   0  0  0  0  0  0  0  0  0  0  0  0
    8.2867   -6.5587    0.0000 C   0  0  0  0  0  0  0  0  0  0  0  0
   11.1445   -8.2088    0.0000 O   0  0  0  0  0  0  0  0  0  0  0  0
   10.4301   -9.4462    0.0000 O   0  0  0  0  0  0  0  0  0  0  0  0
   10.4301   -8.6212    0.0000 C   0  0  0  0  0  0  0  0  0  0  0  0
    9.0011   -8.6212    0.0000 H   0  0  0  0  0  0  0  0  0  0  0  0
    6.8577   -9.8588    0.0000 H   0  0  0  0  0  0  0  0  0  0  0  0
    6.1432  -11.0962    0.0000 H   0  0  0  0  0  0  0  0  0  0  0  0
    5.4288  -12.1127    0.0000 O   0  0  0  0  0  0  0  0  0  0  0  0
  1  2  1  0  0  0  0
  2  3  1  0  0  0  0
  3  4  1  0  0  0  0
  4  5  1  0  0  0  0
  5  6  1  0  0  0  0
  6  1  1  0  0  0  0
  4  7  1  0  0  0  0
  7  8  1  0  0  0  0
  8  9  1  0  0  0  0
  9 10  1  0  0  0  0
 10  5  1  0  0  0  0
  9 11  1  0  0  0  0
 11 12  1  0  0  0  0
 12 13  2  0  0  0  0
 13 14  1  0  0  0  0
 14 10  1  0  0  0  0
 11 15  1  0  0  0  0
 15 16  1  0  0  0  0
 16 17  1  0  0  0  0
 17 18  1  0  0  0  0
 18 12  1  0  0  0  0
 17 19  1  0  0  0  0
 19 20  1  0  0  0  0
 20 21  1  0  0  0  0
 21 22  1  0  0  0  0
 22 18  1  0  0  0  0
  1 23  1  6  0  0  0
  3 24  1  6  0  0  0
 11 25  1  6  0  0  0
 21 26  1  6  0  0  0
  2 27  1  6  0  0  0
  3 28  1  1  0  0  0
  5 29  1  1  0  0  0
  9 30  1  1  0  0  0
 22 31  1  1  0  0  0
 17 34  1  1  0  0  0
 34 32  1  0  0  0  0
 34 33  2  0  0  0  0
 18 35  1  1  0  0  0
 10 36  1  6  0  0  0
  4 37  1  6  0  0  0
 24 38  1  0  0  0  0
M  END
>  <cdx:fragmentId>
144

$$$$
