44415652.cdx
  Mrv1902 05222410182D          

 69 72  0  0  0  0            999 V2000
   56.6851  -14.4506    0.0000 N   0  0  0  0  0  0  0  0  0  0  0  0
   55.9706  -14.0381    0.0000 C   0  0  0  0  0  0  0  0  0  0  0  0
   55.9706  -13.2131    0.0000 C   0  0  1  0  0  0  0  0  0  0  0  0
   55.2562  -12.8006    0.0000 N   0  0  0  0  0  0  0  0  0  0  0  0
   55.2562  -11.9756    0.0000 C   0  0  0  0  0  0  0  0  0  0  0  0
   54.5417  -11.5631    0.0000 C   0  0  1  0  0  0  0  0  0  0  0  0
   53.8272  -11.9756    0.0000 N   0  0  0  0  0  0  0  0  0  0  0  0
   53.1128  -11.5631    0.0000 C   0  0  0  0  0  0  0  0  0  0  0  0
   52.3983  -11.9756    0.0000 C   0  0  1  0  0  0  0  0  0  0  0  0
   52.3983  -12.8006    0.0000 N   0  0  0  0  0  0  0  0  0  0  0  0
   51.6838  -13.2131    0.0000 C   0  0  0  0  0  0  0  0  0  0  0  0
   51.6838  -14.0381    0.0000 C   0  0  1  0  0  0  0  0  0  0  0  0
   52.3983  -14.4506    0.0000 N   0  0  0  0  0  0  0  0  0  0  0  0
   52.3983  -15.2756    0.0000 C   0  0  0  0  0  0  0  0  0  0  0  0
   51.6901  -15.6772    0.0000 C   0  0  1  0  0  0  0  0  0  0  0  0
   51.6901  -16.5022    0.0000 N   0  0  0  0  0  0  0  0  0  0  0  0
   52.4046  -16.9147    0.0000 C   0  0  0  0  0  0  0  0  0  0  0  0
   52.4046  -17.7397    0.0000 C   0  0  1  0  0  0  0  0  0  0  0  0
   53.1191  -18.1522    0.0000 N   0  0  0  0  0  0  0  0  0  0  0  0
   53.8335  -17.7397    0.0000 C   0  0  0  0  0  0  0  0  0  0  0  0
   54.5480  -18.1522    0.0000 C   0  0  1  0  0  0  0  0  0  0  0  0
   55.2625  -17.7397    0.0000 N   0  0  0  0  0  0  0  0  0  0  0  0
   56.0773  -17.8688    0.0000 C   0  0  0  0  0  0  0  0  0  0  0  0
   56.4898  -17.1543    0.0000 C   0  0  1  0  0  0  0  0  0  0  0  0
   55.9706  -16.5131    0.0000 N   0  0  0  0  0  0  0  0  0  0  0  0
   55.9706  -15.6881    0.0000 C   0  0  0  0  0  0  0  0  0  0  0  0
   56.6851  -15.2756    0.0000 C   0  0  2  0  0  0  0  0  0  0  0  0
   57.4697  -15.5306    0.0000 C   0  0  0  0  0  0  0  0  0  0  0  0
   57.9547  -14.8631    0.0000 C   0  0  0  0  0  0  0  0  0  0  0  0
   57.4697  -14.1957    0.0000 C   0  0  0  0  0  0  0  0  0  0  0  0
   55.2562  -14.4506    0.0000 O   0  0  0  0  0  0  0  0  0  0  0  0
   55.9706  -11.5631    0.0000 O   0  0  0  0  0  0  0  0  0  0  0  0
   53.1128  -10.7381    0.0000 O   0  0  0  0  0  0  0  0  0  0  0  0
   50.9693  -12.8006    0.0000 O   0  0  0  0  0  0  0  0  0  0  0  0
   53.1128  -15.6881    0.0000 O   0  0  0  0  0  0  0  0  0  0  0  0
   53.1191  -16.5022    0.0000 O   0  0  0  0  0  0  0  0  0  0  0  0
   53.8335  -16.9147    0.0000 O   0  0  0  0  0  0  0  0  0  0  0  0
   56.4898  -18.5832    0.0000 O   0  0  0  0  0  0  0  0  0  0  0  0
   55.2562  -15.2756    0.0000 O   0  0  0  0  0  0  0  0  0  0  0  0
   51.6901  -18.1522    0.0000 C   0  0  0  0  0  0  0  0  0  0  0  0
   50.9693  -14.4506    0.0000 C   0  0  0  0  0  0  0  0  0  0  0  0
   50.2549  -14.0381    0.0000 C   0  0  0  0  0  0  0  0  0  0  0  0
   49.5404  -14.4506    0.0000 C   0  0  0  0  0  0  0  0  0  0  0  0
   48.8259  -14.0381    0.0000 C   0  0  0  0  0  0  0  0  0  0  0  0
   48.8259  -13.2131    0.0000 C   0  0  0  0  0  0  0  0  0  0  0  0
   49.5404  -12.8006    0.0000 C   0  0  0  0  0  0  0  0  0  0  0  0
   50.2549  -13.2131    0.0000 C   0  0  0  0  0  0  0  0  0  0  0  0
   48.1115  -12.8006    0.0000 O   0  0  0  0  0  0  0  0  0  0  0  0
   54.5480  -18.9772    0.0000 C   0  0  0  0  0  0  0  0  0  0  0  0
   55.2625  -19.3897    0.0000 O   0  0  0  0  0  0  0  0  0  0  0  0
   50.9757  -15.2647    0.0000 C   0  0  0  0  0  0  0  0  0  0  0  0
   50.2612  -15.6772    0.0000 O   0  0  0  0  0  0  0  0  0  0  0  0
   51.6838  -11.5631    0.0000 C   0  0  0  0  0  0  0  0  0  0  0  0
   50.9693  -11.9756    0.0000 O   0  0  0  0  0  0  0  0  0  0  0  0
   54.5417  -10.7381    0.0000 C   0  0  0  0  0  0  0  0  0  0  0  0
   55.2562  -10.3256    0.0000 O   0  0  0  0  0  0  0  0  0  0  0  0
   57.3148  -17.1543    0.0000 C   0  0  0  0  0  0  0  0  0  0  0  0
   57.7273  -17.8688    0.0000 C   0  0  0  0  0  0  0  0  0  0  0  0
   58.5523  -17.8688    0.0000 C   0  0  0  0  0  0  0  0  0  0  0  0
   58.9648  -18.5832    0.0000 C   0  0  0  0  0  0  0  0  0  0  0  0
   58.5523  -19.2977    0.0000 C   0  0  0  0  0  0  0  0  0  0  0  0
   57.7273  -19.2977    0.0000 C   0  0  0  0  0  0  0  0  0  0  0  0
   57.3148  -18.5832    0.0000 C   0  0  0  0  0  0  0  0  0  0  0  0
   56.6851  -12.8006    0.0000 C   0  0  0  0  0  0  0  0  0  0  0  0
   57.3996  -13.2131    0.0000 C   0  0  0  0  0  0  0  0  0  0  0  0
   58.1140  -12.8006    0.0000 C   0  0  0  0  0  0  0  0  0  0  0  0
   58.8285  -13.2131    0.0000 C   0  0  0  0  0  0  0  0  0  0  0  0
   59.5430  -12.8006    0.0000 N   0  0  0  0  0  0  0  0  0  0  0  0
   56.7713  -16.0961    0.0000 H   0  0  0  0  0  0  0  0  0  0  0  0
  1  2  1  0  0  0  0
  2  3  1  0  0  0  0
  3  4  1  0  0  0  0
  4  5  1  0  0  0  0
  5  6  1  0  0  0  0
  6  7  1  0  0  0  0
  7  8  1  0  0  0  0
  8  9  1  0  0  0  0
  9 10  1  0  0  0  0
 10 11  1  0  0  0  0
 11 12  1  0  0  0  0
 12 13  1  0  0  0  0
 13 14  1  0  0  0  0
 14 15  1  0  0  0  0
 15 16  1  0  0  0  0
 16 17  1  0  0  0  0
 17 18  1  0  0  0  0
 18 19  1  0  0  0  0
 19 20  1  0  0  0  0
 20 21  1  0  0  0  0
 21 22  1  0  0  0  0
 22 23  1  0  0  0  0
 23 24  1  0  0  0  0
 24 25  1  0  0  0  0
 25 26  1  0  0  0  0
 26 27  1  0  0  0  0
 27 28  1  0  0  0  0
 28 29  1  0  0  0  0
 29 30  1  0  0  0  0
  1 30  1  0  0  0  0
  1 27  1  0  0  0  0
  2 31  2  0  0  0  0
  5 32  2  0  0  0  0
  8 33  2  0  0  0  0
 11 34  2  0  0  0  0
 14 35  2  0  0  0  0
 17 36  2  0  0  0  0
 20 37  2  0  0  0  0
 23 38  2  0  0  0  0
 26 39  2  0  0  0  0
 18 40  1  1  0  0  0
 42 43  1  0  0  0  0
 43 44  2  0  0  0  0
 44 45  1  0  0  0  0
 45 46  2  0  0  0  0
 46 47  1  0  0  0  0
 42 47  2  0  0  0  0
 45 48  1  0  0  0  0
 41 42  1  0  0  0  0
 12 41  1  1  0  0  0
 49 50  1  0  0  0  0
 21 49  1  1  0  0  0
 51 52  1  0  0  0  0
 15 51  1  1  0  0  0
 53 54  1  0  0  0  0
  9 53  1  1  0  0  0
 55 56  1  0  0  0  0
  6 55  1  1  0  0  0
 57 58  1  0  0  0  0
 58 59  1  0  0  0  0
 59 60  2  0  0  0  0
 60 61  1  0  0  0  0
 61 62  2  0  0  0  0
 62 63  1  0  0  0  0
 58 63  2  0  0  0  0
 24 57  1  1  0  0  0
 64 65  1  0  0  0  0
 65 66  1  0  0  0  0
 66 67  1  0  0  0  0
 67 68  1  0  0  0  0
  3 64  1  1  0  0  0
 27 69  1  6  0  0  0
M  END
>  <cdx:groupId>
160624

>  <cdx:fragmentId>
160417

$$$$
