4159.cdx
  Mrv1902 05222410212D          

 38 42  0  0  0  0            999 V2000
    4.4308   -8.6762    0.0000 C   0  0  1  0  0  0  0  0  0  0  0  0
    4.4308   -9.5013    0.0000 C   0  0  2  0  0  0  0  0  0  0  0  0
    5.1452   -9.9138    0.0000 C   0  0  1  0  0  0  0  0  0  0  0  0
    5.8597   -9.5013    0.0000 C   0  0  1  0  0  0  0  0  0  0  0  0
    5.8597   -8.6762    0.0000 C   0  0  2  0  0  0  0  0  0  0  0  0
    5.1452   -8.2637    0.0000 C   0  0  0  0  0  0  0  0  0  0  0  0
    6.5742   -9.9138    0.0000 C   0  0  0  0  0  0  0  0  0  0  0  0
    7.2887   -9.5013    0.0000 C   0  0  0  0  0  0  0  0  0  0  0  0
    7.2887   -8.6762    0.0000 C   0  0  2  0  0  0  0  0  0  0  0  0
    6.5742   -8.2637    0.0000 C   0  0  2  0  0  0  0  0  0  0  0  0
    8.0031   -8.2637    0.0000 C   0  0  1  0  0  0  0  0  0  0  0  0
    8.0031   -7.4387    0.0000 C   0  0  0  0  0  0  0  0  0  0  0  0
    7.2887   -7.0263    0.0000 C   0  0  0  0  0  0  0  0  0  0  0  0
    6.5742   -7.4387    0.0000 C   0  0  0  0  0  0  0  0  0  0  0  0
    8.7176   -8.6762    0.0000 C   0  0  0  0  0  0  0  0  0  0  0  0
    9.4321   -8.2637    0.0000 C   0  0  0  0  0  0  0  0  0  0  0  0
    9.4321   -7.4387    0.0000 C   0  0  2  0  0  0  0  0  0  0  0  0
    8.7176   -7.0263    0.0000 C   0  0  1  0  0  0  0  0  0  0  0  0
   10.1465   -7.0263    0.0000 C   0  0  0  0  0  0  0  0  0  0  0  0
   10.1465   -6.2012    0.0000 C   0  0  0  0  0  0  0  0  0  0  0  0
    9.4321   -5.7888    0.0000 C   0  0  0  0  0  0  0  0  0  0  0  0
    8.7176   -6.2012    0.0000 C   0  0  2  0  0  0  0  0  0  0  0  0
   10.1465   -7.8513    0.0000 C   0  0  0  0  0  0  0  0  0  0  0  0
   10.1465   -8.6762    0.0000 O   0  0  0  0  0  0  0  0  0  0  0  0
   10.8610   -7.4387    0.0000 O   0  0  0  0  0  0  0  0  0  0  0  0
    4.7327  -10.6282    0.0000 C   0  0  0  0  0  0  0  0  0  0  0  0
    5.8597   -7.8513    0.0000 C   0  0  0  0  0  0  0  0  0  0  0  0
    7.2887   -7.8513    0.0000 C   0  0  0  0  0  0  0  0  0  0  0  0
    5.5577  -10.6282    0.0000 C   0  0  0  0  0  0  0  0  0  0  0  0
    3.7163   -8.2637    0.0000 O   0  0  0  0  0  0  0  0  0  0  0  0
    3.7163   -9.9138    0.0000 O   0  0  0  0  0  0  0  0  0  0  0  0
    8.0031   -5.7888    0.0000 C   0  0  0  0  0  0  0  0  0  0  0  0
    8.0031   -9.0887    0.0000 C   0  0  0  0  0  0  0  0  0  0  0  0
    9.4321   -4.9637    0.0000 C   0  0  0  0  0  0  0  0  0  0  0  0
    5.1452  -11.3427    0.0000 O   0  0  0  0  0  0  0  0  0  0  0  0
    6.5742   -9.0887    0.0000 H   0  0  0  0  0  0  0  0  0  0  0  0
    5.8597  -10.3262    0.0000 H   0  0  0  0  0  0  0  0  0  0  0  0
    8.7176   -7.8513    0.0000 H   0  0  0  0  0  0  0  0  0  0  0  0
  1  2  1  0  0  0  0
  2  3  1  0  0  0  0
  3  4  1  0  0  0  0
  4  5  1  0  0  0  0
  5  6  1  0  0  0  0
  6  1  1  0  0  0  0
  4  7  1  0  0  0  0
  7  8  1  0  0  0  0
  8  9  1  0  0  0  0
  9 10  1  0  0  0  0
 10  5  1  0  0  0  0
  9 11  1  0  0  0  0
 11 12  1  0  0  0  0
 12 13  2  0  0  0  0
 13 14  1  0  0  0  0
 14 10  1  0  0  0  0
 11 15  1  0  0  0  0
 15 16  1  0  0  0  0
 16 17  1  0  0  0  0
 17 18  1  0  0  0  0
 18 12  1  0  0  0  0
 17 19  1  0  0  0  0
 19 20  1  0  0  0  0
 20 21  1  0  0  0  0
 21 22  1  0  0  0  0
 22 18  1  0  0  0  0
 17 23  1  1  0  0  0
 23 24  2  0  0  0  0
 23 25  1  0  0  0  0
  3 26  1  1  0  0  0
  5 27  1  1  0  0  0
  9 28  1  1  0  0  0
  3 29  1  6  0  0  0
  1 30  1  6  0  0  0
  2 31  1  6  0  0  0
 22 32  1  1  0  0  0
 11 33  1  6  0  0  0
 21 34  2  0  0  0  0
 26 35  1  0  0  0  0
 10 36  1  6  0  0  0
  4 37  1  6  0  0  0
 18 38  1  1  0  0  0
M  END
>  <cdx:fragmentId>
5

$$$$
