301452.cdx
  Mrv1902 05222410222D          

 21 12  0  0  0  0            999 V2000
    7.3853   -2.4354    0.0000 Ca  0  2  0  0  0  0  0  0  0  0  0  0
    8.1009   -4.6354    0.0000 Ca  0  2  0  0  0  0  0  0  0  0  0  0
    4.8844   -4.0854    0.0000 Ca  0  2  0  0  0  0  0  0  0  0  0  0
    7.1103   -6.4229    0.0000 Ca  0  2  0  0  0  0  0  0  0  0  0  0
    4.8559   -7.7429    0.0000 Ca  0  2  0  0  0  0  0  0  0  0  0  0
    8.1548   -2.4629    0.0000 O   0  5  0  0  0  0  0  0  0  0  0  0
    5.6539   -3.1504    0.0000 P   0  0  0  0  0  0  0  0  0  0  0  0
    5.6539   -2.3254    0.0000 O   0  0  0  0  0  0  0  0  0  0  0  0
    5.6539   -3.9754    0.0000 O   0  5  0  0  0  0  0  0  0  0  0  0
    6.4789   -3.1504    0.0000 O   0  5  0  0  0  0  0  0  0  0  0  0
    4.8289   -3.1504    0.0000 O   0  5  0  0  0  0  0  0  0  0  0  0
    5.6539   -6.8904    0.0000 P   0  0  0  0  0  0  0  0  0  0  0  0
    5.6539   -6.0654    0.0000 O   0  0  0  0  0  0  0  0  0  0  0  0
    5.6539   -7.7154    0.0000 O   0  5  0  0  0  0  0  0  0  0  0  0
    6.4789   -6.8904    0.0000 O   0  5  0  0  0  0  0  0  0  0  0  0
    4.8289   -6.8904    0.0000 O   0  5  0  0  0  0  0  0  0  0  0  0
    8.7733   -4.9179    0.0000 O   0  5  0  0  0  0  0  0  0  0  0  0
    8.0334   -6.3926    0.0000 O   0  5  0  0  0  0  0  0  0  0  0  0
    8.4034   -5.6552    0.0000 P   0  0  0  0  0  0  0  0  0  0  0  0
    9.1407   -6.0252    0.0000 O   0  0  0  0  0  0  0  0  0  0  0  0
    7.6660   -5.2853    0.0000 O   0  5  0  0  0  0  0  0  0  0  0  0
  7  8  2  0  0  0  0
  7  9  1  0  0  0  0
  7 10  1  0  0  0  0
  7 11  1  0  0  0  0
 12 13  2  0  0  0  0
 12 14  1  0  0  0  0
 12 15  1  0  0  0  0
 12 16  1  0  0  0  0
 18 19  1  0  0  0  0
 17 19  1  0  0  0  0
 19 20  2  0  0  0  0
 19 21  1  0  0  0  0
M  CHG  8   1   2   2   2   3   2   4   2   5   2   6  -1   9  -1  10  -1
M  CHG  7  11  -1  14  -1  15  -1  16  -1  17  -1  18  -1  21  -1
M  END
>  <cdx:groupId>
360

>  <cdx:fragmentId>
221

$$$$
