101416539.cdx
  Mrv1902 05222410222D          

 41 44  0  0  0  0            999 V2000
    2.1070  -15.3120    0.0000 C   0  0  2  0  0  0  0  0  0  0  0  0
    2.1070  -16.1370    0.0000 C   0  0  2  0  0  0  0  0  0  0  0  0
    2.8215  -16.5495    0.0000 C   0  0  1  0  0  0  0  0  0  0  0  0
    3.5360  -16.1370    0.0000 C   0  0  2  0  0  0  0  0  0  0  0  0
    3.5360  -15.3120    0.0000 C   0  0  1  0  0  0  0  0  0  0  0  0
    2.8215  -14.8995    0.0000 O   0  0  0  0  0  0  0  0  0  0  0  0
    1.3926  -14.8995    0.0000 C   0  0  0  0  0  0  0  0  0  0  0  0
    1.3926  -14.0745    0.0000 O   0  0  0  0  0  0  0  0  0  0  0  0
    1.3926  -16.5495    0.0000 O   0  0  0  0  0  0  0  0  0  0  0  0
    2.8215  -17.3745    0.0000 O   0  0  0  0  0  0  0  0  0  0  0  0
    4.2504  -16.5495    0.0000 O   0  0  0  0  0  0  0  0  0  0  0  0
    4.2504  -14.8995    0.0000 O   0  0  0  0  0  0  0  0  0  0  0  0
    4.2504  -14.0745    0.0000 C   0  0  0  0  0  0  0  0  0  0  0  0
    4.9649  -13.6620    0.0000 C   0  0  1  0  0  0  0  0  0  0  0  0
    4.9649  -12.8370    0.0000 C   0  0  1  0  0  0  0  0  0  0  0  0
    4.2504  -12.4245    0.0000 C   0  0  0  0  0  0  0  0  0  0  0  0
    3.5360  -12.8370    0.0000 C   0  0  0  0  0  0  0  0  0  0  0  0
    3.5360  -13.6620    0.0000 O   0  0  0  0  0  0  0  0  0  0  0  0
    5.7495  -13.9169    0.0000 C   0  0  1  0  0  0  0  0  0  0  0  0
    6.2345  -13.2495    0.0000 C   0  0  0  0  0  0  0  0  0  0  0  0
    5.7495  -12.5821    0.0000 C   0  0  1  0  0  0  0  0  0  0  0  0
    5.0511  -12.0165    0.0000 O   0  0  0  0  0  0  0  0  0  0  0  0
    5.0511  -14.4825    0.0000 H   0  0  0  0  0  0  0  0  0  0  0  0
    6.0045  -11.7974    0.0000 O   0  0  0  0  0  0  0  0  0  0  0  0
    5.7495  -14.7419    0.0000 C   0  0  0  0  0  0  0  0  0  0  0  0
    6.4640  -14.3294    0.0000 O   0  0  0  0  0  0  0  0  0  0  0  0
    7.1785  -13.9169    0.0000 C   0  0  0  0  0  0  0  0  0  0  0  0
    7.8929  -14.3294    0.0000 C   0  0  0  0  0  0  0  0  0  0  0  0
    7.1785  -13.0919    0.0000 O   0  0  0  0  0  0  0  0  0  0  0  0
    8.6074  -13.9169    0.0000 C   0  0  0  0  0  0  0  0  0  0  0  0
    8.6074  -13.0919    0.0000 H   0  0  0  0  0  0  0  0  0  0  0  0
    7.8929  -15.1544    0.0000 H   0  0  0  0  0  0  0  0  0  0  0  0
    9.3219  -14.3294    0.0000 C   0  0  0  0  0  0  0  0  0  0  0  0
    9.3219  -15.1544    0.0000 C   0  0  0  0  0  0  0  0  0  0  0  0
   10.0364  -15.5669    0.0000 C   0  0  0  0  0  0  0  0  0  0  0  0
   10.7508  -15.1544    0.0000 C   0  0  0  0  0  0  0  0  0  0  0  0
   10.7508  -14.3294    0.0000 C   0  0  0  0  0  0  0  0  0  0  0  0
   10.0364  -13.9169    0.0000 C   0  0  0  0  0  0  0  0  0  0  0  0
   11.4653  -15.5669    0.0000 O   0  0  0  0  0  0  0  0  0  0  0  0
   10.0364  -16.3919    0.0000 O   0  0  0  0  0  0  0  0  0  0  0  0
    9.3219  -16.8044    0.0000 C   0  0  0  0  0  0  0  0  0  0  0  0
  1  2  1  0  0  0  0
  2  3  1  0  0  0  0
  3  4  1  0  0  0  0
  4  5  1  0  0  0  0
  5  6  1  0  0  0  0
  6  1  1  0  0  0  0
  1  7  1  1  0  0  0
  7  8  1  0  0  0  0
  2  9  1  6  0  0  0
  3 10  1  1  0  0  0
  4 11  1  6  0  0  0
  5 12  1  1  0  0  0
 12 13  1  0  0  0  0
 13 14  1  0  0  0  0
 14 15  1  0  0  0  0
 15 16  1  0  0  0  0
 16 17  2  0  0  0  0
 17 18  1  0  0  0  0
 18 13  1  0  0  0  0
 14 19  1  0  0  0  0
 19 20  1  0  0  0  0
 20 21  1  0  0  0  0
 21 15  1  0  0  0  0
 15 22  1  6  0  0  0
 14 23  1  6  0  0  0
 21 24  1  6  0  0  0
 19 25  1  0  0  0  0
 19 26  1  6  0  0  0
 26 27  1  0  0  0  0
 27 28  1  0  0  0  0
 27 29  2  0  0  0  0
 28 30  2  0  0  0  0
 30 31  1  0  0  0  0
 28 32  1  0  0  0  0
 30 33  1  0  0  0  0
 33 34  2  0  0  0  0
 34 35  1  0  0  0  0
 35 36  2  0  0  0  0
 36 37  1  0  0  0  0
 37 38  2  0  0  0  0
 38 33  1  0  0  0  0
 36 39  1  0  0  0  0
 35 40  1  0  0  0  0
 40 41  1  0  0  0  0
M  END
>  <cdx:fragmentId>
50948

$$$$
