4165.cdx
  Mrv1902 05222410212D          

 37 41  0  0  0  0            999 V2000
    4.4445   -8.0231    0.0000 C   0  0  1  0  0  0  0  0  0  0  0  0
    4.4445   -8.8481    0.0000 C   0  0  2  0  0  0  0  0  0  0  0  0
    5.1590   -9.2606    0.0000 C   0  0  0  0  0  0  0  0  0  0  0  0
    5.8735   -8.8481    0.0000 C   0  0  1  0  0  0  0  0  0  0  0  0
    5.8735   -8.0231    0.0000 C   0  0  2  0  0  0  0  0  0  0  0  0
    5.1590   -7.6106    0.0000 C   0  0  0  0  0  0  0  0  0  0  0  0
    6.5879   -9.2606    0.0000 C   0  0  0  0  0  0  0  0  0  0  0  0
    7.3024   -8.8481    0.0000 C   0  0  0  0  0  0  0  0  0  0  0  0
    7.3024   -8.0231    0.0000 C   0  0  2  0  0  0  0  0  0  0  0  0
    6.5879   -7.6106    0.0000 C   0  0  2  0  0  0  0  0  0  0  0  0
    8.0169   -7.6106    0.0000 C   0  0  1  0  0  0  0  0  0  0  0  0
    8.0169   -6.7856    0.0000 C   0  0  0  0  0  0  0  0  0  0  0  0
    7.3024   -6.3731    0.0000 C   0  0  0  0  0  0  0  0  0  0  0  0
    6.5879   -6.7856    0.0000 C   0  0  0  0  0  0  0  0  0  0  0  0
    8.7314   -8.0231    0.0000 C   0  0  0  0  0  0  0  0  0  0  0  0
    9.4458   -7.6106    0.0000 C   0  0  0  0  0  0  0  0  0  0  0  0
    9.4458   -6.7856    0.0000 C   0  0  2  0  0  0  0  0  0  0  0  0
    8.7314   -6.3731    0.0000 C   0  0  1  0  0  0  0  0  0  0  0  0
   10.1603   -6.3731    0.0000 C   0  0  0  0  0  0  0  0  0  0  0  0
   10.1603   -5.5481    0.0000 C   0  0  0  0  0  0  0  0  0  0  0  0
    9.4458   -5.1356    0.0000 C   0  0  2  0  0  0  0  0  0  0  0  0
    8.7314   -5.5481    0.0000 C   0  0  2  0  0  0  0  0  0  0  0  0
    4.7465   -9.9751    0.0000 C   0  0  0  0  0  0  0  0  0  0  0  0
    5.5715   -9.9751    0.0000 C   0  0  0  0  0  0  0  0  0  0  0  0
    3.7301   -7.6106    0.0000 O   0  0  0  0  0  0  0  0  0  0  0  0
    3.7301   -9.2606    0.0000 O   0  0  0  0  0  0  0  0  0  0  0  0
    5.8735   -9.6731    0.0000 H   0  0  0  0  0  0  0  0  0  0  0  0
    8.0169   -8.4356    0.0000 C   0  0  0  0  0  0  0  0  0  0  0  0
    5.8735   -7.1981    0.0000 C   0  0  0  0  0  0  0  0  0  0  0  0
    8.0169   -5.9606    0.0000 H   0  0  0  0  0  0  0  0  0  0  0  0
   10.8748   -6.7856    0.0000 O   0  0  0  0  0  0  0  0  0  0  0  0
   10.1603   -8.0231    0.0000 O   0  0  0  0  0  0  0  0  0  0  0  0
   10.1603   -7.1981    0.0000 C   0  0  0  0  0  0  0  0  0  0  0  0
    8.0169   -5.1356    0.0000 C   0  0  0  0  0  0  0  0  0  0  0  0
    9.4458   -4.3106    0.0000 C   0  0  0  0  0  0  0  0  0  0  0  0
    7.3024   -7.1981    0.0000 C   0  0  0  0  0  0  0  0  0  0  0  0
    6.5879   -8.4356    0.0000 H   0  0  0  0  0  0  0  0  0  0  0  0
  1  2  1  0  0  0  0
  2  3  1  0  0  0  0
  3  4  1  0  0  0  0
  4  5  1  0  0  0  0
  5  6  1  0  0  0  0
  6  1  1  0  0  0  0
  4  7  1  0  0  0  0
  7  8  1  0  0  0  0
  8  9  1  0  0  0  0
  9 10  1  0  0  0  0
 10  5  1  0  0  0  0
  9 11  1  0  0  0  0
 11 12  1  0  0  0  0
 12 13  2  0  0  0  0
 13 14  1  0  0  0  0
 14 10  1  0  0  0  0
 11 15  1  0  0  0  0
 15 16  1  0  0  0  0
 16 17  1  0  0  0  0
 17 18  1  0  0  0  0
 18 12  1  0  0  0  0
 17 19  1  0  0  0  0
 19 20  1  0  0  0  0
 20 21  1  0  0  0  0
 21 22  1  0  0  0  0
 22 18  1  0  0  0  0
  3 23  1  0  0  0  0
  3 24  1  0  0  0  0
  1 25  1  6  0  0  0
  2 26  1  6  0  0  0
  4 27  1  6  0  0  0
 11 28  1  6  0  0  0
  5 29  1  1  0  0  0
 18 30  1  1  0  0  0
 33 31  1  0  0  0  0
 17 33  1  1  0  0  0
 33 32  2  0  0  0  0
 22 34  1  1  0  0  0
 21 35  1  6  0  0  0
  9 36  1  1  0  0  0
 10 37  1  6  0  0  0
M  END
>  <cdx:fragmentId>
5

$$$$
