10416810.cdx
  Mrv1902 05222410262D          

 49 54  0  0  0  0            999 V2000
    6.7578  -11.3497    0.0000 C   0  0  0  0  0  0  0  0  0  0  0  0
    6.2390  -11.9912    0.0000 C   0  0  0  0  0  0  0  0  0  0  0  0
    6.5352  -12.7612    0.0000 C   0  0  0  0  0  0  0  0  0  0  0  0
    6.0164  -13.4027    0.0000 C   0  0  0  0  0  0  0  0  0  0  0  0
    5.2015  -13.2742    0.0000 C   0  0  0  0  0  0  0  0  0  0  0  0
    4.9053  -12.5042    0.0000 C   0  0  0  0  0  0  0  0  0  0  0  0
    5.4241  -11.8627    0.0000 C   0  0  0  0  0  0  0  0  0  0  0  0
    6.4617  -10.5797    0.0000 O   0  0  0  0  0  0  0  0  0  0  0  0
    7.5727  -11.4782    0.0000 O   0  0  0  0  0  0  0  0  0  0  0  0
    4.0904  -12.3756    0.0000 O   0  0  0  0  0  0  0  0  0  0  0  0
    4.6827  -13.9156    0.0000 O   0  0  0  0  0  0  0  0  0  0  0  0
    6.3126  -14.1727    0.0000 O   0  0  0  0  0  0  0  0  0  0  0  0
    9.1291   -9.5547    0.0000 C   0  0  2  0  0  0  0  0  0  0  0  0
    9.6365   -8.9181    0.0000 O   0  0  0  0  0  0  0  0  0  0  0  0
    9.3409   -8.1479    0.0000 C   0  0  0  0  0  0  0  0  0  0  0  0
    8.5260   -8.0189    0.0000 C   0  0  0  0  0  0  0  0  0  0  0  0
    9.3330   -7.8473    0.0000 C   0  0  0  0  0  0  0  0  0  0  0  0
    9.5879   -7.0627    0.0000 C   0  0  0  0  0  0  0  0  0  0  0  0
    9.0359   -6.4496    0.0000 C   0  0  0  0  0  0  0  0  0  0  0  0
    8.2289   -6.6212    0.0000 C   0  0  0  0  0  0  0  0  0  0  0  0
    7.9740   -7.4058    0.0000 C   0  0  2  0  0  0  0  0  0  0  0  0
    7.2038   -7.7014    0.0000 C   0  0  0  0  0  0  0  0  0  0  0  0
    6.4893   -7.2889    0.0000 C   0  0  0  0  0  0  0  0  0  0  0  0
    5.7749   -7.7014    0.0000 C   0  0  0  0  0  0  0  0  0  0  0  0
    5.7749   -8.5264    0.0000 C   0  0  0  0  0  0  0  0  0  0  0  0
    6.4893   -8.9389    0.0000 C   0  0  0  0  0  0  0  0  0  0  0  0
    7.2038   -8.5264    0.0000 C   0  0  0  0  0  0  0  0  0  0  0  0
    6.6846   -9.1676    0.0000 C   0  0  0  0  0  0  0  0  0  0  0  0
    6.9803   -9.9378    0.0000 O   0  0  0  0  0  0  0  0  0  0  0  0
    7.7951  -10.0668    0.0000 C   0  0  1  0  0  0  0  0  0  0  0  0
    8.0915  -10.8367    0.0000 C   0  0  1  0  0  0  0  0  0  0  0  0
    8.9064  -10.9655    0.0000 O   0  0  0  0  0  0  0  0  0  0  0  0
    9.4258  -10.3246    0.0000 C   0  0  2  0  0  0  0  0  0  0  0  0
    8.3143   -9.4257    0.0000 C   0  0  1  0  0  0  0  0  0  0  0  0
    7.2393   -6.6470    0.0000 O   0  0  0  0  0  0  0  0  0  0  0  0
    5.9774   -9.5925    0.0000 O   0  0  0  0  0  0  0  0  0  0  0  0
   10.3949   -6.8912    0.0000 O   0  0  0  0  0  0  0  0  0  0  0  0
   10.1507   -7.9905    0.0000 O   0  0  0  0  0  0  0  0  0  0  0  0
   10.2407  -10.4532    0.0000 C   0  0  0  0  0  0  0  0  0  0  0  0
   10.7596   -9.8118    0.0000 O   0  0  0  0  0  0  0  0  0  0  0  0
    8.0186   -8.6555    0.0000 O   0  0  0  0  0  0  0  0  0  0  0  0
    5.0604   -8.9389    0.0000 O   0  0  0  0  0  0  0  0  0  0  0  0
    5.0604   -7.2889    0.0000 O   0  0  0  0  0  0  0  0  0  0  0  0
    8.1320   -5.8019    0.0000 O   0  0  0  0  0  0  0  0  0  0  0  0
    9.6490   -5.8976    0.0000 O   0  0  0  0  0  0  0  0  0  0  0  0
    8.8644   -5.6427    0.0000 O   0  0  0  0  0  0  0  0  0  0  0  0
    9.9441   -9.6833    0.0000 H   0  0  0  0  0  0  0  0  0  0  0  0
    7.9740   -8.2308    0.0000 H   0  0  0  0  0  0  0  0  0  0  0  0
    7.2762  -10.7082    0.0000 H   0  0  0  0  0  0  0  0  0  0  0  0
  1  2  1  0  0  0  0
  2  3  1  0  0  0  0
  3  4  2  0  0  0  0
  4  5  1  0  0  0  0
  5  6  2  0  0  0  0
  6  7  1  0  0  0  0
  2  7  2  0  0  0  0
  1  8  2  0  0  0  0
  1  9  1  0  0  0  0
  6 10  1  0  0  0  0
  5 11  1  0  0  0  0
  4 12  1  0  0  0  0
 13 14  1  0  0  0  0
 14 15  1  0  0  0  0
 15 16  1  0  0  0  0
 16 17  2  0  0  0  0
 17 18  1  0  0  0  0
 18 19  1  0  0  0  0
 19 20  1  0  0  0  0
 20 21  1  0  0  0  0
 21 22  1  0  0  0  0
 22 23  2  0  0  0  0
 23 24  1  0  0  0  0
 24 25  2  0  0  0  0
 25 26  1  0  0  0  0
 26 27  2  0  0  0  0
 27 28  1  0  0  0  0
 28 29  1  0  0  0  0
 29 30  1  0  0  0  0
 30 31  1  0  0  0  0
 31 32  1  0  0  0  0
 32 33  1  0  0  0  0
 13 33  1  0  0  0  0
 13 34  1  0  0  0  0
 34 30  1  0  0  0  0
 22 27  1  0  0  0  0
 23 35  1  0  0  0  0
 35 20  1  0  0  0  0
 16 21  1  0  0  0  0
 28 36  2  0  0  0  0
 18 37  2  0  0  0  0
 15 38  2  0  0  0  0
 39 40  1  0  0  0  0
 33 39  1  1  0  0  0
 34 41  1  1  0  0  0
 25 42  1  0  0  0  0
 24 43  1  0  0  0  0
 20 44  1  0  0  0  0
 19 45  1  0  0  0  0
 19 46  1  0  0  0  0
 31  9  1  1  0  0  0
 13 47  1  1  0  0  0
 21 48  1  6  0  0  0
 30 49  1  1  0  0  0
M  END
>  <cdx:groupId>
3962

>  <cdx:fragmentId>
3837

$$$$
