417391.cdx
  Mrv1902 05222410212D          

110115  0  0  0  0            999 V2000
   11.4389   -4.4718    0.0000 O   0  0  0  0  0  0  0  0  0  0  0  0
   12.1516   -3.2333    0.0000 O   0  0  0  0  0  0  0  0  0  0  0  0
   11.4377   -3.6468    0.0000 C   0  0  2  0  0  0  0  0  0  0  0  0
   10.7227   -3.2353    0.0000 C   0  0  1  0  0  0  0  0  0  0  0  0
   10.7215   -2.4103    0.0000 C   0  0  2  0  0  0  0  0  0  0  0  0
   11.4354   -1.9968    0.0000 C   0  0  1  0  0  0  0  0  0  0  0  0
   12.1505   -2.4083    0.0000 C   0  0  1  0  0  0  0  0  0  0  0  0
   12.8644   -1.9948    0.0000 C   0  0  0  0  0  0  0  0  0  0  0  0
   12.8632   -1.1698    0.0000 O   0  0  0  0  0  0  0  0  0  0  0  0
   11.4343   -1.1718    0.0000 O   0  0  0  0  0  0  0  0  0  0  0  0
   10.0065   -1.9988    0.0000 O   0  0  0  0  0  0  0  0  0  0  0  0
   10.0088   -3.6488    0.0000 O   0  0  0  0  0  0  0  0  0  0  0  0
    5.7571  -20.9835    0.0000 O   0  0  0  0  0  0  0  0  0  0  0  0
    5.7537  -19.3335    0.0000 O   0  0  0  0  0  0  0  0  0  0  0  0
    7.8945  -18.0916    0.0000 O   0  0  0  0  0  0  0  0  0  0  0  0
    7.1809  -18.5056    0.0000 C   0  0  0  0  0  0  0  0  0  0  0  0
    7.1911  -23.4556    0.0000 O   0  0  0  0  0  0  0  0  0  0  0  0
    5.7639  -24.2835    0.0000 O   0  0  0  0  0  0  0  0  0  0  0  0
    4.3332  -23.4615    0.0000 O   0  0  0  0  0  0  0  0  0  0  0  0
    3.6162  -22.2254    0.0000 O   0  0  0  0  0  0  0  0  0  0  0  0
    4.3298  -21.8115    0.0000 C   0  0  0  0  0  0  0  0  0  0  0  0
    5.0452  -22.2225    0.0000 C   0  0  2  0  0  0  0  0  0  0  0  0
    5.0469  -23.0475    0.0000 C   0  0  2  0  0  0  0  0  0  0  0  0
    5.7622  -23.4585    0.0000 C   0  0  1  0  0  0  0  0  0  0  0  0
    6.4758  -23.0445    0.0000 C   0  0  2  0  0  0  0  0  0  0  0  0
    6.4741  -22.2195    0.0000 C   0  0  1  0  0  0  0  0  0  0  0  0
    5.7588  -21.8085    0.0000 O   0  0  0  0  0  0  0  0  0  0  0  0
    7.1877  -21.8056    0.0000 O   0  0  0  0  0  0  0  0  0  0  0  0
    7.1826  -19.3306    0.0000 C   0  0  2  0  0  0  0  0  0  0  0  0
    6.4690  -19.7445    0.0000 C   0  0  2  0  0  0  0  0  0  0  0  0
    6.4707  -20.5695    0.0000 C   0  0  1  0  0  0  0  0  0  0  0  0
    7.1860  -20.9806    0.0000 C   0  0  2  0  0  0  0  0  0  0  0  0
    7.8996  -20.5666    0.0000 C   0  0  1  0  0  0  0  0  0  0  0  0
    7.8979  -19.7416    0.0000 O   0  0  0  0  0  0  0  0  0  0  0  0
    8.6150  -20.9776    0.0000 O   0  0  0  0  0  0  0  0  0  0  0  0
   18.6175  -20.9570    0.0000 C   0  0  0  0  0  0  0  0  0  0  0  0
   15.0426  -19.7269    0.0000 C   0  0  0  0  0  0  0  0  0  0  0  0
   12.1848  -19.7328    0.0000 C   0  0  0  0  0  0  0  0  0  0  0  0
    9.3303  -21.3887    0.0000 C   0  0  0  0  0  0  0  0  0  0  0  0
   10.0405  -19.3247    0.0000 C   0  0  0  0  0  0  0  0  0  0  0  0
    9.3269  -19.7387    0.0000 C   0  0  0  0  0  0  0  0  0  0  0  0
    9.3286  -20.5637    0.0000 C   0  0  2  0  0  0  0  0  0  0  0  0
   10.0439  -20.9747    0.0000 C   0  0  0  0  0  0  0  0  0  0  0  0
   10.7575  -20.5607    0.0000 C   0  0  0  0  0  0  0  0  0  0  0  0
   11.4728  -20.9718    0.0000 C   0  0  0  0  0  0  0  0  0  0  0  0
   12.1865  -20.5578    0.0000 C   0  0  0  0  0  0  0  0  0  0  0  0
   12.9018  -20.9688    0.0000 C   0  0  0  0  0  0  0  0  0  0  0  0
   13.6154  -20.5548    0.0000 C   0  0  0  0  0  0  0  0  0  0  0  0
   14.3307  -20.9659    0.0000 C   0  0  0  0  0  0  0  0  0  0  0  0
   15.0443  -20.5519    0.0000 C   0  0  0  0  0  0  0  0  0  0  0  0
   15.7596  -20.9629    0.0000 C   0  0  0  0  0  0  0  0  0  0  0  0
   16.4733  -20.5490    0.0000 C   0  0  0  0  0  0  0  0  0  0  0  0
   17.1886  -20.9600    0.0000 C   0  0  0  0  0  0  0  0  0  0  0  0
   17.9022  -20.5460    0.0000 C   0  0  0  0  0  0  0  0  0  0  0  0
   17.9005  -19.7210    0.0000 C   0  0  0  0  0  0  0  0  0  0  0  0
   18.6141  -19.3070    0.0000 O   0  0  0  0  0  0  0  0  0  0  0  0
   17.1801  -16.8350    0.0000 O   0  0  0  0  0  0  0  0  0  0  0  0
   17.1835  -18.4850    0.0000 O   0  0  0  0  0  0  0  0  0  0  0  0
   22.1839  -18.0622    0.0000 O   0  0  0  0  0  0  0  0  0  0  0  0
   23.6112  -17.2343    0.0000 O   0  0  0  0  0  0  0  0  0  0  0  0
   23.6078  -15.5843    0.0000 O   0  0  0  0  0  0  0  0  0  0  0  0
   22.1771  -14.7622    0.0000 C   0  0  0  0  0  0  0  0  0  0  0  0
   22.1788  -15.5872    0.0000 C   0  0  1  0  0  0  0  0  0  0  0  0
   22.8942  -15.9982    0.0000 C   0  0  1  0  0  0  0  0  0  0  0  0
   22.8959  -16.8232    0.0000 C   0  0  2  0  0  0  0  0  0  0  0  0
   22.1822  -17.2372    0.0000 C   0  0  2  0  0  0  0  0  0  0  0  0
   21.4669  -16.8262    0.0000 C   0  0  1  0  0  0  0  0  0  0  0  0
   21.4652  -16.0012    0.0000 O   0  0  0  0  0  0  0  0  0  0  0  0
   20.7533  -17.2401    0.0000 O   0  0  0  0  0  0  0  0  0  0  0  0
   20.0380  -16.8291    0.0000 C   0  0  0  0  0  0  0  0  0  0  0  0
   18.6124  -18.4820    0.0000 C   0  0  1  0  0  0  0  0  0  0  0  0
   17.8971  -18.0710    0.0000 C   0  0  1  0  0  0  0  0  0  0  0  0
   17.8954  -17.2460    0.0000 C   0  0  2  0  0  0  0  0  0  0  0  0
   18.6090  -16.8321    0.0000 C   0  0  1  0  0  0  0  0  0  0  0  0
   19.3244  -17.2431    0.0000 C   0  0  2  0  0  0  0  0  0  0  0  0
   19.3261  -18.0681    0.0000 O   0  0  0  0  0  0  0  0  0  0  0  0
   18.6073  -16.0071    0.0000 O   0  0  0  0  0  0  0  0  0  0  0  0
   18.6039  -14.3571    0.0000 O   0  0  0  0  0  0  0  0  0  0  0  0
   15.7461  -14.3629    0.0000 O   0  0  0  0  0  0  0  0  0  0  0  0
   15.7495  -16.0129    0.0000 C   0  0  0  0  0  0  0  0  0  0  0  0
   16.4631  -15.5990    0.0000 C   0  0  1  0  0  0  0  0  0  0  0  0
   16.4614  -14.7740    0.0000 C   0  0  1  0  0  0  0  0  0  0  0  0
   17.1750  -14.3600    0.0000 C   0  0  2  0  0  0  0  0  0  0  0  0
   17.8903  -14.7710    0.0000 C   0  0  2  0  0  0  0  0  0  0  0  0
   17.8920  -15.5960    0.0000 C   0  0  1  0  0  0  0  0  0  0  0  0
   17.1784  -16.0100    0.0000 O   0  0  0  0  0  0  0  0  0  0  0  0
   16.4529  -10.6490    0.0000 O   0  0  0  0  0  0  0  0  0  0  0  0
   14.3001   -6.1159    0.0000 O   0  0  0  0  0  0  0  0  0  0  0  0
   14.3018   -6.9409    0.0000 C   0  0  0  0  0  0  0  0  0  0  0  0
   17.1699  -11.8850    0.0000 C   0  0  0  0  0  0  0  0  0  0  0  0
   15.7359   -9.4129    0.0000 C   0  0  0  0  0  0  0  0  0  0  0  0
   11.4406   -5.2968    0.0000 C   0  0  0  0  0  0  0  0  0  0  0  0
   17.1733  -13.5350    0.0000 O   0  0  0  0  0  0  0  0  0  0  0  0
   15.7444  -13.5379    0.0000 O   0  0  0  0  0  0  0  0  0  0  0  0
   13.5831   -4.8799    0.0000 C   0  0  0  0  0  0  0  0  0  0  0  0
   12.8678   -4.4688    0.0000 C   0  0  0  0  0  0  0  0  0  0  0  0
   12.1542   -4.8828    0.0000 C   0  0  2  0  0  0  0  0  0  0  0  0
   12.1559   -5.7078    0.0000 C   0  0  0  0  0  0  0  0  0  0  0  0
   12.8712   -6.1188    0.0000 C   0  0  0  0  0  0  0  0  0  0  0  0
   12.8729   -6.9438    0.0000 C   0  0  0  0  0  0  0  0  0  0  0  0
   13.5882   -7.3549    0.0000 C   0  0  0  0  0  0  0  0  0  0  0  0
   13.5899   -8.1799    0.0000 C   0  0  0  0  0  0  0  0  0  0  0  0
   14.3052   -8.5909    0.0000 C   0  0  0  0  0  0  0  0  0  0  0  0
   14.3069   -9.4159    0.0000 C   0  0  0  0  0  0  0  0  0  0  0  0
   15.0223   -9.8269    0.0000 C   0  0  0  0  0  0  0  0  0  0  0  0
   15.0240  -10.6519    0.0000 C   0  0  0  0  0  0  0  0  0  0  0  0
   15.7393  -11.0629    0.0000 C   0  0  2  0  0  0  0  0  0  0  0  0
   15.7410  -11.8879    0.0000 C   0  0  0  0  0  0  0  0  0  0  0  0
   16.4563  -12.2990    0.0000 C   0  0  0  0  0  0  0  0  0  0  0  0
   16.4580  -13.1240    0.0000 C   0  0  0  0  0  0  0  0  0  0  0  0
 83 93  1  1  0  0  0
 85 77  1  6  0  0  0
 74 77  1  6  0  0  0
 71 56  1  1  0  0  0
 42 35  1  0  0  0  0
 33 35  1  1  0  0  0
 31 13  1  1  0  0  0
 30 14  1  6  0  0  0
 29 16  1  1  0  0  0
 16 15  1  0  0  0  0
 32 28  1  6  0  0  0
 26 28  1  1  0  0  0
 25 17  1  6  0  0  0
 24 18  1  1  0  0  0
 23 19  1  6  0  0  0
 22 21  1  1  0  0  0
 21 20  1  0  0  0  0
 27 22  1  0  0  0  0
 23 22  1  0  0  0  0
 24 23  1  0  0  0  0
 25 24  1  0  0  0  0
 26 25  1  0  0  0  0
 27 26  1  0  0  0  0
 34 29  1  0  0  0  0
 30 29  1  0  0  0  0
 31 30  1  0  0  0  0
 32 31  1  0  0  0  0
 33 32  1  0  0  0  0
 34 33  1  0  0  0  0
 54 36  1  0  0  0  0
 50 37  1  0  0  0  0
 46 38  1  0  0  0  0
 42 39  1  1  0  0  0
 56 55  1  0  0  0  0
 41 40  2  0  0  0  0
 42 41  1  0  0  0  0
 43 42  1  0  0  0  0
 44 43  1  0  0  0  0
 45 44  1  0  0  0  0
 46 45  2  0  0  0  0
 47 46  1  0  0  0  0
 48 47  1  0  0  0  0
 49 48  1  0  0  0  0
 50 49  2  0  0  0  0
 51 50  1  0  0  0  0
 52 51  1  0  0  0  0
 53 52  1  0  0  0  0
 54 53  2  0  0  0  0
 55 54  1  0  0  0  0
 73 57  1  1  0  0  0
 72 58  1  6  0  0  0
 75 70  1  1  0  0  0
 70 69  1  0  0  0  0
 67 69  1  6  0  0  0
 66 59  1  1  0  0  0
 65 60  1  1  0  0  0
 64 61  1  6  0  0  0
 63 62  1  1  0  0  0
 68 63  1  0  0  0  0
 64 63  1  0  0  0  0
 65 64  1  0  0  0  0
 66 65  1  0  0  0  0
 67 66  1  0  0  0  0
 68 67  1  0  0  0  0
 76 71  1  0  0  0  0
 72 71  1  0  0  0  0
 73 72  1  0  0  0  0
 74 73  1  0  0  0  0
 75 74  1  0  0  0  0
 76 75  1  0  0  0  0
 84 78  1  1  0  0  0
 82 79  1  6  0  0  0
 81 80  1  1  0  0  0
 86 81  1  0  0  0  0
 82 81  1  0  0  0  0
 83 82  1  0  0  0  0
 84 83  1  0  0  0  0
 85 84  1  0  0  0  0
 86 85  1  0  0  0  0
107 87  1  1  0  0  0
101 89  1  0  0  0  0
 89 88  1  0  0  0  0
109 90  1  0  0  0  0
105 91  1  0  0  0  0
 97 92  1  1  0  0  0
 97  1  1  0  0  0  0
110 93  1  0  0  0  0
110 94  2  0  0  0  0
 96 95  2  0  0  0  0
 97 96  1  0  0  0  0
 98 97  1  0  0  0  0
 99 98  1  0  0  0  0
100 99  1  0  0  0  0
101100  2  0  0  0  0
102101  1  0  0  0  0
103102  1  0  0  0  0
104103  1  0  0  0  0
105104  2  0  0  0  0
106105  1  0  0  0  0
107106  1  0  0  0  0
108107  1  0  0  0  0
109108  2  0  0  0  0
110109  1  0  0  0  0
  2  3  1  0  0  0  0
  3  4  1  0  0  0  0
  4  5  1  0  0  0  0
  5  6  1  0  0  0  0
  6  7  1  0  0  0  0
  2  7  1  0  0  0  0
  8  9  1  0  0  0  0
  7  8  1  1  0  0  0
  6 10  1  6  0  0  0
  5 11  1  1  0  0  0
  4 12  1  6  0  0  0
  3  1  1  1  0  0  0
M  END
>  <cdx:fragmentId>
195

$$$$
