101417633.cdx
  Mrv1902 05222410222D          

 47 51  0  0  0  0            999 V2000
    3.6484  -24.6620    0.0000 O   0  0  0  0  0  0  0  0  0  0  0  0
    4.3629  -24.2495    0.0000 C   0  0  2  0  0  0  0  0  0  0  0  0
    4.3629  -23.4245    0.0000 C   0  0  1  0  0  0  0  0  0  0  0  0
    3.6484  -23.0120    0.0000 C   0  0  2  0  0  0  0  0  0  0  0  0
    2.9339  -23.4245    0.0000 C   0  0  1  0  0  0  0  0  0  0  0  0
    2.9339  -24.2495    0.0000 C   0  0  1  0  0  0  0  0  0  0  0  0
    5.0773  -23.0120    0.0000 O   0  0  0  0  0  0  0  0  0  0  0  0
    3.6484  -22.1870    0.0000 O   0  0  0  0  0  0  0  0  0  0  0  0
    2.2194  -23.0120    0.0000 O   0  0  0  0  0  0  0  0  0  0  0  0
    2.2194  -24.6620    0.0000 C   0  0  0  0  0  0  0  0  0  0  0  0
    1.5050  -24.2495    0.0000 O   0  0  0  0  0  0  0  0  0  0  0  0
    5.0773  -24.6620    0.0000 O   0  0  0  0  0  0  0  0  0  0  0  0
    6.5063  -23.0120    0.0000 C   0  0  0  0  0  0  0  0  0  0  0  0
    5.7918  -23.4245    0.0000 C   0  0  0  0  0  0  0  0  0  0  0  0
    5.7918  -24.2495    0.0000 C   0  0  1  0  0  0  0  0  0  0  0  0
    6.5063  -24.6620    0.0000 C   0  0  0  0  0  0  0  0  0  0  0  0
    7.2207  -24.2495    0.0000 C   0  0  0  0  0  0  0  0  0  0  0  0
    7.9352  -24.6620    0.0000 C   0  0  0  0  0  0  0  0  0  0  0  0
    8.6497  -24.2495    0.0000 C   0  0  0  0  0  0  0  0  0  0  0  0
    8.6497  -23.4245    0.0000 C   0  0  1  0  0  0  0  0  0  0  0  0
    9.3642  -23.0120    0.0000 C   0  0  2  0  0  0  0  0  0  0  0  0
   10.1488  -23.2669    0.0000 C   0  0  0  0  0  0  0  0  0  0  0  0
   10.6337  -22.5995    0.0000 C   0  0  0  0  0  0  0  0  0  0  0  0
   10.1488  -21.9321    0.0000 C   0  0  1  0  0  0  0  0  0  0  0  0
    9.3642  -22.1870    0.0000 C   0  0  1  0  0  0  0  0  0  0  0  0
    8.6497  -21.7745    0.0000 C   0  0  0  0  0  0  0  0  0  0  0  0
    7.9352  -22.1870    0.0000 C   0  0  2  0  0  0  0  0  0  0  0  0
    7.9352  -23.0120    0.0000 C   0  0  1  0  0  0  0  0  0  0  0  0
    7.2207  -23.4245    0.0000 C   0  0  2  0  0  0  0  0  0  0  0  0
    9.3642  -23.8370    0.0000 C   0  0  0  0  0  0  0  0  0  0  0  0
    9.4504  -21.3665    0.0000 C   0  0  0  0  0  0  0  0  0  0  0  0
    6.9188  -25.3765    0.0000 C   0  0  0  0  0  0  0  0  0  0  0  0
    6.0938  -25.3765    0.0000 C   0  0  0  0  0  0  0  0  0  0  0  0
    7.2207  -21.7745    0.0000 O   0  0  0  0  0  0  0  0  0  0  0  0
    9.8517  -20.5343    0.0000 C   0  0  0  0  0  0  0  0  0  0  0  0
   10.4037  -21.1474    0.0000 C   0  0  2  0  0  0  0  0  0  0  0  0
   11.2107  -20.9759    0.0000 C   0  0  0  0  0  0  0  0  0  0  0  0
   11.4656  -20.1913    0.0000 C   0  0  0  0  0  0  0  0  0  0  0  0
   12.2726  -20.0198    0.0000 C   0  0  2  0  0  0  0  0  0  0  0  0
   12.5275  -19.2351    0.0000 C   0  0  0  0  0  0  0  0  0  0  0  0
   11.9755  -18.6220    0.0000 C   0  0  0  0  0  0  0  0  0  0  0  0
   13.3345  -19.0636    0.0000 C   0  0  0  0  0  0  0  0  0  0  0  0
   12.7825  -18.4505    0.0000 O   0  0  0  0  0  0  0  0  0  0  0  0
   12.8246  -20.6329    0.0000 O   0  0  0  0  0  0  0  0  0  0  0  0
    8.6497  -22.5995    0.0000 H   0  0  0  0  0  0  0  0  0  0  0  0
    7.9352  -23.8370    0.0000 H   0  0  0  0  0  0  0  0  0  0  0  0
    7.2207  -22.5995    0.0000 H   0  0  0  0  0  0  0  0  0  0  0  0
  1  2  1  0  0  0  0
  2  3  1  0  0  0  0
  3  4  1  0  0  0  0
  4  5  1  0  0  0  0
  5  6  1  0  0  0  0
  1  6  1  0  0  0  0
  3  7  1  1  0  0  0
  4  8  1  6  0  0  0
  5  9  1  1  0  0  0
 10 11  1  0  0  0  0
  6 10  1  6  0  0  0
 13 14  1  0  0  0  0
 14 15  1  0  0  0  0
 15 16  1  0  0  0  0
 16 17  1  0  0  0  0
 17 18  2  0  0  0  0
 18 19  1  0  0  0  0
 19 20  1  0  0  0  0
 20 21  1  0  0  0  0
 21 22  1  0  0  0  0
 22 23  1  0  0  0  0
 24 23  1  1  0  0  0
 24 25  1  0  0  0  0
 21 25  1  0  0  0  0
 25 26  1  0  0  0  0
 26 27  1  0  0  0  0
 27 28  1  0  0  0  0
 20 28  1  0  0  0  0
 28 29  1  0  0  0  0
 17 29  1  0  0  0  0
 13 29  1  0  0  0  0
 21 30  1  6  0  0  0
 25 31  1  1  0  0  0
 16 32  1  0  0  0  0
 16 33  1  0  0  0  0
 27 34  1  6  0  0  0
 36 35  1  6  0  0  0
 36 37  1  0  0  0  0
 37 38  1  0  0  0  0
 38 39  1  0  0  0  0
 39 40  1  0  0  0  0
 40 41  1  0  0  0  0
 40 42  1  0  0  0  0
 40 43  1  0  0  0  0
 39 44  1  6  0  0  0
 24 36  1  0  0  0  0
 15 12  1  1  0  0  0
  2 12  1  6  0  0  0
 20 45  1  1  0  0  0
 28 46  1  1  0  0  0
 29 47  1  6  0  0  0
M  END
>  <cdx:groupId>
243289

>  <cdx:fragmentId>
243171

$$$$
