417936.cdx
  Mrv1902 05222410272D          

 16 17  0  0  0  0            999 V2000
    7.3427   -6.8608    0.0000 C   0  0  0  0  0  0  0  0  0  0  0  0
    4.4848   -9.3358    0.0000 C   0  0  0  0  0  0  0  0  0  0  0  0
    8.0571  -10.5733    0.0000 C   0  0  0  0  0  0  0  0  0  0  0  0
    7.3427  -10.1608    0.0000 C   0  0  0  0  0  0  0  0  0  0  0  0
    6.6282  -10.5733    0.0000 C   0  0  0  0  0  0  0  0  0  0  0  0
    6.6282   -8.0983    0.0000 C   0  0  0  0  0  0  0  0  0  0  0  0
    5.9137   -7.6858    0.0000 C   0  0  0  0  0  0  0  0  0  0  0  0
    5.1993   -8.0983    0.0000 C   0  0  0  0  0  0  0  0  0  0  0  0
    5.1993   -8.9233    0.0000 C   0  0  0  0  0  0  0  0  0  0  0  0
    5.9137   -9.3358    0.0000 C   0  0  0  0  0  0  0  0  0  0  0  0
    6.6282   -8.9233    0.0000 C   0  0  0  0  0  0  0  0  0  0  0  0
    7.3427   -9.3358    0.0000 C   0  0  1  0  0  0  0  0  0  0  0  0
    8.0571   -8.9233    0.0000 C   0  0  0  0  0  0  0  0  0  0  0  0
    8.0571   -8.0983    0.0000 C   0  0  0  0  0  0  0  0  0  0  0  0
    7.3427   -7.6858    0.0000 C   0  0  2  0  0  0  0  0  0  0  0  0
    4.4848   -7.6858    0.0000 O   0  0  0  0  0  0  0  0  0  0  0  0
 15  1  1  1  0  0  0
  9  2  1  0  0  0  0
 12  4  1  1  0  0  0
  4  3  1  0  0  0  0
  5  4  1  0  0  0  0
 11  6  2  0  0  0  0
 15  6  1  0  0  0  0
  7  6  1  0  0  0  0
  8  7  2  0  0  0  0
  9  8  1  0  0  0  0
 10  9  2  0  0  0  0
 11 10  1  0  0  0  0
 12 11  1  0  0  0  0
 13 12  1  0  0  0  0
 14 13  1  0  0  0  0
 15 14  1  0  0  0  0
  8 16  1  0  0  0  0
M  END
>  <cdx:fragmentId>
5

$$$$
