418048.cdx
  Mrv1902 05222410212D          

  9  8  0  0  0  0            999 V2000
    8.8539   -6.5334    0.0000 C   0  0  0  0  0  0  0  0  0  0  0  0
    8.1395   -6.9459    0.0000 C   0  0  0  0  0  0  0  0  0  0  0  0
    7.4250   -6.5334    0.0000 C   0  0  0  0  0  0  0  0  0  0  0  0
    6.7105   -6.9459    0.0000 C   0  0  0  0  0  0  0  0  0  0  0  0
    5.9961   -6.5334    0.0000 C   0  0  0  0  0  0  0  0  0  0  0  0
    8.8539   -5.7084    0.0000 O   0  0  0  0  0  0  0  0  0  0  0  0
    9.5684   -6.9459    0.0000 O   0  0  0  0  0  0  0  0  0  0  0  0
    5.9961   -5.7084    0.0000 O   0  0  0  0  0  0  0  0  0  0  0  0
    5.2816   -6.9459    0.0000 O   0  0  0  0  0  0  0  0  0  0  0  0
  1  2  1  0  0  0  0
  2  3  1  0  0  0  0
  3  4  1  0  0  0  0
  4  5  1  0  0  0  0
  1  6  2  0  0  0  0
  1  7  1  0  0  0  0
  5  8  2  0  0  0  0
  5  9  1  0  0  0  0
M  END
>  <cdx:fragmentId>
315

$$$$
