41827.cdx
  Mrv1902 05222410252D          

 26 27  0  0  0  0            999 V2000
   11.9039  -10.7278    0.0000 C   0  0  0  0  0  0  0  0  0  0  0  0
   11.1894  -10.3153    0.0000 C   0  0  0  0  0  0  0  0  0  0  0  0
   11.1894   -9.4903    0.0000 C   0  0  0  0  0  0  0  0  0  0  0  0
   11.9039   -9.0778    0.0000 C   0  0  0  0  0  0  0  0  0  0  0  0
   12.6184  -10.3153    0.0000 C   0  0  0  0  0  0  0  0  0  0  0  0
   12.6184   -9.4903    0.0000 C   0  0  0  0  0  0  0  0  0  0  0  0
   13.4030   -9.2354    0.0000 O   0  0  0  0  0  0  0  0  0  0  0  0
   13.8879   -9.9028    0.0000 C   0  0  0  0  0  0  0  0  0  0  0  0
   13.4030  -10.5703    0.0000 O   0  0  0  0  0  0  0  0  0  0  0  0
    1.1869  -10.3153    0.0000 C   0  0  0  0  0  0  0  0  0  0  0  0
    0.4724   -9.0778    0.0000 C   0  0  0  0  0  0  0  0  0  0  0  0
    1.1869   -9.4903    0.0000 C   0  0  0  0  0  0  0  0  0  0  0  0
    1.9013   -9.0778    0.0000 C   0  0  0  0  0  0  0  0  0  0  0  0
    2.6158   -9.4903    0.0000 N   0  0  0  0  0  0  0  0  0  0  0  0
    3.3303   -8.2528    0.0000 O   0  0  0  0  0  0  0  0  0  0  0  0
   10.4750   -9.0778    0.0000 C   0  0  0  0  0  0  0  0  0  0  0  0
    9.7605   -9.4903    0.0000 C   0  0  0  0  0  0  0  0  0  0  0  0
    9.0460   -9.0778    0.0000 C   0  0  0  0  0  0  0  0  0  0  0  0
    8.3316   -9.4903    0.0000 C   0  0  0  0  0  0  0  0  0  0  0  0
    7.6171   -9.0778    0.0000 C   0  0  0  0  0  0  0  0  0  0  0  0
    6.9026   -9.4903    0.0000 C   0  0  0  0  0  0  0  0  0  0  0  0
    6.1881   -9.0778    0.0000 C   0  0  0  0  0  0  0  0  0  0  0  0
    5.4737   -9.4903    0.0000 C   0  0  0  0  0  0  0  0  0  0  0  0
    4.7592   -9.0778    0.0000 C   0  0  0  0  0  0  0  0  0  0  0  0
    4.0447   -9.4903    0.0000 C   0  0  0  0  0  0  0  0  0  0  0  0
    3.3303   -9.0778    0.0000 C   0  0  0  0  0  0  0  0  0  0  0  0
 16  3  1  0  0  0  0
  4  6  2  0  0  0  0
  1  5  2  0  0  0  0
  2  1  1  0  0  0  0
  3  2  2  0  0  0  0
  4  3  1  0  0  0  0
  9  5  1  0  0  0  0
  6  5  1  0  0  0  0
  7  6  1  0  0  0  0
  8  7  1  0  0  0  0
  9  8  1  0  0  0  0
 14 13  1  0  0  0  0
 12 10  1  0  0  0  0
 12 11  1  0  0  0  0
 13 12  1  0  0  0  0
 26 14  1  0  0  0  0
 26 15  2  0  0  0  0
 17 16  2  0  0  0  0
 18 17  1  0  0  0  0
 19 18  1  0  0  0  0
 20 19  1  0  0  0  0
 21 20  1  0  0  0  0
 22 21  1  0  0  0  0
 23 22  1  0  0  0  0
 24 23  1  0  0  0  0
 25 24  2  0  0  0  0
 26 25  1  0  0  0  0
M  END
>  <cdx:groupId>
117979

>  <cdx:fragmentId>
117903

$$$$
