41920.cdx
  Mrv1902 05222410262D          

 42 41  0  0  0  0            999 V2000
   14.3985  -12.2994    0.0000 C   0  0  0  0  0  0  0  0  0  0  0  0
   13.6840  -12.7119    0.0000 C   0  0  0  0  0  0  0  0  0  0  0  0
   12.9695  -12.2994    0.0000 C   0  0  0  0  0  0  0  0  0  0  0  0
   12.2551  -12.7119    0.0000 C   0  0  0  0  0  0  0  0  0  0  0  0
   11.5406  -12.2994    0.0000 C   0  0  0  0  0  0  0  0  0  0  0  0
   10.8261  -12.7119    0.0000 C   0  0  0  0  0  0  0  0  0  0  0  0
   10.1116  -12.2994    0.0000 C   0  0  0  0  0  0  0  0  0  0  0  0
    9.3972  -12.7119    0.0000 C   0  0  0  0  0  0  0  0  0  0  0  0
    8.6827  -12.2994    0.0000 C   0  0  0  0  0  0  0  0  0  0  0  0
    7.9682  -12.7119    0.0000 C   0  0  0  0  0  0  0  0  0  0  0  0
    7.2538  -12.2994    0.0000 C   0  0  0  0  0  0  0  0  0  0  0  0
    6.5393  -12.7119    0.0000 C   0  0  0  0  0  0  0  0  0  0  0  0
    5.8248  -12.2994    0.0000 C   0  0  0  0  0  0  0  0  0  0  0  0
    5.1103  -12.7119    0.0000 C   0  0  0  0  0  0  0  0  0  0  0  0
    4.3959  -12.2994    0.0000 C   0  0  0  0  0  0  0  0  0  0  0  0
    3.6814  -12.7119    0.0000 C   0  0  0  0  0  0  0  0  0  0  0  0
   15.1129  -12.7119    0.0000 O   0  0  0  0  0  0  0  0  0  0  0  0
   15.8274  -12.2994    0.0000 C   0  0  0  0  0  0  0  0  0  0  0  0
   16.5419  -12.7119    0.0000 C   0  0  0  0  0  0  0  0  0  0  0  0
   17.2564  -12.2994    0.0000 C   0  0  0  0  0  0  0  0  0  0  0  0
   17.9708  -12.7119    0.0000 C   0  0  0  0  0  0  0  0  0  0  0  0
   18.6853  -12.2994    0.0000 C   0  0  0  0  0  0  0  0  0  0  0  0
   19.3998  -12.7119    0.0000 C   0  0  0  0  0  0  0  0  0  0  0  0
   20.1142  -12.2994    0.0000 C   0  0  0  0  0  0  0  0  0  0  0  0
   20.8287  -12.7119    0.0000 C   0  0  0  0  0  0  0  0  0  0  0  0
   21.5432  -12.2994    0.0000 C   0  0  0  0  0  0  0  0  0  0  0  0
   22.2577  -12.7119    0.0000 C   0  0  0  0  0  0  0  0  0  0  0  0
   22.9721  -12.2994    0.0000 C   0  0  0  0  0  0  0  0  0  0  0  0
   23.6866  -12.7119    0.0000 C   0  0  0  0  0  0  0  0  0  0  0  0
   14.3985  -11.4744    0.0000 O   0  0  0  0  0  0  0  0  0  0  0  0
   15.1129  -11.0619    0.0000 C   0  0  0  0  0  0  0  0  0  0  0  0
   15.1129  -10.2369    0.0000 C   0  0  0  0  0  0  0  0  0  0  0  0
   15.8274   -9.8244    0.0000 C   0  0  0  0  0  0  0  0  0  0  0  0
   15.8274   -8.9994    0.0000 C   0  0  0  0  0  0  0  0  0  0  0  0
   16.5419   -8.5869    0.0000 C   0  0  0  0  0  0  0  0  0  0  0  0
   16.5419   -7.7619    0.0000 C   0  0  0  0  0  0  0  0  0  0  0  0
   17.2564   -7.3494    0.0000 C   0  0  0  0  0  0  0  0  0  0  0  0
   17.2564   -6.5244    0.0000 C   0  0  0  0  0  0  0  0  0  0  0  0
   17.9708   -6.1119    0.0000 C   0  0  0  0  0  0  0  0  0  0  0  0
   17.9708   -5.2869    0.0000 C   0  0  0  0  0  0  0  0  0  0  0  0
   18.6853   -4.8744    0.0000 C   0  0  0  0  0  0  0  0  0  0  0  0
   18.6853   -4.0494    0.0000 C   0  0  0  0  0  0  0  0  0  0  0  0
  1  2  1  0  0  0  0
  2  3  1  0  0  0  0
  3  4  1  0  0  0  0
  4  5  1  0  0  0  0
  5  6  1  0  0  0  0
  6  7  1  0  0  0  0
  7  8  1  0  0  0  0
  8  9  1  0  0  0  0
  9 10  1  0  0  0  0
 10 11  1  0  0  0  0
 11 12  1  0  0  0  0
 12 13  1  0  0  0  0
 13 14  1  0  0  0  0
 14 15  1  0  0  0  0
 15 16  1  0  0  0  0
 18 19  1  0  0  0  0
 19 20  1  0  0  0  0
 20 21  1  0  0  0  0
 21 22  1  0  0  0  0
 22 23  1  0  0  0  0
 23 24  1  0  0  0  0
 24 25  1  0  0  0  0
 25 26  1  0  0  0  0
 26 27  1  0  0  0  0
 27 28  1  0  0  0  0
 28 29  1  0  0  0  0
 17 18  1  0  0  0  0
  1 17  1  0  0  0  0
 31 32  1  0  0  0  0
 32 33  1  0  0  0  0
 33 34  1  0  0  0  0
 34 35  1  0  0  0  0
 35 36  1  0  0  0  0
 36 37  1  0  0  0  0
 37 38  1  0  0  0  0
 38 39  1  0  0  0  0
 39 40  1  0  0  0  0
 40 41  1  0  0  0  0
 41 42  1  0  0  0  0
 30 31  1  0  0  0  0
  1 30  1  0  0  0  0
M  END
>  <cdx:groupId>
127

>  <cdx:fragmentId>
5

$$$$
