419358.cdx
  Mrv1902 05222410262D          

 19 20  0  0  0  0            999 V2000
    7.4182  -12.2874    0.0000 O   0  0  0  0  0  0  0  0  0  0  0  0
    5.9878   -9.8132    0.0000 O   0  0  0  0  0  0  0  0  0  0  0  0
    8.1314  -10.2245    0.0000 C   0  0  0  0  0  0  0  0  0  0  0  0
    8.1319  -11.0495    0.0000 C   0  0  0  0  0  0  0  0  0  0  0  0
    7.4177  -11.4624    0.0000 C   0  0  0  0  0  0  0  0  0  0  0  0
    6.7030  -11.0503    0.0000 C   0  0  0  0  0  0  0  0  0  0  0  0
    6.7025  -10.2253    0.0000 C   0  0  0  0  0  0  0  0  0  0  0  0
    7.4167   -9.8124    0.0000 C   0  0  0  0  0  0  0  0  0  0  0  0
    7.4162   -8.9874    0.0000 C   0  0  0  0  0  0  0  0  0  0  0  0
    6.7015   -8.5753    0.0000 C   0  0  0  0  0  0  0  0  0  0  0  0
    5.2711   -6.1012    0.0000 O   0  0  0  0  0  0  0  0  0  0  0  0
    8.1289   -6.0995    0.0000 O   0  0  0  0  0  0  0  0  0  0  0  0
    7.4152   -7.3374    0.0000 C   0  0  0  0  0  0  0  0  0  0  0  0
    6.7010   -7.7503    0.0000 C   0  0  0  0  0  0  0  0  0  0  0  0
    5.9863   -7.3382    0.0000 C   0  0  0  0  0  0  0  0  0  0  0  0
    5.9858   -6.5132    0.0000 C   0  0  0  0  0  0  0  0  0  0  0  0
    6.7000   -6.1003    0.0000 C   0  0  0  0  0  0  0  0  0  0  0  0
    7.4147   -6.5124    0.0000 C   0  0  0  0  0  0  0  0  0  0  0  0
    5.2733  -10.2257    0.0000 C   0  0  0  0  0  0  0  0  0  0  0  0
 14 10  1  0  0  0  0
  9  8  1  0  0  0  0
  5  1  1  0  0  0  0
  7  2  1  0  0  0  0
  8  3  2  0  0  0  0
  4  3  1  0  0  0  0
  5  4  2  0  0  0  0
  6  5  1  0  0  0  0
  7  6  2  0  0  0  0
  8  7  1  0  0  0  0
 10  9  2  0  0  0  0
 16 11  1  0  0  0  0
 18 12  1  0  0  0  0
 18 13  2  0  0  0  0
 14 13  1  0  0  0  0
 15 14  2  0  0  0  0
 16 15  1  0  0  0  0
 17 16  2  0  0  0  0
 18 17  1  0  0  0  0
  2 19  1  0  0  0  0
M  END
>  <cdx:fragmentId>
25

$$$$
