4195.cdx
  Mrv1902 05222410252D          

 16 17  0  0  0  0            999 V2000
    4.9665   -4.9780    0.0000 C   0  0  0  0  0  0  0  0  0  0  0  0
    4.5540   -5.6925    0.0000 C   0  0  0  0  0  0  0  0  0  0  0  0
    4.9665   -6.4070    0.0000 C   0  0  0  0  0  0  0  0  0  0  0  0
    5.7915   -6.4070    0.0000 C   0  0  0  0  0  0  0  0  0  0  0  0
    6.2040   -5.6925    0.0000 C   0  0  0  0  0  0  0  0  0  0  0  0
    5.7915   -4.9780    0.0000 C   0  0  0  0  0  0  0  0  0  0  0  0
    6.2040   -7.1214    0.0000 C   0  0  0  0  0  0  0  0  0  0  0  0
    7.0290   -7.1214    0.0000 C   0  0  0  0  0  0  0  0  0  0  0  0
    7.4415   -6.4070    0.0000 C   0  0  0  0  0  0  0  0  0  0  0  0
    7.0290   -5.6925    0.0000 C   0  0  1  0  0  0  0  0  0  0  0  0
    4.5540   -7.1214    0.0000 C   0  0  0  0  0  0  0  0  0  0  0  0
    3.7290   -7.1214    0.0000 C   0  0  0  0  0  0  0  0  0  0  0  0
    4.9665   -7.8359    0.0000 C   0  0  0  0  0  0  0  0  0  0  0  0
    7.4415   -7.8359    0.0000 C   0  0  0  0  0  0  0  0  0  0  0  0
    6.2040   -4.2636    0.0000 C   0  0  0  0  0  0  0  0  0  0  0  0
    7.4415   -4.9780    0.0000 O   0  0  0  0  0  0  0  0  0  0  0  0
  1  2  1  0  0  0  0
  2  3  1  0  0  0  0
  3  4  1  0  0  0  0
  4  5  1  0  0  0  0
  5  6  1  0  0  0  0
  6  1  1  0  0  0  0
  4  7  1  0  0  0  0
  7  8  2  0  0  0  0
  8  9  1  0  0  0  0
  9 10  1  0  0  0  0
 10  5  1  0  0  0  0
  3 11  2  0  0  0  0
 11 12  1  0  0  0  0
 11 13  1  0  0  0  0
  8 14  1  0  0  0  0
  6 15  1  0  0  0  0
 10 16  1  6  0  0  0
M  END
>  <cdx:fragmentId>
5

$$$$
