419566.cdx
  Mrv1902 05222410232D          

 79 88  0  0  0  0            999 V2000
   12.9565   -6.2777    0.0000 C   0  0  2  0  0  0  0  0  0  0  0  0
   12.9565   -7.1027    0.0000 C   0  0  1  0  0  0  0  0  0  0  0  0
   12.2420   -7.5152    0.0000 C   0  0  0  0  0  0  0  0  0  0  0  0
   11.5276   -7.1027    0.0000 C   0  0  1  0  0  0  0  0  0  0  0  0
   10.8131   -7.5152    0.0000 C   0  0  2  0  0  0  0  0  0  0  0  0
   10.8131   -8.3402    0.0000 C   0  0  0  0  0  0  0  0  0  0  0  0
   10.0986   -8.7527    0.0000 C   0  0  0  0  0  0  0  0  0  0  0  0
    9.3842   -8.3402    0.0000 C   0  0  1  0  0  0  0  0  0  0  0  0
    8.6697   -8.7527    0.0000 C   0  0  0  0  0  0  0  0  0  0  0  0
    7.9552   -8.3402    0.0000 C   0  0  2  0  0  0  0  0  0  0  0  0
    7.9552   -7.5152    0.0000 C   0  0  0  0  0  0  0  0  0  0  0  0
    8.6697   -7.1027    0.0000 C   0  0  0  0  0  0  0  0  0  0  0  0
    9.3842   -7.5152    0.0000 C   0  0  2  0  0  0  0  0  0  0  0  0
   10.0986   -7.1027    0.0000 C   0  0  1  0  0  0  0  0  0  0  0  0
   10.0986   -6.2777    0.0000 C   0  0  0  0  0  0  0  0  0  0  0  0
   10.8131   -5.8652    0.0000 C   0  0  0  0  0  0  0  0  0  0  0  0
   11.5276   -6.2777    0.0000 C   0  0  2  0  0  0  0  0  0  0  0  0
   12.2420   -5.8652    0.0000 C   0  0  2  0  0  0  0  0  0  0  0  0
   12.2420   -5.0402    0.0000 C   0  0  0  0  0  0  0  0  0  0  0  0
   12.9565   -4.6277    0.0000 C   0  0  2  0  0  0  0  0  0  0  0  0
   13.6710   -5.0402    0.0000 C   0  0  0  0  0  0  0  0  0  0  0  0
   13.6710   -5.8652    0.0000 C   0  0  0  0  0  0  0  0  0  0  0  0
   12.9565   -3.8027    0.0000 C   0  0  0  0  0  0  0  0  0  0  0  0
   12.2420   -3.3902    0.0000 O   0  0  0  0  0  0  0  0  0  0  0  0
   13.6710   -3.3902    0.0000 O   0  0  0  0  0  0  0  0  0  0  0  0
   13.6710   -4.2152    0.0000 C   0  0  0  0  0  0  0  0  0  0  0  0
    9.3842   -6.6902    0.0000 C   0  0  0  0  0  0  0  0  0  0  0  0
    9.0822   -9.4671    0.0000 C   0  0  0  0  0  0  0  0  0  0  0  0
    8.2572   -9.4671    0.0000 C   0  0  0  0  0  0  0  0  0  0  0  0
   10.8131   -6.6902    0.0000 C   0  0  0  0  0  0  0  0  0  0  0  0
   11.5276   -7.9277    0.0000 C   0  0  0  0  0  0  0  0  0  0  0  0
   13.6710   -7.5152    0.0000 O   0  0  0  0  0  0  0  0  0  0  0  0
    7.2407   -8.7527    0.0000 O   0  0  0  0  0  0  0  0  0  0  0  0
    5.8118   -8.7527    0.0000 O   0  0  0  0  0  0  0  0  0  0  0  0
    6.5263   -8.3402    0.0000 C   0  0  2  0  0  0  0  0  0  0  0  0
    6.5263   -7.5152    0.0000 C   0  0  1  0  0  0  0  0  0  0  0  0
    5.8118   -7.1027    0.0000 C   0  0  2  0  0  0  0  0  0  0  0  0
    5.0973   -7.5152    0.0000 C   0  0  2  0  0  0  0  0  0  0  0  0
    5.0973   -8.3402    0.0000 C   0  0  0  0  0  0  0  0  0  0  0  0
    7.2407   -7.1027    0.0000 O   0  0  0  0  0  0  0  0  0  0  0  0
    6.5263   -5.8652    0.0000 O   0  0  0  0  0  0  0  0  0  0  0  0
    7.2407   -6.2777    0.0000 C   0  0  2  0  0  0  0  0  0  0  0  0
    7.9552   -5.8652    0.0000 C   0  0  1  0  0  0  0  0  0  0  0  0
    7.9552   -5.0402    0.0000 C   0  0  2  0  0  0  0  0  0  0  0  0
    7.2407   -4.6277    0.0000 C   0  0  1  0  0  0  0  0  0  0  0  0
    6.5263   -5.0402    0.0000 C   0  0  1  0  0  0  0  0  0  0  0  0
    5.8118   -4.6277    0.0000 C   0  0  0  0  0  0  0  0  0  0  0  0
    5.0973   -5.0402    0.0000 O   0  0  0  0  0  0  0  0  0  0  0  0
    7.2407   -3.8027    0.0000 O   0  0  0  0  0  0  0  0  0  0  0  0
    8.6697   -4.6277    0.0000 O   0  0  0  0  0  0  0  0  0  0  0  0
    8.6697   -6.2777    0.0000 O   0  0  0  0  0  0  0  0  0  0  0  0
    5.8118   -6.2777    0.0000 O   0  0  0  0  0  0  0  0  0  0  0  0
    4.3829   -7.1027    0.0000 O   0  0  0  0  0  0  0  0  0  0  0  0
    2.9539   -7.1027    0.0000 O   0  0  0  0  0  0  0  0  0  0  0  0
    3.6684   -7.5152    0.0000 C   0  0  2  0  0  0  0  0  0  0  0  0
    3.6684   -8.3402    0.0000 C   0  0  1  0  0  0  0  0  0  0  0  0
    2.9539   -8.7527    0.0000 C   0  0  2  0  0  0  0  0  0  0  0  0
    2.2395   -8.3402    0.0000 C   0  0  1  0  0  0  0  0  0  0  0  0
    2.2395   -7.5152    0.0000 C   0  0  1  0  0  0  0  0  0  0  0  0
    4.3829   -8.7527    0.0000 O   0  0  0  0  0  0  0  0  0  0  0  0
    3.6684   -9.9902    0.0000 O   0  0  0  0  0  0  0  0  0  0  0  0
    4.3829   -9.5777    0.0000 C   0  0  2  0  0  0  0  0  0  0  0  0
    5.0973   -9.9902    0.0000 C   0  0  1  0  0  0  0  0  0  0  0  0
    5.0973  -10.8152    0.0000 C   0  0  1  0  0  0  0  0  0  0  0  0
    4.3829  -11.2277    0.0000 C   0  0  2  0  0  0  0  0  0  0  0  0
    3.6684  -10.8152    0.0000 C   0  0  2  0  0  0  0  0  0  0  0  0
    2.9539  -11.2277    0.0000 C   0  0  0  0  0  0  0  0  0  0  0  0
    4.3829  -12.0527    0.0000 O   0  0  0  0  0  0  0  0  0  0  0  0
    5.8118  -11.2277    0.0000 O   0  0  0  0  0  0  0  0  0  0  0  0
    5.8118   -9.5777    0.0000 O   0  0  0  0  0  0  0  0  0  0  0  0
    1.5250   -7.1027    0.0000 C   0  0  0  0  0  0  0  0  0  0  0  0
    0.8105   -7.5152    0.0000 O   0  0  0  0  0  0  0  0  0  0  0  0
    1.5250   -8.7527    0.0000 O   0  0  0  0  0  0  0  0  0  0  0  0
    2.9539   -9.5777    0.0000 O   0  0  0  0  0  0  0  0  0  0  0  0
    9.3842   -9.1652    0.0000 H   0  0  0  0  0  0  0  0  0  0  0  0
   10.0986   -7.9277    0.0000 H   0  0  0  0  0  0  0  0  0  0  0  0
   12.2420   -6.6902    0.0000 H   0  0  0  0  0  0  0  0  0  0  0  0
   11.5276   -5.4527    0.0000 O   0  0  0  0  0  0  0  0  0  0  0  0
   12.9565   -5.4527    0.0000 C   0  0  0  0  0  0  0  0  0  0  0  0
  1  2  1  0  0  0  0
  2  3  1  0  0  0  0
  3  4  1  0  0  0  0
  4  5  1  0  0  0  0
  5  6  1  0  0  0  0
  6  7  1  0  0  0  0
  7  8  1  0  0  0  0
  8  9  1  0  0  0  0
  9 10  1  0  0  0  0
 10 11  1  0  0  0  0
 11 12  1  0  0  0  0
 12 13  1  0  0  0  0
 13 14  1  0  0  0  0
 14 15  1  0  0  0  0
 15 16  1  0  0  0  0
 16 17  1  0  0  0  0
 17 18  1  0  0  0  0
 18 19  1  0  0  0  0
 19 20  1  0  0  0  0
 20 21  1  0  0  0  0
 21 22  1  0  0  0  0
  1 22  1  0  0  0  0
  1 18  1  0  0  0  0
  4 17  1  0  0  0  0
  5 14  1  0  0  0  0
  8 13  1  0  0  0  0
 23 24  2  0  0  0  0
 23 25  1  0  0  0  0
 20 23  1  0  0  0  0
 20 26  1  6  0  0  0
 13 27  1  1  0  0  0
  9 28  1  0  0  0  0
  9 29  1  0  0  0  0
  5 30  1  1  0  0  0
  4 31  1  6  0  0  0
  2 32  1  6  0  0  0
 34 35  1  0  0  0  0
 35 36  1  0  0  0  0
 36 37  1  0  0  0  0
 37 38  1  0  0  0  0
 38 39  1  0  0  0  0
 34 39  1  0  0  0  0
 41 42  1  0  0  0  0
 42 43  1  0  0  0  0
 43 44  1  0  0  0  0
 44 45  1  0  0  0  0
 45 46  1  0  0  0  0
 41 46  1  0  0  0  0
 47 48  1  0  0  0  0
 46 47  1  6  0  0  0
 45 49  1  1  0  0  0
 44 50  1  6  0  0  0
 43 51  1  1  0  0  0
 42 40  1  6  0  0  0
 36 40  1  1  0  0  0
 37 52  1  6  0  0  0
 54 55  1  0  0  0  0
 55 56  1  0  0  0  0
 56 57  1  0  0  0  0
 57 58  1  0  0  0  0
 58 59  1  0  0  0  0
 54 59  1  0  0  0  0
 61 62  1  0  0  0  0
 62 63  1  0  0  0  0
 63 64  1  0  0  0  0
 64 65  1  0  0  0  0
 65 66  1  0  0  0  0
 61 66  1  0  0  0  0
 66 67  1  6  0  0  0
 65 68  1  1  0  0  0
 64 69  1  6  0  0  0
 63 70  1  6  0  0  0
 62 60  1  1  0  0  0
 56 60  1  6  0  0  0
 71 72  1  0  0  0  0
 59 71  1  1  0  0  0
 58 73  1  6  0  0  0
 57 74  1  1  0  0  0
 55 53  1  1  0  0  0
 38 53  1  6  0  0  0
 35 33  1  6  0  0  0
 10 33  1  1  0  0  0
  8 75  1  6  0  0  0
 14 76  1  6  0  0  0
 18 77  1  1  0  0  0
 17 78  1  1  0  0  0
  1 79  1  1  0  0  0
 78 79  1  0  0  0  0
M  END
>  <cdx:fragmentId>
161281

$$$$
