419565.cdx
  Mrv1902 05222410242D          

 66 74  0  0  0  0            999 V2000
   12.7230   -5.7827    0.0000 C   0  0  2  0  0  0  0  0  0  0  0  0
   12.7230   -6.6077    0.0000 C   0  0  1  0  0  0  0  0  0  0  0  0
   12.0086   -7.0202    0.0000 C   0  0  0  0  0  0  0  0  0  0  0  0
   11.2941   -6.6077    0.0000 C   0  0  1  0  0  0  0  0  0  0  0  0
   10.5796   -7.0202    0.0000 C   0  0  2  0  0  0  0  0  0  0  0  0
   10.5796   -7.8452    0.0000 C   0  0  0  0  0  0  0  0  0  0  0  0
    9.8651   -8.2577    0.0000 C   0  0  0  0  0  0  0  0  0  0  0  0
    9.1507   -7.8452    0.0000 C   0  0  1  0  0  0  0  0  0  0  0  0
    8.4362   -8.2577    0.0000 C   0  0  0  0  0  0  0  0  0  0  0  0
    7.7217   -7.8452    0.0000 C   0  0  2  0  0  0  0  0  0  0  0  0
    7.7217   -7.0202    0.0000 C   0  0  0  0  0  0  0  0  0  0  0  0
    8.4362   -6.6077    0.0000 C   0  0  0  0  0  0  0  0  0  0  0  0
    9.1507   -7.0202    0.0000 C   0  0  2  0  0  0  0  0  0  0  0  0
    9.8651   -6.6077    0.0000 C   0  0  1  0  0  0  0  0  0  0  0  0
    9.8651   -5.7827    0.0000 C   0  0  0  0  0  0  0  0  0  0  0  0
   10.5796   -5.3702    0.0000 C   0  0  0  0  0  0  0  0  0  0  0  0
   11.2941   -5.7827    0.0000 C   0  0  2  0  0  0  0  0  0  0  0  0
   12.0086   -5.3702    0.0000 C   0  0  2  0  0  0  0  0  0  0  0  0
   12.0086   -4.5452    0.0000 C   0  0  0  0  0  0  0  0  0  0  0  0
   12.7230   -4.1327    0.0000 C   0  0  2  0  0  0  0  0  0  0  0  0
   13.4375   -4.5452    0.0000 C   0  0  0  0  0  0  0  0  0  0  0  0
   13.4375   -5.3702    0.0000 C   0  0  0  0  0  0  0  0  0  0  0  0
   12.3105   -3.4182    0.0000 C   0  0  0  0  0  0  0  0  0  0  0  0
   11.4855   -3.4182    0.0000 O   0  0  0  0  0  0  0  0  0  0  0  0
   13.1355   -3.4182    0.0000 C   0  0  0  0  0  0  0  0  0  0  0  0
    9.1507   -6.1952    0.0000 C   0  0  0  0  0  0  0  0  0  0  0  0
    8.8487   -8.9721    0.0000 C   0  0  0  0  0  0  0  0  0  0  0  0
    8.0237   -8.9721    0.0000 C   0  0  0  0  0  0  0  0  0  0  0  0
   10.5796   -6.1952    0.0000 C   0  0  0  0  0  0  0  0  0  0  0  0
   11.2941   -7.4327    0.0000 C   0  0  0  0  0  0  0  0  0  0  0  0
   13.4375   -7.0202    0.0000 O   0  0  0  0  0  0  0  0  0  0  0  0
    7.0073   -8.2577    0.0000 O   0  0  0  0  0  0  0  0  0  0  0  0
    6.2928   -7.0202    0.0000 O   0  0  0  0  0  0  0  0  0  0  0  0
    6.2928   -7.8452    0.0000 C   0  0  2  0  0  0  0  0  0  0  0  0
    5.5783   -8.2577    0.0000 C   0  0  1  0  0  0  0  0  0  0  0  0
    4.8639   -7.8452    0.0000 C   0  0  2  0  0  0  0  0  0  0  0  0
    4.8639   -7.0202    0.0000 C   0  0  2  0  0  0  0  0  0  0  0  0
    5.5783   -6.6077    0.0000 C   0  0  0  0  0  0  0  0  0  0  0  0
    4.1494   -8.2577    0.0000 O   0  0  0  0  0  0  0  0  0  0  0  0
    5.5783   -9.0827    0.0000 O   0  0  0  0  0  0  0  0  0  0  0  0
    4.1494   -6.6077    0.0000 O   0  0  0  0  0  0  0  0  0  0  0  0
    3.4349   -7.8452    0.0000 O   0  0  0  0  0  0  0  0  0  0  0  0
    3.4349   -7.0202    0.0000 C   0  0  2  0  0  0  0  0  0  0  0  0
    2.7204   -6.6077    0.0000 C   0  0  1  0  0  0  0  0  0  0  0  0
    2.0060   -7.0202    0.0000 C   0  0  2  0  0  0  0  0  0  0  0  0
    2.0060   -7.8452    0.0000 C   0  0  1  0  0  0  0  0  0  0  0  0
    2.7204   -8.2577    0.0000 C   0  0  1  0  0  0  0  0  0  0  0  0
    2.7204   -5.7827    0.0000 O   0  0  0  0  0  0  0  0  0  0  0  0
    4.1494   -5.7827    0.0000 O   0  0  0  0  0  0  0  0  0  0  0  0
    3.4349   -5.3702    0.0000 C   0  0  2  0  0  0  0  0  0  0  0  0
    3.4349   -4.5452    0.0000 C   0  0  1  0  0  0  0  0  0  0  0  0
    4.1494   -4.1327    0.0000 C   0  0  2  0  0  0  0  0  0  0  0  0
    4.8639   -4.5452    0.0000 C   0  0  1  0  0  0  0  0  0  0  0  0
    4.8639   -5.3702    0.0000 C   0  0  0  0  0  0  0  0  0  0  0  0
    5.5783   -4.1327    0.0000 O   0  0  0  0  0  0  0  0  0  0  0  0
    4.1494   -3.3077    0.0000 O   0  0  0  0  0  0  0  0  0  0  0  0
    2.7204   -4.1327    0.0000 O   0  0  0  0  0  0  0  0  0  0  0  0
    2.7204   -9.0827    0.0000 C   0  0  0  0  0  0  0  0  0  0  0  0
    2.0060   -9.4952    0.0000 O   0  0  0  0  0  0  0  0  0  0  0  0
    1.2915   -8.2577    0.0000 O   0  0  0  0  0  0  0  0  0  0  0  0
    1.2915   -6.6077    0.0000 O   0  0  0  0  0  0  0  0  0  0  0  0
    9.1507   -8.6702    0.0000 H   0  0  0  0  0  0  0  0  0  0  0  0
    9.8651   -7.4327    0.0000 H   0  0  0  0  0  0  0  0  0  0  0  0
   12.0086   -6.1952    0.0000 H   0  0  0  0  0  0  0  0  0  0  0  0
   11.2941   -4.9577    0.0000 O   0  0  0  0  0  0  0  0  0  0  0  0
   12.7230   -4.9577    0.0000 C   0  0  0  0  0  0  0  0  0  0  0  0
  1  2  1  0  0  0  0
  2  3  1  0  0  0  0
  3  4  1  0  0  0  0
  4  5  1  0  0  0  0
  5  6  1  0  0  0  0
  6  7  1  0  0  0  0
  7  8  1  0  0  0  0
  8  9  1  0  0  0  0
  9 10  1  0  0  0  0
 10 11  1  0  0  0  0
 11 12  1  0  0  0  0
 12 13  1  0  0  0  0
 13 14  1  0  0  0  0
 14 15  1  0  0  0  0
 15 16  1  0  0  0  0
 16 17  1  0  0  0  0
 17 18  1  0  0  0  0
 18 19  1  0  0  0  0
 19 20  1  0  0  0  0
 20 21  1  0  0  0  0
 21 22  1  0  0  0  0
  1 22  1  0  0  0  0
  1 18  1  0  0  0  0
  4 17  1  0  0  0  0
  5 14  1  0  0  0  0
  8 13  1  0  0  0  0
 23 24  2  0  0  0  0
 20 23  1  1  0  0  0
 20 25  1  6  0  0  0
 13 26  1  1  0  0  0
  9 27  1  0  0  0  0
  9 28  1  0  0  0  0
  5 29  1  1  0  0  0
  4 30  1  6  0  0  0
  2 31  1  6  0  0  0
 33 34  1  0  0  0  0
 34 35  1  0  0  0  0
 35 36  1  0  0  0  0
 36 37  1  0  0  0  0
 37 38  1  0  0  0  0
 33 38  1  0  0  0  0
 36 39  1  1  0  0  0
 35 40  1  6  0  0  0
 42 43  1  0  0  0  0
 43 44  1  0  0  0  0
 44 45  1  0  0  0  0
 45 46  1  0  0  0  0
 46 47  1  0  0  0  0
 42 47  1  0  0  0  0
 49 50  1  0  0  0  0
 50 51  1  0  0  0  0
 51 52  1  0  0  0  0
 52 53  1  0  0  0  0
 53 54  1  0  0  0  0
 49 54  1  0  0  0  0
 53 55  1  6  0  0  0
 52 56  1  1  0  0  0
 51 57  1  6  0  0  0
 50 48  1  1  0  0  0
 44 48  1  1  0  0  0
 58 59  1  0  0  0  0
 47 58  1  6  0  0  0
 46 60  1  1  0  0  0
 45 61  1  6  0  0  0
 43 41  1  6  0  0  0
 37 41  1  1  0  0  0
 34 32  1  1  0  0  0
 10 32  1  1  0  0  0
  8 62  1  6  0  0  0
 14 63  1  6  0  0  0
 18 64  1  1  0  0  0
 17 65  1  1  0  0  0
  1 66  1  1  0  0  0
 66 65  1  0  0  0  0
M  END
>  <cdx:fragmentId>
160936

$$$$
