420140.cdx
  Mrv1902 05222410282D          

 14 15  0  0  0  0            999 V2000
    8.9340   -8.0074    0.0000 O   0  0  0  0  0  0  0  0  0  0  0  0
    8.9340   -7.1824    0.0000 C   0  0  1  0  0  0  0  0  0  0  0  0
    8.2195   -6.7699    0.0000 C   0  0  1  0  0  0  0  0  0  0  0  0
    7.5050   -7.1824    0.0000 C   0  0  0  0  0  0  0  0  0  0  0  0
    6.7905   -6.7699    0.0000 C   0  0  0  0  0  0  0  0  0  0  0  0
    6.0761   -7.1824    0.0000 C   0  0  0  0  0  0  0  0  0  0  0  0
    6.0761   -8.0074    0.0000 C   0  0  0  0  0  0  0  0  0  0  0  0
    6.7905   -8.4199    0.0000 C   0  0  0  0  0  0  0  0  0  0  0  0
    7.5050   -8.0074    0.0000 C   0  0  0  0  0  0  0  0  0  0  0  0
    8.2195   -8.4199    0.0000 C   0  0  0  0  0  0  0  0  0  0  0  0
    8.2195   -9.2449    0.0000 O   0  0  0  0  0  0  0  0  0  0  0  0
    9.6484   -6.7699    0.0000 C   0  0  0  0  0  0  0  0  0  0  0  0
    6.7905   -9.2449    0.0000 O   0  0  0  0  0  0  0  0  0  0  0  0
    8.2195   -5.9449    0.0000 O   0  0  0  0  0  0  0  0  0  0  0  0
  1  2  1  0  0  0  0
  2  3  1  0  0  0  0
  3  4  1  0  0  0  0
  4  5  1  0  0  0  0
  5  6  2  0  0  0  0
  6  7  1  0  0  0  0
  7  8  2  0  0  0  0
  8  9  1  0  0  0  0
  4  9  2  0  0  0  0
  9 10  1  0  0  0  0
  1 10  1  0  0  0  0
 10 11  2  0  0  0  0
  2 12  1  1  0  0  0
  8 13  1  0  0  0  0
  3 14  1  1  0  0  0
M  END
>  <cdx:fragmentId>
49371

$$$$
