6420231.cdx
  Mrv1902 05222410272D          

 18 17  0  0  0  0            999 V2000
    9.0297   -8.5299    0.0000 C   0  0  0  0  0  0  0  0  0  0  0  0
    9.7441   -8.1174    0.0000 C   0  0  0  0  0  0  0  0  0  0  0  0
    9.0297   -9.3549    0.0000 O   0  0  0  0  0  0  0  0  0  0  0  0
    8.3152   -8.1174    0.0000 O   0  0  0  0  0  0  0  0  0  0  0  0
    9.7441   -7.2924    0.0000 O   0  0  0  0  0  0  0  0  0  0  0  0
   10.4586   -8.5299    0.0000 O   0  0  0  0  0  0  0  0  0  0  0  0
   11.1731   -8.1174    0.0000 C   0  0  0  0  0  0  0  0  0  0  0  0
   11.8876   -8.5299    0.0000 C   0  0  0  0  0  0  0  0  0  0  0  0
   12.6020   -8.1174    0.0000 C   0  0  0  0  0  0  0  0  0  0  0  0
    7.6007   -8.5299    0.0000 C   0  0  0  0  0  0  0  0  0  0  0  0
    6.8863   -8.1174    0.0000 C   0  0  0  0  0  0  0  0  0  0  0  0
    6.1718   -8.5299    0.0000 C   0  0  0  0  0  0  0  0  0  0  0  0
    5.4573   -8.1174    0.0000 C   0  0  0  0  0  0  0  0  0  0  0  0
    4.7429   -8.5299    0.0000 C   0  0  0  0  0  0  0  0  0  0  0  0
    4.0284   -8.1174    0.0000 C   0  0  0  0  0  0  0  0  0  0  0  0
    3.3139   -8.5299    0.0000 C   0  0  0  0  0  0  0  0  0  0  0  0
    2.5994   -8.1174    0.0000 C   0  0  0  0  0  0  0  0  0  0  0  0
    1.8850   -8.5299    0.0000 C   0  0  0  0  0  0  0  0  0  0  0  0
  1  2  1  0  0  0  0
  1  3  2  0  0  0  0
  1  4  1  0  0  0  0
  2  5  2  0  0  0  0
  2  6  1  0  0  0  0
  7  8  1  0  0  0  0
  8  9  2  0  0  0  0
  6  7  1  0  0  0  0
 10 11  1  0  0  0  0
 11 12  1  0  0  0  0
 12 13  1  0  0  0  0
 13 14  1  0  0  0  0
 14 15  1  0  0  0  0
 15 16  1  0  0  0  0
 16 17  1  0  0  0  0
 17 18  1  0  0  0  0
  4 10  1  0  0  0  0
M  END
>  <cdx:groupId>
10794

>  <cdx:fragmentId>
10762

$$$$
