4206.cdx
  Mrv1902 05222410212D          

 47 51  0  0  0  0            999 V2000
    6.9677   -7.9337    0.0000 C   0  0  2  0  0  0  0  0  0  0  0  0
    6.9677   -8.7588    0.0000 C   0  0  1  0  0  0  0  0  0  0  0  0
    7.6821   -9.1713    0.0000 C   0  0  1  0  0  0  0  0  0  0  0  0
    8.3966   -8.7588    0.0000 C   0  0  1  0  0  0  0  0  0  0  0  0
    8.3966   -7.9337    0.0000 C   0  0  2  0  0  0  0  0  0  0  0  0
    7.6821   -7.5213    0.0000 C   0  0  0  0  0  0  0  0  0  0  0  0
    9.1111   -9.1713    0.0000 C   0  0  0  0  0  0  0  0  0  0  0  0
    9.8255   -8.7588    0.0000 C   0  0  0  0  0  0  0  0  0  0  0  0
    9.8255   -7.9337    0.0000 C   0  0  2  0  0  0  0  0  0  0  0  0
    9.1111   -7.5213    0.0000 C   0  0  2  0  0  0  0  0  0  0  0  0
   10.5400   -7.5213    0.0000 C   0  0  1  0  0  0  0  0  0  0  0  0
   10.5400   -6.6962    0.0000 C   0  0  2  0  0  0  0  0  0  0  0  0
    9.8255   -6.2837    0.0000 C   0  0  0  0  0  0  0  0  0  0  0  0
    9.1111   -6.6962    0.0000 C   0  0  0  0  0  0  0  0  0  0  0  0
   11.2545   -7.9337    0.0000 C   0  0  0  0  0  0  0  0  0  0  0  0
   11.9690   -7.5213    0.0000 C   0  0  0  0  0  0  0  0  0  0  0  0
   11.9690   -6.6962    0.0000 C   0  0  2  0  0  0  0  0  0  0  0  0
   11.2545   -6.2837    0.0000 C   0  0  2  0  0  0  0  0  0  0  0  0
   12.5820   -6.1442    0.0000 C   0  0  0  0  0  0  0  0  0  0  0  0
   12.2465   -5.3905    0.0000 C   0  0  0  0  0  0  0  0  0  0  0  0
   11.4260   -5.4768    0.0000 C   0  0  1  0  0  0  0  0  0  0  0  0
    7.2696   -9.8857    0.0000 C   0  0  0  0  0  0  0  0  0  0  0  0
    8.3966   -7.1088    0.0000 C   0  0  0  0  0  0  0  0  0  0  0  0
    9.8255   -7.1088    0.0000 C   0  0  0  0  0  0  0  0  0  0  0  0
   11.2545   -7.1088    0.0000 H   0  0  0  0  0  0  0  0  0  0  0  0
   12.6834   -7.1088    0.0000 C   0  0  0  0  0  0  0  0  0  0  0  0
   10.8426   -4.8934    0.0000 C   0  0  0  0  0  0  0  0  0  0  0  0
    9.1111   -8.3462    0.0000 H   0  0  0  0  0  0  0  0  0  0  0  0
   10.5400   -8.3462    0.0000 C   0  0  0  0  0  0  0  0  0  0  0  0
    6.2532   -7.5213    0.0000 O   0  0  0  0  0  0  0  0  0  0  0  0
    6.2532   -9.1713    0.0000 O   0  0  0  0  0  0  0  0  0  0  0  0
   10.0458   -5.1069    0.0000 C   0  0  0  0  0  0  0  0  0  0  0  0
   11.0562   -4.0965    0.0000 C   0  0  0  0  0  0  0  0  0  0  0  0
   13.3979   -6.6962    0.0000 O   0  0  0  0  0  0  0  0  0  0  0  0
   12.6834   -7.9337    0.0000 O   0  0  0  0  0  0  0  0  0  0  0  0
    5.5387   -8.7588    0.0000 C   0  0  0  0  0  0  0  0  0  0  0  0
    4.8242   -9.1713    0.0000 C   0  0  0  0  0  0  0  0  0  0  0  0
    5.5387   -7.9337    0.0000 O   0  0  0  0  0  0  0  0  0  0  0  0
    4.1098   -8.7588    0.0000 C   0  0  0  0  0  0  0  0  0  0  0  0
    3.3953   -9.1713    0.0000 C   0  0  0  0  0  0  0  0  0  0  0  0
    2.6808   -8.7588    0.0000 C   0  0  0  0  0  0  0  0  0  0  0  0
    1.9664   -9.1713    0.0000 C   0  0  0  0  0  0  0  0  0  0  0  0
    1.2519   -8.7588    0.0000 C   0  0  0  0  0  0  0  0  0  0  0  0
    0.5374   -9.1713    0.0000 C   0  0  0  0  0  0  0  0  0  0  0  0
    8.0946   -9.8857    0.0000 C   0  0  0  0  0  0  0  0  0  0  0  0
    8.3966   -9.5838    0.0000 H   0  0  0  0  0  0  0  0  0  0  0  0
   10.5400   -5.8712    0.0000 H   0  0  0  0  0  0  0  0  0  0  0  0
  1  2  1  0  0  0  0
  2  3  1  0  0  0  0
  3  4  1  0  0  0  0
  4  5  1  0  0  0  0
  5  6  1  0  0  0  0
  6  1  1  0  0  0  0
  4  7  1  0  0  0  0
  7  8  1  0  0  0  0
  8  9  1  0  0  0  0
  9 10  1  0  0  0  0
 10  5  1  0  0  0  0
  9 11  1  0  0  0  0
 11 12  1  0  0  0  0
 12 13  1  0  0  0  0
 13 14  1  0  0  0  0
 14 10  1  0  0  0  0
 11 15  1  0  0  0  0
 15 16  1  0  0  0  0
 16 17  1  0  0  0  0
 17 18  1  0  0  0  0
 18 12  1  0  0  0  0
 17 19  1  0  0  0  0
 19 20  1  0  0  0  0
 20 21  1  0  0  0  0
 21 18  1  0  0  0  0
  3 22  1  1  0  0  0
  5 23  1  1  0  0  0
  9 24  1  1  0  0  0
 18 25  1  6  0  0  0
 17 26  1  1  0  0  0
 21 27  1  6  0  0  0
 10 28  1  6  0  0  0
 11 29  1  6  0  0  0
  1 30  1  1  0  0  0
  2 31  1  1  0  0  0
 27 32  1  0  0  0  0
 27 33  2  0  0  0  0
 26 34  1  0  0  0  0
 26 35  2  0  0  0  0
 31 36  1  0  0  0  0
 36 37  1  0  0  0  0
 36 38  2  0  0  0  0
 37 39  1  0  0  0  0
 39 40  1  0  0  0  0
 40 41  1  0  0  0  0
 41 42  1  0  0  0  0
 42 43  1  0  0  0  0
 43 44  1  0  0  0  0
  3 45  1  6  0  0  0
  4 46  1  6  0  0  0
 12 47  1  1  0  0  0
M  END
>  <cdx:fragmentId>
5

$$$$
