6420794.cdx
  Mrv1902 05222410262D          

 32 31  0  0  0  0            999 V2000
   13.5821   -8.2670    0.0000 C   0  0  0  0  0  0  0  0  0  0  0  0
   14.2966   -8.6795    0.0000 C   0  0  0  0  0  0  0  0  0  0  0  0
   13.5821   -7.4420    0.0000 O   0  0  0  0  0  0  0  0  0  0  0  0
   12.8676   -8.6795    0.0000 O   0  0  0  0  0  0  0  0  0  0  0  0
   14.2966   -9.5045    0.0000 O   0  0  0  0  0  0  0  0  0  0  0  0
   15.0110   -8.2670    0.0000 O   0  0  0  0  0  0  0  0  0  0  0  0
   12.1531   -8.2670    0.0000 C   0  0  0  0  0  0  0  0  0  0  0  0
   11.4387   -8.6795    0.0000 C   0  0  0  0  0  0  0  0  0  0  0  0
   10.7242   -8.2670    0.0000 C   0  0  0  0  0  0  0  0  0  0  0  0
   10.0097   -8.6795    0.0000 C   0  0  0  0  0  0  0  0  0  0  0  0
    9.2953   -8.2670    0.0000 C   0  0  0  0  0  0  0  0  0  0  0  0
    8.5808   -8.6795    0.0000 C   0  0  0  0  0  0  0  0  0  0  0  0
    7.8663   -8.2670    0.0000 C   0  0  0  0  0  0  0  0  0  0  0  0
    7.1519   -8.6795    0.0000 C   0  0  0  0  0  0  0  0  0  0  0  0
    6.4374   -8.2670    0.0000 C   0  0  0  0  0  0  0  0  0  0  0  0
    5.7229   -8.6795    0.0000 C   0  0  0  0  0  0  0  0  0  0  0  0
    5.0084   -8.2670    0.0000 C   0  0  0  0  0  0  0  0  0  0  0  0
    4.2940   -8.6795    0.0000 C   0  0  0  0  0  0  0  0  0  0  0  0
    3.5795   -8.2670    0.0000 C   0  0  0  0  0  0  0  0  0  0  0  0
    2.8650   -8.6795    0.0000 C   0  0  0  0  0  0  0  0  0  0  0  0
    2.1506   -8.2670    0.0000 C   0  0  0  0  0  0  0  0  0  0  0  0
    1.4361   -8.6795    0.0000 C   0  0  0  0  0  0  0  0  0  0  0  0
    0.7216   -8.2670    0.0000 C   0  0  0  0  0  0  0  0  0  0  0  0
    0.0071   -8.6795    0.0000 C   0  0  0  0  0  0  0  0  0  0  0  0
   15.7255   -8.6795    0.0000 C   0  0  0  0  0  0  0  0  0  0  0  0
   16.4400   -8.2670    0.0000 C   0  0  0  0  0  0  0  0  0  0  0  0
   17.1544   -8.6795    0.0000 C   0  0  0  0  0  0  0  0  0  0  0  0
   17.8689   -8.2670    0.0000 C   0  0  0  0  0  0  0  0  0  0  0  0
   18.5834   -8.6795    0.0000 C   0  0  0  0  0  0  0  0  0  0  0  0
   19.2979   -8.2670    0.0000 C   0  0  0  0  0  0  0  0  0  0  0  0
   16.4400   -7.4420    0.0000 C   0  0  0  0  0  0  0  0  0  0  0  0
   17.1544   -7.0295    0.0000 C   0  0  0  0  0  0  0  0  0  0  0  0
  1  2  1  0  0  0  0
  1  3  2  0  0  0  0
  1  4  1  0  0  0  0
  2  5  2  0  0  0  0
  2  6  1  0  0  0  0
  7  8  1  0  0  0  0
  8  9  1  0  0  0  0
  9 10  1  0  0  0  0
 10 11  1  0  0  0  0
 11 12  1  0  0  0  0
 12 13  1  0  0  0  0
 13 14  1  0  0  0  0
 14 15  1  0  0  0  0
 15 16  1  0  0  0  0
 16 17  1  0  0  0  0
 17 18  1  0  0  0  0
 18 19  1  0  0  0  0
 19 20  1  0  0  0  0
 20 21  1  0  0  0  0
 21 22  1  0  0  0  0
 22 23  1  0  0  0  0
 23 24  1  0  0  0  0
  4  7  1  0  0  0  0
 25 26  1  0  0  0  0
 26 27  1  0  0  0  0
 27 28  1  0  0  0  0
 28 29  1  0  0  0  0
 29 30  1  0  0  0  0
 31 32  1  0  0  0  0
 26 31  1  0  0  0  0
  6 25  1  0  0  0  0
M  END
>  <cdx:groupId>
10998

>  <cdx:fragmentId>
10918

$$$$
