420999.cdx
  Mrv1902 05222410272D          

 15 15  0  0  0  0            999 V2000
    7.7502   -7.8118    0.0000 C   0  0  0  0  0  0  0  0  0  0  0  0
    8.4647   -8.2243    0.0000 C   0  0  0  0  0  0  0  0  0  0  0  0
    9.1792   -7.8118    0.0000 C   0  0  0  0  0  0  0  0  0  0  0  0
    9.8936   -8.2243    0.0000 C   0  0  0  0  0  0  0  0  0  0  0  0
    7.7502   -6.9868    0.0000 O   0  0  0  0  0  0  0  0  0  0  0  0
    7.0357   -8.2243    0.0000 C   0  0  0  0  0  0  0  0  0  0  0  0
    6.3213   -7.8118    0.0000 C   0  0  0  0  0  0  0  0  0  0  0  0
    5.6068   -8.2243    0.0000 C   0  0  0  0  0  0  0  0  0  0  0  0
    5.6068   -9.0493    0.0000 C   0  0  0  0  0  0  0  0  0  0  0  0
    6.3213   -9.4618    0.0000 C   0  0  0  0  0  0  0  0  0  0  0  0
    7.0357   -9.0493    0.0000 C   0  0  0  0  0  0  0  0  0  0  0  0
    7.8607   -9.0493    0.0000 C   0  0  0  0  0  0  0  0  0  0  0  0
    7.4482   -9.7637    0.0000 C   0  0  0  0  0  0  0  0  0  0  0  0
    6.3213   -6.9868    0.0000 C   0  0  0  0  0  0  0  0  0  0  0  0
    4.8923   -9.4618    0.0000 O   0  0  0  0  0  0  0  0  0  0  0  0
  1  2  1  0  0  0  0
  2  3  2  0  0  0  0
  3  4  1  0  0  0  0
  1  5  2  0  0  0  0
  6  7  2  0  0  0  0
  7  8  1  0  0  0  0
  8  9  1  0  0  0  0
  9 10  1  0  0  0  0
 10 11  1  0  0  0  0
  6 11  1  0  0  0  0
 11 12  1  0  0  0  0
 11 13  1  0  0  0  0
  7 14  1  0  0  0  0
  9 15  1  0  0  0  0
  1  6  1  0  0  0  0
M  END
>  <cdx:fragmentId>
11022

$$$$
