421322.cdx
  Mrv1902 05222410202D          

 20 20  0  0  0  0            999 V2000
   10.8193   -8.5163    0.0000 C   0  0  0  0  0  0  0  0  0  0  0  0
   10.1048   -8.9288    0.0000 C   0  0  0  0  0  0  0  0  0  0  0  0
    9.3903   -8.5163    0.0000 C   0  0  0  0  0  0  0  0  0  0  0  0
    8.6759   -8.9288    0.0000 C   0  0  0  0  0  0  0  0  0  0  0  0
    4.3891   -6.4538    0.0000 C   0  0  0  0  0  0  0  0  0  0  0  0
    5.1035  -10.1663    0.0000 C   0  0  0  0  0  0  0  0  0  0  0  0
    4.3891   -9.7538    0.0000 C   0  0  0  0  0  0  0  0  0  0  0  0
    3.6746  -10.1663    0.0000 C   0  0  0  0  0  0  0  0  0  0  0  0
    5.1035   -7.6913    0.0000 C   0  0  0  0  0  0  0  0  0  0  0  0
    4.3891   -7.2788    0.0000 C   0  0  0  0  0  0  0  0  0  0  0  0
    3.6746   -7.6913    0.0000 C   0  0  0  0  0  0  0  0  0  0  0  0
    3.6746   -8.5163    0.0000 C   0  0  0  0  0  0  0  0  0  0  0  0
    4.3891   -8.9288    0.0000 C   0  0  0  0  0  0  0  0  0  0  0  0
    5.1035   -8.5163    0.0000 C   0  0  0  0  0  0  0  0  0  0  0  0
    5.8180   -8.9288    0.0000 O   0  0  0  0  0  0  0  0  0  0  0  0
    6.5325   -7.6913    0.0000 O   0  0  0  0  0  0  0  0  0  0  0  0
    7.9614   -8.5163    0.0000 O   0  0  0  0  0  0  0  0  0  0  0  0
    7.2469   -9.7538    0.0000 O   0  0  0  0  0  0  0  0  0  0  0  0
    6.5325   -8.5163    0.0000 C   0  0  0  0  0  0  0  0  0  0  0  0
    7.2469   -8.9288    0.0000 C   0  0  0  0  0  0  0  0  0  0  0  0
 17  4  1  0  0  0  0
  2  1  1  0  0  0  0
  3  2  1  0  0  0  0
  4  3  1  0  0  0  0
 15 14  1  0  0  0  0
 10  5  1  0  0  0  0
 13  7  1  0  0  0  0
  7  6  1  0  0  0  0
  8  7  1  0  0  0  0
 14  9  1  0  0  0  0
 10  9  1  0  0  0  0
 11 10  1  0  0  0  0
 12 11  1  0  0  0  0
 13 12  1  0  0  0  0
 14 13  1  0  0  0  0
 19 15  1  0  0  0  0
 19 16  2  0  0  0  0
 20 17  1  0  0  0  0
 20 18  2  0  0  0  0
 20 19  1  0  0  0  0
M  END
>  <cdx:fragmentId>
11073

$$$$
