44421782.cdx
  Mrv1902 05222410202D          

 34 36  0  0  0  0            999 V2000
    4.7676  -14.6514    0.0000 C   0  0  0  0  0  0  0  0  0  0  0  0
    4.0531  -15.0639    0.0000 C   0  0  0  0  0  0  0  0  0  0  0  0
    4.0531  -15.8889    0.0000 C   0  0  0  0  0  0  0  0  0  0  0  0
    3.3387  -16.3014    0.0000 C   0  0  0  0  0  0  0  0  0  0  0  0
    2.6242  -15.8889    0.0000 C   0  0  0  0  0  0  0  0  0  0  0  0
    2.6242  -15.0639    0.0000 C   0  0  0  0  0  0  0  0  0  0  0  0
    3.3387  -14.6514    0.0000 C   0  0  0  0  0  0  0  0  0  0  0  0
    4.7676  -13.8264    0.0000 O   0  0  0  0  0  0  0  0  0  0  0  0
    5.4821  -15.0639    0.0000 O   0  0  0  0  0  0  0  0  0  0  0  0
    1.9097  -14.6514    0.0000 O   0  0  0  0  0  0  0  0  0  0  0  0
    1.9097  -16.3014    0.0000 O   0  0  0  0  0  0  0  0  0  0  0  0
    3.3387  -17.1264    0.0000 O   0  0  0  0  0  0  0  0  0  0  0  0
    6.1965  -14.6514    0.0000 C   0  0  0  0  0  0  0  0  0  0  0  0
    6.9110  -15.8889    0.0000 O   0  0  0  0  0  0  0  0  0  0  0  0
    6.9110  -15.0639    0.0000 C   0  0  1  0  0  0  0  0  0  0  0  0
    7.6255  -14.6514    0.0000 C   0  0  2  0  0  0  0  0  0  0  0  0
    8.3400  -15.0639    0.0000 C   0  0  1  0  0  0  0  0  0  0  0  0
    8.3400  -15.8889    0.0000 C   0  0  2  0  0  0  0  0  0  0  0  0
    7.6255  -16.3014    0.0000 C   0  0  2  0  0  0  0  0  0  0  0  0
    9.0544  -14.6514    0.0000 O   0  0  0  0  0  0  0  0  0  0  0  0
    9.7689  -15.0639    0.0000 C   0  0  0  0  0  0  0  0  0  0  0  0
   10.4834  -14.6514    0.0000 C   0  0  0  0  0  0  0  0  0  0  0  0
   10.4834  -13.8264    0.0000 C   0  0  0  0  0  0  0  0  0  0  0  0
   11.1978  -13.4139    0.0000 C   0  0  0  0  0  0  0  0  0  0  0  0
   11.9123  -13.8264    0.0000 C   0  0  0  0  0  0  0  0  0  0  0  0
   11.9123  -14.6514    0.0000 C   0  0  0  0  0  0  0  0  0  0  0  0
   11.1978  -15.0639    0.0000 C   0  0  0  0  0  0  0  0  0  0  0  0
    9.7689  -15.8889    0.0000 O   0  0  0  0  0  0  0  0  0  0  0  0
   12.6268  -15.0639    0.0000 O   0  0  0  0  0  0  0  0  0  0  0  0
   12.6268  -13.4139    0.0000 O   0  0  0  0  0  0  0  0  0  0  0  0
   11.1978  -12.5889    0.0000 O   0  0  0  0  0  0  0  0  0  0  0  0
    7.6255  -17.1264    0.0000 O   0  0  0  0  0  0  0  0  0  0  0  0
    9.0544  -16.3014    0.0000 O   0  0  0  0  0  0  0  0  0  0  0  0
    7.6255  -13.8264    0.0000 O   0  0  0  0  0  0  0  0  0  0  0  0
  1  2  1  0  0  0  0
  2  3  1  0  0  0  0
  3  4  2  0  0  0  0
  4  5  1  0  0  0  0
  5  6  2  0  0  0  0
  6  7  1  0  0  0  0
  2  7  2  0  0  0  0
  1  8  2  0  0  0  0
  1  9  1  0  0  0  0
  6 10  1  0  0  0  0
  5 11  1  0  0  0  0
  4 12  1  0  0  0  0
 14 15  1  0  0  0  0
 15 16  1  0  0  0  0
 16 17  1  0  0  0  0
 17 18  1  0  0  0  0
 18 19  1  0  0  0  0
 14 19  1  0  0  0  0
 21 22  1  0  0  0  0
 22 23  1  0  0  0  0
 23 24  2  0  0  0  0
 24 25  1  0  0  0  0
 25 26  2  0  0  0  0
 26 27  1  0  0  0  0
 22 27  2  0  0  0  0
 21 28  2  0  0  0  0
 26 29  1  0  0  0  0
 25 30  1  0  0  0  0
 24 31  1  0  0  0  0
 20 21  1  0  0  0  0
 17 20  1  6  0  0  0
 19 32  1  6  0  0  0
 18 33  1  1  0  0  0
 16 34  1  1  0  0  0
 15 13  1  6  0  0  0
  9 13  1  0  0  0  0
M  END
>  <cdx:groupId>
161517

>  <cdx:fragmentId>
161456

$$$$
