6421719.cdx
  Mrv1902 05222410192D          

 21 21  0  0  0  0            999 V2000
    8.3118   -8.2689    0.0000 C   0  0  0  0  0  0  0  0  0  0  0  0
    9.0262   -8.6814    0.0000 C   0  0  0  0  0  0  0  0  0  0  0  0
    8.3118   -7.4439    0.0000 O   0  0  0  0  0  0  0  0  0  0  0  0
    7.5973   -8.6814    0.0000 O   0  0  0  0  0  0  0  0  0  0  0  0
    9.0262   -9.5064    0.0000 O   0  0  0  0  0  0  0  0  0  0  0  0
    9.7407   -8.2689    0.0000 O   0  0  0  0  0  0  0  0  0  0  0  0
    6.8828   -8.2689    0.0000 C   0  0  0  0  0  0  0  0  0  0  0  0
    6.1684   -8.6814    0.0000 C   0  0  0  0  0  0  0  0  0  0  0  0
    5.4539   -8.2689    0.0000 C   0  0  0  0  0  0  0  0  0  0  0  0
    4.7394   -8.6814    0.0000 C   0  0  0  0  0  0  0  0  0  0  0  0
    4.0249   -8.2689    0.0000 C   0  0  0  0  0  0  0  0  0  0  0  0
    3.3105   -8.6814    0.0000 C   0  0  0  0  0  0  0  0  0  0  0  0
    2.5960   -8.2689    0.0000 C   0  0  0  0  0  0  0  0  0  0  0  0
    1.8815   -8.6814    0.0000 C   0  0  0  0  0  0  0  0  0  0  0  0
   10.4552   -8.6814    0.0000 C   0  0  0  0  0  0  0  0  0  0  0  0
   11.1697   -8.2689    0.0000 C   0  0  0  0  0  0  0  0  0  0  0  0
   11.1697   -7.4439    0.0000 C   0  0  0  0  0  0  0  0  0  0  0  0
   11.8841   -7.0314    0.0000 C   0  0  0  0  0  0  0  0  0  0  0  0
   12.5986   -7.4439    0.0000 C   0  0  0  0  0  0  0  0  0  0  0  0
   12.5986   -8.2689    0.0000 C   0  0  0  0  0  0  0  0  0  0  0  0
   11.8841   -8.6814    0.0000 C   0  0  0  0  0  0  0  0  0  0  0  0
  1  2  1  0  0  0  0
  1  3  2  0  0  0  0
  1  4  1  0  0  0  0
  2  5  2  0  0  0  0
  2  6  1  0  0  0  0
  7  8  1  0  0  0  0
  8  9  1  0  0  0  0
  9 10  1  0  0  0  0
 10 11  1  0  0  0  0
 11 12  1  0  0  0  0
 12 13  1  0  0  0  0
 13 14  1  0  0  0  0
  4  7  1  0  0  0  0
 16 17  1  0  0  0  0
 17 18  1  0  0  0  0
 18 19  1  0  0  0  0
 19 20  1  0  0  0  0
 20 21  1  0  0  0  0
 16 21  1  0  0  0  0
 15 16  1  0  0  0  0
  6 15  1  0  0  0  0
M  END
>  <cdx:groupId>
11373

>  <cdx:fragmentId>
11325

$$$$
