6421707.cdx
  Mrv1902 05222410282D          

 29 29  0  0  0  0            999 V2000
    3.5986   -8.6814    0.0000 S   0  0  0  0  0  0  0  0  0  0  0  0
    3.5986   -9.5064    0.0000 O   0  0  0  0  0  0  0  0  0  0  0  0
    4.3131   -8.2689    0.0000 O   0  0  0  0  0  0  0  0  0  0  0  0
    2.8842   -8.2689    0.0000 O   0  0  0  0  0  0  0  0  0  0  0  0
    5.0276   -8.6814    0.0000 C   0  0  0  0  0  0  0  0  0  0  0  0
    5.7421   -8.2689    0.0000 C   0  0  0  0  0  0  0  0  0  0  0  0
    6.4565   -8.6814    0.0000 C   0  0  0  0  0  0  0  0  0  0  0  0
    7.1710   -8.2689    0.0000 C   0  0  0  0  0  0  0  0  0  0  0  0
    7.8855   -8.6814    0.0000 C   0  0  0  0  0  0  0  0  0  0  0  0
    8.5999   -8.2689    0.0000 C   0  0  0  0  0  0  0  0  0  0  0  0
    9.3144   -8.6814    0.0000 C   0  0  0  0  0  0  0  0  0  0  0  0
   10.0289   -8.2689    0.0000 C   0  0  0  0  0  0  0  0  0  0  0  0
   10.7434   -8.6814    0.0000 C   0  0  0  0  0  0  0  0  0  0  0  0
   11.4578   -8.2689    0.0000 C   0  0  0  0  0  0  0  0  0  0  0  0
   12.1723   -8.6814    0.0000 C   0  0  0  0  0  0  0  0  0  0  0  0
   12.8868   -8.2689    0.0000 C   0  0  0  0  0  0  0  0  0  0  0  0
   13.6012   -8.6814    0.0000 C   0  0  0  0  0  0  0  0  0  0  0  0
   14.3157   -8.2689    0.0000 C   0  0  0  0  0  0  0  0  0  0  0  0
   15.0302   -8.6814    0.0000 C   0  0  0  0  0  0  0  0  0  0  0  0
   15.7446   -8.2689    0.0000 C   0  0  0  0  0  0  0  0  0  0  0  0
   16.4591   -8.6814    0.0000 C   0  0  0  0  0  0  0  0  0  0  0  0
   17.1736   -8.2689    0.0000 C   0  0  0  0  0  0  0  0  0  0  0  0
    2.1697   -8.6814    0.0000 C   0  0  0  0  0  0  0  0  0  0  0  0
    1.4552   -8.2689    0.0000 C   0  0  0  0  0  0  0  0  0  0  0  0
    0.7408   -8.6814    0.0000 C   0  0  0  0  0  0  0  0  0  0  0  0
    0.0263   -8.2689    0.0000 C   0  0  0  0  0  0  0  0  0  0  0  0
    0.0263   -7.4439    0.0000 C   0  0  0  0  0  0  0  0  0  0  0  0
    0.7408   -7.0314    0.0000 C   0  0  0  0  0  0  0  0  0  0  0  0
    1.4552   -7.4439    0.0000 C   0  0  0  0  0  0  0  0  0  0  0  0
  1  2  2  0  0  0  0
  1  3  1  0  0  0  0
  1  4  1  0  0  0  0
  5  6  1  0  0  0  0
  6  7  1  0  0  0  0
  7  8  1  0  0  0  0
  8  9  1  0  0  0  0
  9 10  1  0  0  0  0
 10 11  1  0  0  0  0
 11 12  1  0  0  0  0
 12 13  1  0  0  0  0
 13 14  1  0  0  0  0
 14 15  1  0  0  0  0
 15 16  1  0  0  0  0
 16 17  1  0  0  0  0
 17 18  1  0  0  0  0
 18 19  1  0  0  0  0
 19 20  1  0  0  0  0
 20 21  1  0  0  0  0
 21 22  1  0  0  0  0
  3  5  1  0  0  0  0
 24 25  1  0  0  0  0
 25 26  1  0  0  0  0
 26 27  1  0  0  0  0
 27 28  1  0  0  0  0
 28 29  1  0  0  0  0
 24 29  1  0  0  0  0
 23 24  1  0  0  0  0
  4 23  1  0  0  0  0
M  END
>  <cdx:groupId>
11302

>  <cdx:fragmentId>
11226

$$$$
