6421706.cdx
  Mrv1902 05222410282D          

 28 28  0  0  0  0            999 V2000
    3.5929   -7.9582    0.0000 S   0  0  0  0  0  0  0  0  0  0  0  0
    3.5929   -7.1332    0.0000 O   0  0  0  0  0  0  0  0  0  0  0  0
    4.3073   -8.3707    0.0000 O   0  0  0  0  0  0  0  0  0  0  0  0
    2.8784   -8.3707    0.0000 O   0  0  0  0  0  0  0  0  0  0  0  0
    5.0218   -7.9582    0.0000 C   0  0  0  0  0  0  0  0  0  0  0  0
    5.7363   -8.3707    0.0000 C   0  0  0  0  0  0  0  0  0  0  0  0
    6.4508   -7.9582    0.0000 C   0  0  0  0  0  0  0  0  0  0  0  0
    7.1652   -8.3707    0.0000 C   0  0  0  0  0  0  0  0  0  0  0  0
    7.8797   -7.9582    0.0000 C   0  0  0  0  0  0  0  0  0  0  0  0
    8.5942   -8.3707    0.0000 C   0  0  0  0  0  0  0  0  0  0  0  0
    9.3086   -7.9582    0.0000 C   0  0  0  0  0  0  0  0  0  0  0  0
   10.0231   -8.3707    0.0000 C   0  0  0  0  0  0  0  0  0  0  0  0
   10.7376   -7.9582    0.0000 C   0  0  0  0  0  0  0  0  0  0  0  0
   11.4521   -8.3707    0.0000 C   0  0  0  0  0  0  0  0  0  0  0  0
   12.1665   -7.9582    0.0000 C   0  0  0  0  0  0  0  0  0  0  0  0
   12.8810   -8.3707    0.0000 C   0  0  0  0  0  0  0  0  0  0  0  0
   13.5955   -7.9582    0.0000 C   0  0  0  0  0  0  0  0  0  0  0  0
   14.3099   -8.3707    0.0000 C   0  0  0  0  0  0  0  0  0  0  0  0
   15.0244   -7.9582    0.0000 C   0  0  0  0  0  0  0  0  0  0  0  0
   15.7389   -8.3707    0.0000 C   0  0  0  0  0  0  0  0  0  0  0  0
   16.4534   -7.9582    0.0000 C   0  0  0  0  0  0  0  0  0  0  0  0
    2.1639   -7.9582    0.0000 C   0  0  0  0  0  0  0  0  0  0  0  0
    1.4495   -8.3707    0.0000 C   0  0  0  0  0  0  0  0  0  0  0  0
    1.4495   -9.1957    0.0000 C   0  0  0  0  0  0  0  0  0  0  0  0
    0.7350   -9.6082    0.0000 C   0  0  0  0  0  0  0  0  0  0  0  0
    0.0205   -9.1957    0.0000 C   0  0  0  0  0  0  0  0  0  0  0  0
    0.0205   -8.3707    0.0000 C   0  0  0  0  0  0  0  0  0  0  0  0
    0.7350   -7.9582    0.0000 C   0  0  0  0  0  0  0  0  0  0  0  0
  1  2  2  0  0  0  0
  1  3  1  0  0  0  0
  1  4  1  0  0  0  0
  5  6  1  0  0  0  0
  6  7  1  0  0  0  0
  7  8  1  0  0  0  0
  8  9  1  0  0  0  0
  9 10  1  0  0  0  0
 10 11  1  0  0  0  0
 11 12  1  0  0  0  0
 12 13  1  0  0  0  0
 13 14  1  0  0  0  0
 14 15  1  0  0  0  0
 15 16  1  0  0  0  0
 16 17  1  0  0  0  0
 17 18  1  0  0  0  0
 18 19  1  0  0  0  0
 19 20  1  0  0  0  0
 20 21  1  0  0  0  0
  3  5  1  0  0  0  0
 23 24  1  0  0  0  0
 24 25  1  0  0  0  0
 25 26  1  0  0  0  0
 26 27  1  0  0  0  0
 27 28  1  0  0  0  0
 23 28  1  0  0  0  0
 22 23  1  0  0  0  0
  4 22  1  0  0  0  0
M  END
>  <cdx:groupId>
11207

>  <cdx:fragmentId>
11134

$$$$
