421909.cdx
  Mrv1902 05222410282D          

 20 20  0  0  0  0            999 V2000
    7.6042   -7.9582    0.0000 C   0  0  0  0  0  0  0  0  0  0  0  0
    6.8897   -8.3707    0.0000 C   0  0  0  0  0  0  0  0  0  0  0  0
    7.6042   -7.1332    0.0000 O   0  0  0  0  0  0  0  0  0  0  0  0
    8.3186   -8.3707    0.0000 O   0  0  0  0  0  0  0  0  0  0  0  0
    6.8897   -9.1957    0.0000 O   0  0  0  0  0  0  0  0  0  0  0  0
    6.1752   -7.9582    0.0000 O   0  0  0  0  0  0  0  0  0  0  0  0
    5.4608   -8.3707    0.0000 C   0  0  0  0  0  0  0  0  0  0  0  0
    4.7463   -7.9582    0.0000 C   0  0  0  0  0  0  0  0  0  0  0  0
    4.0318   -8.3707    0.0000 C   0  0  0  0  0  0  0  0  0  0  0  0
    4.0318   -9.1957    0.0000 C   0  0  0  0  0  0  0  0  0  0  0  0
    3.3173   -9.6082    0.0000 C   0  0  0  0  0  0  0  0  0  0  0  0
    2.6029   -9.1957    0.0000 C   0  0  0  0  0  0  0  0  0  0  0  0
    2.6029   -8.3707    0.0000 C   0  0  0  0  0  0  0  0  0  0  0  0
    3.3173   -7.9582    0.0000 C   0  0  0  0  0  0  0  0  0  0  0  0
    9.0331   -7.9582    0.0000 C   0  0  0  0  0  0  0  0  0  0  0  0
    9.7476   -8.3707    0.0000 C   0  0  0  0  0  0  0  0  0  0  0  0
   10.4621   -7.9582    0.0000 C   0  0  0  0  0  0  0  0  0  0  0  0
   11.1765   -8.3707    0.0000 C   0  0  0  0  0  0  0  0  0  0  0  0
   11.8910   -7.9582    0.0000 C   0  0  0  0  0  0  0  0  0  0  0  0
   11.1765   -9.1957    0.0000 C   0  0  0  0  0  0  0  0  0  0  0  0
  1  2  1  0  0  0  0
  1  3  2  0  0  0  0
  1  4  1  0  0  0  0
  2  5  2  0  0  0  0
  2  6  1  0  0  0  0
  7  8  1  0  0  0  0
  9 10  1  0  0  0  0
 10 11  2  0  0  0  0
 11 12  1  0  0  0  0
 12 13  2  0  0  0  0
 13 14  1  0  0  0  0
  9 14  2  0  0  0  0
  8  9  1  0  0  0  0
  6  7  1  0  0  0  0
 15 16  1  0  0  0  0
 16 17  1  0  0  0  0
 17 18  1  0  0  0  0
 18 19  1  0  0  0  0
 18 20  1  0  0  0  0
  4 15  1  0  0  0  0
M  END
>  <cdx:fragmentId>
11397

$$$$
