422.cdx
  Mrv1902 05222410242D          

  2  1  0  0  0  0            999 V2000
   15.0563  -17.2173    0.0000 I   0  0  0  0  0  0  0  0  0  0  0  0
   15.8813  -17.2173    0.0000 I   0  0  0  0  0  0  0  0  0  0  0  0
  1  2  1  0  0  0  0
M  END
>  <cdx:groupId>
4591

>  <cdx:fragmentId>
4589

$$$$
