42201.cdx
  Mrv1902 05222410202D          

 24 25  0  0  0  0            999 V2000
    6.8630   -4.4544    0.0000 C   0  0  0  0  0  0  0  0  0  0  0  0
    6.1485   -4.8669    0.0000 C   0  0  0  0  0  0  0  0  0  0  0  0
    5.4341   -4.4544    0.0000 C   0  0  0  0  0  0  0  0  0  0  0  0
    6.8630   -3.6294    0.0000 O   0  0  0  0  0  0  0  0  0  0  0  0
    7.5775   -4.8669    0.0000 N   0  0  0  0  0  0  0  0  0  0  0  0
    4.7196   -4.8669    0.0000 C   0  0  0  0  0  0  0  0  0  0  0  0
    4.0051   -4.4544    0.0000 C   0  0  0  0  0  0  0  0  0  0  0  0
    3.2907   -4.8669    0.0000 C   0  0  0  0  0  0  0  0  0  0  0  0
    3.2907   -5.6919    0.0000 C   0  0  0  0  0  0  0  0  0  0  0  0
    4.0051   -6.1044    0.0000 C   0  0  0  0  0  0  0  0  0  0  0  0
    4.7196   -5.6919    0.0000 C   0  0  0  0  0  0  0  0  0  0  0  0
    2.5762   -4.4544    0.0000 O   0  0  0  0  0  0  0  0  0  0  0  0
    1.8617   -4.8669    0.0000 C   0  0  0  0  0  0  0  0  0  0  0  0
    2.5762   -6.1044    0.0000 O   0  0  0  0  0  0  0  0  0  0  0  0
    8.2920   -4.4544    0.0000 C   0  0  0  0  0  0  0  0  0  0  0  0
    9.0064   -4.8669    0.0000 C   0  0  0  0  0  0  0  0  0  0  0  0
    9.7209   -4.4544    0.0000 C   0  0  0  0  0  0  0  0  0  0  0  0
    9.7209   -3.6294    0.0000 C   0  0  0  0  0  0  0  0  0  0  0  0
   10.4354   -3.2169    0.0000 C   0  0  0  0  0  0  0  0  0  0  0  0
   11.1498   -3.6294    0.0000 C   0  0  0  0  0  0  0  0  0  0  0  0
   11.1498   -4.4544    0.0000 C   0  0  0  0  0  0  0  0  0  0  0  0
   10.4354   -4.8669    0.0000 C   0  0  0  0  0  0  0  0  0  0  0  0
   11.8643   -3.2169    0.0000 O   0  0  0  0  0  0  0  0  0  0  0  0
    9.0064   -5.6919    0.0000 O   0  0  0  0  0  0  0  0  0  0  0  0
  1  2  1  0  0  0  0
  2  3  2  0  0  0  0
  1  4  2  0  0  0  0
  1  5  1  0  0  0  0
  6  7  1  0  0  0  0
  7  8  2  0  0  0  0
  8  9  1  0  0  0  0
  9 10  2  0  0  0  0
 10 11  1  0  0  0  0
  6 11  2  0  0  0  0
 12 13  1  0  0  0  0
  8 12  1  0  0  0  0
  9 14  1  0  0  0  0
  3  6  1  0  0  0  0
 15 16  1  0  0  0  0
 17 18  1  0  0  0  0
 18 19  2  0  0  0  0
 19 20  1  0  0  0  0
 20 21  2  0  0  0  0
 21 22  1  0  0  0  0
 17 22  2  0  0  0  0
 20 23  1  0  0  0  0
 16 17  1  0  0  0  0
 16 24  1  0  0  0  0
  5 15  1  0  0  0  0
M  END
>  <cdx:fragmentId>
94

$$$$
