4226.cdx
  Mrv1902 05222410242D          

 14 14  0  0  0  0            999 V2000
    5.0869   -7.7332    0.0000 C   0  0  0  0  0  0  0  0  0  0  0  0
    4.3745   -8.1492    0.0000 C   0  0  0  0  0  0  0  0  0  0  0  0
    4.3787   -8.9742    0.0000 C   0  0  0  0  0  0  0  0  0  0  0  0
    5.0952   -9.3831    0.0000 C   0  0  0  0  0  0  0  0  0  0  0  0
    5.8076   -8.9671    0.0000 C   0  0  0  0  0  0  0  0  0  0  0  0
    5.8035   -8.1421    0.0000 C   0  0  0  0  0  0  0  0  0  0  0  0
    3.6580   -7.7403    0.0000 O   0  0  0  0  0  0  0  0  0  0  0  0
    3.6663   -9.3903    0.0000 O   0  0  0  0  0  0  0  0  0  0  0  0
    6.5159   -7.7260    0.0000 C   0  0  0  0  0  0  0  0  0  0  0  0
    7.2324   -8.1350    0.0000 C   0  0  0  0  0  0  0  0  0  0  0  0
    7.2365   -8.9600    0.0000 O   0  0  0  0  0  0  0  0  0  0  0  0
    7.9448   -7.7189    0.0000 C   0  0  0  0  0  0  0  0  0  0  0  0
    7.9407   -6.8939    0.0000 O   0  0  0  0  0  0  0  0  0  0  0  0
    8.6613   -8.1278    0.0000 N   0  0  0  0  0  0  0  0  0  0  0  0
  1  2  2  0  0  0  0
  2  3  1  0  0  0  0
  3  4  2  0  0  0  0
  4  5  1  0  0  0  0
  5  6  2  0  0  0  0
  6  1  1  0  0  0  0
  2  7  1  0  0  0  0
  3  8  1  0  0  0  0
  6  9  1  0  0  0  0
  9 10  1  0  0  0  0
 10 11  1  0  0  0  0
 10 12  1  0  0  0  0
 12 13  2  0  0  0  0
 12 14  1  0  0  0  0
M  END
>  <cdx:fragmentId>
5

$$$$
