44423063.cdx
  Mrv1902 05222410262D          

 58 63  0  0  0  0            999 V2000
   12.6118  -12.5009    0.0000 O   0  0  0  0  0  0  0  0  0  0  0  0
   13.4188  -12.3294    0.0000 C   0  0  2  0  0  0  0  0  0  0  0  0
   13.6737  -11.5448    0.0000 C   0  0  1  0  0  0  0  0  0  0  0  0
   13.1217  -10.9317    0.0000 C   0  0  2  0  0  0  0  0  0  0  0  0
   12.3147  -11.1032    0.0000 C   0  0  1  0  0  0  0  0  0  0  0  0
   12.0598  -11.8878    0.0000 C   0  0  1  0  0  0  0  0  0  0  0  0
   13.9708  -12.9425    0.0000 O   0  0  0  0  0  0  0  0  0  0  0  0
   14.4807  -11.3732    0.0000 O   0  0  0  0  0  0  0  0  0  0  0  0
   13.3766  -10.1471    0.0000 O   0  0  0  0  0  0  0  0  0  0  0  0
   11.7627  -10.4901    0.0000 O   0  0  0  0  0  0  0  0  0  0  0  0
   11.2528  -12.0594    0.0000 C   0  0  0  0  0  0  0  0  0  0  0  0
   10.7008  -11.4463    0.0000 O   0  0  0  0  0  0  0  0  0  0  0  0
    9.6389  -12.4024    0.0000 O   0  0  0  0  0  0  0  0  0  0  0  0
    9.8938  -11.6178    0.0000 C   0  0  1  0  0  0  0  0  0  0  0  0
    9.3418  -11.0047    0.0000 C   0  0  2  0  0  0  0  0  0  0  0  0
    8.5348  -11.1762    0.0000 C   0  0  1  0  0  0  0  0  0  0  0  0
    8.2799  -11.9608    0.0000 C   0  0  2  0  0  0  0  0  0  0  0  0
    8.8319  -12.5739    0.0000 C   0  0  2  0  0  0  0  0  0  0  0  0
    7.4729  -12.1324    0.0000 O   0  0  0  0  0  0  0  0  0  0  0  0
    7.9828  -10.5631    0.0000 O   0  0  0  0  0  0  0  0  0  0  0  0
    9.5967  -10.2201    0.0000 O   0  0  0  0  0  0  0  0  0  0  0  0
    8.5770  -13.3586    0.0000 C   0  0  0  0  0  0  0  0  0  0  0  0
    7.7700  -13.5301    0.0000 O   0  0  0  0  0  0  0  0  0  0  0  0
    8.8741  -14.7563    0.0000 C   0  0  0  0  0  0  0  0  0  0  0  0
    8.0671  -14.9278    0.0000 C   0  0  0  0  0  0  0  0  0  0  0  0
    7.5151  -14.3147    0.0000 C   0  0  1  0  0  0  0  0  0  0  0  0
    6.7081  -14.4862    0.0000 C   0  0  0  0  0  0  0  0  0  0  0  0
    6.4531  -15.2709    0.0000 C   0  0  0  0  0  0  0  0  0  0  0  0
    5.6462  -15.4424    0.0000 C   0  0  1  0  0  0  0  0  0  0  0  0
    5.0941  -14.8293    0.0000 C   0  0  0  0  0  0  0  0  0  0  0  0
    7.8122  -15.7124    0.0000 C   0  0  0  0  0  0  0  0  0  0  0  0
    8.6191  -15.5409    0.0000 O   0  0  0  0  0  0  0  0  0  0  0  0
    1.7487  -17.3069    0.0000 C   0  0  0  0  0  0  0  0  0  0  0  0
    1.0343  -17.7194    0.0000 C   0  0  0  0  0  0  0  0  0  0  0  0
    1.0343  -18.5444    0.0000 C   0  0  1  0  0  0  0  0  0  0  0  0
    1.7487  -18.9569    0.0000 C   0  0  0  0  0  0  0  0  0  0  0  0
    2.4632  -18.5444    0.0000 C   0  0  0  0  0  0  0  0  0  0  0  0
    3.1777  -18.9569    0.0000 C   0  0  0  0  0  0  0  0  0  0  0  0
    3.8921  -18.5444    0.0000 C   0  0  0  0  0  0  0  0  0  0  0  0
    3.8921  -17.7194    0.0000 C   0  0  1  0  0  0  0  0  0  0  0  0
    4.6066  -17.3069    0.0000 C   0  0  2  0  0  0  0  0  0  0  0  0
    5.3912  -17.5619    0.0000 C   0  0  0  0  0  0  0  0  0  0  0  0
    5.8762  -16.8944    0.0000 C   0  0  0  0  0  0  0  0  0  0  0  0
    5.3912  -16.2270    0.0000 C   0  0  1  0  0  0  0  0  0  0  0  0
    4.6066  -16.4819    0.0000 C   0  0  1  0  0  0  0  0  0  0  0  0
    3.8921  -16.0694    0.0000 C   0  0  0  0  0  0  0  0  0  0  0  0
    3.1777  -16.4819    0.0000 C   0  0  2  0  0  0  0  0  0  0  0  0
    3.1777  -17.3069    0.0000 C   0  0  1  0  0  0  0  0  0  0  0  0
    2.4632  -17.7194    0.0000 C   0  0  2  0  0  0  0  0  0  0  0  0
    4.6066  -18.1319    0.0000 C   0  0  0  0  0  0  0  0  0  0  0  0
    4.6929  -15.6615    0.0000 C   0  0  0  0  0  0  0  0  0  0  0  0
    3.1777  -18.1319    0.0000 C   0  0  0  0  0  0  0  0  0  0  0  0
    2.1612  -19.6714    0.0000 C   0  0  0  0  0  0  0  0  0  0  0  0
    1.3362  -19.6714    0.0000 C   0  0  0  0  0  0  0  0  0  0  0  0
    2.4632  -16.0694    0.0000 O   0  0  0  0  0  0  0  0  0  0  0  0
    0.3198  -18.9569    0.0000 O   0  0  0  0  0  0  0  0  0  0  0  0
    3.8921  -16.8944    0.0000 H   0  0  0  0  0  0  0  0  0  0  0  0
    2.4632  -16.8944    0.0000 H   0  0  0  0  0  0  0  0  0  0  0  0
  1  2  1  0  0  0  0
  2  3  1  0  0  0  0
  3  4  1  0  0  0  0
  4  5  1  0  0  0  0
  5  6  1  0  0  0  0
  1  6  1  0  0  0  0
  2  7  1  6  0  0  0
  3  8  1  1  0  0  0
  4  9  1  6  0  0  0
  5 10  1  1  0  0  0
 13 14  1  0  0  0  0
 14 15  1  0  0  0  0
 15 16  1  0  0  0  0
 16 17  1  0  0  0  0
 17 18  1  0  0  0  0
 13 18  1  0  0  0  0
 17 19  1  6  0  0  0
 16 20  1  1  0  0  0
 15 21  1  6  0  0  0
 24 25  1  0  0  0  0
 25 26  1  0  0  0  0
 26 27  1  0  0  0  0
 27 28  1  0  0  0  0
 28 29  1  0  0  0  0
 29 30  1  6  0  0  0
 25 31  1  0  0  0  0
 25 32  1  0  0  0  0
 33 34  1  0  0  0  0
 34 35  1  0  0  0  0
 35 36  1  0  0  0  0
 36 37  1  0  0  0  0
 37 38  2  0  0  0  0
 38 39  1  0  0  0  0
 39 40  1  0  0  0  0
 40 41  1  0  0  0  0
 41 42  1  0  0  0  0
 42 43  1  0  0  0  0
 44 43  1  1  0  0  0
 44 45  1  0  0  0  0
 41 45  1  0  0  0  0
 45 46  1  0  0  0  0
 46 47  1  0  0  0  0
 47 48  1  0  0  0  0
 40 48  1  0  0  0  0
 48 49  1  0  0  0  0
 37 49  1  0  0  0  0
 33 49  1  0  0  0  0
 41 50  1  6  0  0  0
 45 51  1  1  0  0  0
 48 52  1  1  0  0  0
 36 53  1  0  0  0  0
 36 54  1  0  0  0  0
 47 55  1  6  0  0  0
 35 56  1  1  0  0  0
 29 44  1  0  0  0  0
 26 23  1  1  0  0  0
 22 23  1  0  0  0  0
 18 22  1  1  0  0  0
 14 12  1  1  0  0  0
 11 12  1  0  0  0  0
  6 11  1  6  0  0  0
 40 57  1  1  0  0  0
 49 58  1  6  0  0  0
M  END
>  <cdx:groupId>
161702

>  <cdx:fragmentId>
161590

$$$$
