44423068.cdx
  Mrv1902 05222410182D          

 58 63  0  0  0  0            999 V2000
    2.2745  -18.7917    0.0000 O   0  0  0  0  0  0  0  0  0  0  0  0
    2.9889  -18.3792    0.0000 C   0  0  2  0  0  0  0  0  0  0  0  0
    2.9889  -17.5542    0.0000 C   0  0  1  0  0  0  0  0  0  0  0  0
    2.2745  -17.1417    0.0000 C   0  0  2  0  0  0  0  0  0  0  0  0
    1.5600  -17.5542    0.0000 C   0  0  1  0  0  0  0  0  0  0  0  0
    1.5600  -18.3792    0.0000 C   0  0  1  0  0  0  0  0  0  0  0  0
    3.7034  -17.1417    0.0000 O   0  0  0  0  0  0  0  0  0  0  0  0
    2.2745  -16.3167    0.0000 O   0  0  0  0  0  0  0  0  0  0  0  0
    0.8455  -17.1417    0.0000 O   0  0  0  0  0  0  0  0  0  0  0  0
    0.8455  -18.7917    0.0000 C   0  0  0  0  0  0  0  0  0  0  0  0
    0.1311  -18.3792    0.0000 O   0  0  0  0  0  0  0  0  0  0  0  0
    3.7034  -18.7917    0.0000 O   0  0  0  0  0  0  0  0  0  0  0  0
    5.1324  -17.1417    0.0000 C   0  0  0  0  0  0  0  0  0  0  0  0
    4.4179  -17.5542    0.0000 C   0  0  0  0  0  0  0  0  0  0  0  0
    4.4179  -18.3792    0.0000 C   0  0  1  0  0  0  0  0  0  0  0  0
    5.1324  -18.7917    0.0000 C   0  0  0  0  0  0  0  0  0  0  0  0
    5.8468  -18.3792    0.0000 C   0  0  0  0  0  0  0  0  0  0  0  0
    6.5613  -18.7917    0.0000 C   0  0  0  0  0  0  0  0  0  0  0  0
    7.2758  -18.3792    0.0000 C   0  0  0  0  0  0  0  0  0  0  0  0
    7.2758  -17.5542    0.0000 C   0  0  1  0  0  0  0  0  0  0  0  0
    7.9902  -17.1417    0.0000 C   0  0  2  0  0  0  0  0  0  0  0  0
    8.7749  -17.3967    0.0000 C   0  0  0  0  0  0  0  0  0  0  0  0
    9.2598  -16.7292    0.0000 C   0  0  0  0  0  0  0  0  0  0  0  0
    8.7749  -16.0618    0.0000 C   0  0  1  0  0  0  0  0  0  0  0  0
    7.9902  -16.3167    0.0000 C   0  0  1  0  0  0  0  0  0  0  0  0
    7.2758  -15.9042    0.0000 C   0  0  0  0  0  0  0  0  0  0  0  0
    6.5613  -16.3167    0.0000 C   0  0  2  0  0  0  0  0  0  0  0  0
    6.5613  -17.1417    0.0000 C   0  0  1  0  0  0  0  0  0  0  0  0
    5.8468  -17.5542    0.0000 C   0  0  2  0  0  0  0  0  0  0  0  0
    7.9902  -17.9667    0.0000 C   0  0  0  0  0  0  0  0  0  0  0  0
    8.0765  -15.4963    0.0000 C   0  0  0  0  0  0  0  0  0  0  0  0
    6.5613  -17.9667    0.0000 C   0  0  0  0  0  0  0  0  0  0  0  0
    5.5449  -19.5062    0.0000 C   0  0  0  0  0  0  0  0  0  0  0  0
    4.7199  -19.5062    0.0000 C   0  0  0  0  0  0  0  0  0  0  0  0
    8.4778  -14.6641    0.0000 C   0  0  0  0  0  0  0  0  0  0  0  0
    9.0298  -15.2772    0.0000 C   0  0  2  0  0  0  0  0  0  0  0  0
    9.8368  -15.1057    0.0000 C   0  0  0  0  0  0  0  0  0  0  0  0
   10.0917  -14.3210    0.0000 C   0  0  0  0  0  0  0  0  0  0  0  0
   10.8987  -14.1495    0.0000 C   0  0  2  0  0  0  0  0  0  0  0  0
   11.1536  -13.3649    0.0000 C   0  0  0  0  0  0  0  0  0  0  0  0
   10.3690  -13.1099    0.0000 C   0  0  0  0  0  0  0  0  0  0  0  0
   11.9606  -13.1934    0.0000 O   0  0  0  0  0  0  0  0  0  0  0  0
   13.0225  -12.2372    0.0000 O   0  0  0  0  0  0  0  0  0  0  0  0
   12.2155  -12.4087    0.0000 C   0  0  2  0  0  0  0  0  0  0  0  0
   11.6635  -11.7956    0.0000 C   0  0  1  0  0  0  0  0  0  0  0  0
   11.9184  -11.0110    0.0000 C   0  0  2  0  0  0  0  0  0  0  0  0
   12.7254  -10.8395    0.0000 C   0  0  1  0  0  0  0  0  0  0  0  0
   13.2774  -11.4526    0.0000 C   0  0  1  0  0  0  0  0  0  0  0  0
   14.0844  -11.2811    0.0000 C   0  0  0  0  0  0  0  0  0  0  0  0
   14.6364  -11.8942    0.0000 O   0  0  0  0  0  0  0  0  0  0  0  0
   12.9803  -10.0549    0.0000 O   0  0  0  0  0  0  0  0  0  0  0  0
   11.3664  -10.3979    0.0000 O   0  0  0  0  0  0  0  0  0  0  0  0
   10.8565  -11.9672    0.0000 O   0  0  0  0  0  0  0  0  0  0  0  0
   10.9821  -12.5579    0.0000 C   0  0  0  0  0  0  0  0  0  0  0  0
   11.4507  -14.7626    0.0000 O   0  0  0  0  0  0  0  0  0  0  0  0
    5.8468  -15.9042    0.0000 O   0  0  0  0  0  0  0  0  0  0  0  0
    7.2758  -16.7292    0.0000 H   0  0  0  0  0  0  0  0  0  0  0  0
    5.8468  -16.7292    0.0000 H   0  0  0  0  0  0  0  0  0  0  0  0
  1  2  1  0  0  0  0
  2  3  1  0  0  0  0
  3  4  1  0  0  0  0
  4  5  1  0  0  0  0
  5  6  1  0  0  0  0
  1  6  1  0  0  0  0
  3  7  1  1  0  0  0
  4  8  1  6  0  0  0
  5  9  1  1  0  0  0
 10 11  1  0  0  0  0
  6 10  1  6  0  0  0
 13 14  1  0  0  0  0
 14 15  1  0  0  0  0
 15 16  1  0  0  0  0
 16 17  1  0  0  0  0
 17 18  2  0  0  0  0
 18 19  1  0  0  0  0
 19 20  1  0  0  0  0
 20 21  1  0  0  0  0
 21 22  1  0  0  0  0
 22 23  1  0  0  0  0
 24 23  1  1  0  0  0
 24 25  1  0  0  0  0
 21 25  1  0  0  0  0
 25 26  1  0  0  0  0
 26 27  1  0  0  0  0
 27 28  1  0  0  0  0
 20 28  1  0  0  0  0
 28 29  1  0  0  0  0
 17 29  1  0  0  0  0
 13 29  1  0  0  0  0
 21 30  1  6  0  0  0
 25 31  1  1  0  0  0
 28 32  1  1  0  0  0
 16 33  1  0  0  0  0
 16 34  1  0  0  0  0
 36 35  1  6  0  0  0
 36 37  1  0  0  0  0
 37 38  1  0  0  0  0
 38 39  1  0  0  0  0
 39 40  1  0  0  0  0
 40 41  1  0  0  0  0
 43 44  1  0  0  0  0
 44 45  1  0  0  0  0
 45 46  1  0  0  0  0
 46 47  1  0  0  0  0
 47 48  1  0  0  0  0
 43 48  1  0  0  0  0
 49 50  1  0  0  0  0
 48 49  1  1  0  0  0
 47 51  1  6  0  0  0
 46 52  1  1  0  0  0
 45 53  1  6  0  0  0
 44 42  1  1  0  0  0
 40 42  1  0  0  0  0
 40 54  1  0  0  0  0
 39 55  1  6  0  0  0
 24 36  1  0  0  0  0
 27 56  1  6  0  0  0
 15 12  1  1  0  0  0
  2 12  1  6  0  0  0
 20 57  1  1  0  0  0
 29 58  1  6  0  0  0
M  END
>  <cdx:groupId>
161893

>  <cdx:fragmentId>
161741

$$$$
