44423069.cdx
  Mrv1902 05222410182D          

 69 75  0  0  0  0            999 V2000
    2.4637  -16.5423    0.0000 O   0  0  0  0  0  0  0  0  0  0  0  0
    1.7492  -16.9548    0.0000 C   0  0  1  0  0  0  0  0  0  0  0  0
    1.7492  -17.7798    0.0000 C   0  0  2  0  0  0  0  0  0  0  0  0
    2.4637  -18.1923    0.0000 C   0  0  1  0  0  0  0  0  0  0  0  0
    3.1782  -17.7798    0.0000 C   0  0  2  0  0  0  0  0  0  0  0  0
    3.1782  -16.9548    0.0000 C   0  0  2  0  0  0  0  0  0  0  0  0
    1.0348  -18.1923    0.0000 O   0  0  0  0  0  0  0  0  0  0  0  0
    2.4637  -19.0173    0.0000 O   0  0  0  0  0  0  0  0  0  0  0  0
    3.8927  -18.1923    0.0000 O   0  0  0  0  0  0  0  0  0  0  0  0
    3.8927  -16.5423    0.0000 O   0  0  0  0  0  0  0  0  0  0  0  0
    4.6071  -16.9548    0.0000 C   0  0  0  0  0  0  0  0  0  0  0  0
    6.0361  -16.9548    0.0000 O   0  0  0  0  0  0  0  0  0  0  0  0
    5.3216  -16.5423    0.0000 C   0  0  1  0  0  0  0  0  0  0  0  0
    5.3216  -15.7173    0.0000 C   0  0  2  0  0  0  0  0  0  0  0  0
    6.0361  -15.3048    0.0000 C   0  0  1  0  0  0  0  0  0  0  0  0
    6.7505  -15.7173    0.0000 C   0  0  2  0  0  0  0  0  0  0  0  0
    6.7505  -16.5423    0.0000 C   0  0  2  0  0  0  0  0  0  0  0  0
    7.4650  -16.9548    0.0000 O   0  0  0  0  0  0  0  0  0  0  0  0
    8.8940  -15.3048    0.0000 C   0  0  0  0  0  0  0  0  0  0  0  0
    8.1795  -15.7173    0.0000 C   0  0  0  0  0  0  0  0  0  0  0  0
    8.1795  -16.5423    0.0000 C   0  0  1  0  0  0  0  0  0  0  0  0
    8.8940  -16.9548    0.0000 C   0  0  0  0  0  0  0  0  0  0  0  0
    9.6084  -16.5423    0.0000 C   0  0  0  0  0  0  0  0  0  0  0  0
   10.3229  -16.9548    0.0000 C   0  0  0  0  0  0  0  0  0  0  0  0
   11.0374  -16.5423    0.0000 C   0  0  0  0  0  0  0  0  0  0  0  0
   11.0374  -15.7173    0.0000 C   0  0  1  0  0  0  0  0  0  0  0  0
   11.7518  -15.3048    0.0000 C   0  0  2  0  0  0  0  0  0  0  0  0
   12.5365  -15.5597    0.0000 C   0  0  0  0  0  0  0  0  0  0  0  0
   13.0214  -14.8923    0.0000 C   0  0  0  0  0  0  0  0  0  0  0  0
   12.5365  -14.2249    0.0000 C   0  0  1  0  0  0  0  0  0  0  0  0
   11.7518  -14.4798    0.0000 C   0  0  1  0  0  0  0  0  0  0  0  0
   11.0374  -14.0673    0.0000 C   0  0  0  0  0  0  0  0  0  0  0  0
   10.3229  -14.4798    0.0000 C   0  0  2  0  0  0  0  0  0  0  0  0
   10.3229  -15.3048    0.0000 C   0  0  1  0  0  0  0  0  0  0  0  0
    9.6084  -15.7173    0.0000 C   0  0  2  0  0  0  0  0  0  0  0  0
   11.7518  -16.1298    0.0000 C   0  0  0  0  0  0  0  0  0  0  0  0
   11.8381  -13.6593    0.0000 C   0  0  0  0  0  0  0  0  0  0  0  0
   10.3229  -16.1298    0.0000 C   0  0  0  0  0  0  0  0  0  0  0  0
    9.3065  -17.6693    0.0000 C   0  0  0  0  0  0  0  0  0  0  0  0
    8.4815  -17.6693    0.0000 C   0  0  0  0  0  0  0  0  0  0  0  0
   12.2394  -12.8271    0.0000 C   0  0  0  0  0  0  0  0  0  0  0  0
   12.7914  -13.4402    0.0000 C   0  0  2  0  0  0  0  0  0  0  0  0
   13.5984  -13.2687    0.0000 C   0  0  0  0  0  0  0  0  0  0  0  0
   13.8533  -12.4841    0.0000 C   0  0  0  0  0  0  0  0  0  0  0  0
   14.6603  -12.3126    0.0000 C   0  0  2  0  0  0  0  0  0  0  0  0
   15.2123  -12.9257    0.0000 C   0  0  0  0  0  0  0  0  0  0  0  0
   16.0193  -12.7541    0.0000 C   0  0  0  0  0  0  0  0  0  0  0  0
   14.9152  -11.5279    0.0000 O   0  0  0  0  0  0  0  0  0  0  0  0
   16.2742  -11.9695    0.0000 O   0  0  0  0  0  0  0  0  0  0  0  0
   15.7222  -11.3564    0.0000 C   0  0  2  0  0  0  0  0  0  0  0  0
   15.9771  -10.5718    0.0000 C   0  0  1  0  0  0  0  0  0  0  0  0
   16.7841  -10.4003    0.0000 C   0  0  2  0  0  0  0  0  0  0  0  0
   17.3361  -11.0134    0.0000 C   0  0  1  0  0  0  0  0  0  0  0  0
   17.0812  -11.7980    0.0000 C   0  0  1  0  0  0  0  0  0  0  0  0
   17.6332  -12.4111    0.0000 C   0  0  0  0  0  0  0  0  0  0  0  0
   18.4402  -12.2396    0.0000 O   0  0  0  0  0  0  0  0  0  0  0  0
   18.1431  -10.8418    0.0000 O   0  0  0  0  0  0  0  0  0  0  0  0
   17.0390   -9.6156    0.0000 O   0  0  0  0  0  0  0  0  0  0  0  0
   15.4251   -9.9587    0.0000 O   0  0  0  0  0  0  0  0  0  0  0  0
   14.9574  -13.7103    0.0000 C   0  0  0  0  0  0  0  0  0  0  0  0
   15.7643  -13.5388    0.0000 O   0  0  0  0  0  0  0  0  0  0  0  0
    9.6084  -14.0673    0.0000 O   0  0  0  0  0  0  0  0  0  0  0  0
    7.4650  -15.3048    0.0000 O   0  0  0  0  0  0  0  0  0  0  0  0
    6.0361  -14.4798    0.0000 O   0  0  0  0  0  0  0  0  0  0  0  0
    4.6071  -15.3048    0.0000 O   0  0  0  0  0  0  0  0  0  0  0  0
    1.0348  -16.5423    0.0000 C   0  0  0  0  0  0  0  0  0  0  0  0
    0.3203  -16.9548    0.0000 O   0  0  0  0  0  0  0  0  0  0  0  0
   11.0374  -14.8923    0.0000 H   0  0  0  0  0  0  0  0  0  0  0  0
    9.6084  -14.8923    0.0000 H   0  0  0  0  0  0  0  0  0  0  0  0
  1  2  1  0  0  0  0
  2  3  1  0  0  0  0
  3  4  1  0  0  0  0
  4  5  1  0  0  0  0
  5  6  1  0  0  0  0
  1  6  1  0  0  0  0
  3  7  1  6  0  0  0
  4  8  1  1  0  0  0
  5  9  1  6  0  0  0
 10 11  1  0  0  0  0
 12 13  1  0  0  0  0
 13 14  1  0  0  0  0
 14 15  1  0  0  0  0
 15 16  1  0  0  0  0
 16 17  1  0  0  0  0
 12 17  1  0  0  0  0
 19 20  1  0  0  0  0
 20 21  1  0  0  0  0
 21 22  1  0  0  0  0
 22 23  1  0  0  0  0
 23 24  2  0  0  0  0
 24 25  1  0  0  0  0
 25 26  1  0  0  0  0
 26 27  1  0  0  0  0
 27 28  1  0  0  0  0
 28 29  1  0  0  0  0
 30 29  1  1  0  0  0
 30 31  1  0  0  0  0
 27 31  1  0  0  0  0
 31 32  1  0  0  0  0
 32 33  1  0  0  0  0
 33 34  1  0  0  0  0
 26 34  1  0  0  0  0
 34 35  1  0  0  0  0
 23 35  1  0  0  0  0
 19 35  1  0  0  0  0
 27 36  1  6  0  0  0
 31 37  1  1  0  0  0
 34 38  1  1  0  0  0
 22 39  1  0  0  0  0
 22 40  1  0  0  0  0
 42 41  1  6  0  0  0
 42 43  1  0  0  0  0
 43 44  1  0  0  0  0
 44 45  1  0  0  0  0
 45 46  1  0  0  0  0
 46 47  1  0  0  0  0
 49 50  1  0  0  0  0
 50 51  1  0  0  0  0
 51 52  1  0  0  0  0
 52 53  1  0  0  0  0
 53 54  1  0  0  0  0
 49 54  1  0  0  0  0
 55 56  1  0  0  0  0
 54 55  1  1  0  0  0
 53 57  1  6  0  0  0
 52 58  1  1  0  0  0
 51 59  1  6  0  0  0
 50 48  1  1  0  0  0
 45 48  1  1  0  0  0
 46 60  1  0  0  0  0
 46 61  1  0  0  0  0
 30 42  1  0  0  0  0
 33 62  1  6  0  0  0
 21 18  1  1  0  0  0
 17 18  1  6  0  0  0
 16 63  1  1  0  0  0
 15 64  1  6  0  0  0
 14 65  1  1  0  0  0
 13 11  1  6  0  0  0
  6 10  1  1  0  0  0
 66 67  1  0  0  0  0
  2 66  1  1  0  0  0
 26 68  1  1  0  0  0
 35 69  1  6  0  0  0
M  END
>  <cdx:groupId>
162119

>  <cdx:fragmentId>
161945

$$$$
