423265 cdx.cdx
  Mrv1902 05222410272D          

 18 16  0  0  0  0            999 V2000
   12.5228   -6.1116    0.0000 Na  0  3  0  0  0  0  0  0  0  0  0  0
   11.0939   -6.1116    0.0000 S   0  0  0  0  0  0  0  0  0  0  0  0
   11.5064   -5.3971    0.0000 O   0  0  0  0  0  0  0  0  0  0  0  0
   10.6814   -6.8261    0.0000 O   0  0  0  0  0  0  0  0  0  0  0  0
   10.3794   -5.6991    0.0000 O   0  0  0  0  0  0  0  0  0  0  0  0
   11.8084   -6.5241    0.0000 O   0  5  0  0  0  0  0  0  0  0  0  0
    9.6650   -6.1116    0.0000 C   0  0  0  0  0  0  0  0  0  0  0  0
    8.9505   -5.6991    0.0000 C   0  0  0  0  0  0  0  0  0  0  0  0
    8.2360   -6.1116    0.0000 C   0  0  0  0  0  0  0  0  0  0  0  0
    7.5215   -5.6991    0.0000 C   0  0  0  0  0  0  0  0  0  0  0  0
    6.8071   -6.1116    0.0000 C   0  0  0  0  0  0  0  0  0  0  0  0
    6.0926   -5.6991    0.0000 C   0  0  0  0  0  0  0  0  0  0  0  0
    5.3781   -6.1116    0.0000 C   0  0  0  0  0  0  0  0  0  0  0  0
    4.6637   -5.6991    0.0000 C   0  0  0  0  0  0  0  0  0  0  0  0
    3.9492   -6.1116    0.0000 C   0  0  0  0  0  0  0  0  0  0  0  0
    3.2347   -5.6991    0.0000 C   0  0  0  0  0  0  0  0  0  0  0  0
    2.5202   -6.1116    0.0000 C   0  0  0  0  0  0  0  0  0  0  0  0
    1.8058   -5.6991    0.0000 C   0  0  0  0  0  0  0  0  0  0  0  0
  2  3  2  0  0  0  0
  2  4  2  0  0  0  0
  2  5  1  0  0  0  0
  2  6  1  0  0  0  0
  7  8  1  0  0  0  0
  8  9  1  0  0  0  0
  9 10  1  0  0  0  0
 10 11  1  0  0  0  0
 11 12  1  0  0  0  0
 12 13  1  0  0  0  0
 13 14  1  0  0  0  0
 14 15  1  0  0  0  0
 15 16  1  0  0  0  0
 16 17  1  0  0  0  0
 17 18  1  0  0  0  0
  5  7  1  0  0  0  0
M  CHG  2   1   1   6  -1
M  END
>  <cdx:groupId>
4952

>  <cdx:fragmentId>
4915

$$$$
