423409.cdx
  Mrv1902 05222410222D          

 43 46  0  0  0  0            999 V2000
    9.0358   -8.1241    0.0000 O   0  0  0  0  0  0  0  0  0  0  0  0
    9.7488   -8.5392    0.0000 C   0  0  0  0  0  0  0  0  0  0  0  0
   10.4648   -8.1294    0.0000 C   0  0  0  0  0  0  0  0  0  0  0  0
   11.1777   -8.5445    0.0000 C   0  0  0  0  0  0  0  0  0  0  0  0
   11.8937   -8.1347    0.0000 C   0  0  0  0  0  0  0  0  0  0  0  0
   12.6066   -8.5499    0.0000 C   0  0  0  0  0  0  0  0  0  0  0  0
   12.6035   -9.3749    0.0000 C   0  0  0  0  0  0  0  0  0  0  0  0
   11.8875   -9.7847    0.0000 C   0  0  0  0  0  0  0  0  0  0  0  0
   11.1746   -9.3695    0.0000 C   0  0  0  0  0  0  0  0  0  0  0  0
    5.4620   -8.5232    0.0000 O   0  0  0  0  0  0  0  0  0  0  0  0
    4.7673   -7.2745    0.0000 O   0  0  0  0  0  0  0  0  0  0  0  0
    4.7541   -8.0994    0.0000 C   0  0  2  0  0  0  0  0  0  0  0  0
    4.0332   -8.5005    0.0000 C   0  0  1  0  0  0  0  0  0  0  0  0
    3.3254   -8.0767    0.0000 C   0  0  2  0  0  0  0  0  0  0  0  0
    3.3385   -7.2518    0.0000 C   0  0  1  0  0  0  0  0  0  0  0  0
    4.0595   -6.8507    0.0000 C   0  0  1  0  0  0  0  0  0  0  0  0
    4.0726   -6.0258    0.0000 C   0  0  0  0  0  0  0  0  0  0  0  0
    3.3581   -5.6133    0.0000 O   0  0  0  0  0  0  0  0  0  0  0  0
    2.6307   -6.8280    0.0000 O   0  0  0  0  0  0  0  0  0  0  0  0
    2.6044   -8.4778    0.0000 O   0  0  0  0  0  0  0  0  0  0  0  0
    4.0201   -9.3254    0.0000 O   0  0  0  0  0  0  0  0  0  0  0  0
    9.0297   -9.7740    0.0000 O   0  0  0  0  0  0  0  0  0  0  0  0
    6.1718   -9.7634    0.0000 O   0  0  0  0  0  0  0  0  0  0  0  0
    6.1780   -8.1134    0.0000 C   0  0  0  0  0  0  0  0  0  0  0  0
    6.8909   -8.5286    0.0000 C   0  0  2  0  0  0  0  0  0  0  0  0
    6.8878   -9.3536    0.0000 C   0  0  2  0  0  0  0  0  0  0  0  0
    7.6007   -9.7687    0.0000 C   0  0  1  0  0  0  0  0  0  0  0  0
    8.3167   -9.3589    0.0000 C   0  0  2  0  0  0  0  0  0  0  0  0
    8.3198   -8.5339    0.0000 C   0  0  1  0  0  0  0  0  0  0  0  0
    7.6069   -8.1187    0.0000 O   0  0  0  0  0  0  0  0  0  0  0  0
    7.5977  -10.5937    0.0000 O   0  0  0  0  0  0  0  0  0  0  0  0
    4.7398  -10.5831    0.0000 C   0  0  0  0  0  0  0  0  0  0  0  0
    4.7337  -12.2331    0.0000 O   0  0  0  0  0  0  0  0  0  0  0  0
    6.1595  -13.0634    0.0000 O   0  0  0  0  0  0  0  0  0  0  0  0
    7.5915  -12.2437    0.0000 O   0  0  0  0  0  0  0  0  0  0  0  0
    5.4527  -10.9982    0.0000 C   0  0  1  0  0  0  0  0  0  0  0  0
    5.4497  -11.8232    0.0000 C   0  0  1  0  0  0  0  0  0  0  0  0
    6.1626  -12.2384    0.0000 C   0  0  2  0  0  0  0  0  0  0  0  0
    6.8786  -11.8285    0.0000 C   0  0  2  0  0  0  0  0  0  0  0  0
    6.8817  -11.0035    0.0000 C   0  0  1  0  0  0  0  0  0  0  0  0
    6.1687  -10.5884    0.0000 O   0  0  0  0  0  0  0  0  0  0  0  0
   13.3226   -8.1400    0.0000 O   0  0  0  0  0  0  0  0  0  0  0  0
   13.3165   -9.7900    0.0000 O   0  0  0  0  0  0  0  0  0  0  0  0
 40 31  1  1  0  0  0
 27 31  1  1  0  0  0
 29  1  1  1  0  0  0
 28 22  1  6  0  0  0
 26 23  1  6  0  0  0
 25 24  1  1  0  0  0
 24 10  1  0  0  0  0
 30 25  1  0  0  0  0
 26 25  1  0  0  0  0
 27 26  1  0  0  0  0
 28 27  1  0  0  0  0
 29 28  1  0  0  0  0
 30 29  1  0  0  0  0
 36 32  1  6  0  0  0
 37 33  1  1  0  0  0
 38 34  1  6  0  0  0
 39 35  1  6  0  0  0
 41 36  1  0  0  0  0
 37 36  1  0  0  0  0
 38 37  1  0  0  0  0
 39 38  1  0  0  0  0
 40 39  1  0  0  0  0
 41 40  1  0  0  0  0
  2  3  1  0  0  0  0
  1  2  1  0  0  0  0
  4  5  1  0  0  0  0
  5  6  2  0  0  0  0
  6  7  1  0  0  0  0
  7  8  2  0  0  0  0
  8  9  1  0  0  0  0
  4  9  2  0  0  0  0
  3  4  1  0  0  0  0
 11 12  1  0  0  0  0
 12 13  1  0  0  0  0
 13 14  1  0  0  0  0
 14 15  1  0  0  0  0
 15 16  1  0  0  0  0
 11 16  1  0  0  0  0
 17 18  1  0  0  0  0
 16 17  1  1  0  0  0
 15 19  1  6  0  0  0
 14 20  1  1  0  0  0
 13 21  1  6  0  0  0
 12 10  1  1  0  0  0
  6 42  1  0  0  0  0
  7 43  1  0  0  0  0
M  END
>  <cdx:groupId>
243632

>  <cdx:fragmentId>
243541

$$$$
