423531.cdx
  Mrv1902 05222410182D          

 39 42  0  0  0  0            999 V2000
   10.1828   -7.9579    0.0000 H   0  0  0  0  0  0  0  0  0  0  0  0
   11.9334   -9.4624    0.0000 H   0  0  0  0  0  0  0  0  0  0  0  0
   11.8576  -10.1273    0.0000 H   0  0  0  0  0  0  0  0  0  0  0  0
    9.4505  -12.2487    0.0000 O   0  0  0  0  0  0  0  0  0  0  0  0
   10.0592  -12.7556    0.0000 O   0  0  0  0  0  0  0  0  0  0  0  0
   12.3773  -12.2898    0.0000 O   0  0  0  0  0  0  0  0  0  0  0  0
   11.5615  -12.4128    0.0000 C   0  0  0  0  0  0  0  0  0  0  0  0
    7.5032  -11.0244    0.0000 C   0  0  0  0  0  0  0  0  0  0  0  0
   11.4401   -7.6327    0.0000 C   0  0  0  0  0  0  0  0  0  0  0  0
   12.0658   -8.1704    0.0000 C   0  0  0  0  0  0  0  0  0  0  0  0
    8.3098   -9.8075    0.0000 C   0  0  0  0  0  0  0  0  0  0  0  0
   10.0592   -9.2933    0.0000 O   0  0  0  0  0  0  0  0  0  0  0  0
   10.2428  -10.0976    0.0000 C   0  0  0  0  0  0  0  0  0  0  0  0
    9.1348   -9.8075    0.0000 C   0  0  2  0  0  0  0  0  0  0  0  0
    9.5066   -8.9571    0.0000 C   0  0  0  0  0  0  0  0  0  0  0  0
   10.4114   -8.7506    0.0000 C   0  0  1  0  0  0  0  0  0  0  0  0
   11.2873   -8.4434    0.0000 C   0  0  0  0  0  0  0  0  0  0  0  0
   11.1154   -9.3555    0.0000 C   0  0  1  0  0  0  0  0  0  0  0  0
   11.0471  -10.2811    0.0000 C   0  0  2  0  0  0  0  0  0  0  0  0
   11.4050  -11.0244    0.0000 C   0  0  0  0  0  0  0  0  0  0  0  0
   11.0471  -11.7677    0.0000 C   0  0  0  0  0  0  0  0  0  0  0  0
   10.2428  -11.9513    0.0000 C   0  0  2  0  0  0  0  0  0  0  0  0
    9.5978  -11.4369    0.0000 C   0  0  1  0  0  0  0  0  0  0  0  0
    8.8131  -11.6919    0.0000 C   0  0  2  0  0  0  0  0  0  0  0  0
    8.3282  -11.0244    0.0000 C   0  0  0  0  0  0  0  0  0  0  0  0
    8.8131  -10.3570    0.0000 C   0  0  0  0  0  0  0  0  0  0  0  0
    9.5978  -10.6119    0.0000 C   0  0  0  0  0  0  0  0  0  0  0  0
    8.5582  -12.4765    0.0000 O   0  0  0  0  0  0  0  0  0  0  0  0
    7.4963  -13.4327    0.0000 O   0  0  0  0  0  0  0  0  0  0  0  0
    1.7632  -10.2687    0.0000 C   0  0  0  0  0  0  0  0  0  0  0  0
    2.3152  -10.8818    0.0000 C   0  0  0  0  0  0  0  0  0  0  0  0
    3.1222  -10.7102    0.0000 C   0  0  0  0  0  0  0  0  0  0  0  0
    3.6742  -11.3233    0.0000 C   0  0  0  0  0  0  0  0  0  0  0  0
    4.4812  -11.1518    0.0000 C   0  0  0  0  0  0  0  0  0  0  0  0
    5.0332  -11.7649    0.0000 C   0  0  0  0  0  0  0  0  0  0  0  0
    5.8402  -11.5934    0.0000 C   0  0  0  0  0  0  0  0  0  0  0  0
    6.3922  -12.2065    0.0000 C   0  0  0  0  0  0  0  0  0  0  0  0
    7.1992  -12.0349    0.0000 C   0  0  0  0  0  0  0  0  0  0  0  0
    7.7512  -12.6480    0.0000 C   0  0  0  0  0  0  0  0  0  0  0  0
 16  1  1  6  0  0  0
 18  2  1  6  0  0  0
 19  3  1  1  0  0  0
 24 28  1  1  0  0  0
 23  4  1  1  0  0  0
 22  5  1  1  0  0  0
 21  7  1  0  0  0  0
  7  6  1  0  0  0  0
 25  8  1  0  0  0  0
 17  9  1  0  0  0  0
 17 10  1  0  0  0  0
 14 11  1  6  0  0  0
 13 12  2  0  0  0  0
 27 23  1  0  0  0  0
 18 16  1  0  0  0  0
 19 13  1  0  0  0  0
 27 13  1  0  0  0  0
 27 14  1  0  0  0  0
 15 14  1  0  0  0  0
 16 15  1  0  0  0  0
 17 16  1  0  0  0  0
 18 17  1  0  0  0  0
 19 18  1  0  0  0  0
 20 19  1  0  0  0  0
 21 20  2  0  0  0  0
 22 21  1  0  0  0  0
 23 22  1  0  0  0  0
 24 23  1  0  0  0  0
 25 24  1  0  0  0  0
 26 25  2  0  0  0  0
 27 26  1  0  0  0  0
 39 28  1  0  0  0  0
 39 29  2  0  0  0  0
 31 30  1  0  0  0  0
 32 31  1  0  0  0  0
 33 32  1  0  0  0  0
 34 33  1  0  0  0  0
 35 34  1  0  0  0  0
 36 35  2  0  0  0  0
 37 36  1  0  0  0  0
 38 37  2  0  0  0  0
 39 38  1  0  0  0  0
M  END
>  <cdx:groupId>
947

>  <cdx:fragmentId>
854

$$$$
