423517.cdx
  Mrv1902 05222410272D          

 32 32  0  0  0  0            999 V2000
    2.6029   -9.9170    0.0000 C   0  0  0  0  0  0  0  0  0  0  0  0
    2.6029  -10.7420    0.0000 C   0  0  0  0  0  0  0  0  0  0  0  0
    1.8884  -11.1545    0.0000 C   0  0  0  0  0  0  0  0  0  0  0  0
    1.1739  -10.7420    0.0000 C   0  0  0  0  0  0  0  0  0  0  0  0
    1.1739   -9.9170    0.0000 C   0  0  0  0  0  0  0  0  0  0  0  0
    1.8884   -9.5045    0.0000 C   0  0  0  0  0  0  0  0  0  0  0  0
    3.3173   -9.5045    0.0000 C   0  0  0  0  0  0  0  0  0  0  0  0
    4.0318   -9.9170    0.0000 O   0  0  0  0  0  0  0  0  0  0  0  0
    3.3173   -8.6795    0.0000 O   0  0  0  0  0  0  0  0  0  0  0  0
    3.3173  -11.1545    0.0000 C   0  0  0  0  0  0  0  0  0  0  0  0
    3.3173  -11.9795    0.0000 O   0  0  0  0  0  0  0  0  0  0  0  0
    4.0318  -10.7420    0.0000 O   0  0  0  0  0  0  0  0  0  0  0  0
    4.7463  -11.1545    0.0000 C   0  0  0  0  0  0  0  0  0  0  0  0
    5.4608  -10.7420    0.0000 C   0  0  0  0  0  0  0  0  0  0  0  0
    6.1752  -10.3295    0.0000 C   0  0  0  0  0  0  0  0  0  0  0  0
    6.8897   -9.9170    0.0000 C   0  0  0  0  0  0  0  0  0  0  0  0
    7.6042  -10.3295    0.0000 C   0  0  0  0  0  0  0  0  0  0  0  0
    8.3186   -9.9170    0.0000 C   0  0  0  0  0  0  0  0  0  0  0  0
    9.0331  -10.3295    0.0000 C   0  0  0  0  0  0  0  0  0  0  0  0
    9.7476   -9.9170    0.0000 C   0  0  0  0  0  0  0  0  0  0  0  0
   10.4621  -10.3295    0.0000 C   0  0  0  0  0  0  0  0  0  0  0  0
   11.1765   -9.9170    0.0000 C   0  0  0  0  0  0  0  0  0  0  0  0
   11.8910  -10.3295    0.0000 C   0  0  0  0  0  0  0  0  0  0  0  0
   12.6055   -9.9170    0.0000 C   0  0  0  0  0  0  0  0  0  0  0  0
   13.3199  -10.3295    0.0000 C   0  0  0  0  0  0  0  0  0  0  0  0
    4.0318   -8.2670    0.0000 C   0  0  0  0  0  0  0  0  0  0  0  0
    4.0318   -7.4420    0.0000 C   0  0  0  0  0  0  0  0  0  0  0  0
    4.7463   -7.0295    0.0000 C   0  0  0  0  0  0  0  0  0  0  0  0
    4.7463   -6.2045    0.0000 C   0  0  0  0  0  0  0  0  0  0  0  0
    5.4608   -5.7920    0.0000 C   0  0  0  0  0  0  0  0  0  0  0  0
    5.4608   -4.9670    0.0000 C   0  0  0  0  0  0  0  0  0  0  0  0
    6.1752   -4.5545    0.0000 C   0  0  0  0  0  0  0  0  0  0  0  0
  1  2  1  0  0  0  0
  2  3  2  0  0  0  0
  3  4  1  0  0  0  0
  4  5  2  0  0  0  0
  5  6  1  0  0  0  0
  1  6  2  0  0  0  0
  7  8  2  0  0  0  0
  7  9  1  0  0  0  0
  1  7  1  0  0  0  0
 10 11  2  0  0  0  0
 10 12  1  0  0  0  0
  2 10  1  0  0  0  0
 13 14  1  0  0  0  0
 14 15  3  0  0  0  0
 15 16  1  0  0  0  0
 16 17  1  0  0  0  0
 17 18  1  0  0  0  0
 18 19  1  0  0  0  0
 19 20  1  0  0  0  0
 20 21  1  0  0  0  0
 21 22  1  0  0  0  0
 22 23  1  0  0  0  0
 23 24  1  0  0  0  0
 24 25  1  0  0  0  0
 12 13  1  0  0  0  0
 26 27  1  0  0  0  0
 27 28  1  0  0  0  0
 28 29  1  0  0  0  0
 29 30  1  0  0  0  0
 30 31  1  0  0  0  0
 31 32  1  0  0  0  0
  9 26  1  0  0  0  0
M  END
>  <cdx:fragmentId>
11470

$$$$
