423584.cdx
  Mrv1902 05222410212D          

 33 37  0  0  0  0            999 V2000
    6.2315   -9.0439    0.0000 C   0  0  2  0  0  0  0  0  0  0  0  0
    5.5171   -8.6314    0.0000 C   0  0  0  0  0  0  0  0  0  0  0  0
    5.5171   -9.4564    0.0000 C   0  0  1  0  0  0  0  0  0  0  0  0
    4.8026   -9.0439    0.0000 C   0  0  0  0  0  0  0  0  0  0  0  0
    4.0881   -9.4564    0.0000 C   0  0  0  0  0  0  0  0  0  0  0  0
    4.0881  -10.2814    0.0000 C   0  0  1  0  0  0  0  0  0  0  0  0
    4.8026  -10.6939    0.0000 C   0  0  0  0  0  0  0  0  0  0  0  0
    5.5171  -10.2814    0.0000 C   0  0  2  0  0  0  0  0  0  0  0  0
    6.2315  -10.6939    0.0000 C   0  0  0  0  0  0  0  0  0  0  0  0
    6.9460  -10.2814    0.0000 C   0  0  0  0  0  0  0  0  0  0  0  0
    6.9460   -9.4564    0.0000 C   0  0  1  0  0  0  0  0  0  0  0  0
    7.6605   -9.0439    0.0000 C   0  0  2  0  0  0  0  0  0  0  0  0
    8.4451   -9.2988    0.0000 C   0  0  0  0  0  0  0  0  0  0  0  0
    8.9300   -8.6314    0.0000 C   0  0  0  0  0  0  0  0  0  0  0  0
    8.4451   -7.9640    0.0000 C   0  0  0  0  0  0  0  0  0  0  0  0
    7.6605   -8.2189    0.0000 C   0  0  1  0  0  0  0  0  0  0  0  0
    6.9460   -7.8064    0.0000 C   0  0  0  0  0  0  0  0  0  0  0  0
    6.2315   -8.2189    0.0000 C   0  0  0  0  0  0  0  0  0  0  0  0
    3.3737  -10.6939    0.0000 O   0  0  0  0  0  0  0  0  0  0  0  0
    8.1480   -6.5662    0.0000 C   0  0  0  0  0  0  0  0  0  0  0  0
    8.7000   -7.1793    0.0000 C   0  0  2  0  0  0  0  0  0  0  0  0
    9.5070   -7.0078    0.0000 C   0  0  0  0  0  0  0  0  0  0  0  0
    9.7620   -6.2232    0.0000 C   0  0  0  0  0  0  0  0  0  0  0  0
   10.5689   -6.0517    0.0000 C   0  0  0  0  0  0  0  0  0  0  0  0
   10.8239   -5.2670    0.0000 C   0  0  0  0  0  0  0  0  0  0  0  0
   10.2718   -4.6540    0.0000 C   0  0  0  0  0  0  0  0  0  0  0  0
   11.6308   -5.0955    0.0000 C   0  0  0  0  0  0  0  0  0  0  0  0
    7.6605   -7.3939    0.0000 C   0  0  0  0  0  0  0  0  0  0  0  0
    7.6605   -9.8689    0.0000 C   0  0  0  0  0  0  0  0  0  0  0  0
    5.2151  -11.4084    0.0000 C   0  0  0  0  0  0  0  0  0  0  0  0
    4.3901  -11.4084    0.0000 C   0  0  0  0  0  0  0  0  0  0  0  0
    5.5171  -11.1064    0.0000 H   0  0  0  0  0  0  0  0  0  0  0  0
    6.9460   -8.6314    0.0000 H   0  0  0  0  0  0  0  0  0  0  0  0
  1  2  1  1  0  0  0
  3  2  1  1  0  0  0
  3  4  1  0  0  0  0
  4  5  1  0  0  0  0
  5  6  1  0  0  0  0
  6  7  1  0  0  0  0
  7  8  1  0  0  0  0
  8  9  1  0  0  0  0
  9 10  1  0  0  0  0
 10 11  1  0  0  0  0
 11 12  1  0  0  0  0
 12 13  1  0  0  0  0
 13 14  1  0  0  0  0
 14 15  2  0  0  0  0
 15 16  1  0  0  0  0
 16 17  1  0  0  0  0
 17 18  1  0  0  0  0
  1 18  1  0  0  0  0
  1 11  1  0  0  0  0
 12 16  1  0  0  0  0
  3  8  1  0  0  0  0
  1  3  1  0  0  0  0
  6 19  1  1  0  0  0
 21 20  1  6  0  0  0
 21 22  1  0  0  0  0
 22 23  1  0  0  0  0
 23 24  1  0  0  0  0
 24 25  2  0  0  0  0
 25 26  1  0  0  0  0
 25 27  1  0  0  0  0
 15 21  1  0  0  0  0
 16 28  1  1  0  0  0
 12 29  1  6  0  0  0
  7 30  1  0  0  0  0
  7 31  1  0  0  0  0
  8 32  1  6  0  0  0
 11 33  1  1  0  0  0
M  END
>  <cdx:fragmentId>
162144

$$$$
