4241.cdx
  Mrv1902 05222410272D          

 11 11  0  0  0  0            999 V2000
    6.7196   -7.1569    0.0000 C   0  0  0  0  0  0  0  0  0  0  0  0
    7.4341   -7.5694    0.0000 C   0  0  0  0  0  0  0  0  0  0  0  0
    8.1486   -7.1569    0.0000 C   0  0  0  0  0  0  0  0  0  0  0  0
    6.7196   -6.3319    0.0000 C   0  0  0  0  0  0  0  0  0  0  0  0
    6.0052   -5.9194    0.0000 C   0  0  0  0  0  0  0  0  0  0  0  0
    5.2907   -6.3319    0.0000 C   0  0  0  0  0  0  0  0  0  0  0  0
    5.2907   -7.1569    0.0000 C   0  0  0  0  0  0  0  0  0  0  0  0
    6.0052   -7.5694    0.0000 C   0  0  0  0  0  0  0  0  0  0  0  0
    4.5762   -5.9194    0.0000 O   0  0  0  0  0  0  0  0  0  0  0  0
    8.8630   -7.5694    0.0000 C   0  0  0  0  0  0  0  0  0  0  0  0
    9.5775   -7.1569    0.0000 O   0  0  0  0  0  0  0  0  0  0  0  0
  1  2  1  0  0  0  0
  2  3  1  0  0  0  0
  3 10  1  0  0  0  0
  1  4  2  0  0  0  0
  4  5  1  0  0  0  0
  5  6  2  0  0  0  0
  6  7  1  0  0  0  0
  7  8  2  0  0  0  0
  8  1  1  0  0  0  0
  6  9  1  0  0  0  0
 10 11  2  0  0  0  0
M  END
>  <cdx:fragmentId>
3

$$$$
