424441.cdx
  Mrv1902 05222410282D          

 23 23  0  0  0  0            999 V2000
    8.6724   -8.3707    0.0000 C   0  0  0  0  0  0  0  0  0  0  0  0
    7.9580   -7.9582    0.0000 C   0  0  0  0  0  0  0  0  0  0  0  0
    7.9580   -7.1332    0.0000 C   0  0  0  0  0  0  0  0  0  0  0  0
    8.6724   -9.1957    0.0000 O   0  0  0  0  0  0  0  0  0  0  0  0
    9.3869   -7.9582    0.0000 O   0  0  0  0  0  0  0  0  0  0  0  0
    7.2435   -8.3707    0.0000 N   0  0  0  0  0  0  0  0  0  0  0  0
    6.5290   -7.9582    0.0000 C   0  0  0  0  0  0  0  0  0  0  0  0
    5.8146   -8.3707    0.0000 C   0  0  0  0  0  0  0  0  0  0  0  0
    5.8146   -9.1957    0.0000 C   0  0  0  0  0  0  0  0  0  0  0  0
    5.1001   -9.6082    0.0000 C   0  0  0  0  0  0  0  0  0  0  0  0
    4.3856   -9.1957    0.0000 C   0  0  0  0  0  0  0  0  0  0  0  0
    4.3856   -8.3707    0.0000 C   0  0  0  0  0  0  0  0  0  0  0  0
    5.1001   -7.9582    0.0000 C   0  0  0  0  0  0  0  0  0  0  0  0
    6.5290   -7.1332    0.0000 O   0  0  0  0  0  0  0  0  0  0  0  0
    3.6711   -9.6082    0.0000 C   0  0  0  0  0  0  0  0  0  0  0  0
    2.9567   -9.1957    0.0000 C   0  0  0  0  0  0  0  0  0  0  0  0
    2.2422   -9.6082    0.0000 C   0  0  0  0  0  0  0  0  0  0  0  0
    1.5277   -9.1957    0.0000 C   0  0  0  0  0  0  0  0  0  0  0  0
   10.1014   -8.3707    0.0000 C   0  0  0  0  0  0  0  0  0  0  0  0
   10.8159   -7.9582    0.0000 C   0  0  0  0  0  0  0  0  0  0  0  0
   11.5303   -8.3707    0.0000 C   0  0  0  0  0  0  0  0  0  0  0  0
   12.2448   -7.9582    0.0000 C   0  0  0  0  0  0  0  0  0  0  0  0
   12.9593   -8.3707    0.0000 C   0  0  0  0  0  0  0  0  0  0  0  0
  1  2  1  0  0  0  0
  2  3  1  0  0  0  0
  1  4  2  0  0  0  0
  1  5  1  0  0  0  0
  7  8  1  0  0  0  0
  8  9  1  0  0  0  0
  9 10  2  0  0  0  0
 10 11  1  0  0  0  0
 11 12  2  0  0  0  0
 12 13  1  0  0  0  0
  8 13  2  0  0  0  0
  7 14  2  0  0  0  0
 15 16  1  0  0  0  0
 16 17  1  0  0  0  0
 17 18  1  0  0  0  0
 11 15  1  0  0  0  0
  6  7  1  0  0  0  0
  2  6  1  0  0  0  0
 19 20  1  0  0  0  0
 20 21  1  0  0  0  0
 21 22  1  0  0  0  0
 22 23  1  0  0  0  0
  5 19  1  0  0  0  0
M  END
>  <cdx:fragmentId>
11639

$$$$
