424794.cdx
  Mrv1902 05222410252D          

 13 12  0  0  0  0            999 V2000
    4.1767   -6.0552    0.0000 C   0  0  0  0  0  0  0  0  0  0  0  0
    4.8942   -6.4624    0.0000 C   0  0  0  0  0  0  0  0  0  0  0  0
    5.6056   -6.0446    0.0000 C   0  0  0  0  0  0  0  0  0  0  0  0
    6.3231   -6.4518    0.0000 C   0  0  0  0  0  0  0  0  0  0  0  0
    7.0345   -6.0340    0.0000 C   0  0  0  0  0  0  0  0  0  0  0  0
    7.7520   -6.4412    0.0000 C   0  0  0  0  0  0  0  0  0  0  0  0
    8.4634   -6.0234    0.0000 C   0  0  0  0  0  0  0  0  0  0  0  0
    9.1809   -6.4305    0.0000 C   0  0  0  0  0  0  0  0  0  0  0  0
    9.8923   -6.0127    0.0000 C   0  0  0  0  0  0  0  0  0  0  0  0
   10.6098   -6.4199    0.0000 C   0  0  0  0  0  0  0  0  0  0  0  0
   11.3212   -6.0021    0.0000 C   0  0  0  0  0  0  0  0  0  0  0  0
    4.9003   -7.2874    0.0000 C   0  0  0  0  0  0  0  0  0  0  0  0
    3.4653   -6.4730    0.0000 I   0  0  0  0  0  0  0  0  0  0  0  0
  1  2  1  0  0  0  0
  2  3  1  0  0  0  0
  3  4  1  0  0  0  0
  4  5  1  0  0  0  0
  5  6  1  0  0  0  0
  6  7  1  0  0  0  0
  7  8  1  0  0  0  0
  8  9  1  0  0  0  0
  9 10  1  0  0  0  0
 10 11  1  0  0  0  0
  2 12  1  0  0  0  0
  1 13  1  0  0  0  0
M  END
>  <cdx:fragmentId>
5

$$$$
