425164.cdx
  Mrv1902 05222410282D          

 21 24  0  0  0  0            999 V2000
    6.5809   -8.3394    0.0000 O   0  0  0  0  0  0  0  0  0  0  0  0
    6.9165   -7.5857    0.0000 C   0  0  0  0  0  0  0  0  0  0  0  0
    7.7369   -7.6719    0.0000 C   0  0  2  0  0  0  0  0  0  0  0  0
    7.9085   -8.4789    0.0000 C   0  0  0  0  0  0  0  0  0  0  0  0
    8.6229   -8.8914    0.0000 C   0  0  0  0  0  0  0  0  0  0  0  0
    8.6229   -9.7164    0.0000 C   0  0  0  0  0  0  0  0  0  0  0  0
    7.9085  -10.1289    0.0000 C   0  0  0  0  0  0  0  0  0  0  0  0
    7.1940   -9.7164    0.0000 C   0  0  0  0  0  0  0  0  0  0  0  0
    7.1940   -8.8914    0.0000 C   0  0  0  0  0  0  0  0  0  0  0  0
    7.9085  -10.9539    0.0000 C   0  0  0  0  0  0  0  0  0  0  0  0
    7.1940  -11.3664    0.0000 C   0  0  0  0  0  0  0  0  0  0  0  0
    6.4795  -10.9539    0.0000 C   0  0  0  0  0  0  0  0  0  0  0  0
    5.7651  -11.3664    0.0000 C   0  0  0  0  0  0  0  0  0  0  0  0
    5.0506  -10.9539    0.0000 C   0  0  0  0  0  0  0  0  0  0  0  0
    5.0506  -10.1289    0.0000 C   0  0  0  0  0  0  0  0  0  0  0  0
    5.7651   -9.7164    0.0000 C   0  0  0  0  0  0  0  0  0  0  0  0
    6.4795  -10.1289    0.0000 C   0  0  0  0  0  0  0  0  0  0  0  0
    9.3374   -8.4789    0.0000 O   0  0  0  0  0  0  0  0  0  0  0  0
    9.3374  -10.1289    0.0000 O   0  0  0  0  0  0  0  0  0  0  0  0
    5.7651  -12.1914    0.0000 C   0  0  0  0  0  0  0  0  0  0  0  0
    8.2890   -7.0588    0.0000 C   0  0  0  0  0  0  0  0  0  0  0  0
  1  2  1  0  0  0  0
  2  3  1  0  0  0  0
  3  4  1  0  0  0  0
  4  5  1  0  0  0  0
  5  6  1  0  0  0  0
  6  7  1  0  0  0  0
  7  8  1  0  0  0  0
  8  9  1  0  0  0  0
  4  9  2  0  0  0  0
  1  9  1  0  0  0  0
 10 11  1  0  0  0  0
 11 12  2  0  0  0  0
 12 13  1  0  0  0  0
 13 14  2  0  0  0  0
 14 15  1  0  0  0  0
 15 16  2  0  0  0  0
 16 17  1  0  0  0  0
 12 17  1  0  0  0  0
 10  7  2  0  0  0  0
 17  8  2  0  0  0  0
  5 18  2  0  0  0  0
  6 19  2  0  0  0  0
 13 20  1  0  0  0  0
  3 21  1  1  0  0  0
M  END
>  <cdx:groupId>
162559

>  <cdx:fragmentId>
162496

$$$$
