425494.cdx
  Mrv1902 05222410232D          

 53 58  0  0  0  0            999 V2000
   11.5640   -6.0451    0.0000 O   0  0  0  0  0  0  0  0  0  0  0  0
   10.7605   -6.2322    0.0000 C   0  0  0  0  0  0  0  0  0  0  0  0
   10.6902   -7.0542    0.0000 C   0  0  1  0  0  0  0  0  0  0  0  0
   11.4502   -7.3751    0.0000 C   0  0  2  0  0  0  0  0  0  0  0  0
   11.9903   -6.7515    0.0000 C   0  0  0  0  0  0  0  0  0  0  0  0
   10.1369   -5.6921    0.0000 O   0  0  0  0  0  0  0  0  0  0  0  0
   11.6373   -8.1786    0.0000 C   0  0  0  0  0  0  0  0  0  0  0  0
    9.3585  -10.5467    0.0000 O   0  0  0  0  0  0  0  0  0  0  0  0
    9.8562  -11.2046    0.0000 C   0  0  1  0  0  0  0  0  0  0  0  0
   10.6358  -10.9345    0.0000 C   0  0  2  0  0  0  0  0  0  0  0  0
   10.6198  -10.1097    0.0000 C   0  0  0  0  0  0  0  0  0  0  0  0
   11.2221   -9.5459    0.0000 C   0  0  0  0  0  0  0  0  0  0  0  0
   11.0350   -8.7424    0.0000 C   0  0  0  0  0  0  0  0  0  0  0  0
   10.2456   -8.5027    0.0000 C   0  0  0  0  0  0  0  0  0  0  0  0
    9.6433   -9.0665    0.0000 C   0  0  0  0  0  0  0  0  0  0  0  0
    9.8304   -9.8700    0.0000 C   0  0  0  0  0  0  0  0  0  0  0  0
    8.8539   -8.8268    0.0000 O   0  0  0  0  0  0  0  0  0  0  0  0
    8.6668   -8.0233    0.0000 C   0  0  0  0  0  0  0  0  0  0  0  0
   11.3124  -11.4065    0.0000 C   0  0  0  0  0  0  0  0  0  0  0  0
   11.2421  -12.2285    0.0000 O   0  0  0  0  0  0  0  0  0  0  0  0
    9.6165  -11.9940    0.0000 C   0  0  0  0  0  0  0  0  0  0  0  0
   10.1803  -12.5963    0.0000 C   0  0  0  0  0  0  0  0  0  0  0  0
    9.9406  -13.3857    0.0000 C   0  0  0  0  0  0  0  0  0  0  0  0
    9.1371  -13.5728    0.0000 C   0  0  0  0  0  0  0  0  0  0  0  0
    8.5733  -12.9705    0.0000 C   0  0  0  0  0  0  0  0  0  0  0  0
    8.8130  -12.1811    0.0000 C   0  0  0  0  0  0  0  0  0  0  0  0
   10.5044  -13.9880    0.0000 O   0  0  0  0  0  0  0  0  0  0  0  0
   10.2646  -14.7774    0.0000 C   0  0  0  0  0  0  0  0  0  0  0  0
    8.8973  -14.3622    0.0000 O   0  0  0  0  0  0  0  0  0  0  0  0
    9.9838   -7.4804    0.0000 C   0  0  0  0  0  0  0  0  0  0  0  0
    9.2615   -7.0818    0.0000 C   0  0  0  0  0  0  0  0  0  0  0  0
    8.5551   -7.5081    0.0000 C   0  0  0  0  0  0  0  0  0  0  0  0
    7.8328   -7.1095    0.0000 C   0  0  0  0  0  0  0  0  0  0  0  0
    7.8169   -6.2846    0.0000 C   0  0  0  0  0  0  0  0  0  0  0  0
    8.5232   -5.8584    0.0000 C   0  0  0  0  0  0  0  0  0  0  0  0
    9.2455   -6.2570    0.0000 C   0  0  0  0  0  0  0  0  0  0  0  0
    8.5073   -5.0335    0.0000 O   0  0  0  0  0  0  0  0  0  0  0  0
    9.2350   -4.6449    0.0000 C   0  0  0  0  0  0  0  0  0  0  0  0
    7.0945   -5.8860    0.0000 O   0  0  0  0  0  0  0  0  0  0  0  0
    6.4041   -7.1371    0.0000 C   0  0  0  0  0  0  0  0  0  0  0  0
    7.1265   -7.5357    0.0000 C   0  0  0  0  0  0  0  0  0  0  0  0
    7.1424   -8.3606    0.0000 C   0  0  0  0  0  0  0  0  0  0  0  0
    5.6978   -7.5634    0.0000 C   0  0  0  0  0  0  0  0  0  0  0  0
    5.7137   -8.3882    0.0000 C   0  0  0  0  0  0  0  0  0  0  0  0
    5.0074   -8.8145    0.0000 C   0  0  0  0  0  0  0  0  0  0  0  0
    4.2851   -8.4158    0.0000 C   0  0  0  0  0  0  0  0  0  0  0  0
    4.2691   -7.5910    0.0000 C   0  0  0  0  0  0  0  0  0  0  0  0
    4.9755   -7.1648    0.0000 C   0  0  0  0  0  0  0  0  0  0  0  0
    3.5787   -8.8421    0.0000 O   0  0  0  0  0  0  0  0  0  0  0  0
    7.8647   -8.7592    0.0000 O   0  0  0  0  0  0  0  0  0  0  0  0
    6.3450   -6.3142    0.0000 O   0  0  0  0  0  0  0  0  0  0  0  0
    3.5468   -7.1924    0.0000 O   0  0  0  0  0  0  0  0  0  0  0  0
    2.8404   -7.6186    0.0000 C   0  0  0  0  0  0  0  0  0  0  0  0
  1  2  1  0  0  0  0
  2  3  1  0  0  0  0
  3  4  1  0  0  0  0
  4  5  1  0  0  0  0
  1  5  1  0  0  0  0
  2  6  2  0  0  0  0
  8  9  1  0  0  0  0
  9 10  1  0  0  0  0
 10 11  1  0  0  0  0
 11 12  1  0  0  0  0
 12 13  2  0  0  0  0
 13 14  1  0  0  0  0
 14 15  2  0  0  0  0
 15 16  1  0  0  0  0
 11 16  2  0  0  0  0
  8 16  1  0  0  0  0
 17 18  1  0  0  0  0
 15 17  1  0  0  0  0
 19 20  1  0  0  0  0
 10 19  1  6  0  0  0
 21 22  1  0  0  0  0
 22 23  2  0  0  0  0
 23 24  1  0  0  0  0
 24 25  2  0  0  0  0
 25 26  1  0  0  0  0
 21 26  2  0  0  0  0
 27 28  1  0  0  0  0
 23 27  1  0  0  0  0
 24 29  1  0  0  0  0
  9 21  1  1  0  0  0
  7 13  1  0  0  0  0
  4  7  1  6  0  0  0
 31 32  1  0  0  0  0
 32 33  2  0  0  0  0
 33 34  1  0  0  0  0
 34 35  2  0  0  0  0
 35 36  1  0  0  0  0
 31 36  2  0  0  0  0
 37 38  1  0  0  0  0
 35 37  1  0  0  0  0
 34 39  1  0  0  0  0
 40 41  1  0  0  0  0
 41 42  1  0  0  0  0
 43 44  1  0  0  0  0
 44 45  2  0  0  0  0
 45 46  1  0  0  0  0
 46 47  2  0  0  0  0
 47 48  1  0  0  0  0
 43 48  2  0  0  0  0
 46 49  1  0  0  0  0
 40 43  1  0  0  0  0
 42 50  1  0  0  0  0
 40 51  1  0  0  0  0
 33 41  1  0  0  0  0
 30 31  1  0  0  0  0
  3 30  1  1  0  0  0
 47 52  1  0  0  0  0
 52 53  1  0  0  0  0
M  END
>  <cdx:fragmentId>
19

$$$$
