10425556.cdx
  Mrv1902 05222410192D          

 22 23  0  0  0  0            999 V2000
    4.6394  -16.3688    0.0000 C   0  0  0  0  0  0  0  0  0  0  0  0
    5.3539  -15.9563    0.0000 C   0  0  0  0  0  0  0  0  0  0  0  0
    3.9250  -16.7813    0.0000 N   0  0  0  0  0  0  0  0  0  0  0  0
    5.3539  -15.1313    0.0000 C   0  0  0  0  0  0  0  0  0  0  0  0
    6.0684  -14.7188    0.0000 C   0  0  0  0  0  0  0  0  0  0  0  0
    6.0684  -13.8938    0.0000 C   0  0  0  0  0  0  0  0  0  0  0  0
    5.3539  -13.4813    0.0000 C   0  0  0  0  0  0  0  0  0  0  0  0
    4.6394  -13.8938    0.0000 C   0  0  0  0  0  0  0  0  0  0  0  0
    4.6394  -14.7188    0.0000 C   0  0  0  0  0  0  0  0  0  0  0  0
    6.7828  -15.1313    0.0000 O   0  0  0  0  0  0  0  0  0  0  0  0
    8.2118  -15.1313    0.0000 O   0  0  0  0  0  0  0  0  0  0  0  0
    7.4973  -14.7188    0.0000 C   0  0  2  0  0  0  0  0  0  0  0  0
    7.4973  -13.8938    0.0000 C   0  0  1  0  0  0  0  0  0  0  0  0
    8.2118  -13.4813    0.0000 C   0  0  2  0  0  0  0  0  0  0  0  0
    8.9263  -13.8938    0.0000 C   0  0  1  0  0  0  0  0  0  0  0  0
    8.9263  -14.7188    0.0000 C   0  0  1  0  0  0  0  0  0  0  0  0
    9.6407  -15.1313    0.0000 C   0  0  0  0  0  0  0  0  0  0  0  0
   10.3552  -14.7188    0.0000 O   0  0  0  0  0  0  0  0  0  0  0  0
    9.6407  -13.4813    0.0000 O   0  0  0  0  0  0  0  0  0  0  0  0
    8.2118  -12.6563    0.0000 O   0  0  0  0  0  0  0  0  0  0  0  0
    6.7828  -13.4813    0.0000 O   0  0  0  0  0  0  0  0  0  0  0  0
    5.3539  -12.6563    0.0000 O   0  0  0  0  0  0  0  0  0  0  0  0
  1  2  1  0  0  0  0
  1  3  3  0  0  0  0
  4  5  1  0  0  0  0
  5  6  2  0  0  0  0
  6  7  1  0  0  0  0
  7  8  2  0  0  0  0
  8  9  1  0  0  0  0
  4  9  2  0  0  0  0
 11 12  1  0  0  0  0
 12 13  1  0  0  0  0
 13 14  1  0  0  0  0
 14 15  1  0  0  0  0
 15 16  1  0  0  0  0
 11 16  1  0  0  0  0
 17 18  1  0  0  0  0
 16 17  1  1  0  0  0
 15 19  1  6  0  0  0
 14 20  1  1  0  0  0
 13 21  1  6  0  0  0
 12 10  1  1  0  0  0
  5 10  1  0  0  0  0
  7 22  1  0  0  0  0
  2  4  1  0  0  0  0
M  END
>  <cdx:groupId>
49605

>  <cdx:fragmentId>
49561

$$$$
