425822.cdx
  Mrv1902 05222410272D          

 50 55  0  0  0  0            999 V2000
    6.9110   -4.1700    0.0000 C   0  0  0  0  0  0  0  0  0  0  0  0
    7.6255   -3.7575    0.0000 C   0  0  0  0  0  0  0  0  0  0  0  0
    8.3400   -4.1700    0.0000 C   0  0  0  0  0  0  0  0  0  0  0  0
    8.3400   -4.9950    0.0000 C   0  0  0  0  0  0  0  0  0  0  0  0
    7.6255   -5.4075    0.0000 C   0  0  2  0  0  0  0  0  0  0  0  0
    7.6255   -6.2325    0.0000 C   0  0  0  0  0  0  0  0  0  0  0  0
    6.9110   -6.6450    0.0000 C   0  0  0  0  0  0  0  0  0  0  0  0
    6.1965   -6.2325    0.0000 C   0  0  1  0  0  0  0  0  0  0  0  0
    5.4821   -6.6450    0.0000 C   0  0  2  0  0  0  0  0  0  0  0  0
    5.4821   -7.4700    0.0000 C   0  0  0  0  0  0  0  0  0  0  0  0
    4.7676   -7.8825    0.0000 C   0  0  0  0  0  0  0  0  0  0  0  0
    4.0531   -7.4700    0.0000 C   0  0  1  0  0  0  0  0  0  0  0  0
    3.3387   -7.8825    0.0000 C   0  0  1  0  0  0  0  0  0  0  0  0
    2.6242   -7.4700    0.0000 C   0  0  2  0  0  0  0  0  0  0  0  0
    2.6242   -6.6450    0.0000 C   0  0  1  0  0  0  0  0  0  0  0  0
    3.3387   -6.2325    0.0000 C   0  0  0  0  0  0  0  0  0  0  0  0
    4.0531   -6.6450    0.0000 C   0  0  2  0  0  0  0  0  0  0  0  0
    4.7676   -6.2325    0.0000 C   0  0  1  0  0  0  0  0  0  0  0  0
    4.7676   -5.4075    0.0000 C   0  0  0  0  0  0  0  0  0  0  0  0
    5.4821   -4.9950    0.0000 C   0  0  0  0  0  0  0  0  0  0  0  0
    6.1965   -5.4075    0.0000 C   0  0  0  0  0  0  0  0  0  0  0  0
    6.9110   -4.9950    0.0000 C   0  0  2  0  0  0  0  0  0  0  0  0
    7.2130   -3.0430    0.0000 C   0  0  0  0  0  0  0  0  0  0  0  0
    8.0380   -3.0430    0.0000 C   0  0  0  0  0  0  0  0  0  0  0  0
    3.7512   -8.5969    0.0000 C   0  0  0  0  0  0  0  0  0  0  0  0
    3.3387   -9.3114    0.0000 O   0  0  0  0  0  0  0  0  0  0  0  0
    2.9262   -8.5969    0.0000 C   0  0  0  0  0  0  0  0  0  0  0  0
    2.1012   -8.5969    0.0000 O   0  0  0  0  0  0  0  0  0  0  0  0
    1.9097   -6.2325    0.0000 O   0  0  0  0  0  0  0  0  0  0  0  0
    1.9097   -7.8825    0.0000 O   0  0  0  0  0  0  0  0  0  0  0  0
    4.0531   -8.2950    0.0000 H   0  0  0  0  0  0  0  0  0  0  0  0
    6.9110   -5.8200    0.0000 H   0  0  0  0  0  0  0  0  0  0  0  0
    9.7689   -5.8200    0.0000 O   0  0  0  0  0  0  0  0  0  0  0  0
   11.1978   -6.6450    0.0000 O   0  0  0  0  0  0  0  0  0  0  0  0
   11.1978   -8.2950    0.0000 O   0  0  0  0  0  0  0  0  0  0  0  0
   10.4834   -9.5325    0.0000 O   0  0  0  0  0  0  0  0  0  0  0  0
    9.7689   -9.1200    0.0000 C   0  0  0  0  0  0  0  0  0  0  0  0
    9.7689   -8.2950    0.0000 C   0  0  2  0  0  0  0  0  0  0  0  0
   10.4834   -7.8825    0.0000 C   0  0  2  0  0  0  0  0  0  0  0  0
   10.4834   -7.0575    0.0000 C   0  0  1  0  0  0  0  0  0  0  0  0
    9.7689   -6.6450    0.0000 C   0  0  2  0  0  0  0  0  0  0  0  0
    9.0544   -7.0575    0.0000 C   0  0  1  0  0  0  0  0  0  0  0  0
    9.0544   -7.8825    0.0000 O   0  0  0  0  0  0  0  0  0  0  0  0
    8.3400   -6.6450    0.0000 O   0  0  0  0  0  0  0  0  0  0  0  0
    9.0544   -5.4075    0.0000 O   0  0  0  0  0  0  0  0  0  0  0  0
    8.3400   -5.8200    0.0000 C   0  0  0  0  0  0  0  0  0  0  0  0
    4.0531   -5.8200    0.0000 C   0  0  0  0  0  0  0  0  0  0  0  0
    5.4821   -5.8200    0.0000 C   0  0  0  0  0  0  0  0  0  0  0  0
    4.7676   -7.0575    0.0000 H   0  0  0  0  0  0  0  0  0  0  0  0
    6.1965   -7.0575    0.0000 C   0  0  0  0  0  0  0  0  0  0  0  0
 42 44  1  1  0  0  0
 41 33  1  6  0  0  0
 40 34  1  1  0  0  0
 39 35  1  6  0  0  0
 38 37  1  1  0  0  0
 37 36  1  0  0  0  0
 43 38  1  0  0  0  0
 39 38  1  0  0  0  0
 40 39  1  0  0  0  0
 41 40  1  0  0  0  0
 42 41  1  0  0  0  0
 43 42  1  0  0  0  0
 46 44  1  0  0  0  0
 46 45  2  0  0  0  0
  1  2  1  0  0  0  0
  2  3  1  0  0  0  0
  3  4  1  0  0  0  0
  4  5  1  0  0  0  0
  5  6  1  0  0  0  0
  6  7  1  0  0  0  0
  7  8  1  0  0  0  0
  8  9  1  0  0  0  0
  9 10  1  0  0  0  0
 10 11  1  0  0  0  0
 11 12  1  0  0  0  0
 12 13  1  0  0  0  0
 13 14  1  0  0  0  0
 14 15  1  0  0  0  0
 15 16  1  0  0  0  0
 16 17  1  0  0  0  0
 12 17  1  0  0  0  0
 17 18  1  0  0  0  0
  9 18  1  0  0  0  0
 18 19  1  0  0  0  0
 19 20  1  0  0  0  0
 20 21  2  0  0  0  0
  8 21  1  0  0  0  0
 21 22  1  0  0  0  0
  5 22  1  0  0  0  0
  1 22  1  0  0  0  0
  5 46  1  1  0  0  0
  2 23  1  0  0  0  0
  2 24  1  0  0  0  0
 25 26  1  0  0  0  0
 13 25  1  6  0  0  0
 27 28  1  0  0  0  0
 13 27  1  1  0  0  0
 15 29  1  6  0  0  0
 14 30  1  1  0  0  0
 12 31  1  6  0  0  0
 22 32  1  1  0  0  0
 17 47  1  1  0  0  0
  9 48  1  1  0  0  0
 18 49  1  6  0  0  0
  8 50  1  6  0  0  0
M  END
>  <cdx:fragmentId>
243793

$$$$
