44426449.cdx
  Mrv1902 05222410182D          

 43 51  0  0  0  0            999 V2000
    6.9283  -14.7618    0.0000 C   0  0  2  0  0  0  0  0  0  0  0  0
    6.3449  -15.3452    0.0000 C   0  0  2  0  0  0  0  0  0  0  0  0
    5.6304  -14.9327    0.0000 C   0  0  0  0  0  0  0  0  0  0  0  0
    4.9160  -15.3452    0.0000 C   0  0  2  0  0  0  0  0  0  0  0  0
    4.2015  -15.7577    0.0000 O   0  0  0  0  0  0  0  0  0  0  0  0
    4.9160  -16.1702    0.0000 C   0  0  1  0  0  0  0  0  0  0  0  0
    4.2015  -16.5827    0.0000 C   0  0  0  0  0  0  0  0  0  0  0  0
    4.2015  -17.4077    0.0000 C   0  0  0  0  0  0  0  0  0  0  0  0
    4.9160  -17.8202    0.0000 C   0  0  0  0  0  0  0  0  0  0  0  0
    5.6304  -17.4077    0.0000 C   0  0  0  0  0  0  0  0  0  0  0  0
    5.6304  -16.5827    0.0000 C   0  0  2  0  0  0  0  0  0  0  0  0
    6.3449  -16.1702    0.0000 C   0  0  1  0  0  0  0  0  0  0  0  0
    6.9283  -16.7536    0.0000 C   0  0  0  0  0  0  0  0  0  0  0  0
    7.7533  -16.7536    0.0000 C   0  0  0  0  0  0  0  0  0  0  0  0
    8.3366  -16.1702    0.0000 C   0  0  1  0  0  0  0  0  0  0  0  0
    9.1213  -16.4251    0.0000 C   0  0  0  0  0  0  0  0  0  0  0  0
    9.6062  -15.7577    0.0000 O   0  0  0  0  0  0  0  0  0  0  0  0
    9.1213  -15.0903    0.0000 C   0  0  2  0  0  0  0  0  0  0  0  0
    8.3366  -15.3452    0.0000 C   0  0  1  0  0  0  0  0  0  0  0  0
    8.0410  -14.5750    0.0000 C   0  0  0  0  0  0  0  0  0  0  0  0
    8.3046  -13.7933    0.0000 C   0  0  2  0  0  0  0  0  0  0  0  0
    9.1239  -13.6958    0.0000 C   0  0  0  0  0  0  0  0  0  0  0  0
    9.5636  -14.3938    0.0000 C   0  0  1  0  0  0  0  0  0  0  0  0
    9.6739  -13.3483    0.0000 O   0  0  0  0  0  0  0  0  0  0  0  0
    8.8359  -12.7125    0.0000 C   0  0  0  0  0  0  0  0  0  0  0  0
    7.8578  -13.0997    0.0000 C   0  0  2  0  0  0  0  0  0  0  0  0
    7.0370  -13.0166    0.0000 C   0  0  0  0  0  0  0  0  0  0  0  0
    6.4603  -13.6066    0.0000 O   0  0  0  0  0  0  0  0  0  0  0  0
    7.7533  -14.7618    0.0000 O   0  0  0  0  0  0  0  0  0  0  0  0
    7.2654  -14.8563    0.0000 C   0  0  0  0  0  0  0  0  0  0  0  0
    6.3449  -17.8202    0.0000 O   0  0  0  0  0  0  0  0  0  0  0  0
    9.3762  -17.2098    0.0000 O   0  0  0  0  0  0  0  0  0  0  0  0
    8.9477  -11.8952    0.0000 O   0  0  0  0  0  0  0  0  0  0  0  0
    7.2654  -15.6813    0.0000 O   0  0  0  0  0  0  0  0  0  0  0  0
    8.6140  -13.2574    0.0000 C   0  0  0  0  0  0  0  0  0  0  0  0
    9.9463  -15.0903    0.0000 C   0  0  0  0  0  0  0  0  0  0  0  0
    5.6304  -15.7577    0.0000 C   0  0  0  0  0  0  0  0  0  0  0  0
    8.5292  -16.9724    0.0000 O   0  0  0  0  0  0  0  0  0  0  0  0
    6.2372  -14.5273    0.0000 H   0  0  0  0  0  0  0  0  0  0  0  0
    4.5035  -14.6307    0.0000 H   0  0  0  0  0  0  0  0  0  0  0  0
    6.3449  -16.9952    0.0000 H   0  0  0  0  0  0  0  0  0  0  0  0
   10.3426  -14.6654    0.0000 H   0  0  0  0  0  0  0  0  0  0  0  0
    7.7443  -12.2826    0.0000 H   0  0  0  0  0  0  0  0  0  0  0  0
  1  2  1  0  0  0  0
  2  3  1  0  0  0  0
  3  4  1  0  0  0  0
  4  5  1  0  0  0  0
  6  5  1  1  0  0  0
  6  7  1  0  0  0  0
  7  8  1  0  0  0  0
  8  9  2  0  0  0  0
  9 10  1  0  0  0  0
 10 11  1  0  0  0  0
 11 12  1  0  0  0  0
 12 13  1  0  0  0  0
 13 14  1  0  0  0  0
 14 15  1  0  0  0  0
 15 16  1  0  0  0  0
 16 17  1  0  0  0  0
 17 18  1  0  0  0  0
 18 19  1  0  0  0  0
 19 20  1  0  0  0  0
 20 21  1  0  0  0  0
 21 22  1  0  0  0  0
 23 22  1  6  0  0  0
 23 24  1  0  0  0  0
 24 25  1  0  0  0  0
 25 26  1  0  0  0  0
 26 27  1  0  0  0  0
 27 28  1  0  0  0  0
  1 28  1  0  0  0  0
  1 29  1  6  0  0  0
 19 29  1  1  0  0  0
 21 26  1  0  0  0  0
 18 23  1  0  0  0  0
 20 30  1  0  0  0  0
 30  1  1  0  0  0  0
 15 19  1  0  0  0  0
  2 12  1  0  0  0  0
  6 11  1  0  0  0  0
  4  6  1  0  0  0  0
 10 31  2  0  0  0  0
 16 32  2  0  0  0  0
 25 33  2  0  0  0  0
 30 34  2  0  0  0  0
 21 35  1  6  0  0  0
 18 36  1  1  0  0  0
 11 37  1  6  0  0  0
 15 38  1  1  0  0  0
  2 39  1  6  0  0  0
  4 40  1  6  0  0  0
 12 41  1  1  0  0  0
 23 42  1  0  0  0  0
 26 43  1  6  0  0  0
M  END
>  <cdx:groupId>
162703

>  <cdx:fragmentId>
162569

$$$$
