426875.cdx
  Mrv1902 05222410282D          

 64 70  0  0  0  0            999 V2000
    6.8637   -6.4064    0.0000 O   0  0  0  0  0  0  0  0  0  0  0  0
    7.5958   -6.8319    0.0000 C   0  0  0  0  0  0  0  0  0  0  0  0
    7.5949   -7.6569    0.0000 C   0  0  0  0  0  0  0  0  0  0  0  0
    8.3090   -8.0702    0.0000 C   0  0  0  0  0  0  0  0  0  0  0  0
    8.3081   -8.8952    0.0000 C   0  0  0  0  0  0  0  0  0  0  0  0
    9.0221   -9.3084    0.0000 C   0  0  0  0  0  0  0  0  0  0  0  0
    9.0212  -10.1334    0.0000 C   0  0  0  0  0  0  0  0  0  0  0  0
    9.7353  -10.5467    0.0000 C   0  0  0  0  0  0  0  0  0  0  0  0
    9.7344  -11.3717    0.0000 C   0  0  0  0  0  0  0  0  0  0  0  0
   10.4484  -11.7850    0.0000 C   0  0  0  0  0  0  0  0  0  0  0  0
   10.4475  -12.6100    0.0000 C   0  0  0  0  0  0  0  0  0  0  0  0
    8.3107   -6.4202    0.0000 O   0  0  0  0  0  0  0  0  0  0  0  0
    6.2888   -4.8859    0.0000 C   0  0  2  0  0  0  0  0  0  0  0  0
    6.6489   -5.6282    0.0000 C   0  0  2  0  0  0  0  0  0  0  0  0
    6.2931   -6.3725    0.0000 C   0  0  1  0  0  0  0  0  0  0  0  0
    5.4893   -6.5585    0.0000 C   0  0  1  0  0  0  0  0  0  0  0  0
    4.8428   -6.0460    0.0000 C   0  0  1  0  0  0  0  0  0  0  0  0
    4.8404   -5.2210    0.0000 C   0  0  2  0  0  0  0  0  0  0  0  0
    5.4839   -4.7047    0.0000 C   0  0  2  0  0  0  0  0  0  0  0  0
    4.1296   -6.4605    0.0000 C   0  0  2  0  0  0  0  0  0  0  0  0
    3.4139   -6.0501    0.0000 C   0  0  0  0  0  0  0  0  0  0  0  0
    3.4115   -5.2251    0.0000 C   0  0  0  0  0  0  0  0  0  0  0  0
    4.1247   -4.8105    0.0000 C   0  0  2  0  0  0  0  0  0  0  0  0
    5.4076   -3.8832    0.0000 C   0  0  0  0  0  0  0  0  0  0  0  0
    6.1652   -3.5568    0.0000 C   0  0  1  0  0  0  0  0  0  0  0  0
    6.7098   -4.1765    0.0000 C   0  0  2  0  0  0  0  0  0  0  0  0
    4.1223   -3.9856    0.0000 O   0  0  0  0  0  0  0  0  0  0  0  0
    3.4112   -3.5674    0.0000 C   0  0  0  0  0  0  0  0  0  0  0  0
    4.1320   -7.2855    0.0000 C   0  0  0  0  0  0  0  0  0  0  0  0
    3.4187   -7.7001    0.0000 O   0  0  0  0  0  0  0  0  0  0  0  0
    3.4211   -8.5251    0.0000 C   0  0  0  0  0  0  0  0  0  0  0  0
    4.8400   -4.5650    0.0000 C   0  0  0  0  0  0  0  0  0  0  0  0
    4.1250   -5.5825    0.0000 N   0  0  0  0  0  0  0  0  0  0  0  0
    3.4100   -6.7650    0.0000 C   0  0  0  0  0  0  0  0  0  0  0  0
    7.4475   -5.4210    0.0000 C   0  0  2  0  0  0  0  0  0  0  0  0
    7.4800   -3.7400    0.0000 C   0  0  2  0  0  0  0  0  0  0  0  0
    8.1950   -4.1800    0.0000 O   0  0  0  0  0  0  0  0  0  0  0  0
    4.8362   -6.8709    0.0000 H   0  0  0  0  0  0  0  0  0  0  0  0
    4.9006   -4.1213    0.0000 H   0  0  0  0  0  0  0  0  0  0  0  0
    7.1137   -4.8925    0.0000 H   0  0  0  0  0  0  0  0  0  0  0  0
    6.1652   -2.7318    0.0000 O   0  0  0  0  0  0  0  0  0  0  0  0
    6.2931   -7.1975    0.0000 H   0  0  0  0  0  0  0  0  0  0  0  0
    2.9425   -5.5825    0.0000 C   0  0  0  0  0  0  0  0  0  0  0  0
    8.1945   -3.3275    0.0000 O   0  0  0  0  0  0  0  0  0  0  0  0
    8.1945   -2.5025    0.0000 C   0  0  0  0  0  0  0  0  0  0  0  0
    5.4893   -7.3835    0.0000 O   0  0  0  0  0  0  0  0  0  0  0  0
    4.7749   -7.7960    0.0000 C   0  0  0  0  0  0  0  0  0  0  0  0
    8.9095   -4.5925    0.0000 C   0  0  0  0  0  0  0  0  0  0  0  0
    9.6239   -4.1800    0.0000 C   0  0  0  0  0  0  0  0  0  0  0  0
    8.9095   -5.4175    0.0000 O   0  0  0  0  0  0  0  0  0  0  0  0
   10.3384   -4.5925    0.0000 C   0  0  0  0  0  0  0  0  0  0  0  0
   11.0529   -4.1800    0.0000 C   0  0  0  0  0  0  0  0  0  0  0  0
   11.0529   -3.3550    0.0000 C   0  0  0  0  0  0  0  0  0  0  0  0
   10.3384   -2.9425    0.0000 C   0  0  0  0  0  0  0  0  0  0  0  0
    9.6239   -3.3550    0.0000 C   0  0  0  0  0  0  0  0  0  0  0  0
    8.2443   -5.6346    0.0000 O   0  0  0  0  0  0  0  0  0  0  0  0
    9.7326  -13.0217    0.0000 C   0  0  0  0  0  0  0  0  0  0  0  0
    9.7317  -13.8467    0.0000 C   0  0  0  0  0  0  0  0  0  0  0  0
    9.0168  -14.2584    0.0000 C   0  0  0  0  0  0  0  0  0  0  0  0
    8.3028  -13.8452    0.0000 C   0  0  0  0  0  0  0  0  0  0  0  0
    7.5879  -14.2569    0.0000 C   0  0  0  0  0  0  0  0  0  0  0  0
    6.8738  -13.8436    0.0000 C   0  0  0  0  0  0  0  0  0  0  0  0
    6.1589  -14.2554    0.0000 C   0  0  0  0  0  0  0  0  0  0  0  0
    5.4449  -13.8421    0.0000 C   0  0  0  0  0  0  0  0  0  0  0  0
  2  3  1  0  0  0  0
  3  4  1  0  0  0  0
  4  5  1  0  0  0  0
  5  6  1  0  0  0  0
  6  7  1  0  0  0  0
  7  8  1  0  0  0  0
  8  9  1  0  0  0  0
  9 10  1  0  0  0  0
 10 11  2  0  0  0  0
  2 12  2  0  0  0  0
  2  1  1  0  0  0  0
 13 14  1  0  0  0  0
 14 15  1  0  0  0  0
 15 16  1  0  0  0  0
 16 17  1  0  0  0  0
 17 18  1  0  0  0  0
 18 19  1  0  0  0  0
 19 13  1  0  0  0  0
 17 20  1  0  0  0  0
 20 21  1  0  0  0  0
 21 22  1  0  0  0  0
 22 23  1  0  0  0  0
 18 23  1  1  0  0  0
 19 24  1  0  0  0  0
 24 25  1  0  0  0  0
 25 26  1  0  0  0  0
 26 13  1  0  0  0  0
 23 27  1  6  0  0  0
 27 28  1  0  0  0  0
 20 29  1  1  0  0  0
 29 30  1  0  0  0  0
 30 31  1  0  0  0  0
 18 32  1  0  0  0  0
 15 32  1  0  0  0  0
 32 33  1  0  0  0  0
 33 34  1  0  0  0  0
 20 34  1  0  0  0  0
 14 35  1  0  0  0  0
 25 36  1  0  0  0  0
 36 35  1  0  0  0  0
 26 37  1  6  0  0  0
 17 38  1  1  0  0  0
 19 39  1  1  0  0  0
 13 40  1  1  0  0  0
 25 41  1  1  0  0  0
 15 42  1  6  0  0  0
 33 43  1  0  0  0  0
 36 44  1  1  0  0  0
 44 45  1  0  0  0  0
 16 46  1  6  0  0  0
 46 47  1  0  0  0  0
 37 48  1  0  0  0  0
 48 49  1  0  0  0  0
 48 50  2  0  0  0  0
 49 51  2  0  0  0  0
 51 52  1  0  0  0  0
 52 53  2  0  0  0  0
 53 54  1  0  0  0  0
 54 55  2  0  0  0  0
 55 49  1  0  0  0  0
 35 56  1  6  0  0  0
 14  1  1  1  0  0  0
 11 57  1  0  0  0  0
 57 58  1  0  0  0  0
 58 59  2  0  0  0  0
 59 60  1  0  0  0  0
 60 61  1  0  0  0  0
 61 62  1  0  0  0  0
 62 63  1  0  0  0  0
 63 64  1  0  0  0  0
M  END
>  <cdx:fragmentId>
220

$$$$
