426911.cdx
  Mrv1902 05222410262D          

 32 36  0  0  0  0            999 V2000
    6.2489   -7.7914    0.0000 C   0  0  1  0  0  0  0  0  0  0  0  0
    6.4735   -8.5852    0.0000 C   0  0  0  0  0  0  0  0  0  0  0  0
    7.2877   -8.7186    0.0000 C   0  0  0  0  0  0  0  0  0  0  0  0
    7.6296   -7.9678    0.0000 C   0  0  2  0  0  0  0  0  0  0  0  0
    6.9953   -7.4398    0.0000 N   0  0  0  0  0  0  0  0  0  0  0  0
    7.1857   -6.6371    0.0000 C   0  0  0  0  0  0  0  0  0  0  0  0
    6.6769   -5.9877    0.0000 C   0  0  0  0  0  0  0  0  0  0  0  0
    5.8519   -5.9806    0.0000 C   0  0  0  0  0  0  0  0  0  0  0  0
    5.3320   -6.6212    0.0000 C   0  0  0  0  0  0  0  0  0  0  0  0
    5.5087   -7.4271    0.0000 C   0  0  0  0  0  0  0  0  0  0  0  0
    4.9335   -8.0185    0.0000 C   0  0  0  0  0  0  0  0  0  0  0  0
    5.3182   -8.7483    0.0000 C   0  0  0  0  0  0  0  0  0  0  0  0
    6.0964   -8.9402    0.0000 C   0  0  2  0  0  0  0  0  0  0  0  0
    6.9442   -8.4676    0.0000 O   0  0  0  0  0  0  0  0  0  0  0  0
    7.3289   -9.1974    0.0000 C   0  0  0  0  0  0  0  0  0  0  0  0
    6.7537   -9.7888    0.0000 C   0  0  0  0  0  0  0  0  0  0  0  0
    6.0135   -9.4245    0.0000 C   0  0  0  0  0  0  0  0  0  0  0  0
    8.1454   -9.3151    0.0000 O   0  0  0  0  0  0  0  0  0  0  0  0
    4.9539   -9.4885    0.0000 O   0  0  0  0  0  0  0  0  0  0  0  0
    4.1170   -7.9007    0.0000 C   0  0  0  0  0  0  0  0  0  0  0  0
    6.8940  -10.6017    0.0000 C   0  0  0  0  0  0  0  0  0  0  0  0
    5.2837   -9.8092    0.0000 O   0  0  0  0  0  0  0  0  0  0  0  0
    5.2519  -10.6336    0.0000 C   0  0  0  0  0  0  0  0  0  0  0  0
   10.5221   -8.2275    0.0000 C   0  0  0  0  0  0  0  0  0  0  0  0
   10.0883   -6.4496    0.0000 O   0  0  0  0  0  0  0  0  0  0  0  0
    9.5797   -7.0992    0.0000 C   0  0  0  0  0  0  0  0  0  0  0  0
    9.7635   -7.9034    0.0000 C   0  0  2  0  0  0  0  0  0  0  0  0
    9.0553   -8.3267    0.0000 C   0  0  0  0  0  0  0  0  0  0  0  0
    8.4339   -7.7840    0.0000 C   0  0  2  0  0  0  0  0  0  0  0  0
    8.7580   -7.0254    0.0000 O   0  0  0  0  0  0  0  0  0  0  0  0
    8.0214   -7.0696    0.0000 H   0  0  0  0  0  0  0  0  0  0  0  0
    8.2130   -8.5512    0.0000 H   0  0  0  0  0  0  0  0  0  0  0  0
 27 24  1  1  0  0  0
 26 25  2  0  0  0  0
 30 26  1  0  0  0  0
 27 26  1  0  0  0  0
 28 27  1  0  0  0  0
 29 28  1  0  0  0  0
 29 30  1  0  0  0  0
  1  2  1  6  0  0  0
  2  3  1  0  0  0  0
  4  3  1  0  0  0  0
  4  5  1  0  0  0  0
  5  6  1  0  0  0  0
  6  7  1  0  0  0  0
  7  8  1  0  0  0  0
  8  9  1  0  0  0  0
  9 10  1  0  0  0  0
 10 11  2  0  0  0  0
 11 12  1  0  0  0  0
 12 13  1  0  0  0  0
  1 13  1  0  0  0  0
  1 10  1  0  0  0  0
  1  5  1  0  0  0  0
 14 15  1  0  0  0  0
 15 16  1  0  0  0  0
 16 17  2  0  0  0  0
 13 14  1  1  0  0  0
 13 17  1  6  0  0  0
 15 18  2  0  0  0  0
 12 19  2  0  0  0  0
  4 29  1  0  0  0  0
 11 20  1  0  0  0  0
 16 21  1  0  0  0  0
 22 23  1  0  0  0  0
 17 22  1  0  0  0  0
 29 31  1  6  0  0  0
  4 32  1  1  0  0  0
M  END
>  <cdx:fragmentId>
12061

$$$$
