101427062.cdx
  Mrv1902 05222410252D          

 85 94  0  0  0  0            999 V2000
    8.1765   -5.7245    0.0000 C   0  0  0  0  0  0  0  0  0  0  0  0
    8.8910   -5.3120    0.0000 C   0  0  0  0  0  0  0  0  0  0  0  0
    9.6055   -5.7245    0.0000 C   0  0  0  0  0  0  0  0  0  0  0  0
    9.6055   -6.5495    0.0000 C   0  0  0  0  0  0  0  0  0  0  0  0
    8.8910   -6.9620    0.0000 C   0  0  2  0  0  0  0  0  0  0  0  0
    8.8910   -7.7870    0.0000 C   0  0  0  0  0  0  0  0  0  0  0  0
    8.1765   -8.1995    0.0000 C   0  0  0  0  0  0  0  0  0  0  0  0
    7.4621   -7.7870    0.0000 C   0  0  1  0  0  0  0  0  0  0  0  0
    6.7476   -8.1995    0.0000 C   0  0  2  0  0  0  0  0  0  0  0  0
    6.7476   -9.0245    0.0000 C   0  0  0  0  0  0  0  0  0  0  0  0
    6.0331   -9.4370    0.0000 C   0  0  0  0  0  0  0  0  0  0  0  0
    5.3187   -9.0245    0.0000 C   0  0  1  0  0  0  0  0  0  0  0  0
    4.6042   -9.4370    0.0000 C   0  0  0  0  0  0  0  0  0  0  0  0
    3.8897   -9.0245    0.0000 C   0  0  2  0  0  0  0  0  0  0  0  0
    3.8897   -8.1995    0.0000 C   0  0  0  0  0  0  0  0  0  0  0  0
    4.6042   -7.7870    0.0000 C   0  0  0  0  0  0  0  0  0  0  0  0
    5.3187   -8.1995    0.0000 C   0  0  2  0  0  0  0  0  0  0  0  0
    6.0331   -7.7870    0.0000 C   0  0  1  0  0  0  0  0  0  0  0  0
    6.0331   -6.9620    0.0000 C   0  0  0  0  0  0  0  0  0  0  0  0
    6.7476   -6.5495    0.0000 C   0  0  0  0  0  0  0  0  0  0  0  0
    7.4621   -6.9620    0.0000 C   0  0  0  0  0  0  0  0  0  0  0  0
    8.1765   -6.5495    0.0000 C   0  0  2  0  0  0  0  0  0  0  0  0
    9.6055   -7.3745    0.0000 C   0  0  0  0  0  0  0  0  0  0  0  0
    9.6055   -8.1995    0.0000 O   0  0  0  0  0  0  0  0  0  0  0  0
   10.3200   -6.9620    0.0000 O   0  0  0  0  0  0  0  0  0  0  0  0
    8.8910   -4.4870    0.0000 C   0  0  0  0  0  0  0  0  0  0  0  0
    5.0167  -10.1515    0.0000 C   0  0  0  0  0  0  0  0  0  0  0  0
    4.1917  -10.1515    0.0000 C   0  0  0  0  0  0  0  0  0  0  0  0
    3.1752   -9.4370    0.0000 O   0  0  0  0  0  0  0  0  0  0  0  0
    1.7463   -9.4370    0.0000 O   0  0  0  0  0  0  0  0  0  0  0  0
    2.4608   -9.0245    0.0000 C   0  0  2  0  0  0  0  0  0  0  0  0
    2.4608   -8.1995    0.0000 C   0  0  1  0  0  0  0  0  0  0  0  0
    1.7463   -7.7870    0.0000 C   0  0  2  0  0  0  0  0  0  0  0  0
    1.0318   -8.1995    0.0000 C   0  0  2  0  0  0  0  0  0  0  0  0
    1.0318   -9.0245    0.0000 C   0  0  0  0  0  0  0  0  0  0  0  0
    3.1752   -7.7870    0.0000 O   0  0  0  0  0  0  0  0  0  0  0  0
    2.4608   -6.5495    0.0000 O   0  0  0  0  0  0  0  0  0  0  0  0
    3.1752   -6.9620    0.0000 C   0  0  1  0  0  0  0  0  0  0  0  0
    3.8897   -6.5495    0.0000 C   0  0  1  0  0  0  0  0  0  0  0  0
    3.8897   -5.7245    0.0000 C   0  0  2  0  0  0  0  0  0  0  0  0
    3.1752   -5.3120    0.0000 C   0  0  1  0  0  0  0  0  0  0  0  0
    2.4608   -5.7245    0.0000 C   0  0  0  0  0  0  0  0  0  0  0  0
    3.1752   -4.4870    0.0000 O   0  0  0  0  0  0  0  0  0  0  0  0
    4.6042   -5.3120    0.0000 O   0  0  0  0  0  0  0  0  0  0  0  0
    4.6042   -6.9620    0.0000 O   0  0  0  0  0  0  0  0  0  0  0  0
    0.3174   -7.7870    0.0000 O   0  0  0  0  0  0  0  0  0  0  0  0
    1.7463   -6.9620    0.0000 O   0  0  0  0  0  0  0  0  0  0  0  0
    5.3187   -9.8495    0.0000 H   0  0  0  0  0  0  0  0  0  0  0  0
    8.1765   -7.3745    0.0000 H   0  0  0  0  0  0  0  0  0  0  0  0
   11.7489   -6.9620    0.0000 O   0  0  0  0  0  0  0  0  0  0  0  0
   11.0344   -7.3745    0.0000 C   0  0  2  0  0  0  0  0  0  0  0  0
   11.0344   -8.1995    0.0000 C   0  0  1  0  0  0  0  0  0  0  0  0
   11.7489   -8.6120    0.0000 C   0  0  2  0  0  0  0  0  0  0  0  0
   12.4634   -8.1995    0.0000 C   0  0  1  0  0  0  0  0  0  0  0  0
   12.4634   -7.3745    0.0000 C   0  0  1  0  0  0  0  0  0  0  0  0
   13.1778   -8.6120    0.0000 O   0  0  0  0  0  0  0  0  0  0  0  0
   11.7489   -9.4370    0.0000 O   0  0  0  0  0  0  0  0  0  0  0  0
   10.3200   -8.6120    0.0000 O   0  0  0  0  0  0  0  0  0  0  0  0
   13.1778   -6.9620    0.0000 C   0  0  0  0  0  0  0  0  0  0  0  0
   13.8923   -7.3745    0.0000 O   0  0  0  0  0  0  0  0  0  0  0  0
   15.3213   -7.3745    0.0000 O   0  0  0  0  0  0  0  0  0  0  0  0
   14.6068   -6.9620    0.0000 C   0  0  2  0  0  0  0  0  0  0  0  0
   14.6068   -6.1370    0.0000 C   0  0  1  0  0  0  0  0  0  0  0  0
   15.3213   -5.7245    0.0000 C   0  0  2  0  0  0  0  0  0  0  0  0
   16.0357   -6.1370    0.0000 C   0  0  1  0  0  0  0  0  0  0  0  0
   16.0357   -6.9620    0.0000 C   0  0  1  0  0  0  0  0  0  0  0  0
   16.7502   -5.7245    0.0000 O   0  0  0  0  0  0  0  0  0  0  0  0
   16.0357   -4.4870    0.0000 O   0  0  0  0  0  0  0  0  0  0  0  0
   16.7502   -4.8995    0.0000 C   0  0  2  0  0  0  0  0  0  0  0  0
   17.4647   -4.4870    0.0000 C   0  0  1  0  0  0  0  0  0  0  0  0
   17.4647   -3.6620    0.0000 C   0  0  1  0  0  0  0  0  0  0  0  0
   16.7502   -3.2495    0.0000 C   0  0  2  0  0  0  0  0  0  0  0  0
   16.0357   -3.6620    0.0000 C   0  0  2  0  0  0  0  0  0  0  0  0
   15.3213   -3.2495    0.0000 C   0  0  0  0  0  0  0  0  0  0  0  0
   16.7502   -2.4245    0.0000 O   0  0  0  0  0  0  0  0  0  0  0  0
   18.1791   -3.2495    0.0000 O   0  0  0  0  0  0  0  0  0  0  0  0
   18.1791   -4.8995    0.0000 O   0  0  0  0  0  0  0  0  0  0  0  0
   16.7502   -7.3745    0.0000 C   0  0  0  0  0  0  0  0  0  0  0  0
   17.4647   -6.9620    0.0000 O   0  0  0  0  0  0  0  0  0  0  0  0
   15.3213   -4.8995    0.0000 O   0  0  0  0  0  0  0  0  0  0  0  0
   13.8923   -5.7245    0.0000 O   0  0  0  0  0  0  0  0  0  0  0  0
    5.3187   -7.3745    0.0000 C   0  0  0  0  0  0  0  0  0  0  0  0
    7.3310   -8.7829    0.0000 C   0  0  0  0  0  0  0  0  0  0  0  0
    5.6206   -7.0725    0.0000 H   0  0  0  0  0  0  0  0  0  0  0  0
    7.6756   -8.5839    0.0000 C   0  0  0  0  0  0  0  0  0  0  0  0
  1  2  1  0  0  0  0
  2  3  1  0  0  0  0
  3  4  1  0  0  0  0
  4  5  1  0  0  0  0
  5  6  1  0  0  0  0
  6  7  1  0  0  0  0
  7  8  1  0  0  0  0
  8  9  1  0  0  0  0
  9 10  1  0  0  0  0
 10 11  1  0  0  0  0
 11 12  1  0  0  0  0
 12 13  1  0  0  0  0
 13 14  1  0  0  0  0
 14 15  1  0  0  0  0
 15 16  1  0  0  0  0
 16 17  1  0  0  0  0
 12 17  1  0  0  0  0
 17 18  1  0  0  0  0
  9 18  1  0  0  0  0
 18 19  1  0  0  0  0
 19 20  1  0  0  0  0
 20 21  2  0  0  0  0
  8 21  1  0  0  0  0
 21 22  1  0  0  0  0
  5 22  1  0  0  0  0
  1 22  1  0  0  0  0
 23 24  2  0  0  0  0
 23 25  1  0  0  0  0
  5 23  1  1  0  0  0
  2 26  2  0  0  0  0
 13 27  1  0  0  0  0
 13 28  1  0  0  0  0
 30 31  1  0  0  0  0
 31 32  1  0  0  0  0
 32 33  1  0  0  0  0
 33 34  1  0  0  0  0
 34 35  1  0  0  0  0
 30 35  1  0  0  0  0
 37 38  1  0  0  0  0
 38 39  1  0  0  0  0
 39 40  1  0  0  0  0
 40 41  1  0  0  0  0
 41 42  1  0  0  0  0
 37 42  1  0  0  0  0
 41 43  1  1  0  0  0
 40 44  1  6  0  0  0
 39 45  1  1  0  0  0
 38 36  1  1  0  0  0
 32 36  1  1  0  0  0
 34 46  1  6  0  0  0
 33 47  1  6  0  0  0
 31 29  1  6  0  0  0
 14 29  1  1  0  0  0
 12 48  1  6  0  0  0
 22 49  1  1  0  0  0
 50 51  1  0  0  0  0
 51 52  1  0  0  0  0
 52 53  1  0  0  0  0
 53 54  1  0  0  0  0
 54 55  1  0  0  0  0
 50 55  1  0  0  0  0
 54 56  1  1  0  0  0
 53 57  1  6  0  0  0
 52 58  1  1  0  0  0
 61 62  1  0  0  0  0
 62 63  1  0  0  0  0
 63 64  1  0  0  0  0
 64 65  1  0  0  0  0
 65 66  1  0  0  0  0
 61 66  1  0  0  0  0
 68 69  1  0  0  0  0
 69 70  1  0  0  0  0
 70 71  1  0  0  0  0
 71 72  1  0  0  0  0
 72 73  1  0  0  0  0
 68 73  1  0  0  0  0
 73 74  1  1  0  0  0
 72 75  1  6  0  0  0
 71 76  1  1  0  0  0
 70 77  1  1  0  0  0
 69 67  1  6  0  0  0
 65 67  1  6  0  0  0
 78 79  1  0  0  0  0
 66 78  1  1  0  0  0
 64 80  1  1  0  0  0
 63 81  1  6  0  0  0
 62 60  1  1  0  0  0
 59 60  1  0  0  0  0
 55 59  1  6  0  0  0
 51 25  1  6  0  0  0
 17 82  1  1  0  0  0
  9 83  1  1  0  0  0
 18 84  1  6  0  0  0
  8 85  1  6  0  0  0
M  END
>  <cdx:groupId>
244763

>  <cdx:fragmentId>
244505

$$$$
