6427125.cdx
  Mrv1902 05222410212D          

 10  9  0  0  0  0            999 V2000
    9.7441   -8.0547    0.0000 C   0  0  0  0  0  0  0  0  0  0  0  0
    9.0297   -8.4672    0.0000 C   0  0  0  0  0  0  0  0  0  0  0  0
    8.3152   -8.0547    0.0000 C   0  0  0  0  0  0  0  0  0  0  0  0
    7.6007   -8.4672    0.0000 C   0  0  0  0  0  0  0  0  0  0  0  0
    6.8863   -8.0547    0.0000 C   0  0  0  0  0  0  0  0  0  0  0  0
    6.1718   -8.4672    0.0000 C   0  0  0  0  0  0  0  0  0  0  0  0
    5.4573   -8.0547    0.0000 C   0  0  0  0  0  0  0  0  0  0  0  0
    4.7429   -8.4672    0.0000 C   0  0  0  0  0  0  0  0  0  0  0  0
    9.0297   -9.2922    0.0000 O   0  0  0  0  0  0  0  0  0  0  0  0
    5.4573   -7.2297    0.0000 C   0  0  0  0  0  0  0  0  0  0  0  0
  1  2  1  0  0  0  0
  2  3  1  0  0  0  0
  3  4  1  0  0  0  0
  4  5  1  0  0  0  0
  5  6  1  0  0  0  0
  6  7  1  0  0  0  0
  7  8  1  0  0  0  0
  2  9  1  0  0  0  0
  7 10  1  0  0  0  0
M  END
>  <cdx:groupId>
12364

>  <cdx:fragmentId>
12338

$$$$
