44427231.cdx
  Mrv1902 05222410192D          

 40 42  0  0  0  0            999 V2000
    7.1091   -2.9264    0.0000 O   0  0  0  0  0  0  0  0  0  0  0  0
   11.0550   -4.6338    0.0000 O   0  0  0  0  0  0  0  0  0  0  0  0
   11.1647   -8.5292    0.0000 O   0  0  0  0  0  0  0  0  0  0  0  0
    6.9758   -8.7195    0.0000 O   0  0  0  0  0  0  0  0  0  0  0  0
    6.7855   -7.8230    0.0000 C   0  0  1  0  0  0  0  0  0  0  0  0
    8.4101   -6.6713    0.0000 C   0  0  2  0  0  0  0  0  0  0  0  0
    5.6825   -7.0789    0.0000 C   0  0  2  0  0  0  0  0  0  0  0  0
    8.7546   -5.3860    0.0000 C   0  0  1  0  0  0  0  0  0  0  0  0
    6.0492   -5.8001    0.0000 C   0  0  0  0  0  0  0  0  0  0  0  0
    7.7744   -4.0786    0.0000 C   0  0  0  0  0  0  0  0  0  0  0  0
    6.1609   -8.9978    0.0000 C   0  0  0  0  0  0  0  0  0  0  0  0
    7.6758   -8.8118    0.0000 C   0  0  0  0  0  0  0  0  0  0  0  0
   10.1021   -7.7285    0.0000 C   0  0  0  0  0  0  0  0  0  0  0  0
    4.4323   -7.5340    0.0000 C   0  0  0  0  0  0  0  0  0  0  0  0
   10.6593   -5.6490    0.0000 C   0  0  0  0  0  0  0  0  0  0  0  0
    8.0658   -7.9564    0.0000 C   0  0  0  0  0  0  0  0  0  0  0  0
    8.7313   -4.2213    0.0000 C   0  0  0  0  0  0  0  0  0  0  0  0
   11.1362   -6.8912    0.0000 C   0  0  0  0  0  0  0  0  0  0  0  0
    6.8660  -10.1261    0.0000 C   0  0  0  0  0  0  0  0  0  0  0  0
    9.0066   -8.8972    0.0000 C   0  0  0  0  0  0  0  0  0  0  0  0
   12.4213   -7.2355    0.0000 C   0  0  0  0  0  0  0  0  0  0  0  0
    3.4129   -6.6789    0.0000 C   0  0  0  0  0  0  0  0  0  0  0  0
   10.0925   -3.4788    0.0000 C   0  0  0  0  0  0  0  0  0  0  0  0
    6.2414  -11.3009    0.0000 C   0  0  0  0  0  0  0  0  0  0  0  0
    8.6622  -10.1824    0.0000 C   0  0  0  0  0  0  0  0  0  0  0  0
   10.0965   -9.6604    0.0000 C   0  0  0  0  0  0  0  0  0  0  0  0
    2.1627   -7.1339    0.0000 C   0  0  0  0  0  0  0  0  0  0  0  0
   13.3621   -6.2947    0.0000 C   0  0  0  0  0  0  0  0  0  0  0  0
    6.9464  -12.4292    0.0000 C   0  0  0  0  0  0  0  0  0  0  0  0
    1.1435   -6.2786    0.0000 C   0  0  0  0  0  0  0  0  0  0  0  0
    1.9317   -8.4442    0.0000 C   0  0  0  0  0  0  0  0  0  0  0  0
   14.6473   -6.6391    0.0000 C   0  0  0  0  0  0  0  0  0  0  0  0
    6.3217  -13.6039    0.0000 C   0  0  0  0  0  0  0  0  0  0  0  0
    8.2761  -12.3828    0.0000 C   0  0  0  0  0  0  0  0  0  0  0  0
   15.5881   -5.6983    0.0000 C   0  0  0  0  0  0  0  0  0  0  0  0
   14.9916   -7.9242    0.0000 C   0  0  0  0  0  0  0  0  0  0  0  0
   10.2470   -2.6683    0.0000 C   0  0  0  0  0  0  0  0  0  0  0  0
    9.6224   -2.1294    0.0000 C   0  0  0  0  0  0  0  0  0  0  0  0
   11.0260   -2.3969    0.0000 C   0  0  0  0  0  0  0  0  0  0  0  0
   10.4015   -1.8579    0.0000 O   0  0  0  0  0  0  0  0  0  0  0  0
  1 10  2  0  0  0  0
  2 15  1  0  0  0  0
  3 13  2  0  0  0  0
  4 16  2  0  0  0  0
  5  6  1  0  0  0  0
  5  7  1  0  0  0  0
  5 11  1  0  0  0  0
  5 12  1  1  0  0  0
  6 13  1  0  0  0  0
  6 16  1  1  0  0  0
  7  9  1  0  0  0  0
  7 14  1  1  0  0  0
  8  9  1  0  0  0  0
  8 10  1  0  0  0  0
  8 15  1  0  0  0  0
  8 17  1  6  0  0  0
 11 19  1  0  0  0  0
 13 18  1  0  0  0  0
 14 22  1  0  0  0  0
 15 18  2  0  0  0  0
 16 20  1  0  0  0  0
 17 23  1  0  0  0  0
 18 21  1  0  0  0  0
 19 24  1  0  0  0  0
 20 25  1  0  0  0  0
 20 26  1  0  0  0  0
 21 28  1  0  0  0  0
 22 27  2  0  0  0  0
 24 29  2  0  0  0  0
 27 30  1  0  0  0  0
 27 31  1  0  0  0  0
 28 32  2  0  0  0  0
 29 33  1  0  0  0  0
 29 34  1  0  0  0  0
 32 35  1  0  0  0  0
 32 36  1  0  0  0  0
 10  6  1  0  0  0  0
 23  2  1  0  0  0  0
 23 37  1  0  0  0  0
 37 38  1  0  0  0  0
 37 39  1  0  0  0  0
 37 40  1  0  0  0  0
M  END
>  <cdx:fragmentId>
1

$$$$
