44427226.cdx
  Mrv1902 05222410182D          

 40 41  0  0  0  0            999 V2000
    7.0525   -6.5858    0.0000 C   0  0  2  0  0  0  0  0  0  0  0  0
    7.7670   -6.1733    0.0000 C   0  0  0  0  0  0  0  0  0  0  0  0
    8.4815   -6.5858    0.0000 C   0  0  0  0  0  0  0  0  0  0  0  0
    8.4815   -7.4108    0.0000 C   0  0  0  0  0  0  0  0  0  0  0  0
    7.7670   -7.8233    0.0000 C   0  0  1  0  0  0  0  0  0  0  0  0
    7.0626   -8.2118    0.0000 C   0  0  0  0  0  0  0  0  0  0  0  0
    6.3685   -7.8053    0.0000 C   0  0  1  0  0  0  0  0  0  0  0  0
    6.3635   -7.0009    0.0000 C   0  0  1  0  0  0  0  0  0  0  0  0
    7.0525   -7.4108    0.0000 C   0  0  0  0  0  0  0  0  0  0  0  0
    7.7670   -5.3483    0.0000 O   0  0  0  0  0  0  0  0  0  0  0  0
    6.4205   -7.9411    0.0000 O   0  0  0  0  0  0  0  0  0  0  0  0
    5.4347   -6.4647    0.0000 C   0  0  0  0  0  0  0  0  0  0  0  0
    5.4347   -5.6397    0.0000 C   0  0  0  0  0  0  0  0  0  0  0  0
    4.7203   -5.2272    0.0000 C   0  0  0  0  0  0  0  0  0  0  0  0
    4.7203   -4.4022    0.0000 C   0  0  0  0  0  0  0  0  0  0  0  0
    4.0058   -3.9897    0.0000 C   0  0  0  0  0  0  0  0  0  0  0  0
    5.4347   -3.9897    0.0000 C   0  0  0  0  0  0  0  0  0  0  0  0
    5.6541   -8.2178    0.0000 C   0  0  0  0  0  0  0  0  0  0  0  0
    4.9396   -7.8053    0.0000 C   0  0  0  0  0  0  0  0  0  0  0  0
    4.2251   -8.2178    0.0000 C   0  0  0  0  0  0  0  0  0  0  0  0
    4.2251   -9.0428    0.0000 C   0  0  0  0  0  0  0  0  0  0  0  0
    3.5107   -7.8053    0.0000 C   0  0  0  0  0  0  0  0  0  0  0  0
    8.1795   -8.5378    0.0000 C   0  0  0  0  0  0  0  0  0  0  0  0
    9.0045   -8.5378    0.0000 C   0  0  0  0  0  0  0  0  0  0  0  0
    9.4170   -9.2523    0.0000 C   0  0  0  0  0  0  0  0  0  0  0  0
    9.0045   -9.9667    0.0000 C   0  0  0  0  0  0  0  0  0  0  0  0
   10.2420   -9.2523    0.0000 C   0  0  0  0  0  0  0  0  0  0  0  0
    9.1959   -6.1733    0.0000 C   0  0  0  0  0  0  0  0  0  0  0  0
    9.9104   -6.5858    0.0000 C   0  0  0  0  0  0  0  0  0  0  0  0
   10.6249   -6.1733    0.0000 C   0  0  0  0  0  0  0  0  0  0  0  0
   10.6249   -5.3483    0.0000 C   0  0  0  0  0  0  0  0  0  0  0  0
   11.3393   -6.5858    0.0000 C   0  0  0  0  0  0  0  0  0  0  0  0
    6.5163   -5.6570    0.0000 C   0  0  0  0  0  0  0  0  0  0  0  0
    7.0525   -4.7282    0.0000 C   0  0  0  0  0  0  0  0  0  0  0  0
    6.6400   -4.0137    0.0000 C   0  0  0  0  0  0  0  0  0  0  0  0
    7.0525   -3.2993    0.0000 C   0  0  0  0  0  0  0  0  0  0  0  0
    5.6913   -5.6570    0.0000 O   0  0  0  0  0  0  0  0  0  0  0  0
    6.3635   -6.1759    0.0000 C   0  0  0  0  0  0  0  0  0  0  0  0
    9.1959   -7.8233    0.0000 O   0  0  0  0  0  0  0  0  0  0  0  0
    5.8150   -4.0137    0.0000 C   0  0  0  0  0  0  0  0  0  0  0  0
  1  2  1  0  0  0  0
  2  3  1  0  0  0  0
  3  4  2  0  0  0  0
  4  5  1  0  0  0  0
  5  6  1  0  0  0  0
  6  7  1  0  0  0  0
  7  8  1  0  0  0  0
  1  8  1  0  0  0  0
  1  9  1  6  0  0  0
  5  9  1  6  0  0  0
  2 10  2  0  0  0  0
  9 11  2  0  0  0  0
 12 13  1  0  0  0  0
 13 14  1  0  0  0  0
 14 15  2  0  0  0  0
 15 16  1  0  0  0  0
 15 17  1  0  0  0  0
  8 12  1  0  0  0  0
 18 19  1  0  0  0  0
 19 20  2  0  0  0  0
 20 21  1  0  0  0  0
 20 22  1  0  0  0  0
  7 18  1  6  0  0  0
 23 24  1  0  0  0  0
 24 25  2  0  0  0  0
 25 26  1  0  0  0  0
 25 27  1  0  0  0  0
  5 23  1  0  0  0  0
 28 29  1  0  0  0  0
 29 30  2  0  0  0  0
 30 31  1  0  0  0  0
 30 32  1  0  0  0  0
  3 28  1  0  0  0  0
 33 34  1  0  0  0  0
 34 35  1  0  0  0  0
 35 36  1  0  0  0  0
 33 37  2  0  0  0  0
  1 33  1  0  0  0  0
  8 38  1  6  0  0  0
  4 39  1  0  0  0  0
 35 40  1  0  0  0  0
M  END
>  <cdx:groupId>
383

>  <cdx:fragmentId>
265

$$$$
