42720.cdx
  Mrv1902 05222410242D          

 58 65  0  0  0  0            999 V2000
    8.6665  -10.1702    0.0000 O   0  0  0  0  0  0  0  0  0  0  0  0
    8.6687  -10.9952    0.0000 C   0  0  2  0  0  0  0  0  0  0  0  0
    7.9553  -11.4096    0.0000 C   0  0  1  0  0  0  0  0  0  0  0  0
    7.2397  -10.9990    0.0000 C   0  0  2  0  0  0  0  0  0  0  0  0
    7.2376  -10.1740    0.0000 C   0  0  1  0  0  0  0  0  0  0  0  0
    7.9509   -9.7596    0.0000 C   0  0  1  0  0  0  0  0  0  0  0  0
    7.9575  -12.2346    0.0000 O   0  0  0  0  0  0  0  0  0  0  0  0
    6.5264  -11.4134    0.0000 O   0  0  0  0  0  0  0  0  0  0  0  0
    6.5220   -9.7634    0.0000 O   0  0  0  0  0  0  0  0  0  0  0  0
    7.9487   -8.9346    0.0000 C   0  0  0  0  0  0  0  0  0  0  0  0
    7.2332   -8.5240    0.0000 O   0  0  0  0  0  0  0  0  0  0  0  0
    9.3842  -11.4058    0.0000 O   0  0  0  0  0  0  0  0  0  0  0  0
   11.5244  -10.1626    0.0000 O   0  0  0  0  0  0  0  0  0  0  0  0
   10.8088   -9.7520    0.0000 C   0  0  1  0  0  0  0  0  0  0  0  0
   10.0954  -10.1664    0.0000 C   0  0  2  0  0  0  0  0  0  0  0  0
   10.0976  -10.9914    0.0000 C   0  0  1  0  0  0  0  0  0  0  0  0
   10.8132  -11.4020    0.0000 C   0  0  2  0  0  0  0  0  0  0  0  0
   11.5266  -10.9876    0.0000 C   0  0  2  0  0  0  0  0  0  0  0  0
   12.2421  -11.3982    0.0000 O   0  0  0  0  0  0  0  0  0  0  0  0
   15.8112  -10.1513    0.0000 C   0  0  1  0  0  0  0  0  0  0  0  0
   16.5246   -9.7369    0.0000 C   0  0  2  0  0  0  0  0  0  0  0  0
   17.3098   -9.9898    0.0000 C   0  0  0  0  0  0  0  0  0  0  0  0
   17.7930   -9.3210    0.0000 C   0  0  2  0  0  0  0  0  0  0  0  0
   18.5769   -9.0640    0.0000 O   0  0  0  0  0  0  0  0  0  0  0  0
   18.5748   -8.2390    0.0000 C   0  0  2  0  0  0  0  0  0  0  0  0
   17.7895   -7.9862    0.0000 C   0  0  2  0  0  0  0  0  0  0  0  0
   17.3063   -8.6549    0.0000 C   0  0  2  0  0  0  0  0  0  0  0  0
   16.5224   -8.9119    0.0000 C   0  0  1  0  0  0  0  0  0  0  0  0
   15.8068   -8.5013    0.0000 C   0  0  0  0  0  0  0  0  0  0  0  0
   15.0934   -8.9157    0.0000 C   0  0  0  0  0  0  0  0  0  0  0  0
   15.0956   -9.7407    0.0000 C   0  0  2  0  0  0  0  0  0  0  0  0
   14.3822  -10.1551    0.0000 C   0  0  1  0  0  0  0  0  0  0  0  0
   13.6667   -9.7445    0.0000 C   0  0  0  0  0  0  0  0  0  0  0  0
   12.9533  -10.1589    0.0000 C   0  0  0  0  0  0  0  0  0  0  0  0
   12.9555  -10.9838    0.0000 C   0  0  1  0  0  0  0  0  0  0  0  0
   13.6710  -11.3945    0.0000 C   0  0  0  0  0  0  0  0  0  0  0  0
   14.3844  -10.9801    0.0000 C   0  0  1  0  0  0  0  0  0  0  0  0
   15.1000  -11.3907    0.0000 C   0  0  0  0  0  0  0  0  0  0  0  0
   15.8134  -10.9763    0.0000 C   0  0  0  0  0  0  0  0  0  0  0  0
   18.4864   -7.4188    0.0000 O   0  0  0  0  0  0  0  0  0  0  0  0
   19.3293   -8.5726    0.0000 C   0  0  0  0  0  0  0  0  0  0  0  0
   19.9955   -8.0859    0.0000 C   0  0  0  0  0  0  0  0  0  0  0  0
   19.9071   -7.2656    0.0000 C   0  0  1  0  0  0  0  0  0  0  0  0
   19.1525   -6.9321    0.0000 C   0  0  0  0  0  0  0  0  0  0  0  0
   14.3801   -9.3301    0.0000 C   0  0  0  0  0  0  0  0  0  0  0  0
   16.5224   -8.0869    0.0000 C   0  0  0  0  0  0  0  0  0  0  0  0
   17.5325   -7.2022    0.0000 C   0  0  0  0  0  0  0  0  0  0  0  0
   20.5732   -6.7789    0.0000 C   0  0  0  0  0  0  0  0  0  0  0  0
   10.8066   -8.9270    0.0000 C   0  0  0  0  0  0  0  0  0  0  0  0
   10.0911   -8.5164    0.0000 O   0  0  0  0  0  0  0  0  0  0  0  0
   10.8154  -12.2270    0.0000 O   0  0  0  0  0  0  0  0  0  0  0  0
    9.3799   -9.7558    0.0000 O   0  0  0  0  0  0  0  0  0  0  0  0
   18.2797   -9.9872    0.0000 H   0  0  0  0  0  0  0  0  0  0  0  0
   16.9427   -7.9143    0.0000 H   0  0  0  0  0  0  0  0  0  0  0  0
   14.3866  -11.8051    0.0000 H   0  0  0  0  0  0  0  0  0  0  0  0
   15.0978  -10.5657    0.0000 H   0  0  0  0  0  0  0  0  0  0  0  0
   15.8090   -9.3263    0.0000 H   0  0  0  0  0  0  0  0  0  0  0  0
   16.5267  -10.5619    0.0000 H   0  0  0  0  0  0  0  0  0  0  0  0
  1  2  1  0  0  0  0
  2  3  1  0  0  0  0
  3  4  1  0  0  0  0
  4  5  1  0  0  0  0
  5  6  1  0  0  0  0
  1  6  1  0  0  0  0
  3  7  1  6  0  0  0
  4  8  1  1  0  0  0
  5  9  1  6  0  0  0
 10 11  1  0  0  0  0
  6 10  1  1  0  0  0
 13 14  1  0  0  0  0
 14 15  1  0  0  0  0
 15 16  1  0  0  0  0
 16 17  1  0  0  0  0
 17 18  1  0  0  0  0
 13 18  1  0  0  0  0
 20 21  1  0  0  0  0
 21 22  1  0  0  0  0
 22 23  1  0  0  0  0
 23 24  1  0  0  0  0
 25 24  1  6  0  0  0
 25 26  1  0  0  0  0
 26 27  1  0  0  0  0
 27 28  1  0  0  0  0
 28 29  1  0  0  0  0
 29 30  1  0  0  0  0
 30 31  1  0  0  0  0
 31 32  1  0  0  0  0
 32 33  1  0  0  0  0
 33 34  1  0  0  0  0
 34 35  1  0  0  0  0
 35 36  1  0  0  0  0
 36 37  1  0  0  0  0
 37 38  1  0  0  0  0
 38 39  1  0  0  0  0
 20 39  1  0  0  0  0
 20 31  1  0  0  0  0
 21 28  1  0  0  0  0
 23 27  1  0  0  0  0
 32 37  1  0  0  0  0
 41 42  1  0  0  0  0
 42 43  1  0  0  0  0
 43 44  1  0  0  0  0
 40 44  1  0  0  0  0
 25 40  1  0  0  0  0
 25 41  1  0  0  0  0
 32 45  1  1  0  0  0
 28 46  1  1  0  0  0
 26 47  1  6  0  0  0
 43 48  1  1  0  0  0
 35 19  1  1  0  0  0
 18 19  1  1  0  0  0
 49 50  1  0  0  0  0
 14 49  1  1  0  0  0
 17 51  1  6  0  0  0
 15 52  1  6  0  0  0
 16 12  1  1  0  0  0
  2 12  1  1  0  0  0
 23 53  1  6  0  0  0
 27 54  1  6  0  0  0
 37 55  1  1  0  0  0
 31 56  1  6  0  0  0
 20 57  1  1  0  0  0
 21 58  1  6  0  0  0
M  END
>  <cdx:fragmentId>
13129

$$$$
