427492.cdx
  Mrv1902 05222410222D          

 14 14  0  0  0  0            999 V2000
    7.9576   -7.4876    0.0000 C   0  0  0  0  0  0  0  0  0  0  0  0
    8.6735   -7.0777    0.0000 C   0  0  0  0  0  0  0  0  0  0  0  0
    7.2446   -7.0725    0.0000 O   0  0  0  0  0  0  0  0  0  0  0  0
    7.9545   -8.3126    0.0000 O   0  0  0  0  0  0  0  0  0  0  0  0
    7.2386   -8.7225    0.0000 C   0  0  1  0  0  0  0  0  0  0  0  0
    6.5256   -8.3074    0.0000 C   0  0  0  0  0  0  0  0  0  0  0  0
    5.8097   -8.7173    0.0000 C   0  0  0  0  0  0  0  0  0  0  0  0
    5.8066   -9.5423    0.0000 C   0  0  0  0  0  0  0  0  0  0  0  0
    6.5196   -9.9574    0.0000 C   0  0  0  0  0  0  0  0  0  0  0  0
    7.2356   -9.5475    0.0000 C   0  0  1  0  0  0  0  0  0  0  0  0
    7.9455  -10.7876    0.0000 C   0  0  0  0  0  0  0  0  0  0  0  0
    7.9485   -9.9626    0.0000 C   0  0  0  0  0  0  0  0  0  0  0  0
    8.6645   -9.5527    0.0000 C   0  0  0  0  0  0  0  0  0  0  0  0
    5.0967   -8.3022    0.0000 C   0  0  0  0  0  0  0  0  0  0  0  0
  1  2  1  0  0  0  0
  1  3  2  0  0  0  0
  1  4  1  0  0  0  0
  5  6  1  0  0  0  0
  6  7  2  0  0  0  0
  7  8  1  0  0  0  0
  8  9  1  0  0  0  0
  9 10  1  0  0  0  0
  5 10  1  0  0  0  0
 11 12  1  0  0  0  0
 12 13  1  0  0  0  0
 10 12  1  6  0  0  0
  7 14  1  0  0  0  0
  5  4  1  6  0  0  0
M  END
>  <cdx:fragmentId>
12415

$$$$
