6427476.cdx
  Mrv1902 05222410232D          

 10 11  0  0  0  0            999 V2000
    7.9185   -8.8750    0.0000 C   0  0  0  0  0  0  0  0  0  0  0  0
    7.2040   -9.2875    0.0000 C   0  0  0  0  0  0  0  0  0  0  0  0
    6.4896   -8.8750    0.0000 C   0  0  0  0  0  0  0  0  0  0  0  0
    6.4896   -8.0500    0.0000 C   0  0  0  0  0  0  0  0  0  0  0  0
    7.2040   -7.6375    0.0000 C   0  0  0  0  0  0  0  0  0  0  0  0
    7.9185   -8.0500    0.0000 C   0  0  0  0  0  0  0  0  0  0  0  0
    7.3868   -8.3571    0.0000 C   0  0  0  0  0  0  0  0  0  0  0  0
    5.7751   -7.6375    0.0000 C   0  0  0  0  0  0  0  0  0  0  0  0
    8.3310   -7.3355    0.0000 C   0  0  0  0  0  0  0  0  0  0  0  0
    8.7435   -8.0500    0.0000 C   0  0  0  0  0  0  0  0  0  0  0  0
  1  2  1  0  0  0  0
  2  3  2  0  0  0  0
  3  4  1  0  0  0  0
  4  5  1  0  0  0  0
  5  6  1  0  0  0  0
  1  6  1  0  0  0  0
  1  7  1  0  0  0  0
  7  5  1  0  0  0  0
  4  8  2  0  0  0  0
  6  9  1  0  0  0  0
  6 10  1  0  0  0  0
M  END
>  <cdx:groupId>
12399

>  <cdx:fragmentId>
12371

$$$$
