427495.cdx
  Mrv1902 05222410202D          

 31 33  0  0  0  0            999 V2000
    6.3255   -4.0975    0.0000 C   0  0  0  0  0  0  0  0  0  0  0  0
    6.3255   -4.9225    0.0000 C   0  0  0  0  0  0  0  0  0  0  0  0
    7.0400   -5.3350    0.0000 C   0  0  0  0  0  0  0  0  0  0  0  0
    7.7545   -4.9225    0.0000 C   0  0  0  0  0  0  0  0  0  0  0  0
    7.7545   -4.0975    0.0000 C   0  0  0  0  0  0  0  0  0  0  0  0
    7.0400   -3.6850    0.0000 C   0  0  0  0  0  0  0  0  0  0  0  0
    8.4689   -5.3350    0.0000 C   0  0  0  0  0  0  0  0  0  0  0  0
    9.1834   -4.9225    0.0000 C   0  0  0  0  0  0  0  0  0  0  0  0
    9.1834   -4.0975    0.0000 C   0  0  0  0  0  0  0  0  0  0  0  0
    8.4689   -3.6850    0.0000 O   0  0  0  0  0  0  0  0  0  0  0  0
    5.6111   -5.3350    0.0000 C   0  0  0  0  0  0  0  0  0  0  0  0
    4.8966   -4.9225    0.0000 C   0  0  0  0  0  0  0  0  0  0  0  0
    4.8966   -4.0975    0.0000 C   0  0  0  0  0  0  0  0  0  0  0  0
    4.1821   -3.6850    0.0000 O   0  0  0  0  0  0  0  0  0  0  0  0
    5.6111   -3.6850    0.0000 O   0  0  0  0  0  0  0  0  0  0  0  0
    9.9803   -3.8840    0.0000 C   0  0  0  0  0  0  0  0  0  0  0  0
    9.5959   -3.3830    0.0000 C   0  0  0  0  0  0  0  0  0  0  0  0
    9.8979   -5.3350    0.0000 O   0  0  0  0  0  0  0  0  0  0  0  0
    7.0400   -6.1600    0.0000 O   0  0  0  0  0  0  0  0  0  0  0  0
    6.3255   -6.5725    0.0000 C   0  0  2  0  0  0  0  0  0  0  0  0
    5.6111   -6.1600    0.0000 O   0  0  0  0  0  0  0  0  0  0  0  0
    4.8966   -6.5725    0.0000 C   0  0  1  0  0  0  0  0  0  0  0  0
    4.8966   -7.3975    0.0000 C   0  0  2  0  0  0  0  0  0  0  0  0
    5.6111   -7.8100    0.0000 C   0  0  1  0  0  0  0  0  0  0  0  0
    6.3255   -7.3975    0.0000 C   0  0  1  0  0  0  0  0  0  0  0  0
    4.1821   -6.1600    0.0000 C   0  0  0  0  0  0  0  0  0  0  0  0
    5.6111   -8.6350    0.0000 O   0  0  0  0  0  0  0  0  0  0  0  0
    4.1821   -7.8100    0.0000 O   0  0  0  0  0  0  0  0  0  0  0  0
    7.0400   -7.8100    0.0000 O   0  0  0  0  0  0  0  0  0  0  0  0
    3.4676   -6.5725    0.0000 O   0  0  0  0  0  0  0  0  0  0  0  0
    3.4676   -4.0975    0.0000 C   0  0  0  0  0  0  0  0  0  0  0  0
  1  2  2  0  0  0  0
  2  3  1  0  0  0  0
  3  4  2  0  0  0  0
  4  5  1  0  0  0  0
  5  6  2  0  0  0  0
  6  1  1  0  0  0  0
  4  7  1  0  0  0  0
  7  8  1  0  0  0  0
  8  9  1  0  0  0  0
  9 10  1  0  0  0  0
 10  5  1  0  0  0  0
  2 11  1  0  0  0  0
 11 12  1  0  0  0  0
 12 13  1  0  0  0  0
 13 14  1  0  0  0  0
 13 15  2  0  0  0  0
  9 16  1  0  0  0  0
  9 17  1  0  0  0  0
  8 18  1  0  0  0  0
  3 19  1  0  0  0  0
 20 19  1  1  0  0  0
 20 21  1  0  0  0  0
 21 22  1  0  0  0  0
 22 23  1  0  0  0  0
 23 24  1  0  0  0  0
 24 25  1  0  0  0  0
 25 20  1  0  0  0  0
 22 26  1  1  0  0  0
 24 27  1  1  0  0  0
 23 28  1  6  0  0  0
 25 29  1  6  0  0  0
 26 30  1  0  0  0  0
 14 31  1  0  0  0  0
M  END
>  <cdx:fragmentId>
75

$$$$
