427494.cdx
  Mrv1902 05222410212D          

 16 17  0  0  0  0            999 V2000
    9.6580   -6.8690    0.0000 C   0  0  0  0  0  0  0  0  0  0  0  0
   10.0738   -7.5816    0.0000 C   0  0  0  0  0  0  0  0  0  0  0  0
   10.0673   -6.1527    0.0000 O   0  0  0  0  0  0  0  0  0  0  0  0
    8.8330   -6.8728    0.0000 O   0  0  0  0  0  0  0  0  0  0  0  0
    7.5350   -5.8025    0.0000 C   0  0  2  0  0  0  0  0  0  0  0  0
    8.5525   -6.1600    0.0000 C   0  0  1  0  0  0  0  0  0  0  0  0
    8.9650   -5.6100    0.0000 C   0  0  0  0  0  0  0  0  0  0  0  0
    8.6350   -5.0050    0.0000 C   0  0  0  0  0  0  0  0  0  0  0  0
    7.0675   -5.1425    0.0000 C   0  0  1  0  0  0  0  0  0  0  0  0
    6.1875   -5.7475    0.0000 C   0  0  0  0  0  0  0  0  0  0  0  0
    7.7000   -4.0150    0.0000 C   0  0  0  0  0  0  0  0  0  0  0  0
    5.6041   -6.3309    0.0000 C   0  0  0  0  0  0  0  0  0  0  0  0
    5.3906   -5.5340    0.0000 C   0  0  0  0  0  0  0  0  0  0  0  0
    9.0475   -4.2905    0.0000 C   0  0  0  0  0  0  0  0  0  0  0  0
    7.3215   -6.5994    0.0000 H   0  0  0  0  0  0  0  0  0  0  0  0
    6.6550   -4.4280    0.0000 H   0  0  0  0  0  0  0  0  0  0  0  0
  1  2  1  0  0  0  0
  1  3  2  0  0  0  0
  1  4  1  0  0  0  0
  5  6  1  0  0  0  0
  6  7  1  0  0  0  0
  7  8  2  0  0  0  0
  8  9  1  0  0  0  0
  9 10  1  0  0  0  0
  5 10  1  0  0  0  0
  5 11  1  0  0  0  0
  9 11  1  0  0  0  0
 10 12  1  0  0  0  0
 10 13  1  0  0  0  0
  8 14  1  0  0  0  0
  6  4  1  1  0  0  0
  5 15  1  1  0  0  0
  9 16  1  6  0  0  0
M  END
>  <cdx:fragmentId>
13

$$$$
