11427657.cdx
  Mrv1902 05222410212D          

 25 28  0  0  0  0            999 V2000
    7.6007  -13.0918    0.0000 C   0  0  0  0  0  0  0  0  0  0  0  0
    7.6007  -13.9168    0.0000 C   0  0  0  0  0  0  0  0  0  0  0  0
    6.8863  -14.3293    0.0000 C   0  0  0  0  0  0  0  0  0  0  0  0
    6.1718  -13.9168    0.0000 C   0  0  0  0  0  0  0  0  0  0  0  0
    5.4573  -14.3293    0.0000 C   0  0  0  0  0  0  0  0  0  0  0  0
    4.7429  -13.9168    0.0000 C   0  0  0  0  0  0  0  0  0  0  0  0
    4.7429  -13.0918    0.0000 C   0  0  0  0  0  0  0  0  0  0  0  0
    5.4573  -12.6793    0.0000 C   0  0  0  0  0  0  0  0  0  0  0  0
    6.1718  -13.0918    0.0000 C   0  0  0  0  0  0  0  0  0  0  0  0
    6.8863  -12.6793    0.0000 O   0  0  0  0  0  0  0  0  0  0  0  0
    8.3152  -12.6793    0.0000 O   0  0  0  0  0  0  0  0  0  0  0  0
    7.6007  -16.3918    0.0000 C   0  0  0  0  0  0  0  0  0  0  0  0
    8.3152  -16.8043    0.0000 C   0  0  0  0  0  0  0  0  0  0  0  0
    9.0297  -16.3918    0.0000 C   0  0  0  0  0  0  0  0  0  0  0  0
    9.0297  -15.5668    0.0000 C   0  0  0  0  0  0  0  0  0  0  0  0
    9.7441  -15.1543    0.0000 C   0  0  0  0  0  0  0  0  0  0  0  0
    9.7441  -14.3293    0.0000 C   0  0  0  0  0  0  0  0  0  0  0  0
    9.0297  -13.9168    0.0000 C   0  0  0  0  0  0  0  0  0  0  0  0
    8.3152  -14.3293    0.0000 C   0  0  0  0  0  0  0  0  0  0  0  0
    8.3152  -15.1543    0.0000 C   0  0  0  0  0  0  0  0  0  0  0  0
    7.6007  -15.5668    0.0000 O   0  0  0  0  0  0  0  0  0  0  0  0
    7.1882  -17.1062    0.0000 C   0  0  0  0  0  0  0  0  0  0  0  0
    6.7757  -16.3918    0.0000 C   0  0  0  0  0  0  0  0  0  0  0  0
   10.4586  -15.5668    0.0000 O   0  0  0  0  0  0  0  0  0  0  0  0
    4.0284  -12.6793    0.0000 O   0  0  0  0  0  0  0  0  0  0  0  0
  1  2  1  0  0  0  0
  2  3  2  0  0  0  0
  3  4  1  0  0  0  0
  4  5  1  0  0  0  0
  5  6  2  0  0  0  0
  6  7  1  0  0  0  0
  7  8  2  0  0  0  0
  8  9  1  0  0  0  0
  4  9  2  0  0  0  0
  9 10  1  0  0  0  0
  1 10  1  0  0  0  0
  1 11  2  0  0  0  0
 12 13  1  0  0  0  0
 13 14  2  0  0  0  0
 14 15  1  0  0  0  0
 15 16  1  0  0  0  0
 16 17  2  0  0  0  0
 17 18  1  0  0  0  0
 18 19  2  0  0  0  0
 19 20  1  0  0  0  0
 15 20  2  0  0  0  0
 20 21  1  0  0  0  0
 12 21  1  0  0  0  0
 12 22  1  0  0  0  0
 12 23  1  0  0  0  0
 16 24  1  0  0  0  0
  2 19  1  0  0  0  0
  7 25  1  0  0  0  0
M  END
>  <cdx:fragmentId>
71389

$$$$
