4276.cdx
  Mrv1902 05222410202D          

 14 15  0  0  0  0            999 V2000
    5.7030   -5.8977    0.0000 O   0  0  0  0  0  0  0  0  0  0  0  0
    5.2181   -5.2303    0.0000 C   0  0  0  0  0  0  0  0  0  0  0  0
    5.7030   -4.5628    0.0000 O   0  0  0  0  0  0  0  0  0  0  0  0
    6.4877   -4.8178    0.0000 C   0  0  0  0  0  0  0  0  0  0  0  0
    6.4877   -5.6428    0.0000 C   0  0  0  0  0  0  0  0  0  0  0  0
    7.2021   -4.4053    0.0000 C   0  0  0  0  0  0  0  0  0  0  0  0
    7.9166   -4.8178    0.0000 C   0  0  0  0  0  0  0  0  0  0  0  0
    7.9166   -5.6428    0.0000 C   0  0  0  0  0  0  0  0  0  0  0  0
    7.2021   -6.0553    0.0000 C   0  0  0  0  0  0  0  0  0  0  0  0
    8.6311   -6.0553    0.0000 C   0  0  0  0  0  0  0  0  0  0  0  0
    9.3455   -5.6428    0.0000 C   0  0  0  0  0  0  0  0  0  0  0  0
   10.0600   -6.0553    0.0000 C   0  0  0  0  0  0  0  0  0  0  0  0
    7.2021   -3.5803    0.0000 O   0  0  0  0  0  0  0  0  0  0  0  0
    7.9166   -3.1678    0.0000 C   0  0  0  0  0  0  0  0  0  0  0  0
  1  2  1  0  0  0  0
  2  3  1  0  0  0  0
  3  4  1  0  0  0  0
  4  5  1  0  0  0  0
  1  5  1  0  0  0  0
  6  7  1  0  0  0  0
  7  8  2  0  0  0  0
  8  9  1  0  0  0  0
  9  5  2  0  0  0  0
  6  4  2  0  0  0  0
 10 11  1  0  0  0  0
 11 12  2  0  0  0  0
  8 10  1  0  0  0  0
 13 14  1  0  0  0  0
  6 13  1  0  0  0  0
M  END
>  <cdx:fragmentId>
5

$$$$
