4277.cdx
  Mrv1902 05222410202D          

 16 17  0  0  0  0            999 V2000
    5.3963   -3.1809    0.0000 N   0  0  0  0  0  0  0  0  0  0  0  0
    4.6819   -2.7684    0.0000 C   0  0  0  0  0  0  0  0  0  0  0  0
    4.6819   -1.9434    0.0000 O   0  0  0  0  0  0  0  0  0  0  0  0
    3.9674   -3.1809    0.0000 N   0  0  0  0  0  0  0  0  0  0  0  0
    3.2529   -2.7684    0.0000 C   0  0  0  0  0  0  0  0  0  0  0  0
    2.5385   -3.1809    0.0000 C   0  0  0  0  0  0  0  0  0  0  0  0
    1.8240   -2.7684    0.0000 C   0  0  0  0  0  0  0  0  0  0  0  0
    1.8240   -1.9434    0.0000 C   0  0  0  0  0  0  0  0  0  0  0  0
    2.5385   -1.5309    0.0000 C   0  0  0  0  0  0  0  0  0  0  0  0
    3.2529   -1.9434    0.0000 C   0  0  0  0  0  0  0  0  0  0  0  0
    6.1108   -2.7684    0.0000 C   0  0  0  0  0  0  0  0  0  0  0  0
    6.1108   -1.9434    0.0000 C   0  0  0  0  0  0  0  0  0  0  0  0
    6.8253   -1.5309    0.0000 C   0  0  0  0  0  0  0  0  0  0  0  0
    7.5398   -1.9434    0.0000 C   0  0  0  0  0  0  0  0  0  0  0  0
    7.5398   -2.7684    0.0000 C   0  0  0  0  0  0  0  0  0  0  0  0
    6.8253   -3.1809    0.0000 C   0  0  0  0  0  0  0  0  0  0  0  0
  1  2  1  0  0  0  0
  2  3  2  0  0  0  0
  2  4  1  0  0  0  0
  5  6  1  0  0  0  0
  6  7  1  0  0  0  0
  7  8  1  0  0  0  0
  8  9  1  0  0  0  0
  9 10  1  0  0  0  0
  5 10  1  0  0  0  0
  4  5  1  0  0  0  0
 11 12  1  0  0  0  0
 12 13  1  0  0  0  0
 13 14  1  0  0  0  0
 14 15  1  0  0  0  0
 15 16  1  0  0  0  0
 11 16  1  0  0  0  0
  1 11  1  0  0  0  0
M  END
>  <cdx:groupId>
51

>  <cdx:fragmentId>
13

$$$$
