428021.cdx
  Mrv1902 05222410242D          

 17 18  0  0  0  0            999 V2000
    7.6272   -6.5725    0.0000 C   0  0  0  0  0  0  0  0  0  0  0  0
    7.6272   -7.3975    0.0000 N   0  0  0  0  0  0  0  0  0  0  0  0
    8.4119   -7.6524    0.0000 C   0  0  0  0  0  0  0  0  0  0  0  0
    8.8968   -6.9850    0.0000 C   0  0  0  0  0  0  0  0  0  0  0  0
    8.4119   -6.3176    0.0000 C   0  0  2  0  0  0  0  0  0  0  0  0
    6.8426   -6.3176    0.0000 C   0  0  1  0  0  0  0  0  0  0  0  0
    6.3577   -6.9850    0.0000 C   0  0  0  0  0  0  0  0  0  0  0  0
    6.8426   -7.6524    0.0000 C   0  0  0  0  0  0  0  0  0  0  0  0
    8.6668   -5.5329    0.0000 C   0  0  0  0  0  0  0  0  0  0  0  0
    6.5877   -5.5329    0.0000 O   0  0  0  0  0  0  0  0  0  0  0  0
    5.7807   -5.3614    0.0000 C   0  0  0  0  0  0  0  0  0  0  0  0
    5.2287   -5.9745    0.0000 O   0  0  0  0  0  0  0  0  0  0  0  0
    5.5258   -4.5768    0.0000 C   0  0  0  0  0  0  0  0  0  0  0  0
    6.0778   -3.9637    0.0000 C   0  0  0  0  0  0  0  0  0  0  0  0
    4.7188   -4.4053    0.0000 C   0  0  0  0  0  0  0  0  0  0  0  0
    4.4639   -3.6206    0.0000 C   0  0  0  0  0  0  0  0  0  0  0  0
    9.4738   -5.3614    0.0000 O   0  0  0  0  0  0  0  0  0  0  0  0
  1  2  1  0  0  0  0
  2  3  1  0  0  0  0
  3  4  1  0  0  0  0
  4  5  1  0  0  0  0
  5  1  1  0  0  0  0
  1  6  1  0  0  0  0
  6  7  1  0  0  0  0
  7  8  1  0  0  0  0
  8  2  1  0  0  0  0
  5  9  1  1  0  0  0
  6 10  1  1  0  0  0
 10 11  1  0  0  0  0
 11 12  2  0  0  0  0
 11 13  1  0  0  0  0
 13 14  1  0  0  0  0
 13 15  2  0  0  0  0
 15 16  1  0  0  0  0
  9 17  1  0  0  0  0
M  END
>  <cdx:fragmentId>
46219

$$$$
