428020.cdx
  Mrv1902 05222410242D          

 15 17  0  0  0  0            999 V2000
    5.8855   -3.8885    0.0000 C   0  0  0  0  0  0  0  0  0  0  0  0
    5.8855   -4.7135    0.0000 C   0  0  0  0  0  0  0  0  0  0  0  0
    6.6000   -5.1260    0.0000 C   0  0  0  0  0  0  0  0  0  0  0  0
    7.3145   -4.7135    0.0000 C   0  0  0  0  0  0  0  0  0  0  0  0
    7.3145   -3.8885    0.0000 C   0  0  0  0  0  0  0  0  0  0  0  0
    6.6000   -3.4760    0.0000 C   0  0  0  0  0  0  0  0  0  0  0  0
    6.6000   -5.9510    0.0000 C   0  0  0  0  0  0  0  0  0  0  0  0
    7.3145   -6.3635    0.0000 C   0  0  0  0  0  0  0  0  0  0  0  0
    8.0289   -5.9510    0.0000 C   0  0  0  0  0  0  0  0  0  0  0  0
    8.0289   -5.1260    0.0000 C   0  0  0  0  0  0  0  0  0  0  0  0
    5.8855   -5.5385    0.0000 C   0  0  0  0  0  0  0  0  0  0  0  0
    5.1711   -3.4760    0.0000 C   0  0  0  0  0  0  0  0  0  0  0  0
    8.0289   -4.3010    0.0000 C   0  0  0  0  0  0  0  0  0  0  0  0
    5.8031   -6.1645    0.0000 C   0  0  0  0  0  0  0  0  0  0  0  0
    6.1875   -6.6655    0.0000 C   0  0  0  0  0  0  0  0  0  0  0  0
  1  2  1  0  0  0  0
  2  3  1  0  0  0  0
  3  4  1  0  0  0  0
  4  5  1  0  0  0  0
  5  6  1  0  0  0  0
  6  1  2  0  0  0  0
  3  7  1  0  0  0  0
  7  8  1  0  0  0  0
  8  9  2  0  0  0  0
  9 10  1  0  0  0  0
 10  4  1  0  0  0  0
  2 11  1  0  0  0  0
 11  3  1  0  0  0  0
  1 12  1  0  0  0  0
  4 13  1  0  0  0  0
  7 14  1  0  0  0  0
  7 15  1  0  0  0  0
M  END
>  <cdx:fragmentId>
46154

$$$$
