428321.cdx
  Mrv1902 05222410272D          

 17 19  0  0  0  0            999 V2000
    9.4127   -6.4267    0.0000 H   0  0  0  0  0  0  0  0  0  0  0  0
    6.0659   -8.0767    0.0000 C   0  0  0  0  0  0  0  0  0  0  0  0
    6.7804   -5.1892    0.0000 C   0  0  0  0  0  0  0  0  0  0  0  0
    8.9977   -7.4715    0.0000 C   0  0  0  0  0  0  0  0  0  0  0  0
    8.3527   -7.9858    0.0000 C   0  0  0  0  0  0  0  0  0  0  0  0
    7.5660   -6.1116    0.0000 C   0  0  0  0  0  0  0  0  0  0  0  0
    7.4254   -7.3536    0.0000 O   0  0  0  0  0  0  0  0  0  0  0  0
    8.2297   -7.1700    0.0000 C   0  0  0  0  0  0  0  0  0  0  0  0
    8.5877   -6.4267    0.0000 C   0  0  2  0  0  0  0  0  0  0  0  0
    8.2297   -5.6835    0.0000 C   0  0  0  0  0  0  0  0  0  0  0  0
    7.4254   -5.4999    0.0000 C   0  0  0  0  0  0  0  0  0  0  0  0
    6.7804   -6.0142    0.0000 C   0  0  1  0  0  0  0  0  0  0  0  0
    6.0659   -5.6017    0.0000 C   0  0  0  0  0  0  0  0  0  0  0  0
    5.3515   -6.0142    0.0000 C   0  0  0  0  0  0  0  0  0  0  0  0
    5.3515   -6.8392    0.0000 C   0  0  0  0  0  0  0  0  0  0  0  0
    6.0659   -7.2517    0.0000 C   0  0  0  0  0  0  0  0  0  0  0  0
    6.7804   -6.8392    0.0000 C   0  0  1  0  0  0  0  0  0  0  0  0
  9  1  1  6  0  0  0
 16  2  1  0  0  0  0
 12  3  1  6  0  0  0
  8  4  1  0  0  0  0
  8  5  1  0  0  0  0
 17 12  1  0  0  0  0
  9  6  1  0  0  0  0
 17  6  1  0  0  0  0
 17  7  1  0  0  0  0
  8  7  1  0  0  0  0
  9  8  1  0  0  0  0
 10  9  1  0  0  0  0
 11 10  1  0  0  0  0
 12 11  1  0  0  0  0
 13 12  1  0  0  0  0
 14 13  1  0  0  0  0
 15 14  1  0  0  0  0
 16 15  2  0  0  0  0
 17 16  1  6  0  0  0
M  END
>  <cdx:fragmentId>
5

$$$$
