428388.cdx
  Mrv1902 05222410212D          

 18 19  0  0  0  0            999 V2000
    5.5779   -9.4156    0.0000 C   0  0  0  0  0  0  0  0  0  0  0  0
    5.4359   -8.6029    0.0000 C   0  0  0  0  0  0  0  0  0  0  0  0
    6.3528   -9.6989    0.0000 C   0  0  1  0  0  0  0  0  0  0  0  0
    7.0374   -9.2386    0.0000 C   0  0  2  0  0  0  0  0  0  0  0  0
    7.6868   -9.7474    0.0000 C   0  0  2  0  0  0  0  0  0  0  0  0
    7.4034  -10.5223    0.0000 C   0  0  0  0  0  0  0  0  0  0  0  0
    6.5790  -10.4923    0.0000 C   0  0  0  0  0  0  0  0  0  0  0  0
    6.4180   -7.9052    0.0000 O   0  0  0  0  0  0  0  0  0  0  0  0
    7.0674   -8.4141    0.0000 C   0  0  0  0  0  0  0  0  0  0  0  0
    7.7520   -7.9538    0.0000 C   0  0  0  0  0  0  0  0  0  0  0  0
    7.5258   -7.1604    0.0000 C   0  0  0  0  0  0  0  0  0  0  0  0
    6.7014   -7.1304    0.0000 C   0  0  0  0  0  0  0  0  0  0  0  0
    9.1596   -7.7077    0.0000 C   0  0  0  0  0  0  0  0  0  0  0  0
    8.5269   -8.2371    0.0000 C   0  0  0  0  0  0  0  0  0  0  0  0
    8.6689   -9.0498    0.0000 C   0  0  0  0  0  0  0  0  0  0  0  0
    8.4801   -9.5212    0.0000 C   0  0  0  0  0  0  0  0  0  0  0  0
    4.9452   -9.9450    0.0000 O   0  0  0  0  0  0  0  0  0  0  0  0
    6.4540   -8.6552    0.0000 H   0  0  0  0  0  0  0  0  0  0  0  0
  1  2  1  0  0  0  0
  3  4  1  0  0  0  0
  4  5  1  0  0  0  0
  5  6  1  0  0  0  0
  6  7  1  0  0  0  0
  3  7  1  0  0  0  0
  8  9  1  0  0  0  0
  9 10  2  0  0  0  0
 10 11  1  0  0  0  0
 11 12  2  0  0  0  0
  8 12  1  0  0  0  0
 13 14  1  0  0  0  0
 14 15  1  0  0  0  0
 10 14  1  0  0  0  0
  4  9  1  0  0  0  0
  5 16  1  1  0  0  0
  3  1  1  1  0  0  0
  1 17  2  0  0  0  0
  4 18  1  6  0  0  0
M  END
>  <cdx:fragmentId>
19

$$$$
