428415.cdx
  Mrv1902 05222410222D          

 16 18  0  0  0  0            999 V2000
    7.9164   -7.8007    0.0000 C   0  0  0  0  0  0  0  0  0  0  0  0
    8.7010   -7.5458    0.0000 C   0  0  0  0  0  0  0  0  0  0  0  0
    9.1859   -8.2132    0.0000 C   0  0  0  0  0  0  0  0  0  0  0  0
    8.7010   -8.8806    0.0000 C   0  0  0  0  0  0  0  0  0  0  0  0
    7.9164   -8.6257    0.0000 C   0  0  0  0  0  0  0  0  0  0  0  0
    7.2714   -9.1401    0.0000 C   0  0  0  0  0  0  0  0  0  0  0  0
    6.4670   -8.9565    0.0000 C   0  0  0  0  0  0  0  0  0  0  0  0
    6.1091   -8.2132    0.0000 C   0  0  0  0  0  0  0  0  0  0  0  0
    6.4670   -7.4699    0.0000 C   0  0  2  0  0  0  0  0  0  0  0  0
    7.2714   -7.2863    0.0000 C   0  0  0  0  0  0  0  0  0  0  0  0
    6.8591   -7.9600    0.0000 C   0  0  0  0  0  0  0  0  0  0  0  0
    5.9527   -6.8249    0.0000 O   0  0  0  0  0  0  0  0  0  0  0  0
    5.2841   -8.2132    0.0000 C   0  0  0  0  0  0  0  0  0  0  0  0
    7.8325   -9.7448    0.0000 C   0  0  0  0  0  0  0  0  0  0  0  0
    7.0282   -9.9284    0.0000 C   0  0  0  0  0  0  0  0  0  0  0  0
    8.9559   -6.7611    0.0000 C   0  0  0  0  0  0  0  0  0  0  0  0
  1  2  1  0  0  0  0
  2  3  1  0  0  0  0
  3  4  1  0  0  0  0
  4  5  1  0  0  0  0
  5  6  1  0  0  0  0
  6  7  1  0  0  0  0
  7  8  1  0  0  0  0
  8  9  1  0  0  0  0
  9 10  1  0  0  0  0
  1 10  1  0  0  0  0
  1 11  1  0  0  0  0
 11  7  1  0  0  0  0
  1  5  1  0  0  0  0
  9 12  1  1  0  0  0
  8 13  2  0  0  0  0
  6 14  1  0  0  0  0
  6 15  1  0  0  0  0
  2 16  1  0  0  0  0
M  END
>  <cdx:fragmentId>
12454

$$$$
