428488.cdx
  Mrv1902 05222410192D          

 15 16  0  0  0  0            999 V2000
    8.3118   -9.3532    0.0000 C   0  0  1  0  0  0  0  0  0  0  0  0
    9.0262   -8.9407    0.0000 C   0  0  0  0  0  0  0  0  0  0  0  0
    9.0262   -8.1157    0.0000 C   0  0  0  0  0  0  0  0  0  0  0  0
    8.3118   -7.7032    0.0000 C   0  0  0  0  0  0  0  0  0  0  0  0
    7.5973   -8.1157    0.0000 C   0  0  0  0  0  0  0  0  0  0  0  0
    6.8828   -7.7032    0.0000 C   0  0  0  0  0  0  0  0  0  0  0  0
    6.1684   -8.1157    0.0000 C   0  0  0  0  0  0  0  0  0  0  0  0
    6.1684   -8.9407    0.0000 C   0  0  0  0  0  0  0  0  0  0  0  0
    6.8828   -9.3532    0.0000 C   0  0  0  0  0  0  0  0  0  0  0  0
    7.5973   -8.9407    0.0000 C   0  0  0  0  0  0  0  0  0  0  0  0
    7.5973   -6.4657    0.0000 C   0  0  0  0  0  0  0  0  0  0  0  0
    8.3118   -6.8782    0.0000 C   0  0  0  0  0  0  0  0  0  0  0  0
    9.0262   -6.4657    0.0000 C   0  0  0  0  0  0  0  0  0  0  0  0
    5.4539   -7.7032    0.0000 C   0  0  0  0  0  0  0  0  0  0  0  0
    8.3118  -10.1782    0.0000 C   0  0  0  0  0  0  0  0  0  0  0  0
  1  2  1  0  0  0  0
  2  3  1  0  0  0  0
  3  4  1  0  0  0  0
  4  5  2  0  0  0  0
  5  6  1  0  0  0  0
  6  7  2  0  0  0  0
  7  8  1  0  0  0  0
  8  9  1  0  0  0  0
  9 10  1  0  0  0  0
  1 10  1  0  0  0  0
  5 10  1  0  0  0  0
 11 12  1  0  0  0  0
 12 13  1  0  0  0  0
  4 12  1  0  0  0  0
  7 14  1  0  0  0  0
  1 15  1  6  0  0  0
M  END
>  <cdx:fragmentId>
12564

$$$$
