428435.cdx
  Mrv1902 05222410252D          

 16 17  0  0  0  0            999 V2000
    5.8426   -7.2811    0.0000 C   0  0  0  0  0  0  0  0  0  0  0  0
    5.0579   -7.0262    0.0000 C   0  0  1  0  0  0  0  0  0  0  0  0
    5.0579   -6.2012    0.0000 C   0  0  0  0  0  0  0  0  0  0  0  0
    5.8426   -5.9462    0.0000 C   0  0  0  0  0  0  0  0  0  0  0  0
    6.3275   -6.6137    0.0000 C   0  0  1  0  0  0  0  0  0  0  0  0
    6.6630   -7.3673    0.0000 C   0  0  0  0  0  0  0  0  0  0  0  0
    4.3435   -7.4387    0.0000 O   0  0  0  0  0  0  0  0  0  0  0  0
    7.0419   -5.3762    0.0000 C   0  0  0  0  0  0  0  0  0  0  0  0
    7.0419   -6.2012    0.0000 C   0  0  0  0  0  0  0  0  0  0  0  0
    7.7564   -6.6137    0.0000 C   0  0  0  0  0  0  0  0  0  0  0  0
    8.4709   -6.2012    0.0000 C   0  0  0  0  0  0  0  0  0  0  0  0
    9.1854   -6.6137    0.0000 C   0  0  0  0  0  0  0  0  0  0  0  0
    9.8998   -6.2012    0.0000 C   0  0  0  0  0  0  0  0  0  0  0  0
    9.8998   -5.3762    0.0000 C   0  0  0  0  0  0  0  0  0  0  0  0
   10.6143   -6.6137    0.0000 C   0  0  0  0  0  0  0  0  0  0  0  0
    5.0579   -7.8512    0.0000 C   0  0  0  0  0  0  0  0  0  0  0  0
  1  2  1  0  0  0  0
  2  3  1  0  0  0  0
  3  4  1  0  0  0  0
  5  4  1  0  0  0  0
  5  6  1  0  0  0  0
  1  6  1  0  0  0  0
  1  5  1  0  0  0  0
  2  7  1  6  0  0  0
  8  9  1  0  0  0  0
  9 10  1  0  0  0  0
 10 11  1  0  0  0  0
 11 12  1  0  0  0  0
 12 13  2  0  0  0  0
 13 14  1  0  0  0  0
 13 15  1  0  0  0  0
  2 16  1  0  0  0  0
  5  9  1  6  0  0  0
M  END
>  <cdx:fragmentId>
19

$$$$
