428540.cdx
  Mrv1902 05222410252D          

 13 12  0  0  0  0            999 V2000
    3.3139   -8.5299    0.0000 C   0  0  0  0  0  0  0  0  0  0  0  0
    4.0284   -8.9424    0.0000 O   0  0  0  0  0  0  0  0  0  0  0  0
    4.7429   -7.7049    0.0000 O   0  0  0  0  0  0  0  0  0  0  0  0
   11.1731   -8.9424    0.0000 C   0  0  0  0  0  0  0  0  0  0  0  0
   10.4586   -8.5299    0.0000 C   0  0  0  0  0  0  0  0  0  0  0  0
    9.7441   -8.9424    0.0000 C   0  0  0  0  0  0  0  0  0  0  0  0
    9.0297   -8.5299    0.0000 C   0  0  0  0  0  0  0  0  0  0  0  0
    8.3152   -8.9424    0.0000 C   0  0  0  0  0  0  0  0  0  0  0  0
    7.6007   -8.5299    0.0000 C   0  0  0  0  0  0  0  0  0  0  0  0
    6.8863   -8.9424    0.0000 C   0  0  0  0  0  0  0  0  0  0  0  0
    6.1718   -8.5299    0.0000 C   0  0  0  0  0  0  0  0  0  0  0  0
    5.4573   -8.9424    0.0000 C   0  0  0  0  0  0  0  0  0  0  0  0
    4.7429   -8.5299    0.0000 C   0  0  0  0  0  0  0  0  0  0  0  0
  2  1  1  0  0  0  0
 13  2  1  0  0  0  0
 13  3  2  0  0  0  0
  5  4  1  0  0  0  0
  6  5  2  0  0  0  0
  7  6  1  0  0  0  0
  8  7  1  0  0  0  0
  9  8  1  0  0  0  0
 10  9  2  0  0  0  0
 11 10  1  0  0  0  0
 12 11  1  0  0  0  0
 13 12  1  0  0  0  0
M  END
>  <cdx:groupId>
12729

>  <cdx:fragmentId>
12694

$$$$
