428535.cdx
  Mrv1902 05222410282D          

 15 16  0  0  0  0            999 V2000
    7.2281   -6.5892    0.0000 C   0  0  0  0  0  0  0  0  0  0  0  0
    7.2281   -5.7642    0.0000 C   0  0  0  0  0  0  0  0  0  0  0  0
    6.5831   -5.2499    0.0000 C   0  0  0  0  0  0  0  0  0  0  0  0
    5.7788   -5.4334    0.0000 C   0  0  0  0  0  0  0  0  0  0  0  0
    5.4208   -6.1767    0.0000 C   0  0  0  0  0  0  0  0  0  0  0  0
    5.7788   -6.9200    0.0000 C   0  0  0  0  0  0  0  0  0  0  0  0
    6.5831   -7.1036    0.0000 C   0  0  0  0  0  0  0  0  0  0  0  0
    7.9426   -5.3517    0.0000 C   0  0  0  0  0  0  0  0  0  0  0  0
    8.6571   -5.7642    0.0000 C   0  0  0  0  0  0  0  0  0  0  0  0
    8.6571   -6.5892    0.0000 C   0  0  0  0  0  0  0  0  0  0  0  0
    7.9426   -7.0017    0.0000 C   0  0  0  0  0  0  0  0  0  0  0  0
    7.0307   -4.5568    0.0000 C   0  0  0  0  0  0  0  0  0  0  0  0
    6.2722   -4.4857    0.0000 C   0  0  0  0  0  0  0  0  0  0  0  0
    6.7667   -7.9079    0.0000 C   0  0  0  0  0  0  0  0  0  0  0  0
    9.3715   -5.3517    0.0000 C   0  0  0  0  0  0  0  0  0  0  0  0
  1  2  1  0  0  0  0
  2  3  1  0  0  0  0
  3  4  1  0  0  0  0
  4  5  1  0  0  0  0
  5  6  1  0  0  0  0
  6  7  2  0  0  0  0
  1  7  1  0  0  0  0
  8  9  2  0  0  0  0
  9 10  1  0  0  0  0
 10 11  1  0  0  0  0
 11  1  1  0  0  0  0
  8  2  1  0  0  0  0
  3 12  1  0  0  0  0
  3 13  1  0  0  0  0
  7 14  1  0  0  0  0
  9 15  1  0  0  0  0
M  END
>  <cdx:fragmentId>
5

$$$$
