428553.cdx
  Mrv1902 05222410232D          

 11 10  0  0  0  0            999 V2000
    4.8054   -7.9368    0.0000 C   0  0  0  0  0  0  0  0  0  0  0  0
    4.8054   -8.7618    0.0000 C   0  0  0  0  0  0  0  0  0  0  0  0
    5.5199   -9.1743    0.0000 C   0  0  0  0  0  0  0  0  0  0  0  0
    6.2344   -8.7618    0.0000 C   0  0  0  0  0  0  0  0  0  0  0  0
    6.9488   -9.1743    0.0000 C   0  0  0  0  0  0  0  0  0  0  0  0
    7.6633   -8.7618    0.0000 C   0  0  0  0  0  0  0  0  0  0  0  0
    8.3778   -9.1743    0.0000 C   0  0  0  0  0  0  0  0  0  0  0  0
    9.0922   -8.7618    0.0000 C   0  0  0  0  0  0  0  0  0  0  0  0
    9.8067   -9.1743    0.0000 C   0  0  0  0  0  0  0  0  0  0  0  0
   10.5212   -8.7618    0.0000 C   0  0  0  0  0  0  0  0  0  0  0  0
    4.0909   -7.5243    0.0000 O   0  0  0  0  0  0  0  0  0  0  0  0
  1  2  1  0  0  0  0
  2  3  2  0  0  0  0
  3  4  1  0  0  0  0
  4  5  2  0  0  0  0
  5  6  1  0  0  0  0
  6  7  1  0  0  0  0
  7  8  1  0  0  0  0
  8  9  1  0  0  0  0
  9 10  1  0  0  0  0
  1 11  2  0  0  0  0
M  END
>  <cdx:groupId>
12766

>  <cdx:fragmentId>
12737

$$$$
