44428630.cdx
  Mrv1902 05222410232D          

 34 36  0  0  0  0            999 V2000
    5.8393  -14.6223    0.0000 C   0  0  2  0  0  0  0  0  0  0  0  0
    5.8393  -13.7973    0.0000 C   0  0  1  0  0  0  0  0  0  0  0  0
    6.5538  -13.3848    0.0000 C   0  0  0  0  0  0  0  0  0  0  0  0
    7.2682  -13.7973    0.0000 C   0  0  0  0  0  0  0  0  0  0  0  0
    7.9827  -13.3848    0.0000 C   0  0  0  0  0  0  0  0  0  0  0  0
    8.6972  -13.7973    0.0000 C   0  0  0  0  0  0  0  0  0  0  0  0
    8.6972  -14.6223    0.0000 C   0  0  0  0  0  0  0  0  0  0  0  0
    7.9827  -15.0348    0.0000 C   0  0  0  0  0  0  0  0  0  0  0  0
    7.2682  -14.6223    0.0000 C   0  0  0  0  0  0  0  0  0  0  0  0
    6.5538  -15.0348    0.0000 O   0  0  0  0  0  0  0  0  0  0  0  0
    6.5538  -12.5598    0.0000 O   0  0  0  0  0  0  0  0  0  0  0  0
    7.9827  -12.5598    0.0000 O   0  0  0  0  0  0  0  0  0  0  0  0
    8.6972  -12.1473    0.0000 C   0  0  0  0  0  0  0  0  0  0  0  0
    7.9827  -15.8598    0.0000 C   0  0  0  0  0  0  0  0  0  0  0  0
    8.6972  -16.2723    0.0000 C   0  0  1  0  0  0  0  0  0  0  0  0
    9.4117  -15.8598    0.0000 C   0  0  0  0  0  0  0  0  0  0  0  0
   10.1261  -16.2723    0.0000 C   0  0  0  0  0  0  0  0  0  0  0  0
   10.8406  -15.8598    0.0000 C   0  0  0  0  0  0  0  0  0  0  0  0
   10.8406  -15.0348    0.0000 C   0  0  0  0  0  0  0  0  0  0  0  0
    9.4117  -17.5098    0.0000 C   0  0  0  0  0  0  0  0  0  0  0  0
    8.6972  -17.0973    0.0000 C   0  0  0  0  0  0  0  0  0  0  0  0
    7.9827  -17.5098    0.0000 C   0  0  0  0  0  0  0  0  0  0  0  0
   11.5551  -16.2723    0.0000 C   0  0  0  0  0  0  0  0  0  0  0  0
   11.5551  -15.4473    0.0000 O   0  0  0  0  0  0  0  0  0  0  0  0
    9.4117  -15.0348    0.0000 O   0  0  0  0  0  0  0  0  0  0  0  0
    5.1248  -13.3848    0.0000 O   0  0  0  0  0  0  0  0  0  0  0  0
    5.1248  -15.0348    0.0000 C   0  0  0  0  0  0  0  0  0  0  0  0
    5.1248  -15.8598    0.0000 C   0  0  0  0  0  0  0  0  0  0  0  0
    4.4104  -16.2723    0.0000 C   0  0  0  0  0  0  0  0  0  0  0  0
    3.6959  -15.8598    0.0000 C   0  0  0  0  0  0  0  0  0  0  0  0
    3.6959  -15.0348    0.0000 C   0  0  0  0  0  0  0  0  0  0  0  0
    4.4104  -14.6223    0.0000 C   0  0  0  0  0  0  0  0  0  0  0  0
    2.9814  -16.2723    0.0000 O   0  0  0  0  0  0  0  0  0  0  0  0
    5.8393  -16.2723    0.0000 O   0  0  0  0  0  0  0  0  0  0  0  0
  1  2  1  0  0  0  0
  2  3  1  0  0  0  0
  3  4  1  0  0  0  0
  4  5  1  0  0  0  0
  5  6  2  0  0  0  0
  6  7  1  0  0  0  0
  7  8  2  0  0  0  0
  8  9  1  0  0  0  0
  4  9  2  0  0  0  0
  9 10  1  0  0  0  0
  1 10  1  0  0  0  0
  3 11  2  0  0  0  0
 12 13  1  0  0  0  0
  5 12  1  0  0  0  0
 14 15  1  0  0  0  0
 15 16  1  0  0  0  0
 16 17  1  0  0  0  0
 17 18  1  0  0  0  0
 18 19  1  0  0  0  0
 20 21  2  0  0  0  0
 21 22  1  0  0  0  0
 15 21  1  1  0  0  0
 18 23  1  0  0  0  0
 18 24  1  0  0  0  0
  8 14  1  0  0  0  0
  7 25  1  0  0  0  0
  2 26  1  6  0  0  0
 27 28  1  0  0  0  0
 28 29  2  0  0  0  0
 29 30  1  0  0  0  0
 30 31  2  0  0  0  0
 31 32  1  0  0  0  0
 27 32  2  0  0  0  0
 30 33  1  0  0  0  0
 28 34  1  0  0  0  0
  1 27  1  6  0  0  0
M  END
>  <cdx:groupId>
162821

>  <cdx:fragmentId>
162720

$$$$
