428843.cdx
  Mrv1902 05222410192D          

 16 16  0  0  0  0            999 V2000
    9.2374   -6.9131    0.0000 C   0  0  0  0  0  0  0  0  0  0  0  0
    8.5230   -7.3256    0.0000 C   0  0  0  0  0  0  0  0  0  0  0  0
    7.8085   -6.9131    0.0000 C   0  0  0  0  0  0  0  0  0  0  0  0
    9.9519   -7.3256    0.0000 O   0  0  0  0  0  0  0  0  0  0  0  0
    7.0940   -7.3256    0.0000 C   0  0  0  0  0  0  0  0  0  0  0  0
    7.0940   -8.1506    0.0000 C   0  0  0  0  0  0  0  0  0  0  0  0
    6.3795   -8.5631    0.0000 C   0  0  0  0  0  0  0  0  0  0  0  0
    5.6651   -8.1506    0.0000 C   0  0  0  0  0  0  0  0  0  0  0  0
    5.6651   -7.3256    0.0000 C   0  0  0  0  0  0  0  0  0  0  0  0
    6.3795   -6.9131    0.0000 C   0  0  0  0  0  0  0  0  0  0  0  0
    4.9506   -6.9131    0.0000 O   0  0  0  0  0  0  0  0  0  0  0  0
    4.2361   -7.3256    0.0000 C   0  0  0  0  0  0  0  0  0  0  0  0
    4.9506   -8.5631    0.0000 O   0  0  0  0  0  0  0  0  0  0  0  0
    4.2361   -8.1506    0.0000 C   0  0  0  0  0  0  0  0  0  0  0  0
    6.3795   -9.3881    0.0000 O   0  0  0  0  0  0  0  0  0  0  0  0
    5.6651   -9.8006    0.0000 C   0  0  0  0  0  0  0  0  0  0  0  0
  1  2  1  0  0  0  0
  2  3  1  0  0  0  0
  1  4  1  0  0  0  0
  5  6  1  0  0  0  0
  6  7  2  0  0  0  0
  7  8  1  0  0  0  0
  8  9  2  0  0  0  0
  9 10  1  0  0  0  0
  5 10  2  0  0  0  0
 11 12  1  0  0  0  0
  9 11  1  0  0  0  0
 13 14  1  0  0  0  0
  8 13  1  0  0  0  0
 15 16  1  0  0  0  0
  7 15  1  0  0  0  0
  3  5  1  0  0  0  0
M  END
>  <cdx:fragmentId>
12821

$$$$
