6428912.cdx
  Mrv1902 05222410272D          

 13 12  0  0  0  0            999 V2000
    5.1001   -8.1724    0.0000 C   0  0  0  0  0  0  0  0  0  0  0  0
    4.3856   -8.5849    0.0000 C   0  0  0  0  0  0  0  0  0  0  0  0
    3.6711   -8.1724    0.0000 C   0  0  0  0  0  0  0  0  0  0  0  0
    5.1001   -7.3474    0.0000 O   0  0  0  0  0  0  0  0  0  0  0  0
    5.8146   -8.5849    0.0000 O   0  0  0  0  0  0  0  0  0  0  0  0
    6.5290   -8.1724    0.0000 C   0  0  0  0  0  0  0  0  0  0  0  0
    7.2435   -8.5849    0.0000 C   0  0  0  0  0  0  0  0  0  0  0  0
    7.9580   -8.1724    0.0000 C   0  0  0  0  0  0  0  0  0  0  0  0
    8.6724   -8.5849    0.0000 C   0  0  0  0  0  0  0  0  0  0  0  0
    9.3869   -8.1724    0.0000 C   0  0  0  0  0  0  0  0  0  0  0  0
   10.1014   -8.5849    0.0000 C   0  0  0  0  0  0  0  0  0  0  0  0
   10.8159   -8.1724    0.0000 C   0  0  0  0  0  0  0  0  0  0  0  0
    7.2435   -9.4099    0.0000 C   0  0  0  0  0  0  0  0  0  0  0  0
  1  2  1  0  0  0  0
  2  3  1  0  0  0  0
  1  4  2  0  0  0  0
  1  5  1  0  0  0  0
  6  7  1  0  0  0  0
  7  8  1  0  0  0  0
  8  9  1  0  0  0  0
  9 10  1  0  0  0  0
 10 11  1  0  0  0  0
 11 12  1  0  0  0  0
  7 13  1  0  0  0  0
  5  6  1  0  0  0  0
M  END
>  <cdx:groupId>
12902

>  <cdx:fragmentId>
12877

$$$$
