6428987.cdx
  Mrv1902 05222410222D          

 12 13  0  0  0  0            999 V2000
    6.8116   -7.9112    0.0000 C   0  0  0  0  0  0  0  0  0  0  0  0
    7.5261   -7.4987    0.0000 C   0  0  0  0  0  0  0  0  0  0  0  0
    6.8116   -8.7362    0.0000 N   0  0  0  0  0  0  0  0  0  0  0  0
    8.2406   -7.9112    0.0000 N   0  0  0  0  0  0  0  0  0  0  0  0
    8.2406   -8.7362    0.0000 C   0  0  0  0  0  0  0  0  0  0  0  0
    7.5261   -9.1487    0.0000 C   0  0  0  0  0  0  0  0  0  0  0  0
    6.0270   -7.6562    0.0000 C   0  0  0  0  0  0  0  0  0  0  0  0
    5.5421   -8.3237    0.0000 C   0  0  0  0  0  0  0  0  0  0  0  0
    6.0270   -8.9911    0.0000 C   0  0  0  0  0  0  0  0  0  0  0  0
    7.5261   -6.6737    0.0000 O   0  0  0  0  0  0  0  0  0  0  0  0
    7.5261   -9.9737    0.0000 O   0  0  0  0  0  0  0  0  0  0  0  0
    8.9550   -9.1487    0.0000 C   0  0  0  0  0  0  0  0  0  0  0  0
  1  2  1  0  0  0  0
  1  3  1  0  0  0  0
  2  4  1  0  0  0  0
  4  5  1  0  0  0  0
  5  6  1  0  0  0  0
  3  6  1  0  0  0  0
  7  8  1  0  0  0  0
  8  9  1  0  0  0  0
  9  3  1  0  0  0  0
  7  1  1  0  0  0  0
  2 10  2  0  0  0  0
  6 11  2  0  0  0  0
  5 12  1  0  0  0  0
M  END
>  <cdx:groupId>
12944

>  <cdx:fragmentId>
12910

$$$$
