6429070.cdx
  Mrv1902 05222410242D          

 25 25  0  0  0  0            999 V2000
   12.9558   -8.3239    0.0000 C   0  0  0  0  0  0  0  0  0  0  0  0
   12.9558   -7.4989    0.0000 C   0  0  0  0  0  0  0  0  0  0  0  0
   13.6703   -7.0864    0.0000 C   0  0  0  0  0  0  0  0  0  0  0  0
   14.3848   -7.4989    0.0000 C   0  0  0  0  0  0  0  0  0  0  0  0
   14.3848   -8.3239    0.0000 C   0  0  0  0  0  0  0  0  0  0  0  0
   13.6703   -8.7364    0.0000 C   0  0  0  0  0  0  0  0  0  0  0  0
   12.2414   -9.5614    0.0000 C   0  0  0  0  0  0  0  0  0  0  0  0
   12.2414   -8.7364    0.0000 C   0  0  0  0  0  0  0  0  0  0  0  0
   11.5269   -8.3239    0.0000 C   0  0  0  0  0  0  0  0  0  0  0  0
   10.8124   -8.7364    0.0000 C   0  0  0  0  0  0  0  0  0  0  0  0
   10.0979   -8.3239    0.0000 C   0  0  0  0  0  0  0  0  0  0  0  0
    9.3835   -8.7364    0.0000 C   0  0  0  0  0  0  0  0  0  0  0  0
    8.6690   -8.3239    0.0000 C   0  0  0  0  0  0  0  0  0  0  0  0
    7.9545   -8.7364    0.0000 C   0  0  0  0  0  0  0  0  0  0  0  0
    7.2401   -8.3239    0.0000 C   0  0  0  0  0  0  0  0  0  0  0  0
    6.5256   -8.7364    0.0000 C   0  0  0  0  0  0  0  0  0  0  0  0
    5.8111   -8.3239    0.0000 C   0  0  0  0  0  0  0  0  0  0  0  0
    5.0966   -8.7364    0.0000 C   0  0  0  0  0  0  0  0  0  0  0  0
    4.3822   -8.3239    0.0000 C   0  0  0  0  0  0  0  0  0  0  0  0
    3.6677   -8.7364    0.0000 C   0  0  0  0  0  0  0  0  0  0  0  0
    2.9532   -8.3239    0.0000 C   0  0  0  0  0  0  0  0  0  0  0  0
    2.2388   -8.7364    0.0000 C   0  0  0  0  0  0  0  0  0  0  0  0
    1.5243   -8.3239    0.0000 C   0  0  0  0  0  0  0  0  0  0  0  0
    0.8098   -8.7364    0.0000 C   0  0  0  0  0  0  0  0  0  0  0  0
    0.0954   -8.3239    0.0000 C   0  0  0  0  0  0  0  0  0  0  0  0
  1  2  1  0  0  0  0
  2  3  1  0  0  0  0
  3  4  1  0  0  0  0
  4  5  1  0  0  0  0
  5  6  1  0  0  0  0
  1  6  1  0  0  0  0
  7  8  1  0  0  0  0
  8  9  1  0  0  0  0
  9 10  1  0  0  0  0
 10 11  1  0  0  0  0
 11 12  1  0  0  0  0
 12 13  1  0  0  0  0
 13 14  1  0  0  0  0
 14 15  1  0  0  0  0
 15 16  1  0  0  0  0
 16 17  1  0  0  0  0
 17 18  1  0  0  0  0
 18 19  1  0  0  0  0
 19 20  1  0  0  0  0
 20 21  1  0  0  0  0
 21 22  1  0  0  0  0
 22 23  1  0  0  0  0
 23 24  1  0  0  0  0
 24 25  1  0  0  0  0
  1  8  1  0  0  0  0
M  END
>  <cdx:groupId>
13185

>  <cdx:fragmentId>
13125

$$$$
