6429083.cdx
  Mrv1902 05222410212D          

 11 10  0  0  0  0            999 V2000
    9.1414   -8.8859    0.0000 C   0  0  0  0  0  0  0  0  0  0  0  0
    8.4269   -8.4734    0.0000 C   0  0  0  0  0  0  0  0  0  0  0  0
    7.7124   -8.8859    0.0000 C   0  0  0  0  0  0  0  0  0  0  0  0
    6.9979   -8.4734    0.0000 C   0  0  0  0  0  0  0  0  0  0  0  0
    6.2835   -8.8859    0.0000 C   0  0  0  0  0  0  0  0  0  0  0  0
    5.5690   -8.4734    0.0000 C   0  0  0  0  0  0  0  0  0  0  0  0
    4.8545   -8.8859    0.0000 C   0  0  0  0  0  0  0  0  0  0  0  0
    9.8558   -8.4734    0.0000 O   0  0  0  0  0  0  0  0  0  0  0  0
    5.5690   -7.6484    0.0000 C   0  0  0  0  0  0  0  0  0  0  0  0
    8.4269   -7.6484    0.0000 C   0  0  0  0  0  0  0  0  0  0  0  0
    4.8545   -8.0609    0.0000 O   0  0  0  0  0  0  0  0  0  0  0  0
  1  2  1  0  0  0  0
  2  3  2  0  0  0  0
  3  4  1  0  0  0  0
  4  5  2  0  0  0  0
  5  6  1  0  0  0  0
  6  7  1  0  0  0  0
  1  8  2  0  0  0  0
  6  9  1  0  0  0  0
  2 10  1  0  0  0  0
  6 11  1  0  0  0  0
M  END
>  <cdx:groupId>
13319

>  <cdx:fragmentId>
13290

$$$$
