429076.cdx
  Mrv1902 05222410232D          

 11 12  0  0  0  0            999 V2000
    6.6225   -8.5447    0.0000 C   0  0  2  0  0  0  0  0  0  0  0  0
    7.4076   -8.7980    0.0000 C   0  0  0  0  0  0  0  0  0  0  0  0
    7.8911   -8.1296    0.0000 C   0  0  1  0  0  0  0  0  0  0  0  0
    7.4048   -7.4631    0.0000 C   0  0  0  0  0  0  0  0  0  0  0  0
    6.6207   -7.7197    0.0000 C   0  0  0  0  0  0  0  0  0  0  0  0
    5.9071   -8.1337    0.0000 C   0  0  0  0  0  0  0  0  0  0  0  0
    8.7161   -8.1278    0.0000 O   0  0  0  0  0  0  0  0  0  0  0  0
    6.7748   -9.9655    0.0000 C   0  0  0  0  0  0  0  0  0  0  0  0
    6.2885   -9.2991    0.0000 C   0  0  0  0  0  0  0  0  0  0  0  0
    5.4682   -9.3871    0.0000 C   0  0  0  0  0  0  0  0  0  0  0  0
    7.6581   -6.6780    0.0000 C   0  0  0  0  0  0  0  0  0  0  0  0
  1  2  1  0  0  0  0
  2  3  1  0  0  0  0
  3  4  1  0  0  0  0
  4  5  1  0  0  0  0
  5  6  1  0  0  0  0
  1  6  1  0  0  0  0
  1  5  1  0  0  0  0
  3  7  1  1  0  0  0
  8  9  1  0  0  0  0
  9 10  1  0  0  0  0
  1  9  1  6  0  0  0
  4 11  2  0  0  0  0
M  END
>  <cdx:fragmentId>
13197

$$$$
