6429039.cdx
  Mrv1902 05222410282D          

 17 16  0  0  0  0            999 V2000
    5.8146   -9.7047    0.0000 C   0  0  0  0  0  0  0  0  0  0  0  0
    5.1001  -10.1172    0.0000 C   0  0  0  0  0  0  0  0  0  0  0  0
    4.3856   -9.7047    0.0000 C   0  0  0  0  0  0  0  0  0  0  0  0
    4.3856   -8.8797    0.0000 C   0  0  0  0  0  0  0  0  0  0  0  0
    5.8146   -8.8797    0.0000 O   0  0  0  0  0  0  0  0  0  0  0  0
    6.5290  -10.1172    0.0000 O   0  0  0  0  0  0  0  0  0  0  0  0
    3.6711  -10.1172    0.0000 C   0  0  0  0  0  0  0  0  0  0  0  0
    7.2435   -9.7047    0.0000 C   0  0  0  0  0  0  0  0  0  0  0  0
    7.9580  -10.1172    0.0000 C   0  0  0  0  0  0  0  0  0  0  0  0
    8.6724   -9.7047    0.0000 C   0  0  0  0  0  0  0  0  0  0  0  0
    8.6724   -8.8797    0.0000 C   0  0  0  0  0  0  0  0  0  0  0  0
    9.3869   -8.4672    0.0000 C   0  0  0  0  0  0  0  0  0  0  0  0
    9.3869   -7.6422    0.0000 C   0  0  0  0  0  0  0  0  0  0  0  0
   10.1014   -7.2297    0.0000 C   0  0  0  0  0  0  0  0  0  0  0  0
   10.8159   -7.6422    0.0000 C   0  0  0  0  0  0  0  0  0  0  0  0
   10.1014   -6.4047    0.0000 C   0  0  0  0  0  0  0  0  0  0  0  0
    9.3869  -10.1172    0.0000 C   0  0  0  0  0  0  0  0  0  0  0  0
  1  2  1  0  0  0  0
  2  3  1  0  0  0  0
  3  4  1  0  0  0  0
  1  5  2  0  0  0  0
  1  6  1  0  0  0  0
  3  7  1  0  0  0  0
  8  9  1  0  0  0  0
  9 10  2  0  0  0  0
 10 11  1  0  0  0  0
 11 12  1  0  0  0  0
 12 13  1  0  0  0  0
 13 14  2  0  0  0  0
 14 15  1  0  0  0  0
 14 16  1  0  0  0  0
 10 17  1  0  0  0  0
  6  8  1  0  0  0  0
M  END
>  <cdx:groupId>
13103

>  <cdx:fragmentId>
13070

$$$$
