429221.cdx
  Mrv1902 05222410182D          

 15 16  0  0  0  0            999 V2000
    8.6690   -9.3472    0.0000 C   0  0  0  0  0  0  0  0  0  0  0  0
    9.3835   -8.9347    0.0000 C   0  0  0  0  0  0  0  0  0  0  0  0
    9.3835   -8.1097    0.0000 C   0  0  0  0  0  0  0  0  0  0  0  0
    8.6690   -7.6972    0.0000 C   0  0  0  0  0  0  0  0  0  0  0  0
    7.9545   -8.1097    0.0000 C   0  0  0  0  0  0  0  0  0  0  0  0
    7.2401   -7.6972    0.0000 C   0  0  0  0  0  0  0  0  0  0  0  0
    6.5256   -8.1097    0.0000 C   0  0  0  0  0  0  0  0  0  0  0  0
    6.5256   -8.9347    0.0000 C   0  0  0  0  0  0  0  0  0  0  0  0
    7.2401   -9.3472    0.0000 C   0  0  0  0  0  0  0  0  0  0  0  0
    7.9545   -8.9347    0.0000 C   0  0  1  0  0  0  0  0  0  0  0  0
    5.8111   -6.8722    0.0000 C   0  0  0  0  0  0  0  0  0  0  0  0
    5.8111   -7.6972    0.0000 C   0  0  0  0  0  0  0  0  0  0  0  0
    5.0966   -8.1097    0.0000 C   0  0  0  0  0  0  0  0  0  0  0  0
    7.9545   -9.7597    0.0000 C   0  0  0  0  0  0  0  0  0  0  0  0
    8.6690   -6.8722    0.0000 C   0  0  0  0  0  0  0  0  0  0  0  0
  1  2  1  0  0  0  0
  2  3  1  0  0  0  0
  3  4  2  0  0  0  0
  4  5  1  0  0  0  0
  5  6  1  0  0  0  0
  6  7  1  0  0  0  0
  7  8  2  0  0  0  0
  8  9  1  0  0  0  0
  9 10  1  0  0  0  0
  1 10  1  0  0  0  0
  5 10  1  0  0  0  0
 11 12  1  0  0  0  0
 12 13  1  0  0  0  0
  7 12  1  0  0  0  0
 10 14  1  1  0  0  0
  4 15  1  0  0  0  0
M  END
>  <cdx:groupId>
13558

>  <cdx:fragmentId>
13515

$$$$
