429220.cdx
  Mrv1902 05222410192D          

 14 13  0  0  0  0            999 V2000
    2.9567   -8.5299    0.0000 C   0  0  0  0  0  0  0  0  0  0  0  0
    3.6711   -8.9424    0.0000 O   0  0  0  0  0  0  0  0  0  0  0  0
    4.3856   -7.7049    0.0000 O   0  0  0  0  0  0  0  0  0  0  0  0
   11.5303   -8.5299    0.0000 C   0  0  0  0  0  0  0  0  0  0  0  0
   10.8159   -8.9424    0.0000 C   0  0  0  0  0  0  0  0  0  0  0  0
   10.1014   -8.5299    0.0000 C   0  0  0  0  0  0  0  0  0  0  0  0
    9.3869   -8.9424    0.0000 C   0  0  0  0  0  0  0  0  0  0  0  0
    8.6724   -8.5299    0.0000 C   0  0  0  0  0  0  0  0  0  0  0  0
    7.9580   -8.9424    0.0000 C   0  0  0  0  0  0  0  0  0  0  0  0
    7.2435   -8.5299    0.0000 C   0  0  0  0  0  0  0  0  0  0  0  0
    6.5290   -8.9424    0.0000 C   0  0  0  0  0  0  0  0  0  0  0  0
    5.8146   -8.5299    0.0000 C   0  0  0  0  0  0  0  0  0  0  0  0
    5.1001   -8.9424    0.0000 C   0  0  0  0  0  0  0  0  0  0  0  0
    4.3856   -8.5299    0.0000 C   0  0  0  0  0  0  0  0  0  0  0  0
  2  1  1  0  0  0  0
 14  2  1  0  0  0  0
 14  3  2  0  0  0  0
  5  4  1  0  0  0  0
  6  5  1  0  0  0  0
  7  6  1  0  0  0  0
  8  7  1  0  0  0  0
  9  8  1  0  0  0  0
 10  9  1  0  0  0  0
 11 10  1  0  0  0  0
 12 11  1  0  0  0  0
 13 12  2  0  0  0  0
 14 13  1  0  0  0  0
M  END
>  <cdx:groupId>
13506

>  <cdx:fragmentId>
13468

$$$$
