6429206.cdx
  Mrv1902 05222410282D          

 15 16  0  0  0  0            999 V2000
    6.8828   -8.9074    0.0000 C   0  0  0  0  0  0  0  0  0  0  0  0
    6.1684   -8.4949    0.0000 C   0  0  0  0  0  0  0  0  0  0  0  0
    6.1684   -7.6699    0.0000 C   0  0  0  0  0  0  0  0  0  0  0  0
    6.8828   -7.2574    0.0000 C   0  0  0  0  0  0  0  0  0  0  0  0
    7.5973   -7.6699    0.0000 C   0  0  0  0  0  0  0  0  0  0  0  0
    8.3118   -7.2574    0.0000 C   0  0  0  0  0  0  0  0  0  0  0  0
    9.0262   -7.6699    0.0000 C   0  0  0  0  0  0  0  0  0  0  0  0
    9.0262   -8.4949    0.0000 C   0  0  0  0  0  0  0  0  0  0  0  0
    8.3118   -8.9074    0.0000 C   0  0  0  0  0  0  0  0  0  0  0  0
    7.5973   -8.4949    0.0000 C   0  0  0  0  0  0  0  0  0  0  0  0
    7.5973  -10.1449    0.0000 C   0  0  0  0  0  0  0  0  0  0  0  0
    8.3118   -9.7324    0.0000 C   0  0  0  0  0  0  0  0  0  0  0  0
    9.0262  -10.1449    0.0000 C   0  0  0  0  0  0  0  0  0  0  0  0
    8.3118   -6.4324    0.0000 C   0  0  0  0  0  0  0  0  0  0  0  0
    5.4539   -8.9074    0.0000 C   0  0  0  0  0  0  0  0  0  0  0  0
  1  2  1  0  0  0  0
  2  3  1  0  0  0  0
  3  4  1  0  0  0  0
  4  5  1  0  0  0  0
  5  6  1  0  0  0  0
  6  7  1  0  0  0  0
  7  8  1  0  0  0  0
  8  9  1  0  0  0  0
  9 10  2  0  0  0  0
  1 10  1  0  0  0  0
  5 10  1  0  0  0  0
 11 12  2  0  0  0  0
 12 13  1  0  0  0  0
  9 12  1  0  0  0  0
  6 14  1  0  0  0  0
  2 15  1  0  0  0  0
M  END
>  <cdx:groupId>
13460

>  <cdx:fragmentId>
13417

$$$$
