10429233.cdx
  Mrv1902 05222410202D          

 27 28  0  0  0  0            999 V2000
    5.1001  -14.3049    0.0000 C   0  0  0  0  0  0  0  0  0  0  0  0
    5.8146  -14.7174    0.0000 C   0  0  0  0  0  0  0  0  0  0  0  0
    6.5290  -14.3049    0.0000 C   0  0  0  0  0  0  0  0  0  0  0  0
    7.2435  -14.7174    0.0000 C   0  0  0  0  0  0  0  0  0  0  0  0
    7.9580  -14.3049    0.0000 C   0  0  0  0  0  0  0  0  0  0  0  0
    8.6724  -14.7174    0.0000 C   0  0  0  0  0  0  0  0  0  0  0  0
    9.3869  -14.3049    0.0000 C   0  0  0  0  0  0  0  0  0  0  0  0
    6.5290  -13.4799    0.0000 O   0  0  0  0  0  0  0  0  0  0  0  0
    7.9580  -13.4799    0.0000 O   0  0  0  0  0  0  0  0  0  0  0  0
   10.1014  -14.7174    0.0000 C   0  0  0  0  0  0  0  0  0  0  0  0
   10.8159  -14.3049    0.0000 C   0  0  0  0  0  0  0  0  0  0  0  0
   11.5303  -14.7174    0.0000 C   0  0  0  0  0  0  0  0  0  0  0  0
   11.5303  -15.5424    0.0000 C   0  0  0  0  0  0  0  0  0  0  0  0
   10.8159  -15.9549    0.0000 C   0  0  0  0  0  0  0  0  0  0  0  0
   10.1014  -15.5424    0.0000 C   0  0  0  0  0  0  0  0  0  0  0  0
   12.2448  -14.3049    0.0000 O   0  0  0  0  0  0  0  0  0  0  0  0
   12.9593  -14.7174    0.0000 C   0  0  0  0  0  0  0  0  0  0  0  0
   12.2448  -15.9549    0.0000 O   0  0  0  0  0  0  0  0  0  0  0  0
    4.3856  -14.7174    0.0000 C   0  0  0  0  0  0  0  0  0  0  0  0
    3.6711  -14.3049    0.0000 C   0  0  0  0  0  0  0  0  0  0  0  0
    2.9567  -14.7174    0.0000 C   0  0  0  0  0  0  0  0  0  0  0  0
    2.9567  -15.5424    0.0000 C   0  0  0  0  0  0  0  0  0  0  0  0
    3.6711  -15.9549    0.0000 C   0  0  0  0  0  0  0  0  0  0  0  0
    4.3856  -15.5424    0.0000 C   0  0  0  0  0  0  0  0  0  0  0  0
    2.2422  -14.3049    0.0000 O   0  0  0  0  0  0  0  0  0  0  0  0
    1.5277  -14.7174    0.0000 C   0  0  0  0  0  0  0  0  0  0  0  0
    2.2422  -15.9549    0.0000 O   0  0  0  0  0  0  0  0  0  0  0  0
  1  2  2  0  0  0  0
  2  3  1  0  0  0  0
  3  4  1  0  0  0  0
  4  5  1  0  0  0  0
  5  6  1  0  0  0  0
  6  7  1  0  0  0  0
  3  8  2  0  0  0  0
  5  9  2  0  0  0  0
 10 11  1  0  0  0  0
 11 12  2  0  0  0  0
 12 13  1  0  0  0  0
 13 14  2  0  0  0  0
 14 15  1  0  0  0  0
 10 15  2  0  0  0  0
 16 17  1  0  0  0  0
 12 16  1  0  0  0  0
 13 18  1  0  0  0  0
  7 10  1  0  0  0  0
 19 20  1  0  0  0  0
 20 21  2  0  0  0  0
 21 22  1  0  0  0  0
 22 23  2  0  0  0  0
 23 24  1  0  0  0  0
 19 24  2  0  0  0  0
 25 26  1  0  0  0  0
 21 25  1  0  0  0  0
 22 27  1  0  0  0  0
  1 19  1  0  0  0  0
M  END
>  <cdx:groupId>
49768

>  <cdx:fragmentId>
49707

$$$$
