6429259.cdx
  Mrv1902 05222410252D          

 16 17  0  0  0  0            999 V2000
    5.4608   -7.4984    0.0000 C   0  0  0  0  0  0  0  0  0  0  0  0
    6.1752   -7.9109    0.0000 C   0  0  0  0  0  0  0  0  0  0  0  0
    6.1752   -8.7359    0.0000 C   0  0  0  0  0  0  0  0  0  0  0  0
    5.4608   -9.1484    0.0000 C   0  0  0  0  0  0  0  0  0  0  0  0
    4.7463   -8.7359    0.0000 C   0  0  0  0  0  0  0  0  0  0  0  0
    4.7463   -7.9109    0.0000 C   0  0  0  0  0  0  0  0  0  0  0  0
    5.1252   -8.3238    0.0000 C   0  0  0  0  0  0  0  0  0  0  0  0
    6.5877   -7.1964    0.0000 O   0  0  0  0  0  0  0  0  0  0  0  0
    6.8897   -9.1484    0.0000 C   0  0  0  0  0  0  0  0  0  0  0  0
    7.6042   -8.7359    0.0000 C   0  0  0  0  0  0  0  0  0  0  0  0
    8.3186   -9.1484    0.0000 C   0  0  0  0  0  0  0  0  0  0  0  0
    9.0331   -8.7359    0.0000 C   0  0  0  0  0  0  0  0  0  0  0  0
    9.7476   -9.1484    0.0000 C   0  0  0  0  0  0  0  0  0  0  0  0
    9.0331   -7.9109    0.0000 C   0  0  0  0  0  0  0  0  0  0  0  0
    6.1752   -9.5609    0.0000 C   0  0  0  0  0  0  0  0  0  0  0  0
    7.0002   -7.9109    0.0000 C   0  0  0  0  0  0  0  0  0  0  0  0
  1  2  1  0  0  0  0
  2  3  1  0  0  0  0
  3  4  1  0  0  0  0
  4  5  1  0  0  0  0
  5  6  1  0  0  0  0
  1  6  1  0  0  0  0
  1  7  1  0  0  0  0
  7  4  1  0  0  0  0
  2  8  1  0  0  0  0
  9 10  1  0  0  0  0
 10 11  1  0  0  0  0
 11 12  2  0  0  0  0
 12 13  1  0  0  0  0
 12 14  1  0  0  0  0
  3  9  1  0  0  0  0
  3 15  1  0  0  0  0
  2 16  1  0  0  0  0
M  END
>  <cdx:groupId>
13612

>  <cdx:fragmentId>
13566

$$$$
