6429376.cdx
  Mrv1902 05222410262D          

 15 16  0  0  0  0            999 V2000
    8.6690   -9.0506    0.0000 C   0  0  0  0  0  0  0  0  0  0  0  0
    9.3835   -8.6381    0.0000 C   0  0  0  0  0  0  0  0  0  0  0  0
    9.3835   -7.8131    0.0000 C   0  0  0  0  0  0  0  0  0  0  0  0
    8.6690   -7.4006    0.0000 C   0  0  1  0  0  0  0  0  0  0  0  0
    7.9545   -7.8131    0.0000 C   0  0  1  0  0  0  0  0  0  0  0  0
    7.2401   -7.4006    0.0000 C   0  0  0  0  0  0  0  0  0  0  0  0
    6.5256   -7.8131    0.0000 C   0  0  0  0  0  0  0  0  0  0  0  0
    6.5256   -8.6381    0.0000 C   0  0  0  0  0  0  0  0  0  0  0  0
    7.2401   -9.0506    0.0000 C   0  0  0  0  0  0  0  0  0  0  0  0
    7.9545   -8.6381    0.0000 C   0  0  0  0  0  0  0  0  0  0  0  0
    5.8111   -6.5756    0.0000 C   0  0  0  0  0  0  0  0  0  0  0  0
    5.8111   -7.4006    0.0000 C   0  0  0  0  0  0  0  0  0  0  0  0
    5.0966   -7.8131    0.0000 C   0  0  0  0  0  0  0  0  0  0  0  0
    7.9545   -6.9881    0.0000 C   0  0  0  0  0  0  0  0  0  0  0  0
    8.6690   -6.5756    0.0000 C   0  0  0  0  0  0  0  0  0  0  0  0
  1  2  1  0  0  0  0
  2  3  1  0  0  0  0
  3  4  1  0  0  0  0
  4  5  1  0  0  0  0
  5  6  1  0  0  0  0
  6  7  1  0  0  0  0
  7  8  1  0  0  0  0
  8  9  1  0  0  0  0
  9 10  2  0  0  0  0
  1 10  1  0  0  0  0
  5 10  1  0  0  0  0
 11 12  2  0  0  0  0
 12 13  1  0  0  0  0
  7 12  1  0  0  0  0
  5 14  1  1  0  0  0
  4 15  1  1  0  0  0
M  END
>  <cdx:groupId>
13828

>  <cdx:fragmentId>
13785

$$$$
