6429375.cdx
  Mrv1902 05222410272D          

 16 16  0  0  0  0            999 V2000
    8.1139   -8.5163    0.0000 C   0  0  1  0  0  0  0  0  0  0  0  0
    7.3994   -8.9288    0.0000 C   0  0  0  0  0  0  0  0  0  0  0  0
    6.6850   -8.5163    0.0000 C   0  0  0  0  0  0  0  0  0  0  0  0
    5.9705   -8.9288    0.0000 C   0  0  1  0  0  0  0  0  0  0  0  0
    5.2560   -8.5163    0.0000 C   0  0  0  0  0  0  0  0  0  0  0  0
    5.2560   -7.6913    0.0000 C   0  0  0  0  0  0  0  0  0  0  0  0
    5.9705   -7.2788    0.0000 C   0  0  0  0  0  0  0  0  0  0  0  0
    6.6850   -7.6913    0.0000 C   0  0  0  0  0  0  0  0  0  0  0  0
    7.3994   -7.2788    0.0000 C   0  0  0  0  0  0  0  0  0  0  0  0
    8.1139   -7.6913    0.0000 C   0  0  0  0  0  0  0  0  0  0  0  0
    8.9389   -8.5163    0.0000 O   0  0  0  0  0  0  0  0  0  0  0  0
    6.6850  -10.1663    0.0000 C   0  0  0  0  0  0  0  0  0  0  0  0
    5.9705   -9.7538    0.0000 C   0  0  0  0  0  0  0  0  0  0  0  0
    5.2560  -10.1663    0.0000 C   0  0  0  0  0  0  0  0  0  0  0  0
    5.9705   -6.4538    0.0000 C   0  0  0  0  0  0  0  0  0  0  0  0
    8.5264   -9.2308    0.0000 C   0  0  0  0  0  0  0  0  0  0  0  0
  1  2  1  0  0  0  0
  2  3  2  0  0  0  0
  3  4  1  0  0  0  0
  4  5  1  0  0  0  0
  5  6  1  0  0  0  0
  6  7  1  0  0  0  0
  7  8  2  0  0  0  0
  8  9  1  0  0  0  0
  9 10  1  0  0  0  0
  1 10  1  0  0  0  0
  1 11  1  1  0  0  0
 12 13  1  0  0  0  0
 13 14  1  0  0  0  0
  4 13  1  6  0  0  0
  7 15  1  0  0  0  0
  1 16  1  6  0  0  0
M  END
>  <cdx:groupId>
13777

>  <cdx:fragmentId>
13732

$$$$
