42953.cdx
  Mrv1902 05222410182D          

 11 10  0  0  0  0            999 V2000
    9.3099   -2.8085    0.0000 C   0  0  0  0  0  0  0  0  0  0  0  0
    8.5954   -3.2210    0.0000 C   0  0  0  0  0  0  0  0  0  0  0  0
    7.8810   -2.8085    0.0000 C   0  0  0  0  0  0  0  0  0  0  0  0
   10.0244   -3.2210    0.0000 O   0  0  0  0  0  0  0  0  0  0  0  0
    8.5954   -4.0460    0.0000 O   0  0  0  0  0  0  0  0  0  0  0  0
    7.1665   -3.2210    0.0000 O   0  0  0  0  0  0  0  0  0  0  0  0
    6.4520   -2.8085    0.0000 C   0  0  0  0  0  0  0  0  0  0  0  0
    5.7376   -3.2210    0.0000 C   0  0  0  0  0  0  0  0  0  0  0  0
    5.0231   -2.8085    0.0000 C   0  0  0  0  0  0  0  0  0  0  0  0
    4.3086   -3.2210    0.0000 O   0  0  0  0  0  0  0  0  0  0  0  0
    5.7376   -4.0460    0.0000 O   0  0  0  0  0  0  0  0  0  0  0  0
  1  2  1  0  0  0  0
  2  3  1  0  0  0  0
  1  4  1  0  0  0  0
  2  5  1  0  0  0  0
  7  8  1  0  0  0  0
  8  9  1  0  0  0  0
  6  7  1  0  0  0  0
  9 10  1  0  0  0  0
  8 11  1  0  0  0  0
  3  6  1  0  0  0  0
M  END
>  <cdx:groupId>
34

>  <cdx:fragmentId>
17

$$$$
