4296.cdx
  Mrv1902 05222410272D          

 23 25  0  0  0  0            999 V2000
    5.0358   -6.9919    0.0000 C   0  0  0  0  0  0  0  0  0  0  0  0
    5.0358   -7.8169    0.0000 C   0  0  0  0  0  0  0  0  0  0  0  0
    5.7502   -8.2294    0.0000 C   0  0  0  0  0  0  0  0  0  0  0  0
    6.4647   -7.8169    0.0000 C   0  0  0  0  0  0  0  0  0  0  0  0
    6.4647   -6.9919    0.0000 C   0  0  0  0  0  0  0  0  0  0  0  0
    5.7502   -6.5794    0.0000 C   0  0  0  0  0  0  0  0  0  0  0  0
    7.1792   -8.2294    0.0000 C   0  0  0  0  0  0  0  0  0  0  0  0
    7.8937   -7.8169    0.0000 C   0  0  0  0  0  0  0  0  0  0  0  0
    7.8937   -6.9919    0.0000 C   0  0  0  0  0  0  0  0  0  0  0  0
    7.1792   -6.5794    0.0000 O   0  0  0  0  0  0  0  0  0  0  0  0
    8.6081   -6.5794    0.0000 C   0  0  0  0  0  0  0  0  0  0  0  0
    8.6081   -5.7544    0.0000 C   0  0  0  0  0  0  0  0  0  0  0  0
    9.3226   -6.9919    0.0000 C   0  0  0  0  0  0  0  0  0  0  0  0
   10.0371   -6.5794    0.0000 C   0  0  0  0  0  0  0  0  0  0  0  0
   10.0371   -5.7544    0.0000 C   0  0  0  0  0  0  0  0  0  0  0  0
    9.3226   -5.3419    0.0000 C   0  0  0  0  0  0  0  0  0  0  0  0
    8.6081   -8.2294    0.0000 O   0  0  0  0  0  0  0  0  0  0  0  0
    5.7502   -9.0544    0.0000 O   0  0  0  0  0  0  0  0  0  0  0  0
    4.3213   -8.2294    0.0000 O   0  0  0  0  0  0  0  0  0  0  0  0
    4.3213   -6.5794    0.0000 O   0  0  0  0  0  0  0  0  0  0  0  0
    5.7502   -5.7544    0.0000 O   0  0  0  0  0  0  0  0  0  0  0  0
    9.3226   -4.5169    0.0000 O   0  0  0  0  0  0  0  0  0  0  0  0
   10.7515   -5.3419    0.0000 O   0  0  0  0  0  0  0  0  0  0  0  0
  1  2  1  0  0  0  0
  2  3  2  0  0  0  0
  3  4  1  0  0  0  0
  4  5  2  0  0  0  0
  5  6  1  0  0  0  0
  6  1  2  0  0  0  0
  4  7  1  0  0  0  0
  7  8  1  0  0  0  0
  8  9  1  0  0  0  0
  9 10  1  0  0  0  0
 10  5  1  0  0  0  0
  9 11  1  0  0  0  0
 11 12  1  0  0  0  0
 11 13  2  0  0  0  0
 13 14  1  0  0  0  0
 14 15  2  0  0  0  0
 15 16  1  0  0  0  0
 16 12  2  0  0  0  0
  8 17  1  0  0  0  0
  3 18  1  0  0  0  0
  2 19  1  0  0  0  0
  1 20  1  0  0  0  0
  6 21  1  0  0  0  0
 16 22  1  0  0  0  0
 15 23  1  0  0  0  0
M  END
>  <cdx:fragmentId>
5

$$$$
