429638.cdx
  Mrv1902 05222410262D          

 56 63  0  0  0  0            999 V2000
    6.9694   -7.8009    0.0000 O   0  0  0  0  0  0  0  0  0  0  0  0
    7.3872   -8.5123    0.0000 C   0  0  2  0  0  0  0  0  0  0  0  0
    6.9800   -9.2298    0.0000 C   0  0  1  0  0  0  0  0  0  0  0  0
    6.1551   -9.2359    0.0000 C   0  0  1  0  0  0  0  0  0  0  0  0
    5.7373   -8.5245    0.0000 C   0  0  2  0  0  0  0  0  0  0  0  0
    6.1444   -7.8070    0.0000 C   0  0  2  0  0  0  0  0  0  0  0  0
   14.6451   -8.9140    0.0000 C   0  0  1  0  0  0  0  0  0  0  0  0
   15.3596   -8.5015    0.0000 C   0  0  2  0  0  0  0  0  0  0  0  0
   16.1442   -8.7565    0.0000 C   0  0  0  0  0  0  0  0  0  0  0  0
   16.6291   -8.0890    0.0000 C   0  0  2  0  0  0  0  0  0  0  0  0
   17.4138   -7.8341    0.0000 O   0  0  0  0  0  0  0  0  0  0  0  0
   17.4138   -7.0091    0.0000 C   0  0  2  0  0  0  0  0  0  0  0  0
   16.6291   -6.7541    0.0000 C   0  0  2  0  0  0  0  0  0  0  0  0
   16.1442   -7.4216    0.0000 C   0  0  2  0  0  0  0  0  0  0  0  0
   15.3596   -7.6765    0.0000 C   0  0  1  0  0  0  0  0  0  0  0  0
   14.6451   -7.2640    0.0000 C   0  0  0  0  0  0  0  0  0  0  0  0
   13.9306   -7.6765    0.0000 C   0  0  0  0  0  0  0  0  0  0  0  0
   13.9306   -8.5015    0.0000 C   0  0  2  0  0  0  0  0  0  0  0  0
   13.2162   -8.9140    0.0000 C   0  0  1  0  0  0  0  0  0  0  0  0
   12.5017   -8.5015    0.0000 C   0  0  0  0  0  0  0  0  0  0  0  0
   11.7872   -8.9140    0.0000 C   0  0  0  0  0  0  0  0  0  0  0  0
   11.7872   -9.7390    0.0000 C   0  0  1  0  0  0  0  0  0  0  0  0
   12.5017  -10.1515    0.0000 C   0  0  0  0  0  0  0  0  0  0  0  0
   13.2162   -9.7390    0.0000 C   0  0  0  0  0  0  0  0  0  0  0  0
   13.9306  -10.1515    0.0000 C   0  0  0  0  0  0  0  0  0  0  0  0
   14.6451   -9.7390    0.0000 C   0  0  0  0  0  0  0  0  0  0  0  0
   17.3275   -6.1886    0.0000 O   0  0  0  0  0  0  0  0  0  0  0  0
   18.1674   -7.3446    0.0000 C   0  0  0  0  0  0  0  0  0  0  0  0
   18.8349   -6.8597    0.0000 C   0  0  0  0  0  0  0  0  0  0  0  0
   18.7486   -6.0392    0.0000 C   0  0  2  0  0  0  0  0  0  0  0  0
   17.9950   -5.7037    0.0000 C   0  0  0  0  0  0  0  0  0  0  0  0
   13.2162   -8.0890    0.0000 C   0  0  0  0  0  0  0  0  0  0  0  0
   15.3596   -6.8515    0.0000 C   0  0  0  0  0  0  0  0  0  0  0  0
   16.3742   -5.9695    0.0000 C   0  0  0  0  0  0  0  0  0  0  0  0
   19.4161   -5.5543    0.0000 C   0  0  0  0  0  0  0  0  0  0  0  0
    7.3978   -9.9412    0.0000 O   0  0  0  0  0  0  0  0  0  0  0  0
    5.7479   -9.9535    0.0000 O   0  0  0  0  0  0  0  0  0  0  0  0
    4.9123   -8.5307    0.0000 O   0  0  0  0  0  0  0  0  0  0  0  0
    5.7267   -7.0956    0.0000 C   0  0  0  0  0  0  0  0  0  0  0  0
   14.6451   -8.0890    0.0000 H   0  0  0  0  0  0  0  0  0  0  0  0
   15.3596   -9.3265    0.0000 H   0  0  0  0  0  0  0  0  0  0  0  0
   17.1141   -8.7565    0.0000 H   0  0  0  0  0  0  0  0  0  0  0  0
   15.7826   -6.6801    0.0000 H   0  0  0  0  0  0  0  0  0  0  0  0
   13.9306   -9.3265    0.0000 H   0  0  0  0  0  0  0  0  0  0  0  0
    8.2122   -8.5062    0.0000 O   0  0  0  0  0  0  0  0  0  0  0  0
    8.2149  -10.1562    0.0000 O   0  0  0  0  0  0  0  0  0  0  0  0
    9.6452  -10.9788    0.0000 O   0  0  0  0  0  0  0  0  0  0  0  0
    8.9247   -7.2675    0.0000 O   0  0  0  0  0  0  0  0  0  0  0  0
    9.6398   -7.6788    0.0000 C   0  0  0  0  0  0  0  0  0  0  0  0
   11.0728  -10.1515    0.0000 O   0  0  0  0  0  0  0  0  0  0  0  0
   10.3576   -9.7402    0.0000 C   0  0  1  0  0  0  0  0  0  0  0  0
    9.6438  -10.1538    0.0000 C   0  0  1  0  0  0  0  0  0  0  0  0
    8.9287   -9.7425    0.0000 C   0  0  2  0  0  0  0  0  0  0  0  0
    8.9273   -8.9175    0.0000 C   0  0  1  0  0  0  0  0  0  0  0  0
    9.6411   -8.5038    0.0000 C   0  0  2  0  0  0  0  0  0  0  0  0
   10.3563   -8.9152    0.0000 O   0  0  0  0  0  0  0  0  0  0  0  0
 54 45  1  6  0  0  0
 53 46  1  1  0  0  0
 52 47  1  6  0  0  0
 55 49  1  1  0  0  0
 49 48  1  0  0  0  0
 51 50  1  1  0  0  0
 56 51  1  0  0  0  0
 52 51  1  0  0  0  0
 53 52  1  0  0  0  0
 54 53  1  0  0  0  0
 55 54  1  0  0  0  0
 56 55  1  0  0  0  0
  1  2  1  0  0  0  0
  2  3  1  0  0  0  0
  3  4  1  0  0  0  0
  4  5  1  0  0  0  0
  7  8  1  0  0  0  0
  8  9  1  0  0  0  0
  9 10  1  0  0  0  0
 10 11  1  0  0  0  0
 12 11  1  6  0  0  0
 12 13  1  0  0  0  0
 13 14  1  0  0  0  0
 14 15  1  0  0  0  0
 15 16  1  0  0  0  0
 16 17  1  0  0  0  0
 17 18  1  0  0  0  0
 18 19  1  0  0  0  0
 19 20  1  0  0  0  0
 20 21  1  0  0  0  0
 21 22  1  0  0  0  0
 22 23  1  0  0  0  0
 23 24  1  0  0  0  0
 24 25  2  0  0  0  0
 25 26  1  0  0  0  0
  7 26  1  0  0  0  0
  7 18  1  0  0  0  0
 19 24  1  0  0  0  0
  8 15  1  0  0  0  0
 10 14  1  0  0  0  0
 28 29  1  0  0  0  0
 29 30  1  0  0  0  0
 30 31  1  0  0  0  0
 27 31  1  0  0  0  0
 12 27  1  0  0  0  0
 12 28  1  0  0  0  0
 19 32  1  1  0  0  0
 15 33  1  1  0  0  0
 13 34  1  6  0  0  0
 30 35  1  6  0  0  0
 22 50  1  1  0  0  0
  5  6  1  0  0  0  0
  1  6  1  0  0  0  0
  3 36  1  6  0  0  0
  4 37  1  6  0  0  0
  5 38  1  1  0  0  0
  6 39  1  6  0  0  0
  2 45  1  1  0  0  0
  7 40  1  1  0  0  0
  8 41  1  6  0  0  0
 10 42  1  6  0  0  0
 14 43  1  6  0  0  0
 18 44  1  6  0  0  0
M  END
>  <cdx:fragmentId>
41

$$$$
