429861.cdx
  Mrv1902 05222410212D          

 53 57  0  0  0  0            999 V2000
    5.6883   -5.3207    0.0000 C   0  0  0  0  0  0  0  0  0  0  0  0
    4.9739   -5.7332    0.0000 C   0  0  0  0  0  0  0  0  0  0  0  0
    4.2594   -5.3207    0.0000 C   0  0  0  0  0  0  0  0  0  0  0  0
    5.6883   -4.4957    0.0000 O   0  0  0  0  0  0  0  0  0  0  0  0
    6.4028   -5.7332    0.0000 O   0  0  0  0  0  0  0  0  0  0  0  0
    3.5449   -5.7332    0.0000 C   0  0  0  0  0  0  0  0  0  0  0  0
    2.8304   -5.3207    0.0000 C   0  0  0  0  0  0  0  0  0  0  0  0
    2.1160   -5.7332    0.0000 C   0  0  0  0  0  0  0  0  0  0  0  0
    2.1160   -6.5582    0.0000 C   0  0  0  0  0  0  0  0  0  0  0  0
    2.8304   -6.9707    0.0000 C   0  0  0  0  0  0  0  0  0  0  0  0
    3.5449   -6.5582    0.0000 C   0  0  0  0  0  0  0  0  0  0  0  0
    1.4015   -6.9707    0.0000 O   0  0  0  0  0  0  0  0  0  0  0  0
    1.4015   -5.3207    0.0000 O   0  0  0  0  0  0  0  0  0  0  0  0
    7.8317   -4.0832    0.0000 O   0  0  0  0  0  0  0  0  0  0  0  0
    7.1173   -4.4957    0.0000 C   0  0  1  0  0  0  0  0  0  0  0  0
    7.1173   -5.3207    0.0000 C   0  0  2  0  0  0  0  0  0  0  0  0
    7.8317   -5.7332    0.0000 C   0  0  1  0  0  0  0  0  0  0  0  0
    8.5462   -5.3207    0.0000 C   0  0  2  0  0  0  0  0  0  0  0  0
    8.5462   -4.4957    0.0000 C   0  0  2  0  0  0  0  0  0  0  0  0
    6.4028   -4.0832    0.0000 C   0  0  0  0  0  0  0  0  0  0  0  0
    6.4028   -3.2582    0.0000 O   0  0  0  0  0  0  0  0  0  0  0  0
    9.2607   -5.7332    0.0000 O   0  0  0  0  0  0  0  0  0  0  0  0
    9.2607   -4.0832    0.0000 O   0  0  0  0  0  0  0  0  0  0  0  0
    9.9751   -4.4957    0.0000 C   0  0  0  0  0  0  0  0  0  0  0  0
   10.6896   -4.0832    0.0000 C   0  0  0  0  0  0  0  0  0  0  0  0
   11.4041   -4.4957    0.0000 C   0  0  0  0  0  0  0  0  0  0  0  0
   12.1186   -4.0832    0.0000 C   0  0  0  0  0  0  0  0  0  0  0  0
   12.8330   -4.4957    0.0000 C   0  0  0  0  0  0  0  0  0  0  0  0
   12.8330   -5.3207    0.0000 C   0  0  0  0  0  0  0  0  0  0  0  0
   12.1186   -5.7332    0.0000 C   0  0  0  0  0  0  0  0  0  0  0  0
   11.4041   -5.3207    0.0000 C   0  0  0  0  0  0  0  0  0  0  0  0
   13.5475   -5.7332    0.0000 O   0  0  0  0  0  0  0  0  0  0  0  0
   13.5475   -4.0832    0.0000 O   0  0  0  0  0  0  0  0  0  0  0  0
    7.8317   -6.5582    0.0000 O   0  0  0  0  0  0  0  0  0  0  0  0
    6.4028   -6.5582    0.0000 O   0  0  0  0  0  0  0  0  0  0  0  0
    7.1173   -6.9707    0.0000 C   0  0  2  0  0  0  0  0  0  0  0  0
    7.1173   -7.7957    0.0000 C   0  0  1  0  0  0  0  0  0  0  0  0
    6.4028   -8.2082    0.0000 C   0  0  1  0  0  0  0  0  0  0  0  0
    5.6883   -7.7957    0.0000 C   0  0  2  0  0  0  0  0  0  0  0  0
    5.6883   -6.9707    0.0000 C   0  0  2  0  0  0  0  0  0  0  0  0
    4.9739   -6.5582    0.0000 C   0  0  0  0  0  0  0  0  0  0  0  0
    4.9739   -8.2082    0.0000 O   0  0  0  0  0  0  0  0  0  0  0  0
    6.4028   -9.0332    0.0000 O   0  0  0  0  0  0  0  0  0  0  0  0
    9.2607   -9.0332    0.0000 O   0  0  0  0  0  0  0  0  0  0  0  0
    9.2607  -10.6832    0.0000 O   0  0  0  0  0  0  0  0  0  0  0  0
    7.8317  -11.5082    0.0000 O   0  0  0  0  0  0  0  0  0  0  0  0
    7.1173  -10.2707    0.0000 C   0  0  0  0  0  0  0  0  0  0  0  0
    7.8317  -10.6832    0.0000 C   0  0  1  0  0  0  0  0  0  0  0  0
    8.5462  -10.2707    0.0000 C   0  0  1  0  0  0  0  0  0  0  0  0
    8.5462   -9.4457    0.0000 C   0  0  2  0  0  0  0  0  0  0  0  0
    7.8317   -9.0332    0.0000 C   0  0  1  0  0  0  0  0  0  0  0  0
    7.1173   -9.4457    0.0000 O   0  0  0  0  0  0  0  0  0  0  0  0
    7.8317   -8.2082    0.0000 O   0  0  0  0  0  0  0  0  0  0  0  0
 51 53  1  1  0  0  0
 50 44  1  6  0  0  0
 49 45  1  1  0  0  0
 48 46  1  1  0  0  0
 52 47  1  0  0  0  0
 48 47  1  0  0  0  0
 49 48  1  0  0  0  0
 50 49  1  0  0  0  0
 51 50  1  0  0  0  0
 52 51  1  0  0  0  0
  1  2  1  0  0  0  0
  2  3  2  0  0  0  0
  1  4  2  0  0  0  0
  1  5  1  0  0  0  0
  6  7  1  0  0  0  0
  7  8  2  0  0  0  0
  8  9  1  0  0  0  0
  9 10  2  0  0  0  0
 10 11  1  0  0  0  0
  6 11  2  0  0  0  0
  9 12  1  0  0  0  0
  8 13  1  0  0  0  0
  3  6  1  0  0  0  0
 14 15  1  0  0  0  0
 15 16  1  0  0  0  0
 16 17  1  0  0  0  0
 17 18  1  0  0  0  0
 18 19  1  0  0  0  0
 14 19  1  0  0  0  0
 20 21  1  0  0  0  0
 15 20  1  1  0  0  0
 18 22  1  6  0  0  0
 24 25  1  0  0  0  0
 23 24  1  0  0  0  0
 26 27  1  0  0  0  0
 27 28  2  0  0  0  0
 28 29  1  0  0  0  0
 29 30  2  0  0  0  0
 30 31  1  0  0  0  0
 26 31  2  0  0  0  0
 29 32  1  0  0  0  0
 28 33  1  0  0  0  0
 25 26  1  0  0  0  0
 19 23  1  1  0  0  0
 35 36  1  0  0  0  0
 36 37  1  0  0  0  0
 37 38  1  0  0  0  0
 38 39  1  0  0  0  0
 39 40  1  0  0  0  0
 35 40  1  0  0  0  0
 37 53  1  6  0  0  0
 40 41  1  6  0  0  0
 39 42  1  1  0  0  0
 38 43  1  6  0  0  0
 36 34  1  1  0  0  0
 17 34  1  1  0  0  0
 16  5  1  6  0  0  0
M  END
>  <cdx:groupId>
165

>  <cdx:fragmentId>
87

$$$$
