42994.cdx
  Mrv1902 05222410202D          

 34 36  0  0  0  0            999 V2000
   12.8431   -9.6747    0.0000 C   0  0  0  0  0  0  0  0  0  0  0  0
   12.1287   -9.2622    0.0000 C   0  0  0  0  0  0  0  0  0  0  0  0
   11.4142   -9.6747    0.0000 C   0  0  0  0  0  0  0  0  0  0  0  0
   10.6997   -9.2622    0.0000 C   0  0  0  0  0  0  0  0  0  0  0  0
   12.1287   -8.4372    0.0000 O   0  0  0  0  0  0  0  0  0  0  0  0
    9.9853   -9.6747    0.0000 C   0  0  0  0  0  0  0  0  0  0  0  0
    9.2708   -9.2622    0.0000 C   0  0  0  0  0  0  0  0  0  0  0  0
    8.5563   -9.6747    0.0000 C   0  0  0  0  0  0  0  0  0  0  0  0
    8.5563  -10.4997    0.0000 C   0  0  0  0  0  0  0  0  0  0  0  0
    9.2708  -10.9122    0.0000 C   0  0  0  0  0  0  0  0  0  0  0  0
    9.9853  -10.4997    0.0000 C   0  0  0  0  0  0  0  0  0  0  0  0
    7.8418  -10.9122    0.0000 O   0  0  0  0  0  0  0  0  0  0  0  0
    6.4063   -9.2664    0.0000 C   0  0  2  0  0  0  0  0  0  0  0  0
    5.6906   -9.6768    0.0000 C   0  0  2  0  0  0  0  0  0  0  0  0
    5.6882  -10.5018    0.0000 C   0  0  1  0  0  0  0  0  0  0  0  0
    6.4014  -10.9164    0.0000 C   0  0  2  0  0  0  0  0  0  0  0  0
    7.1171  -10.5060    0.0000 C   0  0  1  0  0  0  0  0  0  0  0  0
    7.1195   -9.6810    0.0000 O   0  0  0  0  0  0  0  0  0  0  0  0
    6.4087   -8.4414    0.0000 C   0  0  0  0  0  0  0  0  0  0  0  0
    4.9725  -10.9122    0.0000 O   0  0  0  0  0  0  0  0  0  0  0  0
    4.9773   -9.2622    0.0000 O   0  0  0  0  0  0  0  0  0  0  0  0
    6.3990  -11.7414    0.0000 O   0  0  0  0  0  0  0  0  0  0  0  0
    5.6954   -8.0268    0.0000 O   0  0  0  0  0  0  0  0  0  0  0  0
    5.6954   -7.2018    0.0000 C   0  0  0  0  0  0  0  0  0  0  0  0
    6.4099   -6.7893    0.0000 O   0  0  0  0  0  0  0  0  0  0  0  0
    4.9809   -6.7893    0.0000 C   0  0  0  0  0  0  0  0  0  0  0  0
    4.9809   -5.9643    0.0000 C   0  0  0  0  0  0  0  0  0  0  0  0
    4.2665   -5.5518    0.0000 C   0  0  0  0  0  0  0  0  0  0  0  0
    3.5520   -5.9643    0.0000 C   0  0  0  0  0  0  0  0  0  0  0  0
    3.5520   -6.7893    0.0000 C   0  0  0  0  0  0  0  0  0  0  0  0
    4.2665   -7.2018    0.0000 C   0  0  0  0  0  0  0  0  0  0  0  0
    4.2665   -4.7268    0.0000 O   0  0  0  0  0  0  0  0  0  0  0  0
    2.8375   -5.5518    0.0000 O   0  0  0  0  0  0  0  0  0  0  0  0
    2.8375   -7.2018    0.0000 O   0  0  0  0  0  0  0  0  0  0  0  0
  1  2  1  0  0  0  0
  2  3  1  0  0  0  0
  3  4  1  0  0  0  0
  2  5  2  0  0  0  0
  6  7  1  0  0  0  0
  7  8  2  0  0  0  0
  8  9  1  0  0  0  0
  9 10  2  0  0  0  0
 10 11  1  0  0  0  0
  6 11  2  0  0  0  0
  9 12  1  0  0  0  0
  4  6  1  0  0  0  0
 13 14  1  0  0  0  0
 14 15  1  0  0  0  0
 15 16  1  0  0  0  0
 16 17  1  0  0  0  0
 17 18  1  0  0  0  0
 18 13  1  0  0  0  0
 13 19  1  1  0  0  0
 15 20  1  1  0  0  0
 14 21  1  6  0  0  0
 16 22  1  6  0  0  0
 19 23  1  0  0  0  0
 17 12  1  1  0  0  0
 23 24  1  0  0  0  0
 24 25  2  0  0  0  0
 24 26  1  0  0  0  0
 26 27  2  0  0  0  0
 27 28  1  0  0  0  0
 28 29  2  0  0  0  0
 29 30  1  0  0  0  0
 30 31  2  0  0  0  0
 31 26  1  0  0  0  0
 28 32  1  0  0  0  0
 29 33  1  0  0  0  0
 30 34  1  0  0  0  0
M  END
>  <cdx:fragmentId>
15

$$$$
