430313.cdx
  Mrv1902 05222410222D          

 14 15  0  0  0  0            999 V2000
    8.6694   -8.3337    0.0000 C   0  0  0  0  0  0  0  0  0  0  0  0
    9.4943   -8.3240    0.0000 C   0  0  0  0  0  0  0  0  0  0  0  0
    8.2653   -9.0530    0.0000 O   0  0  0  0  0  0  0  0  0  0  0  0
    8.2485   -7.6241    0.0000 O   0  0  0  0  0  0  0  0  0  0  0  0
    6.1590   -8.0612    0.0000 C   0  0  2  0  0  0  0  0  0  0  0  0
    6.9465   -8.3069    0.0000 C   0  0  0  0  0  0  0  0  0  0  0  0
    7.4236   -7.6338    0.0000 C   0  0  1  0  0  0  0  0  0  0  0  0
    6.9308   -6.9721    0.0000 C   0  0  0  0  0  0  0  0  0  0  0  0
    6.1493   -7.2363    0.0000 C   0  0  0  0  0  0  0  0  0  0  0  0
    5.4397   -7.6571    0.0000 C   0  0  0  0  0  0  0  0  0  0  0  0
    6.3250   -9.4805    0.0000 C   0  0  0  0  0  0  0  0  0  0  0  0
    5.8323   -8.8188    0.0000 C   0  0  0  0  0  0  0  0  0  0  0  0
    5.0129   -8.9146    0.0000 C   0  0  0  0  0  0  0  0  0  0  0  0
    7.1766   -6.1846    0.0000 C   0  0  0  0  0  0  0  0  0  0  0  0
  1  2  1  0  0  0  0
  1  3  2  0  0  0  0
  1  4  1  0  0  0  0
  5  6  1  0  0  0  0
  6  7  1  0  0  0  0
  7  8  1  0  0  0  0
  8  9  1  0  0  0  0
  9 10  1  0  0  0  0
  5 10  1  0  0  0  0
  5  9  1  0  0  0  0
 11 12  1  0  0  0  0
 12 13  1  0  0  0  0
  5 12  1  6  0  0  0
  8 14  2  0  0  0  0
  7  4  1  1  0  0  0
M  END
>  <cdx:fragmentId>
13843

$$$$
