430488.cdx
  Mrv1902 05222410222D          

 27 28  0  0  0  0            999 V2000
    6.7221   -8.4914    0.0000 O   0  0  0  0  0  0  0  0  0  0  0  0
    7.4339   -8.9085    0.0000 C   0  0  2  0  0  0  0  0  0  0  0  0
    7.4285   -9.7335    0.0000 C   0  0  1  0  0  0  0  0  0  0  0  0
    6.7113  -10.1413    0.0000 C   0  0  2  0  0  0  0  0  0  0  0  0
    5.9996   -9.7242    0.0000 C   0  0  1  0  0  0  0  0  0  0  0  0
    6.0050   -8.8992    0.0000 C   0  0  1  0  0  0  0  0  0  0  0  0
    8.1402  -10.1507    0.0000 O   0  0  0  0  0  0  0  0  0  0  0  0
    6.7059  -10.9663    0.0000 O   0  0  0  0  0  0  0  0  0  0  0  0
    5.2824  -10.1320    0.0000 O   0  0  0  0  0  0  0  0  0  0  0  0
    5.2932   -8.4820    0.0000 C   0  0  0  0  0  0  0  0  0  0  0  0
    4.5787   -8.8945    0.0000 O   0  0  0  0  0  0  0  0  0  0  0  0
    8.1510   -8.5007    0.0000 O   0  0  0  0  0  0  0  0  0  0  0  0
    8.8628   -8.9179    0.0000 C   0  0  1  0  0  0  0  0  0  0  0  0
    9.5799   -8.5101    0.0000 C   0  0  2  0  0  0  0  0  0  0  0  0
   10.2917   -8.9273    0.0000 C   0  0  0  0  0  0  0  0  0  0  0  0
   10.2863   -9.7522    0.0000 C   0  0  0  0  0  0  0  0  0  0  0  0
    9.5691  -10.1601    0.0000 C   0  0  0  0  0  0  0  0  0  0  0  0
    8.8574   -9.7429    0.0000 C   0  0  0  0  0  0  0  0  0  0  0  0
   10.7089   -8.2155    0.0000 C   0  0  0  0  0  0  0  0  0  0  0  0
   11.1167   -8.9327    0.0000 C   0  0  0  0  0  0  0  0  0  0  0  0
    8.1456   -9.3257    0.0000 C   0  0  0  0  0  0  0  0  0  0  0  0
    9.5854   -7.6851    0.0000 C   0  0  0  0  0  0  0  0  0  0  0  0
    8.8736   -7.2679    0.0000 C   0  0  0  0  0  0  0  0  0  0  0  0
    8.8790   -6.4430    0.0000 C   0  0  1  0  0  0  0  0  0  0  0  0
    8.1673   -6.0258    0.0000 C   0  0  0  0  0  0  0  0  0  0  0  0
    9.5962   -6.0351    0.0000 O   0  0  0  0  0  0  0  0  0  0  0  0
   10.2971   -8.1023    0.0000 O   0  0  0  0  0  0  0  0  0  0  0  0
  1  2  1  0  0  0  0
  2  3  1  0  0  0  0
  3  4  1  0  0  0  0
  4  5  1  0  0  0  0
  5  6  1  0  0  0  0
  1  6  1  0  0  0  0
  3  7  1  6  0  0  0
  4  8  1  1  0  0  0
  5  9  1  6  0  0  0
 10 11  1  0  0  0  0
  6 10  1  1  0  0  0
 13 14  1  0  0  0  0
 14 15  1  0  0  0  0
 15 16  1  0  0  0  0
 16 17  1  0  0  0  0
 17 18  1  0  0  0  0
 13 18  1  0  0  0  0
 15 19  1  0  0  0  0
 15 20  1  0  0  0  0
 13 21  1  6  0  0  0
 22 23  2  0  0  0  0
 23 24  1  0  0  0  0
 24 25  1  0  0  0  0
 24 26  1  1  0  0  0
 14 22  1  0  0  0  0
 14 27  1  6  0  0  0
 12 13  1  0  0  0  0
  2 12  1  1  0  0  0
M  END
>  <cdx:fragmentId>
49801

$$$$
