6430783.cdx
  Mrv1902 05222410272D          

 11 12  0  0  0  0            999 V2000
    8.3803   -7.6005    0.0000 C   0  0  0  0  0  0  0  0  0  0  0  0
    8.8652   -8.2679    0.0000 C   0  0  0  0  0  0  0  0  0  0  0  0
    8.3803   -8.9353    0.0000 C   0  0  0  0  0  0  0  0  0  0  0  0
    7.5957   -8.6804    0.0000 C   0  0  0  0  0  0  0  0  0  0  0  0
    6.8111   -8.9353    0.0000 C   0  0  0  0  0  0  0  0  0  0  0  0
    6.3261   -8.2679    0.0000 C   0  0  0  0  0  0  0  0  0  0  0  0
    6.8111   -7.6005    0.0000 C   0  0  0  0  0  0  0  0  0  0  0  0
    7.5957   -7.8554    0.0000 C   0  0  0  0  0  0  0  0  0  0  0  0
    8.6352   -6.8158    0.0000 O   0  0  0  0  0  0  0  0  0  0  0  0
    5.6117   -8.6804    0.0000 C   0  0  0  0  0  0  0  0  0  0  0  0
    5.6117   -7.8554    0.0000 C   0  0  0  0  0  0  0  0  0  0  0  0
  1  2  1  0  0  0  0
  2  3  1  0  0  0  0
  3  4  1  0  0  0  0
  4  5  1  0  0  0  0
  5  6  1  0  0  0  0
  6  7  1  0  0  0  0
  7  8  1  0  0  0  0
  1  8  1  0  0  0  0
  4  8  1  0  0  0  0
  1  9  2  0  0  0  0
  6 10  1  0  0  0  0
  6 11  1  0  0  0  0
M  END
>  <cdx:groupId>
13960

>  <cdx:fragmentId>
13929

$$$$
