6430888.cdx
  Mrv1902 05222410232D          

  8  7  0  0  0  0            999 V2000
    6.3213   -7.6750    0.0000 C   0  0  0  0  0  0  0  0  0  0  0  0
    7.0357   -8.0875    0.0000 C   0  0  0  0  0  0  0  0  0  0  0  0
    7.7502   -7.6750    0.0000 C   0  0  0  0  0  0  0  0  0  0  0  0
    8.4647   -8.0875    0.0000 C   0  0  0  0  0  0  0  0  0  0  0  0
    9.1792   -7.6750    0.0000 C   0  0  0  0  0  0  0  0  0  0  0  0
    5.6068   -8.0875    0.0000 O   0  0  0  0  0  0  0  0  0  0  0  0
    7.7502   -6.8500    0.0000 S   0  0  0  0  0  0  0  0  0  0  0  0
    7.0357   -8.9125    0.0000 C   0  0  0  0  0  0  0  0  0  0  0  0
  1  2  1  0  0  0  0
  2  3  1  0  0  0  0
  3  4  1  0  0  0  0
  4  5  1  0  0  0  0
  1  6  1  0  0  0  0
  3  7  1  0  0  0  0
  2  8  1  0  0  0  0
M  END
>  <cdx:groupId>
14066

>  <cdx:fragmentId>
14046

$$$$
