71430886.cdx
  Mrv1902 05222410222D          

 19 20  0  0  0  0            999 V2000
    7.2945  -15.8767    0.0000 C   0  0  0  0  0  0  0  0  0  0  0  0
    7.7795  -15.2092    0.0000 C   0  0  0  0  0  0  0  0  0  0  0  0
    7.2945  -14.5418    0.0000 C   0  0  1  0  0  0  0  0  0  0  0  0
    6.5099  -14.7967    0.0000 C   0  0  1  0  0  0  0  0  0  0  0  0
    5.7954  -14.3842    0.0000 C   0  0  2  0  0  0  0  0  0  0  0  0
    5.0810  -14.7967    0.0000 C   0  0  0  0  0  0  0  0  0  0  0  0
    5.0810  -15.6217    0.0000 C   0  0  0  0  0  0  0  0  0  0  0  0
    5.7954  -16.0342    0.0000 C   0  0  2  0  0  0  0  0  0  0  0  0
    6.5099  -15.6217    0.0000 C   0  0  2  0  0  0  0  0  0  0  0  0
    5.3829  -13.6698    0.0000 O   0  0  0  0  0  0  0  0  0  0  0  0
    5.7954  -16.8592    0.0000 O   0  0  0  0  0  0  0  0  0  0  0  0
    6.5962  -16.4422    0.0000 C   0  0  0  0  0  0  0  0  0  0  0  0
    6.2079  -13.6698    0.0000 C   0  0  0  0  0  0  0  0  0  0  0  0
    7.5495  -13.7572    0.0000 C   0  0  0  0  0  0  0  0  0  0  0  0
    8.3565  -13.5856    0.0000 C   0  0  0  0  0  0  0  0  0  0  0  0
    8.9085  -14.1987    0.0000 C   0  0  0  0  0  0  0  0  0  0  0  0
    8.6114  -12.8010    0.0000 C   0  0  0  0  0  0  0  0  0  0  0  0
    9.1634  -13.4141    0.0000 O   0  0  0  0  0  0  0  0  0  0  0  0
    6.5962  -13.9762    0.0000 H   0  0  0  0  0  0  0  0  0  0  0  0
  1  2  1  0  0  0  0
  2  3  1  0  0  0  0
  3  4  1  0  0  0  0
  4  5  1  0  0  0  0
  5  6  1  0  0  0  0
  6  7  1  0  0  0  0
  7  8  1  0  0  0  0
  8  9  1  0  0  0  0
  1  9  1  0  0  0  0
  4  9  1  0  0  0  0
  5 10  1  6  0  0  0
  8 11  1  6  0  0  0
  9 12  1  6  0  0  0
  5 13  1  1  0  0  0
 14 15  1  0  0  0  0
 15 16  1  0  0  0  0
 15 17  1  0  0  0  0
 15 18  1  0  0  0  0
  3 14  1  1  0  0  0
  4 19  1  1  0  0  0
M  END
>  <cdx:groupId>
199382

>  <cdx:fragmentId>
199327

$$$$
