430801.cdx
  Mrv1902 05222410262D          

 11 11  0  0  0  0            999 V2000
    7.1417   -9.2708    0.0000 C   0  0  0  0  0  0  0  0  0  0  0  0
    6.4799   -8.7782    0.0000 C   0  0  0  0  0  0  0  0  0  0  0  0
    5.8069   -9.2554    0.0000 C   0  0  0  0  0  0  0  0  0  0  0  0
    6.0528  -10.0429    0.0000 C   0  0  0  0  0  0  0  0  0  0  0  0
    6.8777  -10.0524    0.0000 C   0  0  0  0  0  0  0  0  0  0  0  0
    8.1100   -8.2199    0.0000 C   0  0  0  0  0  0  0  0  0  0  0  0
    7.9292   -9.0249    0.0000 C   0  0  0  0  0  0  0  0  0  0  0  0
    8.8975   -7.9741    0.0000 O   0  0  0  0  0  0  0  0  0  0  0  0
    5.0253   -8.9914    0.0000 C   0  0  0  0  0  0  0  0  0  0  0  0
    6.0757   -8.0590    0.0000 C   0  0  0  0  0  0  0  0  0  0  0  0
    6.9006   -8.0685    0.0000 C   0  0  0  0  0  0  0  0  0  0  0  0
  1  2  1  0  0  0  0
  2  3  1  0  0  0  0
  3  4  2  0  0  0  0
  4  5  1  0  0  0  0
  1  5  1  0  0  0  0
  6  7  1  0  0  0  0
  6  8  2  0  0  0  0
  1  7  1  0  0  0  0
  3  9  1  0  0  0  0
  2 10  1  0  0  0  0
  2 11  1  0  0  0  0
M  END
>  <cdx:fragmentId>
5

$$$$
