4309.cdx
  Mrv1902 05222410272D          

 17 19  0  0  0  0            999 V2000
    5.4070   -7.2600    0.0000 C   0  0  0  0  0  0  0  0  0  0  0  0
    5.4070   -8.0850    0.0000 C   0  0  0  0  0  0  0  0  0  0  0  0
    6.1215   -8.4975    0.0000 C   0  0  0  0  0  0  0  0  0  0  0  0
    6.8360   -8.0850    0.0000 C   0  0  0  0  0  0  0  0  0  0  0  0
    6.8360   -7.2600    0.0000 C   0  0  0  0  0  0  0  0  0  0  0  0
    6.1215   -6.8475    0.0000 C   0  0  0  0  0  0  0  0  0  0  0  0
    5.4070   -6.4350    0.0000 C   0  0  0  0  0  0  0  0  0  0  0  0
    5.4070   -8.9100    0.0000 C   0  0  0  0  0  0  0  0  0  0  0  0
    7.5504   -6.8475    0.0000 C   0  0  0  0  0  0  0  0  0  0  0  0
    8.2649   -7.2600    0.0000 C   0  0  0  0  0  0  0  0  0  0  0  0
    8.9794   -6.8475    0.0000 C   0  0  0  0  0  0  0  0  0  0  0  0
    8.9794   -6.0225    0.0000 O   0  0  0  0  0  0  0  0  0  0  0  0
    9.6939   -7.2600    0.0000 O   0  0  0  0  0  0  0  0  0  0  0  0
    4.6101   -6.2215    0.0000 C   0  0  0  0  0  0  0  0  0  0  0  0
    5.6206   -5.6381    0.0000 C   0  0  0  0  0  0  0  0  0  0  0  0
    5.6206   -9.7069    0.0000 C   0  0  0  0  0  0  0  0  0  0  0  0
    4.6101   -9.1235    0.0000 C   0  0  0  0  0  0  0  0  0  0  0  0
  1  2  1  0  0  0  0
  2  3  1  0  0  0  0
  3  4  1  0  0  0  0
  4  5  2  0  0  0  0
  5  6  1  0  0  0  0
  6  1  1  0  0  0  0
  1  7  1  0  0  0  0
  2  8  1  0  0  0  0
  6  7  1  0  0  0  0
  3  8  1  0  0  0  0
  5  9  1  0  0  0  0
  9 10  1  0  0  0  0
 10 11  1  0  0  0  0
 11 12  2  0  0  0  0
 11 13  1  0  0  0  0
  7 14  1  0  0  0  0
  7 15  1  0  0  0  0
  8 16  1  0  0  0  0
  8 17  1  0  0  0  0
M  END
>  <cdx:fragmentId>
5

$$$$
