6431196.cdx
  Mrv1902 05222410212D          

 16 17  0  0  0  0            999 V2000
    7.0323   -6.7838    0.0000 C   0  0  0  0  0  0  0  0  0  0  0  0
    6.3178   -7.1963    0.0000 C   0  0  0  0  0  0  0  0  0  0  0  0
    6.3178   -8.0213    0.0000 C   0  0  0  0  0  0  0  0  0  0  0  0
    7.0323   -8.4338    0.0000 C   0  0  0  0  0  0  0  0  0  0  0  0
    7.7468   -8.0213    0.0000 C   0  0  0  0  0  0  0  0  0  0  0  0
    8.4613   -8.4338    0.0000 C   0  0  0  0  0  0  0  0  0  0  0  0
    9.1757   -8.0213    0.0000 C   0  0  0  0  0  0  0  0  0  0  0  0
    9.1757   -7.1963    0.0000 C   0  0  0  0  0  0  0  0  0  0  0  0
    8.4613   -6.7838    0.0000 C   0  0  0  0  0  0  0  0  0  0  0  0
    7.7468   -7.1963    0.0000 C   0  0  0  0  0  0  0  0  0  0  0  0
    5.6034   -6.7838    0.0000 O   0  0  0  0  0  0  0  0  0  0  0  0
    7.7468   -9.6713    0.0000 C   0  0  0  0  0  0  0  0  0  0  0  0
    8.4613   -9.2588    0.0000 C   0  0  0  0  0  0  0  0  0  0  0  0
    9.1757   -9.6713    0.0000 C   0  0  0  0  0  0  0  0  0  0  0  0
    8.4613   -5.9588    0.0000 C   0  0  0  0  0  0  0  0  0  0  0  0
    5.6034   -8.4338    0.0000 C   0  0  0  0  0  0  0  0  0  0  0  0
  1  2  1  0  0  0  0
  2  3  1  0  0  0  0
  3  4  2  0  0  0  0
  4  5  1  0  0  0  0
  5  6  1  0  0  0  0
  6  7  1  0  0  0  0
  7  8  1  0  0  0  0
  8  9  1  0  0  0  0
  9 10  1  0  0  0  0
  1 10  2  0  0  0  0
  5 10  1  0  0  0  0
  2 11  1  0  0  0  0
 12 13  1  0  0  0  0
 13 14  1  0  0  0  0
  6 13  1  0  0  0  0
  9 15  1  0  0  0  0
  3 16  1  0  0  0  0
M  END
>  <cdx:groupId>
14292

>  <cdx:fragmentId>
14246

$$$$
