6431297.cdx
  Mrv1902 05222410192D          

 19 18  0  0  0  0            999 V2000
    1.5655   -7.5871    0.0000 C   0  0  0  0  0  0  0  0  0  0  0  0
    2.2800   -7.9996    0.0000 C   0  0  0  0  0  0  0  0  0  0  0  0
    2.9945   -7.5871    0.0000 C   0  0  0  0  0  0  0  0  0  0  0  0
    3.7090   -7.9996    0.0000 C   0  0  0  0  0  0  0  0  0  0  0  0
    4.4234   -7.5871    0.0000 C   0  0  0  0  0  0  0  0  0  0  0  0
    5.1379   -7.9996    0.0000 C   0  0  0  0  0  0  0  0  0  0  0  0
    5.8524   -7.5871    0.0000 C   0  0  0  0  0  0  0  0  0  0  0  0
    6.5668   -7.9996    0.0000 C   0  0  0  0  0  0  0  0  0  0  0  0
    7.2813   -7.5871    0.0000 C   0  0  0  0  0  0  0  0  0  0  0  0
    7.9958   -7.9996    0.0000 C   0  0  0  0  0  0  0  0  0  0  0  0
    8.7103   -7.5871    0.0000 C   0  0  0  0  0  0  0  0  0  0  0  0
    9.4247   -7.9996    0.0000 C   0  0  0  0  0  0  0  0  0  0  0  0
   10.1392   -7.5871    0.0000 C   0  0  0  0  0  0  0  0  0  0  0  0
   10.8537   -7.9996    0.0000 C   0  0  0  0  0  0  0  0  0  0  0  0
   11.5681   -7.5871    0.0000 C   0  0  0  0  0  0  0  0  0  0  0  0
   12.2826   -7.9996    0.0000 C   0  0  0  0  0  0  0  0  0  0  0  0
   12.9971   -7.5871    0.0000 C   0  0  0  0  0  0  0  0  0  0  0  0
   13.7116   -7.9996    0.0000 C   0  0  0  0  0  0  0  0  0  0  0  0
    0.8511   -7.9996    0.0000 O   0  0  0  0  0  0  0  0  0  0  0  0
  1  2  1  0  0  0  0
  2  3  1  0  0  0  0
  3  4  1  0  0  0  0
  4  5  1  0  0  0  0
  5  6  1  0  0  0  0
  6  7  1  0  0  0  0
  7  8  1  0  0  0  0
  8  9  1  0  0  0  0
  9 10  2  0  0  0  0
 10 11  1  0  0  0  0
 11 12  1  0  0  0  0
 12 13  1  0  0  0  0
 13 14  1  0  0  0  0
 14 15  1  0  0  0  0
 15 16  1  0  0  0  0
 16 17  1  0  0  0  0
 17 18  2  0  0  0  0
  1 19  2  0  0  0  0
M  END
>  <cdx:groupId>
14353

>  <cdx:fragmentId>
14300

$$$$
