6431304.cdx
  Mrv1902 05222410272D          

 16 17  0  0  0  0            999 V2000
    5.8771   -7.4497    0.0000 C   0  0  0  0  0  0  0  0  0  0  0  0
    5.1626   -7.8622    0.0000 C   0  0  0  0  0  0  0  0  0  0  0  0
    5.1626   -8.6872    0.0000 C   0  0  0  0  0  0  0  0  0  0  0  0
    5.8771   -9.0997    0.0000 C   0  0  0  0  0  0  0  0  0  0  0  0
    6.5916   -8.6872    0.0000 C   0  0  2  0  0  0  0  0  0  0  0  0
    7.3061   -9.0997    0.0000 C   0  0  0  0  0  0  0  0  0  0  0  0
    8.0205   -8.6872    0.0000 C   0  0  0  0  0  0  0  0  0  0  0  0
    8.0205   -7.8622    0.0000 C   0  0  2  0  0  0  0  0  0  0  0  0
    7.3061   -7.4497    0.0000 C   0  0  0  0  0  0  0  0  0  0  0  0
    6.5916   -7.8622    0.0000 C   0  0  0  0  0  0  0  0  0  0  0  0
    5.8771   -6.6247    0.0000 C   0  0  0  0  0  0  0  0  0  0  0  0
    5.1626   -6.2122    0.0000 O   0  0  0  0  0  0  0  0  0  0  0  0
    8.7350   -6.6247    0.0000 C   0  0  0  0  0  0  0  0  0  0  0  0
    8.7350   -7.4497    0.0000 C   0  0  0  0  0  0  0  0  0  0  0  0
    9.4495   -7.8622    0.0000 C   0  0  0  0  0  0  0  0  0  0  0  0
    6.5916   -9.5122    0.0000 C   0  0  0  0  0  0  0  0  0  0  0  0
  1  2  2  0  0  0  0
  2  3  1  0  0  0  0
  3  4  1  0  0  0  0
  4  5  1  0  0  0  0
  5  6  1  0  0  0  0
  6  7  1  0  0  0  0
  7  8  1  0  0  0  0
  8  9  1  0  0  0  0
  9 10  1  0  0  0  0
  1 10  1  0  0  0  0
  5 10  1  0  0  0  0
 11 12  2  0  0  0  0
  1 11  1  0  0  0  0
 13 14  2  0  0  0  0
 14 15  1  0  0  0  0
  8 14  1  6  0  0  0
  5 16  1  6  0  0  0
M  END
>  <cdx:groupId>
14466

>  <cdx:fragmentId>
14420

$$$$
