431569.cdx
  Mrv1902 05222410222D          

 13 12  0  0  0  0            999 V2000
   11.3002   -8.6674    0.0000 O   0  0  0  0  0  0  0  0  0  0  0  0
    3.4411   -9.0799    0.0000 O   0  0  0  0  0  0  0  0  0  0  0  0
    4.1555   -7.8424    0.0000 O   0  0  0  0  0  0  0  0  0  0  0  0
   10.5858   -9.0799    0.0000 C   0  0  0  0  0  0  0  0  0  0  0  0
    9.8713   -8.6674    0.0000 C   0  0  0  0  0  0  0  0  0  0  0  0
    9.1568   -9.0799    0.0000 C   0  0  0  0  0  0  0  0  0  0  0  0
    8.4424   -8.6674    0.0000 C   0  0  0  0  0  0  0  0  0  0  0  0
    7.7279   -9.0799    0.0000 C   0  0  0  0  0  0  0  0  0  0  0  0
    7.0134   -8.6674    0.0000 C   0  0  0  0  0  0  0  0  0  0  0  0
    6.2990   -9.0799    0.0000 C   0  0  0  0  0  0  0  0  0  0  0  0
    5.5845   -8.6674    0.0000 C   0  0  0  0  0  0  0  0  0  0  0  0
    4.8700   -9.0799    0.0000 C   0  0  0  0  0  0  0  0  0  0  0  0
    4.1555   -8.6674    0.0000 C   0  0  0  0  0  0  0  0  0  0  0  0
  4  1  2  0  0  0  0
 13  2  1  0  0  0  0
 13  3  2  0  0  0  0
  5  4  1  0  0  0  0
  6  5  2  0  0  0  0
  7  6  1  0  0  0  0
  8  7  1  0  0  0  0
  9  8  1  0  0  0  0
 10  9  1  0  0  0  0
 11 10  1  0  0  0  0
 12 11  1  0  0  0  0
 13 12  1  0  0  0  0
M  END
>  <cdx:groupId>
92134

>  <cdx:fragmentId>
92099

$$$$
