6432025.cdx
  Mrv1902 05222410262D          

 23 25  0  0  0  0            999 V2000
    8.4118   -6.6082    0.0000 C   0  0  2  0  0  0  0  0  0  0  0  0
    7.6974   -6.1957    0.0000 C   0  0  0  0  0  0  0  0  0  0  0  0
    6.9829   -6.6082    0.0000 C   0  0  0  0  0  0  0  0  0  0  0  0
    6.9829   -7.4332    0.0000 C   0  0  2  0  0  0  0  0  0  0  0  0
    6.2684   -7.8457    0.0000 C   0  0  2  0  0  0  0  0  0  0  0  0
    6.2684   -8.6707    0.0000 C   0  0  1  0  0  0  0  0  0  0  0  0
    6.9829   -9.0832    0.0000 C   0  0  0  0  0  0  0  0  0  0  0  0
    7.6974   -8.6707    0.0000 C   0  0  0  0  0  0  0  0  0  0  0  0
    7.6974   -7.8457    0.0000 C   0  0  1  0  0  0  0  0  0  0  0  0
    8.4118   -7.4332    0.0000 O   0  0  0  0  0  0  0  0  0  0  0  0
    5.5540   -9.0832    0.0000 C   0  0  0  0  0  0  0  0  0  0  0  0
    4.8395   -8.6707    0.0000 C   0  0  0  0  0  0  0  0  0  0  0  0
    4.8395   -7.8457    0.0000 C   0  0  0  0  0  0  0  0  0  0  0  0
    5.5540   -7.4332    0.0000 C   0  0  0  0  0  0  0  0  0  0  0  0
    6.2684   -7.0207    0.0000 C   0  0  0  0  0  0  0  0  0  0  0  0
    5.9665   -9.7977    0.0000 C   0  0  0  0  0  0  0  0  0  0  0  0
    5.1415   -9.7977    0.0000 C   0  0  0  0  0  0  0  0  0  0  0  0
    8.4118   -8.2582    0.0000 C   0  0  0  0  0  0  0  0  0  0  0  0
    8.8243   -5.8938    0.0000 C   0  0  0  0  0  0  0  0  0  0  0  0
    9.2368   -6.6082    0.0000 C   0  0  0  0  0  0  0  0  0  0  0  0
    9.6493   -5.8938    0.0000 C   0  0  0  0  0  0  0  0  0  0  0  0
    6.2684   -9.4957    0.0000 H   0  0  0  0  0  0  0  0  0  0  0  0
    6.9829   -8.2582    0.0000 H   0  0  0  0  0  0  0  0  0  0  0  0
  1  2  1  0  0  0  0
  2  3  1  0  0  0  0
  3  4  1  0  0  0  0
  4  5  1  0  0  0  0
  5  6  1  0  0  0  0
  6  7  1  0  0  0  0
  7  8  1  0  0  0  0
  8  9  1  0  0  0  0
  4  9  1  0  0  0  0
  9 10  1  0  0  0  0
  1 10  1  0  0  0  0
 11 12  1  0  0  0  0
 12 13  1  0  0  0  0
 13 14  1  0  0  0  0
 14  5  1  0  0  0  0
 11  6  1  0  0  0  0
  5 15  1  1  0  0  0
 11 16  1  0  0  0  0
 11 17  1  0  0  0  0
  9 18  1  1  0  0  0
  1 19  1  1  0  0  0
 20 21  2  0  0  0  0
  1 20  1  6  0  0  0
  6 22  1  6  0  0  0
  4 23  1  6  0  0  0
M  END
>  <cdx:groupId>
14596

>  <cdx:fragmentId>
14528

$$$$
