6432211.cdx
  Mrv1902 05222410192D          

 21 23  0  0  0  0            999 V2000
    9.3351   -7.2102    0.0000 C   0  0  0  0  0  0  0  0  0  0  0  0
    9.3351   -6.3852    0.0000 C   0  0  0  0  0  0  0  0  0  0  0  0
    8.6206   -5.9727    0.0000 C   0  0  0  0  0  0  0  0  0  0  0  0
    7.9061   -6.3852    0.0000 C   0  0  0  0  0  0  0  0  0  0  0  0
    7.9061   -7.2102    0.0000 C   0  0  2  0  0  0  0  0  0  0  0  0
    7.1917   -7.6227    0.0000 C   0  0  0  0  0  0  0  0  0  0  0  0
    6.4772   -7.2102    0.0000 C   0  0  0  0  0  0  0  0  0  0  0  0
    5.7627   -7.6227    0.0000 C   0  0  0  0  0  0  0  0  0  0  0  0
    5.7627   -8.4477    0.0000 C   0  0  0  0  0  0  0  0  0  0  0  0
    6.4772   -8.8602    0.0000 C   0  0  0  0  0  0  0  0  0  0  0  0
    7.1917   -8.4477    0.0000 C   0  0  0  0  0  0  0  0  0  0  0  0
    7.9061   -8.8602    0.0000 C   0  0  0  0  0  0  0  0  0  0  0  0
    8.6206   -8.4477    0.0000 C   0  0  0  0  0  0  0  0  0  0  0  0
    8.6206   -7.6227    0.0000 C   0  0  1  0  0  0  0  0  0  0  0  0
    5.0483   -9.6852    0.0000 C   0  0  0  0  0  0  0  0  0  0  0  0
    5.0483   -8.8602    0.0000 C   0  0  0  0  0  0  0  0  0  0  0  0
    4.3338   -8.4477    0.0000 C   0  0  0  0  0  0  0  0  0  0  0  0
    7.1917   -6.7977    0.0000 C   0  0  0  0  0  0  0  0  0  0  0  0
   10.1601   -7.2102    0.0000 C   0  0  0  0  0  0  0  0  0  0  0  0
    9.7476   -7.9247    0.0000 C   0  0  0  0  0  0  0  0  0  0  0  0
    9.3351   -8.0352    0.0000 H   0  0  0  0  0  0  0  0  0  0  0  0
  1  2  1  0  0  0  0
  2  3  1  0  0  0  0
  3  4  1  0  0  0  0
  4  5  1  0  0  0  0
  5  6  1  0  0  0  0
  6  7  1  0  0  0  0
  7  8  2  0  0  0  0
  8  9  1  0  0  0  0
  9 10  2  0  0  0  0
 10 11  1  0  0  0  0
  6 11  2  0  0  0  0
 11 12  1  0  0  0  0
 12 13  1  0  0  0  0
 13 14  1  0  0  0  0
  1 14  1  0  0  0  0
  5 14  1  0  0  0  0
 15 16  1  0  0  0  0
 16 17  1  0  0  0  0
  9 16  1  0  0  0  0
  5 18  1  6  0  0  0
  1 19  1  0  0  0  0
  1 20  1  0  0  0  0
 14 21  1  1  0  0  0
M  END
>  <cdx:groupId>
14790

>  <cdx:fragmentId>
14728

$$$$
