432225.cdx
  Mrv1902 05222410272D          

 14 14  0  0  0  0            999 V2000
    7.3839   -9.3422    0.0000 C   0  0  0  0  0  0  0  0  0  0  0  0
    6.6694   -5.6297    0.0000 C   0  0  0  0  0  0  0  0  0  0  0  0
    7.3839   -6.0422    0.0000 C   0  0  0  0  0  0  0  0  0  0  0  0
    8.0984   -5.6297    0.0000 C   0  0  0  0  0  0  0  0  0  0  0  0
    6.6694   -8.1047    0.0000 C   0  0  0  0  0  0  0  0  0  0  0  0
    7.3839   -8.5172    0.0000 C   0  0  1  0  0  0  0  0  0  0  0  0
    8.0984   -8.1047    0.0000 C   0  0  0  0  0  0  0  0  0  0  0  0
    8.0984   -7.2797    0.0000 C   0  0  0  0  0  0  0  0  0  0  0  0
    7.3839   -6.8672    0.0000 C   0  0  1  0  0  0  0  0  0  0  0  0
    6.6694   -7.2797    0.0000 C   0  0  1  0  0  0  0  0  0  0  0  0
    5.9550   -6.8672    0.0000 O   0  0  0  0  0  0  0  0  0  0  0  0
    5.2405   -8.1047    0.0000 O   0  0  0  0  0  0  0  0  0  0  0  0
    4.5260   -6.8672    0.0000 C   0  0  0  0  0  0  0  0  0  0  0  0
    5.2405   -7.2797    0.0000 C   0  0  0  0  0  0  0  0  0  0  0  0
 10 11  1  6  0  0  0
  6  1  1  1  0  0  0
  9  3  1  1  0  0  0
  3  2  1  0  0  0  0
  4  3  1  0  0  0  0
 10  5  1  0  0  0  0
  6  5  1  0  0  0  0
  7  6  1  0  0  0  0
  8  7  1  0  0  0  0
  9  8  1  0  0  0  0
 10  9  1  0  0  0  0
 14 11  1  0  0  0  0
 14 12  2  0  0  0  0
 14 13  1  0  0  0  0
M  END
>  <cdx:fragmentId>
14807

$$$$
