432240.cdx
  Mrv1902 05222410252D          

 17 17  0  0  0  0            999 V2000
    5.4641   -6.5985    0.0000 C   0  0  0  0  0  0  0  0  0  0  0  0
    6.1749  -10.3117    0.0000 C   0  0  0  0  0  0  0  0  0  0  0  0
    6.8914   -8.2499    0.0000 C   0  0  0  0  0  0  0  0  0  0  0  0
    6.8906   -9.0749    0.0000 C   0  0  0  0  0  0  0  0  0  0  0  0
    6.1757   -9.4867    0.0000 C   0  0  0  0  0  0  0  0  0  0  0  0
    5.4616   -9.0735    0.0000 C   0  0  0  0  0  0  0  0  0  0  0  0
    5.4624   -8.2485    0.0000 C   0  0  0  0  0  0  0  0  0  0  0  0
    6.1773   -7.8367    0.0000 C   0  0  0  0  0  0  0  0  0  0  0  0
    6.1781   -7.0117    0.0000 C   0  0  0  0  0  0  0  0  0  0  0  0
    6.8930   -6.5999    0.0000 C   0  0  0  0  0  0  0  0  0  0  0  0
    7.6071   -7.0132    0.0000 C   0  0  0  0  0  0  0  0  0  0  0  0
    7.6063   -7.8382    0.0000 C   0  0  1  0  0  0  0  0  0  0  0  0
    9.0344   -8.6646    0.0000 O   0  0  0  0  0  0  0  0  0  0  0  0
    8.3203   -8.2514    0.0000 C   0  0  0  0  0  0  0  0  0  0  0  0
    8.7335   -7.5373    0.0000 C   0  0  0  0  0  0  0  0  0  0  0  0
    7.9071   -8.9654    0.0000 C   0  0  0  0  0  0  0  0  0  0  0  0
    7.6063   -8.6632    0.0000 H   0  0  0  0  0  0  0  0  0  0  0  0
 12 14  1  0  0  0  0
  9  1  1  0  0  0  0
  5  2  1  0  0  0  0
 12  3  1  0  0  0  0
  4  3  1  0  0  0  0
  5  4  1  0  0  0  0
  6  5  2  0  0  0  0
  7  6  1  0  0  0  0
  8  7  1  0  0  0  0
  9  8  1  0  0  0  0
 10  9  2  0  0  0  0
 11 10  1  0  0  0  0
 12 11  1  0  0  0  0
 14 13  1  0  0  0  0
 14 15  1  0  0  0  0
 14 16  1  0  0  0  0
 12 17  1  6  0  0  0
M  END
>  <cdx:fragmentId>
13

$$$$
