432497.cdx
  Mrv1902 05222410242D          

 15 16  0  0  0  0            999 V2000
    5.9820   -5.6263    0.0000 C   0  0  0  0  0  0  0  0  0  0  0  0
    5.2747   -6.0510    0.0000 C   0  0  0  0  0  0  0  0  0  0  0  0
    5.2889   -6.8759    0.0000 C   0  0  0  0  0  0  0  0  0  0  0  0
    6.0103   -7.2761    0.0000 C   0  0  0  0  0  0  0  0  0  0  0  0
    6.7176   -6.8514    0.0000 C   0  0  0  0  0  0  0  0  0  0  0  0
    7.4390   -7.2516    0.0000 C   0  0  0  0  0  0  0  0  0  0  0  0
    8.1463   -6.8269    0.0000 C   0  0  0  0  0  0  0  0  0  0  0  0
    8.1322   -6.0020    0.0000 C   0  0  0  0  0  0  0  0  0  0  0  0
    7.4108   -5.6018    0.0000 C   0  0  0  0  0  0  0  0  0  0  0  0
    6.7035   -6.0265    0.0000 C   0  0  1  0  0  0  0  0  0  0  0  0
    8.8819   -8.0520    0.0000 C   0  0  0  0  0  0  0  0  0  0  0  0
    8.8678   -7.2271    0.0000 C   0  0  0  0  0  0  0  0  0  0  0  0
    9.5751   -6.8024    0.0000 C   0  0  0  0  0  0  0  0  0  0  0  0
    6.0245   -8.1010    0.0000 C   0  0  0  0  0  0  0  0  0  0  0  0
    6.6893   -5.2017    0.0000 C   0  0  0  0  0  0  0  0  0  0  0  0
  1  2  1  0  0  0  0
  2  3  1  0  0  0  0
  3  4  1  0  0  0  0
  4  5  1  0  0  0  0
  5  6  1  0  0  0  0
  6  7  1  0  0  0  0
  7  8  1  0  0  0  0
  8  9  1  0  0  0  0
  9 10  1  0  0  0  0
  1 10  1  0  0  0  0
  5 10  1  0  0  0  0
 11 12  1  0  0  0  0
 12 13  1  0  0  0  0
  7 12  2  0  0  0  0
  4 14  2  0  0  0  0
 10 15  1  1  0  0  0
M  END
>  <cdx:fragmentId>
5

$$$$
