432469.cdx
  Mrv1902 05222410242D          

 11 11  0  0  0  0            999 V2000
    6.5679   -6.6881    0.0000 C   0  0  1  0  0  0  0  0  0  0  0  0
    7.2843   -6.2790    0.0000 C   0  0  2  0  0  0  0  0  0  0  0  0
    7.9968   -6.6948    0.0000 C   0  0  0  0  0  0  0  0  0  0  0  0
    7.9929   -7.5198    0.0000 C   0  0  0  0  0  0  0  0  0  0  0  0
    7.2765   -7.9289    0.0000 C   0  0  2  0  0  0  0  0  0  0  0  0
    6.5640   -7.5131    0.0000 C   0  0  0  0  0  0  0  0  0  0  0  0
    5.8553   -6.2722    0.0000 O   0  0  0  0  0  0  0  0  0  0  0  0
    8.0045   -5.0448    0.0000 C   0  0  0  0  0  0  0  0  0  0  0  0
    7.2881   -5.4540    0.0000 C   0  0  0  0  0  0  0  0  0  0  0  0
    6.5756   -5.0381    0.0000 C   0  0  0  0  0  0  0  0  0  0  0  0
    7.2726   -8.7539    0.0000 C   0  0  0  0  0  0  0  0  0  0  0  0
  1  2  1  0  0  0  0
  2  3  1  0  0  0  0
  3  4  1  0  0  0  0
  4  5  1  0  0  0  0
  5  6  1  0  0  0  0
  1  6  1  0  0  0  0
  1  7  1  1  0  0  0
  8  9  1  0  0  0  0
  9 10  1  0  0  0  0
  2  9  1  1  0  0  0
  5 11  1  1  0  0  0
M  END
>  <cdx:fragmentId>
9

$$$$
