432648.cdx
  Mrv1902 05222410212D          

 16 17  0  0  0  0            999 V2000
    6.5325   -8.8522    0.0000 H   0  0  0  0  0  0  0  0  0  0  0  0
    5.8180   -9.2647    0.0000 C   0  0  0  0  0  0  0  0  0  0  0  0
    6.5325   -6.3772    0.0000 C   0  0  0  0  0  0  0  0  0  0  0  0
    9.3904   -8.0272    0.0000 C   0  0  0  0  0  0  0  0  0  0  0  0
    8.6759   -8.4397    0.0000 C   0  0  0  0  0  0  0  0  0  0  0  0
    8.6759   -9.2647    0.0000 C   0  0  0  0  0  0  0  0  0  0  0  0
    6.5325   -7.2022    0.0000 C   0  0  2  0  0  0  0  0  0  0  0  0
    5.8180   -6.7897    0.0000 C   0  0  0  0  0  0  0  0  0  0  0  0
    5.1035   -7.2022    0.0000 C   0  0  0  0  0  0  0  0  0  0  0  0
    5.1035   -8.0272    0.0000 C   0  0  0  0  0  0  0  0  0  0  0  0
    5.8180   -8.4397    0.0000 C   0  0  0  0  0  0  0  0  0  0  0  0
    6.5325   -8.0272    0.0000 C   0  0  2  0  0  0  0  0  0  0  0  0
    7.2469   -8.4397    0.0000 C   0  0  0  0  0  0  0  0  0  0  0  0
    7.9614   -8.0272    0.0000 C   0  0  0  0  0  0  0  0  0  0  0  0
    7.9614   -7.2022    0.0000 C   0  0  0  0  0  0  0  0  0  0  0  0
    7.2469   -6.7897    0.0000 C   0  0  0  0  0  0  0  0  0  0  0  0
 12  1  1  6  0  0  0
 11  2  1  0  0  0  0
  7  3  1  1  0  0  0
 14  5  2  0  0  0  0
  5  4  1  0  0  0  0
  6  5  1  0  0  0  0
 12  7  1  0  0  0  0
 16  7  1  0  0  0  0
  8  7  1  0  0  0  0
  9  8  1  0  0  0  0
 10  9  1  0  0  0  0
 11 10  2  0  0  0  0
 12 11  1  0  0  0  0
 13 12  1  0  0  0  0
 14 13  1  0  0  0  0
 15 14  1  0  0  0  0
 16 15  1  0  0  0  0
M  END
>  <cdx:fragmentId>
15406

$$$$
