432653.cdx
  Mrv1902 05222410252D          

 12 13  0  0  0  0            999 V2000
    7.3010   -9.0324    0.0000 C   0  0  1  0  0  0  0  0  0  0  0  0
    8.0146   -8.6183    0.0000 C   0  0  0  0  0  0  0  0  0  0  0  0
    8.0128   -7.7933    0.0000 C   0  0  0  0  0  0  0  0  0  0  0  0
    7.2974   -7.3824    0.0000 C   0  0  2  0  0  0  0  0  0  0  0  0
    6.5838   -7.7964    0.0000 C   0  0  0  0  0  0  0  0  0  0  0  0
    6.5856   -8.6214    0.0000 C   0  0  1  0  0  0  0  0  0  0  0  0
    6.5874   -9.4464    0.0000 O   0  0  0  0  0  0  0  0  0  0  0  0
    6.5803   -6.1464    0.0000 C   0  0  0  0  0  0  0  0  0  0  0  0
    7.2956   -6.5574    0.0000 C   0  0  0  0  0  0  0  0  0  0  0  0
    8.0092   -6.1433    0.0000 C   0  0  0  0  0  0  0  0  0  0  0  0
    7.7150   -9.7459    0.0000 C   0  0  0  0  0  0  0  0  0  0  0  0
    5.7606   -8.6232    0.0000 H   0  0  0  0  0  0  0  0  0  0  0  0
  1  2  1  0  0  0  0
  2  3  1  0  0  0  0
  3  4  1  0  0  0  0
  4  5  1  0  0  0  0
  5  6  1  0  0  0  0
  6  7  1  0  0  0  0
  1  7  1  0  0  0  0
  1  6  1  0  0  0  0
  8  9  2  0  0  0  0
  9 10  1  0  0  0  0
  4  9  1  6  0  0  0
  1 11  1  1  0  0  0
  6 12  1  1  0  0  0
M  END
>  <cdx:fragmentId>
15461

$$$$
