432740.cdx
  Mrv1902 05222410272D          

 15 15  0  0  0  0            999 V2000
    6.5728   -7.0239    0.0000 O   0  0  0  0  0  0  0  0  0  0  0  0
    7.2878   -7.4354    0.0000 C   0  0  2  0  0  0  0  0  0  0  0  0
    7.2889   -8.2604    0.0000 C   0  0  2  0  0  0  0  0  0  0  0  0
    6.5750   -8.6739    0.0000 C   0  0  1  0  0  0  0  0  0  0  0  0
    5.8600   -8.2623    0.0000 C   0  0  2  0  0  0  0  0  0  0  0  0
    5.8589   -7.4373    0.0000 C   0  0  0  0  0  0  0  0  0  0  0  0
    8.0017   -7.0219    0.0000 C   0  0  0  0  0  0  0  0  0  0  0  0
    8.0006   -6.1969    0.0000 O   0  0  0  0  0  0  0  0  0  0  0  0
    8.7145   -5.7834    0.0000 C   0  0  0  0  0  0  0  0  0  0  0  0
    5.1461   -8.6758    0.0000 O   0  0  0  0  0  0  0  0  0  0  0  0
    6.5761   -9.4989    0.0000 O   0  0  0  0  0  0  0  0  0  0  0  0
    5.8622   -9.9123    0.0000 C   0  0  0  0  0  0  0  0  0  0  0  0
    8.0040   -8.6719    0.0000 O   0  0  0  0  0  0  0  0  0  0  0  0
    8.0051   -9.4969    0.0000 C   0  0  0  0  0  0  0  0  0  0  0  0
    4.4316   -8.2633    0.0000 C   0  0  0  0  0  0  0  0  0  0  0  0
  1  2  1  0  0  0  0
  2  3  1  0  0  0  0
  3  4  1  0  0  0  0
  4  5  1  0  0  0  0
  5  6  1  0  0  0  0
  1  6  1  0  0  0  0
  8  9  1  0  0  0  0
  7  8  1  0  0  0  0
  2  7  1  1  0  0  0
  5 10  1  1  0  0  0
 11 12  1  0  0  0  0
  4 11  1  6  0  0  0
 13 14  1  0  0  0  0
  3 13  1  1  0  0  0
 10 15  1  0  0  0  0
M  END
>  <cdx:fragmentId>
15501

$$$$
