432709.cdx
  Mrv1902 05222410232D          

 18 20  0  0  0  0            999 V2000
    8.2120   -6.7710    0.0000 C   0  0  2  0  0  0  0  0  0  0  0  0
    8.9967   -6.5161    0.0000 C   0  0  1  0  0  0  0  0  0  0  0  0
    9.4816   -7.1835    0.0000 C   0  0  0  0  0  0  0  0  0  0  0  0
    8.9967   -7.8510    0.0000 C   0  0  0  0  0  0  0  0  0  0  0  0
    8.2120   -7.5960    0.0000 C   0  0  1  0  0  0  0  0  0  0  0  0
    7.5670   -8.1104    0.0000 C   0  0  0  0  0  0  0  0  0  0  0  0
    6.7627   -7.9268    0.0000 C   0  0  2  0  0  0  0  0  0  0  0  0
    6.4047   -7.1835    0.0000 C   0  0  1  0  0  0  0  0  0  0  0  0
    6.7627   -6.4402    0.0000 C   0  0  0  0  0  0  0  0  0  0  0  0
    7.5670   -6.2566    0.0000 C   0  0  0  0  0  0  0  0  0  0  0  0
    7.1548   -6.9304    0.0000 C   0  0  0  0  0  0  0  0  0  0  0  0
    5.6903   -6.7710    0.0000 O   0  0  0  0  0  0  0  0  0  0  0  0
    5.6903   -7.5960    0.0000 C   0  0  0  0  0  0  0  0  0  0  0  0
    8.1282   -8.7152    0.0000 C   0  0  0  0  0  0  0  0  0  0  0  0
    7.3238   -8.8987    0.0000 C   0  0  0  0  0  0  0  0  0  0  0  0
    9.2516   -5.7315    0.0000 C   0  0  0  0  0  0  0  0  0  0  0  0
    6.1793   -8.5102    0.0000 H   0  0  0  0  0  0  0  0  0  0  0  0
    8.4256   -8.3929    0.0000 H   0  0  0  0  0  0  0  0  0  0  0  0
  1  2  1  0  0  0  0
  2  3  1  0  0  0  0
  3  4  1  0  0  0  0
  4  5  1  0  0  0  0
  5  6  1  0  0  0  0
  6  7  1  0  0  0  0
  7  8  1  0  0  0  0
  8  9  1  0  0  0  0
  9 10  1  0  0  0  0
  1 10  1  0  0  0  0
  1 11  1  1  0  0  0
 11  7  1  0  0  0  0
  1  5  1  0  0  0  0
  8 12  1  6  0  0  0
  8 13  1  0  0  0  0
  6 14  1  0  0  0  0
  6 15  1  0  0  0  0
  2 16  1  6  0  0  0
  7 17  1  1  0  0  0
  5 18  1  6  0  0  0
M  END
>  <cdx:fragmentId>
23965

$$$$
