432813.cdx
  Mrv1902 05222410262D          

 28 31  0  0  0  0            999 V2000
    6.9660   -9.8977    0.0000 C   0  0  0  0  0  0  0  0  0  0  0  0
    7.6805   -9.4852    0.0000 N   0  3  1  0  0  0  0  0  0  0  0  0
    7.6805   -8.6602    0.0000 C   0  0  1  0  0  0  0  0  0  0  0  0
    6.9660   -8.2477    0.0000 C   0  0  0  0  0  0  0  0  0  0  0  0
    6.2515   -8.6602    0.0000 C   0  0  0  0  0  0  0  0  0  0  0  0
    5.5371   -8.2477    0.0000 C   0  0  0  0  0  0  0  0  0  0  0  0
    4.8226   -8.6602    0.0000 C   0  0  0  0  0  0  0  0  0  0  0  0
    4.8226   -9.4852    0.0000 C   0  0  0  0  0  0  0  0  0  0  0  0
    5.5371   -9.8977    0.0000 C   0  0  0  0  0  0  0  0  0  0  0  0
    6.2515   -9.4852    0.0000 C   0  0  0  0  0  0  0  0  0  0  0  0
    8.3950   -9.8977    0.0000 C   0  0  0  0  0  0  0  0  0  0  0  0
    9.1094   -9.4852    0.0000 C   0  0  0  0  0  0  0  0  0  0  0  0
    9.1094   -8.6602    0.0000 C   0  0  0  0  0  0  0  0  0  0  0  0
    9.8239   -8.2477    0.0000 C   0  0  0  0  0  0  0  0  0  0  0  0
    9.8239   -7.4227    0.0000 C   0  0  0  0  0  0  0  0  0  0  0  0
    9.1094   -7.0102    0.0000 C   0  0  0  0  0  0  0  0  0  0  0  0
    8.3950   -7.4227    0.0000 C   0  0  0  0  0  0  0  0  0  0  0  0
    8.3950   -8.2477    0.0000 C   0  0  0  0  0  0  0  0  0  0  0  0
    7.6805   -7.0102    0.0000 O   0  0  0  0  0  0  0  0  0  0  0  0
    5.5371  -10.7227    0.0000 O   0  0  0  0  0  0  0  0  0  0  0  0
    7.6805  -10.3102    0.0000 C   0  0  0  0  0  0  0  0  0  0  0  0
    4.1081   -9.8977    0.0000 O   0  0  0  0  0  0  0  0  0  0  0  0
    3.3937   -9.4852    0.0000 C   0  0  0  0  0  0  0  0  0  0  0  0
   10.5384   -7.0102    0.0000 O   0  0  0  0  0  0  0  0  0  0  0  0
   11.2528   -7.4227    0.0000 C   0  0  0  0  0  0  0  0  0  0  0  0
    9.1094   -6.1852    0.0000 O   0  0  0  0  0  0  0  0  0  0  0  0
    9.8239   -5.7727    0.0000 C   0  0  0  0  0  0  0  0  0  0  0  0
    7.6805   -7.8352    0.0000 H   0  0  0  0  0  0  0  0  0  0  0  0
  1  2  1  0  0  0  0
  2  3  1  0  0  0  0
  3  4  1  0  0  0  0
  4  5  1  0  0  0  0
  5  6  1  0  0  0  0
  6  7  2  0  0  0  0
  7  8  1  0  0  0  0
  8  9  2  0  0  0  0
  9 10  1  0  0  0  0
  1 10  1  0  0  0  0
  5 10  2  0  0  0  0
 11 12  1  0  0  0  0
 12 13  1  0  0  0  0
 13 14  1  0  0  0  0
 14 15  2  0  0  0  0
 15 16  1  0  0  0  0
 16 17  2  0  0  0  0
 17 18  1  0  0  0  0
 13 18  2  0  0  0  0
 11  2  1  0  0  0  0
 18  3  1  0  0  0  0
 17 19  1  0  0  0  0
  9 20  1  0  0  0  0
  2 21  1  6  0  0  0
 22 23  1  0  0  0  0
  8 22  1  0  0  0  0
 24 25  1  0  0  0  0
 15 24  1  0  0  0  0
 26 27  1  0  0  0  0
 16 26  1  0  0  0  0
  3 28  1  6  0  0  0
M  CHG  1   2   1
M  END
>  <cdx:fragmentId>
113181

$$$$
