433155.cdx
  Mrv1902 05222410222D          

 27 28  0  0  0  0            999 V2000
    7.0786  -10.0619    0.0000 C   0  0  1  0  0  0  0  0  0  0  0  0
    6.3214  -10.3895    0.0000 C   0  0  0  0  0  0  0  0  0  0  0  0
    6.9838  -10.8814    0.0000 C   0  0  2  0  0  0  0  0  0  0  0  0
    7.5704   -9.3995    0.0000 C   0  0  0  0  0  0  0  0  0  0  0  0
    8.3900   -9.4943    0.0000 O   0  0  0  0  0  0  0  0  0  0  0  0
    7.2428   -8.6424    0.0000 O   0  0  0  0  0  0  0  0  0  0  0  0
    5.5643  -10.7172    0.0000 C   0  0  0  0  0  0  0  0  0  0  0  0
    5.6591   -9.8977    0.0000 C   0  0  0  0  0  0  0  0  0  0  0  0
    7.3115  -11.6385    0.0000 C   0  0  0  0  0  0  0  0  0  0  0  0
    6.8196  -12.3009    0.0000 C   0  0  0  0  0  0  0  0  0  0  0  0
    7.1473  -13.0580    0.0000 C   0  0  0  0  0  0  0  0  0  0  0  0
    7.9668  -13.1528    0.0000 O   0  0  0  0  0  0  0  0  0  0  0  0
    6.0001  -12.2061    0.0000 C   0  0  0  0  0  0  0  0  0  0  0  0
    6.6554  -13.7204    0.0000 O   0  0  0  0  0  0  0  0  0  0  0  0
    6.9831  -14.4775    0.0000 C   0  0  0  0  0  0  0  0  0  0  0  0
    7.7346   -7.9800    0.0000 C   0  0  2  0  0  0  0  0  0  0  0  0
    7.4879   -7.1928    0.0000 C   0  0  0  0  0  0  0  0  0  0  0  0
    8.1604   -6.7149    0.0000 C   0  0  0  0  0  0  0  0  0  0  0  0
    8.8227   -7.2067    0.0000 C   0  0  0  0  0  0  0  0  0  0  0  0
    8.5596   -7.9887    0.0000 C   0  0  0  0  0  0  0  0  0  0  0  0
    8.1690   -5.8899    0.0000 C   0  0  0  0  0  0  0  0  0  0  0  0
    8.8877   -5.4849    0.0000 C   0  0  0  0  0  0  0  0  0  0  0  0
    8.8963   -4.6599    0.0000 C   0  0  0  0  0  0  0  0  0  0  0  0
    8.1862   -4.2400    0.0000 C   0  0  0  0  0  0  0  0  0  0  0  0
    8.1948   -3.4151    0.0000 C   0  0  0  0  0  0  0  0  0  0  0  0
    9.6099   -6.9600    0.0000 O   0  0  0  0  0  0  0  0  0  0  0  0
    6.7060   -6.9297    0.0000 C   0  0  0  0  0  0  0  0  0  0  0  0
  1  2  1  0  0  0  0
  2  3  1  0  0  0  0
  1  3  1  0  0  0  0
  4  5  2  0  0  0  0
  4  6  1  0  0  0  0
  1  4  1  6  0  0  0
  2  7  1  0  0  0  0
  2  8  1  0  0  0  0
  9 10  2  0  0  0  0
 10 11  1  0  0  0  0
 11 12  2  0  0  0  0
 10 13  1  0  0  0  0
 14 15  1  0  0  0  0
 11 14  1  0  0  0  0
  3  9  1  1  0  0  0
 16 17  1  0  0  0  0
 17 18  2  0  0  0  0
 18 19  1  0  0  0  0
 19 20  1  0  0  0  0
 16 20  1  0  0  0  0
 21 22  1  0  0  0  0
 22 23  2  0  0  0  0
 23 24  1  0  0  0  0
 24 25  2  0  0  0  0
 18 21  1  0  0  0  0
 19 26  2  0  0  0  0
 17 27  1  0  0  0  0
 16  6  1  6  0  0  0
M  END
>  <cdx:fragmentId>
5

$$$$
