43344.cdx
  Mrv1902 05222410212D          

 88 98  0  0  0  0            999 V2000
   11.2561  -12.5299    0.0000 O   0  0  0  0  0  0  0  0  0  0  0  0
   11.6788  -11.8214    0.0000 C   0  0  1  0  0  0  0  0  0  0  0  0
   12.5037  -11.8332    0.0000 C   0  0  1  0  0  0  0  0  0  0  0  0
   12.9059  -12.5535    0.0000 C   0  0  2  0  0  0  0  0  0  0  0  0
   12.4832  -13.2620    0.0000 C   0  0  2  0  0  0  0  0  0  0  0  0
   11.6583  -13.2502    0.0000 C   0  0  1  0  0  0  0  0  0  0  0  0
   12.9264  -11.1247    0.0000 O   0  0  0  0  0  0  0  0  0  0  0  0
   13.7308  -12.5654    0.0000 O   0  0  0  0  0  0  0  0  0  0  0  0
   12.8854  -13.9823    0.0000 O   0  0  0  0  0  0  0  0  0  0  0  0
   11.2356  -13.9587    0.0000 C   0  0  0  0  0  0  0  0  0  0  0  0
   11.2766  -11.1011    0.0000 O   0  0  0  0  0  0  0  0  0  0  0  0
   12.0092   -9.0450    0.0000 O   0  0  0  0  0  0  0  0  0  0  0  0
   12.0019   -9.8699    0.0000 C   0  0  2  0  0  0  0  0  0  0  0  0
   11.2838  -10.2761    0.0000 C   0  0  1  0  0  0  0  0  0  0  0  0
   10.5730   -9.8573    0.0000 C   0  0  2  0  0  0  0  0  0  0  0  0
   10.5803   -9.0323    0.0000 C   0  0  2  0  0  0  0  0  0  0  0  0
   11.2984   -8.6262    0.0000 C   0  0  0  0  0  0  0  0  0  0  0  0
   12.7127  -10.2887    0.0000 O   0  0  0  0  0  0  0  0  0  0  0  0
   17.0140   -8.6766    0.0000 C   0  0  2  0  0  0  0  0  0  0  0  0
   16.2959   -9.0828    0.0000 C   0  0  2  0  0  0  0  0  0  0  0  0
   16.2886   -9.9078    0.0000 C   0  0  0  0  0  0  0  0  0  0  0  0
   15.5705  -10.3139    0.0000 C   0  0  0  0  0  0  0  0  0  0  0  0
   14.8597   -9.8952    0.0000 C   0  0  1  0  0  0  0  0  0  0  0  0
   14.1416  -10.3013    0.0000 C   0  0  0  0  0  0  0  0  0  0  0  0
   13.4308   -9.8825    0.0000 C   0  0  2  0  0  0  0  0  0  0  0  0
   13.4381   -9.0576    0.0000 C   0  0  0  0  0  0  0  0  0  0  0  0
   14.1562   -8.6514    0.0000 C   0  0  0  0  0  0  0  0  0  0  0  0
   14.8670   -9.0702    0.0000 C   0  0  2  0  0  0  0  0  0  0  0  0
   15.5851   -8.6640    0.0000 C   0  0  1  0  0  0  0  0  0  0  0  0
   15.5924   -7.8390    0.0000 C   0  0  0  0  0  0  0  0  0  0  0  0
   16.3104   -7.4329    0.0000 C   0  0  0  0  0  0  0  0  0  0  0  0
   17.0212   -7.8517    0.0000 C   0  0  2  0  0  0  0  0  0  0  0  0
   17.7393   -7.4455    0.0000 C   0  0  1  0  0  0  0  0  0  0  0  0
   17.7466   -6.6205    0.0000 C   0  0  1  0  0  0  0  0  0  0  0  0
   18.4647   -6.2143    0.0000 C   0  0  0  0  0  0  0  0  0  0  0  0
   19.1755   -6.6331    0.0000 C   0  0  1  0  0  0  0  0  0  0  0  0
   19.1682   -7.4581    0.0000 O   0  0  0  0  0  0  0  0  0  0  0  0
   18.4501   -7.8643    0.0000 C   0  0  2  0  0  0  0  0  0  0  0  0
   18.4428   -8.6892    0.0000 O   0  0  0  0  0  0  0  0  0  0  0  0
   17.7248   -9.0954    0.0000 C   0  0  0  0  0  0  0  0  0  0  0  0
   17.8976   -8.5624    0.0000 C   0  0  0  0  0  0  0  0  0  0  0  0
   19.8936   -6.2270    0.0000 C   0  0  0  0  0  0  0  0  0  0  0  0
   20.6044   -6.6457    0.0000 C   0  0  0  0  0  0  0  0  0  0  0  0
   20.5971   -7.4707    0.0000 C   0  0  0  0  0  0  0  0  0  0  0  0
   21.3225   -6.2396    0.0000 C   0  0  0  0  0  0  0  0  0  0  0  0
   17.5331   -5.8236    0.0000 C   0  0  0  0  0  0  0  0  0  0  0  0
   14.8743   -8.2452    0.0000 C   0  0  0  0  0  0  0  0  0  0  0  0
   14.5478  -11.0194    0.0000 C   0  0  0  0  0  0  0  0  0  0  0  0
   13.7228  -11.0121    0.0000 C   0  0  0  0  0  0  0  0  0  0  0  0
   16.3032   -8.2578    0.0000 C   0  0  0  0  0  0  0  0  0  0  0  0
   17.0321   -6.2080    0.0000 O   0  0  0  0  0  0  0  0  0  0  0  0
    9.8695   -8.6136    0.0000 O   0  0  0  0  0  0  0  0  0  0  0  0
   14.8524  -10.7201    0.0000 H   0  0  0  0  0  0  0  0  0  0  0  0
   15.5778   -9.4890    0.0000 H   0  0  0  0  0  0  0  0  0  0  0  0
   17.0285   -7.0267    0.0000 H   0  0  0  0  0  0  0  0  0  0  0  0
   17.7339   -8.0642    0.0000 H   0  0  0  0  0  0  0  0  0  0  0  0
    6.9251  -10.2904    0.0000 O   0  0  0  0  0  0  0  0  0  0  0  0
    6.9332   -8.6404    0.0000 O   0  0  0  0  0  0  0  0  0  0  0  0
    7.6537   -7.4064    0.0000 O   0  0  0  0  0  0  0  0  0  0  0  0
    8.3662   -7.8224    0.0000 C   0  0  0  0  0  0  0  0  0  0  0  0
    8.3419  -12.7724    0.0000 O   0  0  0  0  0  0  0  0  0  0  0  0
    6.9090  -13.5903    0.0000 O   0  0  0  0  0  0  0  0  0  0  0  0
    5.4841  -12.7584    0.0000 O   0  0  0  0  0  0  0  0  0  0  0  0
    6.2046  -11.5244    0.0000 C   0  0  0  0  0  0  0  0  0  0  0  0
    6.2006  -12.3494    0.0000 C   0  0  2  0  0  0  0  0  0  0  0  0
    6.9130  -12.7654    0.0000 C   0  0  1  0  0  0  0  0  0  0  0  0
    7.6295  -12.3564    0.0000 C   0  0  2  0  0  0  0  0  0  0  0  0
    7.6335  -11.5314    0.0000 C   0  0  1  0  0  0  0  0  0  0  0  0
    6.9211  -11.1154    0.0000 O   0  0  0  0  0  0  0  0  0  0  0  0
    8.3500  -11.1224    0.0000 O   0  0  0  0  0  0  0  0  0  0  0  0
    8.3621   -8.6474    0.0000 C   0  0  2  0  0  0  0  0  0  0  0  0
    7.6457   -9.0564    0.0000 C   0  0  2  0  0  0  0  0  0  0  0  0
    7.6416   -9.8814    0.0000 C   0  0  1  0  0  0  0  0  0  0  0  0
    8.3541  -10.2974    0.0000 C   0  0  2  0  0  0  0  0  0  0  0  0
    9.0705   -9.8884    0.0000 C   0  0  1  0  0  0  0  0  0  0  0  0
    9.0746   -9.0634    0.0000 O   0  0  0  0  0  0  0  0  0  0  0  0
    9.8542  -10.3460    0.0000 O   0  0  0  0  0  0  0  0  0  0  0  0
    7.6578   -6.5814    0.0000 C   0  0  2  0  0  0  0  0  0  0  0  0
    8.3712   -6.1672    0.0000 O   0  0  0  0  0  0  0  0  0  0  0  0
    8.3712   -5.3422    0.0000 C   0  0  1  0  0  0  0  0  0  0  0  0
    7.6578   -4.9314    0.0000 C   0  0  2  0  0  0  0  0  0  0  0  0
    6.9443   -5.3422    0.0000 C   0  0  1  0  0  0  0  0  0  0  0  0
    6.9443   -6.1672    0.0000 C   0  0  1  0  0  0  0  0  0  0  0  0
    9.0854   -4.9292    0.0000 C   0  0  0  0  0  0  0  0  0  0  0  0
    6.2301   -4.9292    0.0000 O   0  0  0  0  0  0  0  0  0  0  0  0
    7.6578   -4.1064    0.0000 O   0  0  0  0  0  0  0  0  0  0  0  0
    6.2294   -6.5788    0.0000 O   0  0  0  0  0  0  0  0  0  0  0  0
    9.0854   -4.1042    0.0000 O   0  0  0  0  0  0  0  0  0  0  0  0
 75 77  1  1  0  0  0
 73 57  1  1  0  0  0
 72 58  1  6  0  0  0
 71 60  1  1  0  0  0
 60 59  1  0  0  0  0
 74 70  1  6  0  0  0
 68 70  1  1  0  0  0
 67 61  1  6  0  0  0
 66 62  1  1  0  0  0
 65 63  1  6  0  0  0
 69 64  1  0  0  0  0
 65 64  1  0  0  0  0
 66 65  1  0  0  0  0
 67 66  1  0  0  0  0
 68 67  1  0  0  0  0
 69 68  1  0  0  0  0
 76 71  1  0  0  0  0
 72 71  1  0  0  0  0
 73 72  1  0  0  0  0
 74 73  1  0  0  0  0
 75 74  1  0  0  0  0
  1  2  1  0  0  0  0
  2  3  1  0  0  0  0
  3  4  1  0  0  0  0
  4  5  1  0  0  0  0
  5  6  1  0  0  0  0
  1  6  1  0  0  0  0
  3  7  1  6  0  0  0
  4  8  1  1  0  0  0
  5  9  1  1  0  0  0
  6 10  1  1  0  0  0
 12 13  1  0  0  0  0
 13 14  1  0  0  0  0
 14 15  1  0  0  0  0
 15 16  1  0  0  0  0
 16 17  1  0  0  0  0
 12 17  1  0  0  0  0
 19 20  1  0  0  0  0
 20 21  1  0  0  0  0
 21 22  1  0  0  0  0
 22 23  1  0  0  0  0
 23 24  1  0  0  0  0
 24 25  1  0  0  0  0
 25 26  1  0  0  0  0
 26 27  1  0  0  0  0
 27 28  1  0  0  0  0
 28 29  1  0  0  0  0
 29 30  1  0  0  0  0
 30 31  1  0  0  0  0
 31 32  1  0  0  0  0
 32 33  1  0  0  0  0
 33 34  1  0  0  0  0
 34 35  1  0  0  0  0
 35 36  1  0  0  0  0
 36 37  1  0  0  0  0
 38 37  1  1  0  0  0
 38 39  1  0  0  0  0
 39 40  1  0  0  0  0
 19 40  1  6  0  0  0
 19 41  1  0  0  0  0
 38 41  1  0  0  0  0
 33 38  1  0  0  0  0
 19 32  1  0  0  0  0
 20 29  1  0  0  0  0
 23 28  1  0  0  0  0
 42 43  2  0  0  0  0
 43 44  1  0  0  0  0
 43 45  1  0  0  0  0
 36 42  1  6  0  0  0
 34 46  1  0  0  0  0
 28 47  1  1  0  0  0
 24 48  1  0  0  0  0
 24 49  1  0  0  0  0
 20 50  1  1  0  0  0
 34 51  1  1  0  0  0
 25 18  1  1  0  0  0
 13 18  1  1  0  0  0
 16 52  1  1  0  0  0
 76 75  1  0  0  0  0
 14 11  1  6  0  0  0
  2 11  1  6  0  0  0
 23 53  1  6  0  0  0
 29 54  1  6  0  0  0
 32 55  1  1  0  0  0
 33 56  1  6  0  0  0
 15 77  1  1  0  0  0
 78 59  1  1  0  0  0
 78 79  1  0  0  0  0
 79 80  1  0  0  0  0
 80 81  1  0  0  0  0
 81 82  1  0  0  0  0
 82 83  1  0  0  0  0
 83 78  1  0  0  0  0
 80 84  1  1  0  0  0
 82 85  1  1  0  0  0
 81 86  1  6  0  0  0
 83 87  1  6  0  0  0
 84 88  1  0  0  0  0
M  END
>  <cdx:fragmentId>
366

$$$$
