4336.cdx
  Mrv1902 05222410282D          

 10  9  0  0  0  0            999 V2000
    4.7190   -7.1362    0.0000 O   0  0  0  0  0  0  0  0  0  0  0  0
    5.4335   -6.7237    0.0000 C   0  0  0  0  0  0  0  0  0  0  0  0
    6.1479   -7.1362    0.0000 C   0  0  0  0  0  0  0  0  0  0  0  0
    6.8624   -6.7237    0.0000 C   0  0  0  0  0  0  0  0  0  0  0  0
    7.5769   -7.1362    0.0000 C   0  0  0  0  0  0  0  0  0  0  0  0
    8.2914   -6.7237    0.0000 C   0  0  0  0  0  0  0  0  0  0  0  0
    9.0058   -7.1362    0.0000 O   0  0  0  0  0  0  0  0  0  0  0  0
    6.1479   -7.9612    0.0000 O   0  0  0  0  0  0  0  0  0  0  0  0
    6.8624   -5.8988    0.0000 O   0  0  0  0  0  0  0  0  0  0  0  0
    8.2914   -5.8988    0.0000 O   0  0  0  0  0  0  0  0  0  0  0  0
  1  2  1  0  0  0  0
  2  3  1  0  0  0  0
  3  4  1  0  0  0  0
  4  5  1  0  0  0  0
  5  6  1  0  0  0  0
  6  7  1  0  0  0  0
  3  8  1  0  0  0  0
  4  9  1  0  0  0  0
  6 10  2  0  0  0  0
M  END
>  <cdx:fragmentId>
3

$$$$
