433893.cdx
  Mrv1902 05222410262D          

 24 23  0  0  0  0            999 V2000
    2.7069   -9.6849    0.0000 O   0  0  0  0  0  0  0  0  0  0  0  0
    3.4214   -8.4474    0.0000 O   0  0  0  0  0  0  0  0  0  0  0  0
   18.4253   -9.6849    0.0000 C   0  0  0  0  0  0  0  0  0  0  0  0
   17.7108   -9.2724    0.0000 C   0  0  0  0  0  0  0  0  0  0  0  0
   16.9963   -9.6849    0.0000 C   0  0  0  0  0  0  0  0  0  0  0  0
   16.2819   -9.2724    0.0000 C   0  0  0  0  0  0  0  0  0  0  0  0
   15.5674   -9.6849    0.0000 C   0  0  0  0  0  0  0  0  0  0  0  0
   14.8529   -9.2724    0.0000 C   0  0  0  0  0  0  0  0  0  0  0  0
   14.1385   -9.6849    0.0000 C   0  0  0  0  0  0  0  0  0  0  0  0
   13.4240   -9.2724    0.0000 C   0  0  0  0  0  0  0  0  0  0  0  0
   12.7095   -9.6849    0.0000 C   0  0  0  0  0  0  0  0  0  0  0  0
   11.9950   -9.2724    0.0000 C   0  0  0  0  0  0  0  0  0  0  0  0
   11.2806   -9.6849    0.0000 C   0  0  0  0  0  0  0  0  0  0  0  0
   10.5661   -9.2724    0.0000 C   0  0  0  0  0  0  0  0  0  0  0  0
    9.8516   -9.6849    0.0000 C   0  0  0  0  0  0  0  0  0  0  0  0
    9.1372   -9.2724    0.0000 C   0  0  0  0  0  0  0  0  0  0  0  0
    8.4227   -9.6849    0.0000 C   0  0  0  0  0  0  0  0  0  0  0  0
    7.7082   -9.2724    0.0000 C   0  0  0  0  0  0  0  0  0  0  0  0
    6.9937   -9.6849    0.0000 C   0  0  0  0  0  0  0  0  0  0  0  0
    6.2793   -9.2724    0.0000 C   0  0  0  0  0  0  0  0  0  0  0  0
    5.5648   -9.6849    0.0000 C   0  0  0  0  0  0  0  0  0  0  0  0
    4.8503   -9.2724    0.0000 C   0  0  0  0  0  0  0  0  0  0  0  0
    4.1359   -9.6849    0.0000 C   0  0  0  0  0  0  0  0  0  0  0  0
    3.4214   -9.2724    0.0000 C   0  0  0  0  0  0  0  0  0  0  0  0
 24  1  1  0  0  0  0
 24  2  2  0  0  0  0
  4  3  1  0  0  0  0
  5  4  1  0  0  0  0
  6  5  1  0  0  0  0
  7  6  1  0  0  0  0
  8  7  1  0  0  0  0
  9  8  1  0  0  0  0
 10  9  1  0  0  0  0
 11 10  1  0  0  0  0
 12 11  1  0  0  0  0
 13 12  1  0  0  0  0
 14 13  1  0  0  0  0
 15 14  1  0  0  0  0
 16 15  1  0  0  0  0
 17 16  1  0  0  0  0
 18 17  1  0  0  0  0
 19 18  1  0  0  0  0
 20 19  1  0  0  0  0
 21 20  1  0  0  0  0
 22 21  1  0  0  0  0
 23 22  2  0  0  0  0
 24 23  1  0  0  0  0
M  END
>  <cdx:fragmentId>
15551

$$$$
