43390.cdx
  Mrv1902 05222410202D          

 28 31  0  0  0  0            999 V2000
    5.7608   -9.6136    0.0000 O   0  0  0  0  0  0  0  0  0  0  0  0
    5.6925   -7.0125    0.0000 C   0  0  2  0  0  0  0  0  0  0  0  0
    3.8477   -8.4166    0.0000 C   0  0  0  0  0  0  0  0  0  0  0  0
    5.1514   -7.7370    0.0000 C   0  0  0  0  0  0  0  0  0  0  0  0
    4.6726   -8.4089    0.0000 C   0  0  0  0  0  0  0  0  0  0  0  0
    5.1637   -9.0718    0.0000 C   0  0  1  0  0  0  0  0  0  0  0  0
    5.9460   -8.8096    0.0000 C   0  0  1  0  0  0  0  0  0  0  0  0
    5.9383   -7.9847    0.0000 C   0  0  2  0  0  0  0  0  0  0  0  0
    4.9161   -9.8588    0.0000 O   0  0  0  0  0  0  0  0  0  0  0  0
    6.5957   -9.3180    0.0000 C   0  0  1  0  0  0  0  0  0  0  0  0
    7.3983   -9.1270    0.0000 C   0  0  0  0  0  0  0  0  0  0  0  0
    7.7493   -8.3804    0.0000 C   0  0  0  0  0  0  0  0  0  0  0  0
    7.3983   -7.6404    0.0000 C   0  0  2  0  0  0  0  0  0  0  0  0
    6.5957   -7.4643    0.0000 C   0  0  0  0  0  0  0  0  0  0  0  0
    6.4102   -6.6604    0.0000 O   0  0  0  0  0  0  0  0  0  0  0  0
    7.9118   -6.9948    0.0000 C   0  0  1  0  0  0  0  0  0  0  0  0
    7.9186   -9.7672    0.0000 C   0  0  0  0  0  0  0  0  0  0  0  0
    8.7332   -9.6367    0.0000 O   0  0  0  0  0  0  0  0  0  0  0  0
    6.4196  -10.1240    0.0000 O   0  0  0  0  0  0  0  0  0  0  0  0
    8.2009   -7.8166    0.0000 H   0  0  0  0  0  0  0  0  0  0  0  0
    4.9780   -6.6000    0.0000 C   0  0  0  0  0  0  0  0  0  0  0  0
    6.1600   -6.2975    0.0000 C   0  0  0  0  0  0  0  0  0  0  0  0
    7.3975   -6.2150    0.0000 C   0  0  1  0  0  0  0  0  0  0  0  0
    8.3243   -6.2803    0.0000 C   0  0  0  0  0  0  0  0  0  0  0  0
    8.7368   -5.5658    0.0000 C   0  0  0  0  0  0  0  0  0  0  0  0
    9.1493   -6.2803    0.0000 C   0  0  0  0  0  0  0  0  0  0  0  0
    7.1840   -5.4181    0.0000 H   0  0  0  0  0  0  0  0  0  0  0  0
    8.4952   -7.5781    0.0000 H   0  0  0  0  0  0  0  0  0  0  0  0
  7  1  1  1  0  0  0
  6  9  1  1  0  0  0
  8  2  1  1  0  0  0
  5  3  1  0  0  0  0
  8  7  1  0  0  0  0
  8  4  1  0  0  0  0
  5  4  2  0  0  0  0
  6  5  1  0  0  0  0
  7  6  1  0  0  0  0
  7 10  1  0  0  0  0
 10 11  1  0  0  0  0
 11 12  2  0  0  0  0
 12 13  1  0  0  0  0
 13 14  1  0  0  0  0
 14  8  1  0  0  0  0
 14 15  2  0  0  0  0
 13 16  1  0  0  0  0
 11 17  1  0  0  0  0
 17 18  1  0  0  0  0
 10 19  1  1  0  0  0
 13 20  1  1  0  0  0
  2 21  1  6  0  0  0
  2 22  1  0  0  0  0
 22 23  1  0  0  0  0
 16 23  1  0  0  0  0
 16 24  1  0  0  0  0
 24 23  1  0  0  0  0
 24 25  1  0  0  0  0
 24 26  1  0  0  0  0
 23 27  1  6  0  0  0
 16 28  1  6  0  0  0
M  END
>  <cdx:fragmentId>
3224

$$$$
