5434471.cdx
  Mrv1902 05222410202D          

 28 30  0  0  0  0            999 V2000
    6.4761   -5.4470    0.0000 C   0  0  0  0  0  0  0  0  0  0  0  0
    6.4761   -4.6220    0.0000 C   0  0  0  0  0  0  0  0  0  0  0  0
    5.7616   -4.2095    0.0000 C   0  0  0  0  0  0  0  0  0  0  0  0
    5.0471   -4.6220    0.0000 C   0  0  0  0  0  0  0  0  0  0  0  0
    5.7616   -5.8595    0.0000 O   0  0  0  0  0  0  0  0  0  0  0  0
    7.1906   -5.8595    0.0000 O   0  0  0  0  0  0  0  0  0  0  0  0
    7.1906   -4.2095    0.0000 C   0  0  0  0  0  0  0  0  0  0  0  0
    6.4761   -7.9220    0.0000 C   0  0  0  0  0  0  0  0  0  0  0  0
    6.4761   -7.0970    0.0000 C   0  0  2  0  0  0  0  0  0  0  0  0
    7.1906   -6.6845    0.0000 C   0  0  1  0  0  0  0  0  0  0  0  0
    7.9050   -7.0970    0.0000 C   0  0  0  0  0  0  0  0  0  0  0  0
    8.6195   -6.6845    0.0000 C   0  0  0  0  0  0  0  0  0  0  0  0
    9.3340   -7.0970    0.0000 C   0  0  0  0  0  0  0  0  0  0  0  0
    9.3340   -7.9220    0.0000 C   0  0  0  0  0  0  0  0  0  0  0  0
    8.6195   -8.3345    0.0000 C   0  0  0  0  0  0  0  0  0  0  0  0
    7.9050   -7.9220    0.0000 C   0  0  0  0  0  0  0  0  0  0  0  0
    7.1906   -8.3345    0.0000 O   0  0  0  0  0  0  0  0  0  0  0  0
   10.0484   -6.6845    0.0000 C   0  0  0  0  0  0  0  0  0  0  0  0
   10.0484   -5.8595    0.0000 C   0  0  0  0  0  0  0  0  0  0  0  0
    9.3340   -5.4470    0.0000 C   0  0  0  0  0  0  0  0  0  0  0  0
    8.6195   -5.8595    0.0000 O   0  0  0  0  0  0  0  0  0  0  0  0
    9.3340   -4.6220    0.0000 O   0  0  0  0  0  0  0  0  0  0  0  0
    6.0636   -8.6365    0.0000 C   0  0  0  0  0  0  0  0  0  0  0  0
    5.6511   -7.9220    0.0000 C   0  0  0  0  0  0  0  0  0  0  0  0
    5.7616   -6.6845    0.0000 O   0  0  0  0  0  0  0  0  0  0  0  0
    5.0471   -7.0970    0.0000 C   0  0  0  0  0  0  0  0  0  0  0  0
    5.0471   -7.9220    0.0000 O   0  0  0  0  0  0  0  0  0  0  0  0
    4.3327   -6.6845    0.0000 C   0  0  0  0  0  0  0  0  0  0  0  0
  1  2  1  0  0  0  0
  2  3  2  0  0  0  0
  3  4  1  0  0  0  0
  1  5  2  0  0  0  0
  1  6  1  0  0  0  0
  2  7  1  0  0  0  0
  8  9  1  0  0  0  0
  9 10  1  0  0  0  0
 10 11  1  0  0  0  0
 11 12  1  0  0  0  0
 12 13  2  0  0  0  0
 13 14  1  0  0  0  0
 14 15  2  0  0  0  0
 15 16  1  0  0  0  0
 11 16  2  0  0  0  0
 16 17  1  0  0  0  0
  8 17  1  0  0  0  0
 18 19  2  0  0  0  0
 19 20  1  0  0  0  0
 20 21  1  0  0  0  0
 21 12  1  0  0  0  0
 18 13  1  0  0  0  0
 20 22  2  0  0  0  0
  8 23  1  0  0  0  0
  8 24  1  0  0  0  0
 26 27  2  0  0  0  0
 26 28  1  0  0  0  0
 25 26  1  0  0  0  0
  9 25  1  1  0  0  0
 10  6  1  6  0  0  0
M  END
>  <cdx:groupId>
237

>  <cdx:fragmentId>
168

$$$$
