92043459.cdx
  Mrv1902 05222410272D          

 51 56  0  0  0  0            999 V2000
    7.4250   -8.7032    0.0000 C   0  0  0  0  0  0  0  0  0  0  0  0
    7.4250   -7.8782    0.0000 C   0  0  0  0  0  0  0  0  0  0  0  0
    6.7105   -7.4657    0.0000 C   0  0  0  0  0  0  0  0  0  0  0  0
    5.9961   -7.8782    0.0000 C   0  0  0  0  0  0  0  0  0  0  0  0
    5.2816   -7.4657    0.0000 C   0  0  0  0  0  0  0  0  0  0  0  0
    4.5671   -7.8782    0.0000 C   0  0  0  0  0  0  0  0  0  0  0  0
    4.5671   -8.7032    0.0000 C   0  0  0  0  0  0  0  0  0  0  0  0
    5.2816   -9.1157    0.0000 C   0  0  0  0  0  0  0  0  0  0  0  0
    5.9961   -8.7032    0.0000 C   0  0  0  0  0  0  0  0  0  0  0  0
    6.7105   -9.1157    0.0000 O   0  0  0  0  0  0  0  0  0  0  0  0
    6.7105   -6.6407    0.0000 O   0  0  0  0  0  0  0  0  0  0  0  0
    8.1395   -9.1157    0.0000 C   0  0  0  0  0  0  0  0  0  0  0  0
    8.8539   -8.7032    0.0000 C   0  0  0  0  0  0  0  0  0  0  0  0
    9.5684   -9.1157    0.0000 C   0  0  0  0  0  0  0  0  0  0  0  0
    9.5684   -9.9407    0.0000 C   0  0  0  0  0  0  0  0  0  0  0  0
    8.8539  -10.3532    0.0000 C   0  0  0  0  0  0  0  0  0  0  0  0
    8.1395   -9.9407    0.0000 C   0  0  0  0  0  0  0  0  0  0  0  0
   10.2829  -10.3532    0.0000 O   0  0  0  0  0  0  0  0  0  0  0  0
   11.7118  -10.3532    0.0000 O   0  0  0  0  0  0  0  0  0  0  0  0
   10.9974   -9.9407    0.0000 C   0  0  2  0  0  0  0  0  0  0  0  0
   10.9974   -9.1157    0.0000 C   0  0  1  0  0  0  0  0  0  0  0  0
   11.7118   -8.7032    0.0000 C   0  0  2  0  0  0  0  0  0  0  0  0
   12.4263   -9.1157    0.0000 C   0  0  1  0  0  0  0  0  0  0  0  0
   12.4263   -9.9407    0.0000 C   0  0  1  0  0  0  0  0  0  0  0  0
   13.1408  -10.3532    0.0000 C   0  0  0  0  0  0  0  0  0  0  0  0
   13.8552   -9.9407    0.0000 O   0  0  0  0  0  0  0  0  0  0  0  0
   13.1408   -8.7032    0.0000 O   0  0  0  0  0  0  0  0  0  0  0  0
   11.7118   -7.8782    0.0000 O   0  0  0  0  0  0  0  0  0  0  0  0
   10.2829   -8.7032    0.0000 O   0  0  0  0  0  0  0  0  0  0  0  0
    3.8526   -9.1157    0.0000 O   0  0  0  0  0  0  0  0  0  0  0  0
    5.2816   -6.6407    0.0000 O   0  0  0  0  0  0  0  0  0  0  0  0
    3.1382   -7.8782    0.0000 O   0  0  0  0  0  0  0  0  0  0  0  0
    3.8526   -7.4657    0.0000 C   0  0  1  0  0  0  0  0  0  0  0  0
    3.8526   -6.6407    0.0000 C   0  0  1  0  0  0  0  0  0  0  0  0
    3.1382   -6.2282    0.0000 C   0  0  2  0  0  0  0  0  0  0  0  0
    2.4237   -6.6407    0.0000 C   0  0  1  0  0  0  0  0  0  0  0  0
    2.4237   -7.4657    0.0000 C   0  0  1  0  0  0  0  0  0  0  0  0
    4.5671   -6.2282    0.0000 O   0  0  0  0  0  0  0  0  0  0  0  0
    3.8526   -4.9907    0.0000 O   0  0  0  0  0  0  0  0  0  0  0  0
    4.5671   -5.4032    0.0000 C   0  0  2  0  0  0  0  0  0  0  0  0
    5.2816   -4.9907    0.0000 C   0  0  1  0  0  0  0  0  0  0  0  0
    5.2816   -4.1657    0.0000 C   0  0  2  0  0  0  0  0  0  0  0  0
    4.5671   -3.7532    0.0000 C   0  0  2  0  0  0  0  0  0  0  0  0
    3.8526   -4.1657    0.0000 C   0  0  0  0  0  0  0  0  0  0  0  0
    4.5671   -2.9282    0.0000 O   0  0  0  0  0  0  0  0  0  0  0  0
    5.9961   -3.7532    0.0000 O   0  0  0  0  0  0  0  0  0  0  0  0
    5.9961   -5.4032    0.0000 O   0  0  0  0  0  0  0  0  0  0  0  0
    1.7092   -7.8782    0.0000 C   0  0  0  0  0  0  0  0  0  0  0  0
    0.9948   -7.4657    0.0000 O   0  0  0  0  0  0  0  0  0  0  0  0
    1.7092   -6.2282    0.0000 O   0  0  0  0  0  0  0  0  0  0  0  0
    3.1382   -5.4032    0.0000 O   0  0  0  0  0  0  0  0  0  0  0  0
  1  2  2  0  0  0  0
  2  3  1  0  0  0  0
  3  4  1  0  0  0  0
  4  5  1  0  0  0  0
  5  6  2  0  0  0  0
  6  7  1  0  0  0  0
  7  8  2  0  0  0  0
  8  9  1  0  0  0  0
  4  9  2  0  0  0  0
  9 10  1  0  0  0  0
  1 10  1  0  0  0  0
  3 11  2  0  0  0  0
 12 13  1  0  0  0  0
 13 14  2  0  0  0  0
 14 15  1  0  0  0  0
 15 16  2  0  0  0  0
 16 17  1  0  0  0  0
 12 17  2  0  0  0  0
 19 20  1  0  0  0  0
 20 21  1  0  0  0  0
 21 22  1  0  0  0  0
 22 23  1  0  0  0  0
 23 24  1  0  0  0  0
 19 24  1  0  0  0  0
 25 26  1  0  0  0  0
 24 25  1  1  0  0  0
 23 27  1  6  0  0  0
 22 28  1  1  0  0  0
 21 29  1  6  0  0  0
 20 18  1  1  0  0  0
 15 18  1  0  0  0  0
  1 12  1  0  0  0  0
  7 30  1  0  0  0  0
  5 31  1  0  0  0  0
 32 33  1  0  0  0  0
 33 34  1  0  0  0  0
 34 35  1  0  0  0  0
 35 36  1  0  0  0  0
 36 37  1  0  0  0  0
 32 37  1  0  0  0  0
 39 40  1  0  0  0  0
 40 41  1  0  0  0  0
 41 42  1  0  0  0  0
 42 43  1  0  0  0  0
 43 44  1  0  0  0  0
 39 44  1  0  0  0  0
 43 45  1  6  0  0  0
 42 46  1  6  0  0  0
 41 47  1  1  0  0  0
 40 38  1  6  0  0  0
 34 38  1  1  0  0  0
 48 49  1  0  0  0  0
 37 48  1  6  0  0  0
 36 50  1  1  0  0  0
 35 51  1  6  0  0  0
 33  6  1  1  0  0  0
M  END
>  <cdx:groupId>
160

>  <cdx:fragmentId>
41

$$$$
