43489.cdx
  Mrv1902 05222410262D          

 14 16  0  0  0  0            999 V2000
    5.0696   -2.8776    0.0000 O   0  0  0  0  0  0  0  0  0  0  0  0
    5.7371   -3.3625    0.0000 C   0  0  0  0  0  0  0  0  0  0  0  0
    5.4821   -4.1472    0.0000 C   0  0  0  0  0  0  0  0  0  0  0  0
    4.6571   -4.1472    0.0000 C   0  0  0  0  0  0  0  0  0  0  0  0
    4.4022   -3.3625    0.0000 C   0  0  0  0  0  0  0  0  0  0  0  0
    6.0342   -4.7603    0.0000 C   0  0  0  0  0  0  0  0  0  0  0  0
    6.8411   -4.5887    0.0000 C   0  0  0  0  0  0  0  0  0  0  0  0
    7.0961   -3.8041    0.0000 C   0  0  0  0  0  0  0  0  0  0  0  0
    6.5440   -3.1910    0.0000 C   0  0  0  0  0  0  0  0  0  0  0  0
    3.5952   -3.1910    0.0000 C   0  0  0  0  0  0  0  0  0  0  0  0
    3.0432   -3.8041    0.0000 C   0  0  0  0  0  0  0  0  0  0  0  0
    3.2981   -4.5887    0.0000 C   0  0  0  0  0  0  0  0  0  0  0  0
    4.1051   -4.7603    0.0000 C   0  0  0  0  0  0  0  0  0  0  0  0
    6.7990   -2.4064    0.0000 C   0  0  0  0  0  0  0  0  0  0  0  0
  1  2  1  0  0  0  0
  2  3  1  0  0  0  0
  3  4  1  0  0  0  0
  4  5  1  0  0  0  0
  1  5  1  0  0  0  0
  6  7  1  0  0  0  0
  7  8  2  0  0  0  0
  8  9  1  0  0  0  0
  9  2  2  0  0  0  0
  6  3  2  0  0  0  0
 10 11  1  0  0  0  0
 11 12  2  0  0  0  0
 12 13  1  0  0  0  0
 13  4  2  0  0  0  0
 10  5  2  0  0  0  0
  9 14  1  0  0  0  0
M  END
>  <cdx:groupId>
46

>  <cdx:fragmentId>
5

$$$$
