4350.cdx
  Mrv1902 05222410232D          

 20 22  0  0  0  0            999 V2000
    5.8332   -7.5519    0.0000 C   0  0  0  0  0  0  0  0  0  0  0  0
    6.5482   -7.9634    0.0000 C   0  0  0  0  0  0  0  0  0  0  0  0
    7.2621   -7.5500    0.0000 C   0  0  0  0  0  0  0  0  0  0  0  0
    7.2610   -6.7250    0.0000 C   0  0  0  0  0  0  0  0  0  0  0  0
    6.5460   -6.3134    0.0000 C   0  0  0  0  0  0  0  0  0  0  0  0
    5.8321   -6.7269    0.0000 C   0  0  0  0  0  0  0  0  0  0  0  0
    7.9771   -7.9616    0.0000 C   0  0  0  0  0  0  0  0  0  0  0  0
    8.6910   -7.5481    0.0000 O   0  0  0  0  0  0  0  0  0  0  0  0
    8.6899   -6.7231    0.0000 C   0  0  0  0  0  0  0  0  0  0  0  0
    7.9749   -6.3116    0.0000 C   0  0  0  0  0  0  0  0  0  0  0  0
    9.4039   -6.3097    0.0000 C   0  0  0  0  0  0  0  0  0  0  0  0
    9.4028   -5.4847    0.0000 C   0  0  0  0  0  0  0  0  0  0  0  0
    8.6878   -5.0731    0.0000 C   0  0  0  0  0  0  0  0  0  0  0  0
    7.9738   -5.4866    0.0000 C   0  0  0  0  0  0  0  0  0  0  0  0
    5.1192   -7.9653    0.0000 O   0  0  0  0  0  0  0  0  0  0  0  0
    5.1170   -6.3153    0.0000 O   0  0  0  0  0  0  0  0  0  0  0  0
    6.5449   -5.4884    0.0000 O   0  0  0  0  0  0  0  0  0  0  0  0
    7.9782   -8.7866    0.0000 O   0  0  0  0  0  0  0  0  0  0  0  0
   10.1189   -6.7212    0.0000 O   0  0  0  0  0  0  0  0  0  0  0  0
   10.1167   -5.0712    0.0000 O   0  0  0  0  0  0  0  0  0  0  0  0
  1  2  1  0  0  0  0
  2  3  2  0  0  0  0
  3  4  1  0  0  0  0
  4  5  2  0  0  0  0
  5  6  1  0  0  0  0
  6  1  2  0  0  0  0
  3  7  1  0  0  0  0
  7  8  1  0  0  0  0
  8  9  1  0  0  0  0
  9 10  2  0  0  0  0
 10  4  1  0  0  0  0
  9 11  1  0  0  0  0
 11 12  2  0  0  0  0
 12 13  1  0  0  0  0
 13 14  2  0  0  0  0
 14 10  1  0  0  0  0
  1 15  1  0  0  0  0
  6 16  1  0  0  0  0
  5 17  1  0  0  0  0
  7 18  2  0  0  0  0
 11 19  1  0  0  0  0
 12 20  1  0  0  0  0
M  END
>  <cdx:fragmentId>
5

$$$$
