43525.cdx
  Mrv1902 05222410202D          

 32 34  0  0  0  0            999 V2000
   11.1199   -5.2434    0.0000 C   0  0  0  0  0  0  0  0  0  0  0  0
   11.8342   -4.8305    0.0000 C   0  0  0  0  0  0  0  0  0  0  0  0
   11.1204   -6.0684    0.0000 C   0  0  0  0  0  0  0  0  0  0  0  0
   10.4062   -6.4813    0.0000 C   0  0  0  0  0  0  0  0  0  0  0  0
   10.4067   -7.3063    0.0000 C   0  0  0  0  0  0  0  0  0  0  0  0
   11.1215   -7.7184    0.0000 C   0  0  0  0  0  0  0  0  0  0  0  0
   11.8357   -7.3055    0.0000 C   0  0  0  0  0  0  0  0  0  0  0  0
   11.8352   -6.4805    0.0000 C   0  0  0  0  0  0  0  0  0  0  0  0
    9.6915   -6.0693    0.0000 O   0  0  0  0  0  0  0  0  0  0  0  0
    8.2626   -6.0701    0.0000 O   0  0  0  0  0  0  0  0  0  0  0  0
    8.9773   -6.4822    0.0000 C   0  0  2  0  0  0  0  0  0  0  0  0
    8.9778   -7.3072    0.0000 C   0  0  1  0  0  0  0  0  0  0  0  0
    8.2636   -7.7201    0.0000 C   0  0  2  0  0  0  0  0  0  0  0  0
    7.5488   -7.3081    0.0000 C   0  0  1  0  0  0  0  0  0  0  0  0
    7.5483   -6.4831    0.0000 C   0  0  1  0  0  0  0  0  0  0  0  0
    6.8336   -6.0710    0.0000 C   0  0  0  0  0  0  0  0  0  0  0  0
    6.1194   -6.4839    0.0000 O   0  0  0  0  0  0  0  0  0  0  0  0
    5.4042   -5.2469    0.0000 O   0  0  0  0  0  0  0  0  0  0  0  0
    5.4047   -6.0719    0.0000 C   0  0  2  0  0  0  0  0  0  0  0  0
    4.6905   -6.4848    0.0000 C   0  0  1  0  0  0  0  0  0  0  0  0
    3.9757   -6.0728    0.0000 C   0  0  2  0  0  0  0  0  0  0  0  0
    3.9752   -5.2478    0.0000 C   0  0  2  0  0  0  0  0  0  0  0  0
    4.6894   -4.8348    0.0000 C   0  0  0  0  0  0  0  0  0  0  0  0
    3.2605   -4.8357    0.0000 O   0  0  0  0  0  0  0  0  0  0  0  0
    3.2615   -6.4857    0.0000 O   0  0  0  0  0  0  0  0  0  0  0  0
    4.6910   -7.3098    0.0000 O   0  0  0  0  0  0  0  0  0  0  0  0
    6.8346   -7.7210    0.0000 O   0  0  0  0  0  0  0  0  0  0  0  0
    8.2641   -8.5451    0.0000 O   0  0  0  0  0  0  0  0  0  0  0  0
    9.6925   -7.7193    0.0000 O   0  0  0  0  0  0  0  0  0  0  0  0
   11.1220   -8.5434    0.0000 O   0  0  0  0  0  0  0  0  0  0  0  0
   11.8367   -8.9555    0.0000 C   0  0  0  0  0  0  0  0  0  0  0  0
   10.4052   -4.8313    0.0000 O   0  0  0  0  0  0  0  0  0  0  0  0
  1  2  1  0  0  0  0
  3  4  1  0  0  0  0
  4  5  2  0  0  0  0
  5  6  1  0  0  0  0
  6  7  2  0  0  0  0
  7  8  1  0  0  0  0
  3  8  2  0  0  0  0
 10 11  1  0  0  0  0
 11 12  1  0  0  0  0
 12 13  1  0  0  0  0
 13 14  1  0  0  0  0
 14 15  1  0  0  0  0
 10 15  1  0  0  0  0
 18 19  1  0  0  0  0
 19 20  1  0  0  0  0
 20 21  1  0  0  0  0
 21 22  1  0  0  0  0
 22 23  1  0  0  0  0
 18 23  1  0  0  0  0
 22 24  1  1  0  0  0
 21 25  1  1  0  0  0
 20 26  1  6  0  0  0
 19 17  1  1  0  0  0
 16 17  1  0  0  0  0
 15 16  1  1  0  0  0
 14 27  1  6  0  0  0
 13 28  1  1  0  0  0
 12 29  1  6  0  0  0
 11  9  1  1  0  0  0
  4  9  1  0  0  0  0
 30 31  1  0  0  0  0
  6 30  1  0  0  0  0
  1  3  1  0  0  0  0
  1 32  2  0  0  0  0
M  END
>  <cdx:fragmentId>
39

$$$$
