6435768.cdx
  Mrv1902 05222410192D          

 22 21  0  0  0  0            999 V2000
    1.6802   -7.7660    0.0000 C   0  0  0  0  0  0  0  0  0  0  0  0
    0.9657   -8.1785    0.0000 C   0  0  0  0  0  0  0  0  0  0  0  0
    1.6802   -6.9410    0.0000 O   0  0  0  0  0  0  0  0  0  0  0  0
    2.3947   -8.1785    0.0000 O   0  0  0  0  0  0  0  0  0  0  0  0
    2.3947   -5.7035    0.0000 C   0  0  0  0  0  0  0  0  0  0  0  0
    2.3947   -6.5285    0.0000 C   0  0  0  0  0  0  0  0  0  0  0  0
    3.1092   -6.9410    0.0000 C   0  0  0  0  0  0  0  0  0  0  0  0
    3.1092   -7.7660    0.0000 C   0  0  0  0  0  0  0  0  0  0  0  0
    3.8236   -8.1785    0.0000 C   0  0  0  0  0  0  0  0  0  0  0  0
    4.5381   -7.7660    0.0000 C   0  0  0  0  0  0  0  0  0  0  0  0
    5.2526   -8.1785    0.0000 C   0  0  0  0  0  0  0  0  0  0  0  0
    5.9670   -7.7660    0.0000 C   0  0  0  0  0  0  0  0  0  0  0  0
    6.6815   -8.1785    0.0000 C   0  0  0  0  0  0  0  0  0  0  0  0
    7.3960   -7.7660    0.0000 C   0  0  0  0  0  0  0  0  0  0  0  0
    8.1105   -8.1785    0.0000 C   0  0  0  0  0  0  0  0  0  0  0  0
    8.8249   -8.5910    0.0000 C   0  0  0  0  0  0  0  0  0  0  0  0
    9.5394   -9.0035    0.0000 C   0  0  0  0  0  0  0  0  0  0  0  0
   10.2539   -9.4160    0.0000 C   0  0  0  0  0  0  0  0  0  0  0  0
   10.9683   -9.8285    0.0000 C   0  0  0  0  0  0  0  0  0  0  0  0
   11.7933   -9.8285    0.0000 C   0  0  0  0  0  0  0  0  0  0  0  0
   12.5078   -9.4160    0.0000 C   0  0  0  0  0  0  0  0  0  0  0  0
   13.2223   -9.8285    0.0000 O   0  0  0  0  0  0  0  0  0  0  0  0
  1  2  1  0  0  0  0
  1  3  2  0  0  0  0
  1  4  1  0  0  0  0
  5  6  1  0  0  0  0
  6  7  1  0  0  0  0
  7  8  1  0  0  0  0
  8  9  1  0  0  0  0
  9 10  1  0  0  0  0
 10 11  1  0  0  0  0
 11 12  2  0  0  0  0
 12 13  1  0  0  0  0
 13 14  2  0  0  0  0
 14 15  1  0  0  0  0
 15 16  3  0  0  0  0
 16 17  1  0  0  0  0
 17 18  3  0  0  0  0
 18 19  1  0  0  0  0
 19 20  2  0  0  0  0
 20 21  1  0  0  0  0
 21 22  1  0  0  0  0
  4  8  1  0  0  0  0
M  END
>  <cdx:groupId>
15693

>  <cdx:fragmentId>
15639

$$$$
