6436278.cdx
  Mrv1902 05222410272D          

 29 31  0  0  0  0            999 V2000
   10.7316   -6.2282    0.0000 C   0  0  0  0  0  0  0  0  0  0  0  0
   10.0172   -6.6407    0.0000 C   0  0  0  0  0  0  0  0  0  0  0  0
    9.3027   -6.2282    0.0000 C   0  0  0  0  0  0  0  0  0  0  0  0
    8.5882   -6.6407    0.0000 C   0  0  0  0  0  0  0  0  0  0  0  0
    7.8737   -6.2282    0.0000 C   0  0  0  0  0  0  0  0  0  0  0  0
   10.7316   -5.4032    0.0000 O   0  0  0  0  0  0  0  0  0  0  0  0
   11.4461   -6.6407    0.0000 O   0  0  0  0  0  0  0  0  0  0  0  0
   10.0172   -7.4657    0.0000 C   0  0  0  0  0  0  0  0  0  0  0  0
    5.7303   -7.4657    0.0000 C   0  0  2  0  0  0  0  0  0  0  0  0
    5.0853   -7.9801    0.0000 C   0  0  0  0  0  0  0  0  0  0  0  0
    4.2810   -7.7965    0.0000 C   0  0  0  0  0  0  0  0  0  0  0  0
    3.9231   -7.0532    0.0000 C   0  0  0  0  0  0  0  0  0  0  0  0
    4.2810   -6.3099    0.0000 C   0  0  0  0  0  0  0  0  0  0  0  0
    5.0853   -6.1263    0.0000 C   0  0  0  0  0  0  0  0  0  0  0  0
    5.7303   -6.6407    0.0000 C   0  0  2  0  0  0  0  0  0  0  0  0
    6.4448   -6.2282    0.0000 C   0  0  2  0  0  0  0  0  0  0  0  0
    7.1593   -6.6407    0.0000 C   0  0  2  0  0  0  0  0  0  0  0  0
    7.1593   -7.4657    0.0000 O   0  0  0  0  0  0  0  0  0  0  0  0
    6.4448   -7.8782    0.0000 C   0  0  0  0  0  0  0  0  0  0  0  0
    6.3382   -7.3500    0.0000 C   0  0  0  0  0  0  0  0  0  0  0  0
    6.6475   -6.8141    0.0000 C   0  0  0  0  0  0  0  0  0  0  0  0
    6.4448   -8.7032    0.0000 O   0  0  0  0  0  0  0  0  0  0  0  0
    7.1593   -5.8157    0.0000 C   0  0  0  0  0  0  0  0  0  0  0  0
    3.0981   -7.0532    0.0000 C   0  0  0  0  0  0  0  0  0  0  0  0
    5.7303   -5.8157    0.0000 O   0  0  0  0  0  0  0  0  0  0  0  0
    5.0159   -5.4032    0.0000 C   0  0  0  0  0  0  0  0  0  0  0  0
    5.0159   -4.5782    0.0000 O   0  0  0  0  0  0  0  0  0  0  0  0
    4.3014   -5.8157    0.0000 C   0  0  0  0  0  0  0  0  0  0  0  0
    6.4448   -5.4032    0.0000 H   0  0  0  0  0  0  0  0  0  0  0  0
  1  2  1  0  0  0  0
  2  3  2  0  0  0  0
  3  4  1  0  0  0  0
  4  5  2  0  0  0  0
  1  6  2  0  0  0  0
  1  7  1  0  0  0  0
  2  8  1  0  0  0  0
  9 10  1  0  0  0  0
 10 11  1  0  0  0  0
 11 12  2  0  0  0  0
 12 13  1  0  0  0  0
 13 14  1  0  0  0  0
 14 15  1  0  0  0  0
 15 16  1  0  0  0  0
 16 17  1  0  0  0  0
 17 18  1  0  0  0  0
 18 19  1  0  0  0  0
 20 21  1  0  0  0  0
  9 19  1  6  0  0  0
  9 20  1  1  0  0  0
 16 21  1  1  0  0  0
  9 15  1  0  0  0  0
 19 22  2  0  0  0  0
 17 23  1  6  0  0  0
 12 24  1  0  0  0  0
 26 27  2  0  0  0  0
 26 28  1  0  0  0  0
 25 26  1  0  0  0  0
 15 25  1  1  0  0  0
  5 17  1  0  0  0  0
 16 29  1  0  0  0  0
M  END
>  <cdx:groupId>
91

>  <cdx:fragmentId>
21

$$$$
