4363.cdx
  Mrv1902 05222410222D          

 47 49  0  0  0  0            999 V2000
   12.7538   -5.6512    0.0000 O   0  0  0  0  0  0  0  0  0  0  0  0
   13.4682   -6.8888    0.0000 O   0  0  0  0  0  0  0  0  0  0  0  0
   12.7538   -6.4763    0.0000 C   0  0  0  0  0  0  0  0  0  0  0  0
   10.9123   -5.7618    0.0000 O   0  0  0  0  0  0  0  0  0  0  0  0
   11.7373   -5.7618    0.0000 C   0  0  0  0  0  0  0  0  0  0  0  0
   12.0393   -6.8888    0.0000 C   0  0  0  0  0  0  0  0  0  0  0  0
   11.3248   -6.4763    0.0000 C   0  0  0  0  0  0  0  0  0  0  0  0
    9.8959   -5.6512    0.0000 O   0  0  0  0  0  0  0  0  0  0  0  0
   10.6103   -6.8888    0.0000 C   0  0  0  0  0  0  0  0  0  0  0  0
    9.8959   -6.4763    0.0000 C   0  0  0  0  0  0  0  0  0  0  0  0
    8.9737  -12.7403    0.0000 O   0  0  0  0  0  0  0  0  0  0  0  0
    7.3237  -12.7403    0.0000 O   0  0  0  0  0  0  0  0  0  0  0  0
    7.3237  -11.3113    0.0000 C   0  0  0  0  0  0  0  0  0  0  0  0
    7.7362  -12.0258    0.0000 C   0  0  0  0  0  0  0  0  0  0  0  0
    8.5612  -12.0258    0.0000 C   0  0  0  0  0  0  0  0  0  0  0  0
    8.9737  -11.3113    0.0000 C   0  0  0  0  0  0  0  0  0  0  0  0
    8.5612  -10.5969    0.0000 C   0  0  0  0  0  0  0  0  0  0  0  0
    7.7362  -10.5969    0.0000 C   0  0  0  0  0  0  0  0  0  0  0  0
    7.3237   -9.8824    0.0000 C   0  0  0  0  0  0  0  0  0  0  0  0
    6.4987   -8.4535    0.0000 O   0  0  0  0  0  0  0  0  0  0  0  0
    7.7362   -9.1679    0.0000 C   0  0  0  0  0  0  0  0  0  0  0  0
    7.3237   -8.4535    0.0000 C   0  0  0  0  0  0  0  0  0  0  0  0
    1.3222   -8.1262    0.0000 O   0  0  0  0  0  0  0  0  0  0  0  0
    1.3222   -6.4762    0.0000 O   0  0  0  0  0  0  0  0  0  0  0  0
    2.7512   -6.4762    0.0000 C   0  0  0  0  0  0  0  0  0  0  0  0
    2.0367   -6.8887    0.0000 C   0  0  0  0  0  0  0  0  0  0  0  0
    2.0367   -7.7137    0.0000 C   0  0  0  0  0  0  0  0  0  0  0  0
    2.7512   -8.1262    0.0000 C   0  0  0  0  0  0  0  0  0  0  0  0
    3.4656   -7.7137    0.0000 C   0  0  0  0  0  0  0  0  0  0  0  0
    3.4656   -6.8888    0.0000 C   0  0  0  0  0  0  0  0  0  0  0  0
    4.1801   -6.4763    0.0000 C   0  0  0  0  0  0  0  0  0  0  0  0
    5.6090   -5.6512    0.0000 O   0  0  0  0  0  0  0  0  0  0  0  0
    4.8946   -6.8888    0.0000 C   0  0  0  0  0  0  0  0  0  0  0  0
    5.6090   -6.4763    0.0000 C   0  0  0  0  0  0  0  0  0  0  0  0
    9.1814   -6.8888    0.0000 O   0  0  0  0  0  0  0  0  0  0  0  0
    7.7525   -7.7138    0.0000 O   0  0  0  0  0  0  0  0  0  0  0  0
    6.3235   -6.8888    0.0000 O   0  0  0  0  0  0  0  0  0  0  0  0
    7.0380   -5.6512    0.0000 C   0  0  0  0  0  0  0  0  0  0  0  0
    7.0380   -6.4763    0.0000 C   0  0  2  0  0  0  0  0  0  0  0  0
    7.7525   -6.8888    0.0000 C   0  0  1  0  0  0  0  0  0  0  0  0
    8.4669   -6.4763    0.0000 C   0  0  1  0  0  0  0  0  0  0  0  0
    8.4669   -5.6512    0.0000 C   0  0  0  0  0  0  0  0  0  0  0  0
    7.7525   -5.2387    0.0000 C   0  0  2  0  0  0  0  0  0  0  0  0
    7.3400   -4.5243    0.0000 O   0  0  0  0  0  0  0  0  0  0  0  0
    8.1650   -4.5243    0.0000 C   0  0  0  0  0  0  0  0  0  0  0  0
    7.7525   -3.8098    0.0000 O   0  0  0  0  0  0  0  0  0  0  0  0
    8.9900   -4.5243    0.0000 O   0  0  0  0  0  0  0  0  0  0  0  0
  3  1  2  0  0  0  0
  3  2  1  0  0  0  0
  6  3  1  0  0  0  0
  7  4  1  0  0  0  0
  7  5  1  0  0  0  0
  7  6  1  0  0  0  0
  9  7  1  0  0  0  0
 10  8  2  0  0  0  0
 10  9  1  0  0  0  0
 35 10  1  0  0  0  0
 22 36  1  0  0  0  0
 15 11  1  0  0  0  0
 14 12  1  0  0  0  0
 13 18  1  0  0  0  0
 14 13  2  0  0  0  0
 15 14  1  0  0  0  0
 16 15  2  0  0  0  0
 17 16  1  0  0  0  0
 18 17  2  0  0  0  0
 19 18  1  0  0  0  0
 21 19  2  0  0  0  0
 22 20  2  0  0  0  0
 22 21  1  0  0  0  0
 27 23  1  0  0  0  0
 26 24  1  0  0  0  0
 25 30  1  0  0  0  0
 26 25  2  0  0  0  0
 27 26  1  0  0  0  0
 28 27  2  0  0  0  0
 29 28  1  0  0  0  0
 30 29  2  0  0  0  0
 31 30  1  0  0  0  0
 33 31  2  0  0  0  0
 34 32  2  0  0  0  0
 34 33  1  0  0  0  0
 37 34  1  0  0  0  0
 41 35  1  1  0  0  0
 40 36  1  1  0  0  0
 39 37  1  6  0  0  0
 43 42  1  0  0  0  0
 38 43  1  0  0  0  0
 39 38  1  0  0  0  0
 40 39  1  0  0  0  0
 41 40  1  0  0  0  0
 42 41  1  0  0  0  0
 43 44  1  1  0  0  0
 43 45  1  0  0  0  0
 45 46  2  0  0  0  0
 45 47  1  0  0  0  0
M  END
>  <cdx:fragmentId>
5

$$$$
