4365.cdx
  Mrv1902 05222410202D          

 44 46  0  0  0  0            999 V2000
    9.8982   -7.5894    0.0000 C   0  0  0  0  0  0  0  0  0  0  0  0
   10.6017   -8.0204    0.0000 C   0  0  0  0  0  0  0  0  0  0  0  0
   11.3267   -7.6267    0.0000 C   0  0  0  0  0  0  0  0  0  0  0  0
   12.0302   -8.0577    0.0000 C   0  0  0  0  0  0  0  0  0  0  0  0
   12.7552   -7.6640    0.0000 O   0  0  0  0  0  0  0  0  0  0  0  0
   12.0086   -8.8824    0.0000 O   0  0  0  0  0  0  0  0  0  0  0  0
    9.9198   -6.7647    0.0000 O   0  0  0  0  0  0  0  0  0  0  0  0
    9.1679  -12.9475    0.0000 C   0  0  0  0  0  0  0  0  0  0  0  0
    9.8848  -12.5392    0.0000 C   0  0  0  0  0  0  0  0  0  0  0  0
    9.8896  -11.7142    0.0000 C   0  0  0  0  0  0  0  0  0  0  0  0
    9.1776  -11.2976    0.0000 C   0  0  0  0  0  0  0  0  0  0  0  0
    8.4607  -11.7059    0.0000 C   0  0  0  0  0  0  0  0  0  0  0  0
    8.4559  -12.5309    0.0000 C   0  0  0  0  0  0  0  0  0  0  0  0
    9.1631  -13.7725    0.0000 O   0  0  0  0  0  0  0  0  0  0  0  0
    7.7390  -12.9392    0.0000 O   0  0  0  0  0  0  0  0  0  0  0  0
    9.1824  -10.4726    0.0000 C   0  0  0  0  0  0  0  0  0  0  0  0
    8.4704  -10.0559    0.0000 C   0  0  0  0  0  0  0  0  0  0  0  0
    8.4752   -9.2309    0.0000 C   0  0  0  0  0  0  0  0  0  0  0  0
    9.1921   -8.8226    0.0000 O   0  0  0  0  0  0  0  0  0  0  0  0
    1.3777   -7.6187    0.0000 O   0  0  0  0  0  0  0  0  0  0  0  0
    1.3815   -9.2687    0.0000 O   0  0  0  0  0  0  0  0  0  0  0  0
    2.0931   -8.0296    0.0000 C   0  0  0  0  0  0  0  0  0  0  0  0
    2.8067   -7.6155    0.0000 C   0  0  0  0  0  0  0  0  0  0  0  0
    3.5221   -8.0263    0.0000 C   0  0  0  0  0  0  0  0  0  0  0  0
    3.5240   -8.8513    0.0000 C   0  0  0  0  0  0  0  0  0  0  0  0
    2.8104   -9.2655    0.0000 C   0  0  0  0  0  0  0  0  0  0  0  0
    2.0950   -8.8546    0.0000 C   0  0  0  0  0  0  0  0  0  0  0  0
    4.2356   -7.6122    0.0000 C   0  0  0  0  0  0  0  0  0  0  0  0
    4.9510   -8.0231    0.0000 C   0  0  0  0  0  0  0  0  0  0  0  0
    5.6646   -7.6090    0.0000 C   0  0  0  0  0  0  0  0  0  0  0  0
    5.6627   -6.7840    0.0000 O   0  0  0  0  0  0  0  0  0  0  0  0
    8.5082   -6.7358    0.0000 C   0  0  0  0  0  0  0  0  0  0  0  0
    7.0793   -6.7391    0.0000 C   0  0  0  0  0  0  0  0  0  0  0  0
    7.0812   -7.5641    0.0000 C   0  0  2  0  0  0  0  0  0  0  0  0
    7.7966   -7.9749    0.0000 C   0  0  1  0  0  0  0  0  0  0  0  0
    8.5101   -7.5608    0.0000 C   0  0  2  0  0  0  0  0  0  0  0  0
    9.2255   -7.9717    0.0000 O   0  0  0  0  0  0  0  0  0  0  0  0
    7.7985   -8.7999    0.0000 O   0  0  0  0  0  0  0  0  0  0  0  0
    6.3676   -7.9782    0.0000 O   0  0  0  0  0  0  0  0  0  0  0  0
    7.7928   -6.3249    0.0000 C   0  0  1  0  0  0  0  0  0  0  0  0
    7.3787   -5.6114    0.0000 O   0  0  0  0  0  0  0  0  0  0  0  0
    7.7895   -4.8960    0.0000 O   0  0  0  0  0  0  0  0  0  0  0  0
    9.0287   -5.6076    0.0000 O   0  0  0  0  0  0  0  0  0  0  0  0
    8.2037   -5.6095    0.0000 C   0  0  0  0  0  0  0  0  0  0  0  0
  1 37  1  0  0  0  0
  2  1  1  0  0  0  0
  3  2  1  0  0  0  0
  4  3  1  0  0  0  0
  5  4  1  0  0  0  0
  4  6  2  0  0  0  0
  1  7  2  0  0  0  0
 18 38  1  0  0  0  0
  8  9  2  0  0  0  0
  9 10  1  0  0  0  0
 10 11  2  0  0  0  0
 11 12  1  0  0  0  0
 12 13  2  0  0  0  0
 13  8  1  0  0  0  0
  8 14  1  0  0  0  0
 13 15  1  0  0  0  0
 11 16  1  0  0  0  0
 16 17  2  0  0  0  0
 17 18  1  0  0  0  0
 18 19  2  0  0  0  0
 30 39  1  0  0  0  0
 22 20  1  0  0  0  0
 27 21  1  0  0  0  0
 22 27  1  0  0  0  0
 23 22  2  0  0  0  0
 24 23  1  0  0  0  0
 25 24  2  0  0  0  0
 26 25  1  0  0  0  0
 27 26  2  0  0  0  0
 24 28  1  0  0  0  0
 28 29  2  0  0  0  0
 29 30  1  0  0  0  0
 30 31  2  0  0  0  0
 32 40  1  0  0  0  0
 40 33  1  0  0  0  0
 33 34  1  0  0  0  0
 34 35  1  0  0  0  0
 35 36  1  0  0  0  0
 36 32  1  0  0  0  0
 36 37  1  1  0  0  0
 35 38  1  1  0  0  0
 34 39  1  6  0  0  0
 44 42  2  0  0  0  0
 40 44  1  0  0  0  0
 40 41  1  1  0  0  0
 44 43  1  0  0  0  0
M  END
>  <cdx:fragmentId>
5

$$$$
