10436647.cdx
  Mrv1902 05222410262D          

 37 38  0  0  0  0            999 V2000
    9.2473  -17.0042    0.0000 N   0  0  0  0  0  0  0  0  0  0  0  0
    8.8348  -17.7186    0.0000 C   0  0  0  0  0  0  0  0  0  0  0  0
    8.0098  -17.7186    0.0000 C   0  0  1  0  0  0  0  0  0  0  0  0
    7.5973  -17.0042    0.0000 N   0  0  0  0  0  0  0  0  0  0  0  0
    6.7903  -16.8326    0.0000 C   0  0  0  0  0  0  0  0  0  0  0  0
    6.5354  -16.0480    0.0000 C   0  0  1  0  0  0  0  0  0  0  0  0
    7.0874  -15.4349    0.0000 N   0  0  0  0  0  0  0  0  0  0  0  0
    7.0012  -14.6144    0.0000 C   0  0  0  0  0  0  0  0  0  0  0  0
    7.6686  -14.1295    0.0000 C   0  0  1  0  0  0  0  0  0  0  0  0
    8.4223  -14.4651    0.0000 N   0  0  0  0  0  0  0  0  0  0  0  0
    9.1759  -14.1295    0.0000 C   0  0  0  0  0  0  0  0  0  0  0  0
    9.8434  -14.6144    0.0000 C   0  0  1  0  0  0  0  0  0  0  0  0
    9.7572  -15.4349    0.0000 N   0  0  0  0  0  0  0  0  0  0  0  0
   10.3092  -16.0480    0.0000 C   0  0  0  0  0  0  0  0  0  0  0  0
   10.0542  -16.8326    0.0000 C   0  0  0  0  0  0  0  0  0  0  0  0
    9.2473  -18.4331    0.0000 O   0  0  0  0  0  0  0  0  0  0  0  0
    6.2383  -17.4457    0.0000 O   0  0  0  0  0  0  0  0  0  0  0  0
    6.2475  -14.2789    0.0000 O   0  0  0  0  0  0  0  0  0  0  0  0
    9.2622  -13.3090    0.0000 O   0  0  0  0  0  0  0  0  0  0  0  0
   11.1162  -15.8765    0.0000 O   0  0  0  0  0  0  0  0  0  0  0  0
   10.6833  -13.4584    0.0000 C   0  0  0  0  0  0  0  0  0  0  0  0
   10.5971  -14.2789    0.0000 C   0  0  0  0  0  0  0  0  0  0  0  0
   11.2645  -14.7638    0.0000 C   0  0  0  0  0  0  0  0  0  0  0  0
    7.5973  -18.4331    0.0000 C   0  0  0  0  0  0  0  0  0  0  0  0
    5.7284  -15.8765    0.0000 C   0  0  0  0  0  0  0  0  0  0  0  0
    5.1764  -16.4896    0.0000 C   0  0  0  0  0  0  0  0  0  0  0  0
    4.3694  -16.3180    0.0000 C   0  0  0  0  0  0  0  0  0  0  0  0
    3.8174  -16.9311    0.0000 C   0  0  0  0  0  0  0  0  0  0  0  0
    4.0723  -17.7158    0.0000 C   0  0  0  0  0  0  0  0  0  0  0  0
    4.8793  -17.8873    0.0000 C   0  0  0  0  0  0  0  0  0  0  0  0
    5.4313  -17.2742    0.0000 C   0  0  0  0  0  0  0  0  0  0  0  0
    3.5203  -18.3289    0.0000 O   0  0  0  0  0  0  0  0  0  0  0  0
    7.5824  -13.3090    0.0000 C   0  0  0  0  0  0  0  0  0  0  0  0
    6.8287  -12.9735    0.0000 C   0  0  0  0  0  0  0  0  0  0  0  0
    6.7425  -12.1530    0.0000 C   0  0  0  0  0  0  0  0  0  0  0  0
    5.9888  -11.8174    0.0000 C   0  0  0  0  0  0  0  0  0  0  0  0
    5.9025  -10.9969    0.0000 N   0  0  0  0  0  0  0  0  0  0  0  0
  1  2  1  0  0  0  0
  2  3  1  0  0  0  0
  3  4  1  0  0  0  0
  4  5  1  0  0  0  0
  5  6  1  0  0  0  0
  6  7  1  0  0  0  0
  7  8  1  0  0  0  0
  8  9  1  0  0  0  0
  9 10  1  0  0  0  0
 10 11  1  0  0  0  0
 11 12  1  0  0  0  0
 12 13  1  0  0  0  0
 13 14  1  0  0  0  0
 14 15  1  0  0  0  0
  1 15  1  0  0  0  0
  2 16  2  0  0  0  0
  5 17  2  0  0  0  0
  8 18  2  0  0  0  0
 11 19  2  0  0  0  0
 14 20  2  0  0  0  0
 21 22  1  0  0  0  0
 22 23  1  0  0  0  0
 12 22  1  6  0  0  0
  3 24  1  6  0  0  0
 26 27  1  0  0  0  0
 27 28  2  0  0  0  0
 28 29  1  0  0  0  0
 29 30  2  0  0  0  0
 30 31  1  0  0  0  0
 26 31  2  0  0  0  0
 29 32  1  0  0  0  0
 25 26  1  0  0  0  0
  6 25  1  6  0  0  0
 33 34  1  0  0  0  0
 34 35  1  0  0  0  0
 35 36  1  0  0  0  0
 36 37  1  0  0  0  0
  9 33  1  6  0  0  0
M  END
>  <cdx:groupId>
49975

>  <cdx:fragmentId>
49866

$$$$
