436940.cdx
  Mrv1902 05222410212D          

 19 21  0  0  0  0            999 V2000
    5.9606  -11.3345    0.0000 C   0  0  0  0  0  0  0  0  0  0  0  0
    5.9606  -10.5095    0.0000 C   0  0  2  0  0  0  0  0  0  0  0  0
    6.6751  -10.0970    0.0000 C   0  0  1  0  0  0  0  0  0  0  0  0
    7.3895  -10.5095    0.0000 C   0  0  0  0  0  0  0  0  0  0  0  0
    8.1040  -10.0970    0.0000 C   0  0  0  0  0  0  0  0  0  0  0  0
    8.8185  -10.5095    0.0000 C   0  0  0  0  0  0  0  0  0  0  0  0
    8.8185  -11.3345    0.0000 C   0  0  0  0  0  0  0  0  0  0  0  0
    8.1040  -11.7470    0.0000 C   0  0  0  0  0  0  0  0  0  0  0  0
    7.3895  -11.3345    0.0000 C   0  0  0  0  0  0  0  0  0  0  0  0
    6.6751  -11.7470    0.0000 O   0  0  0  0  0  0  0  0  0  0  0  0
    9.5330  -10.0970    0.0000 C   0  0  0  0  0  0  0  0  0  0  0  0
    9.5330   -9.2720    0.0000 C   0  0  0  0  0  0  0  0  0  0  0  0
    8.8185   -8.8595    0.0000 C   0  0  0  0  0  0  0  0  0  0  0  0
    8.1040   -9.2720    0.0000 O   0  0  0  0  0  0  0  0  0  0  0  0
    8.8185   -8.0345    0.0000 O   0  0  0  0  0  0  0  0  0  0  0  0
    5.5481  -12.0490    0.0000 C   0  0  0  0  0  0  0  0  0  0  0  0
    5.1356  -11.3345    0.0000 C   0  0  0  0  0  0  0  0  0  0  0  0
    6.6751   -9.2720    0.0000 O   0  0  0  0  0  0  0  0  0  0  0  0
    5.2461  -10.0970    0.0000 O   0  0  0  0  0  0  0  0  0  0  0  0
  1  2  1  0  0  0  0
  2  3  1  0  0  0  0
  3  4  1  0  0  0  0
  4  5  1  0  0  0  0
  5  6  2  0  0  0  0
  6  7  1  0  0  0  0
  7  8  2  0  0  0  0
  8  9  1  0  0  0  0
  4  9  2  0  0  0  0
  9 10  1  0  0  0  0
  1 10  1  0  0  0  0
 11 12  2  0  0  0  0
 12 13  1  0  0  0  0
 13 14  1  0  0  0  0
 14  5  1  0  0  0  0
 11  6  1  0  0  0  0
 13 15  2  0  0  0  0
  1 16  1  0  0  0  0
  1 17  1  0  0  0  0
  3 18  1  6  0  0  0
  2 19  1  1  0  0  0
M  END
>  <cdx:fragmentId>
72088

$$$$
