43694.cdx
  Mrv1902 05222410182D          

 26 28  0  0  0  0            999 V2000
    4.9783   -7.9337    0.0000 C   0  0  0  0  0  0  0  0  0  0  0  0
    4.9783   -8.7588    0.0000 C   0  0  0  0  0  0  0  0  0  0  0  0
    5.6927   -9.1713    0.0000 C   0  0  0  0  0  0  0  0  0  0  0  0
    6.4072   -8.7588    0.0000 C   0  0  0  0  0  0  0  0  0  0  0  0
    7.1217   -9.1713    0.0000 C   0  0  0  0  0  0  0  0  0  0  0  0
    7.8361   -8.7588    0.0000 C   0  0  0  0  0  0  0  0  0  0  0  0
    7.8361   -7.9337    0.0000 C   0  0  0  0  0  0  0  0  0  0  0  0
    7.1217   -7.5213    0.0000 C   0  0  0  0  0  0  0  0  0  0  0  0
    6.4072   -7.9337    0.0000 C   0  0  0  0  0  0  0  0  0  0  0  0
    5.6927   -7.5213    0.0000 O   0  0  0  0  0  0  0  0  0  0  0  0
    8.6208   -7.6788    0.0000 O   0  0  0  0  0  0  0  0  0  0  0  0
    8.6208   -9.0137    0.0000 C   0  0  0  0  0  0  0  0  0  0  0  0
    9.1057   -8.3462    0.0000 C   0  0  0  0  0  0  0  0  0  0  0  0
    4.2638   -7.5213    0.0000 O   0  0  0  0  0  0  0  0  0  0  0  0
    7.1217   -6.6962    0.0000 O   0  0  0  0  0  0  0  0  0  0  0  0
    7.8361   -6.2837    0.0000 C   0  0  0  0  0  0  0  0  0  0  0  0
    7.8361   -5.4588    0.0000 C   0  0  0  0  0  0  0  0  0  0  0  0
    8.5506   -5.0462    0.0000 C   0  0  0  0  0  0  0  0  0  0  0  0
    8.5506   -4.2213    0.0000 C   0  0  0  0  0  0  0  0  0  0  0  0
    9.2651   -5.4588    0.0000 C   0  0  0  0  0  0  0  0  0  0  0  0
    7.1217   -9.9962    0.0000 O   0  0  0  0  0  0  0  0  0  0  0  0
    7.8361  -10.4087    0.0000 C   0  0  0  0  0  0  0  0  0  0  0  0
    7.8361  -11.2338    0.0000 C   0  0  0  0  0  0  0  0  0  0  0  0
    8.5506  -11.6463    0.0000 C   0  0  0  0  0  0  0  0  0  0  0  0
    8.5506  -12.4712    0.0000 C   0  0  0  0  0  0  0  0  0  0  0  0
    9.2651  -11.2338    0.0000 C   0  0  0  0  0  0  0  0  0  0  0  0
  1  2  1  0  0  0  0
  2  3  2  0  0  0  0
  3  4  1  0  0  0  0
  4  5  2  0  0  0  0
  5  6  1  0  0  0  0
  6  7  2  0  0  0  0
  7  8  1  0  0  0  0
  8  9  2  0  0  0  0
  4  9  1  0  0  0  0
  9 10  1  0  0  0  0
  1 10  1  0  0  0  0
 12 13  2  0  0  0  0
 11 13  1  0  0  0  0
 12  6  1  0  0  0  0
 11  7  1  0  0  0  0
  1 14  2  0  0  0  0
 16 17  1  0  0  0  0
 17 18  2  0  0  0  0
 18 19  1  0  0  0  0
 15 16  1  0  0  0  0
 18 20  1  0  0  0  0
  8 15  1  0  0  0  0
 22 23  1  0  0  0  0
 23 24  2  0  0  0  0
 24 25  1  0  0  0  0
 21 22  1  0  0  0  0
 24 26  1  0  0  0  0
  5 21  1  0  0  0  0
M  END
>  <cdx:fragmentId>
37487

$$$$
