43715.cdx
  Mrv1902 05222410262D          

 15 15  0  0  0  0            999 V2000
    9.7316   -2.0399    0.0000 O   0  0  0  0  0  0  0  0  0  0  0  0
    5.4754   -5.3692    0.0000 C   0  0  0  0  0  0  0  0  0  0  0  0
    6.1899   -5.7817    0.0000 O   0  0  0  0  0  0  0  0  0  0  0  0
    8.3298   -5.3516    0.0000 C   0  0  0  0  0  0  0  0  0  0  0  0
    7.6188   -5.7699    0.0000 C   0  0  0  0  0  0  0  0  0  0  0  0
    6.9009   -5.3633    0.0000 C   0  0  0  0  0  0  0  0  0  0  0  0
    6.8941   -4.5383    0.0000 C   0  0  0  0  0  0  0  0  0  0  0  0
    7.6052   -4.1200    0.0000 C   0  0  0  0  0  0  0  0  0  0  0  0
    8.3230   -4.5266    0.0000 C   0  0  0  0  0  0  0  0  0  0  0  0
   10.4664   -4.1023    0.0000 C   0  0  0  0  0  0  0  0  0  0  0  0
    9.7519   -4.5148    0.0000 C   0  0  0  0  0  0  0  0  0  0  0  0
    9.0341   -4.1082    0.0000 C   0  0  0  0  0  0  0  0  0  0  0  0
    9.0273   -3.2832    0.0000 O   0  0  0  0  0  0  0  0  0  0  0  0
   10.4562   -3.2715    0.0000 C   0  0  0  0  0  0  0  0  0  0  0  0
    9.7384   -2.8649    0.0000 C   0  0  0  0  0  0  0  0  0  0  0  0
 13 12  1  0  0  0  0
 12  9  1  0  0  0  0
  6  3  1  0  0  0  0
  3  2  1  0  0  0  0
  9  4  2  0  0  0  0
  5  4  1  0  0  0  0
  6  5  2  0  0  0  0
  7  6  1  0  0  0  0
  8  7  2  0  0  0  0
  9  8  1  0  0  0  0
 11 10  2  0  0  0  0
 12 11  1  0  0  0  0
 15  1  2  0  0  0  0
 15 14  1  0  0  0  0
 15 13  1  0  0  0  0
M  END
>  <cdx:fragmentId>
66

$$$$
