86043729.cdx
  Mrv1902 05222410262D          

 14 13  0  0  0  0            999 V2000
    5.8393  -14.7394    0.0000 C   0  0  0  0  0  0  0  0  0  0  0  0
    5.1248  -15.1519    0.0000 C   0  0  0  0  0  0  0  0  0  0  0  0
    4.4104  -14.7394    0.0000 C   0  0  0  0  0  0  0  0  0  0  0  0
    3.6959  -15.1519    0.0000 C   0  0  0  0  0  0  0  0  0  0  0  0
    5.8393  -13.9144    0.0000 O   0  0  0  0  0  0  0  0  0  0  0  0
    6.5538  -15.1519    0.0000 O   0  0  0  0  0  0  0  0  0  0  0  0
    5.1248  -15.9769    0.0000 C   0  0  0  0  0  0  0  0  0  0  0  0
    7.2682  -14.7394    0.0000 C   0  0  0  0  0  0  0  0  0  0  0  0
    7.9827  -15.1519    0.0000 C   0  0  0  0  0  0  0  0  0  0  0  0
    8.6972  -14.7394    0.0000 C   0  0  0  0  0  0  0  0  0  0  0  0
    9.4117  -15.1519    0.0000 C   0  0  0  0  0  0  0  0  0  0  0  0
   10.1261  -14.7394    0.0000 C   0  0  0  0  0  0  0  0  0  0  0  0
   10.8406  -15.1519    0.0000 C   0  0  0  0  0  0  0  0  0  0  0  0
    9.4117  -15.9769    0.0000 C   0  0  0  0  0  0  0  0  0  0  0  0
  1  2  1  0  0  0  0
  2  3  1  0  0  0  0
  3  4  1  0  0  0  0
  1  5  2  0  0  0  0
  1  6  1  0  0  0  0
  2  7  1  0  0  0  0
  8  9  1  0  0  0  0
  9 10  1  0  0  0  0
 10 11  1  0  0  0  0
 11 12  1  0  0  0  0
 12 13  1  0  0  0  0
 11 14  1  0  0  0  0
  6  8  1  0  0  0  0
M  END
>  <cdx:groupId>
209470

>  <cdx:fragmentId>
209446

$$$$
