437362.cdx
  Mrv1902 05222410262D          

 49 53  0  0  0  0            999 V2000
    7.0545   -9.3311    0.0000 O   0  0  0  0  0  0  0  0  0  0  0  0
   12.0660   -7.2934    0.0000 O   0  0  0  0  0  0  0  0  0  0  0  0
   12.7866   -6.0594    0.0000 C   0  0  0  0  0  0  0  0  0  0  0  0
   12.0741   -5.6434    0.0000 O   0  0  0  0  0  0  0  0  0  0  0  0
    9.9287   -6.0453    0.0000 C   0  0  0  0  0  0  0  0  0  0  0  0
   10.6452   -5.6363    0.0000 C   0  0  0  0  0  0  0  0  0  0  0  0
   11.3576   -6.0524    0.0000 C   0  0  0  0  0  0  0  0  0  0  0  0
   11.3536   -6.8774    0.0000 C   0  0  0  0  0  0  0  0  0  0  0  0
   10.6370   -7.2863    0.0000 C   0  0  0  0  0  0  0  0  0  0  0  0
    9.9246   -6.8703    0.0000 C   0  0  0  0  0  0  0  0  0  0  0  0
    5.6501   -4.3741    0.0000 C   0  0  0  0  0  0  0  0  0  0  0  0
    7.0790   -4.3812    0.0000 C   0  0  0  0  0  0  0  0  0  0  0  0
    6.3625   -4.7901    0.0000 C   0  0  0  0  0  0  0  0  0  0  0  0
    6.3584   -5.6151    0.0000 C   0  0  0  0  0  0  0  0  0  0  0  0
    7.0709   -6.0312    0.0000 C   0  0  0  0  0  0  0  0  0  0  0  0
    5.6297   -8.4990    0.0000 O   0  0  0  0  0  0  0  0  0  0  0  0
    4.1967   -9.3170    0.0000 O   0  0  0  0  0  0  0  0  0  0  0  0
    2.7718   -8.4849    0.0000 O   0  0  0  0  0  0  0  0  0  0  0  0
    2.0635   -7.2439    0.0000 O   0  0  0  0  0  0  0  0  0  0  0  0
    2.7800   -6.8349    0.0000 C   0  0  0  0  0  0  0  0  0  0  0  0
    3.4924   -7.2509    0.0000 C   0  0  2  0  0  0  0  0  0  0  0  0
    3.4883   -8.0759    0.0000 C   0  0  2  0  0  0  0  0  0  0  0  0
    4.2008   -8.4920    0.0000 C   0  0  1  0  0  0  0  0  0  0  0  0
    4.9173   -8.0830    0.0000 C   0  0  2  0  0  0  0  0  0  0  0  0
    4.9214   -7.2580    0.0000 C   0  0  1  0  0  0  0  0  0  0  0  0
    4.2089   -6.8420    0.0000 O   0  0  0  0  0  0  0  0  0  0  0  0
    5.6379   -6.8491    0.0000 O   0  0  0  0  0  0  0  0  0  0  0  0
   11.3413   -9.3523    0.0000 O   0  0  0  0  0  0  0  0  0  0  0  0
   11.3331  -11.0023    0.0000 O   0  0  0  0  0  0  0  0  0  0  0  0
    9.9001  -11.8202    0.0000 O   0  0  0  0  0  0  0  0  0  0  0  0
    8.4753  -10.9882    0.0000 C   0  0  0  0  0  0  0  0  0  0  0  0
    9.1918  -10.5792    0.0000 C   0  0  1  0  0  0  0  0  0  0  0  0
    9.9042  -10.9952    0.0000 C   0  0  1  0  0  0  0  0  0  0  0  0
   10.6207  -10.5863    0.0000 C   0  0  2  0  0  0  0  0  0  0  0  0
   10.6248   -9.7613    0.0000 C   0  0  2  0  0  0  0  0  0  0  0  0
    9.9124   -9.3453    0.0000 C   0  0  1  0  0  0  0  0  0  0  0  0
    9.1959   -9.7542    0.0000 O   0  0  0  0  0  0  0  0  0  0  0  0
    9.9165   -8.5203    0.0000 O   0  0  0  0  0  0  0  0  0  0  0  0
    8.4835   -9.3382    0.0000 O   0  0  0  0  0  0  0  0  0  0  0  0
    8.4957   -6.8632    0.0000 O   0  0  0  0  0  0  0  0  0  0  0  0
    7.7792   -7.2722    0.0000 C   0  0  0  0  0  0  0  0  0  0  0  0
    7.0668   -6.8561    0.0000 C   0  0  0  0  0  0  0  0  0  0  0  0
    6.3503   -7.2651    0.0000 C   0  0  0  0  0  0  0  0  0  0  0  0
    6.3462   -8.0901    0.0000 C   0  0  0  0  0  0  0  0  0  0  0  0
    7.0586   -8.5061    0.0000 C   0  0  0  0  0  0  0  0  0  0  0  0
    7.7751   -8.0972    0.0000 C   0  0  0  0  0  0  0  0  0  0  0  0
    8.4875   -8.5132    0.0000 C   0  0  0  0  0  0  0  0  0  0  0  0
    9.2040   -8.1042    0.0000 C   0  0  0  0  0  0  0  0  0  0  0  0
    9.2081   -7.2792    0.0000 C   0  0  0  0  0  0  0  0  0  0  0  0
 45  1  1  0  0  0  0
 49 10  1  0  0  0  0
  8  2  1  0  0  0  0
  7  4  1  0  0  0  0
  4  3  1  0  0  0  0
 10  5  2  0  0  0  0
  6  5  1  0  0  0  0
  7  6  2  0  0  0  0
  8  7  1  0  0  0  0
  9  8  2  0  0  0  0
 10  9  1  0  0  0  0
 42 15  1  0  0  0  0
 13 11  1  0  0  0  0
 13 12  1  0  0  0  0
 14 13  2  0  0  0  0
 15 14  1  0  0  0  0
 43 27  1  0  0  0  0
 25 27  1  1  0  0  0
 24 16  1  6  0  0  0
 23 17  1  1  0  0  0
 22 18  1  6  0  0  0
 21 20  1  1  0  0  0
 20 19  1  0  0  0  0
 26 21  1  0  0  0  0
 22 21  1  0  0  0  0
 23 22  1  0  0  0  0
 24 23  1  0  0  0  0
 25 24  1  0  0  0  0
 26 25  1  0  0  0  0
 48 38  1  0  0  0  0
 36 38  1  1  0  0  0
 35 28  1  6  0  0  0
 34 29  1  6  0  0  0
 33 30  1  1  0  0  0
 32 31  1  6  0  0  0
 37 32  1  0  0  0  0
 33 32  1  0  0  0  0
 34 33  1  0  0  0  0
 35 34  1  0  0  0  0
 36 35  1  0  0  0  0
 37 36  1  0  0  0  0
 47 39  2  0  0  0  0
 49 40  1  0  0  0  0
 41 40  1  0  0  0  0
 46 41  2  0  0  0  0
 42 41  1  0  0  0  0
 43 42  2  0  0  0  0
 44 43  1  0  0  0  0
 45 44  2  0  0  0  0
 46 45  1  0  0  0  0
 47 46  1  0  0  0  0
 48 47  1  0  0  0  0
 49 48  2  0  0  0  0
M  END
>  <cdx:groupId>
244941

>  <cdx:fragmentId>
244793

$$$$
