437472.cdx
  Mrv1902 05222410232D          

 12 12  0  0  0  0            999 V2000
    7.6081   -7.1366    0.0000 C   0  0  0  0  0  0  0  0  0  0  0  0
    8.3257   -6.7295    0.0000 C   0  0  0  0  0  0  0  0  0  0  0  0
    8.3318   -5.9045    0.0000 C   0  0  0  0  0  0  0  0  0  0  0  0
    9.0493   -5.4973    0.0000 C   0  0  0  0  0  0  0  0  0  0  0  0
    9.0555   -4.6723    0.0000 C   0  0  0  0  0  0  0  0  0  0  0  0
    9.7730   -4.2652    0.0000 C   0  0  0  0  0  0  0  0  0  0  0  0
    6.1483   -8.1808    0.0000 O   0  0  0  0  0  0  0  0  0  0  0  0
    7.1800   -9.2281    0.0000 C   0  0  0  0  0  0  0  0  0  0  0  0
    8.0050   -9.2342    0.0000 C   0  0  0  0  0  0  0  0  0  0  0  0
    8.2658   -8.4515    0.0000 C   0  0  0  0  0  0  0  0  0  0  0  0
    7.6020   -7.9616    0.0000 C   0  0  0  0  0  0  0  0  0  0  0  0
    6.9310   -8.4416    0.0000 C   0  0  0  0  0  0  0  0  0  0  0  0
 11  1  1  0  0  0  0
 12  7  2  0  0  0  0
 12  8  1  0  0  0  0
  9  8  1  0  0  0  0
 10  9  1  0  0  0  0
 11 10  1  0  0  0  0
 12 11  1  0  0  0  0
  1  2  1  0  0  0  0
  2  3  1  0  0  0  0
  3  4  2  0  0  0  0
  4  5  1  0  0  0  0
  5  6  1  0  0  0  0
M  END
>  <cdx:fragmentId>
16108

$$$$
