437692.cdx
  Mrv1902 05222410202D          

 28 29  0  0  0  0            999 V2000
    8.6860   -6.9038    0.0000 C   0  0  0  0  0  0  0  0  0  0  0  0
    9.3967   -6.4848    0.0000 O   0  0  0  0  0  0  0  0  0  0  0  0
    7.2682   -7.7352    0.0000 C   0  0  0  0  0  0  0  0  0  0  0  0
    6.5538   -8.1477    0.0000 C   0  0  0  0  0  0  0  0  0  0  0  0
    5.8393   -7.7352    0.0000 C   0  0  0  0  0  0  0  0  0  0  0  0
    7.2682   -6.9102    0.0000 O   0  0  0  0  0  0  0  0  0  0  0  0
    5.1248   -8.1477    0.0000 C   0  0  0  0  0  0  0  0  0  0  0  0
    4.4104   -7.7352    0.0000 C   0  0  0  0  0  0  0  0  0  0  0  0
    3.6959   -8.1477    0.0000 C   0  0  0  0  0  0  0  0  0  0  0  0
    3.6959   -8.9727    0.0000 C   0  0  0  0  0  0  0  0  0  0  0  0
    4.4104   -9.3852    0.0000 C   0  0  0  0  0  0  0  0  0  0  0  0
    5.1248   -8.9727    0.0000 C   0  0  0  0  0  0  0  0  0  0  0  0
    2.9814   -9.3852    0.0000 O   0  0  0  0  0  0  0  0  0  0  0  0
    2.9814   -7.7352    0.0000 O   0  0  0  0  0  0  0  0  0  0  0  0
    7.9678   -6.4977    0.0000 O   0  0  0  0  0  0  0  0  0  0  0  0
    8.6711   -5.2538    0.0000 C   0  0  0  0  0  0  0  0  0  0  0  0
   12.2545   -6.4590    0.0000 O   0  0  0  0  0  0  0  0  0  0  0  0
   10.8405   -8.1219    0.0000 C   0  0  0  0  0  0  0  0  0  0  0  0
   11.5512   -7.7029    0.0000 C   0  0  0  0  0  0  0  0  0  0  0  0
   11.5437   -6.8779    0.0000 C   0  0  0  0  0  0  0  0  0  0  0  0
   10.8256   -6.4719    0.0000 C   0  0  0  0  0  0  0  0  0  0  0  0
   10.1149   -6.8909    0.0000 C   0  0  0  0  0  0  0  0  0  0  0  0
   10.1223   -7.7158    0.0000 C   0  0  0  0  0  0  0  0  0  0  0  0
    7.9827   -8.1477    0.0000 O   0  0  0  0  0  0  0  0  0  0  0  0
    7.9604   -5.6728    0.0000 C   0  0  0  0  0  0  0  0  0  0  0  0
    9.4116   -8.1348    0.0000 C   0  0  0  0  0  0  0  0  0  0  0  0
    8.6934   -7.7287    0.0000 C   0  0  2  0  0  0  0  0  0  0  0  0
   12.2694   -8.1089    0.0000 O   0  0  0  0  0  0  0  0  0  0  0  0
 26 23  1  0  0  0  0
 20 17  1  0  0  0  0
 23 18  2  0  0  0  0
 19 18  1  0  0  0  0
 20 19  2  0  0  0  0
 21 20  1  0  0  0  0
 22 21  2  0  0  0  0
 23 22  1  0  0  0  0
 27 24  1  1  0  0  0
 25 16  1  0  0  0  0
 27 26  1  0  0  0  0
  1 27  1  0  0  0  0
  1  2  2  0  0  0  0
  3  4  1  0  0  0  0
  4  5  2  0  0  0  0
  3  6  2  0  0  0  0
  7  8  1  0  0  0  0
  8  9  2  0  0  0  0
  9 10  1  0  0  0  0
 10 11  2  0  0  0  0
 11 12  1  0  0  0  0
  7 12  2  0  0  0  0
 10 13  1  0  0  0  0
  9 14  1  0  0  0  0
  5  7  1  0  0  0  0
 24  3  1  0  0  0  0
  1 15  1  0  0  0  0
 15 25  1  0  0  0  0
 19 28  1  0  0  0  0
M  END
>  <cdx:fragmentId>
163052

$$$$
