4376.cdx
  Mrv1902 05222410222D          

 29 31  0  0  0  0            999 V2000
    7.2765   -9.0993    0.0000 O   0  0  0  0  0  0  0  0  0  0  0  0
    6.5975   -4.5551    0.0000 C   0  0  0  0  0  0  0  0  0  0  0  0
    8.0264   -5.3938    0.0000 O   0  0  0  0  0  0  0  0  0  0  0  0
    6.5975   -5.3801    0.0000 O   0  0  0  0  0  0  0  0  0  0  0  0
    7.3080   -5.7994    0.0000 C   0  0  0  0  0  0  0  0  0  0  0  0
    9.0188   -6.0015    0.0000 O   0  0  0  0  0  0  0  0  0  0  0  0
    9.1906   -8.8495    0.0000 C   0  0  0  0  0  0  0  0  0  0  0  0
    8.0028   -8.6937    0.0000 H   0  0  0  0  0  0  0  0  0  0  0  0
    8.0106   -6.2187    0.0000 H   0  0  0  0  0  0  0  0  0  0  0  0
    8.7849   -8.1311    0.0000 C   0  0  1  0  0  0  0  0  0  0  0  0
    9.2762   -7.4683    0.0000 C   0  0  0  0  0  0  0  0  0  0  0  0
    8.7976   -6.7963    0.0000 C   0  0  0  0  0  0  0  0  0  0  0  0
    7.3001   -6.6244    0.0000 C   0  0  0  0  0  0  0  0  0  0  0  0
    6.5818   -7.0301    0.0000 C   0  0  0  0  0  0  0  0  0  0  0  0
    6.5739   -7.8550    0.0000 O   0  0  0  0  0  0  0  0  0  0  0  0
    7.2844   -8.2743    0.0000 C   0  0  2  0  0  0  0  0  0  0  0  0
    8.0028   -7.8687    0.0000 C   0  0  1  0  0  0  0  0  0  0  0  0
    3.7041   -9.5118    0.0000 O   0  0  0  0  0  0  0  0  0  0  0  0
    4.4186  -10.7493    0.0000 O   0  0  0  0  0  0  0  0  0  0  0  0
    7.2765  -10.7493    0.0000 O   0  0  0  0  0  0  0  0  0  0  0  0
    5.8476  -11.5743    0.0000 O   0  0  0  0  0  0  0  0  0  0  0  0
    4.4186   -9.0993    0.0000 C   0  0  0  0  0  0  0  0  0  0  0  0
    5.8476   -9.0993    0.0000 O   0  0  0  0  0  0  0  0  0  0  0  0
    5.1331   -9.5118    0.0000 C   0  0  1  0  0  0  0  0  0  0  0  0
    5.1331  -10.3368    0.0000 C   0  0  2  0  0  0  0  0  0  0  0  0
    5.8476  -10.7493    0.0000 C   0  0  1  0  0  0  0  0  0  0  0  0
    6.5620  -10.3368    0.0000 C   0  0  2  0  0  0  0  0  0  0  0  0
    6.5620   -9.5118    0.0000 C   0  0  2  0  0  0  0  0  0  0  0  0
    8.0106   -7.0437    0.0000 C   0  0  2  0  0  0  0  0  0  0  0  0
  4  2  1  0  0  0  0
  5  3  2  0  0  0  0
  5  4  1  0  0  0  0
 13  5  1  0  0  0  0
 12  6  2  0  0  0  0
 16  1  1  6  0  0  0
 10  7  1  6  0  0  0
 17  8  1  6  0  0  0
 29  9  1  6  0  0  0
 10 17  1  0  0  0  0
 11 10  1  0  0  0  0
 12 11  1  0  0  0  0
 29 12  1  0  0  0  0
 22 18  1  0  0  0  0
 13 29  1  0  0  0  0
 14 13  1  0  0  0  0
 15 14  1  0  0  0  0
 16 15  1  0  0  0  0
 17 16  1  0  0  0  0
 29 17  1  0  0  0  0
 25 19  1  6  0  0  0
 27 20  1  6  0  0  0
 26 21  1  1  0  0  0
 24 22  1  1  0  0  0
 23 28  1  0  0  0  0
 24 23  1  0  0  0  0
 25 24  1  0  0  0  0
 26 25  1  0  0  0  0
 27 26  1  0  0  0  0
 28 27  1  0  0  0  0
 28  1  1  1  0  0  0
M  END
>  <cdx:fragmentId>
5

$$$$
