43797.cdx
  Mrv1902 05222410212D          

 23 25  0  0  0  0            999 V2000
    4.7881   -9.7317    0.0000 C   0  0  0  0  0  0  0  0  0  0  0  0
    4.7872   -8.9067    0.0000 O   0  0  0  0  0  0  0  0  0  0  0  0
    4.0714   -7.6700    0.0000 C   0  0  0  0  0  0  0  0  0  0  0  0
    4.7854   -7.2567    0.0000 O   0  0  0  0  0  0  0  0  0  0  0  0
    5.4989   -6.0176    0.0000 C   0  0  0  0  0  0  0  0  0  0  0  0
    6.2134   -6.4301    0.0000 O   0  0  0  0  0  0  0  0  0  0  0  0
    6.9302   -8.4918    0.0000 C   0  0  0  0  0  0  0  0  0  0  0  0
    7.6451   -8.9035    0.0000 C   0  0  0  0  0  0  0  0  0  0  0  0
    8.3591   -8.4902    0.0000 C   0  0  0  0  0  0  0  0  0  0  0  0
    8.3582   -7.6652    0.0000 C   0  0  0  0  0  0  0  0  0  0  0  0
    9.0722   -7.2520    0.0000 C   0  0  0  0  0  0  0  0  0  0  0  0
    9.0713   -6.4270    0.0000 C   0  0  0  0  0  0  0  0  0  0  0  0
    8.3564   -6.0152    0.0000 C   0  0  0  0  0  0  0  0  0  0  0  0
    7.6423   -6.4285    0.0000 C   0  0  0  0  0  0  0  0  0  0  0  0
    7.6433   -7.2535    0.0000 C   0  0  0  0  0  0  0  0  0  0  0  0
    6.9292   -7.6668    0.0000 C   0  0  0  0  0  0  0  0  0  0  0  0
    6.2143   -7.2551    0.0000 C   0  0  0  0  0  0  0  0  0  0  0  0
    5.5003   -7.6684    0.0000 C   0  0  0  0  0  0  0  0  0  0  0  0
    5.5012   -8.4934    0.0000 C   0  0  0  0  0  0  0  0  0  0  0  0
    6.2161   -8.9051    0.0000 C   0  0  0  0  0  0  0  0  0  0  0  0
    6.2171   -9.7301    0.0000 O   0  0  0  0  0  0  0  0  0  0  0  0
    6.9315  -10.1426    0.0000 C   0  0  0  0  0  0  0  0  0  0  0  0
    6.9274   -6.0168    0.0000 O   0  0  0  0  0  0  0  0  0  0  0  0
 19  2  1  0  0  0  0
  2  1  1  0  0  0  0
 18  4  1  0  0  0  0
  4  3  1  0  0  0  0
 17  6  1  0  0  0  0
  6  5  1  0  0  0  0
 16  7  1  0  0  0  0
 20  7  2  0  0  0  0
  8  7  1  0  0  0  0
  9  8  2  0  0  0  0
 10  9  1  0  0  0  0
 15 10  1  0  0  0  0
 11 10  2  0  0  0  0
 12 11  1  0  0  0  0
 13 12  2  0  0  0  0
 14 13  1  0  0  0  0
 15 14  2  0  0  0  0
 16 15  1  0  0  0  0
 17 16  2  0  0  0  0
 18 17  1  0  0  0  0
 19 18  2  0  0  0  0
 20 19  1  0  0  0  0
 20 21  1  0  0  0  0
 21 22  1  0  0  0  0
 14 23  1  0  0  0  0
M  END
>  <cdx:fragmentId>
72154

$$$$
