437978.cdx
  Mrv1902 05222410282D          

 22 24  0  0  0  0            999 V2000
    5.2831  -12.7842    0.0000 C   0  0  0  0  0  0  0  0  0  0  0  0
    5.2822  -11.9592    0.0000 O   0  0  0  0  0  0  0  0  0  0  0  0
    4.5664  -10.7225    0.0000 C   0  0  0  0  0  0  0  0  0  0  0  0
    5.2804  -10.3092    0.0000 O   0  0  0  0  0  0  0  0  0  0  0  0
    7.4224   -9.0693    0.0000 C   0  0  0  0  0  0  0  0  0  0  0  0
    6.7084   -9.4826    0.0000 O   0  0  0  0  0  0  0  0  0  0  0  0
   10.2794   -8.2412    0.0000 C   0  0  0  0  0  0  0  0  0  0  0  0
   10.2803   -9.0662    0.0000 O   0  0  0  0  0  0  0  0  0  0  0  0
    7.4252  -11.5443    0.0000 C   0  0  0  0  0  0  0  0  0  0  0  0
    8.1401  -11.9560    0.0000 C   0  0  0  0  0  0  0  0  0  0  0  0
    8.8541  -11.5427    0.0000 C   0  0  0  0  0  0  0  0  0  0  0  0
    8.8532  -10.7177    0.0000 C   0  0  0  0  0  0  0  0  0  0  0  0
    9.5672  -10.3045    0.0000 C   0  0  0  0  0  0  0  0  0  0  0  0
    9.5663   -9.4795    0.0000 C   0  0  0  0  0  0  0  0  0  0  0  0
    8.8514   -9.0677    0.0000 C   0  0  0  0  0  0  0  0  0  0  0  0
    8.1373   -9.4810    0.0000 C   0  0  0  0  0  0  0  0  0  0  0  0
    8.1383  -10.3060    0.0000 C   0  0  0  0  0  0  0  0  0  0  0  0
    7.4242  -10.7193    0.0000 C   0  0  0  0  0  0  0  0  0  0  0  0
    6.7093  -10.3076    0.0000 C   0  0  0  0  0  0  0  0  0  0  0  0
    5.9953  -10.7209    0.0000 C   0  0  0  0  0  0  0  0  0  0  0  0
    5.9962  -11.5459    0.0000 C   0  0  0  0  0  0  0  0  0  0  0  0
    6.7111  -11.9576    0.0000 C   0  0  0  0  0  0  0  0  0  0  0  0
 21  2  1  0  0  0  0
  2  1  1  0  0  0  0
 20  4  1  0  0  0  0
  4  3  1  0  0  0  0
 19  6  1  0  0  0  0
  6  5  1  0  0  0  0
 14  8  1  0  0  0  0
  8  7  1  0  0  0  0
 18  9  1  0  0  0  0
 22  9  2  0  0  0  0
 10  9  1  0  0  0  0
 11 10  2  0  0  0  0
 12 11  1  0  0  0  0
 17 12  1  0  0  0  0
 13 12  2  0  0  0  0
 14 13  1  0  0  0  0
 15 14  2  0  0  0  0
 16 15  1  0  0  0  0
 17 16  2  0  0  0  0
 18 17  1  0  0  0  0
 19 18  2  0  0  0  0
 20 19  1  0  0  0  0
 21 20  2  0  0  0  0
 22 21  1  0  0  0  0
M  END
>  <cdx:fragmentId>
72154

$$$$
