6438092.cdx
  Mrv1902 05222410262D          

 21 22  0  0  0  0            999 V2000
    6.3213   -7.4162    0.0000 C   0  0  0  0  0  0  0  0  0  0  0  0
    7.0357   -7.8287    0.0000 C   0  0  0  0  0  0  0  0  0  0  0  0
    7.7502   -7.4162    0.0000 C   0  0  0  0  0  0  0  0  0  0  0  0
    6.3213   -6.5912    0.0000 O   0  0  0  0  0  0  0  0  0  0  0  0
    8.4647   -7.8287    0.0000 C   0  0  0  0  0  0  0  0  0  0  0  0
    9.1792   -7.4162    0.0000 C   0  0  0  0  0  0  0  0  0  0  0  0
    9.8936   -7.8287    0.0000 C   0  0  0  0  0  0  0  0  0  0  0  0
    9.8936   -8.6537    0.0000 C   0  0  0  0  0  0  0  0  0  0  0  0
    9.1792   -9.0662    0.0000 C   0  0  0  0  0  0  0  0  0  0  0  0
    8.4647   -8.6537    0.0000 C   0  0  0  0  0  0  0  0  0  0  0  0
   10.6081   -7.4162    0.0000 O   0  0  0  0  0  0  0  0  0  0  0  0
   11.3226   -7.8287    0.0000 C   0  0  0  0  0  0  0  0  0  0  0  0
   10.6081   -9.0662    0.0000 O   0  0  0  0  0  0  0  0  0  0  0  0
    5.6068   -7.8287    0.0000 C   0  0  0  0  0  0  0  0  0  0  0  0
    5.6068   -8.6537    0.0000 C   0  0  0  0  0  0  0  0  0  0  0  0
    4.8923   -9.0662    0.0000 C   0  0  0  0  0  0  0  0  0  0  0  0
    4.1779   -8.6537    0.0000 C   0  0  0  0  0  0  0  0  0  0  0  0
    4.1779   -7.8287    0.0000 C   0  0  0  0  0  0  0  0  0  0  0  0
    4.8923   -7.4162    0.0000 C   0  0  0  0  0  0  0  0  0  0  0  0
    3.4634   -9.0662    0.0000 O   0  0  0  0  0  0  0  0  0  0  0  0
    6.3213   -9.0662    0.0000 O   0  0  0  0  0  0  0  0  0  0  0  0
  1  2  1  0  0  0  0
  2  3  2  0  0  0  0
  1  4  2  0  0  0  0
  5  6  1  0  0  0  0
  6  7  2  0  0  0  0
  7  8  1  0  0  0  0
  8  9  2  0  0  0  0
  9 10  1  0  0  0  0
  5 10  2  0  0  0  0
 11 12  1  0  0  0  0
  7 11  1  0  0  0  0
  8 13  1  0  0  0  0
  3  5  1  0  0  0  0
 14 15  1  0  0  0  0
 15 16  2  0  0  0  0
 16 17  1  0  0  0  0
 17 18  2  0  0  0  0
 18 19  1  0  0  0  0
 14 19  2  0  0  0  0
 17 20  1  0  0  0  0
 15 21  1  0  0  0  0
  1 14  1  0  0  0  0
M  END
>  <cdx:fragmentId>
16212

$$$$
