4381.cdx
  Mrv1902 05222410242D          

 36 39  0  0  0  0            999 V2000
    9.5899   -7.4400    0.0000 C   0  0  0  0  0  0  0  0  0  0  0  0
    9.8870   -8.8377    0.0000 C   0  0  0  0  0  0  0  0  0  0  0  0
    9.0800   -9.0092    0.0000 C   0  0  0  0  0  0  0  0  0  0  0  0
    8.8251   -9.7938    0.0000 C   0  0  0  0  0  0  0  0  0  0  0  0
    8.0181   -9.9653    0.0000 C   0  0  1  0  0  0  0  0  0  0  0  0
    7.4661   -9.3523    0.0000 C   0  0  0  0  0  0  0  0  0  0  0  0
    8.7829   -7.6115    0.0000 O   0  0  0  0  0  0  0  0  0  0  0  0
   10.9489   -7.8815    0.0000 C   0  0  0  0  0  0  0  0  0  0  0  0
    4.1207  -11.8299    0.0000 C   0  0  0  0  0  0  0  0  0  0  0  0
    3.4062  -12.2424    0.0000 C   0  0  0  0  0  0  0  0  0  0  0  0
    3.4062  -13.0674    0.0000 C   0  0  0  0  0  0  0  0  0  0  0  0
    4.1207  -13.4799    0.0000 C   0  0  0  0  0  0  0  0  0  0  0  0
    4.8352  -13.0674    0.0000 C   0  0  2  0  0  0  0  0  0  0  0  0
    5.5496  -13.4799    0.0000 C   0  0  0  0  0  0  0  0  0  0  0  0
    6.2641  -13.0674    0.0000 C   0  0  0  0  0  0  0  0  0  0  0  0
    6.2641  -12.2424    0.0000 C   0  0  0  0  0  0  0  0  0  0  0  0
    6.9786  -11.8299    0.0000 C   0  0  2  0  0  0  0  0  0  0  0  0
    7.7632  -12.0848    0.0000 C   0  0  2  0  0  0  0  0  0  0  0  0
    8.2481  -11.4174    0.0000 C   0  0  0  0  0  0  0  0  0  0  0  0
    7.7632  -10.7500    0.0000 C   0  0  1  0  0  0  0  0  0  0  0  0
    6.9786  -11.0049    0.0000 C   0  0  1  0  0  0  0  0  0  0  0  0
    6.2641  -10.5924    0.0000 C   0  0  0  0  0  0  0  0  0  0  0  0
    5.5496  -11.0049    0.0000 C   0  0  0  0  0  0  0  0  0  0  0  0
    5.5496  -11.8299    0.0000 C   0  0  0  0  0  0  0  0  0  0  0  0
    4.8352  -12.2424    0.0000 C   0  0  1  0  0  0  0  0  0  0  0  0
    2.6917  -13.4799    0.0000 O   0  0  0  0  0  0  0  0  0  0  0  0
    6.9786  -12.6549    0.0000 C   0  0  0  0  0  0  0  0  0  0  0  0
    6.9786  -10.1799    0.0000 C   0  0  0  0  0  0  0  0  0  0  0  0
    4.8352  -11.4174    0.0000 C   0  0  0  0  0  0  0  0  0  0  0  0
    4.5332  -14.1944    0.0000 C   0  0  0  0  0  0  0  0  0  0  0  0
    3.7082  -14.1944    0.0000 C   0  0  0  0  0  0  0  0  0  0  0  0
    8.0181  -12.8695    0.0000 O   0  0  0  0  0  0  0  0  0  0  0  0
    9.8449   -6.6553    0.0000 O   0  0  0  0  0  0  0  0  0  0  0  0
   10.1420   -8.0530    0.0000 C   0  0  0  0  0  0  0  0  0  0  0  0
    8.5478  -10.4950    0.0000 H   0  0  0  0  0  0  0  0  0  0  0  0
    4.8352  -13.8924    0.0000 H   0  0  0  0  0  0  0  0  0  0  0  0
 34  8  1  0  0  0  0
  1 34  1  0  0  0  0
 34  2  2  0  0  0  0
  2  3  1  0  0  0  0
  3  4  1  0  0  0  0
  4  5  1  0  0  0  0
  5  6  1  6  0  0  0
  1  7  2  0  0  0  0
  1 33  1  0  0  0  0
  9 10  1  0  0  0  0
 10 11  1  0  0  0  0
 11 12  1  0  0  0  0
 12 13  1  0  0  0  0
 13 14  1  0  0  0  0
 14 15  1  0  0  0  0
 15 16  2  0  0  0  0
 16 17  1  0  0  0  0
 17 18  1  0  0  0  0
 18 19  1  0  0  0  0
 20 19  1  0  0  0  0
 20 21  1  0  0  0  0
 17 21  1  0  0  0  0
 21 22  1  0  0  0  0
 22 23  1  0  0  0  0
 23 24  2  0  0  0  0
 16 24  1  0  0  0  0
 24 25  1  0  0  0  0
 13 25  1  0  0  0  0
  9 25  1  0  0  0  0
 11 26  2  0  0  0  0
 17 27  1  6  0  0  0
 21 28  1  1  0  0  0
 25 29  1  1  0  0  0
 12 30  1  0  0  0  0
 12 31  1  0  0  0  0
 18 32  1  6  0  0  0
  5 20  1  0  0  0  0
 20 35  1  6  0  0  0
 13 36  1  6  0  0  0
M  END
>  <cdx:groupId>
107

>  <cdx:fragmentId>
25

$$$$
