6438394.cdx
  Mrv1902 05222410242D          

 28 27  0  0  0  0            999 V2000
   13.5903   -8.2412    0.0000 C   0  0  0  0  0  0  0  0  0  0  0  0
   12.8758   -7.8287    0.0000 C   0  0  1  0  0  0  0  0  0  0  0  0
   12.1613   -8.2412    0.0000 C   0  0  2  0  0  0  0  0  0  0  0  0
   11.4468   -7.8287    0.0000 C   0  0  1  0  0  0  0  0  0  0  0  0
   10.7324   -8.2412    0.0000 C   0  0  0  0  0  0  0  0  0  0  0  0
   10.0179   -7.8287    0.0000 C   0  0  0  0  0  0  0  0  0  0  0  0
    9.3034   -8.2412    0.0000 C   0  0  0  0  0  0  0  0  0  0  0  0
    8.5890   -7.8287    0.0000 C   0  0  0  0  0  0  0  0  0  0  0  0
    7.8745   -8.2412    0.0000 C   0  0  0  0  0  0  0  0  0  0  0  0
    7.1600   -7.8287    0.0000 C   0  0  0  0  0  0  0  0  0  0  0  0
    6.4455   -8.2412    0.0000 C   0  0  0  0  0  0  0  0  0  0  0  0
    5.7311   -7.8287    0.0000 C   0  0  0  0  0  0  0  0  0  0  0  0
    5.0166   -8.2412    0.0000 C   0  0  0  0  0  0  0  0  0  0  0  0
    4.3021   -7.8287    0.0000 C   0  0  0  0  0  0  0  0  0  0  0  0
    3.5877   -8.2412    0.0000 C   0  0  0  0  0  0  0  0  0  0  0  0
    2.8732   -7.8287    0.0000 C   0  0  0  0  0  0  0  0  0  0  0  0
    2.1587   -8.2412    0.0000 C   0  0  0  0  0  0  0  0  0  0  0  0
    1.4442   -7.8287    0.0000 C   0  0  0  0  0  0  0  0  0  0  0  0
    0.7298   -8.2412    0.0000 C   0  0  0  0  0  0  0  0  0  0  0  0
    0.0153   -7.8287    0.0000 C   0  0  0  0  0  0  0  0  0  0  0  0
   13.5903   -9.0662    0.0000 O   0  0  0  0  0  0  0  0  0  0  0  0
   14.3047   -7.8287    0.0000 O   0  0  0  0  0  0  0  0  0  0  0  0
    4.3021   -7.0037    0.0000 O   0  0  0  0  0  0  0  0  0  0  0  0
   12.8758   -7.0037    0.0000 C   0  0  0  0  0  0  0  0  0  0  0  0
   13.5903   -6.5912    0.0000 O   0  0  0  0  0  0  0  0  0  0  0  0
   11.4468   -7.0037    0.0000 O   0  0  0  0  0  0  0  0  0  0  0  0
   12.1613   -9.0662    0.0000 O   0  0  0  0  0  0  0  0  0  0  0  0
   12.8758   -8.6537    0.0000 N   0  0  0  0  0  0  0  0  0  0  0  0
  1  2  1  0  0  0  0
  2  3  1  0  0  0  0
  3  4  1  0  0  0  0
  4  5  1  0  0  0  0
  5  6  1  0  0  0  0
  6  7  2  0  0  0  0
  7  8  1  0  0  0  0
  8  9  1  0  0  0  0
  9 10  1  0  0  0  0
 10 11  1  0  0  0  0
 11 12  1  0  0  0  0
 12 13  1  0  0  0  0
 13 14  1  0  0  0  0
 14 15  1  0  0  0  0
 15 16  1  0  0  0  0
 16 17  1  0  0  0  0
 17 18  1  0  0  0  0
 18 19  1  0  0  0  0
 19 20  1  0  0  0  0
  1 21  2  0  0  0  0
  1 22  1  0  0  0  0
 14 23  2  0  0  0  0
 24 25  1  0  0  0  0
  2 24  1  0  0  0  0
  4 26  1  1  0  0  0
  3 27  1  1  0  0  0
  2 28  1  6  0  0  0
M  END
>  <cdx:groupId>
16356

>  <cdx:fragmentId>
16276

$$$$
