4383.cdx
  Mrv1902 05222410252D          

 18 19  0  0  0  0            999 V2000
    8.9925   -3.6912    0.0000 O   0  0  0  0  0  0  0  0  0  0  0  0
    5.4453   -5.7967    0.0000 C   0  0  0  0  0  0  0  0  0  0  0  0
    4.7359   -6.2178    0.0000 C   0  0  0  0  0  0  0  0  0  0  0  0
   10.4512   -6.1487    0.0000 O   0  0  0  0  0  0  0  0  0  0  0  0
   11.1606   -5.7276    0.0000 C   0  0  0  0  0  0  0  0  0  0  0  0
    9.0224   -6.1660    0.0000 C   0  0  0  0  0  0  0  0  0  0  0  0
    9.7318   -5.7449    0.0000 C   0  0  0  0  0  0  0  0  0  0  0  0
    9.7218   -4.9200    0.0000 C   0  0  0  0  0  0  0  0  0  0  0  0
    9.0024   -4.5161    0.0000 C   0  0  0  0  0  0  0  0  0  0  0  0
    4.7458   -7.0428    0.0000 C   0  0  0  0  0  0  0  0  0  0  0  0
    5.4652   -7.4466    0.0000 C   0  0  0  0  0  0  0  0  0  0  0  0
    7.5935   -6.1833    0.0000 C   0  0  0  0  0  0  0  0  0  0  0  0
    8.3030   -5.7622    0.0000 C   0  0  0  0  0  0  0  0  0  0  0  0
    8.2930   -4.9372    0.0000 C   0  0  0  0  0  0  0  0  0  0  0  0
    6.1747   -7.0255    0.0000 C   0  0  0  0  0  0  0  0  0  0  0  0
    6.1647   -6.2006    0.0000 C   0  0  0  0  0  0  0  0  0  0  0  0
    6.8741   -5.7794    0.0000 C   0  0  0  0  0  0  0  0  0  0  0  0
    4.0364   -7.4639    0.0000 O   0  0  0  0  0  0  0  0  0  0  0  0
  9  1  1  0  0  0  0
  4  7  1  0  0  0  0
  5  4  1  0  0  0  0
  6 13  1  0  0  0  0
  7  6  2  0  0  0  0
  8  7  1  0  0  0  0
  9  8  2  0  0  0  0
 14  9  1  0  0  0  0
 12 17  1  0  0  0  0
 13 12  1  0  0  0  0
 14 13  2  0  0  0  0
  2  3  2  0  0  0  0
  3 10  1  0  0  0  0
 10 11  2  0  0  0  0
 11 15  1  0  0  0  0
 15 16  2  0  0  0  0
 16  2  1  0  0  0  0
 17 16  1  0  0  0  0
 10 18  1  0  0  0  0
M  END
>  <cdx:fragmentId>
5

$$$$
