438306.cdx
  Mrv1902 05222410182D          

 23 25  0  0  0  0            999 V2000
    7.3480   -5.2591    0.0000 N   0  0  0  0  0  0  0  0  0  0  0  0
    8.0625   -5.6716    0.0000 C   0  0  0  0  0  0  0  0  0  0  0  0
    8.0625   -6.4966    0.0000 C   0  0  1  0  0  0  0  0  0  0  0  0
    7.3480   -6.9091    0.0000 N   0  0  0  0  0  0  0  0  0  0  0  0
    6.6336   -6.4966    0.0000 C   0  0  0  0  0  0  0  0  0  0  0  0
    6.6336   -5.6716    0.0000 C   0  0  2  0  0  0  0  0  0  0  0  0
    8.7770   -5.2591    0.0000 O   0  0  0  0  0  0  0  0  0  0  0  0
    5.9191   -6.9091    0.0000 O   0  0  0  0  0  0  0  0  0  0  0  0
    5.9191   -5.2591    0.0000 C   0  0  0  0  0  0  0  0  0  0  0  0
    5.2046   -5.6716    0.0000 C   0  0  0  0  0  0  0  0  0  0  0  0
    5.2046   -6.4966    0.0000 C   0  0  0  0  0  0  0  0  0  0  0  0
    4.4901   -6.9091    0.0000 C   0  0  0  0  0  0  0  0  0  0  0  0
    3.7757   -6.4966    0.0000 C   0  0  0  0  0  0  0  0  0  0  0  0
    3.7757   -5.6716    0.0000 C   0  0  0  0  0  0  0  0  0  0  0  0
    4.4901   -5.2591    0.0000 C   0  0  0  0  0  0  0  0  0  0  0  0
    3.0612   -6.9091    0.0000 O   0  0  0  0  0  0  0  0  0  0  0  0
    8.7770   -6.9091    0.0000 C   0  0  0  0  0  0  0  0  0  0  0  0
    9.4914   -6.4966    0.0000 C   0  0  0  0  0  0  0  0  0  0  0  0
    9.4914   -5.6716    0.0000 C   0  0  0  0  0  0  0  0  0  0  0  0
   10.2059   -5.2591    0.0000 C   0  0  0  0  0  0  0  0  0  0  0  0
   10.9204   -5.6716    0.0000 C   0  0  0  0  0  0  0  0  0  0  0  0
   10.9204   -6.4966    0.0000 C   0  0  0  0  0  0  0  0  0  0  0  0
   10.2059   -6.9091    0.0000 C   0  0  0  0  0  0  0  0  0  0  0  0
  1  2  1  0  0  0  0
  2  3  1  0  0  0  0
  3  4  1  0  0  0  0
  4  5  1  0  0  0  0
  5  6  1  0  0  0  0
  1  6  1  0  0  0  0
  2  7  2  0  0  0  0
  5  8  2  0  0  0  0
 10 11  1  0  0  0  0
 11 12  2  0  0  0  0
 12 13  1  0  0  0  0
 13 14  2  0  0  0  0
 14 15  1  0  0  0  0
 10 15  2  0  0  0  0
 13 16  1  0  0  0  0
  9 10  1  0  0  0  0
  6  9  1  6  0  0  0
 17 18  1  0  0  0  0
 18 19  1  0  0  0  0
 19 20  2  0  0  0  0
 20 21  1  0  0  0  0
 21 22  2  0  0  0  0
 22 23  1  0  0  0  0
 18 23  2  0  0  0  0
  3 17  1  6  0  0  0
M  END
>  <cdx:fragmentId>
72248

$$$$
