438425.cdx
  Mrv1902 05222410242D          

 42 45  0  0  0  0            999 V2000
    9.1450   -8.7702    0.0000 O   0  0  0  0  0  0  0  0  0  0  0  0
    6.2726   -6.3121    0.0000 O   0  0  0  0  0  0  0  0  0  0  0  0
    6.2775   -7.1370    0.0000 C   0  0  0  0  0  0  0  0  0  0  0  0
   13.4318   -8.7449    0.0000 O   0  0  0  0  0  0  0  0  0  0  0  0
   11.9931   -7.1033    0.0000 C   0  0  0  0  0  0  0  0  0  0  0  0
   12.7100   -7.5116    0.0000 C   0  0  0  0  0  0  0  0  0  0  0  0
   12.7149   -8.3366    0.0000 C   0  0  0  0  0  0  0  0  0  0  0  0
   12.0029   -8.7533    0.0000 C   0  0  0  0  0  0  0  0  0  0  0  0
   11.2860   -8.3450    0.0000 C   0  0  0  0  0  0  0  0  0  0  0  0
   11.2811   -7.5200    0.0000 C   0  0  0  0  0  0  0  0  0  0  0  0
   10.5642   -7.1118    0.0000 C   0  0  0  0  0  0  0  0  0  0  0  0
    9.8522   -7.5285    0.0000 C   0  0  0  0  0  0  0  0  0  0  0  0
    9.1353   -7.1202    0.0000 O   0  0  0  0  0  0  0  0  0  0  0  0
    7.7307  -11.2535    0.0000 O   0  0  0  0  0  0  0  0  0  0  0  0
    6.3067  -12.0870    0.0000 O   0  0  0  0  0  0  0  0  0  0  0  0
    4.8729  -11.2704    0.0000 O   0  0  0  0  0  0  0  0  0  0  0  0
    4.8631   -9.6204    0.0000 C   0  0  0  0  0  0  0  0  0  0  0  0
    5.5800  -10.0287    0.0000 C   0  0  1  0  0  0  0  0  0  0  0  0
    5.5849  -10.8537    0.0000 C   0  0  1  0  0  0  0  0  0  0  0  0
    6.3018  -11.2620    0.0000 C   0  0  2  0  0  0  0  0  0  0  0  0
    7.0138  -10.8453    0.0000 C   0  0  2  0  0  0  0  0  0  0  0  0
    7.0090  -10.0203    0.0000 C   0  0  1  0  0  0  0  0  0  0  0  0
    6.2921   -9.6120    0.0000 O   0  0  0  0  0  0  0  0  0  0  0  0
    7.7210   -9.6036    0.0000 O   0  0  0  0  0  0  0  0  0  0  0  0
    8.4233   -7.5369    0.0000 C   0  0  1  0  0  0  0  0  0  0  0  0
    8.4281   -8.3619    0.0000 C   0  0  1  0  0  0  0  0  0  0  0  0
    7.7161   -8.7786    0.0000 C   0  0  2  0  0  0  0  0  0  0  0  0
    6.9992   -8.3703    0.0000 C   0  0  1  0  0  0  0  0  0  0  0  0
    6.9944   -7.5453    0.0000 C   0  0  2  0  0  0  0  0  0  0  0  0
    7.7064   -7.1286    0.0000 O   0  0  0  0  0  0  0  0  0  0  0  0
    1.2933  -10.0540    0.0000 O   0  0  0  0  0  0  0  0  0  0  0  0
    3.4342   -9.6289    0.0000 C   0  0  0  0  0  0  0  0  0  0  0  0
    2.7222  -10.0456    0.0000 C   0  0  0  0  0  0  0  0  0  0  0  0
    2.0053   -9.6373    0.0000 C   0  0  0  0  0  0  0  0  0  0  0  0
    2.0004   -8.8123    0.0000 C   0  0  0  0  0  0  0  0  0  0  0  0
    2.7125   -8.3956    0.0000 C   0  0  0  0  0  0  0  0  0  0  0  0
    3.4294   -8.8039    0.0000 C   0  0  0  0  0  0  0  0  0  0  0  0
    6.2872   -8.7870    0.0000 O   0  0  0  0  0  0  0  0  0  0  0  0
    5.5654   -7.5538    0.0000 O   0  0  0  0  0  0  0  0  0  0  0  0
    4.1414   -8.3872    0.0000 C   0  0  0  0  0  0  0  0  0  0  0  0
    4.8583   -8.7954    0.0000 C   0  0  0  0  0  0  0  0  0  0  0  0
    5.5703   -8.3787    0.0000 C   0  0  0  0  0  0  0  0  0  0  0  0
 28 38  1  6  0  0  0
 26  1  1  6  0  0  0
 29  3  1  1  0  0  0
  3  2  1  0  0  0  0
 25 13  1  1  0  0  0
 11 10  1  0  0  0  0
  7  4  1  0  0  0  0
 10  5  2  0  0  0  0
  6  5  1  0  0  0  0
  7  6  2  0  0  0  0
  8  7  1  0  0  0  0
  9  8  2  0  0  0  0
 10  9  1  0  0  0  0
 13 12  1  0  0  0  0
 12 11  1  0  0  0  0
 27 24  1  1  0  0  0
 22 24  1  1  0  0  0
 21 14  1  6  0  0  0
 20 15  1  6  0  0  0
 19 16  1  1  0  0  0
 18 17  1  6  0  0  0
 23 18  1  0  0  0  0
 19 18  1  0  0  0  0
 20 19  1  0  0  0  0
 21 20  1  0  0  0  0
 22 21  1  0  0  0  0
 23 22  1  0  0  0  0
 30 25  1  0  0  0  0
 26 25  1  0  0  0  0
 27 26  1  0  0  0  0
 28 27  1  0  0  0  0
 29 28  1  0  0  0  0
 30 29  1  0  0  0  0
 40 37  1  0  0  0  0
 34 31  1  0  0  0  0
 37 32  2  0  0  0  0
 33 32  1  0  0  0  0
 34 33  2  0  0  0  0
 35 34  1  0  0  0  0
 36 35  2  0  0  0  0
 37 36  1  0  0  0  0
 42 38  1  0  0  0  0
 42 39  2  0  0  0  0
 41 40  2  0  0  0  0
 42 41  1  0  0  0  0
M  END
>  <cdx:fragmentId>
50023

$$$$
