438590.cdx
  Mrv1902 05222410252D          

 23 24  0  0  0  0            999 V2000
    6.1907   -9.9072    0.0000 C   0  0  0  0  0  0  0  0  0  0  0  0
    5.4762   -9.4947    0.0000 C   0  0  0  0  0  0  0  0  0  0  0  0
    5.4762   -8.6697    0.0000 C   0  0  0  0  0  0  0  0  0  0  0  0
    6.1907   -8.2572    0.0000 C   0  0  0  0  0  0  0  0  0  0  0  0
    6.9051   -8.6697    0.0000 C   0  0  0  0  0  0  0  0  0  0  0  0
    6.9051   -9.4947    0.0000 C   0  0  0  0  0  0  0  0  0  0  0  0
    6.1907  -10.7322    0.0000 O   0  0  0  0  0  0  0  0  0  0  0  0
    6.1907   -7.4322    0.0000 O   0  0  0  0  0  0  0  0  0  0  0  0
    4.7617   -8.2572    0.0000 O   0  0  0  0  0  0  0  0  0  0  0  0
    4.0473   -8.6697    0.0000 C   0  0  0  0  0  0  0  0  0  0  0  0
    4.7617   -9.9072    0.0000 O   0  0  0  0  0  0  0  0  0  0  0  0
    4.0473   -9.4947    0.0000 C   0  0  0  0  0  0  0  0  0  0  0  0
    7.6196   -8.2572    0.0000 C   0  0  0  0  0  0  0  0  0  0  0  0
    8.3341   -8.6697    0.0000 C   0  0  0  0  0  0  0  0  0  0  0  0
    9.0485   -8.2572    0.0000 C   0  0  0  0  0  0  0  0  0  0  0  0
    9.0485   -7.4322    0.0000 C   0  0  0  0  0  0  0  0  0  0  0  0
    9.7630   -7.0197    0.0000 C   0  0  0  0  0  0  0  0  0  0  0  0
    8.3341   -9.4947    0.0000 C   0  0  0  0  0  0  0  0  0  0  0  0
   10.1755   -4.9252    0.0000 O   0  0  0  0  0  0  0  0  0  0  0  0
   10.4305   -5.7098    0.0000 C   0  0  0  0  0  0  0  0  0  0  0  0
    9.7630   -6.1947    0.0000 C   0  0  0  0  0  0  0  0  0  0  0  0
    9.0956   -5.7098    0.0000 C   0  0  0  0  0  0  0  0  0  0  0  0
    9.3505   -4.9252    0.0000 C   0  0  0  0  0  0  0  0  0  0  0  0
  1  2  1  0  0  0  0
  2  3  2  0  0  0  0
  3  4  1  0  0  0  0
  4  5  1  0  0  0  0
  5  6  2  0  0  0  0
  1  6  1  0  0  0  0
  1  7  2  0  0  0  0
  4  8  2  0  0  0  0
  9 10  1  0  0  0  0
  3  9  1  0  0  0  0
 11 12  1  0  0  0  0
  2 11  1  0  0  0  0
 13 14  1  0  0  0  0
 14 15  2  0  0  0  0
 15 16  1  0  0  0  0
 16 17  1  0  0  0  0
 14 18  1  0  0  0  0
 19 20  1  0  0  0  0
 20 21  2  0  0  0  0
 21 22  1  0  0  0  0
 22 23  2  0  0  0  0
 19 23  1  0  0  0  0
 17 21  1  0  0  0  0
  5 13  1  0  0  0  0
M  END
>  <cdx:fragmentId>
16494

$$$$
