4385.cdx
  Mrv1902 05222410242D          

 21 23  0  0  0  0            999 V2000
    4.8020   -5.9744    0.0000 C   0  0  0  0  0  0  0  0  0  0  0  0
    4.8020   -6.7994    0.0000 C   0  0  0  0  0  0  0  0  0  0  0  0
    5.5165   -7.2119    0.0000 C   0  0  0  0  0  0  0  0  0  0  0  0
    6.2310   -6.7994    0.0000 C   0  0  0  0  0  0  0  0  0  0  0  0
    6.2310   -5.9744    0.0000 C   0  0  0  0  0  0  0  0  0  0  0  0
    5.5165   -5.5619    0.0000 C   0  0  0  0  0  0  0  0  0  0  0  0
    6.9454   -7.2119    0.0000 C   0  0  0  0  0  0  0  0  0  0  0  0
    7.6599   -6.7994    0.0000 C   0  0  0  0  0  0  0  0  0  0  0  0
    7.6599   -5.9744    0.0000 C   0  0  0  0  0  0  0  0  0  0  0  0
    6.9454   -5.5619    0.0000 O   0  0  0  0  0  0  0  0  0  0  0  0
    8.3744   -7.2119    0.0000 C   0  0  0  0  0  0  0  0  0  0  0  0
    9.0889   -6.7994    0.0000 C   0  0  0  0  0  0  0  0  0  0  0  0
    8.3744   -8.0369    0.0000 C   0  0  0  0  0  0  0  0  0  0  0  0
    9.0889   -8.4494    0.0000 C   0  0  0  0  0  0  0  0  0  0  0  0
    9.8033   -8.0369    0.0000 C   0  0  0  0  0  0  0  0  0  0  0  0
    9.8033   -7.2119    0.0000 C   0  0  0  0  0  0  0  0  0  0  0  0
    6.9454   -8.0369    0.0000 O   0  0  0  0  0  0  0  0  0  0  0  0
    4.0876   -5.5619    0.0000 O   0  0  0  0  0  0  0  0  0  0  0  0
   10.5178   -6.7994    0.0000 O   0  0  0  0  0  0  0  0  0  0  0  0
   10.5178   -8.4494    0.0000 O   0  0  0  0  0  0  0  0  0  0  0  0
    3.3731   -5.9744    0.0000 C   0  0  0  0  0  0  0  0  0  0  0  0
  1  2  2  0  0  0  0
  2  3  1  0  0  0  0
  3  4  2  0  0  0  0
  4  5  1  0  0  0  0
  5  6  2  0  0  0  0
  6  1  1  0  0  0  0
  4  7  1  0  0  0  0
  7  8  1  0  0  0  0
  8  9  2  0  0  0  0
  9 10  1  0  0  0  0
 10  5  1  0  0  0  0
  8 11  1  0  0  0  0
 11 12  1  0  0  0  0
 11 13  2  0  0  0  0
 13 14  1  0  0  0  0
 14 15  2  0  0  0  0
 15 16  1  0  0  0  0
 16 12  2  0  0  0  0
  7 17  2  0  0  0  0
  1 18  1  0  0  0  0
 16 19  1  0  0  0  0
 15 20  1  0  0  0  0
 18 21  1  0  0  0  0
M  END
>  <cdx:fragmentId>
5

$$$$
