439183.cdx
  Mrv1902 05222410202D          

 11 10  0  0  0  0            999 V2000
    8.8539   -6.4344    0.0000 C   0  0  0  0  0  0  0  0  0  0  0  0
    8.1395   -6.8469    0.0000 C   0  0  1  0  0  0  0  0  0  0  0  0
    7.4250   -6.4344    0.0000 C   0  0  0  0  0  0  0  0  0  0  0  0
    8.8539   -5.6094    0.0000 O   0  0  0  0  0  0  0  0  0  0  0  0
    9.5684   -6.8469    0.0000 O   0  0  0  0  0  0  0  0  0  0  0  0
    6.7105   -6.8469    0.0000 O   0  0  0  0  0  0  0  0  0  0  0  0
    5.9961   -6.4344    0.0000 P   0  0  0  0  0  0  0  0  0  0  0  0
    5.9961   -5.6094    0.0000 O   0  0  0  0  0  0  0  0  0  0  0  0
    5.2816   -6.8469    0.0000 O   0  0  0  0  0  0  0  0  0  0  0  0
    5.9961   -7.2594    0.0000 O   0  0  0  0  0  0  0  0  0  0  0  0
    8.1395   -7.6719    0.0000 O   0  0  0  0  0  0  0  0  0  0  0  0
  1  2  1  0  0  0  0
  2  3  1  0  0  0  0
  1  4  2  0  0  0  0
  1  5  1  0  0  0  0
  7  8  2  0  0  0  0
  7  9  1  0  0  0  0
  7 10  1  0  0  0  0
  6  7  1  0  0  0  0
  3  6  1  0  0  0  0
  2 11  1  6  0  0  0
M  END
>  <cdx:groupId>
34

>  <cdx:fragmentId>
17

$$$$
