439186.cdx
  Mrv1902 05222410182D          

 23 24  0  0  0  0            999 V2000
    9.0789   -4.8202    0.0000 C   0  0  1  0  0  0  0  0  0  0  0  0
    8.3644   -4.4077    0.0000 C   0  0  2  0  0  0  0  0  0  0  0  0
    7.6500   -4.8202    0.0000 O   0  0  0  0  0  0  0  0  0  0  0  0
    7.6500   -5.6452    0.0000 C   0  0  1  0  0  0  0  0  0  0  0  0
    8.3644   -6.0577    0.0000 C   0  0  2  0  0  0  0  0  0  0  0  0
    9.0789   -5.6452    0.0000 C   0  0  2  0  0  0  0  0  0  0  0  0
    8.3644   -3.5827    0.0000 O   0  0  0  0  0  0  0  0  0  0  0  0
    9.7934   -6.0577    0.0000 O   0  0  0  0  0  0  0  0  0  0  0  0
    8.3644   -6.8827    0.0000 O   0  0  0  0  0  0  0  0  0  0  0  0
    6.9355   -6.0577    0.0000 C   0  0  0  0  0  0  0  0  0  0  0  0
    6.2155   -7.3150    0.0000 C   0  0  2  0  0  0  0  0  0  0  0  0
    6.2155   -8.1400    0.0000 C   0  0  2  0  0  0  0  0  0  0  0  0
    6.9300   -8.5525    0.0000 C   0  0  1  0  0  0  0  0  0  0  0  0
    7.6445   -8.1400    0.0000 C   0  0  2  0  0  0  0  0  0  0  0  0
    7.6445   -7.3150    0.0000 C   0  0  2  0  0  0  0  0  0  0  0  0
    6.9300   -6.9025    0.0000 O   0  0  0  0  0  0  0  0  0  0  0  0
    5.5011   -6.9025    0.0000 C   0  0  0  0  0  0  0  0  0  0  0  0
    6.9300   -9.3775    0.0000 O   0  0  0  0  0  0  0  0  0  0  0  0
    9.7934   -4.4077    0.0000 O   0  0  0  0  0  0  0  0  0  0  0  0
    8.3589   -8.5525    0.0000 O   0  0  0  0  0  0  0  0  0  0  0  0
    5.5011   -8.5525    0.0000 O   0  0  0  0  0  0  0  0  0  0  0  0
    4.7866   -7.3150    0.0000 O   0  0  0  0  0  0  0  0  0  0  0  0
    6.2210   -5.6452    0.0000 O   0  0  0  0  0  0  0  0  0  0  0  0
  1  2  1  0  0  0  0
  2  3  1  0  0  0  0
  3  4  1  0  0  0  0
  4  5  1  0  0  0  0
  5  6  1  0  0  0  0
  1  6  1  0  0  0  0
  2  7  1  6  0  0  0
  6  8  1  1  0  0  0
  5  9  1  6  0  0  0
  4 10  1  1  0  0  0
 11 12  1  0  0  0  0
 12 13  1  0  0  0  0
 13 14  1  0  0  0  0
 14 15  1  0  0  0  0
 15 16  1  0  0  0  0
 16 11  1  0  0  0  0
 15  9  1  6  0  0  0
 11 17  1  1  0  0  0
 13 18  1  1  0  0  0
  1 19  1  6  0  0  0
 14 20  1  6  0  0  0
 12 21  1  6  0  0  0
 17 22  1  0  0  0  0
 10 23  1  0  0  0  0
M  END
>  <cdx:groupId>
11949

>  <cdx:fragmentId>
11902

$$$$
