439167.cdx
  Mrv1902 05222410272D          

 14 14  0  0  0  0            999 V2000
    7.0302   -8.2941    0.0000 O   0  0  0  0  0  0  0  0  0  0  0  0
    8.7859   -8.6673    0.0000 O   0  0  0  0  0  0  0  0  0  0  0  0
    9.6833   -7.1129    0.0000 O   0  0  0  0  0  0  0  0  0  0  0  0
    8.8628   -7.1991    0.0000 C   0  0  0  0  0  0  0  0  0  0  0  0
    8.4503   -7.9136    0.0000 C   0  0  1  0  0  0  0  0  0  0  0  0
    7.6433   -7.7421    0.0000 C   0  0  1  0  0  0  0  0  0  0  0  0
    7.5571   -6.9216    0.0000 C   0  0  2  0  0  0  0  0  0  0  0  0
    8.3108   -6.5860    0.0000 O   0  0  0  0  0  0  0  0  0  0  0  0
    6.8426   -6.5091    0.0000 C   0  0  0  0  0  0  0  0  0  0  0  0
    6.1282   -6.9216    0.0000 O   0  0  0  0  0  0  0  0  0  0  0  0
    4.6992   -6.0966    0.0000 O   0  0  0  0  0  0  0  0  0  0  0  0
    5.0012   -7.2236    0.0000 O   0  0  0  0  0  0  0  0  0  0  0  0
    5.8262   -5.7946    0.0000 O   0  0  0  0  0  0  0  0  0  0  0  0
    5.4137   -6.5091    0.0000 P   0  0  0  0  0  0  0  0  0  0  0  0
 10  9  1  0  0  0  0
  7  9  1  1  0  0  0
  6  1  1  6  0  0  0
  5  2  1  6  0  0  0
  4  3  1  0  0  0  0
  8  4  1  0  0  0  0
  5  4  1  0  0  0  0
  6  5  1  0  0  0  0
  7  6  1  0  0  0  0
  8  7  1  0  0  0  0
 14 10  1  0  0  0  0
 14 11  1  0  0  0  0
 14 12  1  0  0  0  0
 14 13  2  0  0  0  0
M  END
>  <cdx:fragmentId>
3315

$$$$
