439195.cdx
  Mrv1902 05222410192D          

 10 10  0  0  0  0            999 V2000
    7.4250   -5.4032    0.0000 O   0  0  0  0  0  0  0  0  0  0  0  0
    8.1395   -5.8157    0.0000 C   0  0  0  0  0  0  0  0  0  0  0  0
    8.1395   -6.6407    0.0000 C   0  0  1  0  0  0  0  0  0  0  0  0
    7.4250   -7.0532    0.0000 C   0  0  2  0  0  0  0  0  0  0  0  0
    6.7105   -6.6407    0.0000 C   0  0  2  0  0  0  0  0  0  0  0  0
    6.7105   -5.8157    0.0000 C   0  0  0  0  0  0  0  0  0  0  0  0
    8.8539   -5.4032    0.0000 O   0  0  0  0  0  0  0  0  0  0  0  0
    8.8539   -7.0532    0.0000 O   0  0  0  0  0  0  0  0  0  0  0  0
    7.4250   -7.8782    0.0000 O   0  0  0  0  0  0  0  0  0  0  0  0
    5.9961   -7.0532    0.0000 O   0  0  0  0  0  0  0  0  0  0  0  0
  1  2  1  0  0  0  0
  2  3  1  0  0  0  0
  3  4  1  0  0  0  0
  4  5  1  0  0  0  0
  5  6  1  0  0  0  0
  1  6  1  0  0  0  0
  2  7  1  0  0  0  0
  3  8  1  6  0  0  0
  4  9  1  1  0  0  0
  5 10  1  1  0  0  0
M  END
>  <cdx:groupId>
32

>  <cdx:fragmentId>
5

$$$$
