439260.cdx
  Mrv1902 05222410252D          

 12 12  0  0  0  0            999 V2000
   13.2138  -13.6932    0.0000 O   0  0  0  0  0  0  0  0  0  0  0  0
   13.9283  -13.2807    0.0000 C   0  0  0  0  0  0  0  0  0  0  0  0
   14.6428  -13.6932    0.0000 C   0  0  0  0  0  0  0  0  0  0  0  0
   15.3572  -13.2807    0.0000 C   0  0  0  0  0  0  0  0  0  0  0  0
   16.0717  -13.6932    0.0000 C   0  0  0  0  0  0  0  0  0  0  0  0
   16.0717  -14.5182    0.0000 O   0  0  0  0  0  0  0  0  0  0  0  0
   16.7862  -13.2807    0.0000 C   0  0  0  0  0  0  0  0  0  0  0  0
   17.5007  -13.6932    0.0000 N   0  0  0  0  0  0  0  0  0  0  0  0
   15.3572  -12.4557    0.0000 C   0  0  0  0  0  0  0  0  0  0  0  0
   14.6428  -12.0432    0.0000 C   0  0  0  0  0  0  0  0  0  0  0  0
   13.9283  -12.4557    0.0000 C   0  0  0  0  0  0  0  0  0  0  0  0
   13.2138  -12.0432    0.0000 O   0  0  0  0  0  0  0  0  0  0  0  0
  1  2  1  0  0  0  0
  2  3  1  0  0  0  0
  3  4  2  0  0  0  0
  4  5  1  0  0  0  0
  5  6  1  0  0  0  0
  5  7  1  0  0  0  0
  7  8  1  0  0  0  0
  4  9  1  0  0  0  0
  9 10  2  0  0  0  0
 10 11  1  0  0  0  0
  2 11  2  0  0  0  0
 11 12  1  0  0  0  0
M  END
>  <cdx:groupId>
3629

>  <cdx:fragmentId>
3596

$$$$
