439215.cdx
  Mrv1902 05222410272D          

 10  9  0  0  0  0            999 V2000
    7.3927   -7.9224    0.0000 C   0  0  0  0  0  0  0  0  0  0  0  0
    8.1072   -8.3349    0.0000 C   0  0  0  0  0  0  0  0  0  0  0  0
    8.8216   -7.9224    0.0000 C   0  0  0  0  0  0  0  0  0  0  0  0
    7.3927   -7.0974    0.0000 O   0  0  0  0  0  0  0  0  0  0  0  0
    6.6782   -8.3349    0.0000 N   0  0  0  0  0  0  0  0  0  0  0  0
    9.5361   -8.3349    0.0000 S   0  0  0  0  0  0  0  0  0  0  0  0
   10.2506   -7.9224    0.0000 C   0  0  0  0  0  0  0  0  0  0  0  0
    5.9637   -7.9224    0.0000 C   0  0  0  0  0  0  0  0  0  0  0  0
    5.2493   -8.3349    0.0000 C   0  0  0  0  0  0  0  0  0  0  0  0
    4.5348   -7.9224    0.0000 O   0  0  0  0  0  0  0  0  0  0  0  0
  1  2  1  0  0  0  0
  2  3  2  0  0  0  0
  1  4  2  0  0  0  0
  1  5  1  0  0  0  0
  6  7  1  0  0  0  0
  3  6  1  0  0  0  0
  8  9  1  0  0  0  0
  9 10  1  0  0  0  0
  5  8  1  0  0  0  0
M  END
>  <cdx:fragmentId>
16710

$$$$
