439377.cdx
  Mrv1902 05222410282D          

 11 10  0  0  0  0            999 V2000
   16.8977  -12.9753    0.0000 C   0  0  0  0  0  0  0  0  0  0  0  0
   16.1832  -14.2128    0.0000 N   0  0  0  0  0  0  0  0  0  0  0  0
   16.1832  -13.3878    0.0000 C   0  0  1  0  0  0  0  0  0  0  0  0
   15.4688  -12.9753    0.0000 C   0  0  0  0  0  0  0  0  0  0  0  0
   14.7543  -13.3878    0.0000 C   0  0  0  0  0  0  0  0  0  0  0  0
   14.0398  -12.9753    0.0000 C   0  0  0  0  0  0  0  0  0  0  0  0
   14.0398  -12.1503    0.0000 O   0  0  0  0  0  0  0  0  0  0  0  0
   13.3253  -13.3878    0.0000 O   0  0  0  0  0  0  0  0  0  0  0  0
   16.8977  -12.1503    0.0000 O   0  0  0  0  0  0  0  0  0  0  0  0
   17.6122  -13.3878    0.0000 O   0  0  0  0  0  0  0  0  0  0  0  0
   16.8977  -14.6253    0.0000 C   0  0  0  0  0  0  0  0  0  0  0  0
  3  2  1  1  0  0  0
  1  3  1  0  0  0  0
  3  4  1  0  0  0  0
  4  5  1  0  0  0  0
  5  6  1  0  0  0  0
  6  7  2  0  0  0  0
  6  8  1  0  0  0  0
  1  9  2  0  0  0  0
  1 10  1  0  0  0  0
  2 11  1  0  0  0  0
M  END
>  <cdx:groupId>
3996

>  <cdx:fragmentId>
3967

$$$$
