439369.cdx
  Mrv1902 05222410192D          

 40 42  0  0  0  0            999 V2000
   16.4288  -13.0079    0.0000 C   0  0  1  0  0  0  0  0  0  0  0  0
   16.8412  -13.7223    0.0000 C   0  0  1  0  0  0  0  0  0  0  0  0
   17.6655  -13.7227    0.0000 C   0  0  2  0  0  0  0  0  0  0  0  0
   18.0773  -13.0087    0.0000 C   0  0  1  0  0  0  0  0  0  0  0  0
   17.6649  -12.2943    0.0000 C   0  0  2  0  0  0  0  0  0  0  0  0
   16.8406  -12.2939    0.0000 C   0  0  2  0  0  0  0  0  0  0  0  0
   16.4281  -11.5794    0.0000 N   0  0  0  0  0  0  0  0  0  0  0  0
   16.4283  -14.4370    0.0000 O   0  0  0  0  0  0  0  0  0  0  0  0
   18.9028  -13.0083    0.0000 N   0  0  0  0  0  0  0  0  0  0  0  0
   19.3158  -12.2936    0.0000 C   0  0  0  0  0  0  0  0  0  0  0  0
   20.1412  -12.2933    0.0000 N   0  0  0  0  0  0  0  0  0  0  0  0
   18.9033  -11.5792    0.0000 N   0  0  0  0  0  0  0  0  0  0  0  0
   18.0779  -11.5795    0.0000 O   0  0  0  0  0  0  0  0  0  0  0  0
   18.0780  -14.4372    0.0000 O   0  0  0  0  0  0  0  0  0  0  0  0
   15.6026  -11.5796    0.0000 C   0  0  0  0  0  0  0  0  0  0  0  0
   15.1901  -10.8651    0.0000 N   0  0  0  0  0  0  0  0  0  0  0  0
   15.1896  -12.2944    0.0000 N   0  0  0  0  0  0  0  0  0  0  0  0
   15.6033  -13.0082    0.0000 O   0  0  0  0  0  0  0  0  0  0  0  0
   15.1904  -13.7229    0.0000 C   0  0  2  0  0  0  0  0  0  0  0  0
   14.3655  -13.7259    0.0000 C   0  0  2  0  0  0  0  0  0  0  0  0
   14.1131  -14.5111    0.0000 C   0  0  2  0  0  0  0  0  0  0  0  0
   14.7820  -14.9928    0.0000 C   0  0  2  0  0  0  0  0  0  0  0  0
   15.4465  -14.5045    0.0000 O   0  0  0  0  0  0  0  0  0  0  0  0
   14.7864  -15.8172    0.0000 C   0  0  0  0  0  0  0  0  0  0  0  0
   13.3047  -14.3488    0.0000 O   0  0  0  0  0  0  0  0  0  0  0  0
   13.5677  -15.1286    0.0000 C   0  0  0  0  0  0  0  0  0  0  0  0
   13.8781  -13.0608    0.0000 O   0  0  0  0  0  0  0  0  0  0  0  0
   13.0539  -13.0641    0.0000 C   0  0  2  0  0  0  0  0  0  0  0  0
   12.6322  -12.3540    0.0000 C   0  0  1  0  0  0  0  0  0  0  0  0
   11.8054  -12.3637    0.0000 C   0  0  2  0  0  0  0  0  0  0  0  0
   11.3991  -13.0842    0.0000 C   0  0  2  0  0  0  0  0  0  0  0  0
   11.8194  -13.7948    0.0000 C   0  0  1  0  0  0  0  0  0  0  0  0
   12.6448  -13.7856    0.0000 O   0  0  0  0  0  0  0  0  0  0  0  0
   11.4152  -14.5133    0.0000 C   0  0  0  0  0  0  0  0  0  0  0  0
   10.5733  -13.0923    0.0000 O   0  0  0  0  0  0  0  0  0  0  0  0
   10.5898  -14.5226    0.0000 O   0  0  0  0  0  0  0  0  0  0  0  0
   11.3856  -11.6544    0.0000 O   0  0  0  0  0  0  0  0  0  0  0  0
   13.0360  -11.6342    0.0000 N   0  0  0  0  0  0  0  0  0  0  0  0
   13.8610  -11.6236    0.0000 C   0  0  0  0  0  0  0  0  0  0  0  0
   13.5677  -15.9536    0.0000 O   0  0  0  0  0  0  0  0  0  0  0  0
  1  2  1  0  0  0  0
  2  3  1  0  0  0  0
  3  4  1  0  0  0  0
  4  5  1  0  0  0  0
  5  6  1  0  0  0  0
  1  6  1  0  0  0  0
  6  7  1  1  0  0  0
  2  8  1  1  0  0  0
  4  9  1  1  0  0  0
  9 10  1  0  0  0  0
 10 11  1  0  0  0  0
 10 12  2  0  0  0  0
  5 13  1  6  0  0  0
  3 14  1  6  0  0  0
  7 15  1  0  0  0  0
 15 16  1  0  0  0  0
 15 17  2  0  0  0  0
  1 18  1  6  0  0  0
 19 18  1  1  0  0  0
 19 20  1  0  0  0  0
 20 21  1  0  0  0  0
 21 22  1  0  0  0  0
 22 23  1  0  0  0  0
 19 23  1  0  0  0  0
 22 24  1  6  0  0  0
 21 25  1  6  0  0  0
 21 26  1  1  0  0  0
 20 27  1  6  0  0  0
 28 27  1  1  0  0  0
 28 29  1  0  0  0  0
 29 30  1  0  0  0  0
 30 31  1  0  0  0  0
 31 32  1  0  0  0  0
 32 33  1  0  0  0  0
 28 33  1  0  0  0  0
 32 34  1  1  0  0  0
 31 35  1  6  0  0  0
 34 36  1  0  0  0  0
 30 37  1  6  0  0  0
 29 38  1  1  0  0  0
 38 39  1  0  0  0  0
 26 40  1  0  0  0  0
M  END
>  <cdx:fragmentId>
3875

$$$$
