439306.cdx
  Mrv1902 05222410242D          

 34 36  0  0  0  0            999 V2000
    8.8610   -6.7305    0.0000 O   0  0  0  0  0  0  0  0  0  0  0  0
    6.0032   -6.7504    0.0000 O   0  0  0  0  0  0  0  0  0  0  0  0
    5.2801   -5.5179    0.0000 O   0  0  0  0  0  0  0  0  0  0  0  0
    5.9917   -5.1004    0.0000 C   0  0  0  0  0  0  0  0  0  0  0  0
    7.4494   -9.2154    0.0000 O   0  0  0  0  0  0  0  0  0  0  0  0
    6.0263  -10.0503    0.0000 O   0  0  0  0  0  0  0  0  0  0  0  0
    4.5916   -9.2353    0.0000 O   0  0  0  0  0  0  0  0  0  0  0  0
    3.8685   -8.0028    0.0000 O   0  0  0  0  0  0  0  0  0  0  0  0
    4.5801   -7.5854    0.0000 C   0  0  0  0  0  0  0  0  0  0  0  0
    5.2974   -7.9929    0.0000 C   0  0  2  0  0  0  0  0  0  0  0  0
    5.3032   -8.8178    0.0000 C   0  0  2  0  0  0  0  0  0  0  0  0
    6.0205   -9.2253    0.0000 C   0  0  1  0  0  0  0  0  0  0  0  0
    6.7321   -8.8079    0.0000 C   0  0  2  0  0  0  0  0  0  0  0  0
    6.7263   -7.9829    0.0000 C   0  0  0  0  0  0  0  0  0  0  0  0
    6.0090   -7.5754    0.0000 O   0  0  0  0  0  0  0  0  0  0  0  0
    7.4379   -7.5654    0.0000 O   0  0  0  0  0  0  0  0  0  0  0  0
    6.7091   -5.5080    0.0000 C   0  0  2  0  0  0  0  0  0  0  0  0
    6.7148   -6.3329    0.0000 C   0  0  2  0  0  0  0  0  0  0  0  0
    7.4321   -6.7404    0.0000 C   0  0  1  0  0  0  0  0  0  0  0  0
    8.1437   -6.3230    0.0000 C   0  0  2  0  0  0  0  0  0  0  0  0
    8.1380   -5.4980    0.0000 C   0  0  0  0  0  0  0  0  0  0  0  0
    7.4206   -5.0905    0.0000 O   0  0  0  0  0  0  0  0  0  0  0  0
    8.8495   -5.0805    0.0000 O   0  0  0  0  0  0  0  0  0  0  0  0
   10.9756   -3.0081    0.0000 O   0  0  0  0  0  0  0  0  0  0  0  0
   10.2612   -2.5956    0.0000 C   0  0  0  0  0  0  0  0  0  0  0  0
   10.2727   -4.2456    0.0000 O   0  0  0  0  0  0  0  0  0  0  0  0
    7.4149   -4.2655    0.0000 O   0  0  0  0  0  0  0  0  0  0  0  0
    7.4034   -2.6155    0.0000 O   0  0  0  0  0  0  0  0  0  0  0  0
    9.5496   -3.0131    0.0000 C   0  0  2  0  0  0  0  0  0  0  0  0
    9.5554   -3.8381    0.0000 C   0  0  2  0  0  0  0  0  0  0  0  0
    8.8438   -4.2555    0.0000 C   0  0  1  0  0  0  0  0  0  0  0  0
    8.1264   -3.8480    0.0000 C   0  0  2  0  0  0  0  0  0  0  0  0
    8.1207   -3.0230    0.0000 C   0  0  0  0  0  0  0  0  0  0  0  0
    8.8323   -2.6056    0.0000 O   0  0  0  0  0  0  0  0  0  0  0  0
 31 23  1  6  0  0  0
 23 21  1  0  0  0  0
 20  1  1  6  0  0  0
 18  2  1  6  0  0  0
 17  4  1  1  0  0  0
  4  3  1  0  0  0  0
 19 16  1  1  0  0  0
 16 14  1  0  0  0  0
 13  5  1  6  0  0  0
 12  6  1  1  0  0  0
 11  7  1  6  0  0  0
 10  9  1  1  0  0  0
  9  8  1  0  0  0  0
 15 10  1  0  0  0  0
 11 10  1  0  0  0  0
 12 11  1  0  0  0  0
 13 12  1  0  0  0  0
 14 13  1  0  0  0  0
 15 14  1  0  0  0  0
 22 17  1  0  0  0  0
 18 17  1  0  0  0  0
 19 18  1  0  0  0  0
 20 19  1  0  0  0  0
 21 20  1  0  0  0  0
 22 21  1  0  0  0  0
 29 25  1  6  0  0  0
 25 24  1  0  0  0  0
 30 26  1  1  0  0  0
 32 27  1  1  0  0  0
 33 28  1  0  0  0  0
 34 29  1  0  0  0  0
 30 29  1  0  0  0  0
 31 30  1  0  0  0  0
 32 31  1  0  0  0  0
 33 32  1  0  0  0  0
 34 33  1  0  0  0  0
M  END
>  <cdx:fragmentId>
43

$$$$
