439315.cdx
  Mrv1902 05222410252D          

 13 12  0  0  0  0            999 V2000
    7.9368   -5.0582    0.0000 C   0  0  0  0  0  0  0  0  0  0  0  0
    7.2224   -5.4707    0.0000 C   0  0  1  0  0  0  0  0  0  0  0  0
    7.2224   -6.2957    0.0000 O   0  0  0  0  0  0  0  0  0  0  0  0
    6.5079   -5.0582    0.0000 C   0  0  2  0  0  0  0  0  0  0  0  0
    6.5079   -4.2332    0.0000 O   0  0  0  0  0  0  0  0  0  0  0  0
    5.7934   -5.4707    0.0000 C   0  0  2  0  0  0  0  0  0  0  0  0
    5.7934   -6.2957    0.0000 O   0  0  0  0  0  0  0  0  0  0  0  0
    5.0789   -5.0582    0.0000 C   0  0  2  0  0  0  0  0  0  0  0  0
    5.0789   -4.2332    0.0000 O   0  0  0  0  0  0  0  0  0  0  0  0
    4.3645   -5.4707    0.0000 C   0  0  0  0  0  0  0  0  0  0  0  0
    3.6500   -5.0582    0.0000 O   0  0  0  0  0  0  0  0  0  0  0  0
    7.9368   -4.2332    0.0000 O   0  0  0  0  0  0  0  0  0  0  0  0
    8.6513   -5.4707    0.0000 O   0  0  0  0  0  0  0  0  0  0  0  0
  1  2  1  0  0  0  0
  2  3  1  1  0  0  0
  2  4  1  0  0  0  0
  4  5  1  1  0  0  0
  4  6  1  0  0  0  0
  6  7  1  6  0  0  0
  6  8  1  0  0  0  0
  8  9  1  1  0  0  0
  8 10  1  0  0  0  0
 10 11  1  0  0  0  0
  1 12  2  0  0  0  0
  1 13  1  0  0  0  0
M  END
>  <cdx:groupId>
3871

>  <cdx:fragmentId>
3836

$$$$
