439493.cdx
  Mrv1902 05222410222D          

 21 23  0  0  0  0            999 V2000
    9.3225   -4.3275    0.0000 O   0  0  0  0  0  0  0  0  0  0  0  0
   10.7608   -5.1361    0.0000 O   0  0  0  0  0  0  0  0  0  0  0  0
    8.6222   -5.5731    0.0000 C   0  0  0  0  0  0  0  0  0  0  0  0
    9.3320   -5.1525    0.0000 C   0  0  0  0  0  0  0  0  0  0  0  0
   10.0511   -5.5568    0.0000 C   0  0  0  0  0  0  0  0  0  0  0  0
   10.0605   -6.3817    0.0000 C   0  0  0  0  0  0  0  0  0  0  0  0
    9.3508   -6.8024    0.0000 C   0  0  0  0  0  0  0  0  0  0  0  0
    8.6317   -6.3981    0.0000 C   0  0  0  0  0  0  0  0  0  0  0  0
    8.6505   -8.0479    0.0000 O   0  0  0  0  0  0  0  0  0  0  0  0
    4.3451   -6.4470    0.0000 O   0  0  0  0  0  0  0  0  0  0  0  0
    7.2311   -8.8892    0.0000 O   0  0  0  0  0  0  0  0  0  0  0  0
    7.2028   -6.4144    0.0000 O   0  0  0  0  0  0  0  0  0  0  0  0
    6.4931   -6.8350    0.0000 C   0  0  0  0  0  0  0  0  0  0  0  0
    5.7740   -6.4307    0.0000 C   0  0  0  0  0  0  0  0  0  0  0  0
    5.0643   -6.8513    0.0000 C   0  0  0  0  0  0  0  0  0  0  0  0
    5.0737   -7.6763    0.0000 C   0  0  0  0  0  0  0  0  0  0  0  0
    5.7928   -8.0806    0.0000 C   0  0  0  0  0  0  0  0  0  0  0  0
    6.5025   -7.6600    0.0000 C   0  0  0  0  0  0  0  0  0  0  0  0
    7.2217   -8.0643    0.0000 C   0  0  0  0  0  0  0  0  0  0  0  0
    7.9314   -7.6436    0.0000 C   0  0  1  0  0  0  0  0  0  0  0  0
    7.9220   -6.8187    0.0000 C   0  0  1  0  0  0  0  0  0  0  0  0
  4  1  1  0  0  0  0
 21  8  1  6  0  0  0
  5  2  1  0  0  0  0
  8  3  2  0  0  0  0
  4  3  1  0  0  0  0
  5  4  2  0  0  0  0
  6  5  1  0  0  0  0
  7  6  2  0  0  0  0
  8  7  1  0  0  0  0
 20  9  1  1  0  0  0
 15 10  1  0  0  0  0
 19 11  2  0  0  0  0
 21 12  1  0  0  0  0
 13 12  1  0  0  0  0
 18 13  2  0  0  0  0
 14 13  1  0  0  0  0
 15 14  2  0  0  0  0
 16 15  1  0  0  0  0
 17 16  2  0  0  0  0
 18 17  1  0  0  0  0
 19 18  1  0  0  0  0
 20 19  1  0  0  0  0
 21 20  1  0  0  0  0
M  END
>  <cdx:fragmentId>
5

$$$$
