439451.cdx
  Mrv1902 05222410222D          

 23 24  0  0  0  0            999 V2000
    8.8539   -4.7844    0.0000 O   0  0  0  0  0  0  0  0  0  0  0  0
   10.2829   -5.6094    0.0000 O   0  0  0  0  0  0  0  0  0  0  0  0
   10.2829   -7.2594    0.0000 O   0  0  0  0  0  0  0  0  0  0  0  0
    9.5684   -8.4969    0.0000 O   0  0  0  0  0  0  0  0  0  0  0  0
    8.8539   -8.0844    0.0000 C   0  0  0  0  0  0  0  0  0  0  0  0
    8.8539   -7.2594    0.0000 C   0  0  2  0  0  0  0  0  0  0  0  0
    9.5684   -6.8469    0.0000 C   0  0  1  0  0  0  0  0  0  0  0  0
    9.5684   -6.0219    0.0000 C   0  0  1  0  0  0  0  0  0  0  0  0
    8.8539   -5.6094    0.0000 C   0  0  2  0  0  0  0  0  0  0  0  0
    8.1395   -6.0219    0.0000 C   0  0  2  0  0  0  0  0  0  0  0  0
    8.1395   -6.8469    0.0000 O   0  0  0  0  0  0  0  0  0  0  0  0
    7.4250   -5.6094    0.0000 O   0  0  0  0  0  0  0  0  0  0  0  0
    7.4250   -7.2594    0.0000 O   0  0  0  0  0  0  0  0  0  0  0  0
    5.9961   -8.0844    0.0000 O   0  0  0  0  0  0  0  0  0  0  0  0
    4.5671   -7.2594    0.0000 O   0  0  0  0  0  0  0  0  0  0  0  0
    4.5671   -5.6094    0.0000 O   0  0  0  0  0  0  0  0  0  0  0  0
    5.9961   -4.7844    0.0000 O   0  0  0  0  0  0  0  0  0  0  0  0
    6.7105   -6.0219    0.0000 C   0  0  2  0  0  0  0  0  0  0  0  0
    6.7105   -6.8469    0.0000 C   0  0  2  0  0  0  0  0  0  0  0  0
    5.9961   -7.2594    0.0000 C   0  0  1  0  0  0  0  0  0  0  0  0
    5.2816   -6.8469    0.0000 C   0  0  2  0  0  0  0  0  0  0  0  0
    5.2816   -6.0219    0.0000 C   0  0  1  0  0  0  0  0  0  0  0  0
    5.9961   -5.6094    0.0000 C   0  0  2  0  0  0  0  0  0  0  0  0
 18 12  1  6  0  0  0
 10 12  1  6  0  0  0
  9  1  1  6  0  0  0
  8  2  1  1  0  0  0
  7  3  1  1  0  0  0
  6  5  1  1  0  0  0
  5  4  1  0  0  0  0
 11  6  1  0  0  0  0
  7  6  1  0  0  0  0
  8  7  1  0  0  0  0
  9  8  1  0  0  0  0
 10  9  1  0  0  0  0
 11 10  1  0  0  0  0
 19 13  1  1  0  0  0
 20 14  1  6  0  0  0
 21 15  1  1  0  0  0
 22 16  1  6  0  0  0
 23 17  1  6  0  0  0
 23 18  1  0  0  0  0
 19 18  1  0  0  0  0
 20 19  1  0  0  0  0
 21 20  1  0  0  0  0
 22 21  1  0  0  0  0
 23 22  1  0  0  0  0
M  END
>  <cdx:fragmentId>
29

$$$$
