439501.cdx
  Mrv1902 05222410242D          

 43 48  0  0  0  0            999 V2000
   10.6611   -5.7081    0.0000 O   0  0  0  0  0  0  0  0  0  0  0  0
   10.1761   -6.3756    0.0000 C   0  0  0  0  0  0  0  0  0  0  0  0
   10.6611   -7.0430    0.0000 C   0  0  0  0  0  0  0  0  0  0  0  0
   11.4457   -6.7881    0.0000 C   0  0  0  0  0  0  0  0  0  0  0  0
   11.4457   -5.9631    0.0000 C   0  0  0  0  0  0  0  0  0  0  0  0
   12.1131   -5.4781    0.0000 O   0  0  0  0  0  0  0  0  0  0  0  0
    6.7636   -8.9076    0.0000 C   0  0  2  0  0  0  0  0  0  0  0  0
    6.0491   -9.3201    0.0000 C   0  0  0  0  0  0  0  0  0  0  0  0
    6.0491  -10.1451    0.0000 C   0  0  1  0  0  0  0  0  0  0  0  0
    6.7636  -10.5576    0.0000 C   0  0  0  0  0  0  0  0  0  0  0  0
    7.4781  -10.1451    0.0000 C   0  0  1  0  0  0  0  0  0  0  0  0
    8.1926  -10.5576    0.0000 C   0  0  0  0  0  0  0  0  0  0  0  0
    8.9070  -10.1451    0.0000 C   0  0  0  0  0  0  0  0  0  0  0  0
    8.9070   -9.3201    0.0000 C   0  0  1  0  0  0  0  0  0  0  0  0
    9.6215   -8.9076    0.0000 C   0  0  1  0  0  0  0  0  0  0  0  0
   10.4061   -9.1625    0.0000 C   0  0  0  0  0  0  0  0  0  0  0  0
   10.8910   -8.4951    0.0000 C   0  0  0  0  0  0  0  0  0  0  0  0
   10.4061   -7.8276    0.0000 C   0  0  1  0  0  0  0  0  0  0  0  0
    9.6215   -8.0826    0.0000 C   0  0  1  0  0  0  0  0  0  0  0  0
    8.9070   -7.6701    0.0000 C   0  0  0  0  0  0  0  0  0  0  0  0
    8.1926   -8.0826    0.0000 C   0  0  2  0  0  0  0  0  0  0  0  0
    8.1926   -8.9076    0.0000 C   0  0  2  0  0  0  0  0  0  0  0  0
    7.4781   -9.3201    0.0000 C   0  0  1  0  0  0  0  0  0  0  0  0
    9.7077   -7.2621    0.0000 C   0  0  0  0  0  0  0  0  0  0  0  0
    9.6215   -9.7326    0.0000 O   0  0  0  0  0  0  0  0  0  0  0  0
    7.4781  -10.9701    0.0000 O   0  0  0  0  0  0  0  0  0  0  0  0
    6.6203   -8.0951    0.0000 O   0  0  0  0  0  0  0  0  0  0  0  0
    8.9070   -8.4951    0.0000 H   0  0  0  0  0  0  0  0  0  0  0  0
    8.1926   -9.7326    0.0000 H   0  0  0  0  0  0  0  0  0  0  0  0
    3.9062  -11.3833    0.0000 O   0  0  0  0  0  0  0  0  0  0  0  0
    2.4768  -10.5591    0.0000 O   0  0  0  0  0  0  0  0  0  0  0  0
    2.4759   -8.9091    0.0000 O   0  0  0  0  0  0  0  0  0  0  0  0
    3.9044   -8.0833    0.0000 C   0  0  0  0  0  0  0  0  0  0  0  0
    3.9048   -8.9083    0.0000 C   0  0  1  0  0  0  0  0  0  0  0  0
    3.1906   -9.3212    0.0000 C   0  0  1  0  0  0  0  0  0  0  0  0
    3.1910  -10.1462    0.0000 C   0  0  2  0  0  0  0  0  0  0  0  0
    3.9057  -10.5583    0.0000 C   0  0  2  0  0  0  0  0  0  0  0  0
    4.6200  -10.1455    0.0000 C   0  0  1  0  0  0  0  0  0  0  0  0
    4.6195   -9.3205    0.0000 O   0  0  0  0  0  0  0  0  0  0  0  0
    5.3347  -10.5576    0.0000 O   0  0  0  0  0  0  0  0  0  0  0  0
    7.4781   -7.6701    0.0000 O   0  0  0  0  0  0  0  0  0  0  0  0
    7.4781   -8.4951    0.0000 C   0  0  0  0  0  0  0  0  0  0  0  0
    6.8947   -7.9117    0.0000 O   0  0  0  0  0  0  0  0  0  0  0  0
 38 40  1  1  0  0  0
 37 30  1  6  0  0  0
 36 31  1  6  0  0  0
 35 32  1  1  0  0  0
 34 33  1  6  0  0  0
 39 34  1  0  0  0  0
 35 34  1  0  0  0  0
 36 35  1  0  0  0  0
 37 36  1  0  0  0  0
 38 37  1  0  0  0  0
 39 38  1  0  0  0  0
  1  2  1  0  0  0  0
  2  3  1  0  0  0  0
  3  4  2  0  0  0  0
  4  5  1  0  0  0  0
  1  5  1  0  0  0  0
  5  6  2  0  0  0  0
  7  8  1  0  0  0  0
  8  9  1  0  0  0  0
  9 10  1  0  0  0  0
 10 11  1  0  0  0  0
 11 12  1  0  0  0  0
 12 13  1  0  0  0  0
 13 14  1  0  0  0  0
 14 15  1  0  0  0  0
 15 16  1  0  0  0  0
 16 17  1  0  0  0  0
 17 18  1  0  0  0  0
 18 19  1  0  0  0  0
 15 19  1  0  0  0  0
 19 20  1  0  0  0  0
 20 21  1  0  0  0  0
 21 22  1  0  0  0  0
 14 22  1  0  0  0  0
 22 23  1  0  0  0  0
 11 23  1  0  0  0  0
  7 23  1  0  0  0  0
  9 40  1  1  0  0  0
 19 24  1  1  0  0  0
 15 25  1  1  0  0  0
 11 26  1  1  0  0  0
  7 27  1  1  0  0  0
 18  3  1  1  0  0  0
 14 28  1  1  0  0  0
 22 29  1  6  0  0  0
 21 41  1  6  0  0  0
 23 42  1  1  0  0  0
 42 43  1  0  0  0  0
M  END
>  <cdx:fragmentId>
17

$$$$
