439559.cdx
  Mrv1902 05222410282D          

 23 24  0  0  0  0            999 V2000
    7.7880   -6.6815    0.0000 C   0  0  0  0  0  0  0  0  0  0  0  0
    7.7965   -9.1565    0.0000 O   0  0  0  0  0  0  0  0  0  0  0  0
    6.3704   -9.9864    0.0000 O   0  0  0  0  0  0  0  0  0  0  0  0
    4.9387   -9.1663    0.0000 O   0  0  0  0  0  0  0  0  0  0  0  0
    4.2199   -7.9313    0.0000 O   0  0  0  0  0  0  0  0  0  0  0  0
    4.9330   -7.5163    0.0000 C   0  0  0  0  0  0  0  0  0  0  0  0
    5.6489   -7.9264    0.0000 C   0  0  2  0  0  0  0  0  0  0  0  0
    5.6517   -8.7513    0.0000 C   0  0  2  0  0  0  0  0  0  0  0  0
    6.3676   -9.1614    0.0000 C   0  0  1  0  0  0  0  0  0  0  0  0
    7.0806   -8.7464    0.0000 C   0  0  2  0  0  0  0  0  0  0  0  0
    7.0778   -7.9214    0.0000 C   0  0  2  0  0  0  0  0  0  0  0  0
    6.3619   -7.5114    0.0000 O   0  0  0  0  0  0  0  0  0  0  0  0
    7.7909   -7.5065    0.0000 O   0  0  0  0  0  0  0  0  0  0  0  0
    8.5011   -6.2665    0.0000 C   0  0  2  0  0  0  0  0  0  0  0  0
    9.2559   -6.5995    0.0000 C   0  0  2  0  0  0  0  0  0  0  0  0
    9.8058   -5.9845    0.0000 C   0  0  1  0  0  0  0  0  0  0  0  0
    9.3908   -5.2715    0.0000 C   0  0  0  0  0  0  0  0  0  0  0  0
    8.5845   -5.4458    0.0000 O   0  0  0  0  0  0  0  0  0  0  0  0
   10.6266   -6.0679    0.0000 O   0  0  0  0  0  0  0  0  0  0  0  0
    9.4302   -7.4059    0.0000 O   0  0  0  0  0  0  0  0  0  0  0  0
    9.1773   -4.4746    0.0000 O   0  0  0  0  0  0  0  0  0  0  0  0
    9.9742   -4.6881    0.0000 C   0  0  0  0  0  0  0  0  0  0  0  0
    9.7607   -3.8912    0.0000 O   0  0  0  0  0  0  0  0  0  0  0  0
 11 13  1  6  0  0  0
 10  2  1  6  0  0  0
  9  3  1  1  0  0  0
  8  4  1  6  0  0  0
  7  6  1  1  0  0  0
  6  5  1  0  0  0  0
 12  7  1  0  0  0  0
  8  7  1  0  0  0  0
  9  8  1  0  0  0  0
 10  9  1  0  0  0  0
 11 10  1  0  0  0  0
 12 11  1  0  0  0  0
  1 13  1  0  0  0  0
 14  1  1  1  0  0  0
 14 15  1  0  0  0  0
 15 16  1  0  0  0  0
 16 17  1  0  0  0  0
 17 18  1  0  0  0  0
 18 14  1  0  0  0  0
 16 19  1  1  0  0  0
 15 20  1  6  0  0  0
 17 21  1  0  0  0  0
 17 22  1  0  0  0  0
 22 23  1  0  0  0  0
M  END
>  <cdx:groupId>
1522

>  <cdx:fragmentId>
1475

$$$$
