439503.cdx
  Mrv1902 05222410232D          

 20 21  0  0  0  0            999 V2000
    4.7761   -6.3040    0.0000 O   0  0  0  0  0  0  0  0  0  0  0  0
    5.4958   -5.9007    0.0000 C   0  0  0  0  0  0  0  0  0  0  0  0
    6.2050   -6.3222    0.0000 C   0  0  1  0  0  0  0  0  0  0  0  0
    6.9246   -5.9189    0.0000 O   0  0  0  0  0  0  0  0  0  0  0  0
    7.6338   -6.3404    0.0000 C   0  0  1  0  0  0  0  0  0  0  0  0
    8.3535   -5.9371    0.0000 O   0  0  0  0  0  0  0  0  0  0  0  0
    9.0626   -6.3587    0.0000 C   0  0  0  0  0  0  0  0  0  0  0  0
    9.0521   -7.1836    0.0000 C   0  0  0  0  0  0  0  0  0  0  0  0
    9.7613   -7.6052    0.0000 C   0  0  0  0  0  0  0  0  0  0  0  0
   10.4809   -7.2018    0.0000 C   0  0  0  0  0  0  0  0  0  0  0  0
   10.4914   -6.3769    0.0000 C   0  0  0  0  0  0  0  0  0  0  0  0
    9.7823   -5.9553    0.0000 C   0  0  0  0  0  0  0  0  0  0  0  0
    9.7928   -5.1304    0.0000 C   0  0  0  0  0  0  0  0  0  0  0  0
   10.5125   -4.7270    0.0000 O   0  0  0  0  0  0  0  0  0  0  0  0
    7.6233   -7.1654    0.0000 C   0  0  2  0  0  0  0  0  0  0  0  0
    8.3324   -7.5870    0.0000 O   0  0  0  0  0  0  0  0  0  0  0  0
    6.9036   -7.5687    0.0000 C   0  0  1  0  0  0  0  0  0  0  0  0
    6.8931   -8.3937    0.0000 O   0  0  0  0  0  0  0  0  0  0  0  0
    6.1944   -7.1472    0.0000 C   0  0  2  0  0  0  0  0  0  0  0  0
    5.4748   -7.5505    0.0000 O   0  0  0  0  0  0  0  0  0  0  0  0
  1  2  1  0  0  0  0
  3  2  1  1  0  0  0
  3  4  1  0  0  0  0
  4  5  1  0  0  0  0
  5  6  1  1  0  0  0
  6  7  1  0  0  0  0
  7  8  2  0  0  0  0
  8  9  1  0  0  0  0
  9 10  2  0  0  0  0
 10 11  1  0  0  0  0
 11 12  2  0  0  0  0
  7 12  1  0  0  0  0
 12 13  1  0  0  0  0
 13 14  1  0  0  0  0
  5 15  1  0  0  0  0
 15 16  1  6  0  0  0
 15 17  1  0  0  0  0
 17 18  1  1  0  0  0
 17 19  1  0  0  0  0
  3 19  1  0  0  0  0
 19 20  1  6  0  0  0
M  END
>  <cdx:groupId>
4252

>  <cdx:fragmentId>
4194

$$$$
