439507.cdx
  Mrv1902 05222410252D          

 12 12  0  0  0  0            999 V2000
    7.0678   -7.5647    0.0000 O   0  0  0  0  0  0  0  0  0  0  0  0
    6.3533   -7.1522    0.0000 C   0  0  0  0  0  0  0  0  0  0  0  0
    6.3533   -6.3272    0.0000 C   0  0  1  0  0  0  0  0  0  0  0  0
    7.0678   -5.9147    0.0000 C   0  0  1  0  0  0  0  0  0  0  0  0
    7.7822   -6.3272    0.0000 C   0  0  1  0  0  0  0  0  0  0  0  0
    7.7822   -7.1522    0.0000 C   0  0  1  0  0  0  0  0  0  0  0  0
    5.6388   -7.5647    0.0000 O   0  0  0  0  0  0  0  0  0  0  0  0
    5.6388   -5.9147    0.0000 O   0  0  0  0  0  0  0  0  0  0  0  0
    7.0678   -5.0897    0.0000 O   0  0  0  0  0  0  0  0  0  0  0  0
    8.4967   -5.9147    0.0000 O   0  0  0  0  0  0  0  0  0  0  0  0
    8.4967   -7.5647    0.0000 C   0  0  0  0  0  0  0  0  0  0  0  0
    9.2112   -7.1522    0.0000 O   0  0  0  0  0  0  0  0  0  0  0  0
  1  2  1  0  0  0  0
  2  3  1  0  0  0  0
  3  4  1  0  0  0  0
  4  5  1  0  0  0  0
  5  6  1  0  0  0  0
  1  6  1  0  0  0  0
  2  7  1  0  0  0  0
  3  8  1  6  0  0  0
  4  9  1  6  0  0  0
  5 10  1  6  0  0  0
 11 12  1  0  0  0  0
  6 11  1  1  0  0  0
M  END
>  <cdx:groupId>
38

>  <cdx:fragmentId>
5

$$$$
