439534.cdx
  Mrv1902 05222410212D          

 32 35  0  0  0  0            999 V2000
   14.4012  -14.4450    0.0000 C   0  0  0  0  0  0  0  0  0  0  0  0
   14.4012  -13.6105    0.0000 C   0  0  0  0  0  0  0  0  0  0  0  0
   13.6895  -13.1933    0.0000 C   0  0  0  0  0  0  0  0  0  0  0  0
   12.9777  -13.6105    0.0000 C   0  0  0  0  0  0  0  0  0  0  0  0
   12.9777  -14.4450    0.0000 C   0  0  0  0  0  0  0  0  0  0  0  0
   13.6895  -14.8622    0.0000 C   0  0  0  0  0  0  0  0  0  0  0  0
   15.1129  -14.8622    0.0000 C   0  0  0  0  0  0  0  0  0  0  0  0
   15.8247  -14.4450    0.0000 C   0  0  0  0  0  0  0  0  0  0  0  0
   15.8247  -13.6105    0.0000 C   0  0  2  0  0  0  0  0  0  0  0  0
   15.1129  -13.1933    0.0000 O   0  0  0  0  0  0  0  0  0  0  0  0
   16.5363  -13.1933    0.0000 C   0  0  0  0  0  0  0  0  0  0  0  0
   17.2481  -13.6105    0.0000 C   0  0  0  0  0  0  0  0  0  0  0  0
   17.9598  -13.1933    0.0000 C   0  0  0  0  0  0  0  0  0  0  0  0
   17.9598  -12.3835    0.0000 C   0  0  0  0  0  0  0  0  0  0  0  0
   17.2481  -11.9662    0.0000 C   0  0  0  0  0  0  0  0  0  0  0  0
   16.5363  -12.3835    0.0000 C   0  0  0  0  0  0  0  0  0  0  0  0
   17.2481  -11.1565    0.0000 O   0  0  0  0  0  0  0  0  0  0  0  0
   18.6715  -11.9662    0.0000 O   0  0  0  0  0  0  0  0  0  0  0  0
   16.5363  -14.8622    0.0000 O   0  0  0  0  0  0  0  0  0  0  0  0
   15.1129  -15.6722    0.0000 O   0  0  0  0  0  0  0  0  0  0  0  0
   13.6895  -15.6722    0.0000 O   0  0  0  0  0  0  0  0  0  0  0  0
   12.2660  -13.1933    0.0000 O   0  0  0  0  0  0  0  0  0  0  0  0
   15.8316  -16.9299    0.0000 C   0  0  1  0  0  0  0  0  0  0  0  0
   16.5466  -17.3415    0.0000 C   0  0  1  0  0  0  0  0  0  0  0  0
   17.2605  -16.9282    0.0000 C   0  0  2  0  0  0  0  0  0  0  0  0
   17.2595  -16.1032    0.0000 C   0  0  2  0  0  0  0  0  0  0  0  0
   16.5446  -15.6915    0.0000 C   0  0  1  0  0  0  0  0  0  0  0  0
   15.8306  -16.1049    0.0000 O   0  0  0  0  0  0  0  0  0  0  0  0
   17.9755  -17.3398    0.0000 O   0  0  0  0  0  0  0  0  0  0  0  0
   16.5476  -18.1665    0.0000 O   0  0  0  0  0  0  0  0  0  0  0  0
   15.1176  -17.3433    0.0000 C   0  0  0  0  0  0  0  0  0  0  0  0
   17.9735  -15.6898    0.0000 O   0  0  0  0  0  0  0  0  0  0  0  0
  1  2  2  0  0  0  0
  2  3  1  0  0  0  0
  3  4  2  0  0  0  0
  4  5  1  0  0  0  0
  5  6  2  0  0  0  0
  1  6  1  0  0  0  0
  1  7  1  0  0  0  0
  7  8  1  0  0  0  0
  8  9  1  0  0  0  0
  9 10  1  0  0  0  0
  2 10  1  0  0  0  0
  9 11  1  6  0  0  0
 11 12  2  0  0  0  0
 12 13  1  0  0  0  0
 13 14  2  0  0  0  0
 14 15  1  0  0  0  0
 15 16  2  0  0  0  0
 11 16  1  0  0  0  0
 15 17  1  0  0  0  0
 14 18  1  0  0  0  0
  8 19  1  0  0  0  0
  7 20  2  0  0  0  0
  6 21  1  0  0  0  0
  4 22  1  0  0  0  0
 23 24  1  0  0  0  0
 24 25  1  0  0  0  0
 25 26  1  0  0  0  0
 26 27  1  0  0  0  0
 27 28  1  0  0  0  0
 28 23  1  0  0  0  0
 25 29  1  6  0  0  0
 24 30  1  1  0  0  0
 23 31  1  6  0  0  0
 26 32  1  6  0  0  0
 27 19  1  1  0  0  0
M  END
>  <cdx:fragmentId>
4314

$$$$
