439602.cdx
  Mrv1902 05222410262D          

 32 34  0  0  0  0            999 V2000
    5.0738   -6.8469    0.0000 O   0  0  0  0  0  0  0  0  0  0  0  0
    4.3594   -7.2594    0.0000 C   0  0  1  0  0  0  0  0  0  0  0  0
    3.6449   -6.8469    0.0000 C   0  0  2  0  0  0  0  0  0  0  0  0
    3.6449   -6.0219    0.0000 C   0  0  1  0  0  0  0  0  0  0  0  0
    4.3594   -5.6094    0.0000 C   0  0  2  0  0  0  0  0  0  0  0  0
    5.0738   -6.0219    0.0000 C   0  0  1  0  0  0  0  0  0  0  0  0
    2.9304   -7.2594    0.0000 O   0  0  0  0  0  0  0  0  0  0  0  0
    2.9304   -5.6094    0.0000 O   0  0  0  0  0  0  0  0  0  0  0  0
    4.3594   -8.0844    0.0000 C   0  0  0  0  0  0  0  0  0  0  0  0
    3.6449   -8.4969    0.0000 O   0  0  0  0  0  0  0  0  0  0  0  0
    5.7883   -5.6094    0.0000 O   0  0  0  0  0  0  0  0  0  0  0  0
    6.5028   -6.0219    0.0000 C   0  0  1  0  0  0  0  0  0  0  0  0
    7.2172   -5.6094    0.0000 C   0  0  1  0  0  0  0  0  0  0  0  0
    7.9317   -6.0219    0.0000 C   0  0  2  0  0  0  0  0  0  0  0  0
    7.9317   -6.8469    0.0000 C   0  0  1  0  0  0  0  0  0  0  0  0
    7.2172   -7.2594    0.0000 C   0  0  0  0  0  0  0  0  0  0  0  0
    6.5028   -6.8469    0.0000 C   0  0  2  0  0  0  0  0  0  0  0  0
    7.2172   -4.7844    0.0000 O   0  0  0  0  0  0  0  0  0  0  0  0
    8.6462   -5.6094    0.0000 O   0  0  0  0  0  0  0  0  0  0  0  0
    9.3607   -6.8469    0.0000 O   0  0  0  0  0  0  0  0  0  0  0  0
    9.3607   -6.0219    0.0000 C   0  0  2  0  0  0  0  0  0  0  0  0
   10.0751   -5.6094    0.0000 C   0  0  2  0  0  0  0  0  0  0  0  0
   10.7896   -6.0219    0.0000 C   0  0  1  0  0  0  0  0  0  0  0  0
   10.7896   -6.8469    0.0000 C   0  0  2  0  0  0  0  0  0  0  0  0
   10.0751   -7.2594    0.0000 C   0  0  0  0  0  0  0  0  0  0  0  0
   11.5041   -5.6094    0.0000 N   0  0  0  0  0  0  0  0  0  0  0  0
   12.2185   -6.0219    0.0000 C   0  0  0  0  0  0  0  0  0  0  0  0
   11.5041   -7.2594    0.0000 O   0  0  0  0  0  0  0  0  0  0  0  0
   10.0751   -4.7844    0.0000 O   0  0  0  0  0  0  0  0  0  0  0  0
    5.7883   -7.2594    0.0000 N   0  0  0  0  0  0  0  0  0  0  0  0
    8.6462   -7.2594    0.0000 N   0  0  0  0  0  0  0  0  0  0  0  0
    4.3594   -4.7844    0.0000 N   0  0  0  0  0  0  0  0  0  0  0  0
  1  2  1  0  0  0  0
  2  3  1  0  0  0  0
  3  4  1  0  0  0  0
  4  5  1  0  0  0  0
  5  6  1  0  0  0  0
  1  6  1  0  0  0  0
  3  7  1  1  0  0  0
  4  8  1  6  0  0  0
  9 10  1  0  0  0  0
  2  9  1  6  0  0  0
 12 13  1  0  0  0  0
 13 14  1  0  0  0  0
 14 15  1  0  0  0  0
 15 16  1  0  0  0  0
 16 17  1  0  0  0  0
 12 17  1  0  0  0  0
 13 18  1  6  0  0  0
 20 21  1  0  0  0  0
 21 22  1  0  0  0  0
 22 23  1  0  0  0  0
 23 24  1  0  0  0  0
 24 25  1  0  0  0  0
 20 25  1  0  0  0  0
 26 27  1  0  0  0  0
 23 26  1  6  0  0  0
 24 28  1  1  0  0  0
 22 29  1  1  0  0  0
 21 19  1  1  0  0  0
 14 19  1  1  0  0  0
 17 30  1  6  0  0  0
 15 31  1  6  0  0  0
 12 11  1  1  0  0  0
  6 11  1  1  0  0  0
  5 32  1  1  0  0  0
M  END
>  <cdx:groupId>
100

>  <cdx:fragmentId>
43

$$$$
