6439716.cdx
  Mrv1902 05222410242D          

 23 23  0  0  0  0            999 V2000
   10.1014   -9.2157    0.0000 C   0  0  0  0  0  0  0  0  0  0  0  0
    9.3869   -8.8032    0.0000 C   0  0  0  0  0  0  0  0  0  0  0  0
    8.6724   -9.2157    0.0000 C   0  0  0  0  0  0  0  0  0  0  0  0
   10.1014  -10.0407    0.0000 O   0  0  0  0  0  0  0  0  0  0  0  0
   10.8159   -8.8032    0.0000 O   0  0  0  0  0  0  0  0  0  0  0  0
    7.9580   -8.8032    0.0000 C   0  0  0  0  0  0  0  0  0  0  0  0
    7.2435   -9.2157    0.0000 C   0  0  0  0  0  0  0  0  0  0  0  0
    6.5290   -8.8032    0.0000 C   0  0  0  0  0  0  0  0  0  0  0  0
    6.5290   -7.9782    0.0000 C   0  0  0  0  0  0  0  0  0  0  0  0
    7.2435   -7.5657    0.0000 C   0  0  0  0  0  0  0  0  0  0  0  0
    7.9580   -7.9782    0.0000 C   0  0  0  0  0  0  0  0  0  0  0  0
    7.2435   -6.7407    0.0000 C   0  0  0  0  0  0  0  0  0  0  0  0
    7.9580   -6.3282    0.0000 C   0  0  0  0  0  0  0  0  0  0  0  0
    7.9580   -5.5032    0.0000 C   0  0  0  0  0  0  0  0  0  0  0  0
    7.2435   -5.0907    0.0000 C   0  0  0  0  0  0  0  0  0  0  0  0
    8.6724   -5.0907    0.0000 C   0  0  0  0  0  0  0  0  0  0  0  0
    5.8146   -9.2157    0.0000 C   0  0  0  0  0  0  0  0  0  0  0  0
    5.1001   -8.8032    0.0000 C   0  0  0  0  0  0  0  0  0  0  0  0
    4.3856   -9.2157    0.0000 C   0  0  0  0  0  0  0  0  0  0  0  0
    4.3856  -10.0407    0.0000 C   0  0  0  0  0  0  0  0  0  0  0  0
    3.6711   -8.8032    0.0000 C   0  0  0  0  0  0  0  0  0  0  0  0
    3.6711  -10.4532    0.0000 O   0  0  0  0  0  0  0  0  0  0  0  0
    5.8146   -7.5657    0.0000 O   0  0  0  0  0  0  0  0  0  0  0  0
  1  2  1  0  0  0  0
  2  3  2  0  0  0  0
  1  4  2  0  0  0  0
  1  5  1  0  0  0  0
  6  7  1  0  0  0  0
  7  8  2  0  0  0  0
  8  9  1  0  0  0  0
  9 10  2  0  0  0  0
 10 11  1  0  0  0  0
  6 11  2  0  0  0  0
 12 13  1  0  0  0  0
 13 14  2  0  0  0  0
 14 15  1  0  0  0  0
 14 16  1  0  0  0  0
 10 12  1  0  0  0  0
 17 18  1  0  0  0  0
 18 19  2  0  0  0  0
 19 20  1  0  0  0  0
 19 21  1  0  0  0  0
 20 22  1  0  0  0  0
  8 17  1  0  0  0  0
  9 23  1  0  0  0  0
  3  6  1  0  0  0  0
M  END
>  <cdx:groupId>
16808

>  <cdx:fragmentId>
16752

$$$$
