6439717.cdx
  Mrv1902 05222410242D          

 23 23  0  0  0  0            999 V2000
   10.4586   -9.4220    0.0000 C   0  0  0  0  0  0  0  0  0  0  0  0
    9.7441   -9.0095    0.0000 C   0  0  0  0  0  0  0  0  0  0  0  0
    9.0297   -9.4220    0.0000 C   0  0  0  0  0  0  0  0  0  0  0  0
   10.4586  -10.2470    0.0000 O   0  0  0  0  0  0  0  0  0  0  0  0
   11.1731   -9.0095    0.0000 O   0  0  0  0  0  0  0  0  0  0  0  0
    8.3152   -9.0095    0.0000 C   0  0  0  0  0  0  0  0  0  0  0  0
    7.6007   -9.4220    0.0000 C   0  0  0  0  0  0  0  0  0  0  0  0
    6.8863   -9.0095    0.0000 C   0  0  0  0  0  0  0  0  0  0  0  0
    6.8863   -8.1845    0.0000 C   0  0  0  0  0  0  0  0  0  0  0  0
    7.6007   -7.7720    0.0000 C   0  0  0  0  0  0  0  0  0  0  0  0
    8.3152   -8.1845    0.0000 C   0  0  0  0  0  0  0  0  0  0  0  0
    7.6007   -6.9470    0.0000 C   0  0  0  0  0  0  0  0  0  0  0  0
    8.3152   -6.5345    0.0000 C   0  0  0  0  0  0  0  0  0  0  0  0
    8.3152   -5.7095    0.0000 C   0  0  0  0  0  0  0  0  0  0  0  0
    7.6007   -5.2970    0.0000 C   0  0  0  0  0  0  0  0  0  0  0  0
    9.0297   -5.2970    0.0000 C   0  0  0  0  0  0  0  0  0  0  0  0
    6.1718   -9.4220    0.0000 C   0  0  0  0  0  0  0  0  0  0  0  0
    5.4573   -9.0095    0.0000 C   0  0  0  0  0  0  0  0  0  0  0  0
    4.7429   -9.4220    0.0000 C   0  0  0  0  0  0  0  0  0  0  0  0
    4.0284   -9.0095    0.0000 C   0  0  0  0  0  0  0  0  0  0  0  0
    4.7429  -10.2470    0.0000 C   0  0  0  0  0  0  0  0  0  0  0  0
    3.3139   -9.4220    0.0000 O   0  0  0  0  0  0  0  0  0  0  0  0
    6.1718   -7.7720    0.0000 O   0  0  0  0  0  0  0  0  0  0  0  0
  1  2  1  0  0  0  0
  2  3  2  0  0  0  0
  1  4  2  0  0  0  0
  1  5  1  0  0  0  0
  6  7  1  0  0  0  0
  7  8  2  0  0  0  0
  8  9  1  0  0  0  0
  9 10  2  0  0  0  0
 10 11  1  0  0  0  0
  6 11  2  0  0  0  0
 12 13  1  0  0  0  0
 13 14  2  0  0  0  0
 14 15  1  0  0  0  0
 14 16  1  0  0  0  0
 10 12  1  0  0  0  0
 17 18  1  0  0  0  0
 18 19  2  0  0  0  0
 19 20  1  0  0  0  0
 19 21  1  0  0  0  0
 20 22  1  0  0  0  0
  8 17  1  0  0  0  0
  9 23  1  0  0  0  0
  3  6  1  0  0  0  0
M  END
>  <cdx:groupId>
16959

>  <cdx:fragmentId>
16903

$$$$
