4398.cdx
  Mrv1902 05222410212D          

 21 22  0  0  0  0            999 V2000
    3.8189   -5.9606    0.0000 C   0  0  0  0  0  0  0  0  0  0  0  0
    3.8189   -6.7856    0.0000 C   0  0  0  0  0  0  0  0  0  0  0  0
    4.5334   -7.1981    0.0000 C   0  0  0  0  0  0  0  0  0  0  0  0
    5.2478   -6.7856    0.0000 C   0  0  0  0  0  0  0  0  0  0  0  0
    5.2478   -5.9606    0.0000 C   0  0  0  0  0  0  0  0  0  0  0  0
    4.5334   -5.5481    0.0000 C   0  0  0  0  0  0  0  0  0  0  0  0
    5.9623   -7.1981    0.0000 C   0  0  0  0  0  0  0  0  0  0  0  0
    6.6768   -6.7856    0.0000 C   0  0  0  0  0  0  0  0  0  0  0  0
    6.6768   -5.9606    0.0000 C   0  0  0  0  0  0  0  0  0  0  0  0
    7.3913   -5.5481    0.0000 C   0  0  0  0  0  0  0  0  0  0  0  0
    5.9623   -8.0231    0.0000 O   0  0  0  0  0  0  0  0  0  0  0  0
    8.1057   -5.9606    0.0000 C   0  0  0  0  0  0  0  0  0  0  0  0
    8.8202   -5.5481    0.0000 C   0  0  0  0  0  0  0  0  0  0  0  0
    8.8202   -4.7231    0.0000 C   0  0  0  0  0  0  0  0  0  0  0  0
    8.1057   -4.3106    0.0000 C   0  0  0  0  0  0  0  0  0  0  0  0
    7.3913   -4.7231    0.0000 C   0  0  0  0  0  0  0  0  0  0  0  0
    8.1057   -3.4856    0.0000 O   0  0  0  0  0  0  0  0  0  0  0  0
    3.1044   -5.5481    0.0000 O   0  0  0  0  0  0  0  0  0  0  0  0
    9.5347   -5.9606    0.0000 O   0  0  0  0  0  0  0  0  0  0  0  0
    7.3913   -3.0731    0.0000 C   0  0  0  0  0  0  0  0  0  0  0  0
    3.1044   -4.7231    0.0000 C   0  0  0  0  0  0  0  0  0  0  0  0
  1  2  2  0  0  0  0
  2  3  1  0  0  0  0
  3  4  2  0  0  0  0
  4  5  1  0  0  0  0
  5  6  2  0  0  0  0
  6  1  1  0  0  0  0
  4  7  1  0  0  0  0
  7  8  1  0  0  0  0
  8  9  2  0  0  0  0
  9 10  1  0  0  0  0
  7 11  2  0  0  0  0
 10 12  2  0  0  0  0
 12 13  1  0  0  0  0
 13 14  2  0  0  0  0
 14 15  1  0  0  0  0
 15 16  2  0  0  0  0
 16 10  1  0  0  0  0
 15 17  1  0  0  0  0
  1 18  1  0  0  0  0
 13 19  1  0  0  0  0
 17 20  1  0  0  0  0
 18 21  1  0  0  0  0
M  END
>  <cdx:fragmentId>
5

$$$$
