439946.cdx
  Mrv1902 05222410262D          

 22 24  0  0  0  0            999 V2000
    2.1609   -7.5402    0.0000 C   0  0  0  0  0  0  0  0  0  0  0  0
    1.6088   -8.1533    0.0000 C   0  0  0  0  0  0  0  0  0  0  0  0
    2.0213   -8.8677    0.0000 C   0  0  0  0  0  0  0  0  0  0  0  0
    2.8283   -8.6962    0.0000 C   0  0  0  0  0  0  0  0  0  0  0  0
    3.6290   -6.6382    0.0000 O   0  0  0  0  0  0  0  0  0  0  0  0
    2.9146   -7.8757    0.0000 N   0  0  0  0  0  0  0  0  0  0  0  0
    9.3448   -9.1132    0.0000 C   0  0  0  0  0  0  0  0  0  0  0  0
    8.6303   -8.7007    0.0000 C   0  0  0  0  0  0  0  0  0  0  0  0
    8.6303   -7.8757    0.0000 C   0  0  0  0  0  0  0  0  0  0  0  0
    9.3448   -7.4632    0.0000 C   0  0  0  0  0  0  0  0  0  0  0  0
   10.0593   -8.7007    0.0000 C   0  0  0  0  0  0  0  0  0  0  0  0
   10.0593   -7.8757    0.0000 C   0  0  0  0  0  0  0  0  0  0  0  0
   10.8439   -7.6208    0.0000 O   0  0  0  0  0  0  0  0  0  0  0  0
   11.3288   -8.2882    0.0000 C   0  0  0  0  0  0  0  0  0  0  0  0
   10.8439   -8.9557    0.0000 O   0  0  0  0  0  0  0  0  0  0  0  0
    7.9159   -7.4632    0.0000 C   0  0  0  0  0  0  0  0  0  0  0  0
    7.2014   -7.8757    0.0000 C   0  0  0  0  0  0  0  0  0  0  0  0
    6.4869   -7.4632    0.0000 C   0  0  0  0  0  0  0  0  0  0  0  0
    5.7724   -7.8757    0.0000 C   0  0  0  0  0  0  0  0  0  0  0  0
    5.0580   -7.4632    0.0000 C   0  0  0  0  0  0  0  0  0  0  0  0
    4.3435   -7.8757    0.0000 C   0  0  0  0  0  0  0  0  0  0  0  0
    3.6290   -7.4632    0.0000 C   0  0  0  0  0  0  0  0  0  0  0  0
  1  6  1  0  0  0  0
  2  1  1  0  0  0  0
  3  2  1  0  0  0  0
  4  3  1  0  0  0  0
  6  4  1  0  0  0  0
 22  5  2  0  0  0  0
 22  6  1  0  0  0  0
 16  9  1  0  0  0  0
 10 12  2  0  0  0  0
  7 11  2  0  0  0  0
  8  7  1  0  0  0  0
  9  8  2  0  0  0  0
 10  9  1  0  0  0  0
 15 11  1  0  0  0  0
 12 11  1  0  0  0  0
 13 12  1  0  0  0  0
 14 13  1  0  0  0  0
 15 14  1  0  0  0  0
 17 16  2  0  0  0  0
 18 17  1  0  0  0  0
 19 18  2  0  0  0  0
 20 19  1  0  0  0  0
 21 20  2  0  0  0  0
 22 21  1  0  0  0  0
M  END
>  <cdx:groupId>
17181

>  <cdx:fragmentId>
17107

$$$$
