439947.cdx
  Mrv1902 05222410272D          

 25 27  0  0  0  0            999 V2000
   10.8937   -9.1132    0.0000 C   0  0  0  0  0  0  0  0  0  0  0  0
   10.1792   -8.7007    0.0000 C   0  0  0  0  0  0  0  0  0  0  0  0
   10.1792   -7.8757    0.0000 C   0  0  0  0  0  0  0  0  0  0  0  0
   10.8937   -7.4632    0.0000 C   0  0  0  0  0  0  0  0  0  0  0  0
   11.6081   -8.7007    0.0000 C   0  0  0  0  0  0  0  0  0  0  0  0
   11.6081   -7.8757    0.0000 C   0  0  0  0  0  0  0  0  0  0  0  0
   12.3928   -7.6208    0.0000 O   0  0  0  0  0  0  0  0  0  0  0  0
   12.8777   -8.2882    0.0000 C   0  0  0  0  0  0  0  0  0  0  0  0
   12.3928   -8.9557    0.0000 O   0  0  0  0  0  0  0  0  0  0  0  0
    2.3200   -7.4632    0.0000 C   0  0  0  0  0  0  0  0  0  0  0  0
    1.6055   -7.8757    0.0000 C   0  0  0  0  0  0  0  0  0  0  0  0
    1.6055   -8.7007    0.0000 C   0  0  0  0  0  0  0  0  0  0  0  0
    2.3200   -9.1132    0.0000 C   0  0  0  0  0  0  0  0  0  0  0  0
    3.0345   -8.7007    0.0000 C   0  0  0  0  0  0  0  0  0  0  0  0
    3.0345   -7.8757    0.0000 N   0  0  0  0  0  0  0  0  0  0  0  0
    3.7490   -6.6382    0.0000 O   0  0  0  0  0  0  0  0  0  0  0  0
    9.4647   -7.4632    0.0000 C   0  0  0  0  0  0  0  0  0  0  0  0
    8.7503   -7.8757    0.0000 C   0  0  0  0  0  0  0  0  0  0  0  0
    8.0358   -7.4632    0.0000 C   0  0  0  0  0  0  0  0  0  0  0  0
    7.3213   -7.8757    0.0000 C   0  0  0  0  0  0  0  0  0  0  0  0
    6.6068   -7.4632    0.0000 C   0  0  0  0  0  0  0  0  0  0  0  0
    5.8924   -7.8757    0.0000 C   0  0  0  0  0  0  0  0  0  0  0  0
    5.1779   -7.4632    0.0000 C   0  0  0  0  0  0  0  0  0  0  0  0
    4.4634   -7.8757    0.0000 C   0  0  0  0  0  0  0  0  0  0  0  0
    3.7490   -7.4632    0.0000 C   0  0  0  0  0  0  0  0  0  0  0  0
 17  3  1  0  0  0  0
  4  6  2  0  0  0  0
  1  5  2  0  0  0  0
  2  1  1  0  0  0  0
  3  2  2  0  0  0  0
  4  3  1  0  0  0  0
  9  5  1  0  0  0  0
  6  5  1  0  0  0  0
  7  6  1  0  0  0  0
  8  7  1  0  0  0  0
  9  8  1  0  0  0  0
 25 15  1  0  0  0  0
 15 10  1  0  0  0  0
 11 10  1  0  0  0  0
 12 11  1  0  0  0  0
 13 12  1  0  0  0  0
 14 13  1  0  0  0  0
 15 14  1  0  0  0  0
 25 16  2  0  0  0  0
 18 17  2  0  0  0  0
 19 18  1  0  0  0  0
 20 19  1  0  0  0  0
 21 20  1  0  0  0  0
 22 21  2  0  0  0  0
 23 22  1  0  0  0  0
 24 23  2  0  0  0  0
 25 24  1  0  0  0  0
M  END
>  <cdx:groupId>
17181

>  <cdx:fragmentId>
17107

$$$$
