440078.cdx
  Mrv1902 05222410202D          

 13 13  0  0  0  0            999 V2000
   15.4258  -14.1057    0.0000 C   0  0  2  0  0  0  0  0  0  0  0  0
   14.7113  -13.6932    0.0000 C   0  0  1  0  0  0  0  0  0  0  0  0
   14.7113  -12.8682    0.0000 C   0  0  0  0  0  0  0  0  0  0  0  0
   15.4258  -12.4557    0.0000 C   0  0  1  0  0  0  0  0  0  0  0  0
   16.1403  -12.8682    0.0000 C   0  0  2  0  0  0  0  0  0  0  0  0
   16.1403  -13.6932    0.0000 C   0  0  0  0  0  0  0  0  0  0  0  0
   15.4258  -14.9307    0.0000 O   0  0  0  0  0  0  0  0  0  0  0  0
   13.9969  -14.1057    0.0000 O   0  0  0  0  0  0  0  0  0  0  0  0
   13.9969  -12.4557    0.0000 O   0  0  0  0  0  0  0  0  0  0  0  0
   15.4258  -11.6307    0.0000 O   0  0  0  0  0  0  0  0  0  0  0  0
   16.8548  -12.4557    0.0000 O   0  0  0  0  0  0  0  0  0  0  0  0
   16.8548  -14.1057    0.0000 O   0  0  0  0  0  0  0  0  0  0  0  0
   17.5692  -13.6932    0.0000 C   0  0  0  0  0  0  0  0  0  0  0  0
  1  2  1  0  0  0  0
  2  3  1  0  0  0  0
  3  4  1  0  0  0  0
  4  5  1  0  0  0  0
  5  6  1  0  0  0  0
  1  6  1  0  0  0  0
  1  7  1  6  0  0  0
  2  8  1  6  0  0  0
  3  9  1  0  0  0  0
  4 10  1  6  0  0  0
  5 11  1  1  0  0  0
 12 13  1  0  0  0  0
  6 12  1  0  0  0  0
M  END
>  <cdx:groupId>
4709

>  <cdx:fragmentId>
4673

$$$$
