440140.cdx
  Mrv1902 05222410212D          

 34 36  0  0  0  0            999 V2000
   14.5366  -15.8260    0.0000 O   0  0  0  0  0  0  0  0  0  0  0  0
   15.2040  -15.3411    0.0000 C   0  0  1  0  0  0  0  0  0  0  0  0
   15.9577  -15.6766    0.0000 C   0  0  1  0  0  0  0  0  0  0  0  0
   16.0439  -16.4971    0.0000 C   0  0  2  0  0  0  0  0  0  0  0  0
   15.3765  -16.9820    0.0000 C   0  0  2  0  0  0  0  0  0  0  0  0
   14.6228  -16.6465    0.0000 C   0  0  1  0  0  0  0  0  0  0  0  0
   16.6251  -15.1917    0.0000 O   0  0  0  0  0  0  0  0  0  0  0  0
   16.7976  -16.8327    0.0000 O   0  0  0  0  0  0  0  0  0  0  0  0
   15.4627  -17.8025    0.0000 O   0  0  0  0  0  0  0  0  0  0  0  0
   13.9554  -17.1314    0.0000 C   0  0  0  0  0  0  0  0  0  0  0  0
   13.2017  -16.7959    0.0000 O   0  0  0  0  0  0  0  0  0  0  0  0
   15.1178  -14.5206    0.0000 O   0  0  0  0  0  0  0  0  0  0  0  0
   14.3641  -14.1850    0.0000 C   0  0  0  0  0  0  0  0  0  0  0  0
   14.8910  -12.8125    0.0000 O   0  0  0  0  0  0  0  0  0  0  0  0
   14.2779  -13.3646    0.0000 C   0  0  1  0  0  0  0  0  0  0  0  0
   13.5634  -12.9521    0.0000 C   0  0  2  0  0  0  0  0  0  0  0  0
   13.7349  -12.1451    0.0000 C   0  0  1  0  0  0  0  0  0  0  0  0
   14.5554  -12.0589    0.0000 C   0  0  2  0  0  0  0  0  0  0  0  0
   14.5554  -11.2339    0.0000 O   0  0  0  0  0  0  0  0  0  0  0  0
   15.9844  -11.2339    0.0000 O   0  0  0  0  0  0  0  0  0  0  0  0
   15.2699  -10.8214    0.0000 C   0  0  1  0  0  0  0  0  0  0  0  0
   15.2699   -9.9964    0.0000 C   0  0  1  0  0  0  0  0  0  0  0  0
   15.9844   -9.5839    0.0000 C   0  0  2  0  0  0  0  0  0  0  0  0
   16.6988   -9.9964    0.0000 C   0  0  1  0  0  0  0  0  0  0  0  0
   16.6988  -10.8214    0.0000 C   0  0  1  0  0  0  0  0  0  0  0  0
   17.4133  -11.2339    0.0000 C   0  0  0  0  0  0  0  0  0  0  0  0
   18.1278  -10.8214    0.0000 O   0  0  0  0  0  0  0  0  0  0  0  0
   17.4133   -9.5839    0.0000 O   0  0  0  0  0  0  0  0  0  0  0  0
   15.9844   -8.7589    0.0000 O   0  0  0  0  0  0  0  0  0  0  0  0
   14.5554   -9.5839    0.0000 O   0  0  0  0  0  0  0  0  0  0  0  0
   15.2699  -11.6464    0.0000 C   0  0  0  0  0  0  0  0  0  0  0  0
   15.9844  -12.0589    0.0000 O   0  0  0  0  0  0  0  0  0  0  0  0
   13.1829  -11.5320    0.0000 O   0  0  0  0  0  0  0  0  0  0  0  0
   12.8097  -13.2876    0.0000 O   0  0  0  0  0  0  0  0  0  0  0  0
  1  2  1  0  0  0  0
  2  3  1  0  0  0  0
  3  4  1  0  0  0  0
  4  5  1  0  0  0  0
  5  6  1  0  0  0  0
  1  6  1  0  0  0  0
  3  7  1  6  0  0  0
  4  8  1  1  0  0  0
  5  9  1  1  0  0  0
 10 11  1  0  0  0  0
  6 10  1  1  0  0  0
 12 13  1  0  0  0  0
 14 15  1  0  0  0  0
 15 16  1  0  0  0  0
 16 17  1  0  0  0  0
 17 18  1  0  0  0  0
 14 18  1  0  0  0  0
 20 21  1  0  0  0  0
 21 22  1  0  0  0  0
 22 23  1  0  0  0  0
 23 24  1  0  0  0  0
 24 25  1  0  0  0  0
 20 25  1  0  0  0  0
 26 27  1  0  0  0  0
 25 26  1  1  0  0  0
 24 28  1  6  0  0  0
 23 29  1  1  0  0  0
 22 30  1  6  0  0  0
 21 19  1  6  0  0  0
 18 19  1  6  0  0  0
 31 32  1  0  0  0  0
 18 31  1  1  0  0  0
 17 33  1  6  0  0  0
 16 34  1  1  0  0  0
 15 13  1  6  0  0  0
  2 12  1  6  0  0  0
M  END
>  <cdx:groupId>
4817

>  <cdx:fragmentId>
4754

$$$$
