440266.cdx
  Mrv1902 05222410282D          

 11 11  0  0  0  0            999 V2000
    5.7456   -9.3291    0.0000 C   0  0  0  0  0  0  0  0  0  0  0  0
    5.7472   -8.5041    0.0000 C   0  0  0  0  0  0  0  0  0  0  0  0
    6.4624   -8.0930    0.0000 C   0  0  0  0  0  0  0  0  0  0  0  0
    7.1761   -8.5068    0.0000 C   0  0  0  0  0  0  0  0  0  0  0  0
    7.1746   -9.3318    0.0000 C   0  0  0  0  0  0  0  0  0  0  0  0
    6.4593   -9.7430    0.0000 C   0  0  0  0  0  0  0  0  0  0  0  0
    5.0304   -9.7403    0.0000 O   0  0  0  0  0  0  0  0  0  0  0  0
    9.3203   -8.0983    0.0000 N   0  0  0  0  0  0  0  0  0  0  0  0
    7.8929   -7.2707    0.0000 O   0  0  0  0  0  0  0  0  0  0  0  0
    8.6051   -8.5095    0.0000 C   0  0  0  0  0  0  0  0  0  0  0  0
    7.8914   -8.0957    0.0000 C   0  0  0  0  0  0  0  0  0  0  0  0
 10  8  1  0  0  0  0
 11  9  1  0  0  0  0
 11 10  1  0  0  0  0
  1  2  1  0  0  0  0
  2  3  2  0  0  0  0
  3  4  1  0  0  0  0
  4  5  2  0  0  0  0
  5  6  1  0  0  0  0
  1  6  2  0  0  0  0
  1  7  1  0  0  0  0
  4 11  1  0  0  0  0
M  END
>  <cdx:fragmentId>
5

$$$$
