440259.cdx
  Mrv1902 05222410272D          

 12 11  0  0  0  0            999 V2000
   10.9260  -13.3871    0.0000 C   0  0  0  0  0  0  0  0  0  0  0  0
   10.2115  -13.7996    0.0000 C   0  0  2  0  0  0  0  0  0  0  0  0
    9.4971  -13.3871    0.0000 C   0  0  0  0  0  0  0  0  0  0  0  0
   10.9260  -12.5621    0.0000 O   0  0  0  0  0  0  0  0  0  0  0  0
   11.6405  -13.7996    0.0000 O   0  0  0  0  0  0  0  0  0  0  0  0
    8.7826  -13.7996    0.0000 N   0  0  0  0  0  0  0  0  0  0  0  0
    8.0681  -13.3871    0.0000 C   0  0  0  0  0  0  0  0  0  0  0  0
    8.0681  -12.5621    0.0000 O   0  0  0  0  0  0  0  0  0  0  0  0
    7.3536  -13.7996    0.0000 C   0  0  0  0  0  0  0  0  0  0  0  0
    6.6392  -13.3871    0.0000 O   0  0  0  0  0  0  0  0  0  0  0  0
   10.2115  -14.6246    0.0000 N   0  0  0  0  0  0  0  0  0  0  0  0
    7.3522  -14.5276    0.0000 O   0  0  0  0  0  0  0  0  0  0  0  0
  1  2  1  0  0  0  0
  2  3  1  0  0  0  0
  1  4  2  0  0  0  0
  1  5  1  0  0  0  0
  7  8  2  0  0  0  0
  7  9  1  0  0  0  0
  9 10  1  0  0  0  0
  6  7  1  0  0  0  0
  3  6  1  0  0  0  0
  2 11  1  1  0  0  0
  9 12  2  0  0  0  0
M  END
>  <cdx:fragmentId>
63772

$$$$
