440344.cdx
  Mrv1902 05222410232D          

 13 13  0  0  0  0            999 V2000
   14.7972  -12.8682    0.0000 C   0  0  0  0  0  0  0  0  0  0  0  0
   15.5117  -13.2807    0.0000 C   0  0  0  0  0  0  0  0  0  0  0  0
   15.5117  -14.1057    0.0000 C   0  0  0  0  0  0  0  0  0  0  0  0
   14.7972  -14.5182    0.0000 C   0  0  0  0  0  0  0  0  0  0  0  0
   14.0828  -14.1057    0.0000 C   0  0  0  0  0  0  0  0  0  0  0  0
   14.0828  -13.2807    0.0000 N   0  0  0  0  0  0  0  0  0  0  0  0
   14.7972  -12.0432    0.0000 O   0  0  0  0  0  0  0  0  0  0  0  0
   13.3683  -12.8682    0.0000 C   0  0  0  0  0  0  0  0  0  0  0  0
   16.2262  -14.5182    0.0000 O   0  0  0  0  0  0  0  0  0  0  0  0
   16.9406  -14.1057    0.0000 C   0  0  0  0  0  0  0  0  0  0  0  0
   16.2262  -12.8682    0.0000 C   0  0  0  0  0  0  0  0  0  0  0  0
   16.2262  -12.0432    0.0000 O   0  0  0  0  0  0  0  0  0  0  0  0
   16.9406  -13.2807    0.0000 O   0  0  0  0  0  0  0  0  0  0  0  0
  1  2  1  0  0  0  0
  2  3  2  0  0  0  0
  3  4  1  0  0  0  0
  4  5  2  0  0  0  0
  5  6  1  0  0  0  0
  1  6  1  0  0  0  0
  1  7  2  0  0  0  0
  6  8  1  0  0  0  0
  9 10  1  0  0  0  0
  3  9  1  0  0  0  0
 11 12  2  0  0  0  0
 11 13  1  0  0  0  0
  2 11  1  0  0  0  0
M  END
>  <cdx:groupId>
4927

>  <cdx:fragmentId>
4891

$$$$
