440357.cdx
  Mrv1902 05222410212D          

 15 16  0  0  0  0            999 V2000
    8.0924   -8.0567    0.0000 C   0  0  0  0  0  0  0  0  0  0  0  0
    7.8375   -8.8413    0.0000 C   0  0  0  0  0  0  0  0  0  0  0  0
    7.0125   -8.8413    0.0000 C   0  0  0  0  0  0  0  0  0  0  0  0
    6.7575   -8.0567    0.0000 C   0  0  0  0  0  0  0  0  0  0  0  0
    7.4250   -7.5717    0.0000 S   0  0  0  0  0  0  0  0  0  0  0  0
    8.8770   -7.8017    0.0000 C   0  0  0  0  0  0  0  0  0  0  0  0
    9.1320   -7.0171    0.0000 C   0  0  0  0  0  0  0  0  0  0  0  0
    9.9570   -7.0171    0.0000 C   0  0  0  0  0  0  0  0  0  0  0  0
   10.2119   -7.8017    0.0000 C   0  0  0  0  0  0  0  0  0  0  0  0
    9.5445   -8.2866    0.0000 S   0  0  0  0  0  0  0  0  0  0  0  0
    6.0646   -7.6569    0.0000 C   0  0  0  0  0  0  0  0  0  0  0  0
    5.3494   -7.2456    0.0000 C   0  0  0  0  0  0  0  0  0  0  0  0
    4.6342   -6.8344    0.0000 C   0  0  0  0  0  0  0  0  0  0  0  0
    3.9205   -7.2482    0.0000 C   0  0  0  0  0  0  0  0  0  0  0  0
    3.2053   -6.8369    0.0000 O   0  0  0  0  0  0  0  0  0  0  0  0
  1  2  2  0  0  0  0
  2  3  1  0  0  0  0
  3  4  2  0  0  0  0
  4  5  1  0  0  0  0
  1  5  1  0  0  0  0
  6  7  2  0  0  0  0
  7  8  1  0  0  0  0
  8  9  2  0  0  0  0
  9 10  1  0  0  0  0
  6 10  1  0  0  0  0
  1  6  1  0  0  0  0
 11 12  3  0  0  0  0
 12 13  1  0  0  0  0
 11  4  1  0  0  0  0
 13 14  1  0  0  0  0
 14 15  1  0  0  0  0
M  END
>  <cdx:fragmentId>
317

$$$$
