6440365.cdx
  Mrv1902 05222410252D          

 23 24  0  0  0  0            999 V2000
    5.8111   -7.4162    0.0000 C   0  0  0  0  0  0  0  0  0  0  0  0
    6.5256   -7.8287    0.0000 C   0  0  0  0  0  0  0  0  0  0  0  0
    7.2401   -7.4162    0.0000 C   0  0  0  0  0  0  0  0  0  0  0  0
    7.9545   -7.8287    0.0000 C   0  0  0  0  0  0  0  0  0  0  0  0
    8.6690   -7.4162    0.0000 C   0  0  0  0  0  0  0  0  0  0  0  0
    9.3835   -7.8287    0.0000 C   0  0  0  0  0  0  0  0  0  0  0  0
   10.0979   -7.4162    0.0000 C   0  0  0  0  0  0  0  0  0  0  0  0
    7.2401   -6.5912    0.0000 O   0  0  0  0  0  0  0  0  0  0  0  0
   10.8124   -7.8287    0.0000 C   0  0  0  0  0  0  0  0  0  0  0  0
   11.5269   -7.4162    0.0000 C   0  0  0  0  0  0  0  0  0  0  0  0
   12.2414   -7.8287    0.0000 C   0  0  0  0  0  0  0  0  0  0  0  0
   12.2414   -8.6537    0.0000 C   0  0  0  0  0  0  0  0  0  0  0  0
   11.5269   -9.0662    0.0000 C   0  0  0  0  0  0  0  0  0  0  0  0
   10.8124   -8.6537    0.0000 C   0  0  0  0  0  0  0  0  0  0  0  0
    5.0966   -7.8287    0.0000 C   0  0  0  0  0  0  0  0  0  0  0  0
    4.3822   -7.4162    0.0000 C   0  0  0  0  0  0  0  0  0  0  0  0
    3.6677   -7.8287    0.0000 C   0  0  0  0  0  0  0  0  0  0  0  0
    3.6677   -8.6537    0.0000 C   0  0  0  0  0  0  0  0  0  0  0  0
    4.3822   -9.0662    0.0000 C   0  0  0  0  0  0  0  0  0  0  0  0
    5.0966   -8.6537    0.0000 C   0  0  0  0  0  0  0  0  0  0  0  0
    2.9532   -7.4162    0.0000 O   0  0  0  0  0  0  0  0  0  0  0  0
    2.2388   -7.8287    0.0000 C   0  0  0  0  0  0  0  0  0  0  0  0
    2.9532   -9.0662    0.0000 O   0  0  0  0  0  0  0  0  0  0  0  0
  1  2  2  0  0  0  0
  2  3  1  0  0  0  0
  3  4  1  0  0  0  0
  4  5  1  0  0  0  0
  5  6  1  0  0  0  0
  6  7  1  0  0  0  0
  3  8  2  0  0  0  0
  9 10  1  0  0  0  0
 10 11  2  0  0  0  0
 11 12  1  0  0  0  0
 12 13  2  0  0  0  0
 13 14  1  0  0  0  0
  9 14  2  0  0  0  0
  7  9  1  0  0  0  0
 15 16  1  0  0  0  0
 16 17  2  0  0  0  0
 17 18  1  0  0  0  0
 18 19  2  0  0  0  0
 19 20  1  0  0  0  0
 15 20  2  0  0  0  0
 21 22  1  0  0  0  0
 17 21  1  0  0  0  0
 18 23  1  0  0  0  0
  1 15  1  0  0  0  0
M  END
>  <cdx:groupId>
17429

>  <cdx:fragmentId>
17362

$$$$
