440404.cdx
  Mrv1902 05222410242D          

 60 67  0  0  0  0            999 V2000
   18.3475   -7.3406    0.0000 C   0  0  0  0  0  0  0  0  0  0  0  0
   19.1725   -7.3406    0.0000 O   0  0  0  0  0  0  0  0  0  0  0  0
   17.9350   -8.0551    0.0000 O   0  0  0  0  0  0  0  0  0  0  0  0
   12.9825   -8.4676    0.0000 C   0  0  0  0  0  0  0  0  0  0  0  0
   12.2681   -8.8801    0.0000 C   0  0  0  0  0  0  0  0  0  0  0  0
   12.2681   -9.7051    0.0000 C   0  0  1  0  0  0  0  0  0  0  0  0
   12.9825  -10.1176    0.0000 C   0  0  0  0  0  0  0  0  0  0  0  0
   13.6970   -9.7051    0.0000 C   0  0  1  0  0  0  0  0  0  0  0  0
   14.4115  -10.1176    0.0000 C   0  0  0  0  0  0  0  0  0  0  0  0
   15.1259   -9.7051    0.0000 C   0  0  0  0  0  0  0  0  0  0  0  0
   15.1259   -8.8801    0.0000 C   0  0  1  0  0  0  0  0  0  0  0  0
   15.8404   -8.4676    0.0000 C   0  0  1  0  0  0  0  0  0  0  0  0
   16.6250   -8.7225    0.0000 C   0  0  0  0  0  0  0  0  0  0  0  0
   17.1100   -8.0551    0.0000 C   0  0  1  0  0  0  0  0  0  0  0  0
   16.6250   -7.3876    0.0000 C   0  0  1  0  0  0  0  0  0  0  0  0
   15.8404   -7.6426    0.0000 C   0  0  1  0  0  0  0  0  0  0  0  0
   15.1259   -7.2301    0.0000 C   0  0  0  0  0  0  0  0  0  0  0  0
   14.4115   -7.6426    0.0000 C   0  0  0  0  0  0  0  0  0  0  0  0
   14.4115   -8.4676    0.0000 C   0  0  2  0  0  0  0  0  0  0  0  0
   13.6970   -8.8801    0.0000 C   0  0  1  0  0  0  0  0  0  0  0  0
   16.8800   -5.2681    0.0000 O   0  0  0  0  0  0  0  0  0  0  0  0
   16.3951   -5.9356    0.0000 C   0  0  0  0  0  0  0  0  0  0  0  0
   16.8800   -6.6030    0.0000 C   0  0  0  0  0  0  0  0  0  0  0  0
   17.6646   -6.3481    0.0000 C   0  0  0  0  0  0  0  0  0  0  0  0
   17.6646   -5.5231    0.0000 C   0  0  0  0  0  0  0  0  0  0  0  0
   18.3320   -5.0381    0.0000 O   0  0  0  0  0  0  0  0  0  0  0  0
   15.9267   -6.8221    0.0000 C   0  0  0  0  0  0  0  0  0  0  0  0
   13.6970   -8.0551    0.0000 C   0  0  0  0  0  0  0  0  0  0  0  0
   15.8404   -9.2926    0.0000 O   0  0  0  0  0  0  0  0  0  0  0  0
   11.5536  -10.1176    0.0000 O   0  0  0  0  0  0  0  0  0  0  0  0
   10.8391   -8.8801    0.0000 O   0  0  0  0  0  0  0  0  0  0  0  0
   10.8391   -9.7051    0.0000 C   0  0  2  0  0  0  0  0  0  0  0  0
   10.1246  -10.1176    0.0000 C   0  0  0  0  0  0  0  0  0  0  0  0
    9.4102   -9.7051    0.0000 C   0  0  1  0  0  0  0  0  0  0  0  0
    9.4102   -8.8801    0.0000 C   0  0  1  0  0  0  0  0  0  0  0  0
   10.1246   -8.4676    0.0000 C   0  0  1  0  0  0  0  0  0  0  0  0
   10.1246   -7.6426    0.0000 C   0  0  0  0  0  0  0  0  0  0  0  0
    8.6957  -10.1176    0.0000 O   0  0  0  0  0  0  0  0  0  0  0  0
    8.6957   -8.4676    0.0000 O   0  0  0  0  0  0  0  0  0  0  0  0
    7.2668   -8.4676    0.0000 O   0  0  0  0  0  0  0  0  0  0  0  0
    7.9812   -8.8801    0.0000 C   0  0  2  0  0  0  0  0  0  0  0  0
    7.9812   -9.7051    0.0000 C   0  0  0  0  0  0  0  0  0  0  0  0
    7.2668  -10.1176    0.0000 C   0  0  1  0  0  0  0  0  0  0  0  0
    6.5523   -9.7051    0.0000 C   0  0  1  0  0  0  0  0  0  0  0  0
    6.5523   -8.8801    0.0000 C   0  0  1  0  0  0  0  0  0  0  0  0
    5.8378   -8.4676    0.0000 C   0  0  0  0  0  0  0  0  0  0  0  0
    7.2668  -10.9426    0.0000 O   0  0  0  0  0  0  0  0  0  0  0  0
    5.8378  -10.1176    0.0000 O   0  0  0  0  0  0  0  0  0  0  0  0
    5.1233   -8.8801    0.0000 O   0  0  0  0  0  0  0  0  0  0  0  0
    5.1233   -9.7051    0.0000 C   0  0  2  0  0  0  0  0  0  0  0  0
    4.4089  -10.1176    0.0000 C   0  0  0  0  0  0  0  0  0  0  0  0
    3.6944   -9.7051    0.0000 C   0  0  1  0  0  0  0  0  0  0  0  0
    3.6944   -8.8801    0.0000 C   0  0  1  0  0  0  0  0  0  0  0  0
    4.4089   -8.4676    0.0000 C   0  0  1  0  0  0  0  0  0  0  0  0
    4.4089   -7.6426    0.0000 C   0  0  0  0  0  0  0  0  0  0  0  0
    2.9799   -8.4676    0.0000 O   0  0  0  0  0  0  0  0  0  0  0  0
    2.9799  -10.1176    0.0000 O   0  0  0  0  0  0  0  0  0  0  0  0
   13.6970  -10.5301    0.0000 H   0  0  0  0  0  0  0  0  0  0  0  0
   15.1259   -8.0551    0.0000 H   0  0  0  0  0  0  0  0  0  0  0  0
   14.4115   -9.2926    0.0000 H   0  0  0  0  0  0  0  0  0  0  0  0
  1  2  2  0  0  0  0
  1  3  1  0  0  0  0
  4  5  1  0  0  0  0
  5  6  1  0  0  0  0
  6  7  1  0  0  0  0
  7  8  1  0  0  0  0
  8  9  1  0  0  0  0
  9 10  1  0  0  0  0
 10 11  1  0  0  0  0
 11 12  1  0  0  0  0
 12 13  1  0  0  0  0
 13 14  1  0  0  0  0
 14 15  1  0  0  0  0
 15 16  1  0  0  0  0
 12 16  1  0  0  0  0
 16 17  1  0  0  0  0
 17 18  1  0  0  0  0
 18 19  1  0  0  0  0
 11 19  1  0  0  0  0
 19 20  1  0  0  0  0
  8 20  1  0  0  0  0
  4 20  1  0  0  0  0
 21 22  1  0  0  0  0
 22 23  1  0  0  0  0
 23 24  2  0  0  0  0
 24 25  1  0  0  0  0
 21 25  1  0  0  0  0
 25 26  2  0  0  0  0
 15 23  1  1  0  0  0
 16 27  1  1  0  0  0
 20 28  1  1  0  0  0
 12 29  1  1  0  0  0
 31 32  1  0  0  0  0
 32 33  1  0  0  0  0
 33 34  1  0  0  0  0
 34 35  1  0  0  0  0
 35 36  1  0  0  0  0
 31 36  1  0  0  0  0
 36 37  1  1  0  0  0
 34 38  1  6  0  0  0
 40 41  1  0  0  0  0
 41 42  1  0  0  0  0
 42 43  1  0  0  0  0
 43 44  1  0  0  0  0
 44 45  1  0  0  0  0
 40 45  1  0  0  0  0
 45 46  1  1  0  0  0
 43 47  1  6  0  0  0
 49 50  1  0  0  0  0
 50 51  1  0  0  0  0
 51 52  1  0  0  0  0
 52 53  1  0  0  0  0
 53 54  1  0  0  0  0
 49 54  1  0  0  0  0
 54 55  1  1  0  0  0
 53 56  1  6  0  0  0
 52 57  1  6  0  0  0
 50 48  1  1  0  0  0
 44 48  1  6  0  0  0
 41 39  1  1  0  0  0
 35 39  1  6  0  0  0
 32 30  1  1  0  0  0
  6 30  1  1  0  0  0
 14  3  1  1  0  0  0
  8 58  1  1  0  0  0
 11 59  1  1  0  0  0
 19 60  1  6  0  0  0
M  END
>  <cdx:fragmentId>
101

$$$$
