4405.cdx
  Mrv1902 05222410222D          

  9  8  0  0  0  0            999 V2000
    2.8215   -6.3113    0.0000 C   0  0  0  0  0  0  0  0  0  0  0  0
    3.5360   -6.7237    0.0000 C   0  0  0  0  0  0  0  0  0  0  0  0
    4.2504   -6.3113    0.0000 C   0  0  0  0  0  0  0  0  0  0  0  0
    4.9649   -6.7237    0.0000 C   0  0  0  0  0  0  0  0  0  0  0  0
    5.6794   -6.3113    0.0000 C   0  0  0  0  0  0  0  0  0  0  0  0
    6.3939   -5.8988    0.0000 C   0  0  0  0  0  0  0  0  0  0  0  0
    7.1083   -6.3113    0.0000 C   0  0  0  0  0  0  0  0  0  0  0  0
    7.8228   -5.8988    0.0000 C   0  0  0  0  0  0  0  0  0  0  0  0
    7.1083   -7.1362    0.0000 O   0  0  0  0  0  0  0  0  0  0  0  0
  1  2  1  0  0  0  0
  2  3  1  0  0  0  0
  3  4  1  0  0  0  0
  4  5  2  0  0  0  0
  5  6  2  0  0  0  0
  6  7  1  0  0  0  0
  7  8  1  0  0  0  0
  7  9  2  0  0  0  0
M  END
>  <cdx:fragmentId>
3

$$$$
