440572.cdx
  Mrv1902 05222410242D          

 44 49  0  0  0  0            999 V2000
    5.7561   -8.3744    0.0000 C   0  0  1  0  0  0  0  0  0  0  0  0
    5.4723   -7.5998    0.0000 C   0  0  2  0  0  0  0  0  0  0  0  0
    4.6595   -7.4582    0.0000 C   0  0  1  0  0  0  0  0  0  0  0  0
    4.1306   -8.0913    0.0000 C   0  0  2  0  0  0  0  0  0  0  0  0
    4.4144   -8.8660    0.0000 C   0  0  1  0  0  0  0  0  0  0  0  0
    5.2272   -9.0075    0.0000 C   0  0  1  0  0  0  0  0  0  0  0  0
    6.5805   -8.3438    0.0000 O   0  0  0  0  0  0  0  0  0  0  0  0
    6.8062   -7.5503    0.0000 C   0  0  0  0  0  0  0  0  0  0  0  0
    6.1213   -7.0904    0.0000 O   0  0  0  0  0  0  0  0  0  0  0  0
    3.7970   -9.4132    0.0000 C   0  0  1  0  0  0  0  0  0  0  0  0
    3.8399  -10.2371    0.0000 C   0  0  2  0  0  0  0  0  0  0  0  0
    4.5107  -10.7172    0.0000 C   0  0  1  0  0  0  0  0  0  0  0  0
    5.3044  -10.4921    0.0000 C   0  0  2  0  0  0  0  0  0  0  0  0
    5.6233   -9.7312    0.0000 C   0  0  1  0  0  0  0  0  0  0  0  0
    3.0002   -9.1994    0.0000 C   0  0  0  0  0  0  0  0  0  0  0  0
    2.5506   -9.8911    0.0000 C   0  0  0  0  0  0  0  0  0  0  0  0
    3.0653  -10.5209    0.0000 C   0  0  0  0  0  0  0  0  0  0  0  0
    2.8475  -11.3166    0.0000 O   0  0  0  0  0  0  0  0  0  0  0  0
    1.7268   -9.9360    0.0000 C   0  0  0  0  0  0  0  0  0  0  0  0
    6.1228  -10.3878    0.0000 O   0  0  0  0  0  0  0  0  0  0  0  0
    9.6218   -8.0406    0.0000 C   0  0  0  0  0  0  0  0  0  0  0  0
   10.3964   -7.7567    0.0000 C   0  0  0  0  0  0  0  0  0  0  0  0
   11.0295   -8.2857    0.0000 C   0  0  0  0  0  0  0  0  0  0  0  0
   11.8042   -8.0019    0.0000 C   0  0  0  0  0  0  0  0  0  0  0  0
   12.4373   -8.5308    0.0000 C   0  0  0  0  0  0  0  0  0  0  0  0
   13.2119   -8.2470    0.0000 C   0  0  0  0  0  0  0  0  0  0  0  0
    8.9886   -7.5116    0.0000 C   0  0  0  0  0  0  0  0  0  0  0  0
    8.2140   -7.7954    0.0000 C   0  0  0  0  0  0  0  0  0  0  0  0
    7.5809   -7.2665    0.0000 C   0  0  0  0  0  0  0  0  0  0  0  0
    4.3757   -6.6836    0.0000 O   0  0  0  0  0  0  0  0  0  0  0  0
    3.5629   -6.5421    0.0000 C   0  0  0  0  0  0  0  0  0  0  0  0
    3.2791   -5.7674    0.0000 C   0  0  0  0  0  0  0  0  0  0  0  0
    3.0340   -7.1752    0.0000 O   0  0  0  0  0  0  0  0  0  0  0  0
    4.9315   -8.2079    0.0000 O   0  0  0  0  0  0  0  0  0  0  0  0
    3.3178   -7.9498    0.0000 C   0  0  0  0  0  0  0  0  0  0  0  0
    6.0399   -9.1490    0.0000 H   0  0  0  0  0  0  0  0  0  0  0  0
    5.4696  -11.3004    0.0000 C   0  0  0  0  0  0  0  0  0  0  0  0
    4.3692  -11.5300    0.0000 O   0  0  0  0  0  0  0  0  0  0  0  0
    3.6983  -11.0499    0.0000 O   0  0  0  0  0  0  0  0  0  0  0  0
    3.5132   -8.6386    0.0000 H   0  0  0  0  0  0  0  0  0  0  0  0
    6.2522  -11.5615    0.0000 O   0  0  0  0  0  0  0  0  0  0  0  0
    5.4723   -6.7748    0.0000 C   0  0  0  0  0  0  0  0  0  0  0  0
    4.7578   -6.3623    0.0000 C   0  0  0  0  0  0  0  0  0  0  0  0
    6.1867   -6.3623    0.0000 C   0  0  0  0  0  0  0  0  0  0  0  0
  1  2  1  0  0  0  0
  2  3  1  0  0  0  0
  3  4  1  0  0  0  0
  4  5  1  0  0  0  0
  5  6  1  0  0  0  0
  7  8  1  0  0  0  0
  8  9  1  0  0  0  0
  2  9  1  6  0  0  0
  5 10  1  0  0  0  0
 10 11  1  0  0  0  0
 11 12  1  0  0  0  0
 12 13  1  0  0  0  0
 13 14  1  0  0  0  0
 14  6  1  0  0  0  0
 10 15  1  0  0  0  0
 15 16  2  0  0  0  0
 16 17  1  0  0  0  0
 17 11  1  0  0  0  0
 17 18  2  0  0  0  0
 16 19  1  0  0  0  0
 13 20  1  6  0  0  0
 14 20  1  6  0  0  0
  8 29  1  0  0  0  0
 21 22  1  0  0  0  0
 22 23  1  0  0  0  0
 23 24  1  0  0  0  0
 24 25  1  0  0  0  0
 27 21  2  0  0  0  0
 25 26  1  0  0  0  0
 28 27  1  0  0  0  0
 29 28  2  0  0  0  0
  3 30  1  1  0  0  0
 30 31  1  0  0  0  0
 31 32  1  0  0  0  0
 31 33  2  0  0  0  0
  8 34  1  0  0  0  0
  5 34  1  6  0  0  0
  1  7  1  6  0  0  0
  1  6  1  0  0  0  0
  4 35  1  6  0  0  0
  6 36  1  1  0  0  0
 13 37  1  0  0  0  0
 12 38  1  1  0  0  0
 11 39  1  1  0  0  0
 10 40  1  6  0  0  0
 37 41  1  0  0  0  0
  2 42  1  0  0  0  0
 42 43  1  0  0  0  0
 42 44  2  0  0  0  0
M  END
>  <cdx:fragmentId>
5

$$$$
