440659.cdx
  Mrv1902 05222410262D          

 23 24  0  0  0  0            999 V2000
    6.3795   -9.1599    0.0000 C   0  0  0  0  0  0  0  0  0  0  0  0
    5.6651   -9.5724    0.0000 C   0  0  0  0  0  0  0  0  0  0  0  0
    4.9506   -9.1599    0.0000 C   0  0  0  0  0  0  0  0  0  0  0  0
    6.3795   -8.3349    0.0000 O   0  0  0  0  0  0  0  0  0  0  0  0
    7.0940   -9.5724    0.0000 N   0  0  0  0  0  0  0  0  0  0  0  0
    7.8085   -9.1599    0.0000 C   0  0  0  0  0  0  0  0  0  0  0  0
    8.5230   -9.5724    0.0000 C   0  0  0  0  0  0  0  0  0  0  0  0
    9.2374   -9.1599    0.0000 C   0  0  0  0  0  0  0  0  0  0  0  0
    9.2374   -8.3349    0.0000 C   0  0  0  0  0  0  0  0  0  0  0  0
    9.9519   -7.9224    0.0000 C   0  0  0  0  0  0  0  0  0  0  0  0
   10.6664   -8.3349    0.0000 C   0  0  0  0  0  0  0  0  0  0  0  0
   10.6664   -9.1599    0.0000 C   0  0  0  0  0  0  0  0  0  0  0  0
    9.9519   -9.5724    0.0000 C   0  0  0  0  0  0  0  0  0  0  0  0
   11.3808   -7.9224    0.0000 O   0  0  0  0  0  0  0  0  0  0  0  0
    4.9506   -8.3349    0.0000 C   0  0  0  0  0  0  0  0  0  0  0  0
    4.2361   -7.9224    0.0000 C   0  0  0  0  0  0  0  0  0  0  0  0
    4.2361   -7.0974    0.0000 C   0  0  0  0  0  0  0  0  0  0  0  0
    4.9506   -6.6849    0.0000 C   0  0  0  0  0  0  0  0  0  0  0  0
    5.6651   -7.0974    0.0000 C   0  0  0  0  0  0  0  0  0  0  0  0
    5.6651   -7.9224    0.0000 C   0  0  0  0  0  0  0  0  0  0  0  0
    3.5217   -6.6849    0.0000 O   0  0  0  0  0  0  0  0  0  0  0  0
    2.8072   -7.0974    0.0000 C   0  0  0  0  0  0  0  0  0  0  0  0
    4.9506   -5.8599    0.0000 O   0  0  0  0  0  0  0  0  0  0  0  0
  1  2  1  0  0  0  0
  2  3  2  0  0  0  0
  1  4  2  0  0  0  0
  1  5  1  0  0  0  0
  6  7  1  0  0  0  0
  8  9  1  0  0  0  0
  9 10  2  0  0  0  0
 10 11  1  0  0  0  0
 11 12  2  0  0  0  0
 12 13  1  0  0  0  0
  8 13  2  0  0  0  0
 11 14  1  0  0  0  0
  7  8  1  0  0  0  0
  5  6  1  0  0  0  0
 15 16  1  0  0  0  0
 16 17  2  0  0  0  0
 17 18  1  0  0  0  0
 18 19  2  0  0  0  0
 19 20  1  0  0  0  0
 15 20  2  0  0  0  0
 21 22  1  0  0  0  0
 17 21  1  0  0  0  0
 18 23  1  0  0  0  0
  3 15  1  0  0  0  0
M  END
>  <cdx:fragmentId>
17899

$$$$
