440616.cdx
  Mrv1902 05222410252D          

 16 16  0  0  0  0            999 V2000
    3.5753   -7.6631    0.0000 C   0  0  0  0  0  0  0  0  0  0  0  0
    3.0233   -8.2762    0.0000 C   0  0  0  0  0  0  0  0  0  0  0  0
    3.4358   -8.9907    0.0000 C   0  0  0  0  0  0  0  0  0  0  0  0
    4.2428   -8.8191    0.0000 C   0  0  0  0  0  0  0  0  0  0  0  0
    4.3290   -7.9987    0.0000 N   0  0  0  0  0  0  0  0  0  0  0  0
    5.0435   -6.7612    0.0000 O   0  0  0  0  0  0  0  0  0  0  0  0
   11.4737   -7.9987    0.0000 C   0  0  0  0  0  0  0  0  0  0  0  0
   10.7593   -7.5862    0.0000 C   0  0  0  0  0  0  0  0  0  0  0  0
   10.0448   -7.9987    0.0000 C   0  0  0  0  0  0  0  0  0  0  0  0
    9.3303   -7.5862    0.0000 C   0  0  0  0  0  0  0  0  0  0  0  0
    8.6158   -7.9987    0.0000 C   0  0  0  0  0  0  0  0  0  0  0  0
    7.9014   -7.5862    0.0000 C   0  0  0  0  0  0  0  0  0  0  0  0
    7.1869   -7.9987    0.0000 C   0  0  0  0  0  0  0  0  0  0  0  0
    6.4724   -7.5862    0.0000 C   0  0  0  0  0  0  0  0  0  0  0  0
    5.7580   -7.9987    0.0000 C   0  0  0  0  0  0  0  0  0  0  0  0
    5.0435   -7.5862    0.0000 C   0  0  0  0  0  0  0  0  0  0  0  0
 16  5  1  0  0  0  0
  5  1  1  0  0  0  0
  2  1  1  0  0  0  0
  3  2  1  0  0  0  0
  4  3  1  0  0  0  0
  5  4  1  0  0  0  0
 16  6  2  0  0  0  0
  8  7  1  0  0  0  0
  9  8  1  0  0  0  0
 10  9  1  0  0  0  0
 11 10  1  0  0  0  0
 12 11  1  0  0  0  0
 13 12  2  0  0  0  0
 14 13  1  0  0  0  0
 15 14  2  0  0  0  0
 16 15  1  0  0  0  0
M  END
>  <cdx:fragmentId>
17767

$$$$
