440752.cdx
  Mrv1902 05222410212D          

 15 16  0  0  0  0            999 V2000
    3.9330   -7.5625    0.0000 C   0  0  0  0  0  0  0  0  0  0  0  0
    3.9330   -8.3875    0.0000 C   0  0  0  0  0  0  0  0  0  0  0  0
    4.6475   -8.8000    0.0000 C   0  0  0  0  0  0  0  0  0  0  0  0
    5.3620   -8.3875    0.0000 C   0  0  0  0  0  0  0  0  0  0  0  0
    5.3620   -7.5625    0.0000 C   0  0  0  0  0  0  0  0  0  0  0  0
    4.6475   -7.1500    0.0000 C   0  0  0  0  0  0  0  0  0  0  0  0
    6.0764   -8.8000    0.0000 N   0  0  0  0  0  0  0  0  0  0  0  0
    6.7909   -8.3875    0.0000 C   0  0  0  0  0  0  0  0  0  0  0  0
    6.7909   -7.5625    0.0000 C   0  0  0  0  0  0  0  0  0  0  0  0
    6.0764   -7.1500    0.0000 C   0  0  0  0  0  0  0  0  0  0  0  0
    6.0764   -6.3250    0.0000 O   0  0  0  0  0  0  0  0  0  0  0  0
    3.2186   -7.1500    0.0000 O   0  0  0  0  0  0  0  0  0  0  0  0
    7.5054   -8.8000    0.0000 C   0  0  0  0  0  0  0  0  0  0  0  0
    8.2199   -8.3875    0.0000 O   0  0  0  0  0  0  0  0  0  0  0  0
    7.5054   -9.6250    0.0000 O   0  0  0  0  0  0  0  0  0  0  0  0
  1  2  1  0  0  0  0
  2  3  2  0  0  0  0
  3  4  1  0  0  0  0
  4  5  2  0  0  0  0
  5  6  1  0  0  0  0
  6  1  2  0  0  0  0
  4  7  1  0  0  0  0
  7  8  1  0  0  0  0
  8  9  2  0  0  0  0
  9 10  1  0  0  0  0
 10  5  1  0  0  0  0
 10 11  2  0  0  0  0
  1 12  1  0  0  0  0
  8 13  1  0  0  0  0
 13 14  1  0  0  0  0
 13 15  2  0  0  0  0
M  END
>  <cdx:fragmentId>
305

$$$$
