440782.cdx
  Mrv1902 05222410222D          

 68 75  0  0  0  0            999 V2000
   12.2950  -10.4794    0.0000 C   0  0  1  0  0  0  0  0  0  0  0  0
   13.0095  -10.0669    0.0000 C   0  0  2  0  0  0  0  0  0  0  0  0
   13.7941  -10.3219    0.0000 C   0  0  0  0  0  0  0  0  0  0  0  0
   14.2790   -9.6544    0.0000 C   0  0  2  0  0  0  0  0  0  0  0  0
   15.0637   -9.3995    0.0000 O   0  0  0  0  0  0  0  0  0  0  0  0
   15.0637   -8.5745    0.0000 C   0  0  0  0  0  0  0  0  0  0  0  0
   14.2790   -8.3196    0.0000 C   0  0  2  0  0  0  0  0  0  0  0  0
   13.7941   -8.9870    0.0000 C   0  0  2  0  0  0  0  0  0  0  0  0
   13.0095   -9.2419    0.0000 C   0  0  1  0  0  0  0  0  0  0  0  0
   12.2950   -8.8294    0.0000 C   0  0  0  0  0  0  0  0  0  0  0  0
   11.5806   -9.2419    0.0000 C   0  0  0  0  0  0  0  0  0  0  0  0
   11.5806  -10.0669    0.0000 C   0  0  2  0  0  0  0  0  0  0  0  0
   10.8661  -10.4794    0.0000 C   0  0  1  0  0  0  0  0  0  0  0  0
   10.1516  -10.0669    0.0000 C   0  0  0  0  0  0  0  0  0  0  0  0
    9.4371  -10.4794    0.0000 C   0  0  0  0  0  0  0  0  0  0  0  0
    9.4371  -11.3044    0.0000 C   0  0  1  0  0  0  0  0  0  0  0  0
   10.1516  -11.7169    0.0000 C   0  0  0  0  0  0  0  0  0  0  0  0
   10.8661  -11.3044    0.0000 C   0  0  0  0  0  0  0  0  0  0  0  0
   11.5806  -11.7169    0.0000 C   0  0  0  0  0  0  0  0  0  0  0  0
   12.2950  -11.3044    0.0000 C   0  0  0  0  0  0  0  0  0  0  0  0
   15.8841   -8.4883    0.0000 C   0  0  0  0  0  0  0  0  0  0  0  0
   16.3691   -9.1557    0.0000 C   0  0  0  0  0  0  0  0  0  0  0  0
   17.1895   -9.0695    0.0000 C   0  0  2  0  0  0  0  0  0  0  0  0
   17.6745   -9.7369    0.0000 C   0  0  0  0  0  0  0  0  0  0  0  0
   17.5251   -8.3158    0.0000 C   0  0  0  0  0  0  0  0  0  0  0  0
   10.8661   -9.6544    0.0000 C   0  0  0  0  0  0  0  0  0  0  0  0
   13.0095   -8.4169    0.0000 C   0  0  0  0  0  0  0  0  0  0  0  0
   14.0241   -7.5349    0.0000 C   0  0  0  0  0  0  0  0  0  0  0  0
   15.3992   -7.8208    0.0000 O   0  0  0  0  0  0  0  0  0  0  0  0
    5.8650  -11.6855    0.0000 O   0  0  0  0  0  0  0  0  0  0  0  0
    5.8831  -10.0356    0.0000 O   0  0  0  0  0  0  0  0  0  0  0  0
    6.6112   -8.8060    0.0000 O   0  0  0  0  0  0  0  0  0  0  0  0
    7.3211   -9.2264    0.0000 C   0  0  0  0  0  0  0  0  0  0  0  0
    8.7227  -11.7169    0.0000 O   0  0  0  0  0  0  0  0  0  0  0  0
    7.3120  -10.0513    0.0000 C   0  0  2  0  0  0  0  0  0  0  0  0
    6.5930  -10.4559    0.0000 C   0  0  2  0  0  0  0  0  0  0  0  0
    6.5839  -11.2809    0.0000 C   0  0  1  0  0  0  0  0  0  0  0  0
    7.2938  -11.7012    0.0000 C   0  0  2  0  0  0  0  0  0  0  0  0
    8.0128  -11.2966    0.0000 C   0  0  1  0  0  0  0  0  0  0  0  0
    8.0219  -10.4717    0.0000 O   0  0  0  0  0  0  0  0  0  0  0  0
    7.2847  -12.5262    0.0000 O   0  0  0  0  0  0  0  0  0  0  0  0
    4.4270  -12.4947    0.0000 C   0  0  0  0  0  0  0  0  0  0  0  0
    4.4089  -14.1446    0.0000 O   0  0  0  0  0  0  0  0  0  0  0  0
    5.8286  -14.9853    0.0000 O   0  0  0  0  0  0  0  0  0  0  0  0
   20.1450   -9.6510    0.0000 O   0  0  0  0  0  0  0  0  0  0  0  0
   20.9697  -11.0800    0.0000 O   0  0  0  0  0  0  0  0  0  0  0  0
   20.1445  -12.5088    0.0000 O   0  0  0  0  0  0  0  0  0  0  0  0
   18.9068  -13.2231    0.0000 O   0  0  0  0  0  0  0  0  0  0  0  0
   18.4945  -12.5086    0.0000 C   0  0  0  0  0  0  0  0  0  0  0  0
   18.9071  -11.7942    0.0000 C   0  0  2  0  0  0  0  0  0  0  0  0
   19.7321  -11.7943    0.0000 C   0  0  2  0  0  0  0  0  0  0  0  0
   20.1447  -11.0799    0.0000 C   0  0  1  0  0  0  0  0  0  0  0  0
   19.7323  -10.3654    0.0000 C   0  0  2  0  0  0  0  0  0  0  0  0
   18.9073  -10.3652    0.0000 C   0  0  1  0  0  0  0  0  0  0  0  0
   18.4947  -11.0796    0.0000 O   0  0  0  0  0  0  0  0  0  0  0  0
   18.4950   -9.6507    0.0000 O   0  0  0  0  0  0  0  0  0  0  0  0
    7.2666  -14.1761    0.0000 O   0  0  0  0  0  0  0  0  0  0  0  0
    5.1369  -12.9150    0.0000 C   0  0  1  0  0  0  0  0  0  0  0  0
    5.1278  -13.7400    0.0000 C   0  0  1  0  0  0  0  0  0  0  0  0
    5.8377  -14.1603    0.0000 C   0  0  2  0  0  0  0  0  0  0  0  0
    6.5567  -13.7557    0.0000 C   0  0  2  0  0  0  0  0  0  0  0  0
    6.5658  -12.9308    0.0000 C   0  0  1  0  0  0  0  0  0  0  0  0
    5.8559  -12.5104    0.0000 O   0  0  0  0  0  0  0  0  0  0  0  0
   12.2950   -9.6544    0.0000 H   0  0  0  0  0  0  0  0  0  0  0  0
   11.5806  -10.8919    0.0000 H   0  0  0  0  0  0  0  0  0  0  0  0
   13.0095  -10.8919    0.0000 H   0  0  0  0  0  0  0  0  0  0  0  0
   13.3816   -8.2725    0.0000 H   0  0  0  0  0  0  0  0  0  0  0  0
   14.6915  -10.3689    0.0000 H   0  0  0  0  0  0  0  0  0  0  0  0
 62 41  1  1  0  0  0
 38 41  1  6  0  0  0
 37 30  1  1  0  0  0
 36 31  1  6  0  0  0
 35 33  1  1  0  0  0
 33 32  1  0  0  0  0
 39 34  1  1  0  0  0
 40 35  1  0  0  0  0
 36 35  1  0  0  0  0
 37 36  1  0  0  0  0
 38 37  1  0  0  0  0
 39 38  1  0  0  0  0
 40 39  1  0  0  0  0
 58 42  1  6  0  0  0
 59 43  1  1  0  0  0
 60 44  1  6  0  0  0
 61 57  1  6  0  0  0
 63 58  1  0  0  0  0
 54 56  1  1  0  0  0
 53 45  1  6  0  0  0
 52 46  1  1  0  0  0
 51 47  1  6  0  0  0
 50 49  1  1  0  0  0
 49 48  1  0  0  0  0
 55 50  1  0  0  0  0
 51 50  1  0  0  0  0
 52 51  1  0  0  0  0
 53 52  1  0  0  0  0
 54 53  1  0  0  0  0
 55 54  1  0  0  0  0
 59 58  1  0  0  0  0
 60 59  1  0  0  0  0
 61 60  1  0  0  0  0
 62 61  1  0  0  0  0
 63 62  1  0  0  0  0
  1  2  1  0  0  0  0
  2  3  1  0  0  0  0
  3  4  1  0  0  0  0
  4  5  1  0  0  0  0
  5  6  1  0  0  0  0
  6  7  1  0  0  0  0
  7  8  1  0  0  0  0
  8  9  1  0  0  0  0
  9 10  1  0  0  0  0
 10 11  1  0  0  0  0
 11 12  1  0  0  0  0
 12 13  1  0  0  0  0
 13 14  1  0  0  0  0
 14 15  1  0  0  0  0
 15 16  1  0  0  0  0
 16 17  1  0  0  0  0
 17 18  1  0  0  0  0
 18 19  2  0  0  0  0
 19 20  1  0  0  0  0
  1 20  1  0  0  0  0
  1 12  1  0  0  0  0
 13 18  1  0  0  0  0
  2  9  1  0  0  0  0
  4  8  1  0  0  0  0
 21 22  1  0  0  0  0
 22 23  1  0  0  0  0
 23 24  1  0  0  0  0
 24 56  1  0  0  0  0
 23 25  1  1  0  0  0
  6 21  1  0  0  0  0
 13 26  1  1  0  0  0
  9 27  1  1  0  0  0
  7 28  1  6  0  0  0
  6 29  1  0  0  0  0
 16 34  1  1  0  0  0
  1 64  1  1  0  0  0
 12 65  1  6  0  0  0
  2 66  1  6  0  0  0
  8 67  1  6  0  0  0
  4 68  1  6  0  0  0
M  END
>  <cdx:groupId>
50511

>  <cdx:fragmentId>
50354

$$$$
