440755.cdx
  Mrv1902 05222410222D          

 30 32  0  0  0  0            999 V2000
    7.1920   -6.0291    0.0000 O   0  0  0  0  0  0  0  0  0  0  0  0
    7.9102   -6.4351    0.0000 C   0  0  2  0  0  0  0  0  0  0  0  0
    7.9178   -7.2600    0.0000 C   0  0  1  0  0  0  0  0  0  0  0  0
    7.2071   -7.6791    0.0000 C   0  0  2  0  0  0  0  0  0  0  0  0
    6.4889   -7.2731    0.0000 C   0  0  1  0  0  0  0  0  0  0  0  0
    6.4814   -6.4481    0.0000 C   0  0  1  0  0  0  0  0  0  0  0  0
    8.6360   -7.6660    0.0000 O   0  0  0  0  0  0  0  0  0  0  0  0
    7.2147   -8.5040    0.0000 O   0  0  0  0  0  0  0  0  0  0  0  0
    5.7782   -7.6921    0.0000 O   0  0  0  0  0  0  0  0  0  0  0  0
    5.7631   -6.0422    0.0000 C   0  0  0  0  0  0  0  0  0  0  0  0
    5.0525   -6.4612    0.0000 O   0  0  0  0  0  0  0  0  0  0  0  0
    4.3267   -5.2303    0.0000 O   0  0  0  0  0  0  0  0  0  0  0  0
    4.3343   -6.0553    0.0000 C   0  0  2  0  0  0  0  0  0  0  0  0
    3.6236   -6.4743    0.0000 C   0  0  1  0  0  0  0  0  0  0  0  0
    2.9054   -6.0684    0.0000 C   0  0  2  0  0  0  0  0  0  0  0  0
    2.8978   -5.2434    0.0000 C   0  0  2  0  0  0  0  0  0  0  0  0
    3.6085   -4.8244    0.0000 C   0  0  0  0  0  0  0  0  0  0  0  0
    2.1796   -4.8375    0.0000 O   0  0  0  0  0  0  0  0  0  0  0  0
    2.1947   -6.4874    0.0000 O   0  0  0  0  0  0  0  0  0  0  0  0
    3.6311   -7.2993    0.0000 O   0  0  0  0  0  0  0  0  0  0  0  0
    8.6209   -6.0160    0.0000 O   0  0  0  0  0  0  0  0  0  0  0  0
    9.3391   -6.4220    0.0000 C   0  0  0  0  0  0  0  0  0  0  0  0
   10.0498   -6.0030    0.0000 C   0  0  0  0  0  0  0  0  0  0  0  0
   10.7680   -6.4089    0.0000 C   0  0  0  0  0  0  0  0  0  0  0  0
   11.4787   -5.9899    0.0000 C   0  0  0  0  0  0  0  0  0  0  0  0
   11.4711   -5.1649    0.0000 C   0  0  0  0  0  0  0  0  0  0  0  0
   12.1818   -4.7459    0.0000 C   0  0  0  0  0  0  0  0  0  0  0  0
   12.9000   -5.1518    0.0000 C   0  0  0  0  0  0  0  0  0  0  0  0
   12.9076   -5.9768    0.0000 C   0  0  0  0  0  0  0  0  0  0  0  0
   12.1969   -6.3958    0.0000 C   0  0  0  0  0  0  0  0  0  0  0  0
  1  2  1  0  0  0  0
  2  3  1  0  0  0  0
  3  4  1  0  0  0  0
  4  5  1  0  0  0  0
  5  6  1  0  0  0  0
  1  6  1  0  0  0  0
  3  7  1  6  0  0  0
  4  8  1  1  0  0  0
  5  9  1  6  0  0  0
 12 13  1  0  0  0  0
 13 14  1  0  0  0  0
 14 15  1  0  0  0  0
 15 16  1  0  0  0  0
 16 17  1  0  0  0  0
 12 17  1  0  0  0  0
 16 18  1  1  0  0  0
 15 19  1  1  0  0  0
 14 20  1  6  0  0  0
 13 11  1  1  0  0  0
 10 11  1  0  0  0  0
  6 10  1  1  0  0  0
 22 23  1  0  0  0  0
 23 24  2  0  0  0  0
 21 22  1  0  0  0  0
 25 26  1  0  0  0  0
 26 27  2  0  0  0  0
 27 28  1  0  0  0  0
 28 29  2  0  0  0  0
 29 30  1  0  0  0  0
 25 30  2  0  0  0  0
 24 25  1  0  0  0  0
  2 21  1  1  0  0  0
M  END
>  <cdx:groupId>
94

>  <cdx:fragmentId>
27

$$$$
