440892.cdx
  Mrv1902 05222410282D          

 38 42  0  0  0  0            999 V2000
    5.4941   -8.1422    0.0000 C   0  0  0  0  0  0  0  0  0  0  0  0
    4.7796   -8.5547    0.0000 C   0  0  0  0  0  0  0  0  0  0  0  0
    4.0652   -8.1422    0.0000 C   0  0  0  0  0  0  0  0  0  0  0  0
    5.4941   -7.3172    0.0000 O   0  0  0  0  0  0  0  0  0  0  0  0
    6.2086   -8.5547    0.0000 O   0  0  0  0  0  0  0  0  0  0  0  0
    3.3507   -8.5547    0.0000 C   0  0  0  0  0  0  0  0  0  0  0  0
    3.3507   -9.3797    0.0000 C   0  0  0  0  0  0  0  0  0  0  0  0
    2.6362   -9.7922    0.0000 C   0  0  0  0  0  0  0  0  0  0  0  0
    1.9217   -9.3797    0.0000 C   0  0  0  0  0  0  0  0  0  0  0  0
    1.9217   -8.5547    0.0000 C   0  0  0  0  0  0  0  0  0  0  0  0
    2.6362   -8.1422    0.0000 C   0  0  0  0  0  0  0  0  0  0  0  0
    6.9230   -8.1422    0.0000 C   0  0  0  0  0  0  0  0  0  0  0  0
    8.3520   -8.1422    0.0000 O   0  0  0  0  0  0  0  0  0  0  0  0
    7.6375   -8.5547    0.0000 C   0  0  1  0  0  0  0  0  0  0  0  0
    7.6375   -9.3797    0.0000 C   0  0  2  0  0  0  0  0  0  0  0  0
    8.3520   -9.7922    0.0000 C   0  0  1  0  0  0  0  0  0  0  0  0
    9.0665   -9.3797    0.0000 C   0  0  2  0  0  0  0  0  0  0  0  0
    9.0665   -8.5547    0.0000 C   0  0  2  0  0  0  0  0  0  0  0  0
    9.7809   -8.1422    0.0000 O   0  0  0  0  0  0  0  0  0  0  0  0
   10.4954   -6.9047    0.0000 C   0  0  2  0  0  0  0  0  0  0  0  0
   11.2800   -7.1596    0.0000 C   0  0  1  0  0  0  0  0  0  0  0  0
   12.1005   -7.2459    0.0000 O   0  0  0  0  0  0  0  0  0  0  0  0
   11.7649   -6.4922    0.0000 C   0  0  1  0  0  0  0  0  0  0  0  0
   11.2800   -5.8248    0.0000 C   0  0  2  0  0  0  0  0  0  0  0  0
   10.4954   -6.0797    0.0000 C   0  0  2  0  0  0  0  0  0  0  0  0
    9.7809   -5.6672    0.0000 C   0  0  0  0  0  0  0  0  0  0  0  0
    9.0665   -6.0797    0.0000 C   0  0  0  0  0  0  0  0  0  0  0  0
    9.0665   -6.9047    0.0000 O   0  0  0  0  0  0  0  0  0  0  0  0
    9.7809   -7.3172    0.0000 C   0  0  1  0  0  0  0  0  0  0  0  0
   11.1085   -7.9666    0.0000 C   0  0  0  0  0  0  0  0  0  0  0  0
   11.6919   -8.5500    0.0000 O   0  0  0  0  0  0  0  0  0  0  0  0
   11.5350   -5.0401    0.0000 O   0  0  0  0  0  0  0  0  0  0  0  0
    9.7809   -9.7922    0.0000 O   0  0  0  0  0  0  0  0  0  0  0  0
    8.3520  -10.6172    0.0000 O   0  0  0  0  0  0  0  0  0  0  0  0
    6.9230   -9.7922    0.0000 O   0  0  0  0  0  0  0  0  0  0  0  0
   10.4954   -7.7297    0.0000 H   0  0  0  0  0  0  0  0  0  0  0  0
   12.4794   -6.0797    0.0000 H   0  0  0  0  0  0  0  0  0  0  0  0
   10.5816   -5.2592    0.0000 H   0  0  0  0  0  0  0  0  0  0  0  0
  1  2  1  0  0  0  0
  2  3  2  0  0  0  0
  1  4  2  0  0  0  0
  1  5  1  0  0  0  0
  6  7  1  0  0  0  0
  7  8  2  0  0  0  0
  8  9  1  0  0  0  0
  9 10  2  0  0  0  0
 10 11  1  0  0  0  0
  6 11  2  0  0  0  0
  3  6  1  0  0  0  0
 13 14  1  0  0  0  0
 14 15  1  0  0  0  0
 15 16  1  0  0  0  0
 16 17  1  0  0  0  0
 17 18  1  0  0  0  0
 13 18  1  0  0  0  0
 20 21  1  0  0  0  0
 21 22  1  0  0  0  0
 22 23  1  0  0  0  0
 23 24  1  0  0  0  0
 24 25  1  0  0  0  0
 25 26  1  0  0  0  0
 26 27  2  0  0  0  0
 27 28  1  0  0  0  0
 28 29  1  0  0  0  0
 20 29  1  0  0  0  0
 20 25  1  0  0  0  0
 21 23  1  0  0  0  0
 30 31  1  0  0  0  0
 21 30  1  1  0  0  0
 24 32  1  6  0  0  0
 29 19  1  6  0  0  0
 18 19  1  1  0  0  0
 17 33  1  6  0  0  0
 16 34  1  1  0  0  0
 15 35  1  6  0  0  0
 14 12  1  1  0  0  0
  5 12  1  0  0  0  0
 20 36  1  6  0  0  0
 23 37  1  1  0  0  0
 25 38  1  6  0  0  0
M  END
>  <cdx:groupId>
18237

>  <cdx:fragmentId>
18160

$$$$
