440832.cdx
  Mrv1902 05222410252D          

 20 22  0  0  0  0            999 V2000
    8.1854   -9.7297    0.0000 C   0  0  0  0  0  0  0  0  0  0  0  0
    8.1854  -10.5547    0.0000 C   0  0  0  0  0  0  0  0  0  0  0  0
    7.4709  -10.9672    0.0000 C   0  0  0  0  0  0  0  0  0  0  0  0
    6.7564  -10.5547    0.0000 C   0  0  0  0  0  0  0  0  0  0  0  0
    6.0420  -10.9672    0.0000 C   0  0  0  0  0  0  0  0  0  0  0  0
    5.3275  -10.5547    0.0000 C   0  0  0  0  0  0  0  0  0  0  0  0
    5.3275   -9.7297    0.0000 C   0  0  0  0  0  0  0  0  0  0  0  0
    6.0420   -9.3172    0.0000 C   0  0  0  0  0  0  0  0  0  0  0  0
    6.7564   -9.7297    0.0000 C   0  0  0  0  0  0  0  0  0  0  0  0
    7.4709   -9.3172    0.0000 O   0  3  0  0  0  0  0  0  0  0  0  0
    8.8999  -10.9672    0.0000 O   0  0  0  0  0  0  0  0  0  0  0  0
    6.0420  -11.7922    0.0000 O   0  0  0  0  0  0  0  0  0  0  0  0
    4.6130   -9.3172    0.0000 O   0  0  0  0  0  0  0  0  0  0  0  0
    8.8999   -9.3172    0.0000 C   0  0  0  0  0  0  0  0  0  0  0  0
    8.8999   -8.4922    0.0000 C   0  0  0  0  0  0  0  0  0  0  0  0
    9.6143   -8.0797    0.0000 C   0  0  0  0  0  0  0  0  0  0  0  0
   10.3288   -8.4922    0.0000 C   0  0  0  0  0  0  0  0  0  0  0  0
   10.3288   -9.3172    0.0000 C   0  0  0  0  0  0  0  0  0  0  0  0
    9.6143   -9.7297    0.0000 C   0  0  0  0  0  0  0  0  0  0  0  0
   11.0433   -8.0797    0.0000 O   0  0  0  0  0  0  0  0  0  0  0  0
  1  2  2  0  0  0  0
  2  3  1  0  0  0  0
  3  4  2  0  0  0  0
  4  5  1  0  0  0  0
  5  6  2  0  0  0  0
  6  7  1  0  0  0  0
  7  8  2  0  0  0  0
  8  9  1  0  0  0  0
  4  9  1  0  0  0  0
  9 10  2  0  0  0  0
  1 10  1  0  0  0  0
  2 11  1  0  0  0  0
  5 12  1  0  0  0  0
  7 13  1  0  0  0  0
 14 15  1  0  0  0  0
 15 16  2  0  0  0  0
 16 17  1  0  0  0  0
 17 18  2  0  0  0  0
 18 19  1  0  0  0  0
 14 19  2  0  0  0  0
 17 20  1  0  0  0  0
  1 14  1  0  0  0  0
M  CHG  1  10   1
M  END
>  <cdx:fragmentId>
5

$$$$
