6440999.cdx
  Mrv1902 05222410222D          

 48 51  0  0  0  0            999 V2000
    5.3098   -6.4107    0.0000 C   0  0  0  0  0  0  0  0  0  0  0  0
    6.0242   -6.8232    0.0000 C   0  0  0  0  0  0  0  0  0  0  0  0
    6.0242   -7.6482    0.0000 C   0  0  0  0  0  0  0  0  0  0  0  0
    5.3098   -8.0607    0.0000 C   0  0  0  0  0  0  0  0  0  0  0  0
    4.5953   -7.6482    0.0000 C   0  0  1  0  0  0  0  0  0  0  0  0
    4.5953   -6.8232    0.0000 O   0  0  0  0  0  0  0  0  0  0  0  0
    6.7387   -6.4107    0.0000 C   0  0  0  0  0  0  0  0  0  0  0  0
    7.4532   -6.8232    0.0000 O   0  0  0  0  0  0  0  0  0  0  0  0
    6.7387   -5.5857    0.0000 O   0  0  0  0  0  0  0  0  0  0  0  0
    3.8808   -8.0607    0.0000 O   0  0  0  0  0  0  0  0  0  0  0  0
    2.4519   -8.0607    0.0000 O   0  0  0  0  0  0  0  0  0  0  0  0
    3.1664   -7.6482    0.0000 C   0  0  2  0  0  0  0  0  0  0  0  0
    3.1664   -6.8232    0.0000 C   0  0  1  0  0  0  0  0  0  0  0  0
    2.4519   -6.4107    0.0000 C   0  0  2  0  0  0  0  0  0  0  0  0
    1.7374   -6.8232    0.0000 C   0  0  1  0  0  0  0  0  0  0  0  0
    1.7374   -7.6482    0.0000 C   0  0  1  0  0  0  0  0  0  0  0  0
    1.0229   -8.0607    0.0000 C   0  0  0  0  0  0  0  0  0  0  0  0
    0.3085   -7.6482    0.0000 O   0  0  0  0  0  0  0  0  0  0  0  0
    1.0229   -6.4107    0.0000 O   0  0  0  0  0  0  0  0  0  0  0  0
    2.4519   -5.5857    0.0000 O   0  0  0  0  0  0  0  0  0  0  0  0
    3.8808   -6.4107    0.0000 O   0  0  0  0  0  0  0  0  0  0  0  0
    7.1674   -8.3082    0.0000 C   0  0  0  0  0  0  0  0  0  0  0  0
    7.8819   -7.8957    0.0000 C   0  0  0  0  0  0  0  0  0  0  0  0
    8.5963   -8.3082    0.0000 O   0  0  0  0  0  0  0  0  0  0  0  0
    9.3108   -7.8957    0.0000 C   0  0  0  0  0  0  0  0  0  0  0  0
   10.7398   -7.8957    0.0000 O   0  0  0  0  0  0  0  0  0  0  0  0
   10.0253   -8.3082    0.0000 C   0  0  1  0  0  0  0  0  0  0  0  0
   10.0253   -9.1332    0.0000 C   0  0  2  0  0  0  0  0  0  0  0  0
   10.7398   -9.5457    0.0000 C   0  0  1  0  0  0  0  0  0  0  0  0
   11.4542   -9.1332    0.0000 C   0  0  2  0  0  0  0  0  0  0  0  0
   11.4542   -8.3082    0.0000 C   0  0  2  0  0  0  0  0  0  0  0  0
   12.1687   -7.8957    0.0000 O   0  0  0  0  0  0  0  0  0  0  0  0
   12.8832   -8.3082    0.0000 C   0  0  0  0  0  0  0  0  0  0  0  0
   13.5976   -7.8957    0.0000 C   0  0  0  0  0  0  0  0  0  0  0  0
   14.3121   -8.3082    0.0000 C   0  0  0  0  0  0  0  0  0  0  0  0
   15.0266   -7.8957    0.0000 C   0  0  0  0  0  0  0  0  0  0  0  0
   15.7411   -8.3082    0.0000 C   0  0  0  0  0  0  0  0  0  0  0  0
   15.7411   -9.1332    0.0000 C   0  0  0  0  0  0  0  0  0  0  0  0
   15.0266   -9.5457    0.0000 C   0  0  0  0  0  0  0  0  0  0  0  0
   14.3121   -9.1332    0.0000 C   0  0  0  0  0  0  0  0  0  0  0  0
   16.4555   -9.5457    0.0000 O   0  0  0  0  0  0  0  0  0  0  0  0
   12.1687   -9.5457    0.0000 O   0  0  0  0  0  0  0  0  0  0  0  0
   10.7398  -10.3707    0.0000 O   0  0  0  0  0  0  0  0  0  0  0  0
    9.3108   -9.5457    0.0000 O   0  0  0  0  0  0  0  0  0  0  0  0
    7.8819   -7.0707    0.0000 O   0  0  0  0  0  0  0  0  0  0  0  0
    5.3098   -8.8857    0.0000 C   0  0  0  0  0  0  0  0  0  0  0  0
    6.0242   -9.2982    0.0000 C   0  0  0  0  0  0  0  0  0  0  0  0
    7.4532   -5.1732    0.0000 C   0  0  0  0  0  0  0  0  0  0  0  0
  1  2  2  0  0  0  0
  2  3  1  0  0  0  0
  3  4  1  0  0  0  0
  4  5  1  0  0  0  0
  5  6  1  0  0  0  0
  1  6  1  0  0  0  0
  7  8  2  0  0  0  0
  7  9  1  0  0  0  0
  2  7  1  0  0  0  0
 11 12  1  0  0  0  0
 12 13  1  0  0  0  0
 13 14  1  0  0  0  0
 14 15  1  0  0  0  0
 15 16  1  0  0  0  0
 11 16  1  0  0  0  0
 17 18  1  0  0  0  0
 16 17  1  6  0  0  0
 15 19  1  1  0  0  0
 14 20  1  6  0  0  0
 13 21  1  1  0  0  0
 12 10  1  6  0  0  0
  5 10  1  6  0  0  0
 22 23  1  0  0  0  0
 24 25  1  0  0  0  0
 26 27  1  0  0  0  0
 27 28  1  0  0  0  0
 28 29  1  0  0  0  0
 29 30  1  0  0  0  0
 30 31  1  0  0  0  0
 26 31  1  0  0  0  0
 33 34  1  0  0  0  0
 32 33  1  0  0  0  0
 35 36  1  0  0  0  0
 36 37  2  0  0  0  0
 37 38  1  0  0  0  0
 38 39  2  0  0  0  0
 39 40  1  0  0  0  0
 35 40  2  0  0  0  0
 38 41  1  0  0  0  0
 34 35  1  0  0  0  0
 31 32  1  1  0  0  0
 30 42  1  6  0  0  0
 29 43  1  1  0  0  0
 28 44  1  6  0  0  0
 27 25  1  1  0  0  0
 23 24  1  0  0  0  0
 23 45  2  0  0  0  0
  3 22  1  0  0  0  0
 46 47  1  0  0  0  0
  4 46  2  0  0  0  0
  9 48  1  0  0  0  0
M  END
>  <cdx:groupId>
18678

>  <cdx:fragmentId>
18602

$$$$
