440933.cdx
  Mrv1902 05222410272D          

 10 10  0  0  0  0            999 V2000
   13.9904  -14.3092    0.0000 C   0  0  0  0  0  0  0  0  0  0  0  0
   14.8154  -14.3092    0.0000 C   0  0  0  0  0  0  0  0  0  0  0  0
   15.0703  -13.5246    0.0000 C   0  0  1  0  0  0  0  0  0  0  0  0
   14.4029  -13.0396    0.0000 N   0  0  0  0  0  0  0  0  0  0  0  0
   13.7355  -13.5246    0.0000 C   0  0  0  0  0  0  0  0  0  0  0  0
   15.7848  -13.1121    0.0000 C   0  0  0  0  0  0  0  0  0  0  0  0
   16.4993  -13.5246    0.0000 C   0  0  0  0  0  0  0  0  0  0  0  0
   16.4993  -14.3496    0.0000 O   0  0  0  0  0  0  0  0  0  0  0  0
   17.2137  -13.1121    0.0000 C   0  0  0  0  0  0  0  0  0  0  0  0
   14.4029  -12.2146    0.0000 C   0  0  0  0  0  0  0  0  0  0  0  0
  1  2  1  0  0  0  0
  2  3  1  0  0  0  0
  3  4  1  0  0  0  0
  4  5  1  0  0  0  0
  5  1  1  0  0  0  0
  3  6  1  1  0  0  0
  7  6  1  0  0  0  0
  7  8  2  0  0  0  0
  7  9  1  0  0  0  0
  4 10  1  0  0  0  0
M  END
>  <cdx:fragmentId>
5380

$$$$
