440940.cdx
  Mrv1902 05222410242D          

 17 18  0  0  0  0            999 V2000
    6.3090   -5.7997    0.0000 C   0  0  0  0  0  0  0  0  0  0  0  0
    6.3090   -6.6247    0.0000 C   0  0  0  0  0  0  0  0  0  0  0  0
    7.0235   -7.0372    0.0000 C   0  0  0  0  0  0  0  0  0  0  0  0
    5.5945   -5.3872    0.0000 O   0  0  0  0  0  0  0  0  0  0  0  0
    5.5945   -7.0372    0.0000 C   0  0  0  0  0  0  0  0  0  0  0  0
    8.5226   -9.3547    0.0000 C   0  0  0  0  0  0  0  0  0  0  0  0
    9.0075   -8.6872    0.0000 C   0  0  0  0  0  0  0  0  0  0  0  0
    8.5226   -8.0198    0.0000 C   0  0  0  0  0  0  0  0  0  0  0  0
    7.7379   -8.2747    0.0000 C   0  0  0  0  0  0  0  0  0  0  0  0
    7.0235   -7.8622    0.0000 C   0  0  1  0  0  0  0  0  0  0  0  0
    6.3090   -8.2747    0.0000 C   0  0  0  0  0  0  0  0  0  0  0  0
    6.3090   -9.0997    0.0000 C   0  0  0  0  0  0  0  0  0  0  0  0
    7.0235   -9.5122    0.0000 C   0  0  2  0  0  0  0  0  0  0  0  0
    7.7379   -9.0997    0.0000 C   0  0  1  0  0  0  0  0  0  0  0  0
    7.0235  -10.3372    0.0000 C   0  0  0  0  0  0  0  0  0  0  0  0
    8.7775   -7.2352    0.0000 C   0  0  0  0  0  0  0  0  0  0  0  0
    7.8242   -9.9202    0.0000 H   0  0  0  0  0  0  0  0  0  0  0  0
  1  2  1  0  0  0  0
  2  3  2  0  0  0  0
  1  4  2  0  0  0  0
  2  5  1  0  0  0  0
  6  7  1  0  0  0  0
  7  8  1  0  0  0  0
  8  9  2  0  0  0  0
  9 10  1  0  0  0  0
 10 11  1  0  0  0  0
 11 12  1  0  0  0  0
 12 13  1  0  0  0  0
 13 14  1  0  0  0  0
  6 14  1  0  0  0  0
  9 14  1  0  0  0  0
 13 15  1  6  0  0  0
  8 16  1  0  0  0  0
 10  3  1  1  0  0  0
 14 17  1  1  0  0  0
M  END
>  <cdx:fragmentId>
18317

$$$$
