440988.cdx
  Mrv1902 05222410202D          

 27 29  0  0  0  0            999 V2000
    4.4368   -6.9318    0.0000 O   0  0  0  0  0  0  0  0  0  0  0  0
    3.7224   -7.3443    0.0000 C   0  0  1  0  0  0  0  0  0  0  0  0
    3.8939   -8.1513    0.0000 C   0  0  2  0  0  0  0  0  0  0  0  0
    4.7144   -8.2375    0.0000 C   0  0  2  0  0  0  0  0  0  0  0  0
    5.0499   -7.4838    0.0000 C   0  0  2  0  0  0  0  0  0  0  0  0
    3.3419   -8.7643    0.0000 O   0  0  0  0  0  0  0  0  0  0  0  0
    5.1269   -8.9520    0.0000 O   0  0  0  0  0  0  0  0  0  0  0  0
    7.0129   -6.6448    0.0000 N   0  0  0  0  0  0  0  0  0  0  0  0
    6.1925   -6.5586    0.0000 C   0  0  0  0  0  0  0  0  0  0  0  0
    5.8569   -7.3123    0.0000 N   0  0  0  0  0  0  0  0  0  0  0  0
    6.4700   -7.8643    0.0000 C   0  0  0  0  0  0  0  0  0  0  0  0
    6.4700   -8.6893    0.0000 N   0  0  0  0  0  0  0  0  0  0  0  0
    7.1845   -9.1018    0.0000 C   0  0  0  0  0  0  0  0  0  0  0  0
    7.8989   -8.6893    0.0000 N   0  0  0  0  0  0  0  0  0  0  0  0
    7.8989   -7.8643    0.0000 C   0  0  0  0  0  0  0  0  0  0  0  0
    7.1845   -7.4518    0.0000 C   0  0  0  0  0  0  0  0  0  0  0  0
    8.6134   -7.4518    0.0000 N   0  0  0  0  0  0  0  0  0  0  0  0
    9.3279   -7.8643    0.0000 C   0  0  0  0  0  0  0  0  0  0  0  0
   10.0423   -7.4518    0.0000 C   0  0  0  0  0  0  0  0  0  0  0  0
   11.4713   -9.1018    0.0000 O   0  0  0  0  0  0  0  0  0  0  0  0
    2.9687   -7.0087    0.0000 C   0  0  0  0  0  0  0  0  0  0  0  0
    2.3012   -7.4936    0.0000 O   0  0  0  0  0  0  0  0  0  0  0  0
   11.4713   -7.4518    0.0000 C   0  0  0  0  0  0  0  0  0  0  0  0
   10.7568   -8.6893    0.0000 C   0  0  0  0  0  0  0  0  0  0  0  0
   10.7568   -7.8643    0.0000 C   0  0  0  0  0  0  0  0  0  0  0  0
    7.1845   -9.9268    0.0000 S   0  0  0  0  0  0  0  0  0  0  0  0
    7.8989  -10.3393    0.0000 C   0  0  0  0  0  0  0  0  0  0  0  0
 24 20  1  0  0  0  0
 25 23  1  0  0  0  0
 25 24  1  0  0  0  0
  1  2  1  0  0  0  0
  2  3  1  0  0  0  0
  3  4  1  0  0  0  0
  4  5  1  0  0  0  0
  1  5  1  0  0  0  0
  3  6  1  6  0  0  0
  4  7  1  6  0  0  0
  8  9  2  0  0  0  0
  9 10  1  0  0  0  0
 10 11  1  0  0  0  0
 11 12  2  0  0  0  0
 12 13  1  0  0  0  0
 13 14  2  0  0  0  0
 14 15  1  0  0  0  0
 15 16  2  0  0  0  0
  8 16  1  0  0  0  0
 11 16  1  0  0  0  0
 18 19  1  0  0  0  0
 19 25  2  0  0  0  0
 17 18  1  0  0  0  0
 15 17  1  0  0  0  0
  5 10  1  1  0  0  0
 21 22  1  0  0  0  0
  2 21  1  1  0  0  0
 13 26  1  0  0  0  0
 26 27  1  0  0  0  0
M  END
>  <cdx:groupId>
18466

>  <cdx:fragmentId>
18467

$$$$
