440973.cdx
  Mrv1902 05222410232D          

 26 28  0  0  0  0            999 V2000
    7.1504   -6.2598    0.0000 N   0  0  0  0  0  0  0  0  0  0  0  0
    6.3300   -6.1736    0.0000 C   0  0  0  0  0  0  0  0  0  0  0  0
    5.9944   -6.9273    0.0000 N   0  0  0  0  0  0  0  0  0  0  0  0
    6.6075   -7.4793    0.0000 C   0  0  0  0  0  0  0  0  0  0  0  0
    6.6075   -8.3043    0.0000 N   0  0  0  0  0  0  0  0  0  0  0  0
    7.3220   -8.7168    0.0000 C   0  0  0  0  0  0  0  0  0  0  0  0
    8.0364   -8.3043    0.0000 N   0  0  0  0  0  0  0  0  0  0  0  0
    8.0364   -7.4793    0.0000 C   0  0  0  0  0  0  0  0  0  0  0  0
    7.3220   -7.0668    0.0000 C   0  0  0  0  0  0  0  0  0  0  0  0
    8.7509   -7.0668    0.0000 N   0  0  0  0  0  0  0  0  0  0  0  0
    9.4654   -7.4793    0.0000 C   0  0  0  0  0  0  0  0  0  0  0  0
   10.1798   -7.0668    0.0000 C   0  0  0  0  0  0  0  0  0  0  0  0
   10.8943   -7.4793    0.0000 C   0  0  0  0  0  0  0  0  0  0  0  0
   11.6088   -7.0668    0.0000 C   0  0  0  0  0  0  0  0  0  0  0  0
   10.8943   -8.3043    0.0000 C   0  0  0  0  0  0  0  0  0  0  0  0
    5.1874   -7.0988    0.0000 C   0  0  2  0  0  0  0  0  0  0  0  0
    4.5743   -6.5468    0.0000 O   0  0  0  0  0  0  0  0  0  0  0  0
    3.8599   -6.9593    0.0000 C   0  0  1  0  0  0  0  0  0  0  0  0
    4.0314   -7.7663    0.0000 C   0  0  2  0  0  0  0  0  0  0  0  0
    4.8519   -7.8525    0.0000 C   0  0  1  0  0  0  0  0  0  0  0  0
    3.1062   -6.6237    0.0000 C   0  0  0  0  0  0  0  0  0  0  0  0
    2.4387   -7.1086    0.0000 O   0  0  0  0  0  0  0  0  0  0  0  0
    3.4794   -8.3793    0.0000 O   0  0  0  0  0  0  0  0  0  0  0  0
    5.2644   -8.5670    0.0000 O   0  0  0  0  0  0  0  0  0  0  0  0
    7.3220   -9.5418    0.0000 S   0  0  0  0  0  0  0  0  0  0  0  0
    8.0364   -9.9543    0.0000 C   0  0  0  0  0  0  0  0  0  0  0  0
  1  2  2  0  0  0  0
  2  3  1  0  0  0  0
  3  4  1  0  0  0  0
  4  5  2  0  0  0  0
  5  6  1  0  0  0  0
  6  7  2  0  0  0  0
  7  8  1  0  0  0  0
  8  9  2  0  0  0  0
  1  9  1  0  0  0  0
  4  9  1  0  0  0  0
 11 12  1  0  0  0  0
 12 13  2  0  0  0  0
 13 14  1  0  0  0  0
 13 15  1  0  0  0  0
 10 11  1  0  0  0  0
  8 10  1  0  0  0  0
 16  3  1  1  0  0  0
 16 17  1  0  0  0  0
 17 18  1  0  0  0  0
 18 19  1  0  0  0  0
 19 20  1  0  0  0  0
 20 16  1  0  0  0  0
 18 21  1  1  0  0  0
 21 22  1  0  0  0  0
 19 23  1  6  0  0  0
 20 24  1  6  0  0  0
  6 25  1  0  0  0  0
 25 26  1  0  0  0  0
M  END
>  <cdx:groupId>
18438

>  <cdx:fragmentId>
18378

$$$$
