440987.cdx
  Mrv1902 05222410242D          

 18 19  0  0  0  0            999 V2000
    5.4729   -6.3698    0.0000 N   0  0  0  0  0  0  0  0  0  0  0  0
    4.6525   -6.2836    0.0000 C   0  0  0  0  0  0  0  0  0  0  0  0
    4.3169   -7.0373    0.0000 N   0  0  0  0  0  0  0  0  0  0  0  0
    4.9300   -7.5893    0.0000 C   0  0  0  0  0  0  0  0  0  0  0  0
    4.9300   -8.4143    0.0000 N   0  0  0  0  0  0  0  0  0  0  0  0
    5.6445   -8.8268    0.0000 C   0  0  0  0  0  0  0  0  0  0  0  0
    6.3589   -8.4143    0.0000 N   0  0  0  0  0  0  0  0  0  0  0  0
    6.3589   -7.5893    0.0000 C   0  0  0  0  0  0  0  0  0  0  0  0
    5.6445   -7.1768    0.0000 C   0  0  0  0  0  0  0  0  0  0  0  0
    7.0734   -7.1768    0.0000 N   0  0  0  0  0  0  0  0  0  0  0  0
    7.7879   -7.5893    0.0000 C   0  0  0  0  0  0  0  0  0  0  0  0
    8.5023   -7.1768    0.0000 C   0  0  0  0  0  0  0  0  0  0  0  0
    9.9313   -8.8268    0.0000 O   0  0  0  0  0  0  0  0  0  0  0  0
    9.9313   -7.1768    0.0000 C   0  0  0  0  0  0  0  0  0  0  0  0
    9.2168   -8.4143    0.0000 C   0  0  0  0  0  0  0  0  0  0  0  0
    9.2168   -7.5893    0.0000 C   0  0  0  0  0  0  0  0  0  0  0  0
    5.6445   -9.6518    0.0000 S   0  0  0  0  0  0  0  0  0  0  0  0
    6.3589  -10.0643    0.0000 C   0  0  0  0  0  0  0  0  0  0  0  0
 15 13  1  0  0  0  0
 16 14  1  0  0  0  0
 16 15  1  0  0  0  0
  1  2  2  0  0  0  0
  2  3  1  0  0  0  0
  3  4  1  0  0  0  0
  4  5  2  0  0  0  0
  5  6  1  0  0  0  0
  6  7  2  0  0  0  0
  7  8  1  0  0  0  0
  8  9  2  0  0  0  0
  1  9  1  0  0  0  0
  4  9  1  0  0  0  0
 11 12  1  0  0  0  0
 12 16  2  0  0  0  0
 10 11  1  0  0  0  0
  8 10  1  0  0  0  0
  6 17  1  0  0  0  0
 17 18  1  0  0  0  0
M  END
>  <cdx:groupId>
18438

>  <cdx:fragmentId>
18378

$$$$
