440993.cdx
  Mrv1902 05222410242D          

 48 51  0  0  0  0            999 V2000
    7.7823  -12.2213    0.0000 C   0  0  0  0  0  0  0  0  0  0  0  0
    8.4909  -12.6439    0.0000 C   0  0  0  0  0  0  0  0  0  0  0  0
    7.0621  -12.6237    0.0000 O   0  0  0  0  0  0  0  0  0  0  0  0
    7.7939  -11.3964    0.0000 N   0  0  0  0  0  0  0  0  0  0  0  0
    6.3884   -9.7264    0.0000 O   0  0  0  0  0  0  0  0  0  0  0  0
    7.0970  -10.1490    0.0000 C   0  0  2  0  0  0  0  0  0  0  0  0
    7.0853  -10.9739    0.0000 C   0  0  1  0  0  0  0  0  0  0  0  0
    6.3651  -11.3763    0.0000 C   0  0  2  0  0  0  0  0  0  0  0  0
    5.6565  -10.9537    0.0000 C   0  0  1  0  0  0  0  0  0  0  0  0
    5.6682  -10.1288    0.0000 C   0  0  1  0  0  0  0  0  0  0  0  0
    6.3535  -12.2012    0.0000 O   0  0  0  0  0  0  0  0  0  0  0  0
    4.9247  -12.1810    0.0000 O   0  0  0  0  0  0  0  0  0  0  0  0
    5.6333  -12.6036    0.0000 C   0  0  2  0  0  0  0  0  0  0  0  0
    5.6216  -13.4285    0.0000 C   0  0  1  0  0  0  0  0  0  0  0  0
    4.9014  -13.8309    0.0000 C   0  0  2  0  0  0  0  0  0  0  0  0
    4.1928  -13.4083    0.0000 C   0  0  2  0  0  0  0  0  0  0  0  0
    4.2045  -12.5834    0.0000 C   0  0  1  0  0  0  0  0  0  0  0  0
    3.4959  -12.1609    0.0000 C   0  0  0  0  0  0  0  0  0  0  0  0
    2.7757  -12.5633    0.0000 O   0  0  0  0  0  0  0  0  0  0  0  0
    3.4726  -13.8107    0.0000 O   0  0  0  0  0  0  0  0  0  0  0  0
    4.8898  -14.6558    0.0000 O   0  0  0  0  0  0  0  0  0  0  0  0
    6.3302  -13.8510    0.0000 O   0  0  0  0  0  0  0  0  0  0  0  0
    4.9596   -9.7063    0.0000 C   0  0  0  0  0  0  0  0  0  0  0  0
    4.2394  -10.1087    0.0000 O   0  0  0  0  0  0  0  0  0  0  0  0
    4.9363  -11.3561    0.0000 O   0  0  0  0  0  0  0  0  0  0  0  0
    7.8172   -9.7466    0.0000 O   0  0  0  0  0  0  0  0  0  0  0  0
    7.8521   -7.2718    0.0000 O   0  0  0  0  0  0  0  0  0  0  0  0
    7.1319   -7.6742    0.0000 C   0  0  1  0  0  0  0  0  0  0  0  0
    7.1202   -8.4991    0.0000 C   0  0  1  0  0  0  0  0  0  0  0  0
    7.8288   -8.9217    0.0000 C   0  0  1  0  0  0  0  0  0  0  0  0
    8.5490   -8.5193    0.0000 C   0  0  2  0  0  0  0  0  0  0  0  0
    8.5607   -7.6944    0.0000 C   0  0  2  0  0  0  0  0  0  0  0  0
    6.4233   -7.2517    0.0000 C   0  0  0  0  0  0  0  0  0  0  0  0
    5.7031   -7.6541    0.0000 O   0  0  0  0  0  0  0  0  0  0  0  0
    9.2576   -8.9418    0.0000 O   0  0  0  0  0  0  0  0  0  0  0  0
    6.4000   -8.9015    0.0000 O   0  0  0  0  0  0  0  0  0  0  0  0
   10.7006   -6.4512    0.0000 O   0  0  0  0  0  0  0  0  0  0  0  0
   10.6823   -4.8013    0.0000 O   0  0  0  0  0  0  0  0  0  0  0  0
    9.2442   -3.9922    0.0000 O   0  0  0  0  0  0  0  0  0  0  0  0
    7.1239   -6.0784    0.0000 O   0  0  0  0  0  0  0  0  0  0  0  0
    7.8429   -6.4829    0.0000 C   0  0  0  0  0  0  0  0  0  0  0  0
    9.2534   -4.8171    0.0000 C   0  0  0  0  0  0  0  0  0  0  0  0
    9.9724   -5.2217    0.0000 C   0  0  1  0  0  0  0  0  0  0  0  0
    9.9816   -6.0466    0.0000 C   0  0  2  0  0  0  0  0  0  0  0  0
    9.2717   -6.4670    0.0000 C   0  0  1  0  0  0  0  0  0  0  0  0
    8.5527   -6.0625    0.0000 C   0  0  2  0  0  0  0  0  0  0  0  0
    8.5436   -5.2375    0.0000 O   0  0  0  0  0  0  0  0  0  0  0  0
    9.2809   -7.2920    0.0000 O   0  0  0  0  0  0  0  0  0  0  0  0
 45 48  1  6  0  0  0
 44 37  1  1  0  0  0
 43 38  1  6  0  0  0
 42 39  1  0  0  0  0
 46 41  1  1  0  0  0
 41 40  1  0  0  0  0
 47 42  1  0  0  0  0
 43 42  1  0  0  0  0
 44 43  1  0  0  0  0
 45 44  1  0  0  0  0
 46 45  1  0  0  0  0
 47 46  1  0  0  0  0
  1  2  1  0  0  0  0
  1  3  2  0  0  0  0
  1  4  1  0  0  0  0
  5  6  1  0  0  0  0
  6  7  1  0  0  0  0
  7  8  1  0  0  0  0
  8  9  1  0  0  0  0
  9 10  1  0  0  0  0
  5 10  1  0  0  0  0
 12 13  1  0  0  0  0
 13 14  1  0  0  0  0
 14 15  1  0  0  0  0
 15 16  1  0  0  0  0
 16 17  1  0  0  0  0
 12 17  1  0  0  0  0
 18 19  1  0  0  0  0
 17 18  1  1  0  0  0
 16 20  1  1  0  0  0
 15 21  1  1  0  0  0
 14 22  1  6  0  0  0
 13 11  1  1  0  0  0
  8 11  1  1  0  0  0
 23 24  1  0  0  0  0
 10 23  1  1  0  0  0
  9 25  1  6  0  0  0
 27 28  1  0  0  0  0
 28 29  1  0  0  0  0
 29 30  1  0  0  0  0
 30 31  1  0  0  0  0
 31 32  1  0  0  0  0
 27 32  1  0  0  0  0
 32 48  1  1  0  0  0
 33 34  1  0  0  0  0
 28 33  1  1  0  0  0
 31 35  1  6  0  0  0
 29 36  1  1  0  0  0
 30 26  1  1  0  0  0
  6 26  1  1  0  0  0
  7  4  1  6  0  0  0
M  END
>  <cdx:fragmentId>
5669

$$$$
