440972.cdx
  Mrv1902 05222410222D          

 17 18  0  0  0  0            999 V2000
    5.3079   -6.4248    0.0000 N   0  0  0  0  0  0  0  0  0  0  0  0
    4.4875   -6.3386    0.0000 C   0  0  0  0  0  0  0  0  0  0  0  0
    4.1519   -7.0923    0.0000 N   0  0  0  0  0  0  0  0  0  0  0  0
    4.7650   -7.6443    0.0000 C   0  0  0  0  0  0  0  0  0  0  0  0
    4.7650   -8.4693    0.0000 N   0  0  0  0  0  0  0  0  0  0  0  0
    5.4795   -8.8818    0.0000 C   0  0  0  0  0  0  0  0  0  0  0  0
    6.1939   -8.4693    0.0000 N   0  0  0  0  0  0  0  0  0  0  0  0
    6.1939   -7.6443    0.0000 C   0  0  0  0  0  0  0  0  0  0  0  0
    5.4795   -7.2318    0.0000 C   0  0  0  0  0  0  0  0  0  0  0  0
    6.9084   -7.2318    0.0000 N   0  0  0  0  0  0  0  0  0  0  0  0
    7.6229   -7.6443    0.0000 C   0  0  0  0  0  0  0  0  0  0  0  0
    8.3373   -7.2318    0.0000 C   0  0  0  0  0  0  0  0  0  0  0  0
    9.0518   -7.6443    0.0000 C   0  0  0  0  0  0  0  0  0  0  0  0
    9.7663   -7.2318    0.0000 C   0  0  0  0  0  0  0  0  0  0  0  0
    9.0518   -8.4693    0.0000 C   0  0  0  0  0  0  0  0  0  0  0  0
    5.4795   -9.7068    0.0000 S   0  0  0  0  0  0  0  0  0  0  0  0
    6.1939  -10.1193    0.0000 C   0  0  0  0  0  0  0  0  0  0  0  0
  1  2  2  0  0  0  0
  2  3  1  0  0  0  0
  3  4  1  0  0  0  0
  4  5  2  0  0  0  0
  5  6  1  0  0  0  0
  6  7  2  0  0  0  0
  7  8  1  0  0  0  0
  8  9  2  0  0  0  0
  1  9  1  0  0  0  0
  4  9  1  0  0  0  0
 11 12  1  0  0  0  0
 12 13  2  0  0  0  0
 13 14  1  0  0  0  0
 13 15  1  0  0  0  0
 10 11  1  0  0  0  0
  8 10  1  0  0  0  0
  6 16  1  0  0  0  0
 16 17  1  0  0  0  0
M  END
>  <cdx:groupId>
18438

>  <cdx:fragmentId>
18378

$$$$
