440990.cdx
  Mrv1902 05222410252D          

 11 11  0  0  0  0            999 V2000
    8.8475   -7.7754    0.0000 C   0  0  0  0  0  0  0  0  0  0  0  0
    9.1489   -8.5434    0.0000 C   0  0  0  0  0  0  0  0  0  0  0  0
    8.7364   -9.2578    0.0000 C   0  0  0  0  0  0  0  0  0  0  0  0
    7.9206   -9.3808    0.0000 C   0  0  0  0  0  0  0  0  0  0  0  0
    7.3158   -8.8196    0.0000 C   0  0  0  0  0  0  0  0  0  0  0  0
    7.3775   -7.9970    0.0000 C   0  0  2  0  0  0  0  0  0  0  0  0
    8.0591   -7.5322    0.0000 C   0  0  0  0  0  0  0  0  0  0  0  0
    6.6630   -7.5845    0.0000 C   0  0  0  0  0  0  0  0  0  0  0  0
    5.9485   -7.9970    0.0000 C   0  0  0  0  0  0  0  0  0  0  0  0
    5.9485   -8.8220    0.0000 C   0  0  0  0  0  0  0  0  0  0  0  0
    5.2341   -9.2345    0.0000 C   0  0  0  0  0  0  0  0  0  0  0  0
  1  2  2  0  0  0  0
  2  3  1  0  0  0  0
  3  4  1  0  0  0  0
  4  5  2  0  0  0  0
  5  6  1  0  0  0  0
  6  7  1  0  0  0  0
  1  7  1  0  0  0  0
  8  9  2  0  0  0  0
  9 10  1  0  0  0  0
 10 11  1  0  0  0  0
  6  8  1  1  0  0  0
M  END
>  <cdx:fragmentId>
5

$$$$
