441035.cdx
  Mrv1902 05222410262D          

 12 11  0  0  0  0            999 V2000
   18.1948  -13.0744    0.0000 O   0  0  0  0  0  0  0  0  0  0  0  0
   17.4804  -13.4869    0.0000 C   0  0  0  0  0  0  0  0  0  0  0  0
   16.7659  -13.0744    0.0000 C   0  0  1  0  0  0  0  0  0  0  0  0
   16.7659  -12.2494    0.0000 O   0  0  0  0  0  0  0  0  0  0  0  0
   16.0514  -13.4869    0.0000 C   0  0  1  0  0  0  0  0  0  0  0  0
   16.0514  -14.3119    0.0000 O   0  0  0  0  0  0  0  0  0  0  0  0
   15.3370  -13.0744    0.0000 C   0  0  1  0  0  0  0  0  0  0  0  0
   15.3370  -12.2494    0.0000 O   0  0  0  0  0  0  0  0  0  0  0  0
   14.6225  -13.4869    0.0000 C   0  0  2  0  0  0  0  0  0  0  0  0
   14.6225  -14.3119    0.0000 O   0  0  0  0  0  0  0  0  0  0  0  0
   13.9080  -13.0744    0.0000 C   0  0  0  0  0  0  0  0  0  0  0  0
   13.1935  -13.4869    0.0000 O   0  0  0  0  0  0  0  0  0  0  0  0
  1  2  2  0  0  0  0
  2  3  1  0  0  0  0
  3  4  1  6  0  0  0
  3  5  1  0  0  0  0
  5  6  1  1  0  0  0
  5  7  1  0  0  0  0
  7  8  1  6  0  0  0
  7  9  1  0  0  0  0
  9 10  1  6  0  0  0
  9 11  1  0  0  0  0
 11 12  1  0  0  0  0
M  END
>  <cdx:groupId>
5846

>  <cdx:fragmentId>
5814

$$$$
