441059.cdx
  Mrv1902 05222410222D          

 31 32  0  0  0  0            999 V2000
   12.8912   -8.6350    0.0000 O   0  0  0  0  0  0  0  0  0  0  0  0
    9.3188   -5.7475    0.0000 O   0  0  0  0  0  0  0  0  0  0  0  0
    7.8899   -5.7475    0.0000 O   0  0  0  0  0  0  0  0  0  0  0  0
    8.6043   -6.1600    0.0000 C   0  0  0  0  0  0  0  0  0  0  0  0
    7.8899   -7.3975    0.0000 O   0  0  0  0  0  0  0  0  0  0  0  0
   10.0333   -7.8100    0.0000 O   0  0  0  0  0  0  0  0  0  0  0  0
    8.6043   -8.6350    0.0000 O   0  0  0  0  0  0  0  0  0  0  0  0
   10.0333   -8.6350    0.0000 O   0  0  0  0  0  0  0  0  0  0  0  0
    9.3188   -8.2225    0.0000 C   0  0  0  0  0  0  0  0  0  0  0  0
    8.6043   -6.9850    0.0000 C   0  0  1  0  0  0  0  0  0  0  0  0
    9.3188   -7.3975    0.0000 C   0  0  1  0  0  0  0  0  0  0  0  0
   10.0333   -6.9850    0.0000 C   0  0  0  0  0  0  0  0  0  0  0  0
   11.4622   -6.9850    0.0000 C   0  0  0  0  0  0  0  0  0  0  0  0
   10.7477   -7.3975    0.0000 C   0  0  0  0  0  0  0  0  0  0  0  0
   10.7477   -8.2225    0.0000 C   0  0  0  0  0  0  0  0  0  0  0  0
   11.4622   -8.6350    0.0000 C   0  0  0  0  0  0  0  0  0  0  0  0
   12.1767   -8.2225    0.0000 C   0  0  0  0  0  0  0  0  0  0  0  0
   12.1767   -7.3975    0.0000 C   0  0  0  0  0  0  0  0  0  0  0  0
   12.8912   -6.9850    0.0000 O   0  0  0  0  0  0  0  0  0  0  0  0
    7.1754   -6.9850    0.0000 C   0  0  0  0  0  0  0  0  0  0  0  0
    6.4609   -7.3975    0.0000 C   0  0  0  0  0  0  0  0  0  0  0  0
    7.1754   -6.1600    0.0000 O   0  0  0  0  0  0  0  0  0  0  0  0
    5.7464   -6.9850    0.0000 C   0  0  0  0  0  0  0  0  0  0  0  0
    5.0320   -7.3975    0.0000 C   0  0  0  0  0  0  0  0  0  0  0  0
    4.3175   -6.9850    0.0000 C   0  0  0  0  0  0  0  0  0  0  0  0
    3.6030   -7.3975    0.0000 C   0  0  0  0  0  0  0  0  0  0  0  0
    3.6030   -8.2225    0.0000 C   0  0  0  0  0  0  0  0  0  0  0  0
    4.3175   -8.6350    0.0000 C   0  0  0  0  0  0  0  0  0  0  0  0
    5.0320   -8.2225    0.0000 C   0  0  0  0  0  0  0  0  0  0  0  0
    2.8886   -6.9850    0.0000 O   0  0  0  0  0  0  0  0  0  0  0  0
    2.8886   -8.6350    0.0000 O   0  0  0  0  0  0  0  0  0  0  0  0
 17  1  1  0  0  0  0
  4  2  2  0  0  0  0
  4  3  1  0  0  0  0
 10  4  1  0  0  0  0
 10  5  1  6  0  0  0
 11  6  1  1  0  0  0
  9  7  2  0  0  0  0
  9  8  1  0  0  0  0
 11  9  1  0  0  0  0
 11 10  1  0  0  0  0
 12 11  1  0  0  0  0
 14 12  1  0  0  0  0
 13 18  2  0  0  0  0
 14 13  1  0  0  0  0
 15 14  2  0  0  0  0
 16 15  1  0  0  0  0
 17 16  2  0  0  0  0
 18 17  1  0  0  0  0
 18 19  1  0  0  0  0
  5 20  1  0  0  0  0
 20 21  1  0  0  0  0
 20 22  2  0  0  0  0
 21 23  2  0  0  0  0
 23 24  1  0  0  0  0
 24 25  2  0  0  0  0
 25 26  1  0  0  0  0
 26 27  2  0  0  0  0
 27 28  1  0  0  0  0
 28 29  2  0  0  0  0
 29 24  1  0  0  0  0
 26 30  1  0  0  0  0
 27 31  1  0  0  0  0
M  END
>  <cdx:fragmentId>
607

$$$$
