441032.cdx
  Mrv1902 05222410272D          

 12 12  0  0  0  0            999 V2000
    7.7597   -5.4003    0.0000 O   0  0  0  0  0  0  0  0  0  0  0  0
    8.4815   -5.7998    0.0000 C   0  0  0  0  0  0  0  0  0  0  0  0
    8.4964   -6.6246    0.0000 C   0  0  2  0  0  0  0  0  0  0  0  0
    7.7895   -7.0500    0.0000 C   0  0  1  0  0  0  0  0  0  0  0  0
    7.0677   -6.6505    0.0000 C   0  0  1  0  0  0  0  0  0  0  0  0
    7.0528   -5.8256    0.0000 C   0  0  1  0  0  0  0  0  0  0  0  0
    9.1884   -5.3744    0.0000 O   0  0  0  0  0  0  0  0  0  0  0  0
    9.2182   -7.0241    0.0000 O   0  0  0  0  0  0  0  0  0  0  0  0
    7.8045   -7.8749    0.0000 O   0  0  0  0  0  0  0  0  0  0  0  0
    6.3608   -7.0759    0.0000 O   0  0  0  0  0  0  0  0  0  0  0  0
    6.3310   -5.4261    0.0000 C   0  0  0  0  0  0  0  0  0  0  0  0
    6.3250   -4.6750    0.0000 O   0  0  0  0  0  0  0  0  0  0  0  0
  1  2  1  0  0  0  0
  2  3  1  0  0  0  0
  3  4  1  0  0  0  0
  4  5  1  0  0  0  0
  5  6  1  0  0  0  0
  1  6  1  0  0  0  0
  2  7  1  0  0  0  0
  3  8  1  1  0  0  0
  4  9  1  6  0  0  0
  5 10  1  6  0  0  0
  6 11  1  1  0  0  0
 11 12  1  0  0  0  0
M  END
>  <cdx:groupId>
38

>  <cdx:fragmentId>
5

$$$$
