441191.cdx
  Mrv1902 05222410272D          

 47 49  0  0  0  0            999 V2000
    2.5770   -7.3767    0.0000 C   0  0  0  0  0  0  0  0  0  0  0  0
    3.2935   -6.9678    0.0000 C   0  0  0  0  0  0  0  0  0  0  0  0
    4.0059   -7.3839    0.0000 C   0  0  0  0  0  0  0  0  0  0  0  0
    4.7224   -6.9750    0.0000 C   0  0  0  0  0  0  0  0  0  0  0  0
    5.4348   -7.3911    0.0000 C   0  0  0  0  0  0  0  0  0  0  0  0
    2.5728   -8.2017    0.0000 O   0  0  0  0  0  0  0  0  0  0  0  0
    1.8646   -6.9606    0.0000 O   0  0  0  0  0  0  0  0  0  0  0  0
    3.9992   -8.7039    0.0000 O   0  0  0  0  0  0  0  0  0  0  0  0
    2.5703   -8.6967    0.0000 O   0  0  0  0  0  0  0  0  0  0  0  0
    3.2827   -9.1128    0.0000 C   0  0  2  0  0  0  0  0  0  0  0  0
    3.2785   -9.9378    0.0000 C   0  0  1  0  0  0  0  0  0  0  0  0
    2.5620  -10.3466    0.0000 C   0  0  2  0  0  0  0  0  0  0  0  0
    1.8496   -9.9306    0.0000 C   0  0  1  0  0  0  0  0  0  0  0  0
    1.8538   -9.1056    0.0000 C   0  0  1  0  0  0  0  0  0  0  0  0
    1.1414   -8.6895    0.0000 C   0  0  0  0  0  0  0  0  0  0  0  0
    0.4248   -9.0984    0.0000 O   0  0  0  0  0  0  0  0  0  0  0  0
    1.1331  -10.3394    0.0000 O   0  0  0  0  0  0  0  0  0  0  0  0
    2.5578  -11.1716    0.0000 O   0  0  0  0  0  0  0  0  0  0  0  0
    3.9909  -10.3539    0.0000 O   0  0  0  0  0  0  0  0  0  0  0  0
    5.4307   -8.2161    0.0000 O   0  0  0  0  0  0  0  0  0  0  0  0
    4.0101   -6.5589    0.0000 C   0  0  0  0  0  0  0  0  0  0  0  0
    6.1514   -6.9822    0.0000 O   0  0  0  0  0  0  0  0  0  0  0  0
    6.8637   -7.3983    0.0000 C   0  0  0  0  0  0  0  0  0  0  0  0
    7.5803   -6.9894    0.0000 C   0  0  0  0  0  0  0  0  0  0  0  0
    8.2927   -7.4055    0.0000 C   0  0  0  0  0  0  0  0  0  0  0  0
    9.0092   -6.9966    0.0000 C   0  0  0  0  0  0  0  0  0  0  0  0
    9.0134   -6.1716    0.0000 C   0  0  0  0  0  0  0  0  0  0  0  0
    9.7299   -5.7627    0.0000 C   0  0  0  0  0  0  0  0  0  0  0  0
   10.4423   -6.1788    0.0000 C   0  0  0  0  0  0  0  0  0  0  0  0
   10.4381   -7.0038    0.0000 C   0  0  0  0  0  0  0  0  0  0  0  0
    9.7216   -7.4127    0.0000 C   0  0  0  0  0  0  0  0  0  0  0  0
   11.1588   -5.7699    0.0000 O   0  0  0  0  0  0  0  0  0  0  0  0
   11.8671   -7.0110    0.0000 O   0  0  0  0  0  0  0  0  0  0  0  0
   11.8712   -6.1860    0.0000 C   0  0  2  0  0  0  0  0  0  0  0  0
   12.5878   -5.7772    0.0000 C   0  0  1  0  0  0  0  0  0  0  0  0
   13.3001   -6.1933    0.0000 C   0  0  2  0  0  0  0  0  0  0  0  0
   13.2960   -7.0182    0.0000 C   0  0  1  0  0  0  0  0  0  0  0  0
   12.5794   -7.4271    0.0000 C   0  0  1  0  0  0  0  0  0  0  0  0
   12.5753   -8.2521    0.0000 C   0  0  0  0  0  0  0  0  0  0  0  0
   13.2877   -8.6682    0.0000 O   0  0  0  0  0  0  0  0  0  0  0  0
   14.0084   -7.4343    0.0000 O   0  0  0  0  0  0  0  0  0  0  0  0
   14.0167   -5.7844    0.0000 O   0  0  0  0  0  0  0  0  0  0  0  0
   12.5919   -4.9522    0.0000 O   0  0  0  0  0  0  0  0  0  0  0  0
   11.1505   -7.4199    0.0000 O   0  0  0  0  0  0  0  0  0  0  0  0
   11.1464   -8.2449    0.0000 C   0  0  0  0  0  0  0  0  0  0  0  0
    9.7341   -4.9378    0.0000 O   0  0  0  0  0  0  0  0  0  0  0  0
   10.4506   -4.5289    0.0000 C   0  0  0  0  0  0  0  0  0  0  0  0
  1  2  1  0  0  0  0
  2  3  1  0  0  0  0
  3  4  1  0  0  0  0
  4  5  1  0  0  0  0
  1  6  2  0  0  0  0
  1  7  1  0  0  0  0
  9 10  1  0  0  0  0
 10 11  1  0  0  0  0
 11 12  1  0  0  0  0
 12 13  1  0  0  0  0
 13 14  1  0  0  0  0
  9 14  1  0  0  0  0
 15 16  1  0  0  0  0
 14 15  1  1  0  0  0
 13 17  1  6  0  0  0
 12 18  1  1  0  0  0
 11 19  1  6  0  0  0
 10  8  1  1  0  0  0
  3  8  1  0  0  0  0
  5 20  2  0  0  0  0
  3 21  1  0  0  0  0
 23 24  1  0  0  0  0
 24 25  2  0  0  0  0
 22 23  1  0  0  0  0
 26 27  1  0  0  0  0
 27 28  2  0  0  0  0
 28 29  1  0  0  0  0
 29 30  2  0  0  0  0
 30 31  1  0  0  0  0
 26 31  2  0  0  0  0
 33 34  1  0  0  0  0
 34 35  1  0  0  0  0
 35 36  1  0  0  0  0
 36 37  1  0  0  0  0
 37 38  1  0  0  0  0
 33 38  1  0  0  0  0
 39 40  1  0  0  0  0
 38 39  1  1  0  0  0
 37 41  1  6  0  0  0
 36 42  1  1  0  0  0
 35 43  1  6  0  0  0
 34 32  1  1  0  0  0
 29 32  1  0  0  0  0
 44 45  1  0  0  0  0
 30 44  1  0  0  0  0
 46 47  1  0  0  0  0
 28 46  1  0  0  0  0
 25 26  1  0  0  0  0
  5 22  1  0  0  0  0
M  END
>  <cdx:fragmentId>
19035

$$$$
