441162.cdx
  Mrv1902 05222410182D          

 53 59  0  0  0  0            999 V2000
    3.3237  -10.9636    0.0000 C   0  0  0  0  0  0  0  0  0  0  0  0
    3.3261  -10.1386    0.0000 C   0  0  0  0  0  0  0  0  0  0  0  0
    4.0418   -9.7282    0.0000 C   0  0  0  0  0  0  0  0  0  0  0  0
    4.7550  -10.1427    0.0000 C   0  0  0  0  0  0  0  0  0  0  0  0
    2.6081  -11.3741    0.0000 O   0  0  0  0  0  0  0  0  0  0  0  0
    4.0370  -11.3782    0.0000 O   0  0  0  0  0  0  0  0  0  0  0  0
    9.0454   -9.3280    0.0000 H   0  0  0  0  0  0  0  0  0  0  0  0
   10.7395   -7.1217    0.0000 H   0  0  0  0  0  0  0  0  0  0  0  0
   10.8930   -5.7011    0.0000 H   0  0  0  0  0  0  0  0  0  0  0  0
    8.3022   -6.7310    0.0000 H   0  0  0  0  0  0  0  0  0  0  0  0
    8.0289   -7.0272    0.0000 H   0  0  0  0  0  0  0  0  0  0  0  0
   11.0994  -11.4724    0.0000 O   0  0  0  0  0  0  0  0  0  0  0  0
   11.2529  -10.0517    0.0000 O   0  0  0  0  0  0  0  0  0  0  0  0
   10.7660  -10.7177    0.0000 C   0  0  0  0  0  0  0  0  0  0  0  0
    9.4590  -11.2952    0.0000 C   0  0  0  0  0  0  0  0  0  0  0  0
    9.9458  -10.6291    0.0000 C   0  0  0  0  0  0  0  0  0  0  0  0
    9.6124   -9.8745    0.0000 C   0  0  0  0  0  0  0  0  0  0  0  0
   10.0992   -9.2085    0.0000 C   0  0  0  0  0  0  0  0  0  0  0  0
   11.0729   -7.8764    0.0000 O   0  0  0  0  0  0  0  0  0  0  0  0
   10.5861   -8.5424    0.0000 O   0  0  0  0  0  0  0  0  0  0  0  0
    9.0419  -10.1550    0.0000 O   0  0  0  0  0  0  0  0  0  0  0  0
    4.7562   -9.3198    0.0000 O   0  0  0  0  0  0  0  0  0  0  0  0
    6.1816  -10.9718    0.0000 O   0  0  0  0  0  0  0  0  0  0  0  0
    9.0726   -3.3486    0.0000 C   0  0  0  0  0  0  0  0  0  0  0  0
   11.2264   -6.4557    0.0000 C   0  0  0  0  0  0  0  0  0  0  0  0
    7.6153   -9.3259    0.0000 C   0  0  0  0  0  0  0  0  0  0  0  0
    7.7915   -7.6945    0.0000 C   0  0  0  0  0  0  0  0  0  0  0  0
    7.6177   -8.5009    0.0000 C   0  0  0  0  0  0  0  0  0  0  0  0
    6.3929   -8.8809    0.0000 O   0  0  0  0  0  0  0  0  0  0  0  0
    6.1840  -10.1468    0.0000 C   0  0  1  0  0  0  0  0  0  0  0  0
    5.4707   -9.7323    0.0000 C   0  0  1  0  0  0  0  0  0  0  0  0
    5.4731   -8.9073    0.0000 C   0  0  0  0  0  0  0  0  0  0  0  0
    6.1887   -8.4968    0.0000 C   0  0  0  0  0  0  0  0  0  0  0  0
    6.9020   -8.9114    0.0000 C   0  0  2  0  0  0  0  0  0  0  0  0
    6.8996   -9.7364    0.0000 C   0  0  0  0  0  0  0  0  0  0  0  0
    7.6129  -10.1509    0.0000 C   0  0  0  0  0  0  0  0  0  0  0  0
    8.3286   -9.7405    0.0000 C   0  0  2  0  0  0  0  0  0  0  0  0
    8.3309   -8.9155    0.0000 C   0  0  1  0  0  0  0  0  0  0  0  0
    8.9456   -8.3652    0.0000 C   0  0  0  0  0  0  0  0  0  0  0  0
    9.7658   -8.4538    0.0000 C   0  0  1  0  0  0  0  0  0  0  0  0
   10.2527   -7.7878    0.0000 C   0  0  1  0  0  0  0  0  0  0  0  0
    9.9193   -7.0331    0.0000 C   0  0  2  0  0  0  0  0  0  0  0  0
   10.4061   -6.3671    0.0000 C   0  0  2  0  0  0  0  0  0  0  0  0
   10.0727   -5.6125    0.0000 C   0  0  2  0  0  0  0  0  0  0  0  0
   10.5596   -4.9464    0.0000 C   0  0  0  0  0  0  0  0  0  0  0  0
   10.2262   -4.1918    0.0000 C   0  0  0  0  0  0  0  0  0  0  0  0
    9.4060   -4.1032    0.0000 C   0  0  1  0  0  0  0  0  0  0  0  0
    8.9191   -4.7692    0.0000 C   0  0  0  0  0  0  0  0  0  0  0  0
    9.2525   -5.5239    0.0000 N   0  0  0  0  0  0  0  0  0  0  0  0
    8.7657   -6.1899    0.0000 C   0  0  0  0  0  0  0  0  0  0  0  0
    9.0991   -6.9445    0.0000 C   0  0  1  0  0  0  0  0  0  0  0  0
    8.6122   -7.6106    0.0000 C   0  0  2  0  0  0  0  0  0  0  0  0
    2.6128   -9.7241    0.0000 C   0  0  0  0  0  0  0  0  0  0  0  0
 38  7  1  1  0  0  0
 42  8  1  6  0  0  0
 44  9  1  6  0  0  0
 51 10  1  1  0  0  0
 52 11  1  6  0  0  0
  4 31  1  0  0  0  0
 40 18  1  0  0  0  0
 16 14  1  0  0  0  0
 14 12  1  0  0  0  0
 14 13  2  0  0  0  0
 16 15  1  0  0  0  0
 17 16  2  0  0  0  0
 18 17  1  0  0  0  0
 41 19  1  1  0  0  0
 40 20  1  6  0  0  0
 37 21  1  6  0  0  0
 31 22  1  1  0  0  0
 30 23  1  6  0  0  0
 47 24  1  1  0  0  0
 43 25  1  6  0  0  0
 34 26  1  1  0  0  0
 49 44  1  0  0  0  0
 51 42  1  0  0  0  0
 35 30  1  0  0  0  0
 38 28  1  0  0  0  0
 34 28  1  0  0  0  0
 52 39  1  0  0  0  0
 52 27  1  0  0  0  0
 28 27  1  0  0  0  0
 29 28  1  0  0  0  0
 30 29  1  0  0  0  0
 31 30  1  0  0  0  0
 32 31  1  0  0  0  0
 33 32  1  0  0  0  0
 34 33  1  0  0  0  0
 35 34  1  0  0  0  0
 36 35  1  0  0  0  0
 37 36  1  0  0  0  0
 38 37  1  0  0  0  0
 39 38  1  0  0  0  0
 40 39  1  0  0  0  0
 41 40  1  0  0  0  0
 42 41  1  0  0  0  0
 43 42  1  0  0  0  0
 44 43  1  0  0  0  0
 45 44  1  0  0  0  0
 46 45  1  0  0  0  0
 47 46  1  0  0  0  0
 48 47  1  0  0  0  0
 49 48  1  0  0  0  0
 50 49  1  0  0  0  0
 51 50  1  0  0  0  0
 52 51  1  0  0  0  0
  1  2  1  0  0  0  0
  2  3  2  0  0  0  0
  3  4  1  0  0  0  0
  1  5  2  0  0  0  0
  1  6  1  0  0  0  0
  2 53  1  0  0  0  0
M  END
>  <cdx:groupId>
18954

>  <cdx:fragmentId>
18806

$$$$
