441251.cdx
  Mrv1902 05222410252D          

 27 29  0  0  0  0            999 V2000
   16.5834  -14.3119    0.0000 C   0  0  0  0  0  0  0  0  0  0  0  0
   16.5834  -13.4869    0.0000 C   0  0  0  0  0  0  0  0  0  0  0  0
   15.8689  -13.0744    0.0000 C   0  0  0  0  0  0  0  0  0  0  0  0
   15.1545  -13.4869    0.0000 C   0  0  0  0  0  0  0  0  0  0  0  0
   14.4400  -13.0744    0.0000 C   0  0  0  0  0  0  0  0  0  0  0  0
   13.7255  -13.4869    0.0000 C   0  0  0  0  0  0  0  0  0  0  0  0
   13.7255  -14.3119    0.0000 C   0  0  0  0  0  0  0  0  0  0  0  0
   14.4400  -14.7244    0.0000 C   0  0  0  0  0  0  0  0  0  0  0  0
   15.1545  -14.3119    0.0000 C   0  0  0  0  0  0  0  0  0  0  0  0
   15.8689  -14.7244    0.0000 O   0  0  0  0  0  0  0  0  0  0  0  0
   15.8689  -12.2494    0.0000 O   0  0  0  0  0  0  0  0  0  0  0  0
   13.0111  -13.0744    0.0000 C   0  0  0  0  0  0  0  0  0  0  0  0
   12.2966  -13.4869    0.0000 C   0  0  0  0  0  0  0  0  0  0  0  0
   11.5821  -13.0744    0.0000 C   0  0  0  0  0  0  0  0  0  0  0  0
   11.5821  -12.2494    0.0000 C   0  0  0  0  0  0  0  0  0  0  0  0
   10.8676  -13.4869    0.0000 C   0  0  0  0  0  0  0  0  0  0  0  0
   13.0111  -14.7244    0.0000 O   0  0  0  0  0  0  0  0  0  0  0  0
   12.2966  -14.3119    0.0000 C   0  0  0  0  0  0  0  0  0  0  0  0
   14.4400  -12.2494    0.0000 O   0  0  0  0  0  0  0  0  0  0  0  0
   17.2979  -13.0744    0.0000 C   0  0  0  0  0  0  0  0  0  0  0  0
   17.2979  -12.2494    0.0000 C   0  0  0  0  0  0  0  0  0  0  0  0
   18.0123  -11.8369    0.0000 C   0  0  0  0  0  0  0  0  0  0  0  0
   18.7268  -12.2494    0.0000 C   0  0  0  0  0  0  0  0  0  0  0  0
   18.7268  -13.0744    0.0000 C   0  0  0  0  0  0  0  0  0  0  0  0
   18.0123  -13.4869    0.0000 C   0  0  0  0  0  0  0  0  0  0  0  0
   19.4413  -11.8369    0.0000 O   0  0  0  0  0  0  0  0  0  0  0  0
   16.5834  -11.8369    0.0000 O   0  0  0  0  0  0  0  0  0  0  0  0
  1  2  2  0  0  0  0
  2  3  1  0  0  0  0
  3  4  1  0  0  0  0
  4  5  1  0  0  0  0
  5  6  2  0  0  0  0
  6  7  1  0  0  0  0
  7  8  2  0  0  0  0
  8  9  1  0  0  0  0
  4  9  2  0  0  0  0
  9 10  1  0  0  0  0
  1 10  1  0  0  0  0
  3 11  2  0  0  0  0
 12 13  1  0  0  0  0
 13 14  2  0  0  0  0
 14 15  1  0  0  0  0
 14 16  1  0  0  0  0
  6 12  1  0  0  0  0
 17 18  1  0  0  0  0
  7 17  1  0  0  0  0
  5 19  1  0  0  0  0
 20 21  1  0  0  0  0
 21 22  2  0  0  0  0
 22 23  1  0  0  0  0
 23 24  2  0  0  0  0
 24 25  1  0  0  0  0
 20 25  2  0  0  0  0
 23 26  1  0  0  0  0
 21 27  1  0  0  0  0
  2 20  1  0  0  0  0
M  END
>  <cdx:groupId>
6136

>  <cdx:fragmentId>
6056

$$$$
