441278.cdx
  Mrv1902 05222410252D          

 22 24  0  0  0  0            999 V2000
    7.3975   -8.3050    0.0000 C   0  0  2  0  0  0  0  0  0  0  0  0
    8.1399   -8.6897    0.0000 C   0  0  0  0  0  0  0  0  0  0  0  0
    8.5628   -9.3981    0.0000 C   0  0  0  0  0  0  0  0  0  0  0  0
    9.3877   -9.3860    0.0000 C   0  0  0  0  0  0  0  0  0  0  0  0
    9.7897   -8.6656    0.0000 C   0  0  0  0  0  0  0  0  0  0  0  0
    9.3668   -7.9572    0.0000 C   0  0  0  0  0  0  0  0  0  0  0  0
    8.5419   -7.9693    0.0000 C   0  0  0  0  0  0  0  0  0  0  0  0
    8.2500   -7.3425    0.0000 C   0  0  0  0  0  0  0  0  0  0  0  0
    7.2325   -7.2325    0.0000 C   0  0  1  0  0  0  0  0  0  0  0  0
    6.4901   -7.3005    0.0000 N   0  0  0  0  0  0  0  0  0  0  0  0
    5.9400   -8.0300    0.0000 C   0  0  0  0  0  0  0  0  0  0  0  0
    6.4075   -8.6350    0.0000 C   0  0  0  0  0  0  0  0  0  0  0  0
    7.7825   -6.6825    0.0000 C   0  0  2  0  0  0  0  0  0  0  0  0
    9.8106  -10.0943    0.0000 O   0  0  0  0  0  0  0  0  0  0  0  0
    6.0672   -6.5922    0.0000 C   0  0  0  0  0  0  0  0  0  0  0  0
    5.2423   -6.6043    0.0000 C   0  0  0  0  0  0  0  0  0  0  0  0
    4.8194   -5.8959    0.0000 C   0  0  0  0  0  0  0  0  0  0  0  0
    5.2214   -5.1755    0.0000 C   0  0  0  0  0  0  0  0  0  0  0  0
    3.9945   -5.9080    0.0000 C   0  0  0  0  0  0  0  0  0  0  0  0
    7.9960   -5.8856    0.0000 C   0  0  0  0  0  0  0  0  0  0  0  0
    7.1840   -9.1019    0.0000 C   0  0  0  0  0  0  0  0  0  0  0  0
    7.0190   -6.4356    0.0000 H   0  0  0  0  0  0  0  0  0  0  0  0
  1  2  1  0  0  0  0
  2  3  1  0  0  0  0
  3  4  2  0  0  0  0
  4  5  1  0  0  0  0
  5  6  2  0  0  0  0
  6  7  1  0  0  0  0
  7  8  1  0  0  0  0
  8  9  1  0  0  0  0
  9 10  1  0  0  0  0
 10 11  1  0  0  0  0
 11 12  1  0  0  0  0
  1 12  1  0  0  0  0
  1 13  1  0  0  0  0
 13  9  1  0  0  0  0
  2  7  2  0  0  0  0
  4 14  1  0  0  0  0
 15 16  1  0  0  0  0
 16 17  2  0  0  0  0
 17 18  1  0  0  0  0
 17 19  1  0  0  0  0
 10 15  1  0  0  0  0
 13 20  1  6  0  0  0
  1 21  1  1  0  0  0
  9 22  1  6  0  0  0
M  END
>  <cdx:groupId>
6282

>  <cdx:fragmentId>
6217

$$$$
