441207.cdx
  Mrv1902 05222410202D          

 57 64  0  0  0  0            999 V2000
   18.9914   -4.9106    0.0000 O   0  0  0  0  0  0  0  0  0  0  0  0
   18.5065   -5.5781    0.0000 C   0  0  0  0  0  0  0  0  0  0  0  0
   18.9914   -6.2455    0.0000 C   0  0  0  0  0  0  0  0  0  0  0  0
   19.7761   -5.9906    0.0000 C   0  0  0  0  0  0  0  0  0  0  0  0
   19.7761   -5.1656    0.0000 C   0  0  0  0  0  0  0  0  0  0  0  0
   20.4435   -4.6806    0.0000 O   0  0  0  0  0  0  0  0  0  0  0  0
   15.0940   -8.1101    0.0000 C   0  0  0  0  0  0  0  0  0  0  0  0
   14.3795   -8.5226    0.0000 C   0  0  0  0  0  0  0  0  0  0  0  0
   14.3795   -9.3476    0.0000 C   0  0  1  0  0  0  0  0  0  0  0  0
   15.0940   -9.7601    0.0000 C   0  0  0  0  0  0  0  0  0  0  0  0
   15.8085   -9.3476    0.0000 C   0  0  1  0  0  0  0  0  0  0  0  0
   16.5229   -9.7601    0.0000 C   0  0  0  0  0  0  0  0  0  0  0  0
   17.2374   -9.3476    0.0000 C   0  0  0  0  0  0  0  0  0  0  0  0
   17.2374   -8.5226    0.0000 C   0  0  1  0  0  0  0  0  0  0  0  0
   17.9519   -8.1101    0.0000 C   0  0  1  0  0  0  0  0  0  0  0  0
   18.7365   -8.3650    0.0000 C   0  0  0  0  0  0  0  0  0  0  0  0
   19.2214   -7.6976    0.0000 C   0  0  0  0  0  0  0  0  0  0  0  0
   18.7365   -7.0301    0.0000 C   0  0  1  0  0  0  0  0  0  0  0  0
   17.9519   -7.2851    0.0000 C   0  0  1  0  0  0  0  0  0  0  0  0
   17.2374   -6.8726    0.0000 C   0  0  0  0  0  0  0  0  0  0  0  0
   16.5229   -7.2851    0.0000 C   0  0  0  0  0  0  0  0  0  0  0  0
   16.5229   -8.1101    0.0000 C   0  0  2  0  0  0  0  0  0  0  0  0
   15.8085   -8.5226    0.0000 C   0  0  1  0  0  0  0  0  0  0  0  0
   18.0381   -6.4646    0.0000 C   0  0  0  0  0  0  0  0  0  0  0  0
   15.8085   -7.6976    0.0000 C   0  0  0  0  0  0  0  0  0  0  0  0
   17.9519   -8.9351    0.0000 O   0  0  0  0  0  0  0  0  0  0  0  0
   13.6651   -9.7601    0.0000 O   0  0  0  0  0  0  0  0  0  0  0  0
   12.9506   -8.5226    0.0000 O   0  0  0  0  0  0  0  0  0  0  0  0
   12.9506   -9.3476    0.0000 C   0  0  2  0  0  0  0  0  0  0  0  0
   12.2361   -9.7601    0.0000 C   0  0  0  0  0  0  0  0  0  0  0  0
   11.5216   -9.3476    0.0000 C   0  0  1  0  0  0  0  0  0  0  0  0
   11.5216   -8.5226    0.0000 C   0  0  1  0  0  0  0  0  0  0  0  0
   12.2361   -8.1101    0.0000 C   0  0  1  0  0  0  0  0  0  0  0  0
   12.2361   -7.2851    0.0000 C   0  0  0  0  0  0  0  0  0  0  0  0
   10.8072   -9.7601    0.0000 O   0  0  0  0  0  0  0  0  0  0  0  0
   10.8072   -8.1101    0.0000 O   0  0  0  0  0  0  0  0  0  0  0  0
    9.3782   -8.1101    0.0000 O   0  0  0  0  0  0  0  0  0  0  0  0
   10.0927   -8.5226    0.0000 C   0  0  2  0  0  0  0  0  0  0  0  0
   10.0927   -9.3476    0.0000 C   0  0  0  0  0  0  0  0  0  0  0  0
    9.3782   -9.7601    0.0000 C   0  0  1  0  0  0  0  0  0  0  0  0
    8.6638   -9.3476    0.0000 C   0  0  1  0  0  0  0  0  0  0  0  0
    8.6638   -8.5226    0.0000 C   0  0  1  0  0  0  0  0  0  0  0  0
    7.9493   -8.1101    0.0000 C   0  0  0  0  0  0  0  0  0  0  0  0
    9.3782  -10.5851    0.0000 O   0  0  0  0  0  0  0  0  0  0  0  0
    7.9493   -9.7601    0.0000 O   0  0  0  0  0  0  0  0  0  0  0  0
    7.2348   -8.5226    0.0000 O   0  0  0  0  0  0  0  0  0  0  0  0
    7.2348   -9.3476    0.0000 C   0  0  2  0  0  0  0  0  0  0  0  0
    6.5203   -9.7601    0.0000 C   0  0  0  0  0  0  0  0  0  0  0  0
    5.8059   -9.3476    0.0000 C   0  0  1  0  0  0  0  0  0  0  0  0
    5.8059   -8.5226    0.0000 C   0  0  1  0  0  0  0  0  0  0  0  0
    6.5203   -8.1101    0.0000 C   0  0  1  0  0  0  0  0  0  0  0  0
    6.5203   -7.2851    0.0000 C   0  0  0  0  0  0  0  0  0  0  0  0
    5.0914   -8.1101    0.0000 O   0  0  0  0  0  0  0  0  0  0  0  0
    5.0914   -9.7601    0.0000 O   0  0  0  0  0  0  0  0  0  0  0  0
   15.8085  -10.1726    0.0000 H   0  0  0  0  0  0  0  0  0  0  0  0
   17.2374   -7.6976    0.0000 H   0  0  0  0  0  0  0  0  0  0  0  0
   16.5229   -8.9351    0.0000 H   0  0  0  0  0  0  0  0  0  0  0  0
  1  2  1  0  0  0  0
  2  3  1  0  0  0  0
  3  4  2  0  0  0  0
  4  5  1  0  0  0  0
  1  5  1  0  0  0  0
  5  6  2  0  0  0  0
  7  8  1  0  0  0  0
  8  9  1  0  0  0  0
  9 10  1  0  0  0  0
 10 11  1  0  0  0  0
 11 12  1  0  0  0  0
 12 13  1  0  0  0  0
 13 14  1  0  0  0  0
 14 15  1  0  0  0  0
 15 16  1  0  0  0  0
 16 17  1  0  0  0  0
 17 18  1  0  0  0  0
 18 19  1  0  0  0  0
 15 19  1  0  0  0  0
 19 20  1  0  0  0  0
 20 21  1  0  0  0  0
 21 22  1  0  0  0  0
 14 22  1  0  0  0  0
 22 23  1  0  0  0  0
 11 23  1  0  0  0  0
  7 23  1  0  0  0  0
 19 24  1  1  0  0  0
 23 25  1  1  0  0  0
 15 26  1  1  0  0  0
 28 29  1  0  0  0  0
 29 30  1  0  0  0  0
 30 31  1  0  0  0  0
 31 32  1  0  0  0  0
 32 33  1  0  0  0  0
 28 33  1  0  0  0  0
 33 34  1  1  0  0  0
 31 35  1  6  0  0  0
 37 38  1  0  0  0  0
 38 39  1  0  0  0  0
 39 40  1  0  0  0  0
 40 41  1  0  0  0  0
 41 42  1  0  0  0  0
 37 42  1  0  0  0  0
 42 43  1  1  0  0  0
 40 44  1  6  0  0  0
 46 47  1  0  0  0  0
 47 48  1  0  0  0  0
 48 49  1  0  0  0  0
 49 50  1  0  0  0  0
 50 51  1  0  0  0  0
 46 51  1  0  0  0  0
 51 52  1  1  0  0  0
 50 53  1  6  0  0  0
 49 54  1  6  0  0  0
 47 45  1  1  0  0  0
 41 45  1  6  0  0  0
 38 36  1  1  0  0  0
 32 36  1  6  0  0  0
 29 27  1  1  0  0  0
  9 27  1  1  0  0  0
 18  3  1  1  0  0  0
 11 55  1  1  0  0  0
 14 56  1  1  0  0  0
 22 57  1  6  0  0  0
M  END
>  <cdx:fragmentId>
95

$$$$
