441392.cdx
  Mrv1902 05222410272D          

 17 17  0  0  0  0            999 V2000
    8.1602   -6.0202    0.0000 C   0  0  2  0  0  0  0  0  0  0  0  0
    7.4455   -6.4323    0.0000 C   0  0  0  0  0  0  0  0  0  0  0  0
    6.7312   -6.0194    0.0000 C   0  0  0  0  0  0  0  0  0  0  0  0
    6.0165   -6.4315    0.0000 C   0  0  0  0  0  0  0  0  0  0  0  0
    6.0161   -7.2565    0.0000 C   0  0  0  0  0  0  0  0  0  0  0  0
    6.7303   -7.6694    0.0000 C   0  0  0  0  0  0  0  0  0  0  0  0
    7.4450   -7.2573    0.0000 C   0  0  0  0  0  0  0  0  0  0  0  0
    8.1592   -7.6702    0.0000 C   0  0  1  0  0  0  0  0  0  0  0  0
    8.8739   -7.2581    0.0000 C   0  0  0  0  0  0  0  0  0  0  0  0
    8.8744   -6.4331    0.0000 C   0  0  0  0  0  0  0  0  0  0  0  0
    5.3023   -6.0186    0.0000 C   0  0  0  0  0  0  0  0  0  0  0  0
    8.1606   -5.1952    0.0000 C   0  0  0  0  0  0  0  0  0  0  0  0
    8.1588   -8.4952    0.0000 C   0  0  0  0  0  0  0  0  0  0  0  0
    9.5882   -7.6710    0.0000 O   0  0  0  0  0  0  0  0  0  0  0  0
    8.1599   -6.8448    0.0000 O   0  0  0  0  0  0  0  0  0  0  0  0
    7.4464   -4.7823    0.0000 C   0  0  0  0  0  0  0  0  0  0  0  0
    8.8753   -4.7831    0.0000 C   0  0  0  0  0  0  0  0  0  0  0  0
  1  2  1  0  0  0  0
  2  3  1  0  0  0  0
  3  4  1  0  0  0  0
  5  6  1  0  0  0  0
  6  7  1  0  0  0  0
  7  8  1  0  0  0  0
  8  9  1  0  0  0  0
  9 10  1  0  0  0  0
  1 10  1  0  0  0  0
  4 11  1  0  0  0  0
  5  4  2  0  0  0  0
  1 12  1  1  0  0  0
  8 13  1  1  0  0  0
  9 14  2  0  0  0  0
  2 15  2  0  0  0  0
 12 16  1  0  0  0  0
 12 17  1  0  0  0  0
M  END
>  <cdx:fragmentId>
5

$$$$
