441381.cdx
  Mrv1902 05222410262D          

 43 47  0  0  0  0            999 V2000
    6.6690   -9.7482    0.0000 O   0  0  0  0  0  0  0  0  0  0  0  0
   11.6703   -6.0357    0.0000 O   0  0  0  0  0  0  0  0  0  0  0  0
    9.5269   -6.4482    0.0000 C   0  0  0  0  0  0  0  0  0  0  0  0
   10.2414   -6.0357    0.0000 C   0  0  0  0  0  0  0  0  0  0  0  0
   10.9558   -6.4482    0.0000 C   0  0  0  0  0  0  0  0  0  0  0  0
   10.9558   -7.2732    0.0000 C   0  0  0  0  0  0  0  0  0  0  0  0
   10.2414   -7.6857    0.0000 C   0  0  0  0  0  0  0  0  0  0  0  0
    9.5269   -7.2732    0.0000 C   0  0  0  0  0  0  0  0  0  0  0  0
    5.9545  -10.1607    0.0000 O   0  0  0  0  0  0  0  0  0  0  0  0
    4.5256  -10.9857    0.0000 O   0  0  0  0  0  0  0  0  0  0  0  0
    3.0967  -10.1607    0.0000 O   0  0  0  0  0  0  0  0  0  0  0  0
    2.3822   -8.9232    0.0000 O   0  0  0  0  0  0  0  0  0  0  0  0
    3.0967   -8.5107    0.0000 C   0  0  0  0  0  0  0  0  0  0  0  0
    3.8111   -8.9232    0.0000 C   0  0  2  0  0  0  0  0  0  0  0  0
    3.8111   -9.7482    0.0000 C   0  0  2  0  0  0  0  0  0  0  0  0
    4.5256  -10.1607    0.0000 C   0  0  1  0  0  0  0  0  0  0  0  0
    5.2401   -9.7482    0.0000 C   0  0  2  0  0  0  0  0  0  0  0  0
    5.2401   -8.9232    0.0000 C   0  0  1  0  0  0  0  0  0  0  0  0
    4.5256   -8.5107    0.0000 O   0  0  0  0  0  0  0  0  0  0  0  0
    3.8111   -6.4482    0.0000 O   0  0  0  0  0  0  0  0  0  0  0  0
    3.8111   -4.7982    0.0000 O   0  0  0  0  0  0  0  0  0  0  0  0
    5.2401   -3.9732    0.0000 O   0  0  0  0  0  0  0  0  0  0  0  0
    7.3835   -5.2107    0.0000 O   0  0  0  0  0  0  0  0  0  0  0  0
    6.6690   -4.7982    0.0000 C   0  0  0  0  0  0  0  0  0  0  0  0
    5.9545   -5.2107    0.0000 C   0  0  2  0  0  0  0  0  0  0  0  0
    5.2401   -4.7982    0.0000 C   0  0  2  0  0  0  0  0  0  0  0  0
    4.5256   -5.2107    0.0000 C   0  0  1  0  0  0  0  0  0  0  0  0
    4.5256   -6.0357    0.0000 C   0  0  2  0  0  0  0  0  0  0  0  0
    5.2401   -6.4482    0.0000 C   0  0  1  0  0  0  0  0  0  0  0  0
    5.9545   -6.0357    0.0000 O   0  0  0  0  0  0  0  0  0  0  0  0
    5.2401   -7.2732    0.0000 O   0  0  0  0  0  0  0  0  0  0  0  0
    8.0980   -9.7482    0.0000 O   0  0  0  0  0  0  0  0  0  0  0  0
    8.0980   -7.2732    0.0000 O   0  0  0  0  0  0  0  0  0  0  0  0
    7.3835   -7.6857    0.0000 C   0  0  0  0  0  0  0  0  0  0  0  0
    6.6690   -7.2732    0.0000 C   0  0  0  0  0  0  0  0  0  0  0  0
    5.9545   -7.6857    0.0000 C   0  0  0  0  0  0  0  0  0  0  0  0
    5.9545   -8.5107    0.0000 C   0  0  0  0  0  0  0  0  0  0  0  0
    6.6690   -8.9232    0.0000 C   0  0  0  0  0  0  0  0  0  0  0  0
    7.3835   -8.5107    0.0000 C   0  0  0  0  0  0  0  0  0  0  0  0
    8.0980   -8.9232    0.0000 C   0  0  0  0  0  0  0  0  0  0  0  0
    8.8124   -8.5107    0.0000 C   0  0  0  0  0  0  0  0  0  0  0  0
    8.8124   -7.6857    0.0000 C   0  0  0  0  0  0  0  0  0  0  0  0
    5.2401   -8.0982    0.0000 H   0  0  0  0  0  0  0  0  0  0  0  0
 38  1  1  0  0  0  0
 42  8  1  0  0  0  0
  5  2  1  0  0  0  0
  8  3  2  0  0  0  0
  4  3  1  0  0  0  0
  5  4  2  0  0  0  0
  6  5  1  0  0  0  0
  7  6  2  0  0  0  0
  8  7  1  0  0  0  0
 18 37  1  0  0  0  0
 17  9  1  6  0  0  0
 16 10  1  1  0  0  0
 15 11  1  6  0  0  0
 14 13  1  1  0  0  0
 13 12  1  0  0  0  0
 19 14  1  0  0  0  0
 15 14  1  0  0  0  0
 16 15  1  0  0  0  0
 17 16  1  0  0  0  0
 18 17  1  0  0  0  0
 19 18  1  0  0  0  0
 36 31  1  0  0  0  0
 29 31  1  1  0  0  0
 28 20  1  6  0  0  0
 27 21  1  1  0  0  0
 26 22  1  6  0  0  0
 25 24  1  1  0  0  0
 24 23  1  0  0  0  0
 30 25  1  0  0  0  0
 26 25  1  0  0  0  0
 27 26  1  0  0  0  0
 28 27  1  0  0  0  0
 29 28  1  0  0  0  0
 30 29  1  0  0  0  0
 40 32  2  0  0  0  0
 42 33  1  0  0  0  0
 34 33  1  0  0  0  0
 39 34  2  0  0  0  0
 35 34  1  0  0  0  0
 36 35  2  0  0  0  0
 37 36  1  0  0  0  0
 38 37  2  0  0  0  0
 39 38  1  0  0  0  0
 40 39  1  0  0  0  0
 41 40  1  0  0  0  0
 42 41  2  0  0  0  0
 18 43  1  6  0  0  0
M  END
>  <cdx:fragmentId>
29

$$$$
