441344.cdx
  Mrv1902 05222410272D          

 16 16  0  0  0  0            999 V2000
    6.8897   -7.3168    0.0000 C   0  0  0  0  0  0  0  0  0  0  0  0
    7.6042   -7.7293    0.0000 C   0  0  0  0  0  0  0  0  0  0  0  0
    8.3186   -7.3168    0.0000 C   0  0  0  0  0  0  0  0  0  0  0  0
    9.0331   -7.7293    0.0000 C   0  0  0  0  0  0  0  0  0  0  0  0
    9.7476   -7.3168    0.0000 C   0  0  0  0  0  0  0  0  0  0  0  0
    8.3186   -6.4918    0.0000 O   0  0  0  0  0  0  0  0  0  0  0  0
    6.1752   -7.7293    0.0000 C   0  0  0  0  0  0  0  0  0  0  0  0
    5.4608   -7.3168    0.0000 C   0  0  0  0  0  0  0  0  0  0  0  0
    4.7463   -7.7293    0.0000 C   0  0  0  0  0  0  0  0  0  0  0  0
    4.7463   -8.5543    0.0000 C   0  0  0  0  0  0  0  0  0  0  0  0
    5.4608   -8.9668    0.0000 C   0  0  0  0  0  0  0  0  0  0  0  0
    6.1752   -8.5543    0.0000 C   0  0  0  0  0  0  0  0  0  0  0  0
    7.0002   -8.5543    0.0000 C   0  0  0  0  0  0  0  0  0  0  0  0
    6.5877   -9.2687    0.0000 C   0  0  0  0  0  0  0  0  0  0  0  0
    5.4608   -6.4918    0.0000 C   0  0  0  0  0  0  0  0  0  0  0  0
    7.6042   -8.5543    0.0000 C   0  0  0  0  0  0  0  0  0  0  0  0
  1  2  2  0  0  0  0
  2  3  1  0  0  0  0
  3  4  1  0  0  0  0
  4  5  1  0  0  0  0
  3  6  2  0  0  0  0
  7  8  1  0  0  0  0
  8  9  2  0  0  0  0
  9 10  1  0  0  0  0
 10 11  1  0  0  0  0
 11 12  1  0  0  0  0
  7 12  1  0  0  0  0
 12 13  1  0  0  0  0
 12 14  1  0  0  0  0
  8 15  1  0  0  0  0
  1  7  1  0  0  0  0
  2 16  1  0  0  0  0
M  END
>  <cdx:fragmentId>
19302

$$$$
