90007.cdx
  Mrv1902 05222410232D          

 32 34  0  0  0  0            999 V2000
    8.1292   -9.2469    0.0000 O   0  0  0  0  0  0  0  0  0  0  0  0
    8.8411   -9.6638    0.0000 C   0  0  2  0  0  0  0  0  0  0  0  0
    8.8361  -10.4888    0.0000 C   0  0  1  0  0  0  0  0  0  0  0  0
    8.1191  -10.8969    0.0000 C   0  0  2  0  0  0  0  0  0  0  0  0
    7.4072  -10.4801    0.0000 C   0  0  1  0  0  0  0  0  0  0  0  0
    7.4122   -9.6551    0.0000 C   0  0  1  0  0  0  0  0  0  0  0  0
    6.7002   -9.2383    0.0000 C   0  0  0  0  0  0  0  0  0  0  0  0
    5.9833   -9.6464    0.0000 O   0  0  0  0  0  0  0  0  0  0  0  0
    5.2763   -8.4046    0.0000 O   0  0  0  0  0  0  0  0  0  0  0  0
    5.2713   -9.2296    0.0000 C   0  0  2  0  0  0  0  0  0  0  0  0
    4.5544   -9.6377    0.0000 C   0  0  1  0  0  0  0  0  0  0  0  0
    3.8424   -9.2209    0.0000 C   0  0  2  0  0  0  0  0  0  0  0  0
    3.8474   -8.3959    0.0000 C   0  0  1  0  0  0  0  0  0  0  0  0
    4.5644   -7.9878    0.0000 C   0  0  1  0  0  0  0  0  0  0  0  0
    4.5694   -7.1628    0.0000 C   0  0  0  0  0  0  0  0  0  0  0  0
    3.8575   -6.7459    0.0000 O   0  0  0  0  0  0  0  0  0  0  0  0
    3.1355   -7.9791    0.0000 O   0  0  0  0  0  0  0  0  0  0  0  0
    3.1255   -9.6290    0.0000 O   0  0  0  0  0  0  0  0  0  0  0  0
    4.5494  -10.4627    0.0000 O   0  0  0  0  0  0  0  0  0  0  0  0
    6.6902  -10.8882    0.0000 O   0  0  0  0  0  0  0  0  0  0  0  0
    8.1141  -11.7219    0.0000 O   0  0  0  0  0  0  0  0  0  0  0  0
    9.5481  -10.9056    0.0000 O   0  0  0  0  0  0  0  0  0  0  0  0
   10.2254   -7.1774    0.0000 C   0  0  0  0  0  0  0  0  0  0  0  0
   10.9303   -6.7487    0.0000 C   0  0  0  0  0  0  0  0  0  0  0  0
   11.6540   -7.1448    0.0000 C   0  0  0  0  0  0  0  0  0  0  0  0
   11.6728   -7.9696    0.0000 C   0  0  0  0  0  0  0  0  0  0  0  0
   10.9679   -8.3983    0.0000 C   0  0  0  0  0  0  0  0  0  0  0  0
   10.2442   -8.0022    0.0000 C   0  0  0  0  0  0  0  0  0  0  0  0
    9.5581   -9.2556    0.0000 O   0  0  0  0  0  0  0  0  0  0  0  0
    8.0919   -7.6386    0.0000 N   0  0  0  0  0  0  0  0  0  0  0  0
    9.5393   -8.4308    0.0000 C   0  0  2  0  0  0  0  0  0  0  0  0
    8.8156   -8.0347    0.0000 C   0  0  0  0  0  0  0  0  0  0  0  0
 31 28  1  0  0  0  0
 28 23  2  0  0  0  0
 24 23  1  0  0  0  0
 25 24  2  0  0  0  0
 26 25  1  0  0  0  0
 27 26  2  0  0  0  0
 28 27  1  0  0  0  0
 31 29  1  6  0  0  0
 32 30  3  0  0  0  0
 32 31  1  0  0  0  0
  1  2  1  0  0  0  0
  2  3  1  0  0  0  0
  3  4  1  0  0  0  0
  4  5  1  0  0  0  0
  5  6  1  0  0  0  0
  1  6  1  0  0  0  0
  9 10  1  0  0  0  0
 10 11  1  0  0  0  0
 11 12  1  0  0  0  0
 12 13  1  0  0  0  0
 13 14  1  0  0  0  0
  9 14  1  0  0  0  0
 15 16  1  0  0  0  0
 14 15  1  1  0  0  0
 13 17  1  6  0  0  0
 12 18  1  1  0  0  0
 11 19  1  6  0  0  0
 10  8  1  1  0  0  0
  7  8  1  0  0  0  0
  6  7  1  1  0  0  0
  5 20  1  6  0  0  0
  4 21  1  1  0  0  0
  3 22  1  6  0  0  0
  2 29  1  1  0  0  0
M  END
>  <cdx:fragmentId>
29

$$$$
