441491.cdx
  Mrv1902 05222410232D          

  5  4  0  0  0  0            999 V2000
   15.3613  -11.6484    0.0000 C   0  0  0  0  0  0  0  0  0  0  0  0
   14.6469  -11.2359    0.0000 C   0  0  0  0  0  0  0  0  0  0  0  0
   13.9324  -11.6484    0.0000 C   0  0  0  0  0  0  0  0  0  0  0  0
   16.0758  -11.2359    0.0000 S   0  0  0  0  0  0  0  0  0  0  0  0
   16.7903  -10.8234    0.0000 O   0  0  0  0  0  0  0  0  0  0  0  0
  1  2  1  0  0  0  0
  2  3  1  0  0  0  0
  1  4  2  0  0  0  0
  4  5  2  0  0  0  0
M  END
>  <cdx:groupId>
6704

>  <cdx:fragmentId>
6693

$$$$
