441467.cdx
  Mrv1902 05222410212D          

 18 18  0  0  0  0            999 V2000
   14.3541  -10.4696    0.0000 C   0  0  2  0  0  0  0  0  0  0  0  0
   14.3541  -11.2946    0.0000 C   0  0  2  0  0  0  0  0  0  0  0  0
   15.0685  -11.7071    0.0000 C   0  0  1  0  0  0  0  0  0  0  0  0
   15.7830  -11.2946    0.0000 C   0  0  2  0  0  0  0  0  0  0  0  0
   15.7830  -10.4696    0.0000 C   0  0  1  0  0  0  0  0  0  0  0  0
   15.0685  -10.0571    0.0000 O   0  0  0  0  0  0  0  0  0  0  0  0
   13.6396  -10.0571    0.0000 C   0  0  0  0  0  0  0  0  0  0  0  0
   16.4975  -10.0571    0.0000 O   0  0  0  0  0  0  0  0  0  0  0  0
   15.0685  -12.5321    0.0000 O   0  0  0  0  0  0  0  0  0  0  0  0
   13.6396  -11.7071    0.0000 O   0  0  0  0  0  0  0  0  0  0  0  0
   16.4975  -11.7071    0.0000 O   0  0  0  0  0  0  0  0  0  0  0  0
   12.9251  -10.4696    0.0000 O   0  0  0  0  0  0  0  0  0  0  0  0
   17.2120  -10.4696    0.0000 C   0  0  0  0  0  0  0  0  0  0  0  0
   17.9265  -10.0571    0.0000 C   0  0  0  0  0  0  0  0  0  0  0  0
   16.7994  -11.1840    0.0000 C   0  0  0  0  0  0  0  0  0  0  0  0
   17.6244  -11.1840    0.0000 C   0  0  0  0  0  0  0  0  0  0  0  0
   18.6410  -10.4696    0.0000 C   0  0  0  0  0  0  0  0  0  0  0  0
   18.0370  -11.8985    0.0000 N   0  0  0  0  0  0  0  0  0  0  0  0
  1  2  1  0  0  0  0
  2  3  1  0  0  0  0
  3  4  1  0  0  0  0
  4  5  1  0  0  0  0
  5  6  1  0  0  0  0
  6  1  1  0  0  0  0
  1  7  1  1  0  0  0
  5  8  1  1  0  0  0
  3  9  1  1  0  0  0
  2 10  1  6  0  0  0
  4 11  1  6  0  0  0
  7 12  1  0  0  0  0
  8 13  1  0  0  0  0
 13 14  1  0  0  0  0
 13 15  1  0  0  0  0
 13 16  1  0  0  0  0
 14 17  1  0  0  0  0
 16 18  3  0  0  0  0
M  END
>  <cdx:fragmentId>
6648

$$$$
