441434.cdx
  Mrv1902 05222410282D          

 56 60  0  0  0  0            999 V2000
    5.5048   -3.1652    0.0000 O   0  0  0  0  0  0  0  0  0  0  0  0
    5.5054   -3.9902    0.0000 C   0  0  1  0  0  0  0  0  0  0  0  0
    4.7912   -4.4032    0.0000 C   0  0  1  0  0  0  0  0  0  0  0  0
    4.0765   -3.9912    0.0000 C   0  0  2  0  0  0  0  0  0  0  0  0
    4.0759   -3.1662    0.0000 C   0  0  2  0  0  0  0  0  0  0  0  0
    4.7901   -2.7532    0.0000 C   0  0  1  0  0  0  0  0  0  0  0  0
    4.7918   -5.2282    0.0000 O   0  0  0  0  0  0  0  0  0  0  0  0
    3.3623   -4.4042    0.0000 O   0  0  0  0  0  0  0  0  0  0  0  0
    3.3611   -2.7542    0.0000 O   0  0  0  0  0  0  0  0  0  0  0  0
    4.7895   -1.9282    0.0000 C   0  0  0  0  0  0  0  0  0  0  0  0
    4.0747   -1.5162    0.0000 O   0  0  0  0  0  0  0  0  0  0  0  0
    6.2202   -4.4022    0.0000 O   0  0  0  0  0  0  0  0  0  0  0  0
    6.2208   -5.2272    0.0000 C   0  0  0  0  0  0  0  0  0  0  0  0
    6.9361   -6.4642    0.0000 O   0  0  0  0  0  0  0  0  0  0  0  0
    6.9355   -5.6392    0.0000 C   0  0  1  0  0  0  0  0  0  0  0  0
    7.6497   -5.2262    0.0000 C   0  0  1  0  0  0  0  0  0  0  0  0
    8.3645   -5.6382    0.0000 C   0  0  1  0  0  0  0  0  0  0  0  0
    8.3650   -6.4632    0.0000 C   0  0  2  0  0  0  0  0  0  0  0  0
    7.6509   -6.8762    0.0000 C   0  0  1  0  0  0  0  0  0  0  0  0
    9.0798   -6.8752    0.0000 O   0  0  0  0  0  0  0  0  0  0  0  0
    9.0786   -5.2252    0.0000 O   0  0  0  0  0  0  0  0  0  0  0  0
    7.6491   -4.4012    0.0000 O   0  0  0  0  0  0  0  0  0  0  0  0
    7.6514   -7.7012    0.0000 O   0  0  0  0  0  0  0  0  0  0  0  0
    8.3662   -8.1132    0.0000 C   0  0  0  0  0  0  0  0  0  0  0  0
    9.0815   -9.3502    0.0000 O   0  0  0  0  0  0  0  0  0  0  0  0
    8.3668   -8.9382    0.0000 C   0  0  1  0  0  0  0  0  0  0  0  0
    7.6526   -9.3512    0.0000 C   0  0  1  0  0  0  0  0  0  0  0  0
    7.6532  -10.1762    0.0000 C   0  0  1  0  0  0  0  0  0  0  0  0
    8.3679  -10.5882    0.0000 C   0  0  2  0  0  0  0  0  0  0  0  0
    9.0821  -10.1752    0.0000 C   0  0  1  0  0  0  0  0  0  0  0  0
    8.3685  -11.4132    0.0000 O   0  0  0  0  0  0  0  0  0  0  0  0
    6.9390  -10.5892    0.0000 O   0  0  0  0  0  0  0  0  0  0  0  0
    6.9378   -8.9392    0.0000 O   0  0  0  0  0  0  0  0  0  0  0  0
    9.7969  -10.5872    0.0000 O   0  0  0  0  0  0  0  0  0  0  0  0
    9.7975  -11.4122    0.0000 C   0  0  0  0  0  0  0  0  0  0  0  0
   10.5128  -12.6492    0.0000 O   0  0  0  0  0  0  0  0  0  0  0  0
   10.5122  -11.8242    0.0000 C   0  0  1  0  0  0  0  0  0  0  0  0
   11.2264  -11.4111    0.0000 C   0  0  2  0  0  0  0  0  0  0  0  0
   11.9412  -11.8231    0.0000 C   0  0  1  0  0  0  0  0  0  0  0  0
   11.9417  -12.6481    0.0000 C   0  0  2  0  0  0  0  0  0  0  0  0
   11.2276  -13.0611    0.0000 C   0  0  1  0  0  0  0  0  0  0  0  0
   12.6565  -13.0601    0.0000 O   0  0  0  0  0  0  0  0  0  0  0  0
   12.6553  -11.4101    0.0000 O   0  0  0  0  0  0  0  0  0  0  0  0
   11.2258  -10.5861    0.0000 O   0  0  0  0  0  0  0  0  0  0  0  0
   11.2281  -13.8861    0.0000 O   0  0  0  0  0  0  0  0  0  0  0  0
    9.6935  -14.3860    0.0000 O   0  0  0  0  0  0  0  0  0  0  0  0
   10.5140  -14.2992    0.0000 C   0  0  2  0  0  0  0  0  0  0  0  0
   10.8501  -15.0526    0.0000 C   0  0  2  0  0  0  0  0  0  0  0  0
   10.2373  -15.6051    0.0000 C   0  0  1  0  0  0  0  0  0  0  0  0
    9.5226  -15.1931    0.0000 C   0  0  1  0  0  0  0  0  0  0  0  0
    8.7691  -15.5291    0.0000 C   0  0  0  0  0  0  0  0  0  0  0  0
    8.1014  -15.0447    0.0000 O   0  0  0  0  0  0  0  0  0  0  0  0
   10.5134  -13.4742    0.0000 C   0  0  0  0  0  0  0  0  0  0  0  0
    9.7986  -13.0622    0.0000 O   0  0  0  0  0  0  0  0  0  0  0  0
   10.3242  -16.4255    0.0000 O   0  0  0  0  0  0  0  0  0  0  0  0
   11.6571  -15.2235    0.0000 O   0  0  0  0  0  0  0  0  0  0  0  0
  1  2  1  0  0  0  0
  2  3  1  0  0  0  0
  3  4  1  0  0  0  0
  4  5  1  0  0  0  0
  5  6  1  0  0  0  0
  1  6  1  0  0  0  0
  3  7  1  6  0  0  0
  4  8  1  1  0  0  0
  5  9  1  1  0  0  0
 10 11  1  0  0  0  0
  6 10  1  1  0  0  0
 12 13  1  0  0  0  0
 14 15  1  0  0  0  0
 15 16  1  0  0  0  0
 16 17  1  0  0  0  0
 17 18  1  0  0  0  0
 18 19  1  0  0  0  0
 14 19  1  0  0  0  0
 18 20  1  1  0  0  0
 17 21  1  6  0  0  0
 16 22  1  6  0  0  0
 23 24  1  0  0  0  0
 25 26  1  0  0  0  0
 26 27  1  0  0  0  0
 27 28  1  0  0  0  0
 28 29  1  0  0  0  0
 29 30  1  0  0  0  0
 25 30  1  0  0  0  0
 29 31  1  6  0  0  0
 28 32  1  1  0  0  0
 27 33  1  1  0  0  0
 34 35  1  0  0  0  0
 36 37  1  0  0  0  0
 37 38  1  0  0  0  0
 38 39  1  0  0  0  0
 39 40  1  0  0  0  0
 40 41  1  0  0  0  0
 36 41  1  0  0  0  0
 40 42  1  1  0  0  0
 39 43  1  6  0  0  0
 38 44  1  1  0  0  0
 46 47  1  0  0  0  0
 47 48  1  0  0  0  0
 48 49  1  0  0  0  0
 49 50  1  0  0  0  0
 46 50  1  0  0  0  0
 51 52  1  0  0  0  0
 50 51  1  1  0  0  0
 53 54  1  0  0  0  0
 47 53  1  6  0  0  0
 49 55  1  6  0  0  0
 48 56  1  1  0  0  0
 47 45  1  1  0  0  0
 41 45  1  1  0  0  0
 37 35  1  6  0  0  0
 30 34  1  6  0  0  0
 26 24  1  1  0  0  0
 19 23  1  1  0  0  0
 15 13  1  6  0  0  0
  2 12  1  6  0  0  0
M  END
>  <cdx:fragmentId>
95

$$$$
