441446.cdx
  Mrv1902 05222410242D          

 20 20  0  0  0  0            999 V2000
   12.2202   -6.3982    0.0000 C   0  0  0  0  0  0  0  0  0  0  0  0
   11.5057   -6.8107    0.0000 C   0  0  0  0  0  0  0  0  0  0  0  0
   10.7913   -6.3982    0.0000 C   0  0  0  0  0  0  0  0  0  0  0  0
   10.0768   -6.8107    0.0000 C   0  0  0  0  0  0  0  0  0  0  0  0
    9.3623   -6.3982    0.0000 C   0  0  0  0  0  0  0  0  0  0  0  0
    8.6479   -6.8107    0.0000 C   0  0  0  0  0  0  0  0  0  0  0  0
    7.9334   -6.3982    0.0000 C   0  0  0  0  0  0  0  0  0  0  0  0
    7.2189   -6.8107    0.0000 C   0  0  0  0  0  0  0  0  0  0  0  0
    6.5044   -6.3982    0.0000 C   0  0  0  0  0  0  0  0  0  0  0  0
    5.7900   -6.8107    0.0000 C   0  0  0  0  0  0  0  0  0  0  0  0
    5.0755   -6.3982    0.0000 C   0  0  0  0  0  0  0  0  0  0  0  0
    4.3610   -6.8107    0.0000 C   0  0  0  0  0  0  0  0  0  0  0  0
    3.6466   -6.3982    0.0000 C   0  0  0  0  0  0  0  0  0  0  0  0
   12.2202   -5.5732    0.0000 O   0  0  0  0  0  0  0  0  0  0  0  0
   12.9347   -6.8107    0.0000 O   0  0  0  0  0  0  0  0  0  0  0  0
    2.9321   -6.8107    0.0000 C   0  0  2  0  0  0  0  0  0  0  0  0
    2.8458   -7.6311    0.0000 C   0  0  0  0  0  0  0  0  0  0  0  0
    2.0389   -7.8027    0.0000 C   0  0  0  0  0  0  0  0  0  0  0  0
    1.6264   -7.0882    0.0000 C   0  0  0  0  0  0  0  0  0  0  0  0
    2.1784   -6.4751    0.0000 C   0  0  0  0  0  0  0  0  0  0  0  0
  1  2  1  0  0  0  0
  2  3  1  0  0  0  0
  3  4  1  0  0  0  0
  4  5  1  0  0  0  0
  5  6  1  0  0  0  0
  6  7  1  0  0  0  0
  7  8  1  0  0  0  0
  8  9  1  0  0  0  0
  9 10  1  0  0  0  0
 10 11  1  0  0  0  0
 11 12  1  0  0  0  0
 12 13  1  0  0  0  0
  1 14  2  0  0  0  0
  1 15  1  0  0  0  0
 16 17  1  0  0  0  0
 17 18  2  0  0  0  0
 18 19  1  0  0  0  0
 19 20  1  0  0  0  0
 16 20  1  0  0  0  0
 16 13  1  6  0  0  0
M  END
>  <cdx:groupId>
62

>  <cdx:fragmentId>
5

$$$$
