102441560.cdx
  Mrv1902 05222410202D          

 40 45  0  0  0  0            999 V2000
   10.8711   -6.2612    0.0000 C   0  0  0  0  0  0  0  0  0  0  0  0
   10.8711   -5.4362    0.0000 C   0  0  0  0  0  0  0  0  0  0  0  0
   10.1566   -5.0237    0.0000 C   0  0  0  0  0  0  0  0  0  0  0  0
    9.4422   -5.4362    0.0000 C   0  0  0  0  0  0  0  0  0  0  0  0
    8.7277   -5.0237    0.0000 C   0  0  0  0  0  0  0  0  0  0  0  0
    8.0132   -5.4362    0.0000 C   0  0  0  0  0  0  0  0  0  0  0  0
    8.0132   -6.2612    0.0000 C   0  0  0  0  0  0  0  0  0  0  0  0
    8.7277   -6.6737    0.0000 C   0  0  0  0  0  0  0  0  0  0  0  0
    9.4422   -6.2612    0.0000 C   0  0  0  0  0  0  0  0  0  0  0  0
   10.1566   -6.6737    0.0000 O   0  0  0  0  0  0  0  0  0  0  0  0
   10.1566   -4.1987    0.0000 O   0  0  0  0  0  0  0  0  0  0  0  0
   11.5856   -6.6737    0.0000 C   0  0  0  0  0  0  0  0  0  0  0  0
   12.3001   -6.2612    0.0000 C   0  0  0  0  0  0  0  0  0  0  0  0
   13.0145   -6.6737    0.0000 C   0  0  0  0  0  0  0  0  0  0  0  0
   13.0145   -7.4987    0.0000 C   0  0  0  0  0  0  0  0  0  0  0  0
   12.3001   -7.9112    0.0000 C   0  0  0  0  0  0  0  0  0  0  0  0
   11.5856   -7.4987    0.0000 C   0  0  0  0  0  0  0  0  0  0  0  0
   13.7290   -7.9112    0.0000 O   0  0  0  0  0  0  0  0  0  0  0  0
    7.2988   -6.6737    0.0000 O   0  0  0  0  0  0  0  0  0  0  0  0
    8.7277   -4.1987    0.0000 O   0  0  0  0  0  0  0  0  0  0  0  0
    7.2988   -5.0237    0.0000 C   0  0  0  0  0  0  0  0  0  0  0  0
    7.2988   -4.1987    0.0000 C   0  0  0  0  0  0  0  0  0  0  0  0
    6.5843   -3.7862    0.0000 C   0  0  0  0  0  0  0  0  0  0  0  0
    5.8698   -4.1987    0.0000 C   0  0  0  0  0  0  0  0  0  0  0  0
    5.8698   -5.0237    0.0000 C   0  0  0  0  0  0  0  0  0  0  0  0
    6.5843   -5.4362    0.0000 C   0  0  0  0  0  0  0  0  0  0  0  0
    8.0132   -3.7862    0.0000 O   0  0  0  0  0  0  0  0  0  0  0  0
    5.1554   -5.4362    0.0000 C   0  0  2  0  0  0  0  0  0  0  0  0
    5.1554   -6.2612    0.0000 C   0  0  0  0  0  0  0  0  0  0  0  0
    4.4409   -6.6737    0.0000 C   0  0  0  0  0  0  0  0  0  0  0  0
    3.7264   -6.2612    0.0000 C   0  0  0  0  0  0  0  0  0  0  0  0
    3.0119   -6.6737    0.0000 C   0  0  0  0  0  0  0  0  0  0  0  0
    2.2975   -6.2612    0.0000 C   0  0  0  0  0  0  0  0  0  0  0  0
    2.2975   -5.4362    0.0000 C   0  0  0  0  0  0  0  0  0  0  0  0
    3.0119   -5.0237    0.0000 C   0  0  0  0  0  0  0  0  0  0  0  0
    3.7264   -5.4362    0.0000 C   0  0  0  0  0  0  0  0  0  0  0  0
    4.4409   -5.0237    0.0000 O   0  0  0  0  0  0  0  0  0  0  0  0
    4.4409   -7.4987    0.0000 O   0  0  0  0  0  0  0  0  0  0  0  0
    1.5830   -5.0237    0.0000 O   0  0  0  0  0  0  0  0  0  0  0  0
    3.0119   -7.4987    0.0000 O   0  0  0  0  0  0  0  0  0  0  0  0
  1  2  2  0  0  0  0
  2  3  1  0  0  0  0
  3  4  1  0  0  0  0
  4  5  1  0  0  0  0
  5  6  2  0  0  0  0
  6  7  1  0  0  0  0
  7  8  2  0  0  0  0
  8  9  1  0  0  0  0
  4  9  2  0  0  0  0
  9 10  1  0  0  0  0
  1 10  1  0  0  0  0
  3 11  2  0  0  0  0
 12 13  1  0  0  0  0
 13 14  2  0  0  0  0
 14 15  1  0  0  0  0
 15 16  2  0  0  0  0
 16 17  1  0  0  0  0
 12 17  2  0  0  0  0
 15 18  1  0  0  0  0
  1 12  1  0  0  0  0
  7 19  1  0  0  0  0
  5 20  1  0  0  0  0
 21 22  1  0  0  0  0
 22 23  2  0  0  0  0
 23 24  1  0  0  0  0
 24 25  2  0  0  0  0
 25 26  1  0  0  0  0
 21 26  2  0  0  0  0
 22 27  1  0  0  0  0
 28 29  1  0  0  0  0
 29 30  1  0  0  0  0
 30 31  1  0  0  0  0
 31 32  1  0  0  0  0
 32 33  2  0  0  0  0
 33 34  1  0  0  0  0
 34 35  2  0  0  0  0
 35 36  1  0  0  0  0
 31 36  2  0  0  0  0
 36 37  1  0  0  0  0
 28 37  1  0  0  0  0
 30 38  2  0  0  0  0
 34 39  1  0  0  0  0
 32 40  1  0  0  0  0
 28 25  1  6  0  0  0
  6 21  1  0  0  0  0
M  END
>  <cdx:groupId>
422

>  <cdx:fragmentId>
354

$$$$
