441581.cdx
  Mrv1902 05222410272D          

 19 20  0  0  0  0            999 V2000
    9.4668   -8.6710    0.0000 O   0  0  0  0  0  0  0  0  0  0  0  0
    8.7156   -8.3299    0.0000 C   0  0  1  0  0  0  0  0  0  0  0  0
    8.8079   -7.5101    0.0000 C   0  0  0  0  0  0  0  0  0  0  0  0
    9.6161   -7.3445    0.0000 C   0  0  0  0  0  0  0  0  0  0  0  0
   10.0233   -8.0620    0.0000 C   0  0  0  0  0  0  0  0  0  0  0  0
   10.8432   -8.1542    0.0000 O   0  0  0  0  0  0  0  0  0  0  0  0
    7.9981   -8.7372    0.0000 C   0  0  0  0  0  0  0  0  0  0  0  0
    7.2867   -8.3195    0.0000 O   0  0  0  0  0  0  0  0  0  0  0  0
    5.8578   -8.3090    0.0000 O   0  0  0  0  0  0  0  0  0  0  0  0
    6.5692   -8.7267    0.0000 C   0  0  2  0  0  0  0  0  0  0  0  0
    6.5632   -9.5517    0.0000 C   0  0  1  0  0  0  0  0  0  0  0  0
    5.8457   -9.9590    0.0000 C   0  0  2  0  0  0  0  0  0  0  0  0
    5.1343   -9.5412    0.0000 C   0  0  1  0  0  0  0  0  0  0  0  0
    5.1403   -8.7163    0.0000 C   0  0  1  0  0  0  0  0  0  0  0  0
    4.4289   -8.2985    0.0000 C   0  0  0  0  0  0  0  0  0  0  0  0
    3.7114   -8.7058    0.0000 O   0  0  0  0  0  0  0  0  0  0  0  0
    4.4168   -9.9485    0.0000 O   0  0  0  0  0  0  0  0  0  0  0  0
    5.8397  -10.7839    0.0000 O   0  0  0  0  0  0  0  0  0  0  0  0
    7.2746   -9.9694    0.0000 O   0  0  0  0  0  0  0  0  0  0  0  0
  1  2  1  0  0  0  0
  2  3  1  0  0  0  0
  3  4  2  0  0  0  0
  4  5  1  0  0  0  0
  1  5  1  0  0  0  0
  5  6  2  0  0  0  0
  9 10  1  0  0  0  0
 10 11  1  0  0  0  0
 11 12  1  0  0  0  0
 12 13  1  0  0  0  0
 13 14  1  0  0  0  0
  9 14  1  0  0  0  0
 15 16  1  0  0  0  0
 14 15  1  1  0  0  0
 13 17  1  6  0  0  0
 12 18  1  1  0  0  0
 11 19  1  6  0  0  0
 10  8  1  1  0  0  0
  7  8  1  0  0  0  0
  2  7  1  6  0  0  0
M  END
>  <cdx:groupId>
6765

>  <cdx:fragmentId>
6726

$$$$
