441688.cdx
  Mrv1902 05222410222D          

 43 47  0  0  0  0            999 V2000
    5.3318   -6.7186    0.0000 O   0  0  0  0  0  0  0  0  0  0  0  0
    6.0537   -7.1180    0.0000 C   0  0  2  0  0  0  0  0  0  0  0  0
    6.0688   -7.9428    0.0000 C   0  0  1  0  0  0  0  0  0  0  0  0
    5.3620   -8.3683    0.0000 C   0  0  2  0  0  0  0  0  0  0  0  0
    4.6401   -7.9690    0.0000 C   0  0  1  0  0  0  0  0  0  0  0  0
    4.6250   -7.1441    0.0000 C   0  0  1  0  0  0  0  0  0  0  0  0
    6.7907   -8.3422    0.0000 O   0  0  0  0  0  0  0  0  0  0  0  0
    5.3771   -9.1932    0.0000 O   0  0  0  0  0  0  0  0  0  0  0  0
    3.9333   -8.3945    0.0000 O   0  0  0  0  0  0  0  0  0  0  0  0
    3.9031   -6.7448    0.0000 C   0  0  0  0  0  0  0  0  0  0  0  0
    3.1963   -7.1703    0.0000 O   0  0  0  0  0  0  0  0  0  0  0  0
    6.7605   -6.6925    0.0000 O   0  0  0  0  0  0  0  0  0  0  0  0
    8.8659   -4.5911    0.0000 C   0  0  0  0  0  0  0  0  0  0  0  0
    8.8810   -5.4160    0.0000 C   0  0  0  0  0  0  0  0  0  0  0  0
    8.1742   -5.8415    0.0000 C   0  0  0  0  0  0  0  0  0  0  0  0
    7.4523   -5.4421    0.0000 C   0  0  0  0  0  0  0  0  0  0  0  0
    6.7454   -5.8676    0.0000 C   0  0  0  0  0  0  0  0  0  0  0  0
    6.0236   -5.4683    0.0000 C   0  0  0  0  0  0  0  0  0  0  0  0
    6.0085   -4.6434    0.0000 C   0  0  0  0  0  0  0  0  0  0  0  0
    6.7153   -4.2179    0.0000 C   0  0  0  0  0  0  0  0  0  0  0  0
    7.4372   -4.6173    0.0000 C   0  0  0  0  0  0  0  0  0  0  0  0
    8.1440   -4.1918    0.0000 O   0  3  0  0  0  0  0  0  0  0  0  0
    9.6029   -5.8153    0.0000 O   0  0  0  0  0  0  0  0  0  0  0  0
    8.9111   -7.0657    0.0000 O   0  0  0  0  0  0  0  0  0  0  0  0
    9.6179   -6.6402    0.0000 C   0  0  2  0  0  0  0  0  0  0  0  0
   10.3398   -7.0396    0.0000 C   0  0  1  0  0  0  0  0  0  0  0  0
   10.3549   -7.8644    0.0000 C   0  0  2  0  0  0  0  0  0  0  0  0
    9.6481   -8.2899    0.0000 C   0  0  1  0  0  0  0  0  0  0  0  0
    8.9262   -7.8906    0.0000 C   0  0  1  0  0  0  0  0  0  0  0  0
    8.2194   -8.3161    0.0000 C   0  0  0  0  0  0  0  0  0  0  0  0
    8.2194   -9.1411    0.0000 O   0  0  0  0  0  0  0  0  0  0  0  0
    9.6632   -9.1148    0.0000 O   0  0  0  0  0  0  0  0  0  0  0  0
   11.0768   -8.2638    0.0000 O   0  0  0  0  0  0  0  0  0  0  0  0
   11.0466   -6.6141    0.0000 O   0  0  0  0  0  0  0  0  0  0  0  0
    5.2866   -4.2440    0.0000 O   0  0  0  0  0  0  0  0  0  0  0  0
    9.5727   -4.1656    0.0000 C   0  0  0  0  0  0  0  0  0  0  0  0
   10.2946   -4.5650    0.0000 C   0  0  0  0  0  0  0  0  0  0  0  0
   11.0014   -4.1395    0.0000 C   0  0  0  0  0  0  0  0  0  0  0  0
   10.9863   -3.3146    0.0000 C   0  0  0  0  0  0  0  0  0  0  0  0
   10.2644   -2.9152    0.0000 C   0  0  0  0  0  0  0  0  0  0  0  0
    9.5576   -3.3407    0.0000 C   0  0  0  0  0  0  0  0  0  0  0  0
   11.6931   -2.8891    0.0000 O   0  0  0  0  0  0  0  0  0  0  0  0
   11.7233   -4.5388    0.0000 O   0  0  0  0  0  0  0  0  0  0  0  0
  1  2  1  0  0  0  0
  2  3  1  0  0  0  0
  3  4  1  0  0  0  0
  4  5  1  0  0  0  0
  5  6  1  0  0  0  0
  1  6  1  0  0  0  0
  3  7  1  6  0  0  0
  4  8  1  1  0  0  0
  5  9  1  6  0  0  0
 10 11  1  0  0  0  0
  6 10  1  1  0  0  0
 13 14  1  0  0  0  0
 14 15  2  0  0  0  0
 15 16  1  0  0  0  0
 16 17  2  0  0  0  0
 17 18  1  0  0  0  0
 18 19  2  0  0  0  0
 19 20  1  0  0  0  0
 20 21  2  0  0  0  0
 16 21  1  0  0  0  0
 21 22  1  0  0  0  0
 13 22  2  0  0  0  0
 24 25  1  0  0  0  0
 25 26  1  0  0  0  0
 26 27  1  0  0  0  0
 27 28  1  0  0  0  0
 28 29  1  0  0  0  0
 24 29  1  0  0  0  0
 30 31  1  0  0  0  0
 29 30  1  1  0  0  0
 28 32  1  6  0  0  0
 27 33  1  1  0  0  0
 26 34  1  6  0  0  0
 25 23  1  1  0  0  0
 14 23  1  0  0  0  0
 19 35  1  0  0  0  0
 36 37  1  0  0  0  0
 37 38  2  0  0  0  0
 38 39  1  0  0  0  0
 39 40  2  0  0  0  0
 40 41  1  0  0  0  0
 36 41  2  0  0  0  0
 39 42  1  0  0  0  0
 38 43  1  0  0  0  0
 13 36  1  0  0  0  0
 12 17  1  0  0  0  0
  2 12  1  1  0  0  0
M  CHG  1  22   1
M  END
>  <cdx:fragmentId>
51

$$$$
