441709.cdx
  Mrv1902 05222410252D          

 28 33  0  0  0  0            999 V2000
    7.5581   -6.9901    0.0000 C   0  0  2  0  0  0  0  0  0  0  0  0
    7.5581   -6.1651    0.0000 C   0  0  2  0  0  0  0  0  0  0  0  0
    6.8436   -5.7526    0.0000 C   0  0  0  0  0  0  0  0  0  0  0  0
    6.8436   -4.9276    0.0000 C   0  0  1  0  0  0  0  0  0  0  0  0
    7.5581   -4.5151    0.0000 C   0  0  0  0  0  0  0  0  0  0  0  0
    8.2726   -4.9276    0.0000 C   0  0  2  0  0  0  0  0  0  0  0  0
    8.2726   -5.7526    0.0000 C   0  0  1  0  0  0  0  0  0  0  0  0
    8.9871   -6.1651    0.0000 C   0  0  0  0  0  0  0  0  0  0  0  0
    8.9871   -6.9901    0.0000 C   0  0  0  0  0  0  0  0  0  0  0  0
    8.2726   -7.4026    0.0000 C   0  0  2  0  0  0  0  0  0  0  0  0
    8.2726   -8.2276    0.0000 C   0  0  2  0  0  0  0  0  0  0  0  0
    7.5581   -8.6401    0.0000 C   0  0  0  0  0  0  0  0  0  0  0  0
    6.8436   -8.2276    0.0000 N   0  0  0  0  0  0  0  0  0  0  0  0
    6.0590   -8.4825    0.0000 C   0  0  0  0  0  0  0  0  0  0  0  0
    5.5741   -7.8151    0.0000 C   0  0  0  0  0  0  0  0  0  0  0  0
    6.0590   -7.1476    0.0000 O   0  0  0  0  0  0  0  0  0  0  0  0
    6.8436   -7.4026    0.0000 C   0  0  0  0  0  0  0  0  0  0  0  0
    8.3206   -6.4606    0.0000 C   0  0  0  0  0  0  0  0  0  0  0  0
    9.1367   -6.9027    0.0000 C   0  0  0  0  0  0  0  0  0  0  0  0
    9.1115   -7.8305    0.0000 C   0  0  0  0  0  0  0  0  0  0  0  0
    7.9962   -5.1990    0.0000 C   0  0  0  0  0  0  0  0  0  0  0  0
    7.4604   -4.8896    0.0000 C   0  0  0  0  0  0  0  0  0  0  0  0
    8.9871   -4.5151    0.0000 O   0  0  0  0  0  0  0  0  0  0  0  0
    7.5581   -3.6901    0.0000 C   0  0  0  0  0  0  0  0  0  0  0  0
    8.6851   -8.9420    0.0000 C   0  0  0  0  0  0  0  0  0  0  0  0
    6.8436   -6.5776    0.0000 H   0  0  0  0  0  0  0  0  0  0  0  0
    6.1292   -4.5151    0.0000 H   0  0  0  0  0  0  0  0  0  0  0  0
    7.5581   -7.8151    0.0000 H   0  0  0  0  0  0  0  0  0  0  0  0
  1  2  1  0  0  0  0
  2  3  1  0  0  0  0
  3  4  1  0  0  0  0
  4  5  1  0  0  0  0
  5  6  1  0  0  0  0
  6  7  1  0  0  0  0
  7  8  1  0  0  0  0
  8  9  1  0  0  0  0
  9 10  1  0  0  0  0
 10 11  1  0  0  0  0
 11 12  1  0  0  0  0
 12 13  1  0  0  0  0
 13 14  1  0  0  0  0
 14 15  1  0  0  0  0
 15 16  1  0  0  0  0
 16 17  1  0  0  0  0
 18 19  1  0  0  0  0
 19 20  1  0  0  0  0
 21 22  1  0  0  0  0
  1 17  1  0  0  0  0
  1 18  1  1  0  0  0
 11 20  1  1  0  0  0
 13 17  1  0  0  0  0
  1 10  1  0  0  0  0
  7 21  1  6  0  0  0
  4 22  1  6  0  0  0
  2  7  1  0  0  0  0
  6 23  1  1  0  0  0
  5 24  2  0  0  0  0
 11 25  1  0  0  0  0
  2 26  1  1  0  0  0
  4 27  1  0  0  0  0
 10 28  1  1  0  0  0
M  END
>  <cdx:groupId>
431

>  <cdx:fragmentId>
345

$$$$
