441773.cdx
  Mrv1902 05222410182D          

 22 24  0  0  0  0            999 V2000
    7.6402   -7.8039    0.0000 C   0  0  0  0  0  0  0  0  0  0  0  0
    7.6402   -8.6289    0.0000 C   0  0  0  0  0  0  0  0  0  0  0  0
    6.9257   -9.0414    0.0000 C   0  0  0  0  0  0  0  0  0  0  0  0
    6.2112   -8.6289    0.0000 C   0  0  0  0  0  0  0  0  0  0  0  0
    5.4968   -9.0414    0.0000 C   0  0  0  0  0  0  0  0  0  0  0  0
    4.7823   -8.6289    0.0000 C   0  0  0  0  0  0  0  0  0  0  0  0
    4.7823   -7.8039    0.0000 C   0  0  0  0  0  0  0  0  0  0  0  0
    5.4968   -7.3914    0.0000 C   0  0  0  0  0  0  0  0  0  0  0  0
    6.2112   -7.8039    0.0000 C   0  0  0  0  0  0  0  0  0  0  0  0
    6.9257   -7.3914    0.0000 O   0  3  0  0  0  0  0  0  0  0  0  0
    8.3547   -9.0414    0.0000 O   0  0  0  0  0  0  0  0  0  0  0  0
    5.4968   -9.8664    0.0000 O   0  0  0  0  0  0  0  0  0  0  0  0
    4.0678   -7.3914    0.0000 O   0  0  0  0  0  0  0  0  0  0  0  0
    8.3547   -7.3914    0.0000 C   0  0  0  0  0  0  0  0  0  0  0  0
    9.0691   -7.8039    0.0000 C   0  0  0  0  0  0  0  0  0  0  0  0
    9.7836   -7.3914    0.0000 C   0  0  0  0  0  0  0  0  0  0  0  0
    9.7836   -6.5664    0.0000 C   0  0  0  0  0  0  0  0  0  0  0  0
    9.0691   -6.1539    0.0000 C   0  0  0  0  0  0  0  0  0  0  0  0
    8.3547   -6.5664    0.0000 C   0  0  0  0  0  0  0  0  0  0  0  0
   10.4981   -7.8039    0.0000 O   0  0  0  0  0  0  0  0  0  0  0  0
   11.2125   -7.3914    0.0000 C   0  0  0  0  0  0  0  0  0  0  0  0
   10.4981   -6.1539    0.0000 O   0  0  0  0  0  0  0  0  0  0  0  0
  1  2  2  0  0  0  0
  2  3  1  0  0  0  0
  3  4  2  0  0  0  0
  4  5  1  0  0  0  0
  5  6  2  0  0  0  0
  6  7  1  0  0  0  0
  7  8  2  0  0  0  0
  8  9  1  0  0  0  0
  4  9  1  0  0  0  0
  9 10  2  0  0  0  0
  1 10  1  0  0  0  0
  2 11  1  0  0  0  0
  5 12  1  0  0  0  0
  7 13  1  0  0  0  0
 14 15  1  0  0  0  0
 15 16  2  0  0  0  0
 16 17  1  0  0  0  0
 17 18  2  0  0  0  0
 18 19  1  0  0  0  0
 14 19  2  0  0  0  0
 20 21  1  0  0  0  0
 16 20  1  0  0  0  0
 17 22  1  0  0  0  0
  1 14  1  0  0  0  0
M  CHG  1  10   1
M  END
>  <cdx:fragmentId>
173

$$$$
