441826.cdx
  Mrv1902 05222410192D          

 37 40  0  0  0  0            999 V2000
   10.1676   -5.0956    0.0000 C   0  0  0  0  0  0  0  0  0  0  0  0
   10.7197   -5.7087    0.0000 C   0  0  0  0  0  0  0  0  0  0  0  0
   11.5267   -5.5372    0.0000 C   0  0  0  0  0  0  0  0  0  0  0  0
   10.4648   -6.4933    0.0000 C   0  0  0  0  0  0  0  0  0  0  0  0
    9.6577   -6.6648    0.0000 C   0  0  0  0  0  0  0  0  0  0  0  0
    9.4028   -7.4495    0.0000 C   0  0  2  0  0  0  0  0  0  0  0  0
    8.5958   -7.6210    0.0000 C   0  0  1  0  0  0  0  0  0  0  0  0
    8.4243   -6.8140    0.0000 C   0  0  0  0  0  0  0  0  0  0  0  0
    8.3409   -8.4056    0.0000 C   0  0  1  0  0  0  0  0  0  0  0  0
    8.8258   -9.0731    0.0000 C   0  0  0  0  0  0  0  0  0  0  0  0
    8.3409   -9.7405    0.0000 C   0  0  0  0  0  0  0  0  0  0  0  0
    7.5563   -9.4856    0.0000 C   0  0  2  0  0  0  0  0  0  0  0  0
    7.5563   -8.6606    0.0000 C   0  0  2  0  0  0  0  0  0  0  0  0
    6.8418   -8.2481    0.0000 C   0  0  0  0  0  0  0  0  0  0  0  0
    6.1273   -8.6606    0.0000 C   0  0  2  0  0  0  0  0  0  0  0  0
    6.1273   -9.4856    0.0000 C   0  0  1  0  0  0  0  0  0  0  0  0
    6.8418   -9.8981    0.0000 C   0  0  0  0  0  0  0  0  0  0  0  0
    6.8418  -10.7231    0.0000 C   0  0  0  0  0  0  0  0  0  0  0  0
    6.1273  -11.1356    0.0000 C   0  0  0  0  0  0  0  0  0  0  0  0
    6.1273  -11.9606    0.0000 O   0  0  0  0  0  0  0  0  0  0  0  0
    5.4129  -10.7231    0.0000 C   0  0  1  0  0  0  0  0  0  0  0  0
    5.4129   -9.8981    0.0000 C   0  0  2  0  0  0  0  0  0  0  0  0
    4.6984   -9.4856    0.0000 C   0  0  0  0  0  0  0  0  0  0  0  0
    3.9839   -9.8981    0.0000 C   0  0  1  0  0  0  0  0  0  0  0  0
    3.9839  -10.7231    0.0000 C   0  0  1  0  0  0  0  0  0  0  0  0
    4.6984  -11.1356    0.0000 C   0  0  0  0  0  0  0  0  0  0  0  0
    3.2695  -11.1356    0.0000 O   0  0  0  0  0  0  0  0  0  0  0  0
    3.2695   -9.4856    0.0000 O   0  0  0  0  0  0  0  0  0  0  0  0
    5.4129   -9.0731    0.0000 C   0  0  0  0  0  0  0  0  0  0  0  0
    5.4129   -8.2481    0.0000 O   0  0  0  0  0  0  0  0  0  0  0  0
    7.6426   -7.8401    0.0000 C   0  0  0  0  0  0  0  0  0  0  0  0
    7.6426  -10.3060    0.0000 O   0  0  0  0  0  0  0  0  0  0  0  0
    7.8112   -7.3661    0.0000 O   0  0  0  0  0  0  0  0  0  0  0  0
    9.9549   -8.0625    0.0000 O   0  0  0  0  0  0  0  0  0  0  0  0
    9.1255   -8.1507    0.0000 H   0  0  0  0  0  0  0  0  0  0  0  0
    5.4129  -11.5481    0.0000 H   0  0  0  0  0  0  0  0  0  0  0  0
    6.1273  -10.3106    0.0000 H   0  0  0  0  0  0  0  0  0  0  0  0
  1  2  1  0  0  0  0
  2  3  1  0  0  0  0
  2  4  1  0  0  0  0
  4  5  1  0  0  0  0
  5  6  1  0  0  0  0
  6  7  1  0  0  0  0
  7  8  1  6  0  0  0
  7  9  1  0  0  0  0
  9 10  1  0  0  0  0
 10 11  1  0  0  0  0
 11 12  1  0  0  0  0
 12 13  1  0  0  0  0
  9 13  1  0  0  0  0
 13 14  1  0  0  0  0
 14 15  1  0  0  0  0
 15 16  1  0  0  0  0
 16 17  1  0  0  0  0
 12 17  1  0  0  0  0
 17 18  2  0  0  0  0
 18 19  1  0  0  0  0
 19 20  2  0  0  0  0
 19 21  1  0  0  0  0
 21 22  1  0  0  0  0
 16 22  1  0  0  0  0
 22 23  1  0  0  0  0
 23 24  1  0  0  0  0
 24 25  1  0  0  0  0
 25 26  1  0  0  0  0
 21 26  1  0  0  0  0
 25 27  1  1  0  0  0
 24 28  1  1  0  0  0
 22 29  1  1  0  0  0
 15 30  1  6  0  0  0
 13 31  1  1  0  0  0
 12 32  1  6  0  0  0
  7 33  1  1  0  0  0
  6 34  1  1  0  0  0
  9 35  1  6  0  0  0
 21 36  1  1  0  0  0
 16 37  1  6  0  0  0
M  END
>  <cdx:fragmentId>
7442

$$$$
