441860.cdx
  Mrv1902 05222410242D          

 40 45  0  0  0  0            999 V2000
    8.4923   -9.3248    0.0000 H   0  0  0  0  0  0  0  0  0  0  0  0
    9.2064   -8.0740    0.0000 H   0  0  0  0  0  0  0  0  0  0  0  0
    6.3672   -9.7757    0.0000 C   0  0  1  0  0  0  0  0  0  0  0  0
    6.3521   -8.9513    0.0000 C   0  0  0  0  0  0  0  0  0  0  0  0
    7.0592   -8.5259    0.0000 C   0  0  0  0  0  0  0  0  0  0  0  0
    7.7812   -8.9251    0.0000 C   0  0  2  0  0  0  0  0  0  0  0  0
    7.7661   -8.1006    0.0000 C   0  0  0  0  0  0  0  0  0  0  0  0
    7.0441   -7.7015    0.0000 O   0  0  0  0  0  0  0  0  0  0  0  0
    8.4884   -8.4998    0.0000 C   0  0  1  0  0  0  0  0  0  0  0  0
    8.4733   -7.6754    0.0000 C   0  0  0  0  0  0  0  0  0  0  0  0
    9.1802   -7.2501    0.0000 C   0  0  0  0  0  0  0  0  0  0  0  0
    9.9024   -7.6492    0.0000 C   0  0  2  0  0  0  0  0  0  0  0  0
    9.8873   -6.8244    0.0000 C   0  0  0  0  0  0  0  0  0  0  0  0
   10.6674   -7.3879    0.0000 C   0  0  2  0  0  0  0  0  0  0  0  0
   11.1741   -8.0383    0.0000 C   0  0  0  0  0  0  0  0  0  0  0  0
   10.6915   -8.7070    0.0000 C   0  0  0  0  0  0  0  0  0  0  0  0
    9.9175   -8.4737    0.0000 C   0  0  1  0  0  0  0  0  0  0  0  0
    9.9325   -9.2986    0.0000 O   0  0  0  0  0  0  0  0  0  0  0  0
    9.2104   -8.8990    0.0000 C   0  0  2  0  0  0  0  0  0  0  0  0
    9.2254   -9.7234    0.0000 C   0  0  0  0  0  0  0  0  0  0  0  0
    8.5185  -10.1487    0.0000 C   0  0  0  0  0  0  0  0  0  0  0  0
    7.7963   -9.7495    0.0000 C   0  0  1  0  0  0  0  0  0  0  0  0
    7.8113  -10.5740    0.0000 O   0  0  0  0  0  0  0  0  0  0  0  0
    7.0893  -10.1749    0.0000 C   0  0  0  0  0  0  0  0  0  0  0  0
   10.9276   -6.5859    0.0000 C   0  0  0  0  0  0  0  0  0  0  0  0
   10.4208   -5.9353    0.0000 C   0  0  0  0  0  0  0  0  0  0  0  0
   10.9035   -5.2667    0.0000 C   0  0  0  0  0  0  0  0  0  0  0  0
   10.6141   -4.4747    0.0000 O   0  0  0  0  0  0  0  0  0  0  0  0
   11.6775   -5.5000    0.0000 O   0  0  0  0  0  0  0  0  0  0  0  0
   11.6925   -6.3244    0.0000 C   0  0  0  0  0  0  0  0  0  0  0  0
    5.6603  -10.2010    0.0000 O   0  0  0  0  0  0  0  0  0  0  0  0
    2.8039   -8.5480    0.0000 O   0  0  0  0  0  0  0  0  0  0  0  0
    3.5180   -8.9612    0.0000 C   0  0  2  0  0  0  0  0  0  0  0  0
    4.2327   -7.7244    0.0000 C   0  0  0  0  0  0  0  0  0  0  0  0
    4.2323   -8.5494    0.0000 C   0  0  1  0  0  0  0  0  0  0  0  0
    4.9465   -8.9627    0.0000 O   0  0  0  0  0  0  0  0  0  0  0  0
    4.9461   -9.7877    0.0000 C   0  0  2  0  0  0  0  0  0  0  0  0
    4.2318  -10.1995    0.0000 C   0  0  0  0  0  0  0  0  0  0  0  0
    3.5176   -9.7862    0.0000 C   0  0  2  0  0  0  0  0  0  0  0  0
    2.8032  -10.1980    0.0000 O   0  0  0  0  0  0  0  0  0  0  0  0
  9  1  1  6  0  0  0
 19  2  1  1  0  0  0
 37 31  1  1  0  0  0
 33 32  1  6  0  0  0
 39 33  1  0  0  0  0
 35 33  1  0  0  0  0
 35 34  1  1  0  0  0
 36 35  1  0  0  0  0
 37 36  1  0  0  0  0
 38 37  1  0  0  0  0
 39 38  1  0  0  0  0
 39 40  1  6  0  0  0
  3 31  1  1  0  0  0
  3  4  1  0  0  0  0
  4  5  1  0  0  0  0
  5  6  1  0  0  0  0
  6  7  1  1  0  0  0
  7  8  2  0  0  0  0
  6  9  1  0  0  0  0
  9 10  1  0  0  0  0
 10 11  1  0  0  0  0
 11 12  1  0  0  0  0
 12 13  1  1  0  0  0
 12 14  1  0  0  0  0
 14 15  1  0  0  0  0
 15 16  1  0  0  0  0
 16 17  1  0  0  0  0
 12 17  1  0  0  0  0
 17 18  1  1  0  0  0
 17 19  1  0  0  0  0
  9 19  1  0  0  0  0
 19 20  1  0  0  0  0
 20 21  1  0  0  0  0
 21 22  1  0  0  0  0
  6 22  1  0  0  0  0
 22 23  1  1  0  0  0
 22 24  1  0  0  0  0
  3 24  1  0  0  0  0
 14 25  1  1  0  0  0
 25 26  2  0  0  0  0
 26 27  1  0  0  0  0
 27 28  2  0  0  0  0
 27 29  1  0  0  0  0
 29 30  1  0  0  0  0
 25 30  1  0  0  0  0
M  END
>  <cdx:fragmentId>
7687

$$$$
