441801.cdx
  Mrv1902 05222410262D          

 37 42  0  0  0  0            999 V2000
   15.8384  -10.1484    0.0000 C   0  0  2  0  0  0  0  0  0  0  0  0
   15.1239  -10.5609    0.0000 C   0  0  2  0  0  0  0  0  0  0  0  0
   14.4095  -10.1484    0.0000 C   0  0  0  0  0  0  0  0  0  0  0  0
   13.6950  -10.5609    0.0000 C   0  0  0  0  0  0  0  0  0  0  0  0
   13.6950  -11.3859    0.0000 C   0  0  2  0  0  0  0  0  0  0  0  0
   14.4095  -11.7984    0.0000 C   0  0  1  0  0  0  0  0  0  0  0  0
   15.1239  -11.3859    0.0000 C   0  0  1  0  0  0  0  0  0  0  0  0
   15.8384  -11.7984    0.0000 C   0  0  0  0  0  0  0  0  0  0  0  0
   16.5529  -11.3859    0.0000 C   0  0  0  0  0  0  0  0  0  0  0  0
   16.5529  -10.5609    0.0000 C   0  0  1  0  0  0  0  0  0  0  0  0
   17.2673  -10.1484    0.0000 C   0  0  1  0  0  0  0  0  0  0  0  0
   17.2673   -9.3234    0.0000 O   0  0  0  0  0  0  0  0  0  0  0  0
   16.5529   -8.9109    0.0000 C   0  0  0  0  0  0  0  0  0  0  0  0
   15.8384   -9.3234    0.0000 C   0  0  1  0  0  0  0  0  0  0  0  0
   15.1239   -9.7359    0.0000 O   0  0  0  0  0  0  0  0  0  0  0  0
   13.4910  -12.8931    0.0000 O   0  0  0  0  0  0  0  0  0  0  0  0
   14.1229  -13.4234    0.0000 C   0  0  0  0  0  0  0  0  0  0  0  0
   14.8982  -13.1412    0.0000 C   0  0  0  0  0  0  0  0  0  0  0  0
   15.0414  -12.3287    0.0000 C   0  0  2  0  0  0  0  0  0  0  0  0
   13.6342  -12.0806    0.0000 C   0  0  0  0  0  0  0  0  0  0  0  0
   13.9797  -14.2358    0.0000 O   0  0  0  0  0  0  0  0  0  0  0  0
   14.2662   -9.3360    0.0000 O   0  0  0  0  0  0  0  0  0  0  0  0
   16.5529   -8.0859    0.0000 O   0  0  0  0  0  0  0  0  0  0  0  0
   17.2673  -10.9734    0.0000 C   0  0  0  0  0  0  0  0  0  0  0  0
   15.8384  -10.9734    0.0000 C   0  0  0  0  0  0  0  0  0  0  0  0
   12.9805  -12.6234    0.0000 C   0  0  0  0  0  0  0  0  0  0  0  0
   12.9805  -11.7984    0.0000 C   0  0  0  0  0  0  0  0  0  0  0  0
   12.2660  -11.3859    0.0000 C   0  0  0  0  0  0  0  0  0  0  0  0
   12.2660  -12.2109    0.0000 O   0  0  0  0  0  0  0  0  0  0  0  0
   15.8664  -12.3287    0.0000 O   0  0  0  0  0  0  0  0  0  0  0  0
   18.8750  -11.5530    0.0000 O   0  0  0  0  0  0  0  0  0  0  0  0
   18.0680  -11.3814    0.0000 C   0  0  0  0  0  0  0  0  0  0  0  0
   17.9818  -10.5609    0.0000 C   0  0  0  0  0  0  0  0  0  0  0  0
   18.7355  -10.2254    0.0000 C   0  0  0  0  0  0  0  0  0  0  0  0
   19.2875  -10.8385    0.0000 C   0  0  0  0  0  0  0  0  0  0  0  0
   14.4095  -10.9734    0.0000 H   0  0  0  0  0  0  0  0  0  0  0  0
   15.4259   -8.6090    0.0000 H   0  0  0  0  0  0  0  0  0  0  0  0
  1  2  1  0  0  0  0
  2  3  1  0  0  0  0
  3  4  1  0  0  0  0
  4  5  1  0  0  0  0
  5  6  1  0  0  0  0
  6  7  1  0  0  0  0
  7  8  1  0  0  0  0
  8  9  1  0  0  0  0
  9 10  1  0  0  0  0
 10 11  1  0  0  0  0
 11 12  1  0  0  0  0
 12 13  1  0  0  0  0
 13 14  1  0  0  0  0
 14 15  1  0  0  0  0
  1 15  1  6  0  0  0
  1 10  1  0  0  0  0
  1 14  1  0  0  0  0
  2  7  1  0  0  0  0
 16 17  1  0  0  0  0
 17 18  1  0  0  0  0
 18 19  1  0  0  0  0
 16 20  1  0  0  0  0
 19  6  1  0  0  0  0
  6 20  1  6  0  0  0
 17 21  2  0  0  0  0
  3 22  2  0  0  0  0
 13 23  2  0  0  0  0
 10 24  1  1  0  0  0
  2 25  1  6  0  0  0
 26 27  1  0  0  0  0
 27 28  1  0  0  0  0
 27 29  1  0  0  0  0
  5 27  1  6  0  0  0
 19 30  1  1  0  0  0
 31 32  1  0  0  0  0
 32 33  2  0  0  0  0
 33 34  1  0  0  0  0
 34 35  2  0  0  0  0
 31 35  1  0  0  0  0
 11 33  1  1  0  0  0
  7 36  1  1  0  0  0
 14 37  1  1  0  0  0
M  END
>  <cdx:groupId>
7436

>  <cdx:fragmentId>
7323

$$$$
