4418.cdx
  Mrv1902 05222410252D          

 23 26  0  0  0  0            999 V2000
    4.6645   -7.0331    0.0000 C   0  0  0  0  0  0  0  0  0  0  0  0
    4.6645   -7.8581    0.0000 C   0  0  0  0  0  0  0  0  0  0  0  0
    5.3790   -8.2706    0.0000 C   0  0  0  0  0  0  0  0  0  0  0  0
    6.0935   -7.8581    0.0000 C   0  0  0  0  0  0  0  0  0  0  0  0
    6.0935   -7.0331    0.0000 C   0  0  0  0  0  0  0  0  0  0  0  0
    5.3790   -6.6206    0.0000 C   0  0  0  0  0  0  0  0  0  0  0  0
    6.8079   -8.2706    0.0000 C   0  0  0  0  0  0  0  0  0  0  0  0
    7.5224   -7.8581    0.0000 C   0  0  0  0  0  0  0  0  0  0  0  0
    7.5224   -7.0331    0.0000 C   0  0  0  0  0  0  0  0  0  0  0  0
    6.8079   -6.6206    0.0000 O   0  0  0  0  0  0  0  0  0  0  0  0
    8.2369   -6.6206    0.0000 C   0  0  0  0  0  0  0  0  0  0  0  0
    8.2369   -5.7956    0.0000 C   0  0  0  0  0  0  0  0  0  0  0  0
    8.9514   -7.0331    0.0000 C   0  0  0  0  0  0  0  0  0  0  0  0
    9.6658   -6.6206    0.0000 C   0  0  0  0  0  0  0  0  0  0  0  0
    9.6658   -5.7956    0.0000 C   0  0  0  0  0  0  0  0  0  0  0  0
    8.9514   -5.3831    0.0000 C   0  0  0  0  0  0  0  0  0  0  0  0
    3.8799   -6.7782    0.0000 O   0  0  0  0  0  0  0  0  0  0  0  0
    3.3950   -7.4456    0.0000 C   0  0  0  0  0  0  0  0  0  0  0  0
    3.8799   -8.1131    0.0000 O   0  0  0  0  0  0  0  0  0  0  0  0
    5.3790   -9.0956    0.0000 O   0  0  0  0  0  0  0  0  0  0  0  0
    6.8079   -9.0956    0.0000 O   0  0  0  0  0  0  0  0  0  0  0  0
   10.3803   -5.3831    0.0000 O   0  0  0  0  0  0  0  0  0  0  0  0
    8.2369   -8.2706    0.0000 O   0  0  0  0  0  0  0  0  0  0  0  0
  1  2  2  0  0  0  0
  2  3  1  0  0  0  0
  3  4  2  0  0  0  0
  4  5  1  0  0  0  0
  5  6  2  0  0  0  0
  6  1  1  0  0  0  0
  4  7  1  0  0  0  0
  7  8  1  0  0  0  0
  8  9  2  0  0  0  0
  9 10  1  0  0  0  0
 10  5  1  0  0  0  0
  9 11  1  0  0  0  0
 11 12  2  0  0  0  0
 11 13  1  0  0  0  0
 13 14  2  0  0  0  0
 14 15  1  0  0  0  0
 15 16  2  0  0  0  0
 16 12  1  0  0  0  0
  1 17  1  0  0  0  0
 17 18  1  0  0  0  0
 18 19  1  0  0  0  0
 19  2  1  0  0  0  0
  3 20  1  0  0  0  0
  7 21  2  0  0  0  0
 15 22  1  0  0  0  0
  8 23  1  0  0  0  0
M  END
>  <cdx:fragmentId>
5

$$$$
