441887.cdx
  Mrv1902 05222410222D          

 37 42  0  0  0  0            999 V2000
    6.9544   -7.4676    0.0000 C   0  0  1  0  0  0  0  0  0  0  0  0
    7.6688   -7.0551    0.0000 C   0  0  2  0  0  0  0  0  0  0  0  0
    8.4535   -7.3100    0.0000 C   0  0  0  0  0  0  0  0  0  0  0  0
    8.9384   -6.6426    0.0000 C   0  0  2  0  0  0  0  0  0  0  0  0
    9.7230   -6.3877    0.0000 O   0  0  0  0  0  0  0  0  0  0  0  0
    9.7230   -5.5627    0.0000 C   0  0  2  0  0  0  0  0  0  0  0  0
    8.9384   -5.3077    0.0000 C   0  0  2  0  0  0  0  0  0  0  0  0
    8.4535   -5.9752    0.0000 C   0  0  2  0  0  0  0  0  0  0  0  0
    7.6688   -6.2301    0.0000 C   0  0  1  0  0  0  0  0  0  0  0  0
    6.9544   -5.8176    0.0000 C   0  0  0  0  0  0  0  0  0  0  0  0
    6.2399   -6.2301    0.0000 C   0  0  0  0  0  0  0  0  0  0  0  0
    6.2399   -7.0551    0.0000 C   0  0  2  0  0  0  0  0  0  0  0  0
    5.5254   -7.4676    0.0000 C   0  0  1  0  0  0  0  0  0  0  0  0
    4.8110   -7.0551    0.0000 C   0  0  0  0  0  0  0  0  0  0  0  0
    4.0965   -7.4676    0.0000 C   0  0  2  0  0  0  0  0  0  0  0  0
    4.0965   -8.2926    0.0000 C   0  0  1  0  0  0  0  0  0  0  0  0
    4.8110   -8.7051    0.0000 C   0  0  0  0  0  0  0  0  0  0  0  0
    5.5254   -8.2926    0.0000 C   0  0  2  0  0  0  0  0  0  0  0  0
    6.2399   -8.7051    0.0000 C   0  0  0  0  0  0  0  0  0  0  0  0
    6.9544   -8.2926    0.0000 C   0  0  0  0  0  0  0  0  0  0  0  0
    9.6368   -4.7422    0.0000 O   0  0  0  0  0  0  0  0  0  0  0  0
   10.4767   -5.8982    0.0000 C   0  0  0  0  0  0  0  0  0  0  0  0
   11.1441   -5.4133    0.0000 C   0  0  0  0  0  0  0  0  0  0  0  0
   11.0579   -4.5928    0.0000 C   0  0  2  0  0  0  0  0  0  0  0  0
   10.3042   -4.2573    0.0000 C   0  0  0  0  0  0  0  0  0  0  0  0
    3.3820   -7.0551    0.0000 O   0  0  0  0  0  0  0  0  0  0  0  0
    3.3820   -8.7051    0.0000 O   0  0  0  0  0  0  0  0  0  0  0  0
    5.5254   -6.6426    0.0000 C   0  0  0  0  0  0  0  0  0  0  0  0
    7.6688   -5.4051    0.0000 C   0  0  0  0  0  0  0  0  0  0  0  0
    8.6835   -4.5231    0.0000 C   0  0  0  0  0  0  0  0  0  0  0  0
   11.7253   -4.1079    0.0000 C   0  0  0  0  0  0  0  0  0  0  0  0
    6.9544   -6.6426    0.0000 H   0  0  0  0  0  0  0  0  0  0  0  0
    7.6688   -7.8801    0.0000 H   0  0  0  0  0  0  0  0  0  0  0  0
    9.4233   -7.3100    0.0000 H   0  0  0  0  0  0  0  0  0  0  0  0
    8.0918   -5.2337    0.0000 H   0  0  0  0  0  0  0  0  0  0  0  0
    6.2399   -7.8801    0.0000 H   0  0  0  0  0  0  0  0  0  0  0  0
    5.5254   -9.1176    0.0000 H   0  0  0  0  0  0  0  0  0  0  0  0
  1  2  1  0  0  0  0
  2  3  1  0  0  0  0
  3  4  1  0  0  0  0
  4  5  1  0  0  0  0
  6  5  1  6  0  0  0
  6  7  1  0  0  0  0
  7  8  1  0  0  0  0
  8  9  1  0  0  0  0
  9 10  1  0  0  0  0
 10 11  1  0  0  0  0
 11 12  1  0  0  0  0
 12 13  1  0  0  0  0
 13 14  1  0  0  0  0
 14 15  1  0  0  0  0
 15 16  1  0  0  0  0
 16 17  1  0  0  0  0
 17 18  1  0  0  0  0
 18 19  1  0  0  0  0
 19 20  1  0  0  0  0
  1 20  1  0  0  0  0
  1 12  1  0  0  0  0
 13 18  1  0  0  0  0
  2  9  1  0  0  0  0
  4  8  1  0  0  0  0
 22 23  1  0  0  0  0
 23 24  1  0  0  0  0
 24 25  1  0  0  0  0
 21 25  1  0  0  0  0
  6 21  1  0  0  0  0
  6 22  1  0  0  0  0
 15 26  1  6  0  0  0
 16 27  1  1  0  0  0
 13 28  1  1  0  0  0
  9 29  1  1  0  0  0
  7 30  1  6  0  0  0
 24 31  1  6  0  0  0
  1 32  1  1  0  0  0
  2 33  1  6  0  0  0
  4 34  1  6  0  0  0
  8 35  1  6  0  0  0
 12 36  1  6  0  0  0
 18 37  1  6  0  0  0
M  END
>  <cdx:groupId>
118

>  <cdx:fragmentId>
5

$$$$
