441833.cdx
  Mrv1902 05222410202D          

 37 40  0  0  0  0            999 V2000
    6.1399   -8.7088    0.0000 C   0  0  0  0  0  0  0  0  0  0  0  0
    4.7133   -8.7202    0.0000 C   0  0  1  0  0  0  0  0  0  0  0  0
    4.7133   -9.5452    0.0000 C   0  0  2  0  0  0  0  0  0  0  0  0
    6.8445   -8.2963    0.0000 C   0  0  1  0  0  0  0  0  0  0  0  0
    6.8445   -7.4713    0.0000 C   0  0  1  0  0  0  0  0  0  0  0  0
    5.4180   -8.2963    0.0000 C   0  0  1  0  0  0  0  0  0  0  0  0
    6.1399   -9.5338    0.0000 C   0  0  0  0  0  0  0  0  0  0  0  0
    5.4294   -9.9463    0.0000 C   0  0  0  0  0  0  0  0  0  0  0  0
    7.6294   -7.2249    0.0000 C   0  0  2  0  0  0  0  0  0  0  0  0
    3.9914   -9.9577    0.0000 C   0  0  0  0  0  0  0  0  0  0  0  0
    3.9914   -8.3077    0.0000 C   0  0  0  0  0  0  0  0  0  0  0  0
    7.6352   -8.5541    0.0000 C   0  0  0  0  0  0  0  0  0  0  0  0
    6.1341   -7.0702    0.0000 C   0  0  0  0  0  0  0  0  0  0  0  0
    5.4180   -7.4827    0.0000 C   0  0  0  0  0  0  0  0  0  0  0  0
    8.1164   -7.8838    0.0000 C   0  0  0  0  0  0  0  0  0  0  0  0
    3.2867   -9.5452    0.0000 C   0  0  2  0  0  0  0  0  0  0  0  0
    3.2867   -8.7202    0.0000 C   0  0  1  0  0  0  0  0  0  0  0  0
    5.4294  -10.7713    0.0000 O   0  0  0  0  0  0  0  0  0  0  0  0
    4.7075  -10.3588    0.0000 O   0  0  0  0  0  0  0  0  0  0  0  0
    6.8445   -9.1213    0.0000 O   0  0  0  0  0  0  0  0  0  0  0  0
    4.7075   -7.8952    0.0000 C   0  0  0  0  0  0  0  0  0  0  0  0
    6.8445   -6.6462    0.0000 C   0  0  0  0  0  0  0  0  0  0  0  0
    2.5762   -9.9463    0.0000 O   0  0  0  0  0  0  0  0  0  0  0  0
    2.5762   -8.3077    0.0000 O   0  0  0  0  0  0  0  0  0  0  0  0
    5.4180   -9.1213    0.0000 H   0  0  0  0  0  0  0  0  0  0  0  0
    7.8850   -6.4405    0.0000 C   0  0  0  0  0  0  0  0  0  0  0  0
    7.0881   -6.2269    0.0000 C   0  0  0  0  0  0  0  0  0  0  0  0
    8.4143   -6.9784    0.0000 H   0  0  0  0  0  0  0  0  0  0  0  0
    8.0986   -5.6436    0.0000 C   0  0  2  0  0  0  0  0  0  0  0  0
    7.5152   -5.0602    0.0000 O   0  0  0  0  0  0  0  0  0  0  0  0
    8.8954   -5.4300    0.0000 C   0  0  0  0  0  0  0  0  0  0  0  0
    9.1090   -4.6332    0.0000 C   0  0  0  0  0  0  0  0  0  0  0  0
    9.9059   -4.4196    0.0000 C   0  0  0  0  0  0  0  0  0  0  0  0
   10.1194   -5.2165    0.0000 C   0  0  0  0  0  0  0  0  0  0  0  0
    9.6923   -3.6227    0.0000 C   0  0  0  0  0  0  0  0  0  0  0  0
   10.7028   -4.2061    0.0000 O   0  0  0  0  0  0  0  0  0  0  0  0
    8.6819   -6.6540    0.0000 O   0  0  0  0  0  0  0  0  0  0  0  0
  2  6  1  0  0  0  0
  3  8  1  0  0  0  0
  4  1  1  0  0  0  0
  5  4  1  0  0  0  0
  6  1  1  0  0  0  0
  7  1  2  0  0  0  0
  8  7  1  0  0  0  0
  9  5  1  0  0  0  0
 10  3  1  0  0  0  0
 11  2  1  0  0  0  0
 12  4  1  0  0  0  0
 13 14  1  0  0  0  0
 14  6  1  0  0  0  0
 15 12  1  0  0  0  0
 16 10  1  0  0  0  0
 17 11  1  0  0  0  0
 18  8  2  0  0  0  0
  3 19  1  1  0  0  0
  4 20  1  6  0  0  0
  2 21  1  1  0  0  0
  5 22  1  1  0  0  0
 16 23  1  1  0  0  0
 17 24  1  1  0  0  0
  6 25  1  6  0  0  0
  2  3  1  0  0  0  0
  5 13  1  0  0  0  0
 15  9  1  0  0  0  0
 17 16  1  0  0  0  0
  9 26  1  0  0  0  0
 26 27  1  0  0  0  0
  9 28  1  6  0  0  0
 26 29  1  0  0  0  0
 29 30  1  6  0  0  0
 29 31  1  0  0  0  0
 31 32  1  0  0  0  0
 32 33  1  0  0  0  0
 33 34  1  0  0  0  0
 33 35  1  0  0  0  0
 33 36  1  0  0  0  0
 26 37  1  1  0  0  0
M  END
>  <cdx:fragmentId>
7606

$$$$
