441975.cdx
  Mrv1902 05222410262D          

 29 33  0  0  0  0            999 V2000
    7.5636   -6.2223    0.0000 C   0  0  0  0  0  0  0  0  0  0  0  0
    7.5636   -5.3973    0.0000 C   0  0  0  0  0  0  0  0  0  0  0  0
    8.2781   -6.6348    0.0000 C   0  0  1  0  0  0  0  0  0  0  0  0
    8.9926   -6.2223    0.0000 N   0  0  0  0  0  0  0  0  0  0  0  0
    8.9926   -5.3973    0.0000 C   0  0  0  0  0  0  0  0  0  0  0  0
    8.2781   -4.9848    0.0000 C   0  0  0  0  0  0  0  0  0  0  0  0
    8.2781   -7.4598    0.0000 C   0  0  0  0  0  0  0  0  0  0  0  0
    8.9926   -7.8723    0.0000 C   0  0  1  0  0  0  0  0  0  0  0  0
    9.7070   -7.4598    0.0000 C   0  0  2  0  0  0  0  0  0  0  0  0
    9.7070   -6.6348    0.0000 C   0  0  0  0  0  0  0  0  0  0  0  0
    8.9926   -8.6973    0.0000 C   0  0  0  0  0  0  0  0  0  0  0  0
    9.7070   -9.1098    0.0000 C   0  0  0  0  0  0  0  0  0  0  0  0
   10.4215   -8.6973    0.0000 O   0  0  0  0  0  0  0  0  0  0  0  0
   10.4215   -7.8723    0.0000 C   0  0  1  0  0  0  0  0  0  0  0  0
    7.5636   -7.0473    0.0000 H   0  0  0  0  0  0  0  0  0  0  0  0
    8.2781   -8.2848    0.0000 H   0  0  0  0  0  0  0  0  0  0  0  0
   10.4215   -7.0473    0.0000 H   0  0  0  0  0  0  0  0  0  0  0  0
   11.1360   -7.4598    0.0000 C   0  0  0  0  0  0  0  0  0  0  0  0
    7.5636  -10.3472    0.0000 C   0  0  0  0  0  0  0  0  0  0  0  0
    7.5636   -8.6973    0.0000 O   0  0  0  0  0  0  0  0  0  0  0  0
    8.2781   -9.9348    0.0000 O   0  0  0  0  0  0  0  0  0  0  0  0
    8.2781   -9.1098    0.0000 C   0  0  0  0  0  0  0  0  0  0  0  0
    6.7790   -5.1423    0.0000 C   0  0  0  0  0  0  0  0  0  0  0  0
    6.2941   -5.8098    0.0000 C   0  0  0  0  0  0  0  0  0  0  0  0
    6.7790   -6.4772    0.0000 N   0  0  0  0  0  0  0  0  0  0  0  0
    6.4434   -4.3886    0.0000 C   0  0  0  0  0  0  0  0  0  0  0  0
    5.6230   -4.3024    0.0000 C   0  0  0  0  0  0  0  0  0  0  0  0
    5.1380   -4.9698    0.0000 C   0  0  0  0  0  0  0  0  0  0  0  0
    5.4736   -5.7235    0.0000 C   0  0  0  0  0  0  0  0  0  0  0  0
 21 19  1  0  0  0  0
 22 20  2  0  0  0  0
 22 21  1  0  0  0  0
  1  2  2  0  0  0  0
  1  3  1  0  0  0  0
  3  4  1  0  0  0  0
  4  5  1  0  0  0  0
  5  6  1  0  0  0  0
  6  2  1  0  0  0  0
  3  7  1  0  0  0  0
  7  8  1  0  0  0  0
  8  9  1  0  0  0  0
  9 10  1  0  0  0  0
 10  4  1  0  0  0  0
  8 11  1  0  0  0  0
 11 12  2  0  0  0  0
 12 13  1  0  0  0  0
 13 14  1  0  0  0  0
 14  9  1  0  0  0  0
  3 15  1  6  0  0  0
  8 16  1  6  0  0  0
  9 17  1  1  0  0  0
 14 18  1  6  0  0  0
 11 22  1  0  0  0  0
  2 23  1  0  0  0  0
 23 24  2  0  0  0  0
 24 25  1  0  0  0  0
 25  1  1  0  0  0  0
 23 26  1  0  0  0  0
 26 27  2  0  0  0  0
 27 28  1  0  0  0  0
 28 29  2  0  0  0  0
 29 24  1  0  0  0  0
M  END
>  <cdx:fragmentId>
9100

$$$$
