441905.cdx
  Mrv1902 05222410252D          

 59 66  0  0  0  0            999 V2000
    6.8731   -7.7687    0.0000 C   0  0  0  0  0  0  0  0  0  0  0  0
    6.8731   -8.5938    0.0000 C   0  0  1  0  0  0  0  0  0  0  0  0
    7.5875   -9.0062    0.0000 C   0  0  0  0  0  0  0  0  0  0  0  0
    8.3020   -8.5938    0.0000 C   0  0  1  0  0  0  0  0  0  0  0  0
    8.3020   -7.7687    0.0000 C   0  0  2  0  0  0  0  0  0  0  0  0
    7.5875   -7.3563    0.0000 C   0  0  0  0  0  0  0  0  0  0  0  0
    9.0165   -9.0062    0.0000 C   0  0  2  0  0  0  0  0  0  0  0  0
    9.7309   -8.5938    0.0000 C   0  0  0  0  0  0  0  0  0  0  0  0
    9.7309   -7.7687    0.0000 C   0  0  2  0  0  0  0  0  0  0  0  0
    9.0165   -7.3563    0.0000 C   0  0  1  0  0  0  0  0  0  0  0  0
   10.4454   -7.3563    0.0000 C   0  0  1  0  0  0  0  0  0  0  0  0
   10.4454   -6.5313    0.0000 C   0  0  2  0  0  0  0  0  0  0  0  0
    9.7309   -6.1188    0.0000 C   0  0  0  0  0  0  0  0  0  0  0  0
    9.0165   -6.5313    0.0000 C   0  0  0  0  0  0  0  0  0  0  0  0
   11.2300   -7.6112    0.0000 C   0  0  0  0  0  0  0  0  0  0  0  0
   11.7150   -6.9438    0.0000 C   0  0  1  0  0  0  0  0  0  0  0  0
   11.2300   -6.2763    0.0000 C   0  0  2  0  0  0  0  0  0  0  0  0
   11.4436   -5.4794    0.0000 C   0  0  2  0  0  0  0  0  0  0  0  0
   12.1124   -4.9965    0.0000 O   0  0  0  0  0  0  0  0  0  0  0  0
   11.8599   -4.2111    0.0000 C   0  0  1  0  0  0  0  0  0  0  0  0
   11.0349   -4.2086    0.0000 C   0  0  0  0  0  0  0  0  0  0  0  0
   10.7776   -4.9925    0.0000 C   0  0  0  0  0  0  0  0  0  0  0  0
    7.1750   -9.7207    0.0000 C   0  0  0  0  0  0  0  0  0  0  0  0
    8.0000   -9.7207    0.0000 C   0  0  0  0  0  0  0  0  0  0  0  0
    6.1586   -9.0062    0.0000 O   0  0  0  0  0  0  0  0  0  0  0  0
    8.3020   -6.9438    0.0000 C   0  0  0  0  0  0  0  0  0  0  0  0
    9.7309   -6.9438    0.0000 H   0  0  0  0  0  0  0  0  0  0  0  0
   10.4454   -5.7062    0.0000 C   0  0  0  0  0  0  0  0  0  0  0  0
   12.5400   -6.9438    0.0000 O   0  0  0  0  0  0  0  0  0  0  0  0
   12.2509   -5.6490    0.0000 C   0  0  0  0  0  0  0  0  0  0  0  0
    8.3020   -9.4187    0.0000 H   0  0  0  0  0  0  0  0  0  0  0  0
    9.0165   -9.8312    0.0000 O   0  0  0  0  0  0  0  0  0  0  0  0
   10.4454   -8.1813    0.0000 C   0  0  0  0  0  0  0  0  0  0  0  0
   12.0550   -6.2763    0.0000 H   0  0  0  0  0  0  0  0  0  0  0  0
    5.4441   -8.5938    0.0000 C   0  0  2  0  0  0  0  0  0  0  0  0
    5.4441   -7.7687    0.0000 O   0  0  0  0  0  0  0  0  0  0  0  0
    4.7296   -7.3563    0.0000 C   0  0  0  0  0  0  0  0  0  0  0  0
    4.0152   -7.7687    0.0000 C   0  0  2  0  0  0  0  0  0  0  0  0
    4.0152   -8.5938    0.0000 C   0  0  1  0  0  0  0  0  0  0  0  0
    4.7296   -9.0062    0.0000 C   0  0  1  0  0  0  0  0  0  0  0  0
    3.3007   -9.0062    0.0000 O   0  0  0  0  0  0  0  0  0  0  0  0
    3.3007   -7.3563    0.0000 O   0  0  0  0  0  0  0  0  0  0  0  0
    4.7296   -9.8312    0.0000 O   0  0  0  0  0  0  0  0  0  0  0  0
   12.6673   -4.3807    0.0000 H   0  0  0  0  0  0  0  0  0  0  0  0
   12.2724   -3.4967    0.0000 C   0  0  0  0  0  0  0  0  0  0  0  0
   11.5579   -3.0842    0.0000 C   0  0  0  0  0  0  0  0  0  0  0  0
   12.9868   -3.9092    0.0000 C   0  0  0  0  0  0  0  0  0  0  0  0
   12.6849   -2.7822    0.0000 O   0  0  0  0  0  0  0  0  0  0  0  0
    4.0152  -10.2437    0.0000 C   0  0  2  0  0  0  0  0  0  0  0  0
    3.3007   -9.8312    0.0000 O   0  0  0  0  0  0  0  0  0  0  0  0
    2.5862  -10.2437    0.0000 C   0  0  1  0  0  0  0  0  0  0  0  0
    2.5862  -11.0687    0.0000 C   0  0  2  0  0  0  0  0  0  0  0  0
    3.3007  -11.4812    0.0000 C   0  0  1  0  0  0  0  0  0  0  0  0
    4.0152  -11.0687    0.0000 C   0  0  1  0  0  0  0  0  0  0  0  0
    1.8718   -9.8312    0.0000 C   0  0  0  0  0  0  0  0  0  0  0  0
    3.3007  -12.3062    0.0000 O   0  0  0  0  0  0  0  0  0  0  0  0
    1.8718  -11.4812    0.0000 O   0  0  0  0  0  0  0  0  0  0  0  0
    4.7296  -11.4812    0.0000 O   0  0  0  0  0  0  0  0  0  0  0  0
    1.1573  -10.2437    0.0000 O   0  0  0  0  0  0  0  0  0  0  0  0
  1  2  1  0  0  0  0
  2  3  1  0  0  0  0
  3  4  1  0  0  0  0
  4  5  1  0  0  0  0
  5  6  1  0  0  0  0
  6  1  1  0  0  0  0
  4  7  1  0  0  0  0
  7  8  1  0  0  0  0
  8  9  1  0  0  0  0
  9 10  1  0  0  0  0
 10  5  1  0  0  0  0
  9 11  1  0  0  0  0
 11 12  1  0  0  0  0
 12 13  1  0  0  0  0
 13 14  1  0  0  0  0
 14 10  1  0  0  0  0
 11 15  1  0  0  0  0
 15 16  1  0  0  0  0
 16 17  1  0  0  0  0
 17 12  1  0  0  0  0
 17 18  1  0  0  0  0
 18 19  1  0  0  0  0
 19 20  1  0  0  0  0
 20 21  1  0  0  0  0
 21 22  1  0  0  0  0
 22 18  1  0  0  0  0
  3 23  1  0  0  0  0
  3 24  1  0  0  0  0
  2 25  1  1  0  0  0
  5 26  1  1  0  0  0
 10 26  1  1  0  0  0
  9 27  1  1  0  0  0
 12 28  1  1  0  0  0
 16 29  1  1  0  0  0
 18 30  1  6  0  0  0
  4 31  1  6  0  0  0
  7 32  1  6  0  0  0
 11 33  1  6  0  0  0
 17 34  1  6  0  0  0
 35 25  1  1  0  0  0
 35 36  1  0  0  0  0
 36 37  1  0  0  0  0
 37 38  1  0  0  0  0
 38 39  1  0  0  0  0
 39 40  1  0  0  0  0
 40 35  1  0  0  0  0
 39 41  1  1  0  0  0
 38 42  1  6  0  0  0
 40 43  1  6  0  0  0
 20 44  1  6  0  0  0
 20 45  1  0  0  0  0
 45 46  1  0  0  0  0
 45 47  1  0  0  0  0
 45 48  1  0  0  0  0
 49 43  1  1  0  0  0
 49 50  1  0  0  0  0
 50 51  1  0  0  0  0
 51 52  1  0  0  0  0
 52 53  1  0  0  0  0
 53 54  1  0  0  0  0
 54 49  1  0  0  0  0
 51 55  1  1  0  0  0
 53 56  1  1  0  0  0
 52 57  1  6  0  0  0
 54 58  1  6  0  0  0
 55 59  1  0  0  0  0
M  END
>  <cdx:fragmentId>
5

$$$$
