441945.cdx
  Mrv1902 05222410202D          

 67 74  0  0  0  0            999 V2000
    2.6619   -7.9737    0.0000 O   0  0  0  0  0  0  0  0  0  0  0  0
    3.0727   -8.6891    0.0000 C   0  0  2  0  0  0  0  0  0  0  0  0
    2.6586   -9.4027    0.0000 C   0  0  1  0  0  0  0  0  0  0  0  0
    1.8336   -9.4008    0.0000 C   0  0  1  0  0  0  0  0  0  0  0  0
    1.4227   -8.6854    0.0000 C   0  0  2  0  0  0  0  0  0  0  0  0
    1.8369   -7.9719    0.0000 C   0  0  2  0  0  0  0  0  0  0  0  0
    3.0695  -10.1181    0.0000 O   0  0  0  0  0  0  0  0  0  0  0  0
    1.4195  -10.1143    0.0000 O   0  0  0  0  0  0  0  0  0  0  0  0
    0.5978   -8.6836    0.0000 O   0  0  0  0  0  0  0  0  0  0  0  0
    1.4260   -7.2565    0.0000 C   0  0  0  0  0  0  0  0  0  0  0  0
    3.8884  -10.3437    0.0000 O   0  0  0  0  0  0  0  0  0  0  0  0
    6.0318   -9.1062    0.0000 O   0  0  0  0  0  0  0  0  0  0  0  0
    6.0318   -9.9312    0.0000 C   0  0  2  0  0  0  0  0  0  0  0  0
    5.3173  -10.3437    0.0000 C   0  0  1  0  0  0  0  0  0  0  0  0
    4.6029   -9.9312    0.0000 C   0  0  2  0  0  0  0  0  0  0  0  0
    4.6029   -9.1062    0.0000 C   0  0  1  0  0  0  0  0  0  0  0  0
    5.3173   -8.6937    0.0000 C   0  0  1  0  0  0  0  0  0  0  0  0
    5.3173   -7.8687    0.0000 C   0  0  0  0  0  0  0  0  0  0  0  0
    3.8884   -8.6937    0.0000 O   0  0  0  0  0  0  0  0  0  0  0  0
    5.3173  -11.1687    0.0000 O   0  0  0  0  0  0  0  0  0  0  0  0
    6.7463  -10.3437    0.0000 O   0  0  0  0  0  0  0  0  0  0  0  0
    8.1752   -8.6937    0.0000 C   0  0  0  0  0  0  0  0  0  0  0  0
    7.4607   -9.1062    0.0000 C   0  0  0  0  0  0  0  0  0  0  0  0
    7.4607   -9.9312    0.0000 C   0  0  1  0  0  0  0  0  0  0  0  0
    8.1752  -10.3437    0.0000 C   0  0  1  0  0  0  0  0  0  0  0  0
    8.8897   -9.9312    0.0000 C   0  0  2  0  0  0  0  0  0  0  0  0
    9.6042  -10.3437    0.0000 C   0  0  0  0  0  0  0  0  0  0  0  0
   10.3186   -9.9312    0.0000 C   0  0  0  0  0  0  0  0  0  0  0  0
   10.3186   -9.1062    0.0000 C   0  0  1  0  0  0  0  0  0  0  0  0
   11.0331   -8.6937    0.0000 C   0  0  2  0  0  0  0  0  0  0  0  0
   11.7476   -9.1062    0.0000 C   0  0  0  0  0  0  0  0  0  0  0  0
   12.4620   -8.6937    0.0000 C   0  0  2  0  0  0  0  0  0  0  0  0
   12.4620   -7.8687    0.0000 C   0  0  1  0  0  0  0  0  0  0  0  0
   13.1765   -7.4562    0.0000 C   0  0  0  0  0  0  0  0  0  0  0  0
   13.1765   -6.6312    0.0000 C   0  0  0  0  0  0  0  0  0  0  0  0
   12.4620   -6.2187    0.0000 C   0  0  1  0  0  0  0  0  0  0  0  0
   11.7476   -6.6312    0.0000 C   0  0  0  0  0  0  0  0  0  0  0  0
   11.7476   -7.4562    0.0000 C   0  0  0  0  0  0  0  0  0  0  0  0
   11.0331   -7.8687    0.0000 C   0  0  0  0  0  0  0  0  0  0  0  0
   10.3186   -7.4562    0.0000 C   0  0  0  0  0  0  0  0  0  0  0  0
    9.6042   -7.8687    0.0000 C   0  0  0  0  0  0  0  0  0  0  0  0
    9.6042   -8.6937    0.0000 C   0  0  2  0  0  0  0  0  0  0  0  0
    8.8897   -9.1062    0.0000 C   0  0  1  0  0  0  0  0  0  0  0  0
    8.8897   -8.2812    0.0000 C   0  0  0  0  0  0  0  0  0  0  0  0
   12.0495   -5.5042    0.0000 C   0  0  0  0  0  0  0  0  0  0  0  0
   12.8745   -5.5042    0.0000 C   0  0  0  0  0  0  0  0  0  0  0  0
   11.0331   -9.5187    0.0000 C   0  0  0  0  0  0  0  0  0  0  0  0
   10.3186   -8.2812    0.0000 C   0  0  0  0  0  0  0  0  0  0  0  0
    7.7627  -11.0582    0.0000 C   0  0  0  0  0  0  0  0  0  0  0  0
   13.1765   -8.2812    0.0000 C   0  0  0  0  0  0  0  0  0  0  0  0
   13.8910   -7.8687    0.0000 O   0  0  0  0  0  0  0  0  0  0  0  0
    8.5877  -11.0582    0.0000 C   0  0  0  0  0  0  0  0  0  0  0  0
   13.1765   -9.1062    0.0000 O   0  0  0  0  0  0  0  0  0  0  0  0
    8.8897  -10.7562    0.0000 H   0  0  0  0  0  0  0  0  0  0  0  0
    9.6042   -9.5187    0.0000 H   0  0  0  0  0  0  0  0  0  0  0  0
    4.6029   -7.4562    0.0000 O   0  0  0  0  0  0  0  0  0  0  0  0
    5.3190   -6.2365    0.0000 O   0  0  0  0  0  0  0  0  0  0  0  0
    4.5996   -6.6404    0.0000 C   0  0  2  0  0  0  0  0  0  0  0  0
    3.8902   -6.2193    0.0000 C   0  0  1  0  0  0  0  0  0  0  0  0
    3.9001   -5.3944    0.0000 C   0  0  2  0  0  0  0  0  0  0  0  0
    4.6194   -4.9905    0.0000 C   0  0  1  0  0  0  0  0  0  0  0  0
    5.3289   -5.4116    0.0000 C   0  0  1  0  0  0  0  0  0  0  0  0
    3.1708   -6.6232    0.0000 O   0  0  0  0  0  0  0  0  0  0  0  0
    3.1906   -4.9734    0.0000 O   0  0  0  0  0  0  0  0  0  0  0  0
    4.6293   -4.1656    0.0000 O   0  0  0  0  0  0  0  0  0  0  0  0
    6.0483   -5.0077    0.0000 C   0  0  0  0  0  0  0  0  0  0  0  0
    6.0582   -4.1827    0.0000 O   0  0  0  0  0  0  0  0  0  0  0  0
  1  2  1  0  0  0  0
  2  3  1  0  0  0  0
  3  4  1  0  0  0  0
  4  5  1  0  0  0  0
  5  6  1  0  0  0  0
  1  6  1  0  0  0  0
  3  7  1  6  0  0  0
  4  8  1  6  0  0  0
  5  9  1  1  0  0  0
  6 10  1  6  0  0  0
 12 13  1  0  0  0  0
 13 14  1  0  0  0  0
 14 15  1  0  0  0  0
 15 16  1  0  0  0  0
 16 17  1  0  0  0  0
 12 17  1  0  0  0  0
 17 18  1  1  0  0  0
 16 19  1  6  0  0  0
 14 20  1  6  0  0  0
 22 23  1  0  0  0  0
 23 24  1  0  0  0  0
 24 25  1  0  0  0  0
 25 26  1  0  0  0  0
 26 27  1  0  0  0  0
 27 28  1  0  0  0  0
 28 29  1  0  0  0  0
 29 30  1  0  0  0  0
 30 31  1  0  0  0  0
 31 32  1  0  0  0  0
 32 33  1  0  0  0  0
 33 34  1  0  0  0  0
 34 35  1  0  0  0  0
 35 36  1  0  0  0  0
 36 37  1  0  0  0  0
 37 38  1  0  0  0  0
 33 38  1  0  0  0  0
 38 39  2  0  0  0  0
 30 39  1  0  0  0  0
 39 40  1  0  0  0  0
 40 41  2  0  0  0  0
 41 42  1  0  0  0  0
 29 42  1  0  0  0  0
 42 43  1  0  0  0  0
 26 43  1  0  0  0  0
 22 43  1  0  0  0  0
 43 44  1  1  0  0  0
 36 45  1  1  0  0  0
 36 46  1  6  0  0  0
 30 47  1  6  0  0  0
 29 48  1  1  0  0  0
 25 49  1  1  0  0  0
 50 51  1  0  0  0  0
 33 50  1  1  0  0  0
 25 52  1  6  0  0  0
 32 53  1  6  0  0  0
 24 21  1  1  0  0  0
 13 21  1  1  0  0  0
 15 11  1  1  0  0  0
 26 54  1  6  0  0  0
 42 55  1  6  0  0  0
 18 56  1  0  0  0  0
 57 58  1  0  0  0  0
 58 59  1  0  0  0  0
 59 60  1  0  0  0  0
 60 61  1  0  0  0  0
 61 62  1  0  0  0  0
 57 62  1  0  0  0  0
 59 63  1  6  0  0  0
 60 64  1  1  0  0  0
 61 65  1  6  0  0  0
 66 67  1  0  0  0  0
 62 66  1  1  0  0  0
 58 56  1  1  0  0  0
  2 19  1  1  0  0  0
M  END
>  <cdx:fragmentId>
139393

$$$$
