441913.cdx
  Mrv1902 05222410252D          

 26 27  0  0  0  0            999 V2000
    6.5290   -8.2412    0.0000 C   0  0  0  0  0  0  0  0  0  0  0  0
    5.8146   -7.8287    0.0000 C   0  0  0  0  0  0  0  0  0  0  0  0
    5.1001   -8.2412    0.0000 C   0  0  0  0  0  0  0  0  0  0  0  0
    6.5290   -9.0662    0.0000 O   0  0  0  0  0  0  0  0  0  0  0  0
    7.2435   -7.8287    0.0000 O   0  0  0  0  0  0  0  0  0  0  0  0
    4.3856   -7.8287    0.0000 C   0  0  0  0  0  0  0  0  0  0  0  0
    3.6711   -8.2412    0.0000 C   0  0  0  0  0  0  0  0  0  0  0  0
    2.9567   -7.8287    0.0000 C   0  0  0  0  0  0  0  0  0  0  0  0
    2.9567   -7.0037    0.0000 C   0  0  0  0  0  0  0  0  0  0  0  0
    3.6711   -6.5912    0.0000 C   0  0  0  0  0  0  0  0  0  0  0  0
    4.3856   -7.0037    0.0000 C   0  0  0  0  0  0  0  0  0  0  0  0
    2.2422   -8.2412    0.0000 O   0  0  0  0  0  0  0  0  0  0  0  0
    1.5277   -7.8287    0.0000 C   0  0  0  0  0  0  0  0  0  0  0  0
    2.2422   -6.5912    0.0000 O   0  0  0  0  0  0  0  0  0  0  0  0
    7.9580   -8.2412    0.0000 C   0  0  0  0  0  0  0  0  0  0  0  0
    8.6724   -7.8287    0.0000 C   0  0  0  0  0  0  0  0  0  0  0  0
    9.3869   -8.2412    0.0000 C   0  0  0  0  0  0  0  0  0  0  0  0
   10.1014   -7.8287    0.0000 C   0  0  0  0  0  0  0  0  0  0  0  0
   10.8159   -8.2412    0.0000 C   0  0  0  0  0  0  0  0  0  0  0  0
   11.5303   -7.8287    0.0000 C   0  0  0  0  0  0  0  0  0  0  0  0
   11.5303   -7.0037    0.0000 C   0  0  0  0  0  0  0  0  0  0  0  0
   10.8159   -6.5912    0.0000 C   0  0  0  0  0  0  0  0  0  0  0  0
   10.1014   -7.0037    0.0000 C   0  0  0  0  0  0  0  0  0  0  0  0
   12.2448   -8.2412    0.0000 O   0  0  0  0  0  0  0  0  0  0  0  0
   12.9593   -7.8287    0.0000 C   0  0  0  0  0  0  0  0  0  0  0  0
   12.2448   -6.5912    0.0000 O   0  0  0  0  0  0  0  0  0  0  0  0
  1  2  1  0  0  0  0
  2  3  2  0  0  0  0
  1  4  2  0  0  0  0
  1  5  1  0  0  0  0
  6  7  1  0  0  0  0
  7  8  2  0  0  0  0
  8  9  1  0  0  0  0
  9 10  2  0  0  0  0
 10 11  1  0  0  0  0
  6 11  2  0  0  0  0
 12 13  1  0  0  0  0
  8 12  1  0  0  0  0
  9 14  1  0  0  0  0
  3  6  1  0  0  0  0
 15 16  1  0  0  0  0
 16 17  2  0  0  0  0
 18 19  1  0  0  0  0
 19 20  2  0  0  0  0
 20 21  1  0  0  0  0
 21 22  2  0  0  0  0
 22 23  1  0  0  0  0
 18 23  2  0  0  0  0
 24 25  1  0  0  0  0
 20 24  1  0  0  0  0
 21 26  1  0  0  0  0
 17 18  1  0  0  0  0
  5 15  1  0  0  0  0
M  END
>  <cdx:fragmentId>
19351

$$$$
