441959.cdx
  Mrv1902 05222410282D          

 25 27  0  0  0  0            999 V2000
   10.1709   -6.3583    0.0000 C   0  0  0  0  0  0  0  0  0  0  0  0
   10.1709   -7.1833    0.0000 C   0  0  0  0  0  0  0  0  0  0  0  0
    9.4565   -7.5958    0.0000 C   0  0  0  0  0  0  0  0  0  0  0  0
    8.7420   -7.1833    0.0000 C   0  0  0  0  0  0  0  0  0  0  0  0
    8.7420   -6.3583    0.0000 C   0  0  0  0  0  0  0  0  0  0  0  0
    9.4565   -5.9458    0.0000 O   0  0  0  0  0  0  0  0  0  0  0  0
    8.0275   -5.9458    0.0000 C   0  0  0  0  0  0  0  0  0  0  0  0
    7.3130   -6.3583    0.0000 C   0  0  0  0  0  0  0  0  0  0  0  0
    7.3130   -7.1833    0.0000 C   0  0  0  0  0  0  0  0  0  0  0  0
    8.0275   -7.5958    0.0000 C   0  0  0  0  0  0  0  0  0  0  0  0
    9.4565   -8.4208    0.0000 O   0  0  0  0  0  0  0  0  0  0  0  0
   10.8854   -5.9458    0.0000 C   0  0  0  0  0  0  0  0  0  0  0  0
    6.5986   -5.9458    0.0000 O   0  0  0  0  0  0  0  0  0  0  0  0
    8.0275   -8.4208    0.0000 O   0  0  0  0  0  0  0  0  0  0  0  0
    6.5986   -7.5958    0.0000 C   0  0  1  0  0  0  0  0  0  0  0  0
    6.5986   -8.4208    0.0000 C   0  0  2  0  0  0  0  0  0  0  0  0
    7.3130   -8.8333    0.0000 O   0  0  0  0  0  0  0  0  0  0  0  0
    5.8841   -8.8333    0.0000 C   0  0  1  0  0  0  0  0  0  0  0  0
    5.8841   -9.6583    0.0000 O   0  0  0  0  0  0  0  0  0  0  0  0
    5.1696   -8.4208    0.0000 C   0  0  2  0  0  0  0  0  0  0  0  0
    4.4552   -8.8333    0.0000 O   0  0  0  0  0  0  0  0  0  0  0  0
    5.1696   -7.5958    0.0000 C   0  0  2  0  0  0  0  0  0  0  0  0
    5.8841   -7.1833    0.0000 O   0  0  0  0  0  0  0  0  0  0  0  0
    4.4552   -7.1833    0.0000 C   0  0  0  0  0  0  0  0  0  0  0  0
    3.7407   -7.5958    0.0000 O   0  0  0  0  0  0  0  0  0  0  0  0
  1  2  2  0  0  0  0
  2  3  1  0  0  0  0
  3  4  1  0  0  0  0
  4  5  1  0  0  0  0
  5  6  1  0  0  0  0
  1  6  1  0  0  0  0
  7  8  1  0  0  0  0
  8  9  2  0  0  0  0
  9 10  1  0  0  0  0
  4 10  2  0  0  0  0
  5  7  2  0  0  0  0
  3 11  2  0  0  0  0
  1 12  1  0  0  0  0
  8 13  1  0  0  0  0
 10 14  1  0  0  0  0
 15 16  1  0  0  0  0
 16 17  1  6  0  0  0
 16 18  1  0  0  0  0
 18 19  1  1  0  0  0
 18 20  1  0  0  0  0
 20 21  1  6  0  0  0
 20 22  1  0  0  0  0
 22 23  1  0  0  0  0
 22 24  1  1  0  0  0
 24 25  1  0  0  0  0
 15 23  1  0  0  0  0
 15  9  1  1  0  0  0
M  END
>  <cdx:fragmentId>
8942

$$$$
