441939.cdx
  Mrv1902 05222410252D          

 47 52  0  0  0  0            999 V2000
   19.7556   -9.3061    0.0000 C   0  0  0  0  0  0  0  0  0  0  0  0
   19.0411   -9.7186    0.0000 C   0  0  2  0  0  0  0  0  0  0  0  0
   19.7556  -10.1311    0.0000 C   0  0  0  0  0  0  0  0  0  0  0  0
   19.7556  -10.9561    0.0000 C   0  0  0  0  0  0  0  0  0  0  0  0
   19.0411  -11.3686    0.0000 C   0  0  2  0  0  0  0  0  0  0  0  0
   19.0411  -12.1936    0.0000 C   0  0  0  0  0  0  0  0  0  0  0  0
   18.3266  -12.6061    0.0000 C   0  0  0  0  0  0  0  0  0  0  0  0
   17.6122  -12.1936    0.0000 C   0  0  2  0  0  0  0  0  0  0  0  0
   17.6122  -11.3686    0.0000 C   0  0  0  0  0  0  0  0  0  0  0  0
   16.8977  -10.9561    0.0000 C   0  0  0  0  0  0  0  0  0  0  0  0
   16.1832  -11.3686    0.0000 C   0  0  0  0  0  0  0  0  0  0  0  0
   16.1832  -12.1936    0.0000 C   0  0  1  0  0  0  0  0  0  0  0  0
   16.8977  -12.6061    0.0000 C   0  0  1  0  0  0  0  0  0  0  0  0
   16.8977  -13.4311    0.0000 C   0  0  0  0  0  0  0  0  0  0  0  0
   16.1832  -13.8436    0.0000 C   0  0  0  0  0  0  0  0  0  0  0  0
   15.4688  -13.4311    0.0000 C   0  0  2  0  0  0  0  0  0  0  0  0
   15.4688  -12.6061    0.0000 C   0  0  2  0  0  0  0  0  0  0  0  0
   14.7543  -12.1936    0.0000 C   0  0  0  0  0  0  0  0  0  0  0  0
   14.0398  -12.6061    0.0000 C   0  0  1  0  0  0  0  0  0  0  0  0
   14.0398  -13.4311    0.0000 C   0  0  1  0  0  0  0  0  0  0  0  0
   14.7543  -13.8436    0.0000 C   0  0  2  0  0  0  0  0  0  0  0  0
   14.3418  -14.5581    0.0000 C   0  0  0  0  0  0  0  0  0  0  0  0
   15.1668  -14.5581    0.0000 C   0  0  0  0  0  0  0  0  0  0  0  0
   15.9918  -14.5581    0.0000 O   0  0  0  0  0  0  0  0  0  0  0  0
   13.3253  -13.8436    0.0000 O   0  0  0  0  0  0  0  0  0  0  0  0
   12.6109  -13.4311    0.0000 C   0  0  1  0  0  0  0  0  0  0  0  0
   11.8964  -13.8436    0.0000 C   0  0  1  0  0  0  0  0  0  0  0  0
   11.1819  -13.4311    0.0000 C   0  0  2  0  0  0  0  0  0  0  0  0
   11.1819  -12.6061    0.0000 C   0  0  1  0  0  0  0  0  0  0  0  0
   11.8964  -12.1936    0.0000 C   0  0  0  0  0  0  0  0  0  0  0  0
   12.6109  -12.6061    0.0000 O   0  0  0  0  0  0  0  0  0  0  0  0
   10.4675  -12.1936    0.0000 O   0  0  0  0  0  0  0  0  0  0  0  0
   10.4675  -13.8436    0.0000 O   0  0  0  0  0  0  0  0  0  0  0  0
   11.8964  -14.6686    0.0000 O   0  0  0  0  0  0  0  0  0  0  0  0
   13.3253  -12.1936    0.0000 O   0  0  0  0  0  0  0  0  0  0  0  0
   15.4688  -11.7811    0.0000 C   0  0  0  0  0  0  0  0  0  0  0  0
   16.8977  -11.7811    0.0000 C   0  0  0  0  0  0  0  0  0  0  0  0
   18.3266  -10.9561    0.0000 C   0  0  2  0  0  0  0  0  0  0  0  0
   18.3266  -10.1311    0.0000 C   0  0  0  0  0  0  0  0  0  0  0  0
   17.6122  -13.0186    0.0000 C   0  0  0  0  0  0  0  0  0  0  0  0
   19.7556  -11.7811    0.0000 C   0  0  0  0  0  0  0  0  0  0  0  0
   19.7556  -12.6061    0.0000 O   0  0  0  0  0  0  0  0  0  0  0  0
   20.4701  -11.3686    0.0000 O   0  0  0  0  0  0  0  0  0  0  0  0
   19.0411   -8.8936    0.0000 C   0  0  0  0  0  0  0  0  0  0  0  0
   18.3266   -8.4811    0.0000 O   0  0  0  0  0  0  0  0  0  0  0  0
   19.7556   -8.4811    0.0000 O   0  0  0  0  0  0  0  0  0  0  0  0
   19.7556   -7.6561    0.0000 C   0  0  0  0  0  0  0  0  0  0  0  0
  2  1  1  6  0  0  0
  2  3  1  0  0  0  0
  3  4  1  0  0  0  0
  4  5  1  0  0  0  0
  5  6  1  0  0  0  0
  6  7  1  0  0  0  0
  7  8  1  0  0  0  0
  8  9  1  0  0  0  0
  9 10  2  0  0  0  0
 10 11  1  0  0  0  0
 12 11  1  1  0  0  0
 12 13  1  0  0  0  0
  8 13  1  0  0  0  0
 13 14  1  0  0  0  0
 14 15  1  0  0  0  0
 16 15  1  1  0  0  0
 16 17  1  0  0  0  0
 12 17  1  0  0  0  0
 17 18  1  0  0  0  0
 18 19  1  0  0  0  0
 19 20  1  0  0  0  0
 20 21  1  0  0  0  0
 16 21  1  0  0  0  0
 21 22  1  1  0  0  0
 21 23  1  6  0  0  0
 23 24  1  0  0  0  0
 20 25  1  1  0  0  0
 26 25  1  1  0  0  0
 26 27  1  0  0  0  0
 27 28  1  0  0  0  0
 28 29  1  0  0  0  0
 29 30  1  0  0  0  0
 30 31  1  0  0  0  0
 26 31  1  0  0  0  0
 29 32  1  6  0  0  0
 28 33  1  1  0  0  0
 27 34  1  6  0  0  0
 19 35  1  1  0  0  0
 17 36  1  1  0  0  0
 13 37  1  1  0  0  0
  9 38  1  0  0  0  0
  5 38  1  0  0  0  0
 38 39  1  6  0  0  0
  2 39  1  0  0  0  0
  8 40  1  6  0  0  0
  5 41  1  1  0  0  0
 41 42  2  0  0  0  0
 41 43  1  0  0  0  0
  2 44  1  0  0  0  0
 44 45  2  0  0  0  0
 44 46  1  0  0  0  0
 46 47  1  0  0  0  0
M  END
>  <cdx:fragmentId>
8610

$$$$
