441960.cdx
  Mrv1902 05222410262D          

 23 25  0  0  0  0            999 V2000
    3.7806   -8.1310    0.0000 O   0  0  0  0  0  0  0  0  0  0  0  0
    4.4950   -8.5435    0.0000 C   0  0  0  0  0  0  0  0  0  0  0  0
   10.9869   -7.7185    0.0000 O   0  0  0  0  0  0  0  0  0  0  0  0
   10.1619   -6.8935    0.0000 C   0  0  0  0  0  0  0  0  0  0  0  0
   10.1619   -8.5435    0.0000 C   0  0  0  0  0  0  0  0  0  0  0  0
   10.1619   -7.7185    0.0000 C   0  0  0  0  0  0  0  0  0  0  0  0
    8.8520   -8.3860    0.0000 O   0  0  0  0  0  0  0  0  0  0  0  0
    9.3369   -7.7185    0.0000 C   0  0  1  0  0  0  0  0  0  0  0  0
    8.8520   -7.0511    0.0000 C   0  0  0  0  0  0  0  0  0  0  0  0
    8.0674   -5.6560    0.0000 C   0  0  0  0  0  0  0  0  0  0  0  0
    7.3529   -6.0685    0.0000 O   0  0  0  0  0  0  0  0  0  0  0  0
    5.9240   -6.0685    0.0000 O   0  0  0  0  0  0  0  0  0  0  0  0
    5.9240   -6.8935    0.0000 C   0  0  0  0  0  0  0  0  0  0  0  0
    5.2095   -7.3060    0.0000 C   0  0  0  0  0  0  0  0  0  0  0  0
    5.2095   -8.1310    0.0000 C   0  0  0  0  0  0  0  0  0  0  0  0
    5.9240   -8.5435    0.0000 O   0  0  0  0  0  0  0  0  0  0  0  0
    7.3529   -6.8935    0.0000 C   0  0  0  0  0  0  0  0  0  0  0  0
    6.6384   -7.3060    0.0000 C   0  0  0  0  0  0  0  0  0  0  0  0
    6.6384   -8.1310    0.0000 C   0  0  0  0  0  0  0  0  0  0  0  0
    7.3529   -8.5435    0.0000 C   0  0  0  0  0  0  0  0  0  0  0  0
    8.0674   -8.1310    0.0000 C   0  0  0  0  0  0  0  0  0  0  0  0
    8.0674   -7.3060    0.0000 C   0  0  0  0  0  0  0  0  0  0  0  0
    9.7494   -8.4330    0.0000 H   0  0  0  0  0  0  0  0  0  0  0  0
  2  1  1  0  0  0  0
 15  2  1  0  0  0  0
  6  3  1  0  0  0  0
  6  4  1  0  0  0  0
  6  5  1  0  0  0  0
  8  6  1  0  0  0  0
  7 21  1  0  0  0  0
  8  7  1  0  0  0  0
  9  8  1  0  0  0  0
 22  9  1  0  0  0  0
 11 10  1  0  0  0  0
 17 11  1  0  0  0  0
 13 12  2  0  0  0  0
 13 18  1  0  0  0  0
 14 13  1  0  0  0  0
 15 14  2  0  0  0  0
 16 15  1  0  0  0  0
 19 16  1  0  0  0  0
 17 22  2  0  0  0  0
 18 17  1  0  0  0  0
 19 18  2  0  0  0  0
 20 19  1  0  0  0  0
 21 20  2  0  0  0  0
 22 21  1  0  0  0  0
  8 23  1  6  0  0  0
M  END
>  <cdx:fragmentId>
8999

$$$$
