11000442.cdx
  Mrv1902 05222410262D          

 23 26  0  0  0  0            999 V2000
    5.9814  -12.7963    0.0000 C   0  0  1  0  0  0  0  0  0  0  0  0
    6.3939  -13.5108    0.0000 C   0  0  0  0  0  0  0  0  0  0  0  0
    7.2111  -13.6239    0.0000 C   0  0  0  0  0  0  0  0  0  0  0  0
    7.8021  -13.0482    0.0000 C   0  0  1  0  0  0  0  0  0  0  0  0
    8.5165  -13.4607    0.0000 C   0  0  1  0  0  0  0  0  0  0  0  0
    9.2310  -13.0482    0.0000 C   0  0  0  0  0  0  0  0  0  0  0  0
    9.2310  -12.2232    0.0000 C   0  0  0  0  0  0  0  0  0  0  0  0
    8.5165  -11.8107    0.0000 C   0  0  1  0  0  0  0  0  0  0  0  0
    8.5165  -10.9857    0.0000 C   0  0  0  0  0  0  0  0  0  0  0  0
    7.8021  -10.5732    0.0000 C   0  0  0  0  0  0  0  0  0  0  0  0
    7.0876  -10.9857    0.0000 O   0  0  0  0  0  0  0  0  0  0  0  0
    7.0876  -11.8107    0.0000 C   0  0  1  0  0  0  0  0  0  0  0  0
    7.8021  -12.2232    0.0000 C   0  0  1  0  0  0  0  0  0  0  0  0
    7.3839  -12.8368    0.0000 O   0  0  0  0  0  0  0  0  0  0  0  0
    6.6757  -13.0597    0.0000 O   0  0  0  0  0  0  0  0  0  0  0  0
    6.2921  -12.0321    0.0000 O   0  0  0  0  0  0  0  0  0  0  0  0
    7.8021   -9.7482    0.0000 O   0  0  0  0  0  0  0  0  0  0  0  0
    9.2310  -10.5732    0.0000 C   0  0  0  0  0  0  0  0  0  0  0  0
    8.5165  -14.2857    0.0000 C   0  0  0  0  0  0  0  0  0  0  0  0
    5.1564  -12.7963    0.0000 C   0  0  0  0  0  0  0  0  0  0  0  0
    7.9044  -13.8668    0.0000 H   0  0  0  0  0  0  0  0  0  0  0  0
    9.2310  -11.3982    0.0000 H   0  0  0  0  0  0  0  0  0  0  0  0
    6.4307  -11.3116    0.0000 H   0  0  0  0  0  0  0  0  0  0  0  0
  1  2  1  0  0  0  0
  2  3  1  0  0  0  0
  3  4  1  0  0  0  0
  4  5  1  0  0  0  0
  5  6  1  0  0  0  0
  6  7  1  0  0  0  0
  7  8  1  0  0  0  0
  8  9  1  0  0  0  0
  9 10  1  0  0  0  0
 10 11  1  0  0  0  0
 11 12  1  0  0  0  0
 12 13  1  0  0  0  0
 13 14  1  1  0  0  0
 14 15  1  0  0  0  0
  1 15  1  1  0  0  0
  1 16  1  0  0  0  0
 16 12  1  0  0  0  0
  8 13  1  0  0  0  0
  4 13  1  0  0  0  0
 10 17  2  0  0  0  0
  9 18  2  0  0  0  0
  5 19  1  1  0  0  0
  1 20  1  0  0  0  0
  4 21  1  1  0  0  0
  8 22  1  1  0  0  0
 12 23  1  6  0  0  0
M  END
>  <cdx:groupId>
64592

>  <cdx:fragmentId>
64523

$$$$
