442083.cdx
  Mrv1902 05222410202D          

 35 38  0  0  0  0            999 V2000
   16.1295   -9.4342    0.0000 C   0  0  0  0  0  0  0  0  0  0  0  0
   16.5420   -8.7197    0.0000 C   0  0  0  0  0  0  0  0  0  0  0  0
   15.3045   -9.4342    0.0000 O   0  0  0  0  0  0  0  0  0  0  0  0
   16.5420  -10.1486    0.0000 O   0  0  0  0  0  0  0  0  0  0  0  0
   14.7901  -11.5081    0.0000 C   0  0  1  0  0  0  0  0  0  0  0  0
   15.3045  -10.8631    0.0000 C   0  0  0  0  0  0  0  0  0  0  0  0
   16.1295  -10.8631    0.0000 C   0  0  2  0  0  0  0  0  0  0  0  0
   16.6439  -11.5081    0.0000 C   0  0  2  0  0  0  0  0  0  0  0  0
   17.4655  -11.4342    0.0000 C   0  0  0  0  0  0  0  0  0  0  0  0
   17.7898  -12.1928    0.0000 C   0  0  2  0  0  0  0  0  0  0  0  0
   17.1685  -12.7356    0.0000 C   0  0  0  0  0  0  0  0  0  0  0  0
   16.4603  -12.3124    0.0000 C   0  0  1  0  0  0  0  0  0  0  0  0
   15.7170  -12.6704    0.0000 C   0  0  2  0  0  0  0  0  0  0  0  0
   14.9737  -12.3124    0.0000 C   0  0  2  0  0  0  0  0  0  0  0  0
   14.4593  -12.9575    0.0000 C   0  0  0  0  0  0  0  0  0  0  0  0
   13.6343  -12.9575    0.0000 C   0  0  0  0  0  0  0  0  0  0  0  0
   13.1199  -12.3124    0.0000 C   0  0  1  0  0  0  0  0  0  0  0  0
   13.3035  -11.5081    0.0000 C   0  0  2  0  0  0  0  0  0  0  0  0
   14.0468  -11.1502    0.0000 C   0  0  0  0  0  0  0  0  0  0  0  0
   13.7787  -11.5944    0.0000 C   0  0  1  0  0  0  0  0  0  0  0  0
   13.0021  -10.7402    0.0000 C   0  0  0  0  0  0  0  0  0  0  0  0
   15.4348  -13.4456    0.0000 C   0  0  0  0  0  0  0  0  0  0  0  0
   17.4655  -10.6092    0.0000 C   0  0  0  0  0  0  0  0  0  0  0  0
   18.1800  -11.0217    0.0000 C   0  0  0  0  0  0  0  0  0  0  0  0
   12.4877  -11.3852    0.0000 O   0  0  0  0  0  0  0  0  0  0  0  0
   16.1902  -13.3462    0.0000 O   0  0  0  0  0  0  0  0  0  0  0  0
   18.5941  -12.3764    0.0000 O   0  0  0  0  0  0  0  0  0  0  0  0
   16.9681  -10.7495    0.0000 O   0  0  0  0  0  0  0  0  0  0  0  0
   13.2724  -10.1878    0.0000 O   0  0  0  0  0  0  0  0  0  0  0  0
   12.4600  -10.0445    0.0000 C   0  0  0  0  0  0  0  0  0  0  0  0
   11.9297  -10.6765    0.0000 O   0  0  0  0  0  0  0  0  0  0  0  0
   12.1778   -9.2693    0.0000 C   0  0  0  0  0  0  0  0  0  0  0  0
   15.8153  -11.7981    0.0000 H   0  0  0  0  0  0  0  0  0  0  0  0
   15.0148  -13.1364    0.0000 H   0  0  0  0  0  0  0  0  0  0  0  0
   12.3156  -12.4960    0.0000 H   0  0  0  0  0  0  0  0  0  0  0  0
  1  2  1  0  0  0  0
  1  3  2  0  0  0  0
  1  4  1  0  0  0  0
  5  6  1  0  0  0  0
  6  7  1  0  0  0  0
  7  8  1  0  0  0  0
  8  9  1  0  0  0  0
  9 10  1  0  0  0  0
 10 11  1  0  0  0  0
 11 12  1  0  0  0  0
 12 13  1  0  0  0  0
 13 14  1  0  0  0  0
 14 15  1  0  0  0  0
 15 16  1  0  0  0  0
 16 17  1  0  0  0  0
 17 18  1  0  0  0  0
 18 19  1  0  0  0  0
  5 19  1  1  0  0  0
  5 20  1  0  0  0  0
 20 17  1  0  0  0  0
  5 14  1  0  0  0  0
  8 12  1  0  0  0  0
 18 21  1  1  0  0  0
 13 22  1  1  0  0  0
  9 23  1  0  0  0  0
  9 24  1  0  0  0  0
 18 25  1  6  0  0  0
 13 26  1  6  0  0  0
 10 27  1  1  0  0  0
  8 28  1  1  0  0  0
 30 31  2  0  0  0  0
 30 32  1  0  0  0  0
 29 30  1  0  0  0  0
 20 29  1  1  0  0  0
  7  4  1  1  0  0  0
 12 33  1  6  0  0  0
 14 34  1  1  0  0  0
 17 35  1  6  0  0  0
M  END
>  <cdx:groupId>
9352

>  <cdx:fragmentId>
9255

$$$$
