442027.cdx
  Mrv1902 05222410202D          

 22 24  0  0  0  0            999 V2000
    6.1519   -9.3700    0.0000 C   0  0  0  0  0  0  0  0  0  0  0  0
    5.7394   -8.6555    0.0000 C   0  0  1  0  0  0  0  0  0  0  0  0
    5.3269   -9.3700    0.0000 C   0  0  0  0  0  0  0  0  0  0  0  0
    6.4538   -8.2430    0.0000 C   0  0  1  0  0  0  0  0  0  0  0  0
    6.4538   -9.0680    0.0000 H   0  0  0  0  0  0  0  0  0  0  0  0
    6.4538   -7.4180    0.0000 C   0  0  1  0  0  0  0  0  0  0  0  0
    7.1683   -7.0055    0.0000 C   0  0  0  0  0  0  0  0  0  0  0  0
    7.1683   -6.1805    0.0000 C   0  0  0  0  0  0  0  0  0  0  0  0
    7.8828   -5.7680    0.0000 C   0  0  0  0  0  0  0  0  0  0  0  0
    8.5973   -6.1805    0.0000 C   0  0  0  0  0  0  0  0  0  0  0  0
    9.3117   -5.7680    0.0000 C   0  0  0  0  0  0  0  0  0  0  0  0
    9.3117   -4.9430    0.0000 C   0  0  0  0  0  0  0  0  0  0  0  0
   10.0262   -6.1805    0.0000 C   0  0  0  0  0  0  0  0  0  0  0  0
    8.5973   -7.0055    0.0000 C   0  0  0  0  0  0  0  0  0  0  0  0
    7.8828   -7.4180    0.0000 C   0  0  0  0  0  0  0  0  0  0  0  0
    7.8828   -8.2430    0.0000 C   0  0  0  0  0  0  0  0  0  0  0  0
    7.1683   -8.6555    0.0000 C   0  0  0  0  0  0  0  0  0  0  0  0
    5.7394   -7.0055    0.0000 C   0  0  0  0  0  0  0  0  0  0  0  0
    5.0249   -7.4180    0.0000 C   0  0  0  0  0  0  0  0  0  0  0  0
    5.0249   -8.2430    0.0000 C   0  0  0  0  0  0  0  0  0  0  0  0
    6.4538   -6.5930    0.0000 C   0  0  0  0  0  0  0  0  0  0  0  0
    7.8828   -4.9430    0.0000 O   0  0  0  0  0  0  0  0  0  0  0  0
  2  1  1  6  0  0  0
  2  3  1  1  0  0  0
  2  4  1  0  0  0  0
  4  5  1  6  0  0  0
  4  6  1  0  0  0  0
  6  7  1  0  0  0  0
  7  8  1  0  0  0  0
  8  9  2  0  0  0  0
  9 10  1  0  0  0  0
 10 11  1  0  0  0  0
 11 12  1  0  0  0  0
 11 13  1  0  0  0  0
 10 14  2  0  0  0  0
  7 15  2  0  0  0  0
 14 15  1  0  0  0  0
 15 16  1  0  0  0  0
 16 17  1  0  0  0  0
  4 17  1  0  0  0  0
  6 18  1  0  0  0  0
 18 19  1  0  0  0  0
 19 20  1  0  0  0  0
  2 20  1  0  0  0  0
  6 21  1  1  0  0  0
  9 22  1  0  0  0  0
M  END
>  <cdx:groupId>
9237

>  <cdx:fragmentId>
9170

$$$$
