442126.cdx
  Mrv1902 05222410192D          

 24 26  0  0  0  0            999 V2000
    6.0622   -7.2796    0.0000 C   0  0  0  0  0  0  0  0  0  0  0  0
    6.0622   -8.9296    0.0000 C   0  0  0  0  0  0  0  0  0  0  0  0
    6.7767   -7.6921    0.0000 C   0  0  0  0  0  0  0  0  0  0  0  0
    6.7767   -8.5171    0.0000 C   0  0  0  0  0  0  0  0  0  0  0  0
    7.4912   -8.9296    0.0000 C   0  0  0  0  0  0  0  0  0  0  0  0
    8.2056   -8.5171    0.0000 C   0  0  1  0  0  0  0  0  0  0  0  0
    8.2056   -7.6921    0.0000 C   0  0  0  0  0  0  0  0  0  0  0  0
    7.4912   -7.2796    0.0000 O   0  0  0  0  0  0  0  0  0  0  0  0
    5.3478   -8.5171    0.0000 C   0  0  0  0  0  0  0  0  0  0  0  0
    5.3478   -7.6921    0.0000 C   0  0  0  0  0  0  0  0  0  0  0  0
    4.6333   -7.2796    0.0000 O   0  0  0  0  0  0  0  0  0  0  0  0
    3.9188   -7.6921    0.0000 C   0  0  0  0  0  0  0  0  0  0  0  0
    3.9188   -8.5171    0.0000 C   0  0  0  0  0  0  0  0  0  0  0  0
    4.6333   -8.9296    0.0000 C   0  0  0  0  0  0  0  0  0  0  0  0
    3.2044   -7.2796    0.0000 O   0  0  0  0  0  0  0  0  0  0  0  0
    8.9201   -8.9296    0.0000 O   0  0  0  0  0  0  0  0  0  0  0  0
    8.9201   -9.7546    0.0000 C   0  0  0  0  0  0  0  0  0  0  0  0
    9.6346  -10.1671    0.0000 C   0  0  0  0  0  0  0  0  0  0  0  0
    8.2056  -10.1671    0.0000 O   0  0  0  0  0  0  0  0  0  0  0  0
    9.6346  -10.9921    0.0000 C   0  0  0  0  0  0  0  0  0  0  0  0
   10.3491  -11.4046    0.0000 C   0  0  0  0  0  0  0  0  0  0  0  0
    8.9201  -11.4046    0.0000 C   0  0  0  0  0  0  0  0  0  0  0  0
    8.7890   -7.1087    0.0000 C   0  0  0  0  0  0  0  0  0  0  0  0
    9.0025   -7.9056    0.0000 C   0  0  0  0  0  0  0  0  0  0  0  0
  3  1  1  0  0  0  0
  3  4  2  0  0  0  0
  9 14  1  0  0  0  0
 10 11  1  0  0  0  0
 11 12  1  0  0  0  0
 12 13  1  0  0  0  0
 13 14  2  0  0  0  0
  3  8  1  0  0  0  0
 12 15  2  0  0  0  0
  4  5  1  0  0  0  0
  6 16  1  1  0  0  0
  5  6  1  0  0  0  0
 16 17  1  0  0  0  0
  6  7  1  0  0  0  0
 17 18  1  0  0  0  0
  7  8  1  0  0  0  0
 17 19  2  0  0  0  0
  9 10  1  0  0  0  0
 18 20  2  0  0  0  0
  1 10  2  0  0  0  0
 20 21  1  0  0  0  0
 20 22  1  0  0  0  0
  9  2  2  0  0  0  0
  7 23  1  0  0  0  0
  2  4  1  0  0  0  0
  7 24  1  0  0  0  0
M  END
>  <cdx:fragmentId>
9416

$$$$
