442173.cdx
  Mrv1902 05222410232D          

 18 20  0  0  0  0            999 V2000
    7.3786   -9.0882    0.0000 C   0  0  0  0  0  0  0  0  0  0  0  0
    7.8635   -8.4208    0.0000 C   0  0  1  0  0  0  0  0  0  0  0  0
    7.3786   -7.7533    0.0000 C   0  0  0  0  0  0  0  0  0  0  0  0
    6.5940   -8.0083    0.0000 C   0  0  1  0  0  0  0  0  0  0  0  0
    5.8795   -7.5958    0.0000 C   0  0  0  0  0  0  0  0  0  0  0  0
    5.1650   -8.0083    0.0000 C   0  0  0  0  0  0  0  0  0  0  0  0
    5.1650   -8.8333    0.0000 C   0  0  0  0  0  0  0  0  0  0  0  0
    5.8795   -9.2458    0.0000 C   0  0  1  0  0  0  0  0  0  0  0  0
    6.5940   -8.8333    0.0000 C   0  0  1  0  0  0  0  0  0  0  0  0
    9.1331   -8.0083    0.0000 O   0  0  0  0  0  0  0  0  0  0  0  0
    8.3484   -7.7533    0.0000 C   0  0  0  0  0  0  0  0  0  0  0  0
    8.3484   -9.0882    0.0000 C   0  0  0  0  0  0  0  0  0  0  0  0
    9.1331   -8.8333    0.0000 C   0  0  0  0  0  0  0  0  0  0  0  0
    8.0935   -6.9687    0.0000 O   0  0  0  0  0  0  0  0  0  0  0  0
    8.0935   -9.8728    0.0000 C   0  0  0  0  0  0  0  0  0  0  0  0
    6.6802   -9.6537    0.0000 C   0  0  0  0  0  0  0  0  0  0  0  0
    5.8795  -10.0708    0.0000 C   0  0  0  0  0  0  0  0  0  0  0  0
    6.6802   -7.1878    0.0000 H   0  0  0  0  0  0  0  0  0  0  0  0
  1  2  1  0  0  0  0
  2  3  1  0  0  0  0
  3  4  1  0  0  0  0
  4  5  1  0  0  0  0
  5  6  1  0  0  0  0
  6  7  1  0  0  0  0
  7  8  1  0  0  0  0
  8  9  1  0  0  0  0
  1  9  1  0  0  0  0
  4  9  1  0  0  0  0
 10 11  1  0  0  0  0
 12 13  1  0  0  0  0
 10 13  1  0  0  0  0
  2 11  1  1  0  0  0
  2 12  1  6  0  0  0
 11 14  2  0  0  0  0
 12 15  2  0  0  0  0
  9 16  1  1  0  0  0
  8 17  1  1  0  0  0
  4 18  1  1  0  0  0
M  END
>  <cdx:fragmentId>
5

$$$$
