442180.cdx
  Mrv1902 05222410232D          

 26 30  0  0  0  0            999 V2000
    7.8765   -8.4540    0.0000 C   0  0  0  0  0  0  0  0  0  0  0  0
    8.5910   -8.0415    0.0000 C   0  0  0  0  0  0  0  0  0  0  0  0
    8.5910   -7.2165    0.0000 C   0  0  0  0  0  0  0  0  0  0  0  0
    9.3054   -6.8040    0.0000 C   0  0  0  0  0  0  0  0  0  0  0  0
    9.4770   -5.9971    0.0000 O   0  0  0  0  0  0  0  0  0  0  0  0
   10.2974   -5.9108    0.0000 C   0  0  0  0  0  0  0  0  0  0  0  0
   10.6330   -6.6645    0.0000 O   0  0  0  0  0  0  0  0  0  0  0  0
   10.0199   -7.2165    0.0000 C   0  0  0  0  0  0  0  0  0  0  0  0
   10.0199   -8.0415    0.0000 C   0  0  0  0  0  0  0  0  0  0  0  0
    9.3054   -8.4540    0.0000 C   0  0  0  0  0  0  0  0  0  0  0  0
    9.3054   -9.2790    0.0000 C   0  0  0  0  0  0  0  0  0  0  0  0
    8.5910   -9.6915    0.0000 C   0  0  0  0  0  0  0  0  0  0  0  0
    7.8765   -9.2790    0.0000 N   0  3  0  0  0  0  0  0  0  0  0  0
    7.1620   -9.6915    0.0000 C   0  0  0  0  0  0  0  0  0  0  0  0
    6.4476   -9.2790    0.0000 C   0  0  0  0  0  0  0  0  0  0  0  0
    5.7331   -9.6915    0.0000 C   0  0  0  0  0  0  0  0  0  0  0  0
    5.0186   -9.2790    0.0000 C   0  0  0  0  0  0  0  0  0  0  0  0
    5.0186   -8.4540    0.0000 C   0  0  0  0  0  0  0  0  0  0  0  0
    5.7331   -8.0415    0.0000 C   0  0  0  0  0  0  0  0  0  0  0  0
    6.4476   -8.4540    0.0000 C   0  0  0  0  0  0  0  0  0  0  0  0
    7.1620   -8.0415    0.0000 C   0  0  0  0  0  0  0  0  0  0  0  0
   10.0199   -9.6915    0.0000 O   0  0  0  0  0  0  0  0  0  0  0  0
    4.3041   -9.6915    0.0000 O   0  0  0  0  0  0  0  0  0  0  0  0
    3.5897   -9.2790    0.0000 C   0  0  0  0  0  0  0  0  0  0  0  0
    5.7331  -10.5165    0.0000 O   0  0  0  0  0  0  0  0  0  0  0  0
    5.0186  -10.9290    0.0000 C   0  0  0  0  0  0  0  0  0  0  0  0
  1  2  1  0  0  0  0
  2  3  2  0  0  0  0
  3  4  1  0  0  0  0
  4  5  1  0  0  0  0
  5  6  1  0  0  0  0
  6  7  1  0  0  0  0
  7  8  1  0  0  0  0
  8  9  1  0  0  0  0
  9 10  2  0  0  0  0
 10 11  1  0  0  0  0
 11 12  1  0  0  0  0
 12 13  1  0  0  0  0
 13 14  1  0  0  0  0
 14 15  2  0  0  0  0
 15 16  1  0  0  0  0
 16 17  2  0  0  0  0
 17 18  1  0  0  0  0
 18 19  2  0  0  0  0
 19 20  1  0  0  0  0
 20 21  2  0  0  0  0
  1 21  1  0  0  0  0
  1 13  2  0  0  0  0
 15 20  1  0  0  0  0
  2 10  1  0  0  0  0
  4  8  2  0  0  0  0
 11 22  1  0  0  0  0
 23 24  1  0  0  0  0
 17 23  1  0  0  0  0
 25 26  1  0  0  0  0
 16 25  1  0  0  0  0
M  CHG  1  13   1
M  END
>  <cdx:fragmentId>
9725

$$$$
