442196.cdx
  Mrv1902 05222410222D          

 20 22  0  0  0  0            999 V2000
    8.3993   -8.2203    0.0000 C   0  0  0  0  0  0  0  0  0  0  0  0
    7.5745   -8.2050    0.0000 C   0  0  1  0  0  0  0  0  0  0  0  0
    7.0482   -8.8403    0.0000 C   0  0  0  0  0  0  0  0  0  0  0  0
    7.2167   -9.6479    0.0000 C   0  0  0  0  0  0  0  0  0  0  0  0
    7.9532  -10.0196    0.0000 C   0  0  0  0  0  0  0  0  0  0  0  0
    8.7031   -9.6756    0.0000 C   0  0  0  0  0  0  0  0  0  0  0  0
    8.9016   -8.8748    0.0000 C   0  0  1  0  0  0  0  0  0  0  0  0
    7.9378  -10.8445    0.0000 C   0  0  0  0  0  0  0  0  0  0  0  0
    6.2280   -8.7510    0.0000 C   0  0  0  0  0  0  0  0  0  0  0  0
    5.8897   -9.5034    0.0000 C   0  0  0  0  0  0  0  0  0  0  0  0
    6.5007  -10.0577    0.0000 C   0  0  0  0  0  0  0  0  0  0  0  0
    6.4115  -10.8779    0.0000 O   0  0  0  0  0  0  0  0  0  0  0  0
    5.8181   -8.0350    0.0000 C   0  0  0  0  0  0  0  0  0  0  0  0
    4.9933   -8.0196    0.0000 O   0  0  0  0  0  0  0  0  0  0  0  0
    8.6689   -7.4406    0.0000 C   0  0  0  0  0  0  0  0  0  0  0  0
    8.0106   -6.9433    0.0000 C   0  0  0  0  0  0  0  0  0  0  0  0
    7.3342   -7.4157    0.0000 O   0  0  0  0  0  0  0  0  0  0  0  0
    8.0260   -6.1185    0.0000 O   0  0  0  0  0  0  0  0  0  0  0  0
    9.7092   -8.7063    0.0000 H   0  0  0  0  0  0  0  0  0  0  0  0
    9.4581   -7.2003    0.0000 C   0  0  0  0  0  0  0  0  0  0  0  0
  1  2  1  0  0  0  0
  2  3  1  0  0  0  0
  4  5  2  0  0  0  0
  5  6  1  0  0  0  0
  6  7  1  0  0  0  0
  7  1  1  0  0  0  0
  5  8  1  0  0  0  0
  3  9  1  0  0  0  0
  9 10  2  0  0  0  0
 10 11  1  0  0  0  0
 11  4  1  0  0  0  0
 11 12  2  0  0  0  0
  9 13  1  0  0  0  0
 13 14  1  0  0  0  0
 15 16  1  0  0  0  0
 16 17  1  0  0  0  0
 16 18  2  0  0  0  0
  7 19  1  1  0  0  0
 15 20  2  0  0  0  0
 15  1  1  0  0  0  0
  2 17  1  1  0  0  0
  3  4  1  0  0  0  0
M  END
>  <cdx:fragmentId>
5

$$$$
