442169.cdx
  Mrv1902 05222410222D          

 23 25  0  0  0  0            999 V2000
   17.6551   -9.6445    0.0000 C   0  0  0  0  0  0  0  0  0  0  0  0
   17.6551  -10.4696    0.0000 C   0  0  0  0  0  0  0  0  0  0  0  0
   16.9407  -10.8821    0.0000 C   0  0  0  0  0  0  0  0  0  0  0  0
   16.2262  -10.4696    0.0000 C   0  0  0  0  0  0  0  0  0  0  0  0
   16.2262   -9.6445    0.0000 C   0  0  0  0  0  0  0  0  0  0  0  0
   16.9407   -9.2320    0.0000 C   0  0  0  0  0  0  0  0  0  0  0  0
   18.3696   -9.2320    0.0000 O   0  0  0  0  0  0  0  0  0  0  0  0
   15.5117  -10.8821    0.0000 C   0  0  0  0  0  0  0  0  0  0  0  0
   15.5117  -11.7071    0.0000 C   0  0  1  0  0  0  0  0  0  0  0  0
   16.2262  -12.1196    0.0000 N   0  0  0  0  0  0  0  0  0  0  0  0
   16.2262  -12.9446    0.0000 C   0  0  0  0  0  0  0  0  0  0  0  0
   15.5117  -13.3571    0.0000 C   0  0  0  0  0  0  0  0  0  0  0  0
   14.7972  -12.9446    0.0000 C   0  0  0  0  0  0  0  0  0  0  0  0
   14.0827  -13.3571    0.0000 C   0  0  0  0  0  0  0  0  0  0  0  0
   13.3682  -12.9446    0.0000 C   0  0  0  0  0  0  0  0  0  0  0  0
   13.3682  -12.1196    0.0000 C   0  0  0  0  0  0  0  0  0  0  0  0
   14.0827  -11.7071    0.0000 C   0  0  0  0  0  0  0  0  0  0  0  0
   14.7972  -12.1196    0.0000 C   0  0  0  0  0  0  0  0  0  0  0  0
   16.9407  -11.7071    0.0000 C   0  0  0  0  0  0  0  0  0  0  0  0
   12.6537  -11.7071    0.0000 O   0  0  0  0  0  0  0  0  0  0  0  0
   11.9393  -12.1196    0.0000 C   0  0  0  0  0  0  0  0  0  0  0  0
   12.6537  -13.3571    0.0000 O   0  0  0  0  0  0  0  0  0  0  0  0
   11.9393  -12.9446    0.0000 C   0  0  0  0  0  0  0  0  0  0  0  0
  1  2  1  0  0  0  0
  2  3  2  0  0  0  0
  3  4  1  0  0  0  0
  4  5  2  0  0  0  0
  5  6  1  0  0  0  0
  1  6  2  0  0  0  0
  1  7  1  0  0  0  0
  9 10  1  0  0  0  0
 10 11  1  0  0  0  0
 11 12  1  0  0  0  0
 12 13  1  0  0  0  0
 13 14  1  0  0  0  0
 14 15  2  0  0  0  0
 15 16  1  0  0  0  0
 16 17  2  0  0  0  0
 17 18  1  0  0  0  0
  9 18  1  0  0  0  0
 13 18  2  0  0  0  0
 10 19  1  0  0  0  0
 20 21  1  0  0  0  0
 16 20  1  0  0  0  0
 22 23  1  0  0  0  0
 15 22  1  0  0  0  0
  9  8  1  1  0  0  0
  4  8  1  0  0  0  0
M  END
>  <cdx:fragmentId>
9625

$$$$
