442195.cdx
  Mrv1902 05222410222D          

 35 39  0  0  0  0            999 V2000
   12.2536  -10.5742    0.0000 C   0  0  0  0  0  0  0  0  0  0  0  0
   12.9681  -10.9867    0.0000 C   0  0  0  0  0  0  0  0  0  0  0  0
   13.6825  -10.5742    0.0000 C   0  0  0  0  0  0  0  0  0  0  0  0
   13.6825   -9.7492    0.0000 C   0  0  0  0  0  0  0  0  0  0  0  0
   12.9681   -9.3367    0.0000 C   0  0  0  0  0  0  0  0  0  0  0  0
   12.2536   -9.7492    0.0000 C   0  0  0  0  0  0  0  0  0  0  0  0
   14.3970  -10.9867    0.0000 C   0  0  2  0  0  0  0  0  0  0  0  0
   15.1115  -10.5742    0.0000 N   0  0  0  0  0  0  0  0  0  0  0  0
   15.1115   -9.7492    0.0000 C   0  0  0  0  0  0  0  0  0  0  0  0
   14.3970   -9.3367    0.0000 C   0  0  0  0  0  0  0  0  0  0  0  0
   11.5391   -9.3367    0.0000 O   0  0  0  0  0  0  0  0  0  0  0  0
   11.5391  -10.9867    0.0000 O   0  0  0  0  0  0  0  0  0  0  0  0
   10.8246  -10.5742    0.0000 C   0  0  0  0  0  0  0  0  0  0  0  0
   14.3970  -11.8117    0.0000 C   0  0  0  0  0  0  0  0  0  0  0  0
   15.1115  -12.2242    0.0000 C   0  0  0  0  0  0  0  0  0  0  0  0
   15.1115  -13.0493    0.0000 C   0  0  2  0  0  0  0  0  0  0  0  0
   15.8260  -13.4618    0.0000 C   0  0  0  0  0  0  0  0  0  0  0  0
   16.5405  -13.0493    0.0000 N   0  0  0  0  0  0  0  0  0  0  0  0
   16.5405  -12.2242    0.0000 C   0  0  1  0  0  0  0  0  0  0  0  0
   15.8260  -11.8117    0.0000 C   0  0  0  0  0  0  0  0  0  0  0  0
   17.2549  -13.4618    0.0000 C   0  0  0  0  0  0  0  0  0  0  0  0
   17.9694  -13.0493    0.0000 C   0  0  0  0  0  0  0  0  0  0  0  0
   17.9694  -12.2242    0.0000 C   0  0  0  0  0  0  0  0  0  0  0  0
   17.2549  -11.8117    0.0000 C   0  0  0  0  0  0  0  0  0  0  0  0
   18.6839  -11.8117    0.0000 C   0  0  0  0  0  0  0  0  0  0  0  0
   18.6839  -10.9867    0.0000 C   0  0  0  0  0  0  0  0  0  0  0  0
   17.9694  -10.5742    0.0000 C   0  0  0  0  0  0  0  0  0  0  0  0
   17.2549  -10.9867    0.0000 C   0  0  0  0  0  0  0  0  0  0  0  0
   14.3970  -13.4618    0.0000 C   0  0  0  0  0  0  0  0  0  0  0  0
   16.5405  -11.3992    0.0000 H   0  0  0  0  0  0  0  0  0  0  0  0
   13.6825  -13.0493    0.0000 C   0  0  0  0  0  0  0  0  0  0  0  0
   17.9694   -9.7492    0.0000 O   0  0  0  0  0  0  0  0  0  0  0  0
   17.2549   -9.3367    0.0000 C   0  0  0  0  0  0  0  0  0  0  0  0
   19.3984  -10.5742    0.0000 O   0  0  0  0  0  0  0  0  0  0  0  0
   20.1129  -10.9867    0.0000 C   0  0  0  0  0  0  0  0  0  0  0  0
  1  2  2  0  0  0  0
  2  3  1  0  0  0  0
  3  4  2  0  0  0  0
  4  5  1  0  0  0  0
  5  6  2  0  0  0  0
  6  1  1  0  0  0  0
  3  7  1  0  0  0  0
  7  8  1  0  0  0  0
  8  9  1  0  0  0  0
  9 10  1  0  0  0  0
 10  4  1  0  0  0  0
  6 11  1  0  0  0  0
  1 12  1  0  0  0  0
 12 13  1  0  0  0  0
  7 14  1  6  0  0  0
 14 15  1  0  0  0  0
 15 16  1  0  0  0  0
 16 17  1  0  0  0  0
 17 18  1  0  0  0  0
 18 19  1  0  0  0  0
 19 20  1  0  0  0  0
 20 15  1  0  0  0  0
 18 21  1  0  0  0  0
 21 22  1  0  0  0  0
 22 23  1  0  0  0  0
 23 24  2  0  0  0  0
 24 19  1  0  0  0  0
 23 25  1  0  0  0  0
 25 26  2  0  0  0  0
 26 27  1  0  0  0  0
 27 28  2  0  0  0  0
 28 24  1  0  0  0  0
 16 29  1  6  0  0  0
 19 30  1  6  0  0  0
 29 31  1  0  0  0  0
 27 32  1  0  0  0  0
 32 33  1  0  0  0  0
 26 34  1  0  0  0  0
 34 35  1  0  0  0  0
M  END
>  <cdx:fragmentId>
9813

$$$$
