442266.cdx
  Mrv1902 05222410262D          

 23 25  0  0  0  0            999 V2000
    7.3703   -5.5057    0.0000 O   0  0  0  0  0  0  0  0  0  0  0  0
    7.6117   -6.2946    0.0000 C   0  0  1  0  0  0  0  0  0  0  0  0
    8.4366   -6.3088    0.0000 C   0  0  2  0  0  0  0  0  0  0  0  0
    8.7050   -5.5287    0.0000 C   0  0  0  0  0  0  0  0  0  0  0  0
    8.0460   -5.0324    0.0000 C   0  0  0  0  0  0  0  0  0  0  0  0
    6.5405   -8.1489    0.0000 C   0  0  0  0  0  0  0  0  0  0  0  0
    5.9287   -7.5954    0.0000 C   0  0  0  0  0  0  0  0  0  0  0  0
    6.2660   -6.8425    0.0000 C   0  0  0  0  0  0  0  0  0  0  0  0
    7.0863   -6.9307    0.0000 C   0  0  1  0  0  0  0  0  0  0  0  0
    8.9398   -6.9626    0.0000 C   0  0  2  0  0  0  0  0  0  0  0  0
    8.7423   -7.7637    0.0000 C   0  0  0  0  0  0  0  0  0  0  0  0
    7.9930   -8.1087    0.0000 C   0  0  0  0  0  0  0  0  0  0  0  0
    7.2559   -7.7380    0.0000 C   0  0  0  0  0  0  0  0  0  0  0  0
    8.0603   -4.2075    0.0000 O   0  0  0  0  0  0  0  0  0  0  0  0
    6.4524   -8.9692    0.0000 O   0  0  0  0  0  0  0  0  0  0  0  0
    9.4939   -5.2874    0.0000 C   0  0  0  0  0  0  0  0  0  0  0  0
    7.9787   -8.9336    0.0000 C   0  0  0  0  0  0  0  0  0  0  0  0
    5.8551   -6.1271    0.0000 C   0  0  0  0  0  0  0  0  0  0  0  0
    5.0301   -6.1252    0.0000 O   0  0  0  0  0  0  0  0  0  0  0  0
    9.7471   -6.7930    0.0000 O   0  0  0  0  0  0  0  0  0  0  0  0
    9.2439   -6.1392    0.0000 H   0  0  0  0  0  0  0  0  0  0  0  0
    6.9166   -6.1233    0.0000 H   0  0  0  0  0  0  0  0  0  0  0  0
    7.7814   -7.1020    0.0000 H   0  0  0  0  0  0  0  0  0  0  0  0
  1  2  1  0  0  0  0
  2  3  1  0  0  0  0
  3  4  1  0  0  0  0
  4  5  1  0  0  0  0
  1  5  1  0  0  0  0
  6  7  1  0  0  0  0
  7  8  2  0  0  0  0
  8  9  1  0  0  0  0
 10 11  1  0  0  0  0
 11 12  1  0  0  0  0
 12 13  2  0  0  0  0
  6 13  1  0  0  0  0
  9 13  1  0  0  0  0
  9  2  1  0  0  0  0
 10  3  1  0  0  0  0
  5 14  2  0  0  0  0
  6 15  2  0  0  0  0
  4 16  2  0  0  0  0
 12 17  1  0  0  0  0
 18 19  1  0  0  0  0
  8 18  1  0  0  0  0
 10 20  1  1  0  0  0
  3 21  1  1  0  0  0
  9 22  1  1  0  0  0
  2 23  1  6  0  0  0
M  END
>  <cdx:fragmentId>
23

$$$$
