442396.cdx
  Mrv1902 05222410232D          

 22 24  0  0  0  0            999 V2000
    7.7822   -6.8469    0.0000 C   0  0  2  0  0  0  0  0  0  0  0  0
    7.7822   -6.0219    0.0000 C   0  0  0  0  0  0  0  0  0  0  0  0
    7.0678   -5.6094    0.0000 C   0  0  0  0  0  0  0  0  0  0  0  0
    6.3533   -6.0219    0.0000 C   0  0  0  0  0  0  0  0  0  0  0  0
    5.6388   -5.6094    0.0000 C   0  0  0  0  0  0  0  0  0  0  0  0
    4.9244   -6.0219    0.0000 C   0  0  0  0  0  0  0  0  0  0  0  0
    4.9244   -6.8469    0.0000 C   0  0  0  0  0  0  0  0  0  0  0  0
    5.6388   -7.2594    0.0000 C   0  0  0  0  0  0  0  0  0  0  0  0
    6.3533   -6.8469    0.0000 C   0  0  0  0  0  0  0  0  0  0  0  0
    7.0678   -7.2594    0.0000 O   0  0  0  0  0  0  0  0  0  0  0  0
    7.0678   -4.7844    0.0000 O   0  0  0  0  0  0  0  0  0  0  0  0
    5.6388   -8.0844    0.0000 C   0  0  0  0  0  0  0  0  0  0  0  0
    4.2099   -5.6094    0.0000 C   0  0  0  0  0  0  0  0  0  0  0  0
    8.4967   -7.2594    0.0000 C   0  0  0  0  0  0  0  0  0  0  0  0
    9.2112   -6.8469    0.0000 C   0  0  0  0  0  0  0  0  0  0  0  0
    9.9256   -7.2594    0.0000 C   0  0  0  0  0  0  0  0  0  0  0  0
    9.9256   -8.0844    0.0000 C   0  0  0  0  0  0  0  0  0  0  0  0
    9.2112   -8.4969    0.0000 C   0  0  0  0  0  0  0  0  0  0  0  0
    8.4967   -8.0844    0.0000 C   0  0  0  0  0  0  0  0  0  0  0  0
   10.6401   -8.4969    0.0000 O   0  0  0  0  0  0  0  0  0  0  0  0
    4.2099   -7.2594    0.0000 O   0  0  0  0  0  0  0  0  0  0  0  0
    5.6388   -4.7844    0.0000 O   0  0  0  0  0  0  0  0  0  0  0  0
  1  2  1  0  0  0  0
  2  3  1  0  0  0  0
  3  4  1  0  0  0  0
  4  5  1  0  0  0  0
  5  6  2  0  0  0  0
  6  7  1  0  0  0  0
  7  8  2  0  0  0  0
  8  9  1  0  0  0  0
  4  9  2  0  0  0  0
  9 10  1  0  0  0  0
  1 10  1  0  0  0  0
  3 11  2  0  0  0  0
  8 12  1  0  0  0  0
  6 13  1  0  0  0  0
 14 15  1  0  0  0  0
 15 16  2  0  0  0  0
 16 17  1  0  0  0  0
 17 18  2  0  0  0  0
 18 19  1  0  0  0  0
 14 19  2  0  0  0  0
 17 20  1  0  0  0  0
  1 14  1  1  0  0  0
  7 21  1  0  0  0  0
  5 22  1  0  0  0  0
M  END
>  <cdx:groupId>
70

>  <cdx:fragmentId>
5

$$$$
