442342.cdx
  Mrv1902 05222410222D          

 19 20  0  0  0  0            999 V2000
   12.6109  -11.2946    0.0000 C   0  0  0  0  0  0  0  0  0  0  0  0
   12.6109  -12.1196    0.0000 C   0  0  0  0  0  0  0  0  0  0  0  0
   13.3254  -12.5321    0.0000 C   0  0  0  0  0  0  0  0  0  0  0  0
   14.0398  -12.1196    0.0000 C   0  0  0  0  0  0  0  0  0  0  0  0
   14.0398  -11.2946    0.0000 C   0  0  0  0  0  0  0  0  0  0  0  0
   13.3254  -10.8821    0.0000 C   0  0  0  0  0  0  0  0  0  0  0  0
   11.8964  -12.5321    0.0000 O   0  0  0  0  0  0  0  0  0  0  0  0
   14.7543  -10.8821    0.0000 C   0  0  0  0  0  0  0  0  0  0  0  0
   15.4688  -11.2946    0.0000 C   0  0  0  0  0  0  0  0  0  0  0  0
   16.1832  -10.8821    0.0000 C   0  0  0  0  0  0  0  0  0  0  0  0
   16.1832  -10.0571    0.0000 O   0  0  0  0  0  0  0  0  0  0  0  0
   16.8977  -11.2946    0.0000 C   0  0  0  0  0  0  0  0  0  0  0  0
   16.8977  -12.1196    0.0000 C   0  0  0  0  0  0  0  0  0  0  0  0
   17.6122  -12.5321    0.0000 C   0  0  0  0  0  0  0  0  0  0  0  0
   18.3266  -12.1196    0.0000 C   0  0  0  0  0  0  0  0  0  0  0  0
   18.3266  -11.2946    0.0000 C   0  0  0  0  0  0  0  0  0  0  0  0
   17.6122  -10.8821    0.0000 C   0  0  0  0  0  0  0  0  0  0  0  0
   17.6122  -10.0571    0.0000 O   0  0  0  0  0  0  0  0  0  0  0  0
   19.0411  -12.5321    0.0000 O   0  0  0  0  0  0  0  0  0  0  0  0
  4  5  1  0  0  0  0
  9 10  1  0  0  0  0
  2  3  1  0  0  0  0
 10 11  2  0  0  0  0
  5  6  2  0  0  0  0
 10 12  1  0  0  0  0
  6  1  1  0  0  0  0
 12 13  2  0  0  0  0
  1  2  2  0  0  0  0
 13 14  1  0  0  0  0
  2  7  1  0  0  0  0
 14 15  2  0  0  0  0
  3  4  2  0  0  0  0
 15 16  1  0  0  0  0
  5  8  1  0  0  0  0
 16 17  2  0  0  0  0
 17 12  1  0  0  0  0
 17 18  1  0  0  0  0
  8  9  1  0  0  0  0
 15 19  1  0  0  0  0
M  END
>  <cdx:fragmentId>
9970

$$$$
