442363.cdx
  Mrv1902 05222410252D          

 17 19  0  0  0  0            999 V2000
   15.8598  -10.9603    0.0000 C   0  0  2  0  0  0  0  0  0  0  0  0
   16.6445  -10.7054    0.0000 C   0  0  2  0  0  0  0  0  0  0  0  0
   17.1294  -11.3728    0.0000 C   0  0  0  0  0  0  0  0  0  0  0  0
   16.6445  -12.0403    0.0000 C   0  0  0  0  0  0  0  0  0  0  0  0
   15.8598  -11.7853    0.0000 C   0  0  2  0  0  0  0  0  0  0  0  0
   15.2148  -12.2997    0.0000 C   0  0  0  0  0  0  0  0  0  0  0  0
   14.4105  -12.1161    0.0000 C   0  0  1  0  0  0  0  0  0  0  0  0
   14.0526  -11.3728    0.0000 C   0  0  2  0  0  0  0  0  0  0  0  0
   14.4105  -10.6295    0.0000 C   0  0  0  0  0  0  0  0  0  0  0  0
   15.2148  -10.4459    0.0000 C   0  0  0  0  0  0  0  0  0  0  0  0
   15.0743  -11.6880    0.0000 O   0  0  0  0  0  0  0  0  0  0  0  0
   13.8961  -12.7611    0.0000 O   0  0  0  0  0  0  0  0  0  0  0  0
   16.3474   -9.3077    0.0000 C   0  0  0  0  0  0  0  0  0  0  0  0
   16.8994   -9.9208    0.0000 C   0  0  0  0  0  0  0  0  0  0  0  0
   17.7064   -9.7492    0.0000 C   0  0  0  0  0  0  0  0  0  0  0  0
   13.2276  -11.3728    0.0000 C   0  0  0  0  0  0  0  0  0  0  0  0
   16.0072  -12.5971    0.0000 C   0  0  0  0  0  0  0  0  0  0  0  0
  1  2  1  0  0  0  0
  2  3  1  0  0  0  0
  3  4  1  0  0  0  0
  4  5  1  0  0  0  0
  5  6  1  0  0  0  0
  6  7  1  0  0  0  0
  7  8  1  0  0  0  0
  8  9  1  0  0  0  0
  9 10  1  0  0  0  0
  1 10  1  0  0  0  0
  1 11  1  1  0  0  0
  8 11  1  1  0  0  0
  1  5  1  0  0  0  0
  7 12  1  6  0  0  0
 13 14  1  0  0  0  0
 14 15  1  0  0  0  0
  2 14  1  1  0  0  0
  8 16  1  0  0  0  0
  5 17  1  1  0  0  0
M  END
>  <cdx:groupId>
10156

>  <cdx:fragmentId>
10106

$$$$
