442347.cdx
  Mrv1902 05222410222D          

 16 17  0  0  0  0            999 V2000
    5.6926   -6.1497    0.0000 C   0  0  0  0  0  0  0  0  0  0  0  0
    6.5176   -6.1497    0.0000 C   0  0  0  0  0  0  0  0  0  0  0  0
    6.8755   -5.4064    0.0000 C   0  0  0  0  0  0  0  0  0  0  0  0
    7.6798   -5.2229    0.0000 C   0  0  0  0  0  0  0  0  0  0  0  0
    8.3248   -5.7372    0.0000 C   0  0  0  0  0  0  0  0  0  0  0  0
    9.1095   -5.4823    0.0000 C   0  0  0  0  0  0  0  0  0  0  0  0
    9.5944   -6.1497    0.0000 C   0  0  0  0  0  0  0  0  0  0  0  0
    9.1095   -6.8172    0.0000 C   0  0  0  0  0  0  0  0  0  0  0  0
    8.3248   -6.5622    0.0000 C   0  0  0  0  0  0  0  0  0  0  0  0
    7.6798   -7.0766    0.0000 C   0  0  0  0  0  0  0  0  0  0  0  0
    6.8755   -6.8930    0.0000 C   0  0  0  0  0  0  0  0  0  0  0  0
    8.4722   -7.3740    0.0000 O   0  0  0  0  0  0  0  0  0  0  0  0
    9.3644   -7.6018    0.0000 C   0  0  0  0  0  0  0  0  0  0  0  0
    8.8124   -8.2149    0.0000 C   0  0  0  0  0  0  0  0  0  0  0  0
   10.1714   -7.7733    0.0000 C   0  0  0  0  0  0  0  0  0  0  0  0
    8.4722   -4.9255    0.0000 C   0  0  0  0  0  0  0  0  0  0  0  0
  1  2  1  0  0  0  0
  2  3  2  0  0  0  0
  3  4  1  0  0  0  0
  4  5  1  0  0  0  0
  5  6  1  0  0  0  0
  6  7  1  0  0  0  0
  7  8  1  0  0  0  0
  8  9  1  0  0  0  0
  5  9  1  0  0  0  0
  9 10  1  0  0  0  0
 10 11  1  0  0  0  0
  2 11  1  0  0  0  0
  9 12  1  0  0  0  0
  8 13  1  0  0  0  0
 13 14  1  0  0  0  0
 13 15  1  0  0  0  0
  5 16  1  0  0  0  0
M  END
>  <cdx:fragmentId>
10015

$$$$
