442399.cdx
  Mrv1902 05222410242D          

 16 17  0  0  0  0            999 V2000
    7.3646   -5.2525    0.0000 C   0  0  0  0  0  0  0  0  0  0  0  0
    7.3354   -8.1103    0.0000 C   0  0  0  0  0  0  0  0  0  0  0  0
   10.0463   -6.1471    0.0000 C   0  0  0  0  0  0  0  0  0  0  0  0
    9.2961   -5.8038    0.0000 C   0  0  0  0  0  0  0  0  0  0  0  0
    9.2182   -4.9825    0.0000 C   0  0  0  0  0  0  0  0  0  0  0  0
    4.8751   -6.6561    0.0000 O   0  0  0  0  0  0  0  0  0  0  0  0
    6.9302   -7.3916    0.0000 C   0  0  2  0  0  0  0  0  0  0  0  0
    6.1053   -7.3832    0.0000 C   0  0  0  0  0  0  0  0  0  0  0  0
    5.7001   -6.6645    0.0000 C   0  0  0  0  0  0  0  0  0  0  0  0
    6.1199   -5.9543    0.0000 C   0  0  0  0  0  0  0  0  0  0  0  0
    6.9448   -5.9628    0.0000 C   0  0  0  0  0  0  0  0  0  0  0  0
    7.3500   -6.6814    0.0000 C   0  0  1  0  0  0  0  0  0  0  0  0
    7.8417   -6.0190    0.0000 C   0  0  0  0  0  0  0  0  0  0  0  0
    8.6237   -6.2819    0.0000 C   0  0  1  0  0  0  0  0  0  0  0  0
    8.6153   -7.1069    0.0000 C   0  0  0  0  0  0  0  0  0  0  0  0
    7.8281   -7.3538    0.0000 C   0  0  0  0  0  0  0  0  0  0  0  0
 11  1  1  0  0  0  0
  7  2  1  6  0  0  0
 14  4  1  6  0  0  0
  4  3  1  0  0  0  0
  5  4  2  0  0  0  0
  9  6  2  0  0  0  0
  7 12  1  0  0  0  0
 12 16  1  0  0  0  0
  8  7  1  0  0  0  0
  9  8  1  0  0  0  0
 10  9  1  0  0  0  0
 11 10  2  0  0  0  0
 12 11  1  0  0  0  0
 12 13  1  1  0  0  0
 14 13  1  0  0  0  0
 15 14  1  0  0  0  0
 16 15  1  0  0  0  0
M  END
>  <cdx:fragmentId>
10166

$$$$
