442431.cdx
  Mrv1902 05222410222D          

 41 45  0  0  0  0            999 V2000
    8.7758  -10.4679    0.0000 O   0  0  0  0  0  0  0  0  0  0  0  0
   13.7771   -6.7554    0.0000 O   0  0  0  0  0  0  0  0  0  0  0  0
   11.6337   -7.1679    0.0000 C   0  0  0  0  0  0  0  0  0  0  0  0
   12.3482   -6.7554    0.0000 C   0  0  0  0  0  0  0  0  0  0  0  0
   13.0627   -7.1679    0.0000 C   0  0  0  0  0  0  0  0  0  0  0  0
   13.0627   -7.9929    0.0000 C   0  0  0  0  0  0  0  0  0  0  0  0
   12.3482   -8.4054    0.0000 C   0  0  0  0  0  0  0  0  0  0  0  0
   11.6337   -7.9929    0.0000 C   0  0  0  0  0  0  0  0  0  0  0  0
    7.3469   -9.6429    0.0000 O   0  0  0  0  0  0  0  0  0  0  0  0
    5.9180  -10.4679    0.0000 O   0  0  0  0  0  0  0  0  0  0  0  0
    4.4890   -9.6429    0.0000 O   0  0  0  0  0  0  0  0  0  0  0  0
    3.7745   -6.7554    0.0000 O   0  0  0  0  0  0  0  0  0  0  0  0
    2.3456   -5.9304    0.0000 O   0  0  0  0  0  0  0  0  0  0  0  0
    0.9167   -6.7554    0.0000 O   0  0  0  0  0  0  0  0  0  0  0  0
    0.9167   -8.4054    0.0000 C   0  0  0  0  0  0  0  0  0  0  0  0
    1.6311   -7.9929    0.0000 C   0  0  1  0  0  0  0  0  0  0  0  0
    1.6311   -7.1679    0.0000 C   0  0  1  0  0  0  0  0  0  0  0  0
    2.3456   -6.7554    0.0000 C   0  0  2  0  0  0  0  0  0  0  0  0
    3.0601   -7.1679    0.0000 C   0  0  2  0  0  0  0  0  0  0  0  0
    3.0601   -7.9929    0.0000 C   0  0  1  0  0  0  0  0  0  0  0  0
    2.3456   -8.4054    0.0000 O   0  0  0  0  0  0  0  0  0  0  0  0
    3.7745   -8.4054    0.0000 O   0  0  0  0  0  0  0  0  0  0  0  0
    4.4890   -7.9929    0.0000 C   0  0  0  0  0  0  0  0  0  0  0  0
    5.2035   -8.4054    0.0000 C   0  0  2  0  0  0  0  0  0  0  0  0
    5.2035   -9.2304    0.0000 C   0  0  2  0  0  0  0  0  0  0  0  0
    5.9180   -9.6429    0.0000 C   0  0  1  0  0  0  0  0  0  0  0  0
    6.6324   -9.2304    0.0000 C   0  0  2  0  0  0  0  0  0  0  0  0
    6.6324   -8.4054    0.0000 C   0  0  1  0  0  0  0  0  0  0  0  0
    5.9180   -7.9929    0.0000 O   0  0  0  0  0  0  0  0  0  0  0  0
    7.3469   -7.9929    0.0000 O   0  0  0  0  0  0  0  0  0  0  0  0
   10.2048  -10.4679    0.0000 O   0  0  0  0  0  0  0  0  0  0  0  0
   10.2048   -7.9929    0.0000 O   0  0  0  0  0  0  0  0  0  0  0  0
    9.4903   -8.4054    0.0000 C   0  0  0  0  0  0  0  0  0  0  0  0
    8.7758   -7.9929    0.0000 C   0  0  0  0  0  0  0  0  0  0  0  0
    8.0614   -8.4054    0.0000 C   0  0  0  0  0  0  0  0  0  0  0  0
    8.0614   -9.2304    0.0000 C   0  0  0  0  0  0  0  0  0  0  0  0
    8.7758   -9.6429    0.0000 C   0  0  0  0  0  0  0  0  0  0  0  0
    9.4903   -9.2304    0.0000 C   0  0  0  0  0  0  0  0  0  0  0  0
   10.2048   -9.6429    0.0000 C   0  0  0  0  0  0  0  0  0  0  0  0
   10.9193   -9.2304    0.0000 C   0  0  0  0  0  0  0  0  0  0  0  0
   10.9193   -8.4054    0.0000 C   0  0  1  0  0  0  0  0  0  0  0  0
 37  1  1  0  0  0  0
 41  8  1  6  0  0  0
  5  2  1  0  0  0  0
  8  3  2  0  0  0  0
  4  3  1  0  0  0  0
  5  4  2  0  0  0  0
  6  5  1  0  0  0  0
  7  6  2  0  0  0  0
  8  7  1  0  0  0  0
 35 30  1  0  0  0  0
 28 30  1  1  0  0  0
 27  9  1  6  0  0  0
 26 10  1  1  0  0  0
 25 11  1  6  0  0  0
 24 23  1  1  0  0  0
 23 22  1  0  0  0  0
 20 22  1  6  0  0  0
 19 12  1  1  0  0  0
 18 13  1  1  0  0  0
 17 14  1  6  0  0  0
 16 15  1  1  0  0  0
 21 16  1  0  0  0  0
 17 16  1  0  0  0  0
 18 17  1  0  0  0  0
 19 18  1  0  0  0  0
 20 19  1  0  0  0  0
 21 20  1  0  0  0  0
 29 24  1  0  0  0  0
 25 24  1  0  0  0  0
 26 25  1  0  0  0  0
 27 26  1  0  0  0  0
 28 27  1  0  0  0  0
 29 28  1  0  0  0  0
 39 31  2  0  0  0  0
 41 32  1  0  0  0  0
 33 32  1  0  0  0  0
 38 33  2  0  0  0  0
 34 33  1  0  0  0  0
 35 34  2  0  0  0  0
 36 35  1  0  0  0  0
 37 36  2  0  0  0  0
 38 37  1  0  0  0  0
 39 38  1  0  0  0  0
 40 39  1  0  0  0  0
 41 40  1  0  0  0  0
M  END
>  <cdx:fragmentId>
45

$$$$
