442423.cdx
  Mrv1902 05222410202D          

 30 32  0  0  0  0            999 V2000
    7.7628   -6.4707    0.0000 C   0  0  1  0  0  0  0  0  0  0  0  0
    8.4772   -6.0582    0.0000 C   0  0  1  0  0  0  0  0  0  0  0  0
    8.4772   -5.2332    0.0000 C   0  0  1  0  0  0  0  0  0  0  0  0
    7.7628   -4.8207    0.0000 C   0  0  0  0  0  0  0  0  0  0  0  0
    7.0483   -5.2332    0.0000 C   0  0  0  0  0  0  0  0  0  0  0  0
    7.0483   -6.0582    0.0000 O   0  0  0  0  0  0  0  0  0  0  0  0
    9.2619   -4.9783    0.0000 C   0  0  0  0  0  0  0  0  0  0  0  0
    9.7468   -5.6457    0.0000 C   0  0  0  0  0  0  0  0  0  0  0  0
    9.2619   -6.3132    0.0000 C   0  0  1  0  0  0  0  0  0  0  0  0
    7.7628   -3.9957    0.0000 C   0  0  0  0  0  0  0  0  0  0  0  0
    8.4772   -3.5832    0.0000 O   0  0  0  0  0  0  0  0  0  0  0  0
    7.0483   -3.5832    0.0000 O   0  0  0  0  0  0  0  0  0  0  0  0
    7.7628   -7.2957    0.0000 O   0  0  0  0  0  0  0  0  0  0  0  0
    6.3338   -7.2957    0.0000 O   0  0  0  0  0  0  0  0  0  0  0  0
    7.0483   -7.7082    0.0000 C   0  0  2  0  0  0  0  0  0  0  0  0
    7.0483   -8.5332    0.0000 C   0  0  1  0  0  0  0  0  0  0  0  0
    6.3338   -8.9457    0.0000 C   0  0  2  0  0  0  0  0  0  0  0  0
    5.6194   -8.5332    0.0000 C   0  0  1  0  0  0  0  0  0  0  0  0
    5.6194   -7.7082    0.0000 C   0  0  1  0  0  0  0  0  0  0  0  0
    4.9049   -7.2957    0.0000 C   0  0  0  0  0  0  0  0  0  0  0  0
    4.1904   -7.7082    0.0000 O   0  0  0  0  0  0  0  0  0  0  0  0
    4.9049   -8.9457    0.0000 O   0  0  0  0  0  0  0  0  0  0  0  0
    6.3338   -9.7707    0.0000 O   0  0  0  0  0  0  0  0  0  0  0  0
    7.7628   -8.9457    0.0000 O   0  0  0  0  0  0  0  0  0  0  0  0
    9.8750   -6.8652    0.0000 C   0  0  0  0  0  0  0  0  0  0  0  0
   10.6596   -6.6103    0.0000 O   0  0  0  0  0  0  0  0  0  0  0  0
    9.0903   -7.1202    0.0000 O   0  0  0  0  0  0  0  0  0  0  0  0
    8.5635   -4.4128    0.0000 H   0  0  0  0  0  0  0  0  0  0  0  0
    8.5635   -6.8787    0.0000 H   0  0  0  0  0  0  0  0  0  0  0  0
    7.0483   -2.7582    0.0000 C   0  0  0  0  0  0  0  0  0  0  0  0
  1  2  1  0  0  0  0
  2  3  1  0  0  0  0
  3  4  1  0  0  0  0
  4  5  2  0  0  0  0
  5  6  1  0  0  0  0
  1  6  1  0  0  0  0
  7  8  2  0  0  0  0
  8  9  1  0  0  0  0
  9  2  1  0  0  0  0
  7  3  1  0  0  0  0
 10 11  2  0  0  0  0
 10 12  1  0  0  0  0
  4 10  1  0  0  0  0
 14 15  1  0  0  0  0
 15 16  1  0  0  0  0
 16 17  1  0  0  0  0
 17 18  1  0  0  0  0
 18 19  1  0  0  0  0
 14 19  1  0  0  0  0
 20 21  1  0  0  0  0
 19 20  1  1  0  0  0
 18 22  1  6  0  0  0
 17 23  1  1  0  0  0
 16 24  1  6  0  0  0
 15 13  1  1  0  0  0
  1 13  1  6  0  0  0
 25 26  1  0  0  0  0
  9 25  1  1  0  0  0
  9 27  1  6  0  0  0
  3 28  1  6  0  0  0
  2 29  1  6  0  0  0
 12 30  1  0  0  0  0
M  END
>  <cdx:groupId>
94

>  <cdx:fragmentId>
5

$$$$
