442424.cdx
  Mrv1902 05222410222D          

 18 19  0  0  0  0            999 V2000
    7.5625   -8.7171    0.0000 C   0  0  1  0  0  0  0  0  0  0  0  0
    8.2770   -8.3046    0.0000 C   0  0  1  0  0  0  0  0  0  0  0  0
    8.2770   -7.4796    0.0000 C   0  0  1  0  0  0  0  0  0  0  0  0
    7.5625   -7.0671    0.0000 C   0  0  0  0  0  0  0  0  0  0  0  0
    6.8480   -7.4796    0.0000 C   0  0  0  0  0  0  0  0  0  0  0  0
    6.8480   -8.3046    0.0000 O   0  0  0  0  0  0  0  0  0  0  0  0
    9.0616   -7.2247    0.0000 C   0  0  0  0  0  0  0  0  0  0  0  0
    9.5465   -7.8921    0.0000 C   0  0  0  0  0  0  0  0  0  0  0  0
    9.0616   -8.5596    0.0000 C   0  0  0  0  0  0  0  0  0  0  0  0
    7.5625   -6.2421    0.0000 C   0  0  0  0  0  0  0  0  0  0  0  0
    8.2770   -5.8296    0.0000 O   0  0  0  0  0  0  0  0  0  0  0  0
    6.8480   -5.8296    0.0000 O   0  0  0  0  0  0  0  0  0  0  0  0
    7.5625   -9.5421    0.0000 O   0  0  0  0  0  0  0  0  0  0  0  0
    9.3165   -9.3442    0.0000 C   0  0  0  0  0  0  0  0  0  0  0  0
   10.1235   -9.5157    0.0000 O   0  0  0  0  0  0  0  0  0  0  0  0
    8.3632   -6.6591    0.0000 H   0  0  0  0  0  0  0  0  0  0  0  0
    8.3632   -9.1251    0.0000 H   0  0  0  0  0  0  0  0  0  0  0  0
    6.8480   -5.0046    0.0000 C   0  0  0  0  0  0  0  0  0  0  0  0
  1  2  1  0  0  0  0
  2  3  1  0  0  0  0
  3  4  1  0  0  0  0
  4  5  2  0  0  0  0
  5  6  1  0  0  0  0
  1  6  1  0  0  0  0
  7  8  1  0  0  0  0
  8  9  2  0  0  0  0
  2  9  1  0  0  0  0
  3  7  1  0  0  0  0
 10 11  2  0  0  0  0
 10 12  1  0  0  0  0
  4 10  1  0  0  0  0
  1 13  1  6  0  0  0
 14 15  1  0  0  0  0
  9 14  1  0  0  0  0
  3 16  1  6  0  0  0
  2 17  1  6  0  0  0
 12 18  1  0  0  0  0
M  END
>  <cdx:fragmentId>
5002

$$$$
