442411.cdx
  Mrv1902 05222410252D          

 25 27  0  0  0  0            999 V2000
   17.2506  -11.6055    0.0000 C   0  0  2  0  0  0  0  0  0  0  0  0
   17.2506  -10.7805    0.0000 C   0  0  2  0  0  0  0  0  0  0  0  0
   16.5362  -10.3680    0.0000 C   0  0  0  0  0  0  0  0  0  0  0  0
   15.8217  -10.7805    0.0000 C   0  0  0  0  0  0  0  0  0  0  0  0
   15.8217  -11.6055    0.0000 C   0  0  0  0  0  0  0  0  0  0  0  0
   16.5362  -12.0180    0.0000 O   0  0  0  0  0  0  0  0  0  0  0  0
   15.1072  -12.0180    0.0000 C   0  0  0  0  0  0  0  0  0  0  0  0
   14.3927  -11.6055    0.0000 C   0  0  0  0  0  0  0  0  0  0  0  0
   14.3927  -10.7805    0.0000 C   0  0  0  0  0  0  0  0  0  0  0  0
   15.1072  -10.3680    0.0000 C   0  0  0  0  0  0  0  0  0  0  0  0
   16.5362   -9.5430    0.0000 O   0  0  0  0  0  0  0  0  0  0  0  0
   17.9651  -12.0180    0.0000 C   0  0  0  0  0  0  0  0  0  0  0  0
   18.6795  -11.6055    0.0000 C   0  0  0  0  0  0  0  0  0  0  0  0
   19.3940  -12.0180    0.0000 C   0  0  0  0  0  0  0  0  0  0  0  0
   19.3940  -12.8430    0.0000 C   0  0  0  0  0  0  0  0  0  0  0  0
   18.6795  -13.2555    0.0000 C   0  0  0  0  0  0  0  0  0  0  0  0
   17.9651  -12.8430    0.0000 C   0  0  0  0  0  0  0  0  0  0  0  0
   13.6783  -10.3680    0.0000 C   0  0  0  0  0  0  0  0  0  0  0  0
   12.9638  -10.7805    0.0000 C   0  0  0  0  0  0  0  0  0  0  0  0
   12.2493  -10.3680    0.0000 C   0  0  0  0  0  0  0  0  0  0  0  0
   12.2493   -9.5430    0.0000 C   0  0  0  0  0  0  0  0  0  0  0  0
   11.5349  -10.7805    0.0000 C   0  0  0  0  0  0  0  0  0  0  0  0
   13.6783  -12.0180    0.0000 O   0  0  0  0  0  0  0  0  0  0  0  0
   15.1072   -9.5430    0.0000 O   0  0  0  0  0  0  0  0  0  0  0  0
   17.9651  -10.3680    0.0000 O   0  0  0  0  0  0  0  0  0  0  0  0
  1  2  1  0  0  0  0
  2  3  1  0  0  0  0
  3  4  1  0  0  0  0
  4  5  1  0  0  0  0
  5  6  1  0  0  0  0
  1  6  1  0  0  0  0
  7  8  1  0  0  0  0
  8  9  2  0  0  0  0
  9 10  1  0  0  0  0
 10  4  2  0  0  0  0
  7  5  2  0  0  0  0
  3 11  2  0  0  0  0
 12 13  1  0  0  0  0
 13 14  2  0  0  0  0
 14 15  1  0  0  0  0
 15 16  2  0  0  0  0
 16 17  1  0  0  0  0
 12 17  2  0  0  0  0
  1 12  1  1  0  0  0
 18 19  1  0  0  0  0
 19 20  2  0  0  0  0
 20 21  1  0  0  0  0
 20 22  1  0  0  0  0
  9 18  1  0  0  0  0
  8 23  1  0  0  0  0
 10 24  1  0  0  0  0
  2 25  1  6  0  0  0
M  END
>  <cdx:fragmentId>
10270

$$$$
