442454.cdx
  Mrv1902 05222410182D          

 40 44  0  0  0  0            999 V2000
    5.1167   -3.7788    0.0000 O   0  0  0  0  0  0  0  0  0  0  0  0
    4.3457   -2.4589    0.0000 O   0  0  0  0  0  0  0  0  0  0  0  0
    4.3334   -3.2838    0.0000 C   0  0  2  0  0  0  0  0  0  0  0  0
    3.6129   -3.6857    0.0000 C   0  0  1  0  0  0  0  0  0  0  0  0
    2.9046   -3.2626    0.0000 C   0  0  1  0  0  0  0  0  0  0  0  0
    2.9169   -2.4377    0.0000 C   0  0  2  0  0  0  0  0  0  0  0  0
    3.6374   -2.0358    0.0000 C   0  0  2  0  0  0  0  0  0  0  0  0
    3.6497   -1.2109    0.0000 C   0  0  0  0  0  0  0  0  0  0  0  0
    2.2087   -2.0146    0.0000 O   0  0  0  0  0  0  0  0  0  0  0  0
    2.1841   -3.6644    0.0000 O   0  0  0  0  0  0  0  0  0  0  0  0
    3.6006   -4.5106    0.0000 O   0  0  0  0  0  0  0  0  0  0  0  0
    5.1004   -2.0703    0.0000 O   0  0  0  0  0  0  0  0  0  0  0  0
    6.5369   -1.2585    0.0000 O   0  0  0  0  0  0  0  0  0  0  0  0
    7.9658   -1.2716    0.0000 O   0  0  0  0  0  0  0  0  0  0  0  0
    7.9582   -2.0966    0.0000 C   0  0  0  0  0  0  0  0  0  0  0  0
    7.2400   -2.5025    0.0000 C   0  0  2  0  0  0  0  0  0  0  0  0
    6.5293   -2.0834    0.0000 C   0  0  2  0  0  0  0  0  0  0  0  0
    5.8111   -2.4893    0.0000 C   0  0  1  0  0  0  0  0  0  0  0  0
    5.8035   -3.3143    0.0000 C   0  0  2  0  0  0  0  0  0  0  0  0
    6.5141   -3.7334    0.0000 C   0  0  1  0  0  0  0  0  0  0  0  0
    7.2324   -3.3274    0.0000 O   0  0  0  0  0  0  0  0  0  0  0  0
    6.5065   -4.5583    0.0000 O   0  0  0  0  0  0  0  0  0  0  0  0
    7.9269   -7.0383    0.0000 O   0  0  0  0  0  0  0  0  0  0  0  0
   10.7962   -3.7483    0.0000 C   0  0  0  0  0  0  0  0  0  0  0  0
   11.5121   -3.3382    0.0000 C   0  0  0  0  0  0  0  0  0  0  0  0
   12.2251   -3.7532    0.0000 C   0  0  0  0  0  0  0  0  0  0  0  0
   12.2223   -4.5782    0.0000 C   0  0  0  0  0  0  0  0  0  0  0  0
   11.5064   -4.9882    0.0000 C   0  0  0  0  0  0  0  0  0  0  0  0
   10.7933   -4.5733    0.0000 C   0  0  0  0  0  0  0  0  0  0  0  0
    9.3558   -7.0433    0.0000 O   0  0  0  0  0  0  0  0  0  0  0  0
    9.3644   -4.5683    0.0000 O   0  0  0  0  0  0  0  0  0  0  0  0
    8.6485   -4.9783    0.0000 C   0  0  0  0  0  0  0  0  0  0  0  0
    7.9355   -4.5633    0.0000 C   0  0  0  0  0  0  0  0  0  0  0  0
    7.2196   -4.9733    0.0000 C   0  0  0  0  0  0  0  0  0  0  0  0
    7.2167   -5.7983    0.0000 C   0  0  0  0  0  0  0  0  0  0  0  0
    7.9297   -6.2133    0.0000 C   0  0  0  0  0  0  0  0  0  0  0  0
    8.6456   -5.8033    0.0000 C   0  0  0  0  0  0  0  0  0  0  0  0
    9.3587   -6.2183    0.0000 C   0  0  0  0  0  0  0  0  0  0  0  0
   10.0746   -5.8083    0.0000 C   0  0  0  0  0  0  0  0  0  0  0  0
   10.0774   -4.9833    0.0000 C   0  0  1  0  0  0  0  0  0  0  0  0
 34 22  1  0  0  0  0
 20 22  1  1  0  0  0
 18 12  1  1  0  0  0
 17 13  1  6  0  0  0
 16 15  1  1  0  0  0
 15 14  1  0  0  0  0
 19  1  1  6  0  0  0
 21 16  1  0  0  0  0
 17 16  1  0  0  0  0
 18 17  1  0  0  0  0
 19 18  1  0  0  0  0
 20 19  1  0  0  0  0
 21 20  1  0  0  0  0
 36 23  1  0  0  0  0
 40 29  1  6  0  0  0
 29 24  2  0  0  0  0
 25 24  1  0  0  0  0
 26 25  2  0  0  0  0
 27 26  1  0  0  0  0
 28 27  2  0  0  0  0
 29 28  1  0  0  0  0
 38 30  2  0  0  0  0
 40 31  1  0  0  0  0
 32 31  1  0  0  0  0
 37 32  2  0  0  0  0
 33 32  1  0  0  0  0
 34 33  2  0  0  0  0
 35 34  1  0  0  0  0
 36 35  2  0  0  0  0
 37 36  1  0  0  0  0
 38 37  1  0  0  0  0
 39 38  1  0  0  0  0
 40 39  1  0  0  0  0
  2  3  1  0  0  0  0
  3  4  1  0  0  0  0
  4  5  1  0  0  0  0
  5  6  1  0  0  0  0
  6  7  1  0  0  0  0
  2  7  1  0  0  0  0
  7  8  1  6  0  0  0
  6  9  1  1  0  0  0
  5 10  1  6  0  0  0
  4 11  1  6  0  0  0
  3  1  1  1  0  0  0
M  END
>  <cdx:groupId>
126

>  <cdx:fragmentId>
57

$$$$
