442437.cdx
  Mrv1902 05222410202D          

 32 35  0  0  0  0            999 V2000
    4.9106   -6.0833    0.0000 C   0  0  0  0  0  0  0  0  0  0  0  0
    4.9106   -6.9083    0.0000 C   0  0  0  0  0  0  0  0  0  0  0  0
    5.6251   -7.3208    0.0000 C   0  0  0  0  0  0  0  0  0  0  0  0
    6.3395   -6.9083    0.0000 C   0  0  0  0  0  0  0  0  0  0  0  0
    6.3395   -6.0833    0.0000 C   0  0  0  0  0  0  0  0  0  0  0  0
    5.6251   -5.6708    0.0000 C   0  0  0  0  0  0  0  0  0  0  0  0
    7.0540   -7.3208    0.0000 C   0  0  0  0  0  0  0  0  0  0  0  0
    7.7685   -6.9083    0.0000 C   0  0  2  0  0  0  0  0  0  0  0  0
    7.7685   -6.0833    0.0000 C   0  0  1  0  0  0  0  0  0  0  0  0
    7.0540   -5.6708    0.0000 O   0  0  0  0  0  0  0  0  0  0  0  0
    7.0540   -8.1458    0.0000 O   0  0  0  0  0  0  0  0  0  0  0  0
    5.6251   -8.1458    0.0000 O   0  0  0  0  0  0  0  0  0  0  0  0
    4.1961   -5.6708    0.0000 O   0  0  0  0  0  0  0  0  0  0  0  0
    8.4830   -7.3208    0.0000 O   0  0  0  0  0  0  0  0  0  0  0  0
    8.4830   -8.1458    0.0000 C   0  0  2  0  0  0  0  0  0  0  0  0
    8.4830   -5.6708    0.0000 C   0  0  0  0  0  0  0  0  0  0  0  0
    9.1974   -6.0833    0.0000 C   0  0  0  0  0  0  0  0  0  0  0  0
    9.9119   -5.6708    0.0000 C   0  0  0  0  0  0  0  0  0  0  0  0
    9.9119   -4.8458    0.0000 C   0  0  0  0  0  0  0  0  0  0  0  0
    9.1974   -4.4333    0.0000 C   0  0  0  0  0  0  0  0  0  0  0  0
    8.4830   -4.8458    0.0000 C   0  0  0  0  0  0  0  0  0  0  0  0
    7.7685   -8.5583    0.0000 O   0  0  0  0  0  0  0  0  0  0  0  0
    7.7685   -9.3833    0.0000 C   0  0  2  0  0  0  0  0  0  0  0  0
    8.4830   -9.7958    0.0000 C   0  0  1  0  0  0  0  0  0  0  0  0
    9.1974   -9.3833    0.0000 C   0  0  2  0  0  0  0  0  0  0  0  0
    9.1974   -8.5583    0.0000 C   0  0  1  0  0  0  0  0  0  0  0  0
   10.6264   -4.4333    0.0000 O   0  0  0  0  0  0  0  0  0  0  0  0
   10.6264   -6.0833    0.0000 O   0  0  0  0  0  0  0  0  0  0  0  0
    7.0540   -9.7958    0.0000 C   0  0  0  0  0  0  0  0  0  0  0  0
    8.4830  -10.6208    0.0000 O   0  0  0  0  0  0  0  0  0  0  0  0
    9.9119   -8.1458    0.0000 O   0  0  0  0  0  0  0  0  0  0  0  0
    9.9119   -9.7958    0.0000 O   0  0  0  0  0  0  0  0  0  0  0  0
  1  2  2  0  0  0  0
  2  3  1  0  0  0  0
  3  4  2  0  0  0  0
  4  5  1  0  0  0  0
  5  6  2  0  0  0  0
  6  1  1  0  0  0  0
  4  7  1  0  0  0  0
  7  8  1  0  0  0  0
  8  9  1  0  0  0  0
  9 10  1  0  0  0  0
 10  5  1  0  0  0  0
  7 11  2  0  0  0  0
  3 12  1  0  0  0  0
  1 13  1  0  0  0  0
  8 14  1  6  0  0  0
 15 14  1  1  0  0  0
  9 16  1  1  0  0  0
 16 17  2  0  0  0  0
 17 18  1  0  0  0  0
 18 19  2  0  0  0  0
 19 20  1  0  0  0  0
 20 21  2  0  0  0  0
 21 16  1  0  0  0  0
 15 22  1  0  0  0  0
 22 23  1  0  0  0  0
 23 24  1  0  0  0  0
 24 25  1  0  0  0  0
 25 26  1  0  0  0  0
 26 15  1  0  0  0  0
 19 27  1  0  0  0  0
 18 28  1  0  0  0  0
 23 29  1  6  0  0  0
 24 30  1  1  0  0  0
 26 31  1  6  0  0  0
 25 32  1  6  0  0  0
M  END
>  <cdx:fragmentId>
10691

$$$$
