442405.cdx
  Mrv1902 05222410252D          

 28 29  0  0  0  0            999 V2000
   13.8366   -9.8671    0.0000 C   0  0  0  0  0  0  0  0  0  0  0  0
   13.1222   -9.4546    0.0000 C   0  0  0  0  0  0  0  0  0  0  0  0
   13.1222   -8.6296    0.0000 C   0  0  0  0  0  0  0  0  0  0  0  0
   13.8366   -8.2171    0.0000 C   0  0  0  0  0  0  0  0  0  0  0  0
   14.5511   -9.4546    0.0000 C   0  0  0  0  0  0  0  0  0  0  0  0
   14.5511   -8.6296    0.0000 C   0  0  0  0  0  0  0  0  0  0  0  0
   15.3357   -8.3747    0.0000 O   0  0  0  0  0  0  0  0  0  0  0  0
   15.8207   -9.0421    0.0000 C   0  0  0  0  0  0  0  0  0  0  0  0
   15.3357   -9.7095    0.0000 O   0  0  0  0  0  0  0  0  0  0  0  0
    1.6906   -9.4546    0.0000 C   0  0  0  0  0  0  0  0  0  0  0  0
    0.9762   -8.2171    0.0000 C   0  0  0  0  0  0  0  0  0  0  0  0
    1.6906   -8.6296    0.0000 C   0  0  0  0  0  0  0  0  0  0  0  0
    2.4051   -8.2171    0.0000 C   0  0  0  0  0  0  0  0  0  0  0  0
    3.1196   -8.6296    0.0000 N   0  0  0  0  0  0  0  0  0  0  0  0
    3.8340   -7.3921    0.0000 O   0  0  0  0  0  0  0  0  0  0  0  0
   12.4077   -8.2171    0.0000 C   0  0  0  0  0  0  0  0  0  0  0  0
   11.6932   -8.6296    0.0000 C   0  0  0  0  0  0  0  0  0  0  0  0
   10.9788   -8.2171    0.0000 C   0  0  0  0  0  0  0  0  0  0  0  0
   10.2643   -8.6296    0.0000 C   0  0  0  0  0  0  0  0  0  0  0  0
    9.5498   -8.2171    0.0000 C   0  0  0  0  0  0  0  0  0  0  0  0
    8.8353   -8.6296    0.0000 C   0  0  0  0  0  0  0  0  0  0  0  0
    8.1209   -8.2171    0.0000 C   0  0  0  0  0  0  0  0  0  0  0  0
    7.4064   -8.6296    0.0000 C   0  0  0  0  0  0  0  0  0  0  0  0
    6.6919   -8.2171    0.0000 C   0  0  0  0  0  0  0  0  0  0  0  0
    5.9775   -8.6296    0.0000 C   0  0  0  0  0  0  0  0  0  0  0  0
    5.2630   -8.2171    0.0000 C   0  0  0  0  0  0  0  0  0  0  0  0
    4.5485   -8.6296    0.0000 C   0  0  0  0  0  0  0  0  0  0  0  0
    3.8340   -8.2171    0.0000 C   0  0  0  0  0  0  0  0  0  0  0  0
 16  3  1  0  0  0  0
  4  6  2  0  0  0  0
  1  5  2  0  0  0  0
  2  1  1  0  0  0  0
  3  2  2  0  0  0  0
  4  3  1  0  0  0  0
  9  5  1  0  0  0  0
  6  5  1  0  0  0  0
  7  6  1  0  0  0  0
  8  7  1  0  0  0  0
  9  8  1  0  0  0  0
 14 13  1  0  0  0  0
 12 10  1  0  0  0  0
 12 11  1  0  0  0  0
 13 12  1  0  0  0  0
 28 14  1  0  0  0  0
 28 15  2  0  0  0  0
 17 16  2  0  0  0  0
 18 17  1  0  0  0  0
 19 18  1  0  0  0  0
 20 19  1  0  0  0  0
 21 20  1  0  0  0  0
 22 21  1  0  0  0  0
 23 22  1  0  0  0  0
 24 23  1  0  0  0  0
 25 24  2  0  0  0  0
 26 25  1  0  0  0  0
 27 26  2  0  0  0  0
 28 27  1  0  0  0  0
M  END
>  <cdx:fragmentId>
19426

$$$$
