6442566.cdx
  Mrv1902 05222410252D          

 23 23  0  0  0  0            999 V2000
    7.9580   -8.4062    0.0000 C   0  0  0  0  0  0  0  0  0  0  0  0
    7.2435   -8.8187    0.0000 C   0  0  0  0  0  0  0  0  0  0  0  0
    6.5290   -8.4062    0.0000 C   0  0  0  0  0  0  0  0  0  0  0  0
    5.8146   -8.8187    0.0000 C   0  0  0  0  0  0  0  0  0  0  0  0
    5.1001   -8.4062    0.0000 C   0  0  0  0  0  0  0  0  0  0  0  0
    4.3856   -8.8187    0.0000 C   0  0  0  0  0  0  0  0  0  0  0  0
    3.6711   -8.4062    0.0000 C   0  0  0  0  0  0  0  0  0  0  0  0
    2.9567   -8.8187    0.0000 C   0  0  0  0  0  0  0  0  0  0  0  0
    2.2422   -8.4062    0.0000 C   0  0  0  0  0  0  0  0  0  0  0  0
    2.2422   -7.5812    0.0000 C   0  0  0  0  0  0  0  0  0  0  0  0
    7.9580   -7.5812    0.0000 O   0  0  0  0  0  0  0  0  0  0  0  0
    8.6724   -8.8187    0.0000 N   0  0  0  0  0  0  0  0  0  0  0  0
    1.5277   -8.8187    0.0000 C   0  0  0  0  0  0  0  0  0  0  0  0
    9.3869   -8.4062    0.0000 C   0  0  0  0  0  0  0  0  0  0  0  0
   10.1014   -8.8187    0.0000 C   0  0  0  0  0  0  0  0  0  0  0  0
   10.8159   -8.4062    0.0000 C   0  0  0  0  0  0  0  0  0  0  0  0
   11.5303   -8.8187    0.0000 C   0  0  0  0  0  0  0  0  0  0  0  0
   11.5303   -9.6437    0.0000 C   0  0  0  0  0  0  0  0  0  0  0  0
   10.8159  -10.0562    0.0000 C   0  0  0  0  0  0  0  0  0  0  0  0
   10.1014   -9.6437    0.0000 C   0  0  0  0  0  0  0  0  0  0  0  0
   12.2448   -8.4062    0.0000 O   0  0  0  0  0  0  0  0  0  0  0  0
   12.9593   -8.8187    0.0000 C   0  0  0  0  0  0  0  0  0  0  0  0
   12.2448  -10.0562    0.0000 O   0  0  0  0  0  0  0  0  0  0  0  0
  1  2  1  0  0  0  0
  2  3  1  0  0  0  0
  3  4  1  0  0  0  0
  4  5  1  0  0  0  0
  5  6  1  0  0  0  0
  6  7  1  0  0  0  0
  7  8  2  0  0  0  0
  8  9  1  0  0  0  0
  9 10  1  0  0  0  0
  1 11  2  0  0  0  0
  1 12  1  0  0  0  0
  9 13  1  0  0  0  0
 15 16  1  0  0  0  0
 16 17  2  0  0  0  0
 17 18  1  0  0  0  0
 18 19  2  0  0  0  0
 19 20  1  0  0  0  0
 15 20  2  0  0  0  0
 21 22  1  0  0  0  0
 17 21  1  0  0  0  0
 18 23  1  0  0  0  0
 14 15  1  0  0  0  0
 12 14  1  0  0  0  0
M  END
>  <cdx:groupId>
19782

>  <cdx:fragmentId>
19716

$$$$
