442510.cdx
  Mrv1902 05222410282D          

 28 31  0  0  0  0            999 V2000
    6.3940   -7.0910    0.0000 O   0  0  0  0  0  0  0  0  0  0  0  0
    7.1028   -6.6689    0.0000 C   0  0  1  0  0  0  0  0  0  0  0  0
    7.8228   -7.0716    0.0000 C   0  0  2  0  0  0  0  0  0  0  0  0
    7.8340   -7.8965    0.0000 O   0  0  0  0  0  0  0  0  0  0  0  0
    7.1252   -8.3187    0.0000 C   0  0  0  0  0  0  0  0  0  0  0  0
    6.4052   -7.9159    0.0000 C   0  0  0  0  0  0  0  0  0  0  0  0
    7.1364   -9.1436    0.0000 C   0  0  0  0  0  0  0  0  0  0  0  0
    6.4276   -9.5658    0.0000 C   0  0  0  0  0  0  0  0  0  0  0  0
    5.7075   -9.1630    0.0000 C   0  0  0  0  0  0  0  0  0  0  0  0
    5.6963   -8.3381    0.0000 C   0  0  0  0  0  0  0  0  0  0  0  0
    4.9988   -9.5852    0.0000 C   0  0  0  0  0  0  0  0  0  0  0  0
    4.2787   -9.1824    0.0000 C   0  0  0  0  0  0  0  0  0  0  0  0
    4.2675   -8.3575    0.0000 C   0  0  0  0  0  0  0  0  0  0  0  0
    4.9764   -7.9353    0.0000 O   0  0  0  0  0  0  0  0  0  0  0  0
    3.5476   -7.9547    0.0000 O   0  0  0  0  0  0  0  0  0  0  0  0
    7.8564   -9.5464    0.0000 O   0  0  0  0  0  0  0  0  0  0  0  0
    8.5652   -9.1242    0.0000 C   0  0  0  0  0  0  0  0  0  0  0  0
    7.0916   -5.8439    0.0000 C   0  0  0  0  0  0  0  0  0  0  0  0
    6.3716   -5.4412    0.0000 O   0  0  0  0  0  0  0  0  0  0  0  0
    8.5316   -6.6495    0.0000 C   0  0  0  0  0  0  0  0  0  0  0  0
    9.2516   -7.0522    0.0000 C   0  0  0  0  0  0  0  0  0  0  0  0
    9.9604   -6.6301    0.0000 C   0  0  0  0  0  0  0  0  0  0  0  0
    9.9492   -5.8051    0.0000 C   0  0  0  0  0  0  0  0  0  0  0  0
    9.2292   -5.4024    0.0000 C   0  0  0  0  0  0  0  0  0  0  0  0
    8.5204   -5.8245    0.0000 C   0  0  0  0  0  0  0  0  0  0  0  0
   10.6804   -7.0328    0.0000 O   0  0  0  0  0  0  0  0  0  0  0  0
   11.3892   -6.6107    0.0000 C   0  0  0  0  0  0  0  0  0  0  0  0
   10.6580   -5.3830    0.0000 O   0  0  0  0  0  0  0  0  0  0  0  0
  1  2  1  0  0  0  0
  2  3  1  0  0  0  0
  3  4  1  0  0  0  0
  4  5  1  0  0  0  0
  5  6  1  0  0  0  0
  1  6  1  0  0  0  0
  7  8  1  0  0  0  0
  8  9  2  0  0  0  0
  9 10  1  0  0  0  0
  6 10  2  0  0  0  0
  5  7  2  0  0  0  0
 11 12  2  0  0  0  0
 12 13  1  0  0  0  0
 13 14  1  0  0  0  0
  9 11  1  0  0  0  0
 10 14  1  0  0  0  0
 13 15  2  0  0  0  0
 16 17  1  0  0  0  0
  7 16  1  0  0  0  0
 18 19  1  0  0  0  0
  2 18  1  6  0  0  0
 20 21  1  0  0  0  0
 21 22  2  0  0  0  0
 22 23  1  0  0  0  0
 23 24  2  0  0  0  0
 24 25  1  0  0  0  0
 20 25  2  0  0  0  0
 26 27  1  0  0  0  0
 22 26  1  0  0  0  0
 23 28  1  0  0  0  0
  3 20  1  1  0  0  0
M  END
>  <cdx:fragmentId>
10959

$$$$
