442560.cdx
  Mrv1902 05222410242D          

 22 22  0  0  0  0            999 V2000
    5.1001   -7.4162    0.0000 C   0  0  0  0  0  0  0  0  0  0  0  0
    5.8146   -7.8287    0.0000 C   0  0  0  0  0  0  0  0  0  0  0  0
    6.5290   -7.4162    0.0000 C   0  0  0  0  0  0  0  0  0  0  0  0
    7.2435   -7.8287    0.0000 C   0  0  0  0  0  0  0  0  0  0  0  0
    7.9580   -7.4162    0.0000 C   0  0  0  0  0  0  0  0  0  0  0  0
    8.6724   -7.8287    0.0000 C   0  0  0  0  0  0  0  0  0  0  0  0
    9.3869   -7.4162    0.0000 C   0  0  0  0  0  0  0  0  0  0  0  0
   10.1014   -7.8287    0.0000 C   0  0  0  0  0  0  0  0  0  0  0  0
   10.8159   -7.4162    0.0000 C   0  0  0  0  0  0  0  0  0  0  0  0
   11.5303   -7.8287    0.0000 C   0  0  0  0  0  0  0  0  0  0  0  0
   12.2448   -7.4162    0.0000 C   0  0  0  0  0  0  0  0  0  0  0  0
   12.9593   -7.8287    0.0000 C   0  0  0  0  0  0  0  0  0  0  0  0
    6.5290   -6.5912    0.0000 O   0  0  0  0  0  0  0  0  0  0  0  0
    4.3856   -7.8287    0.0000 C   0  0  0  0  0  0  0  0  0  0  0  0
    3.6711   -7.4162    0.0000 C   0  0  0  0  0  0  0  0  0  0  0  0
    2.9567   -7.8287    0.0000 C   0  0  0  0  0  0  0  0  0  0  0  0
    2.9567   -8.6537    0.0000 C   0  0  0  0  0  0  0  0  0  0  0  0
    3.6711   -9.0662    0.0000 C   0  0  0  0  0  0  0  0  0  0  0  0
    4.3856   -8.6537    0.0000 C   0  0  0  0  0  0  0  0  0  0  0  0
    2.2422   -7.4162    0.0000 O   0  0  0  0  0  0  0  0  0  0  0  0
    1.5277   -7.8287    0.0000 C   0  0  0  0  0  0  0  0  0  0  0  0
    2.2422   -9.0662    0.0000 O   0  0  0  0  0  0  0  0  0  0  0  0
  1  2  1  0  0  0  0
  2  3  1  0  0  0  0
  3  4  1  0  0  0  0
  4  5  2  0  0  0  0
  5  6  1  0  0  0  0
  6  7  1  0  0  0  0
  7  8  1  0  0  0  0
  8  9  1  0  0  0  0
  9 10  1  0  0  0  0
 10 11  1  0  0  0  0
 11 12  1  0  0  0  0
  3 13  2  0  0  0  0
 14 15  1  0  0  0  0
 15 16  2  0  0  0  0
 16 17  1  0  0  0  0
 17 18  2  0  0  0  0
 18 19  1  0  0  0  0
 14 19  2  0  0  0  0
 20 21  1  0  0  0  0
 16 20  1  0  0  0  0
 17 22  1  0  0  0  0
  1 14  1  0  0  0  0
M  END
>  <cdx:groupId>
19708

>  <cdx:fragmentId>
19645

$$$$
