442673.cdx
  Mrv1902 05222410282D          

 70 77  0  0  0  0            999 V2000
    9.9935   -7.0489    0.0000 C   0  0  0  0  0  0  0  0  0  0  0  0
   10.4785   -6.3814    0.0000 C   0  0  0  0  0  0  0  0  0  0  0  0
   10.1429   -5.6278    0.0000 C   0  0  0  0  0  0  0  0  0  0  0  0
   10.6278   -4.9603    0.0000 C   0  0  0  0  0  0  0  0  0  0  0  0
   11.4483   -5.0466    0.0000 C   0  0  0  0  0  0  0  0  0  0  0  0
   11.7839   -5.8002    0.0000 C   0  0  0  0  0  0  0  0  0  0  0  0
   11.2990   -6.4677    0.0000 C   0  0  0  0  0  0  0  0  0  0  0  0
   10.3291   -7.8025    0.0000 O   0  0  0  0  0  0  0  0  0  0  0  0
    9.1731   -6.9626    0.0000 O   0  0  0  0  0  0  0  0  0  0  0  0
   12.6044   -5.8865    0.0000 O   0  0  0  0  0  0  0  0  0  0  0  0
   11.9332   -4.3791    0.0000 O   0  0  0  0  0  0  0  0  0  0  0  0
   10.2923   -4.2066    0.0000 O   0  0  0  0  0  0  0  0  0  0  0  0
    7.1049  -10.5110    0.0000 C   0  0  0  0  0  0  0  0  0  0  0  0
    6.4375  -10.0260    0.0000 C   0  0  0  0  0  0  0  0  0  0  0  0
    5.7964  -10.5452    0.0000 C   0  0  0  0  0  0  0  0  0  0  0  0
    5.0261  -10.2496    0.0000 C   0  0  0  0  0  0  0  0  0  0  0  0
    4.8971   -9.4347    0.0000 C   0  0  0  0  0  0  0  0  0  0  0  0
    5.5382   -8.9155    0.0000 C   0  0  0  0  0  0  0  0  0  0  0  0
    6.3084   -9.2112    0.0000 C   0  0  0  0  0  0  0  0  0  0  0  0
    6.7934   -8.5438    0.0000 C   0  0  0  0  0  0  0  0  0  0  0  0
    7.6082   -8.4147    0.0000 O   0  0  0  0  0  0  0  0  0  0  0  0
    7.8631   -7.6301    0.0000 C   0  0  2  0  0  0  0  0  0  0  0  0
    8.6881   -7.6301    0.0000 C   0  0  1  0  0  0  0  0  0  0  0  0
    8.9431   -8.4147    0.0000 C   0  0  0  0  0  0  0  0  0  0  0  0
    8.2756   -8.8996    0.0000 O   0  0  0  0  0  0  0  0  0  0  0  0
    8.4047   -9.7145    0.0000 C   0  0  0  0  0  0  0  0  0  0  0  0
    7.9198  -10.3819    0.0000 C   0  0  0  0  0  0  0  0  0  0  0  0
    8.4390  -11.0230    0.0000 C   0  0  0  0  0  0  0  0  0  0  0  0
    8.1433  -11.7932    0.0000 C   0  0  0  0  0  0  0  0  0  0  0  0
    7.3285  -11.9223    0.0000 C   0  0  0  0  0  0  0  0  0  0  0  0
    6.8093  -11.2812    0.0000 C   0  0  0  0  0  0  0  0  0  0  0  0
    9.2069   -9.9071    0.0000 O   0  0  0  0  0  0  0  0  0  0  0  0
    6.3623   -7.8403    0.0000 O   0  0  0  0  0  0  0  0  0  0  0  0
    6.0877  -11.6811    0.0000 O   0  0  0  0  0  0  0  0  0  0  0  0
    7.0328  -12.6925    0.0000 O   0  0  0  0  0  0  0  0  0  0  0  0
    8.6625  -12.4344    0.0000 O   0  0  0  0  0  0  0  0  0  0  0  0
    4.1125   -9.1798    0.0000 O   0  0  0  0  0  0  0  0  0  0  0  0
    4.4131  -10.8016    0.0000 O   0  0  0  0  0  0  0  0  0  0  0  0
    5.6815  -11.3622    0.0000 O   0  0  0  0  0  0  0  0  0  0  0  0
    6.7651   -3.7408    0.0000 C   0  0  0  0  0  0  0  0  0  0  0  0
    6.1520   -3.1888    0.0000 C   0  0  0  0  0  0  0  0  0  0  0  0
    5.3674   -3.4438    0.0000 C   0  0  0  0  0  0  0  0  0  0  0  0
    5.1959   -4.2507    0.0000 C   0  0  0  0  0  0  0  0  0  0  0  0
    5.8090   -4.8028    0.0000 C   0  0  0  0  0  0  0  0  0  0  0  0
    5.3241   -5.4702    0.0000 C   0  0  0  0  0  0  0  0  0  0  0  0
    4.6096   -5.0577    0.0000 C   0  0  0  0  0  0  0  0  0  0  0  0
    3.8951   -5.4702    0.0000 C   0  0  0  0  0  0  0  0  0  0  0  0
    3.8951   -6.2952    0.0000 C   0  0  0  0  0  0  0  0  0  0  0  0
    4.6096   -6.7077    0.0000 C   0  0  0  0  0  0  0  0  0  0  0  0
    5.3241   -6.2952    0.0000 C   0  0  0  0  0  0  0  0  0  0  0  0
    5.8090   -6.9626    0.0000 C   0  0  0  0  0  0  0  0  0  0  0  0
    6.5936   -7.2176    0.0000 O   0  0  0  0  0  0  0  0  0  0  0  0
    7.3782   -6.9626    0.0000 C   0  0  2  0  0  0  0  0  0  0  0  0
    7.8631   -6.2952    0.0000 C   0  0  1  0  0  0  0  0  0  0  0  0
    7.8631   -5.4702    0.0000 O   0  0  0  0  0  0  0  0  0  0  0  0
    7.3782   -4.8028    0.0000 C   0  0  0  0  0  0  0  0  0  0  0  0
    6.5936   -4.5478    0.0000 C   0  0  0  0  0  0  0  0  0  0  0  0
    8.6075   -3.9050    0.0000 C   0  0  1  0  0  0  0  0  0  0  0  0
    7.7907   -4.0883    0.0000 O   0  0  0  0  0  0  0  0  0  0  0  0
    5.3241   -7.6301    0.0000 O   0  0  0  0  0  0  0  0  0  0  0  0
    9.1909   -3.3216    0.0000 O   0  0  0  0  0  0  0  0  0  0  0  0
    3.1806   -6.7077    0.0000 O   0  0  0  0  0  0  0  0  0  0  0  0
    3.1806   -5.0577    0.0000 O   0  0  0  0  0  0  0  0  0  0  0  0
    4.0793   -4.4257    0.0000 O   0  0  0  0  0  0  0  0  0  0  0  0
    4.4310   -3.9417    0.0000 O   0  0  0  0  0  0  0  0  0  0  0  0
    4.7543   -2.8917    0.0000 O   0  0  0  0  0  0  0  0  0  0  0  0
    6.3236   -2.3818    0.0000 O   0  0  0  0  0  0  0  0  0  0  0  0
    8.6600   -6.5087    0.0000 H   0  0  0  0  0  0  0  0  0  0  0  0
    8.2032   -6.9626    0.0000 H   0  0  0  0  0  0  0  0  0  0  0  0
    7.0381   -7.6301    0.0000 H   0  0  0  0  0  0  0  0  0  0  0  0
  1  2  1  0  0  0  0
  2  3  1  0  0  0  0
  3  4  2  0  0  0  0
  4  5  1  0  0  0  0
  5  6  2  0  0  0  0
  6  7  1  0  0  0  0
  2  7  2  0  0  0  0
  1  8  2  0  0  0  0
  1  9  1  0  0  0  0
  6 10  1  0  0  0  0
  5 11  1  0  0  0  0
  4 12  1  0  0  0  0
 13 14  1  0  0  0  0
 14 15  2  0  0  0  0
 15 16  1  0  0  0  0
 16 17  2  0  0  0  0
 17 18  1  0  0  0  0
 18 19  2  0  0  0  0
 19 20  1  0  0  0  0
 20 21  1  0  0  0  0
 22 21  1  0  0  0  0
 22 23  1  0  0  0  0
 23 24  1  0  0  0  0
 24 25  1  0  0  0  0
 25 26  1  0  0  0  0
 26 27  1  0  0  0  0
 27 28  2  0  0  0  0
 28 29  1  0  0  0  0
 29 30  2  0  0  0  0
 30 31  1  0  0  0  0
 13 31  2  0  0  0  0
 13 27  1  0  0  0  0
 14 19  1  0  0  0  0
 26 32  2  0  0  0  0
 20 33  2  0  0  0  0
 31 34  1  0  0  0  0
 30 35  1  0  0  0  0
 29 36  1  0  0  0  0
 17 37  1  0  0  0  0
 16 38  1  0  0  0  0
 15 39  1  0  0  0  0
 40 41  2  0  0  0  0
 41 42  1  0  0  0  0
 42 43  2  0  0  0  0
 43 44  1  0  0  0  0
 44 45  1  0  0  0  0
 45 46  2  0  0  0  0
 46 47  1  0  0  0  0
 47 48  2  0  0  0  0
 48 49  1  0  0  0  0
 49 50  2  0  0  0  0
 50 51  1  0  0  0  0
 51 52  1  0  0  0  0
 53 52  1  0  0  0  0
 53 54  1  0  0  0  0
 54 55  1  0  0  0  0
 55 56  1  0  0  0  0
 56 57  1  0  0  0  0
 40 57  1  0  0  0  0
 40 58  1  0  0  0  0
 58 54  1  0  0  0  0
 44 57  2  0  0  0  0
 45 50  1  0  0  0  0
 56 59  2  0  0  0  0
 51 60  2  0  0  0  0
 58 61  1  6  0  0  0
 48 62  1  0  0  0  0
 47 63  1  0  0  0  0
 46 64  1  0  0  0  0
 43 65  1  0  0  0  0
 42 66  1  0  0  0  0
 41 67  1  0  0  0  0
 22 53  1  0  0  0  0
 23  9  1  6  0  0  0
 54 68  1  6  0  0  0
 53 69  1  1  0  0  0
 22 70  1  6  0  0  0
M  END
>  <cdx:fragmentId>
83

$$$$
