442674.cdx
  Mrv1902 05222410262D          

 69 76  0  0  0  0            999 V2000
    5.4730  -12.5400    0.0000 C   0  0  2  0  0  0  0  0  0  0  0  0
    5.4730  -13.3650    0.0000 C   0  0  0  0  0  0  0  0  0  0  0  0
    6.1875  -13.7775    0.0000 O   0  0  0  0  0  0  0  0  0  0  0  0
    6.9020  -13.3650    0.0000 C   0  0  0  0  0  0  0  0  0  0  0  0
    6.9020  -12.5400    0.0000 C   0  0  0  0  0  0  0  0  0  0  0  0
    6.1875  -12.1275    0.0000 C   0  0  2  0  0  0  0  0  0  0  0  0
    7.6164  -13.7775    0.0000 C   0  0  0  0  0  0  0  0  0  0  0  0
    8.3309  -13.3650    0.0000 C   0  0  0  0  0  0  0  0  0  0  0  0
    8.3309  -12.5400    0.0000 C   0  0  0  0  0  0  0  0  0  0  0  0
    7.6164  -12.1275    0.0000 C   0  0  0  0  0  0  0  0  0  0  0  0
    7.6164  -14.6025    0.0000 O   0  0  0  0  0  0  0  0  0  0  0  0
    9.0454  -13.7775    0.0000 O   0  0  0  0  0  0  0  0  0  0  0  0
    4.7586  -13.7775    0.0000 O   0  0  0  0  0  0  0  0  0  0  0  0
    4.7586  -12.1275    0.0000 O   0  0  0  0  0  0  0  0  0  0  0  0
    6.1875  -11.3025    0.0000 C   0  0  2  0  0  0  0  0  0  0  0  0
    7.6164  -11.3025    0.0000 C   0  0  0  0  0  0  0  0  0  0  0  0
    6.9020  -10.8900    0.0000 O   0  0  0  0  0  0  0  0  0  0  0  0
    8.3875   -9.9275    0.0000 O   0  0  0  0  0  0  0  0  0  0  0  0
    4.2690  -11.6595    0.0000 O   0  0  0  0  0  0  0  0  0  0  0  0
    4.2046  -10.2321    0.0000 O   0  0  0  0  0  0  0  0  0  0  0  0
    4.6489  -10.9272    0.0000 C   0  0  0  0  0  0  0  0  0  0  0  0
    5.4730  -10.8900    0.0000 C   0  0  0  0  0  0  0  0  0  0  0  0
    6.6000  -10.5880    0.0000 C   0  0  0  0  0  0  0  0  0  0  0  0
    6.1875   -9.8736    0.0000 O   0  0  0  0  0  0  0  0  0  0  0  0
    7.4250  -10.5880    0.0000 O   0  0  0  0  0  0  0  0  0  0  0  0
    6.6000   -9.1591    0.0000 C   0  0  1  0  0  0  0  0  0  0  0  0
    7.3189   -9.5639    0.0000 C   0  0  1  0  0  0  0  0  0  0  0  0
    8.0289   -9.1437    0.0000 C   0  0  2  0  0  0  0  0  0  0  0  0
    8.0200   -8.3187    0.0000 C   0  0  1  0  0  0  0  0  0  0  0  0
    7.3011   -7.9140    0.0000 O   0  0  0  0  0  0  0  0  0  0  0  0
    6.5911   -8.3341    0.0000 C   0  0  2  0  0  0  0  0  0  0  0  0
    8.7300   -7.8986    0.0000 O   0  0  0  0  0  0  0  0  0  0  0  0
    7.3189   -8.7389    0.0000 O   0  0  0  0  0  0  0  0  0  0  0  0
    9.4488   -8.3034    0.0000 C   0  0  0  0  0  0  0  0  0  0  0  0
   10.1588   -7.8832    0.0000 C   0  0  0  0  0  0  0  0  0  0  0  0
    9.4577   -9.1283    0.0000 O   0  0  0  0  0  0  0  0  0  0  0  0
   10.8820   -8.2802    0.0000 C   0  0  0  0  0  0  0  0  0  0  0  0
   11.5874   -7.8524    0.0000 C   0  0  0  0  0  0  0  0  0  0  0  0
   11.5874   -7.0276    0.0000 C   0  0  0  0  0  0  0  0  0  0  0  0
   10.8820   -6.6306    0.0000 C   0  0  0  0  0  0  0  0  0  0  0  0
   10.1588   -7.0584    0.0000 C   0  0  0  0  0  0  0  0  0  0  0  0
   10.8731   -5.8056    0.0000 O   0  0  0  0  0  0  0  0  0  0  0  0
   12.2996   -6.6112    0.0000 O   0  0  0  0  0  0  0  0  0  0  0  0
   12.3063   -8.2572    0.0000 O   0  0  0  0  0  0  0  0  0  0  0  0
    5.4730  -11.7150    0.0000 H   0  0  0  0  0  0  0  0  0  0  0  0
    5.1132   -3.3846    0.0000 O   0  0  0  0  0  0  0  0  0  0  0  0
    6.5416   -4.1866    0.0000 O   0  0  0  0  0  0  0  0  0  0  0  0
    3.7023   -4.2324    0.0000 O   0  0  0  0  0  0  0  0  0  0  0  0
    5.8409   -5.4470    0.0000 C   0  0  0  0  0  0  0  0  0  0  0  0
    5.8317   -4.6068    0.0000 C   0  0  0  0  0  0  0  0  0  0  0  0
    5.1264   -4.2095    0.0000 C   0  0  0  0  0  0  0  0  0  0  0  0
    4.4211   -4.6372    0.0000 C   0  0  0  0  0  0  0  0  0  0  0  0
    4.4211   -5.4622    0.0000 C   0  0  0  0  0  0  0  0  0  0  0  0
    4.4345   -7.1198    0.0000 O   0  0  0  0  0  0  0  0  0  0  0  0
    5.1356   -5.8747    0.0000 C   0  0  0  0  0  0  0  0  0  0  0  0
    5.1445   -6.6996    0.0000 C   0  0  0  0  0  0  0  0  0  0  0  0
    5.8634   -7.1044    0.0000 O   0  0  0  0  0  0  0  0  0  0  0  0
    5.8722   -7.9294    0.0000 C   0  0  0  0  0  0  0  0  0  0  0  0
    7.9034   -5.4195    0.0000 C   0  0  0  0  0  0  0  0  0  0  0  0
    8.6173   -5.8329    0.0000 C   0  0  0  0  0  0  0  0  0  0  0  0
    9.3323   -5.4213    0.0000 C   0  0  0  0  0  0  0  0  0  0  0  0
    9.3333   -4.5963    0.0000 C   0  0  0  0  0  0  0  0  0  0  0  0
    8.6194   -4.1829    0.0000 C   0  0  0  0  0  0  0  0  0  0  0  0
    7.9044   -4.5945    0.0000 C   0  0  0  0  0  0  0  0  0  0  0  0
    7.1904   -4.1811    0.0000 O   0  0  0  0  0  0  0  0  0  0  0  0
    8.6204   -3.3579    0.0000 O   0  0  0  0  0  0  0  0  0  0  0  0
   10.0483   -4.1846    0.0000 O   0  0  0  0  0  0  0  0  0  0  0  0
    8.6163   -6.6579    0.0000 C   0  0  0  0  0  0  0  0  0  0  0  0
    9.3303   -7.0713    0.0000 O   0  0  0  0  0  0  0  0  0  0  0  0
  1  2  1  0  0  0  0
  2  3  1  0  0  0  0
  3  4  1  0  0  0  0
  4  5  2  0  0  0  0
  5  6  1  0  0  0  0
  6  1  1  0  0  0  0
  4  7  1  0  0  0  0
  7  8  2  0  0  0  0
  8  9  1  0  0  0  0
  9 10  2  0  0  0  0
 10  5  1  0  0  0  0
  7 11  1  0  0  0  0
  8 12  1  0  0  0  0
  2 13  2  0  0  0  0
  1 14  1  1  0  0  0
  6 15  1  0  0  0  0
 10 16  1  0  0  0  0
 16 17  2  0  0  0  0
 16 18  1  0  0  0  0
 21 19  1  0  0  0  0
 15 22  1  6  0  0  0
 21 20  2  0  0  0  0
 22 21  1  0  0  0  0
 15 23  1  0  0  0  0
 23 24  1  0  0  0  0
 23 25  2  0  0  0  0
 26 24  1  6  0  0  0
 26 27  1  0  0  0  0
 27 28  1  0  0  0  0
 28 29  1  0  0  0  0
 29 30  1  0  0  0  0
 30 31  1  0  0  0  0
 31 26  1  0  0  0  0
 29 32  1  1  0  0  0
 51 46  1  0  0  0  0
 31 58  1  1  0  0  0
 27 33  1  1  0  0  0
 32 34  1  0  0  0  0
 34 35  1  0  0  0  0
 34 36  2  0  0  0  0
 35 37  2  0  0  0  0
 37 38  1  0  0  0  0
 38 39  2  0  0  0  0
 39 40  1  0  0  0  0
 40 41  2  0  0  0  0
 41 35  1  0  0  0  0
 40 42  1  0  0  0  0
 39 43  1  0  0  0  0
 38 44  1  0  0  0  0
 28 18  1  6  0  0  0
  6 45  1  6  0  0  0
 50 47  1  0  0  0  0
 52 48  1  0  0  0  0
 49 55  1  0  0  0  0
 50 49  2  0  0  0  0
 51 50  1  0  0  0  0
 52 51  2  0  0  0  0
 53 52  1  0  0  0  0
 55 53  2  0  0  0  0
 56 54  2  0  0  0  0
 56 55  1  0  0  0  0
 57 56  1  0  0  0  0
 58 57  1  0  0  0  0
 49 59  1  0  0  0  0
 59 60  2  0  0  0  0
 60 61  1  0  0  0  0
 61 62  2  0  0  0  0
 62 63  1  0  0  0  0
 63 64  2  0  0  0  0
 64 59  1  0  0  0  0
 64 65  1  0  0  0  0
 63 66  1  0  0  0  0
 62 67  1  0  0  0  0
 60 68  1  0  0  0  0
 68 69  2  0  0  0  0
 33 68  1  0  0  0  0
M  END
>  <cdx:fragmentId>
46

$$$$
