442670.cdx
  Mrv1902 05222410272D          

 68 75  0  0  0  0            999 V2000
    6.7875   -5.3520    0.0000 O   0  0  0  0  0  0  0  0  0  0  0  0
    8.8010   -6.9974    0.0000 O   0  0  0  0  0  0  0  0  0  0  0  0
    7.5152   -7.4487    0.0000 O   0  0  0  0  0  0  0  0  0  0  0  0
    8.8198   -4.5628    0.0000 O   0  0  0  0  0  0  0  0  0  0  0  0
    7.5252   -4.0916    0.0000 O   0  0  0  0  0  0  0  0  0  0  0  0
    5.8728   -7.4206    0.0000 O   0  0  0  0  0  0  0  0  0  0  0  0
    9.6815   -8.1423    0.0000 O   0  0  0  0  0  0  0  0  0  0  0  0
    6.6735   -8.8349    0.0000 O   0  0  0  0  0  0  0  0  0  0  0  0
    9.7179   -3.4316    0.0000 O   0  0  0  0  0  0  0  0  0  0  0  0
    6.6978   -7.4206    0.0000 O   0  0  0  0  0  0  0  0  0  0  0  0
   12.9801   -6.1818    0.0000 O   0  0  0  0  0  0  0  0  0  0  0  0
   12.9858   -5.4426    0.0000 O   0  0  0  0  0  0  0  0  0  0  0  0
    7.1077  -11.0244    0.0000 O   0  0  0  0  0  0  0  0  0  0  0  0
    6.2879  -11.0244    0.0000 O   0  0  0  0  0  0  0  0  0  0  0  0
   12.3032   -8.8477    0.0000 O   0  0  0  0  0  0  0  0  0  0  0  0
   13.3975   -7.3860    0.0000 O   0  0  0  0  0  0  0  0  0  0  0  0
   12.3502   -2.7666    0.0000 O   0  0  0  0  0  0  0  0  0  0  0  0
   13.4218   -4.2451    0.0000 O   0  0  0  0  0  0  0  0  0  0  0  0
    9.6424   -9.5740    0.0000 O   0  0  0  0  0  0  0  0  0  0  0  0
    3.7532   -9.5740    0.0000 O   0  0  0  0  0  0  0  0  0  0  0  0
    8.7975  -11.0374    0.0000 O   0  0  0  0  0  0  0  0  0  0  0  0
    4.5981  -11.0374    0.0000 O   0  0  0  0  0  0  0  0  0  0  0  0
    4.5837   -8.1482    0.0000 O   0  0  0  0  0  0  0  0  0  0  0  0
    3.7642   -6.7161    0.0000 O   0  0  0  0  0  0  0  0  0  0  0  0
    2.1142   -6.7098    0.0000 O   0  0  0  0  0  0  0  0  0  0  0  0
    1.2782   -9.5644    0.0000 O   0  0  0  0  0  0  0  0  0  0  0  0
    2.5129  -10.2836    0.0000 O   0  0  0  0  0  0  0  0  0  0  0  0
    8.2660   -6.2055    0.0000 C   0  0  0  0  0  0  0  0  0  0  0  0
    7.5152   -6.6237    0.0000 C   0  0  0  0  0  0  0  0  0  0  0  0
    8.2726   -5.3463    0.0000 C   0  0  0  0  0  0  0  0  0  0  0  0
    6.8008   -6.2112    0.0000 C   0  0  0  0  0  0  0  0  0  0  0  0
    7.5284   -4.9166    0.0000 C   0  0  0  0  0  0  0  0  0  0  0  0
    6.0863   -6.6237    0.0000 C   0  0  0  0  0  0  0  0  0  0  0  0
    9.7014   -7.3175    0.0000 C   0  0  0  0  0  0  0  0  0  0  0  0
    7.1103   -8.1350    0.0000 C   0  0  0  0  0  0  0  0  0  0  0  0
    9.7250   -4.2566    0.0000 C   0  0  0  0  0  0  0  0  0  0  0  0
   10.6163   -7.0412    0.0000 C   0  0  0  0  0  0  0  0  0  0  0  0
   10.6355   -4.5469    0.0000 C   0  0  0  0  0  0  0  0  0  0  0  0
    7.5228   -8.8495    0.0000 C   0  0  0  0  0  0  0  0  0  0  0  0
   11.1890   -6.2762    0.0000 C   0  0  0  0  0  0  0  0  0  0  0  0
   11.1964   -5.3206    0.0000 C   0  0  0  0  0  0  0  0  0  0  0  0
    6.2853   -8.1350    0.0000 C   0  0  0  0  0  0  0  0  0  0  0  0
    7.1103   -9.5640    0.0000 C   0  0  0  0  0  0  0  0  0  0  0  0
    5.8728   -8.8495    0.0000 C   0  0  0  0  0  0  0  0  0  0  0  0
    6.2853   -9.5640    0.0000 C   0  0  0  0  0  0  0  0  0  0  0  0
   10.9940   -7.9623    0.0000 C   0  0  0  0  0  0  0  0  0  0  0  0
   11.0274   -3.6318    0.0000 C   0  0  0  0  0  0  0  0  0  0  0  0
    8.3820   -8.8363    0.0000 C   0  0  0  0  0  0  0  0  0  0  0  0
   12.1791   -6.3792    0.0000 C   0  0  0  0  0  0  0  0  0  0  0  0
   12.1880   -5.2329    0.0000 C   0  0  0  0  0  0  0  0  0  0  0  0
    7.5284  -10.3147    0.0000 C   0  0  0  0  0  0  0  0  0  0  0  0
    5.8671  -10.3147    0.0000 C   0  0  0  0  0  0  0  0  0  0  0  0
    5.0135   -8.8363    0.0000 C   0  0  0  0  0  0  0  0  0  0  0  0
   11.9815   -8.0881    0.0000 C   0  0  0  0  0  0  0  0  0  0  0  0
   12.5780   -7.2912    0.0000 C   0  0  0  0  0  0  0  0  0  0  0  0
   12.0166   -3.5212    0.0000 C   0  0  0  0  0  0  0  0  0  0  0  0
   12.6008   -4.3272    0.0000 C   0  0  0  0  0  0  0  0  0  0  0  0
    8.8174   -9.5772    0.0000 C   0  0  0  0  0  0  0  0  0  0  0  0
    8.3877  -10.3213    0.0000 C   0  0  0  0  0  0  0  0  0  0  0  0
    4.5782   -9.5772    0.0000 C   0  0  0  0  0  0  0  0  0  0  0  0
    5.0078  -10.3213    0.0000 C   0  0  0  0  0  0  0  0  0  0  0  0
    3.3434   -8.8579    0.0000 C   0  0  0  0  0  0  0  0  0  0  0  0
    2.5184   -8.8547    0.0000 C   0  0  0  0  0  0  0  0  0  0  0  0
    3.7587   -8.1450    0.0000 C   0  0  0  0  0  0  0  0  0  0  0  0
    2.1087   -8.1386    0.0000 C   0  0  0  0  0  0  0  0  0  0  0  0
    3.3489   -7.4290    0.0000 C   0  0  0  0  0  0  0  0  0  0  0  0
    2.5239   -7.4259    0.0000 C   0  0  0  0  0  0  0  0  0  0  0  0
    2.1032   -9.5676    0.0000 C   0  0  0  0  0  0  0  0  0  0  0  0
  1 31  1  0  0  0  0
  1 32  1  0  0  0  0
  2 28  1  0  0  0  0
  2 34  1  0  0  0  0
  3 29  1  0  0  0  0
  3 35  1  0  0  0  0
  4 30  1  0  0  0  0
  4 36  1  0  0  0  0
  5 32  1  0  0  0  0
  6 33  1  0  0  0  0
  6 42  1  0  0  0  0
  7 34  2  0  0  0  0
  8 35  2  0  0  0  0
  9 36  2  0  0  0  0
 10 42  2  0  0  0  0
 11 49  1  0  0  0  0
 12 50  1  0  0  0  0
 13 51  1  0  0  0  0
 14 52  1  0  0  0  0
 15 54  1  0  0  0  0
 16 55  1  0  0  0  0
 17 56  1  0  0  0  0
 18 57  1  0  0  0  0
 19 58  1  0  0  0  0
 20 60  1  0  0  0  0
 20 62  1  0  0  0  0
 21 59  1  0  0  0  0
 22 61  1  0  0  0  0
 23 64  1  0  0  0  0
 24 66  1  0  0  0  0
 25 67  1  0  0  0  0
 26 68  1  0  0  0  0
 27 68  2  0  0  0  0
 28 29  1  0  0  0  0
 28 30  1  0  0  0  0
 29 31  1  0  0  0  0
 30 32  1  0  0  0  0
 31 33  1  0  0  0  0
 34 37  1  0  0  0  0
 35 39  1  0  0  0  0
 36 38  1  0  0  0  0
 37 40  1  0  0  0  0
 37 46  2  0  0  0  0
 38 41  1  0  0  0  0
 38 47  2  0  0  0  0
 39 43  1  0  0  0  0
 39 48  2  0  0  0  0
 40 41  1  0  0  0  0
 40 49  2  0  0  0  0
 41 50  2  0  0  0  0
 42 44  1  0  0  0  0
 43 45  1  0  0  0  0
 43 51  2  0  0  0  0
 44 45  1  0  0  0  0
 44 53  2  0  0  0  0
 45 52  2  0  0  0  0
 46 54  1  0  0  0  0
 47 56  1  0  0  0  0
 48 58  1  0  0  0  0
 49 55  1  0  0  0  0
 50 57  1  0  0  0  0
 51 59  1  0  0  0  0
 52 61  1  0  0  0  0
 53 60  1  0  0  0  0
 54 55  2  0  0  0  0
 56 57  2  0  0  0  0
 58 59  2  0  0  0  0
 60 61  2  0  0  0  0
 62 63  1  0  0  0  0
 62 64  2  0  0  0  0
 63 65  2  0  0  0  0
 63 68  1  0  0  0  0
 64 66  1  0  0  0  0
 65 67  1  0  0  0  0
 66 67  2  0  0  0  0
M  END
>  <cdx:fragmentId>
1

$$$$
