6442682.cdx
  Mrv1902 05222410182D          

 37 39  0  0  0  0            999 V2000
    4.9244   -7.7269    0.0000 C   0  0  0  0  0  0  0  0  0  0  0  0
    5.6388   -8.1394    0.0000 C   0  0  0  0  0  0  0  0  0  0  0  0
    6.3533   -7.7269    0.0000 C   0  0  0  0  0  0  0  0  0  0  0  0
    6.3533   -6.9019    0.0000 C   0  0  0  0  0  0  0  0  0  0  0  0
    5.6388   -6.4894    0.0000 C   0  0  0  0  0  0  0  0  0  0  0  0
    4.9244   -6.9019    0.0000 O   0  0  0  0  0  0  0  0  0  0  0  0
    5.6388   -8.9644    0.0000 C   0  0  0  0  0  0  0  0  0  0  0  0
    6.3533   -9.3769    0.0000 O   0  0  0  0  0  0  0  0  0  0  0  0
    4.9244   -9.3769    0.0000 O   0  0  0  0  0  0  0  0  0  0  0  0
    5.6388   -5.6644    0.0000 O   0  0  0  0  0  0  0  0  0  0  0  0
    4.2099   -5.6644    0.0000 O   0  0  0  0  0  0  0  0  0  0  0  0
    4.9244   -5.2519    0.0000 C   0  0  2  0  0  0  0  0  0  0  0  0
    4.9244   -4.4269    0.0000 C   0  0  1  0  0  0  0  0  0  0  0  0
    4.2099   -4.0144    0.0000 C   0  0  2  0  0  0  0  0  0  0  0  0
    3.4954   -4.4269    0.0000 C   0  0  1  0  0  0  0  0  0  0  0  0
    3.4954   -5.2519    0.0000 C   0  0  1  0  0  0  0  0  0  0  0  0
    2.7809   -5.6644    0.0000 C   0  0  0  0  0  0  0  0  0  0  0  0
    2.0665   -5.2519    0.0000 O   0  0  0  0  0  0  0  0  0  0  0  0
    2.7809   -4.0144    0.0000 O   0  0  0  0  0  0  0  0  0  0  0  0
    4.2099   -3.1894    0.0000 O   0  0  0  0  0  0  0  0  0  0  0  0
    5.6388   -4.0144    0.0000 O   0  0  0  0  0  0  0  0  0  0  0  0
    7.0678   -8.1394    0.0000 C   0  0  0  0  0  0  0  0  0  0  0  0
    7.7822   -7.7269    0.0000 C   0  0  0  0  0  0  0  0  0  0  0  0
    7.7822   -6.9019    0.0000 O   0  0  0  0  0  0  0  0  0  0  0  0
    8.4967   -8.1394    0.0000 O   0  0  0  0  0  0  0  0  0  0  0  0
    9.2112   -7.7269    0.0000 C   0  0  0  0  0  0  0  0  0  0  0  0
    9.9256   -8.1394    0.0000 C   0  0  0  0  0  0  0  0  0  0  0  0
   10.6401   -7.7269    0.0000 C   0  0  0  0  0  0  0  0  0  0  0  0
   10.6401   -6.9019    0.0000 C   0  0  0  0  0  0  0  0  0  0  0  0
   11.3546   -6.4894    0.0000 C   0  0  0  0  0  0  0  0  0  0  0  0
   12.0691   -6.9019    0.0000 C   0  0  0  0  0  0  0  0  0  0  0  0
   12.0691   -7.7269    0.0000 C   0  0  0  0  0  0  0  0  0  0  0  0
   11.3546   -8.1394    0.0000 C   0  0  0  0  0  0  0  0  0  0  0  0
   12.7835   -6.4894    0.0000 O   0  0  0  0  0  0  0  0  0  0  0  0
    7.0678   -6.4894    0.0000 C   0  0  0  0  0  0  0  0  0  0  0  0
    7.0678   -5.6644    0.0000 C   0  0  0  0  0  0  0  0  0  0  0  0
    4.9244  -10.2019    0.0000 C   0  0  0  0  0  0  0  0  0  0  0  0
  1  2  2  0  0  0  0
  2  3  1  0  0  0  0
  3  4  1  0  0  0  0
  4  5  1  0  0  0  0
  5  6  1  0  0  0  0
  1  6  1  0  0  0  0
  7  8  2  0  0  0  0
  7  9  1  0  0  0  0
  2  7  1  0  0  0  0
 11 12  1  0  0  0  0
 12 13  1  0  0  0  0
 13 14  1  0  0  0  0
 14 15  1  0  0  0  0
 15 16  1  0  0  0  0
 11 16  1  0  0  0  0
 17 18  1  0  0  0  0
 16 17  1  6  0  0  0
 15 19  1  1  0  0  0
 14 20  1  6  0  0  0
 13 21  1  1  0  0  0
 12 10  1  6  0  0  0
  5 10  1  0  0  0  0
 22 23  1  0  0  0  0
 23 24  2  0  0  0  0
 26 27  1  0  0  0  0
 25 26  1  0  0  0  0
 28 29  1  0  0  0  0
 29 30  2  0  0  0  0
 30 31  1  0  0  0  0
 31 32  2  0  0  0  0
 32 33  1  0  0  0  0
 28 33  2  0  0  0  0
 31 34  1  0  0  0  0
 27 28  1  0  0  0  0
 23 25  1  0  0  0  0
  3 22  1  0  0  0  0
 35 36  1  0  0  0  0
  4 35  2  0  0  0  0
  9 37  1  0  0  0  0
M  END
>  <cdx:groupId>
115

>  <cdx:fragmentId>
25

$$$$
