442612.cdx
  Mrv1902 05222410242D          

 24 24  0  0  0  0            999 V2000
    4.3856   -8.4062    0.0000 C   0  0  0  0  0  0  0  0  0  0  0  0
    5.1001   -8.8187    0.0000 C   0  0  0  0  0  0  0  0  0  0  0  0
    5.8146   -8.4062    0.0000 C   0  0  0  0  0  0  0  0  0  0  0  0
    6.5290   -8.8187    0.0000 C   0  0  0  0  0  0  0  0  0  0  0  0
    7.2435   -8.4062    0.0000 C   0  0  0  0  0  0  0  0  0  0  0  0
    7.9580   -8.8187    0.0000 C   0  0  0  0  0  0  0  0  0  0  0  0
    8.6724   -8.4062    0.0000 C   0  0  0  0  0  0  0  0  0  0  0  0
    9.3869   -8.8187    0.0000 C   0  0  0  0  0  0  0  0  0  0  0  0
   10.1014   -8.4062    0.0000 C   0  0  0  0  0  0  0  0  0  0  0  0
   10.8159   -8.8187    0.0000 C   0  0  0  0  0  0  0  0  0  0  0  0
   11.5303   -8.4062    0.0000 C   0  0  0  0  0  0  0  0  0  0  0  0
   12.2448   -8.8187    0.0000 C   0  0  0  0  0  0  0  0  0  0  0  0
   12.9593   -8.4062    0.0000 C   0  0  0  0  0  0  0  0  0  0  0  0
   13.6737   -8.8187    0.0000 C   0  0  0  0  0  0  0  0  0  0  0  0
    5.8146   -7.5812    0.0000 O   0  0  0  0  0  0  0  0  0  0  0  0
    3.6711   -8.8187    0.0000 C   0  0  0  0  0  0  0  0  0  0  0  0
    2.9567   -8.4062    0.0000 C   0  0  0  0  0  0  0  0  0  0  0  0
    2.2422   -8.8187    0.0000 C   0  0  0  0  0  0  0  0  0  0  0  0
    2.2422   -9.6437    0.0000 C   0  0  0  0  0  0  0  0  0  0  0  0
    2.9567  -10.0562    0.0000 C   0  0  0  0  0  0  0  0  0  0  0  0
    3.6711   -9.6437    0.0000 C   0  0  0  0  0  0  0  0  0  0  0  0
    1.5277   -8.4062    0.0000 O   0  0  0  0  0  0  0  0  0  0  0  0
    0.8133   -8.8187    0.0000 C   0  0  0  0  0  0  0  0  0  0  0  0
    1.5277  -10.0562    0.0000 O   0  0  0  0  0  0  0  0  0  0  0  0
  1  2  1  0  0  0  0
  2  3  1  0  0  0  0
  3  4  1  0  0  0  0
  4  5  2  0  0  0  0
  5  6  1  0  0  0  0
  6  7  1  0  0  0  0
  7  8  1  0  0  0  0
  8  9  1  0  0  0  0
  9 10  1  0  0  0  0
 10 11  1  0  0  0  0
 11 12  1  0  0  0  0
 12 13  1  0  0  0  0
 13 14  1  0  0  0  0
  3 15  2  0  0  0  0
 16 17  1  0  0  0  0
 17 18  2  0  0  0  0
 18 19  1  0  0  0  0
 19 20  2  0  0  0  0
 20 21  1  0  0  0  0
 16 21  2  0  0  0  0
 22 23  1  0  0  0  0
 18 22  1  0  0  0  0
 19 24  1  0  0  0  0
  1 16  1  0  0  0  0
M  END
>  <cdx:groupId>
19861

>  <cdx:fragmentId>
19792

$$$$
