442690.cdx
  Mrv1902 05222410202D          

 58 63  0  0  0  0            999 V2000
    8.3118   -8.7325    0.0000 C   0  0  0  0  0  0  0  0  0  0  0  0
    8.3063   -9.5575    0.0000 C   0  0  0  0  0  0  0  0  0  0  0  0
    9.0180   -9.9747    0.0000 C   0  0  0  0  0  0  0  0  0  0  0  0
    9.0126  -10.7997    0.0000 C   0  0  0  0  0  0  0  0  0  0  0  0
    8.2954  -11.2074    0.0000 C   0  0  0  0  0  0  0  0  0  0  0  0
    7.5837  -10.7902    0.0000 C   0  0  0  0  0  0  0  0  0  0  0  0
    7.5891   -9.9652    0.0000 C   0  0  0  0  0  0  0  0  0  0  0  0
    9.0290   -8.3247    0.0000 O   0  0  0  0  0  0  0  0  0  0  0  0
    7.6012   -8.3132    0.0000 O   0  0  0  0  0  0  0  0  0  0  0  0
    6.8665  -11.1980    0.0000 O   0  0  0  0  0  0  0  0  0  0  0  0
    8.2899  -12.0324    0.0000 O   0  0  0  0  0  0  0  0  0  0  0  0
    9.7243  -11.2169    0.0000 O   0  0  0  0  0  0  0  0  0  0  0  0
    4.0106   -7.7999    0.0000 C   0  0  0  0  0  0  0  0  0  0  0  0
    4.4892   -8.4719    0.0000 C   0  0  0  0  0  0  0  0  0  0  0  0
    3.9639   -9.1081    0.0000 C   0  0  0  0  0  0  0  0  0  0  0  0
    4.2523   -9.8811    0.0000 C   0  0  0  0  0  0  0  0  0  0  0  0
    5.0658  -10.0179    0.0000 C   0  0  0  0  0  0  0  0  0  0  0  0
    5.5911   -9.3817    0.0000 C   0  0  0  0  0  0  0  0  0  0  0  0
    5.3027   -8.6087    0.0000 C   0  0  0  0  0  0  0  0  0  0  0  0
    5.9747   -8.1301    0.0000 C   0  0  0  0  0  0  0  0  0  0  0  0
    6.1115   -7.3165    0.0000 O   0  0  0  0  0  0  0  0  0  0  0  0
    6.8985   -7.0690    0.0000 C   0  0  1  0  0  0  0  0  0  0  0  0
    7.6091   -7.4883    0.0000 C   0  0  1  0  0  0  0  0  0  0  0  0
    8.3274   -7.0826    0.0000 C   0  0  2  0  0  0  0  0  0  0  0  0
    8.3352   -6.2576    0.0000 C   0  0  1  0  0  0  0  0  0  0  0  0
    7.6247   -5.8384    0.0000 O   0  0  0  0  0  0  0  0  0  0  0  0
    6.9063   -6.2441    0.0000 C   0  0  2  0  0  0  0  0  0  0  0  0
    6.1242   -5.9817    0.0000 C   0  0  0  0  0  0  0  0  0  0  0  0
    5.6329   -6.6445    0.0000 O   0  0  0  0  0  0  0  0  0  0  0  0
    4.8194   -6.5077    0.0000 C   0  0  0  0  0  0  0  0  0  0  0  0
    4.1474   -6.9863    0.0000 C   0  0  0  0  0  0  0  0  0  0  0  0
    3.5112   -6.4611    0.0000 C   0  0  0  0  0  0  0  0  0  0  0  0
    2.7382   -6.7494    0.0000 C   0  0  0  0  0  0  0  0  0  0  0  0
    2.6014   -7.5630    0.0000 C   0  0  0  0  0  0  0  0  0  0  0  0
    3.2376   -8.0883    0.0000 C   0  0  0  0  0  0  0  0  0  0  0  0
    9.0379   -7.5018    0.0000 O   0  0  0  0  0  0  0  0  0  0  0  0
    9.7563   -7.0961    0.0000 C   0  0  0  0  0  0  0  0  0  0  0  0
   10.4680   -7.5133    0.0000 C   0  0  0  0  0  0  0  0  0  0  0  0
   11.1852   -7.1056    0.0000 C   0  0  0  0  0  0  0  0  0  0  0  0
   11.8969   -7.5228    0.0000 C   0  0  0  0  0  0  0  0  0  0  0  0
   11.8915   -8.3478    0.0000 C   0  0  0  0  0  0  0  0  0  0  0  0
   11.1743   -8.7555    0.0000 C   0  0  0  0  0  0  0  0  0  0  0  0
   10.4626   -8.3383    0.0000 C   0  0  0  0  0  0  0  0  0  0  0  0
    9.7617   -6.2711    0.0000 O   0  0  0  0  0  0  0  0  0  0  0  0
   11.1688   -9.5805    0.0000 O   0  0  0  0  0  0  0  0  0  0  0  0
   12.6032   -8.7650    0.0000 O   0  0  0  0  0  0  0  0  0  0  0  0
   12.6141   -7.1150    0.0000 O   0  0  0  0  0  0  0  0  0  0  0  0
    4.6111   -5.7095    0.0000 O   0  0  0  0  0  0  0  0  0  0  0  0
    6.6741   -8.5678    0.0000 O   0  0  0  0  0  0  0  0  0  0  0  0
    2.8308   -8.8060    0.0000 O   0  0  0  0  0  0  0  0  0  0  0  0
    1.8284   -7.8514    0.0000 O   0  0  0  0  0  0  0  0  0  0  0  0
    2.1020   -6.2242    0.0000 O   0  0  0  0  0  0  0  0  0  0  0  0
    9.0536   -5.8519    0.0000 O   0  0  0  0  0  0  0  0  0  0  0  0
    5.3542  -10.7908    0.0000 O   0  0  0  0  0  0  0  0  0  0  0  0
    3.7270  -10.5173    0.0000 O   0  0  0  0  0  0  0  0  0  0  0  0
    3.1526   -9.2578    0.0000 O   0  0  0  0  0  0  0  0  0  0  0  0
    6.8045   -7.8887    0.0000 H   0  0  0  0  0  0  0  0  0  0  0  0
    6.8279   -5.4228    0.0000 H   0  0  0  0  0  0  0  0  0  0  0  0
  1  2  1  0  0  0  0
  2  3  1  0  0  0  0
  3  4  2  0  0  0  0
  4  5  1  0  0  0  0
  5  6  2  0  0  0  0
  6  7  1  0  0  0  0
  2  7  2  0  0  0  0
  1  8  2  0  0  0  0
  1  9  1  0  0  0  0
  6 10  1  0  0  0  0
  5 11  1  0  0  0  0
  4 12  1  0  0  0  0
 13 14  1  0  0  0  0
 14 15  2  0  0  0  0
 15 16  1  0  0  0  0
 16 17  2  0  0  0  0
 17 18  1  0  0  0  0
 18 19  2  0  0  0  0
 19 20  1  0  0  0  0
 20 21  1  0  0  0  0
 21 22  1  0  0  0  0
 22 23  1  0  0  0  0
 23 24  1  0  0  0  0
 24 25  1  0  0  0  0
 25 26  1  0  0  0  0
 26 27  1  0  0  0  0
 27 28  1  0  0  0  0
 28 29  1  0  0  0  0
 29 30  1  0  0  0  0
 30 31  1  0  0  0  0
 31 32  2  0  0  0  0
 32 33  1  0  0  0  0
 33 34  2  0  0  0  0
 34 35  1  0  0  0  0
 13 35  2  0  0  0  0
 13 31  1  0  0  0  0
 22 27  1  0  0  0  0
 14 19  1  0  0  0  0
 37 38  1  0  0  0  0
 38 39  1  0  0  0  0
 39 40  2  0  0  0  0
 40 41  1  0  0  0  0
 41 42  2  0  0  0  0
 42 43  1  0  0  0  0
 38 43  2  0  0  0  0
 37 44  2  0  0  0  0
 42 45  1  0  0  0  0
 41 46  1  0  0  0  0
 40 47  1  0  0  0  0
 36 37  1  0  0  0  0
 24 36  1  6  0  0  0
 30 48  2  0  0  0  0
 20 49  2  0  0  0  0
 35 50  1  0  0  0  0
 34 51  1  0  0  0  0
 33 52  1  0  0  0  0
 25 53  1  1  0  0  0
 17 54  1  0  0  0  0
 16 55  1  0  0  0  0
 15 56  1  0  0  0  0
 23  9  1  1  0  0  0
 22 57  1  1  0  0  0
 27 58  1  6  0  0  0
M  END
>  <cdx:groupId>
12113

>  <cdx:fragmentId>
11961

$$$$
