442675.cdx
  Mrv1902 05222410272D          

 33 37  0  0  0  0            999 V2000
    5.6883   -8.8187    0.0000 C   0  0  0  0  0  0  0  0  0  0  0  0
    5.6883   -7.9937    0.0000 C   0  0  0  0  0  0  0  0  0  0  0  0
    6.4028   -7.5812    0.0000 C   0  0  2  0  0  0  0  0  0  0  0  0
    7.1173   -7.9937    0.0000 C   0  0  0  0  0  0  0  0  0  0  0  0
    7.8317   -7.5812    0.0000 C   0  0  0  0  0  0  0  0  0  0  0  0
    8.5462   -7.9937    0.0000 C   0  0  0  0  0  0  0  0  0  0  0  0
    8.5462   -8.8187    0.0000 C   0  0  0  0  0  0  0  0  0  0  0  0
    7.8317   -9.2312    0.0000 C   0  0  0  0  0  0  0  0  0  0  0  0
    7.1173   -8.8187    0.0000 C   0  0  0  0  0  0  0  0  0  0  0  0
    6.4028   -9.2312    0.0000 O   0  0  0  0  0  0  0  0  0  0  0  0
    9.2607   -7.5812    0.0000 C   0  0  0  0  0  0  0  0  0  0  0  0
    9.2607   -6.7562    0.0000 C   0  0  2  0  0  0  0  0  0  0  0  0
    8.5462   -6.3437    0.0000 C   0  0  2  0  0  0  0  0  0  0  0  0
    7.8317   -6.7562    0.0000 O   0  0  0  0  0  0  0  0  0  0  0  0
    4.9739   -9.2312    0.0000 O   0  0  0  0  0  0  0  0  0  0  0  0
    9.2607   -9.2312    0.0000 O   0  0  0  0  0  0  0  0  0  0  0  0
    9.9751   -6.3437    0.0000 O   0  0  0  0  0  0  0  0  0  0  0  0
    6.4028   -6.7562    0.0000 C   0  0  0  0  0  0  0  0  0  0  0  0
    5.6883   -6.3437    0.0000 C   0  0  0  0  0  0  0  0  0  0  0  0
    5.6883   -5.5187    0.0000 C   0  0  0  0  0  0  0  0  0  0  0  0
    6.4028   -5.1062    0.0000 C   0  0  0  0  0  0  0  0  0  0  0  0
    7.1173   -5.5187    0.0000 C   0  0  0  0  0  0  0  0  0  0  0  0
    7.1173   -6.3437    0.0000 C   0  0  0  0  0  0  0  0  0  0  0  0
    6.4028   -4.2812    0.0000 O   0  0  0  0  0  0  0  0  0  0  0  0
    4.9739   -5.1062    0.0000 O   0  0  0  0  0  0  0  0  0  0  0  0
    8.5462   -5.5187    0.0000 C   0  0  0  0  0  0  0  0  0  0  0  0
    7.8317   -5.1062    0.0000 C   0  0  0  0  0  0  0  0  0  0  0  0
    7.8317   -4.2812    0.0000 C   0  0  0  0  0  0  0  0  0  0  0  0
    8.5462   -3.8687    0.0000 C   0  0  0  0  0  0  0  0  0  0  0  0
    9.2607   -4.2812    0.0000 C   0  0  0  0  0  0  0  0  0  0  0  0
    9.2607   -5.1062    0.0000 C   0  0  0  0  0  0  0  0  0  0  0  0
    8.5462   -3.0437    0.0000 O   0  0  0  0  0  0  0  0  0  0  0  0
    9.9751   -3.8687    0.0000 O   0  0  0  0  0  0  0  0  0  0  0  0
  1  2  1  0  0  0  0
  2  3  1  0  0  0  0
  3  4  1  0  0  0  0
  4  5  1  0  0  0  0
  5  6  2  0  0  0  0
  6  7  1  0  0  0  0
  7  8  2  0  0  0  0
  8  9  1  0  0  0  0
  4  9  2  0  0  0  0
  9 10  1  0  0  0  0
  1 10  1  0  0  0  0
 11 12  1  0  0  0  0
 12 13  1  0  0  0  0
 13 14  1  0  0  0  0
 14  5  1  0  0  0  0
 11  6  1  0  0  0  0
  1 15  2  0  0  0  0
  7 16  1  0  0  0  0
 12 17  1  6  0  0  0
 18 19  1  0  0  0  0
 19 20  2  0  0  0  0
 20 21  1  0  0  0  0
 21 22  2  0  0  0  0
 22 23  1  0  0  0  0
 18 23  2  0  0  0  0
 21 24  1  0  0  0  0
 20 25  1  0  0  0  0
  3 18  1  1  0  0  0
 26 27  1  0  0  0  0
 27 28  2  0  0  0  0
 28 29  1  0  0  0  0
 29 30  2  0  0  0  0
 30 31  1  0  0  0  0
 26 31  2  0  0  0  0
 29 32  1  0  0  0  0
 13 26  1  6  0  0  0
 30 33  1  0  0  0  0
M  END
>  <cdx:groupId>
1532

>  <cdx:fragmentId>
1432

$$$$
