442615.cdx
  Mrv1902 05222410232D          

 45 49  0  0  0  0            999 V2000
    7.5529   -6.8791    0.0000 O   0  0  0  0  0  0  0  0  0  0  0  0
    6.8384   -7.2916    0.0000 C   0  0  2  0  0  0  0  0  0  0  0  0
    6.1239   -6.8791    0.0000 C   0  0  1  0  0  0  0  0  0  0  0  0
    6.1239   -6.0541    0.0000 C   0  0  2  0  0  0  0  0  0  0  0  0
    6.8384   -5.6416    0.0000 C   0  0  1  0  0  0  0  0  0  0  0  0
    7.5529   -6.0541    0.0000 C   0  0  1  0  0  0  0  0  0  0  0  0
    8.2674   -5.6416    0.0000 C   0  0  0  0  0  0  0  0  0  0  0  0
    8.9818   -6.0541    0.0000 O   0  0  0  0  0  0  0  0  0  0  0  0
    6.8384   -4.8166    0.0000 O   0  0  0  0  0  0  0  0  0  0  0  0
    5.4095   -5.6416    0.0000 O   0  0  0  0  0  0  0  0  0  0  0  0
    5.4095   -7.2916    0.0000 O   0  0  0  0  0  0  0  0  0  0  0  0
   11.8397   -8.5291    0.0000 O   0  0  0  0  0  0  0  0  0  0  0  0
   11.8397   -6.8791    0.0000 O   0  0  0  0  0  0  0  0  0  0  0  0
    9.6963   -7.2916    0.0000 C   0  0  0  0  0  0  0  0  0  0  0  0
   10.4108   -6.8791    0.0000 C   0  0  0  0  0  0  0  0  0  0  0  0
   11.1252   -7.2916    0.0000 C   0  0  0  0  0  0  0  0  0  0  0  0
   11.1252   -8.1166    0.0000 C   0  0  0  0  0  0  0  0  0  0  0  0
   10.4108   -8.5291    0.0000 C   0  0  0  0  0  0  0  0  0  0  0  0
    9.6963   -8.1166    0.0000 C   0  0  0  0  0  0  0  0  0  0  0  0
    6.8384  -10.5916    0.0000 O   0  0  0  0  0  0  0  0  0  0  0  0
    5.4095   -8.1166    0.0000 O   0  0  0  0  0  0  0  0  0  0  0  0
    6.1239  -11.0041    0.0000 O   0  0  0  0  0  0  0  0  0  0  0  0
    4.6950  -11.8291    0.0000 O   0  0  0  0  0  0  0  0  0  0  0  0
    3.2661  -11.0041    0.0000 O   0  0  0  0  0  0  0  0  0  0  0  0
    2.5516   -9.7666    0.0000 O   0  0  0  0  0  0  0  0  0  0  0  0
    3.2661   -9.3541    0.0000 C   0  0  0  0  0  0  0  0  0  0  0  0
    3.9805   -9.7666    0.0000 C   0  0  2  0  0  0  0  0  0  0  0  0
    3.9805  -10.5916    0.0000 C   0  0  2  0  0  0  0  0  0  0  0  0
    4.6950  -11.0041    0.0000 C   0  0  1  0  0  0  0  0  0  0  0  0
    5.4095  -10.5916    0.0000 C   0  0  2  0  0  0  0  0  0  0  0  0
    5.4095   -9.7666    0.0000 C   0  0  1  0  0  0  0  0  0  0  0  0
    4.6950   -9.3541    0.0000 O   0  0  0  0  0  0  0  0  0  0  0  0
    8.2674  -10.5916    0.0000 O   0  0  0  0  0  0  0  0  0  0  0  0
    8.2674   -8.1166    0.0000 O   0  0  0  0  0  0  0  0  0  0  0  0
    7.5529   -8.5291    0.0000 C   0  0  0  0  0  0  0  0  0  0  0  0
    6.8384   -8.1166    0.0000 C   0  0  0  0  0  0  0  0  0  0  0  0
    6.1239   -8.5291    0.0000 C   0  0  0  0  0  0  0  0  0  0  0  0
    6.1239   -9.3541    0.0000 C   0  0  0  0  0  0  0  0  0  0  0  0
    6.8384   -9.7666    0.0000 C   0  0  0  0  0  0  0  0  0  0  0  0
    7.5529   -9.3541    0.0000 C   0  0  0  0  0  0  0  0  0  0  0  0
    8.2674   -9.7666    0.0000 C   0  0  0  0  0  0  0  0  0  0  0  0
    8.9818   -9.3541    0.0000 C   0  0  0  0  0  0  0  0  0  0  0  0
    8.9818   -8.5291    0.0000 C   0  0  0  0  0  0  0  0  0  0  0  0
    5.4095   -8.9416    0.0000 H   0  0  0  0  0  0  0  0  0  0  0  0
    7.5529   -7.7041    0.0000 H   0  0  0  0  0  0  0  0  0  0  0  0
 43 19  1  0  0  0  0
 17 12  1  0  0  0  0
 16 13  1  0  0  0  0
 19 14  2  0  0  0  0
 15 14  1  0  0  0  0
 16 15  2  0  0  0  0
 17 16  1  0  0  0  0
 18 17  2  0  0  0  0
 19 18  1  0  0  0  0
 39 20  1  0  0  0  0
 37 21  1  0  0  0  0
 31 38  1  0  0  0  0
 30 22  1  6  0  0  0
 29 23  1  1  0  0  0
 28 24  1  6  0  0  0
 27 26  1  1  0  0  0
 26 25  1  0  0  0  0
 32 27  1  0  0  0  0
 28 27  1  0  0  0  0
 29 28  1  0  0  0  0
 30 29  1  0  0  0  0
 31 30  1  0  0  0  0
 32 31  1  0  0  0  0
  2 36  1  0  0  0  0
 41 33  2  0  0  0  0
 43 34  1  0  0  0  0
 35 34  1  0  0  0  0
 40 35  2  0  0  0  0
 36 35  1  0  0  0  0
 37 36  2  0  0  0  0
 38 37  1  0  0  0  0
 39 38  2  0  0  0  0
 40 39  1  0  0  0  0
 41 40  1  0  0  0  0
 42 41  1  0  0  0  0
 43 42  2  0  0  0  0
  1  2  1  0  0  0  0
  2  3  1  0  0  0  0
  3  4  1  0  0  0  0
  4  5  1  0  0  0  0
  5  6  1  0  0  0  0
  1  6  1  0  0  0  0
  7  8  1  0  0  0  0
  6  7  1  1  0  0  0
  5  9  1  6  0  0  0
  4 10  1  1  0  0  0
  3 11  1  6  0  0  0
 31 44  1  6  0  0  0
  2 45  1  6  0  0  0
M  END
>  <cdx:fragmentId>
5

$$$$
