442688.cdx
  Mrv1902 05222410262D          

 60 66  0  0  0  0            999 V2000
    7.3158   -5.5410    0.0000 C   0  0  1  0  0  0  0  0  0  0  0  0
    8.0318   -5.9507    0.0000 C   0  0  1  0  0  0  0  0  0  0  0  0
    8.7447   -5.5354    0.0000 C   0  0  2  0  0  0  0  0  0  0  0  0
    8.7415   -4.7104    0.0000 C   0  0  1  0  0  0  0  0  0  0  0  0
    8.0254   -4.3007    0.0000 O   0  0  0  0  0  0  0  0  0  0  0  0
    7.3126   -4.7160    0.0000 C   0  0  2  0  0  0  0  0  0  0  0  0
    6.5270   -4.4641    0.0000 C   0  0  0  0  0  0  0  0  0  0  0  0
    6.0446   -5.1334    0.0000 O   0  0  0  0  0  0  0  0  0  0  0  0
    5.2293   -5.0075    0.0000 C   0  0  0  0  0  0  0  0  0  0  0  0
    4.5637   -5.4950    0.0000 C   0  0  0  0  0  0  0  0  0  0  0  0
    3.9206   -4.9783    0.0000 C   0  0  0  0  0  0  0  0  0  0  0  0
    3.1515   -5.2770    0.0000 C   0  0  0  0  0  0  0  0  0  0  0  0
    3.0256   -6.0923    0.0000 C   0  0  0  0  0  0  0  0  0  0  0  0
    3.6688   -6.6090    0.0000 C   0  0  0  0  0  0  0  0  0  0  0  0
    4.4379   -6.3104    0.0000 C   0  0  0  0  0  0  0  0  0  0  0  0
    4.9254   -6.9759    0.0000 C   0  0  0  0  0  0  0  0  0  0  0  0
    4.4087   -7.6191    0.0000 C   0  0  0  0  0  0  0  0  0  0  0  0
    4.7073   -8.3881    0.0000 C   0  0  0  0  0  0  0  0  0  0  0  0
    5.5227   -8.5140    0.0000 C   0  0  0  0  0  0  0  0  0  0  0  0
    6.0393   -7.8709    0.0000 C   0  0  0  0  0  0  0  0  0  0  0  0
    5.7407   -7.1018    0.0000 C   0  0  0  0  0  0  0  0  0  0  0  0
    6.4063   -6.6143    0.0000 C   0  0  0  0  0  0  0  0  0  0  0  0
    6.5321   -5.7990    0.0000 O   0  0  0  0  0  0  0  0  0  0  0  0
    5.0104   -4.2121    0.0000 O   0  0  0  0  0  0  0  0  0  0  0  0
    7.1113   -7.0426    0.0000 O   0  0  0  0  0  0  0  0  0  0  0  0
    5.8213   -9.2831    0.0000 O   0  0  0  0  0  0  0  0  0  0  0  0
    4.1906   -9.0313    0.0000 O   0  0  0  0  0  0  0  0  0  0  0  0
    3.5994   -7.7796    0.0000 O   0  0  0  0  0  0  0  0  0  0  0  0
    3.2716   -7.3321    0.0000 O   0  0  0  0  0  0  0  0  0  0  0  0
    2.2566   -6.3910    0.0000 O   0  0  0  0  0  0  0  0  0  0  0  0
    2.5084   -4.7603    0.0000 O   0  0  0  0  0  0  0  0  0  0  0  0
    9.4544   -4.2951    0.0000 O   0  0  0  0  0  0  0  0  0  0  0  0
    6.9033   -6.2554    0.0000 H   0  0  0  0  0  0  0  0  0  0  0  0
    7.3174   -6.3632    0.0000 H   0  0  0  0  0  0  0  0  0  0  0  0
    9.3281   -4.9520    0.0000 H   0  0  0  0  0  0  0  0  0  0  0  0
    7.2231   -3.8958    0.0000 H   0  0  0  0  0  0  0  0  0  0  0  0
    7.7550   -6.6275    0.0000 O   0  0  0  0  0  0  0  0  0  0  0  0
    9.5425   -5.6100    0.0000 O   0  0  0  0  0  0  0  0  0  0  0  0
   10.2025   -6.1325    0.0000 C   0  0  0  0  0  0  0  0  0  0  0  0
   10.3950   -6.9575    0.0000 C   0  0  0  0  0  0  0  0  0  0  0  0
   10.0366   -7.7126    0.0000 C   0  0  0  0  0  0  0  0  0  0  0  0
    9.3221   -8.1251    0.0000 C   0  0  0  0  0  0  0  0  0  0  0  0
    8.4975   -8.0575    0.0000 C   0  0  0  0  0  0  0  0  0  0  0  0
    7.8375   -7.3975    0.0000 C   0  0  0  0  0  0  0  0  0  0  0  0
    7.1230   -7.8100    0.0000 O   0  0  0  0  0  0  0  0  0  0  0  0
   10.9170   -5.7200    0.0000 O   0  0  0  0  0  0  0  0  0  0  0  0
    8.0266   -8.7378    0.0000 C   0  0  0  0  0  0  0  0  0  0  0  0
    8.3804   -9.4858    0.0000 C   0  0  0  0  0  0  0  0  0  0  0  0
    9.2050   -9.5534    0.0000 C   0  0  0  0  0  0  0  0  0  0  0  0
    9.6758   -8.8731    0.0000 C   0  0  0  0  0  0  0  0  0  0  0  0
   10.5113   -8.4006    0.0000 C   0  0  0  0  0  0  0  0  0  0  0  0
   11.3445   -8.3334    0.0000 C   0  0  0  0  0  0  0  0  0  0  0  0
   11.7029   -7.5783    0.0000 C   0  0  0  0  0  0  0  0  0  0  0  0
   11.2282   -6.8903    0.0000 C   0  0  0  0  0  0  0  0  0  0  0  0
    7.9108  -10.1641    0.0000 O   0  0  0  0  0  0  0  0  0  0  0  0
    9.5577  -10.2992    0.0000 O   0  0  0  0  0  0  0  0  0  0  0  0
   10.2592   -9.4565    0.0000 O   0  0  0  0  0  0  0  0  0  0  0  0
   11.8131   -9.0124    0.0000 O   0  0  0  0  0  0  0  0  0  0  0  0
   12.5253   -7.5120    0.0000 O   0  0  0  0  0  0  0  0  0  0  0  0
   10.7249   -9.1975    0.0000 O   0  0  0  0  0  0  0  0  0  0  0  0
  1  2  1  0  0  0  0
  3  4  1  0  0  0  0
  4  5  1  0  0  0  0
  5  6  1  0  0  0  0
  6  7  1  0  0  0  0
  7  8  1  0  0  0  0
  8  9  1  0  0  0  0
  9 10  1  0  0  0  0
 10 11  2  0  0  0  0
 11 12  1  0  0  0  0
 12 13  2  0  0  0  0
 13 14  1  0  0  0  0
 14 15  2  0  0  0  0
 15 16  1  0  0  0  0
 16 17  2  0  0  0  0
 17 18  1  0  0  0  0
 18 19  2  0  0  0  0
 19 20  1  0  0  0  0
 20 21  2  0  0  0  0
 21 22  1  0  0  0  0
 22 23  1  0  0  0  0
  1 23  1  0  0  0  0
  1  6  1  0  0  0  0
 16 21  1  0  0  0  0
 10 15  1  0  0  0  0
  2  3  1  0  0  0  0
  9 24  2  0  0  0  0
 22 25  2  0  0  0  0
 19 26  1  0  0  0  0
 18 27  1  0  0  0  0
 17 28  1  0  0  0  0
 14 29  1  0  0  0  0
 13 30  1  0  0  0  0
 12 31  1  0  0  0  0
  4 32  1  1  0  0  0
  1 33  1  1  0  0  0
  2 34  1  6  0  0  0
  3 35  1  1  0  0  0
  6 36  1  6  0  0  0
  2 37  1  0  0  0  0
  3 38  1  0  0  0  0
 38 39  1  0  0  0  0
 39 40  1  0  0  0  0
 40 41  2  0  0  0  0
 41 42  1  0  0  0  0
 42 43  2  0  0  0  0
 43 44  1  0  0  0  0
 37 44  1  0  0  0  0
 44 45  2  0  0  0  0
 39 46  2  0  0  0  0
 43 47  1  0  0  0  0
 47 48  2  0  0  0  0
 48 49  1  0  0  0  0
 49 50  2  0  0  0  0
 50 42  1  0  0  0  0
 41 51  1  0  0  0  0
 51 52  2  0  0  0  0
 52 53  1  0  0  0  0
 53 54  2  0  0  0  0
 54 40  1  0  0  0  0
 48 55  1  0  0  0  0
 49 56  1  0  0  0  0
 50 57  1  0  0  0  0
 52 58  1  0  0  0  0
 53 59  1  0  0  0  0
 51 60  1  0  0  0  0
M  END
>  <cdx:fragmentId>
11727

$$$$
