442613.cdx
  Mrv1902 05222410252D          

 24 24  0  0  0  0            999 V2000
    4.3856   -8.4062    0.0000 C   0  0  0  0  0  0  0  0  0  0  0  0
    5.1001   -8.8187    0.0000 C   0  0  0  0  0  0  0  0  0  0  0  0
    5.8146   -8.4062    0.0000 C   0  0  0  0  0  0  0  0  0  0  0  0
    6.5290   -8.8187    0.0000 C   0  0  0  0  0  0  0  0  0  0  0  0
   10.1014   -2.6312    0.0000 C   0  0  0  0  0  0  0  0  0  0  0  0
    5.8146   -7.5812    0.0000 O   0  0  0  0  0  0  0  0  0  0  0  0
    3.6711   -8.8187    0.0000 C   0  0  0  0  0  0  0  0  0  0  0  0
    2.9567   -8.4062    0.0000 C   0  0  0  0  0  0  0  0  0  0  0  0
    2.2422   -8.8187    0.0000 C   0  0  0  0  0  0  0  0  0  0  0  0
    2.2422   -9.6437    0.0000 C   0  0  0  0  0  0  0  0  0  0  0  0
    2.9567  -10.0562    0.0000 C   0  0  0  0  0  0  0  0  0  0  0  0
    3.6711   -9.6437    0.0000 C   0  0  0  0  0  0  0  0  0  0  0  0
    1.5277   -8.4062    0.0000 O   0  0  0  0  0  0  0  0  0  0  0  0
    0.8133   -8.8187    0.0000 C   0  0  0  0  0  0  0  0  0  0  0  0
    1.5277  -10.0562    0.0000 O   0  0  0  0  0  0  0  0  0  0  0  0
   10.1014   -3.4562    0.0000 C   0  0  0  0  0  0  0  0  0  0  0  0
    9.3869   -3.8687    0.0000 C   0  0  0  0  0  0  0  0  0  0  0  0
    9.3869   -4.6937    0.0000 C   0  0  0  0  0  0  0  0  0  0  0  0
    8.6724   -5.1062    0.0000 C   0  0  0  0  0  0  0  0  0  0  0  0
    8.6724   -5.9312    0.0000 C   0  0  0  0  0  0  0  0  0  0  0  0
    7.9580   -6.3437    0.0000 C   0  0  0  0  0  0  0  0  0  0  0  0
    7.9580   -7.1687    0.0000 C   0  0  0  0  0  0  0  0  0  0  0  0
    7.2435   -7.5812    0.0000 C   0  0  0  0  0  0  0  0  0  0  0  0
    7.2435   -8.4062    0.0000 C   0  0  0  0  0  0  0  0  0  0  0  0
 16  5  1  0  0  0  0
 17 16  1  0  0  0  0
 18 17  1  0  0  0  0
 19 18  1  0  0  0  0
 20 19  1  0  0  0  0
 21 20  1  0  0  0  0
 22 21  1  0  0  0  0
 23 22  1  0  0  0  0
 24 23  1  0  0  0  0
  1  2  1  0  0  0  0
  2  3  1  0  0  0  0
  3  4  1  0  0  0  0
  4 24  2  0  0  0  0
  3  6  2  0  0  0  0
  7  8  1  0  0  0  0
  8  9  2  0  0  0  0
  9 10  1  0  0  0  0
 10 11  2  0  0  0  0
 11 12  1  0  0  0  0
  7 12  2  0  0  0  0
 13 14  1  0  0  0  0
  9 13  1  0  0  0  0
 10 15  1  0  0  0  0
  1  7  1  0  0  0  0
M  END
>  <cdx:groupId>
19861

>  <cdx:fragmentId>
19792

$$$$
