442618.cdx
  Mrv1902 05222410222D          

 13 13  0  0  0  0            999 V2000
    9.1672   -5.7662    0.0000 C   0  0  0  0  0  0  0  0  0  0  0  0
    8.4527   -6.1787    0.0000 C   0  0  0  0  0  0  0  0  0  0  0  0
    7.7382   -5.7662    0.0000 C   0  0  0  0  0  0  0  0  0  0  0  0
    9.1672   -4.9412    0.0000 O   0  0  0  0  0  0  0  0  0  0  0  0
    9.8816   -6.1787    0.0000 O   0  0  0  0  0  0  0  0  0  0  0  0
    7.0238   -6.1787    0.0000 C   0  0  0  0  0  0  0  0  0  0  0  0
    7.0238   -7.0037    0.0000 C   0  0  0  0  0  0  0  0  0  0  0  0
    6.3093   -7.4162    0.0000 C   0  0  0  0  0  0  0  0  0  0  0  0
    5.5948   -7.0037    0.0000 C   0  0  0  0  0  0  0  0  0  0  0  0
    5.5948   -6.1787    0.0000 C   0  0  0  0  0  0  0  0  0  0  0  0
    6.3093   -5.7662    0.0000 C   0  0  0  0  0  0  0  0  0  0  0  0
    4.8804   -5.7662    0.0000 O   0  0  0  0  0  0  0  0  0  0  0  0
    7.7382   -7.4162    0.0000 O   0  0  0  0  0  0  0  0  0  0  0  0
  1  2  1  0  0  0  0
  2  3  2  0  0  0  0
  1  4  2  0  0  0  0
  1  5  1  0  0  0  0
  6  7  1  0  0  0  0
  7  8  2  0  0  0  0
  8  9  1  0  0  0  0
  9 10  2  0  0  0  0
 10 11  1  0  0  0  0
  6 11  2  0  0  0  0
 10 12  1  0  0  0  0
  7 13  1  0  0  0  0
  3  6  1  0  0  0  0
M  END
>  <cdx:fragmentId>
19881

$$$$
