442701.cdx
  Mrv1902 05222410272D          

 20 21  0  0  0  0            999 V2000
   15.7830  -11.2882    0.0000 C   0  0  0  0  0  0  0  0  0  0  0  0
   16.4975  -10.8757    0.0000 C   0  0  0  0  0  0  0  0  0  0  0  0
   16.4975  -10.0507    0.0000 C   0  0  0  0  0  0  0  0  0  0  0  0
   17.2120   -9.6382    0.0000 C   0  0  0  0  0  0  0  0  0  0  0  0
   17.9265  -10.0507    0.0000 C   0  0  0  0  0  0  0  0  0  0  0  0
   17.9265  -10.8757    0.0000 C   0  0  0  0  0  0  0  0  0  0  0  0
   17.2120  -11.2882    0.0000 C   0  0  0  0  0  0  0  0  0  0  0  0
   15.0686  -10.8757    0.0000 C   0  0  0  0  0  0  0  0  0  0  0  0
   14.3541  -11.2882    0.0000 C   0  0  0  0  0  0  0  0  0  0  0  0
   14.3541  -12.1132    0.0000 C   0  0  0  0  0  0  0  0  0  0  0  0
   13.6396  -12.5257    0.0000 C   0  0  0  0  0  0  0  0  0  0  0  0
   12.9252  -12.1132    0.0000 C   0  0  0  0  0  0  0  0  0  0  0  0
   12.9252  -11.2882    0.0000 C   0  0  0  0  0  0  0  0  0  0  0  0
   13.6396  -10.8757    0.0000 C   0  0  0  0  0  0  0  0  0  0  0  0
   18.6409  -11.2882    0.0000 O   0  0  0  0  0  0  0  0  0  0  0  0
   19.3554  -10.8757    0.0000 C   0  0  0  0  0  0  0  0  0  0  0  0
   17.2120   -8.8132    0.0000 O   0  0  0  0  0  0  0  0  0  0  0  0
   17.9265   -8.4007    0.0000 C   0  0  0  0  0  0  0  0  0  0  0  0
   12.2107  -12.5257    0.0000 O   0  0  0  0  0  0  0  0  0  0  0  0
   18.6409   -9.6382    0.0000 O   0  0  0  0  0  0  0  0  0  0  0  0
  1  2  1  0  0  0  0
  2  3  1  0  0  0  0
  3  4  2  0  0  0  0
  4  5  1  0  0  0  0
  5  6  2  0  0  0  0
  6  7  1  0  0  0  0
  2  7  2  0  0  0  0
  8  9  1  0  0  0  0
  9 10  1  0  0  0  0
 10 11  2  0  0  0  0
 11 12  1  0  0  0  0
 12 13  2  0  0  0  0
 13 14  1  0  0  0  0
  9 14  2  0  0  0  0
  1  8  1  0  0  0  0
 15 16  1  0  0  0  0
  6 15  1  0  0  0  0
 17 18  1  0  0  0  0
  4 17  1  0  0  0  0
 12 19  1  0  0  0  0
  5 20  1  0  0  0  0
M  END
>  <cdx:groupId>
12223

>  <cdx:fragmentId>
12179

$$$$
