442768.cdx
  Mrv1902 05222410212D          

 20 22  0  0  0  0            999 V2000
   17.1476   -9.1772    0.0000 C   0  0  0  0  0  0  0  0  0  0  0  0
   16.4329   -8.7650    0.0000 O   0  0  0  0  0  0  0  0  0  0  0  0
   17.8622   -8.7650    0.0000 O   0  0  0  0  0  0  0  0  0  0  0  0
   17.1476  -10.0018    0.0000 C   0  0  0  0  0  0  0  0  0  0  0  0
   16.4329  -10.4141    0.0000 C   0  0  0  0  0  0  0  0  0  0  0  0
   15.7183  -10.0018    0.0000 C   0  0  0  0  0  0  0  0  0  0  0  0
   15.0037  -10.4141    0.0000 C   0  0  0  0  0  0  0  0  0  0  0  0
   14.2892  -10.0018    0.0000 C   0  0  0  0  0  0  0  0  0  0  0  0
   14.2892   -9.1772    0.0000 C   0  0  0  0  0  0  0  0  0  0  0  0
   15.0037   -8.7650    0.0000 C   0  0  0  0  0  0  0  0  0  0  0  0
   15.7183   -9.1772    0.0000 C   0  0  0  0  0  0  0  0  0  0  0  0
   17.1476  -11.6509    0.0000 C   0  0  0  0  0  0  0  0  0  0  0  0
   16.4329  -11.2387    0.0000 C   0  0  0  0  0  0  0  0  0  0  0  0
   17.1476  -12.4754    0.0000 C   0  0  0  0  0  0  0  0  0  0  0  0
   16.4329  -12.8877    0.0000 C   0  0  0  0  0  0  0  0  0  0  0  0
   15.7183  -12.4754    0.0000 C   0  0  0  0  0  0  0  0  0  0  0  0
   15.7183  -11.6509    0.0000 C   0  0  0  0  0  0  0  0  0  0  0  0
   13.5745   -8.7650    0.0000 O   0  0  0  0  0  0  0  0  0  0  0  0
   12.8605   -9.1772    0.0000 C   0  0  0  0  0  0  0  0  0  0  0  0
   13.5745  -10.4141    0.0000 O   0  0  0  0  0  0  0  0  0  0  0  0
  1  2  1  0  0  0  0
  1  3  2  0  0  0  0
  1  4  1  0  0  0  0
  4  5  2  0  0  0  0
  5  6  1  0  0  0  0
  6  7  1  0  0  0  0
  7  8  2  0  0  0  0
  8  9  1  0  0  0  0
  9 10  2  0  0  0  0
 10 11  1  0  0  0  0
  2 11  1  0  0  0  0
  6 11  2  0  0  0  0
 12 13  1  0  0  0  0
 12 14  2  0  0  0  0
 14 15  1  0  0  0  0
 15 16  2  0  0  0  0
 16 17  1  0  0  0  0
 13 17  2  0  0  0  0
  5 13  1  0  0  0  0
 18 19  1  0  0  0  0
  9 18  1  0  0  0  0
  8 20  1  0  0  0  0
M  END
>  <cdx:fragmentId>
12634

$$$$
