442761.cdx
  Mrv1902 05222410232D          

 32 35  0  0  0  0            999 V2000
   14.8015   -9.6382    0.0000 C   0  0  0  0  0  0  0  0  0  0  0  0
   15.5160  -10.0507    0.0000 C   0  0  0  0  0  0  0  0  0  0  0  0
   15.5160  -10.8757    0.0000 C   0  0  0  0  0  0  0  0  0  0  0  0
   14.8015  -11.2882    0.0000 C   0  0  0  0  0  0  0  0  0  0  0  0
   14.0871  -10.8757    0.0000 C   0  0  0  0  0  0  0  0  0  0  0  0
   13.3726  -11.2882    0.0000 C   0  0  0  0  0  0  0  0  0  0  0  0
   12.6581  -10.8757    0.0000 C   0  0  0  0  0  0  0  0  0  0  0  0
   11.9436  -11.2882    0.0000 C   0  0  0  0  0  0  0  0  0  0  0  0
   11.2292  -10.8757    0.0000 C   0  0  0  0  0  0  0  0  0  0  0  0
   11.2292  -10.0507    0.0000 C   0  0  0  0  0  0  0  0  0  0  0  0
   11.9436   -9.6382    0.0000 C   0  0  0  0  0  0  0  0  0  0  0  0
   12.6581  -10.0507    0.0000 C   0  0  0  0  0  0  0  0  0  0  0  0
   13.3726   -9.6382    0.0000 C   0  0  0  0  0  0  0  0  0  0  0  0
   14.0871  -10.0507    0.0000 C   0  0  0  0  0  0  0  0  0  0  0  0
   13.3726   -8.8132    0.0000 O   0  0  0  0  0  0  0  0  0  0  0  0
   13.3726  -12.1132    0.0000 O   0  0  0  0  0  0  0  0  0  0  0  0
   16.2305   -9.6382    0.0000 O   0  0  0  0  0  0  0  0  0  0  0  0
   16.9449  -10.8757    0.0000 O   0  0  0  0  0  0  0  0  0  0  0  0
   16.9449  -10.0507    0.0000 C   0  0  2  0  0  0  0  0  0  0  0  0
   17.6594   -9.6382    0.0000 C   0  0  1  0  0  0  0  0  0  0  0  0
   18.3739  -10.0507    0.0000 C   0  0  2  0  0  0  0  0  0  0  0  0
   18.3739  -10.8757    0.0000 C   0  0  1  0  0  0  0  0  0  0  0  0
   17.6594  -11.2882    0.0000 C   0  0  1  0  0  0  0  0  0  0  0  0
   17.6594  -12.1132    0.0000 C   0  0  0  0  0  0  0  0  0  0  0  0
   18.3739  -12.5257    0.0000 O   0  0  0  0  0  0  0  0  0  0  0  0
   19.0883  -11.2882    0.0000 O   0  0  0  0  0  0  0  0  0  0  0  0
   19.0883   -9.6382    0.0000 O   0  0  0  0  0  0  0  0  0  0  0  0
   17.6594   -8.8132    0.0000 O   0  0  0  0  0  0  0  0  0  0  0  0
   16.2305  -11.2882    0.0000 C   0  0  0  0  0  0  0  0  0  0  0  0
   14.8015   -8.8132    0.0000 O   0  0  0  0  0  0  0  0  0  0  0  0
   15.5160   -8.4007    0.0000 C   0  0  0  0  0  0  0  0  0  0  0  0
   11.9436   -8.8132    0.0000 O   0  0  0  0  0  0  0  0  0  0  0  0
  1  2  1  0  0  0  0
  2  3  2  0  0  0  0
  3  4  1  0  0  0  0
  4  5  2  0  0  0  0
  5  6  1  0  0  0  0
  6  7  1  0  0  0  0
  7  8  1  0  0  0  0
  8  9  2  0  0  0  0
  9 10  1  0  0  0  0
 10 11  2  0  0  0  0
 11 12  1  0  0  0  0
  7 12  2  0  0  0  0
 12 13  1  0  0  0  0
 13 14  1  0  0  0  0
  5 14  1  0  0  0  0
  1 14  2  0  0  0  0
 13 15  2  0  0  0  0
  6 16  2  0  0  0  0
 18 19  1  0  0  0  0
 19 20  1  0  0  0  0
 20 21  1  0  0  0  0
 21 22  1  0  0  0  0
 22 23  1  0  0  0  0
 18 23  1  0  0  0  0
 24 25  1  0  0  0  0
 23 24  1  1  0  0  0
 22 26  1  6  0  0  0
 21 27  1  1  0  0  0
 20 28  1  6  0  0  0
 19 17  1  1  0  0  0
  2 17  1  0  0  0  0
  3 29  1  0  0  0  0
 30 31  1  0  0  0  0
  1 30  1  0  0  0  0
 11 32  1  0  0  0  0
M  END
>  <cdx:groupId>
12555

>  <cdx:fragmentId>
12459

$$$$
