442762.cdx
  Mrv1902 05222410242D          

 40 44  0  0  0  0            999 V2000
    7.0931   -8.6582    0.0000 H   0  0  0  0  0  0  0  0  0  0  0  0
    8.5121   -6.1746    0.0000 H   0  0  0  0  0  0  0  0  0  0  0  0
    6.3912   -9.9000    0.0000 H   0  0  0  0  0  0  0  0  0  0  0  0
    7.0806   -5.3539    0.0000 Cl  0  0  0  0  0  0  0  0  0  0  0  0
    7.7951   -5.7664    0.0000 C   0  0  0  0  0  0  0  0  0  0  0  0
    4.2353   -7.8505    0.0000 O   0  0  0  0  0  0  0  0  0  0  0  0
    4.2453   -9.5005    0.0000 O   0  0  0  0  0  0  0  0  0  0  0  0
    5.2617  -10.2063    0.0000 C   0  0  0  0  0  0  0  0  0  0  0  0
    7.8101   -7.4164    0.0000 C   0  0  0  0  0  0  0  0  0  0  0  0
    9.5192   -4.6290    0.0000 C   0  0  0  0  0  0  0  0  0  0  0  0
   10.3442   -4.6240    0.0000 C   0  0  0  0  0  0  0  0  0  0  0  0
    6.3812   -7.4250    0.0000 C   0  0  0  0  0  0  0  0  0  0  0  0
   11.3749   -6.9823    0.0000 O   0  0  0  0  0  0  0  0  0  0  0  0
   10.6679   -8.2241    0.0000 O   0  0  0  0  0  0  0  0  0  0  0  0
   10.6629   -7.3991    0.0000 C   0  0  0  0  0  0  0  0  0  0  0  0
    6.3812   -8.2500    0.0000 C   0  0  1  0  0  0  0  0  0  0  0  0
    7.0931   -7.8332    0.0000 C   0  0  1  0  0  0  0  0  0  0  0  0
    7.0881   -7.0082    0.0000 C   0  0  0  0  0  0  0  0  0  0  0  0
    7.8001   -6.5914    0.0000 C   0  0  1  0  0  0  0  0  0  0  0  0
    8.5171   -6.9996    0.0000 C   0  0  0  0  0  0  0  0  0  0  0  0
    9.2290   -6.5828    0.0000 C   0  0  2  0  0  0  0  0  0  0  0  0
    9.2240   -5.7578    0.0000 C   0  0  0  0  0  0  0  0  0  0  0  0
    9.9360   -5.3410    0.0000 C   0  0  0  0  0  0  0  0  0  0  0  0
   10.6529   -5.7491    0.0000 C   0  0  0  0  0  0  0  0  0  0  0  0
   10.6579   -6.5741    0.0000 C   0  0  0  0  0  0  0  0  0  0  0  0
    9.9460   -6.9909    0.0000 C   0  0  1  0  0  0  0  0  0  0  0  0
    9.9510   -7.8159    0.0000 C   0  0  0  0  0  0  0  0  0  0  0  0
    9.2390   -8.2327    0.0000 C   0  0  0  0  0  0  0  0  0  0  0  0
    8.5221   -7.8246    0.0000 C   0  0  0  0  0  0  0  0  0  0  0  0
    7.8101   -8.2414    0.0000 C   0  0  1  0  0  0  0  0  0  0  0  0
    7.8151   -9.0664    0.0000 C   0  0  0  0  0  0  0  0  0  0  0  0
    7.1031   -9.4832    0.0000 C   0  0  0  0  0  0  0  0  0  0  0  0
    6.3862   -9.0750    0.0000 C   0  0  1  0  0  0  0  0  0  0  0  0
    5.6742   -9.4918    0.0000 C   0  0  2  0  0  0  0  0  0  0  0  0
    4.9573   -9.0837    0.0000 C   0  0  2  0  0  0  0  0  0  0  0  0
    4.9523   -8.2587    0.0000 C   0  0  2  0  0  0  0  0  0  0  0  0
    5.6642   -7.8419    0.0000 C   0  0  0  0  0  0  0  0  0  0  0  0
    6.0867  -10.2063    0.0000 C   0  0  0  0  0  0  0  0  0  0  0  0
    5.6742  -10.9208    0.0000 O   0  0  0  0  0  0  0  0  0  0  0  0
    6.9117  -10.2063    0.0000 O   0  0  0  0  0  0  0  0  0  0  0  0
 17  1  1  6  0  0  0
 21  2  1  1  0  0  0
 33  3  1  6  0  0  0
 19  5  1  6  0  0  0
  5  4  1  0  0  0  0
 36  6  1  1  0  0  0
 35  7  1  1  0  0  0
 34  8  1  1  0  0  0
 30  9  1  1  0  0  0
 23 10  1  0  0  0  0
 23 11  1  0  0  0  0
 16 12  1  1  0  0  0
 26 15  1  1  0  0  0
 15 13  1  0  0  0  0
 15 14  2  0  0  0  0
 37 16  1  0  0  0  0
 33 16  1  0  0  0  0
 17 16  1  0  0  0  0
 30 17  1  0  0  0  0
 18 17  1  0  0  0  0
 19 18  1  0  0  0  0
 20 19  1  0  0  0  0
 29 20  2  0  0  0  0
 21 20  1  0  0  0  0
 26 21  1  0  0  0  0
 22 21  1  0  0  0  0
 23 22  1  0  0  0  0
 24 23  1  0  0  0  0
 25 24  1  0  0  0  0
 26 25  1  0  0  0  0
 27 26  1  0  0  0  0
 28 27  1  0  0  0  0
 29 28  1  0  0  0  0
 30 29  1  0  0  0  0
 31 30  1  0  0  0  0
 32 31  1  0  0  0  0
 33 32  1  0  0  0  0
 34 33  1  0  0  0  0
 35 34  1  0  0  0  0
 36 35  1  0  0  0  0
 37 36  1  0  0  0  0
 34 38  1  0  0  0  0
 38 39  2  0  0  0  0
 38 40  1  0  0  0  0
M  END
>  <cdx:fragmentId>
92141

$$$$
