442794.cdx
  Mrv1902 05222410212D          

 34 38  0  0  0  0            999 V2000
    8.5580   -6.8830    0.0000 C   0  0  2  0  0  0  0  0  0  0  0  0
    9.2725   -7.2955    0.0000 C   0  0  2  0  0  0  0  0  0  0  0  0
    9.2725   -8.1205    0.0000 C   0  0  0  0  0  0  0  0  0  0  0  0
    8.5580   -8.5330    0.0000 C   0  0  0  0  0  0  0  0  0  0  0  0
    7.8435   -8.1205    0.0000 C   0  0  2  0  0  0  0  0  0  0  0  0
    7.1291   -8.5330    0.0000 C   0  0  1  0  0  0  0  0  0  0  0  0
    7.1291   -9.3580    0.0000 C   0  0  0  0  0  0  0  0  0  0  0  0
    6.4146   -9.7705    0.0000 C   0  0  0  0  0  0  0  0  0  0  0  0
    5.7001   -9.3580    0.0000 C   0  0  0  0  0  0  0  0  0  0  0  0
    4.9857   -9.7705    0.0000 C   0  0  0  0  0  0  0  0  0  0  0  0
    4.2712   -9.3580    0.0000 C   0  0  2  0  0  0  0  0  0  0  0  0
    4.2712   -8.5330    0.0000 C   0  0  0  0  0  0  0  0  0  0  0  0
    4.9857   -8.1205    0.0000 C   0  0  0  0  0  0  0  0  0  0  0  0
    5.7001   -8.5330    0.0000 C   0  0  1  0  0  0  0  0  0  0  0  0
    6.4146   -8.1205    0.0000 C   0  0  2  0  0  0  0  0  0  0  0  0
    6.4146   -7.2955    0.0000 C   0  0  0  0  0  0  0  0  0  0  0  0
    7.1291   -6.8830    0.0000 C   0  0  0  0  0  0  0  0  0  0  0  0
    7.8435   -7.2955    0.0000 C   0  0  1  0  0  0  0  0  0  0  0  0
    9.8856   -6.7435    0.0000 C   0  0  2  0  0  0  0  0  0  0  0  0
    9.5500   -5.9898    0.0000 C   0  0  0  0  0  0  0  0  0  0  0  0
    8.7295   -6.0761    0.0000 C   0  0  0  0  0  0  0  0  0  0  0  0
    3.5567   -9.7705    0.0000 O   0  0  0  0  0  0  0  0  0  0  0  0
   10.9475   -7.6997    0.0000 C   0  0  0  0  0  0  0  0  0  0  0  0
   10.6925   -6.9150    0.0000 C   0  0  0  0  0  0  0  0  0  0  0  0
   11.2759   -6.3317    0.0000 C   0  0  0  0  0  0  0  0  0  0  0  0
    7.8435   -6.4705    0.0000 C   0  0  0  0  0  0  0  0  0  0  0  0
    6.4146   -8.9455    0.0000 C   0  0  0  0  0  0  0  0  0  0  0  0
    5.3982  -10.4850    0.0000 C   0  0  0  0  0  0  0  0  0  0  0  0
    4.5732  -10.4850    0.0000 C   0  0  0  0  0  0  0  0  0  0  0  0
    7.8435   -8.9455    0.0000 C   0  0  0  0  0  0  0  0  0  0  0  0
   10.0262   -7.6311    0.0000 C   0  0  0  0  0  0  0  0  0  0  0  0
    7.1291   -7.7080    0.0000 H   0  0  0  0  0  0  0  0  0  0  0  0
    5.7001   -7.7080    0.0000 H   0  0  0  0  0  0  0  0  0  0  0  0
    8.5580   -7.7080    0.0000 H   0  0  0  0  0  0  0  0  0  0  0  0
  1  2  1  0  0  0  0
  2  3  1  0  0  0  0
  3  4  1  0  0  0  0
  4  5  1  0  0  0  0
  5  6  1  0  0  0  0
  6  7  1  0  0  0  0
  7  8  1  0  0  0  0
  8  9  2  0  0  0  0
  9 10  1  0  0  0  0
 10 11  1  0  0  0  0
 11 12  1  0  0  0  0
 12 13  1  0  0  0  0
 13 14  1  0  0  0  0
  9 14  1  0  0  0  0
 14 15  1  0  0  0  0
  6 15  1  0  0  0  0
 15 16  1  0  0  0  0
 16 17  1  0  0  0  0
 17 18  1  0  0  0  0
  5 18  1  0  0  0  0
  1 18  1  0  0  0  0
 19 20  1  0  0  0  0
 20 21  1  0  0  0  0
 21  1  1  0  0  0  0
 19  2  1  0  0  0  0
 11 22  1  1  0  0  0
 23 24  1  0  0  0  0
 24 25  1  0  0  0  0
 19 24  1  6  0  0  0
 18 26  1  6  0  0  0
 15 27  1  1  0  0  0
 10 28  1  0  0  0  0
 10 29  1  0  0  0  0
  5 30  1  1  0  0  0
  2 31  1  6  0  0  0
  6 32  1  6  0  0  0
 14 33  1  6  0  0  0
  1 34  1  1  0  0  0
M  END
>  <cdx:groupId>
92491

>  <cdx:fragmentId>
92388

$$$$
