442765.cdx
  Mrv1902 05222410252D          

 22 24  0  0  0  0            999 V2000
   15.8732   -9.7630    0.0000 C   0  0  0  0  0  0  0  0  0  0  0  0
   16.5877  -10.1755    0.0000 C   0  0  0  0  0  0  0  0  0  0  0  0
   16.5877  -11.0005    0.0000 C   0  0  0  0  0  0  0  0  0  0  0  0
   15.8732  -11.4130    0.0000 C   0  0  0  0  0  0  0  0  0  0  0  0
   15.1588  -11.0005    0.0000 C   0  0  0  0  0  0  0  0  0  0  0  0
   14.4443  -11.4130    0.0000 C   0  0  0  0  0  0  0  0  0  0  0  0
   13.7298  -11.0005    0.0000 C   0  0  0  0  0  0  0  0  0  0  0  0
   13.0153  -11.4130    0.0000 C   0  0  0  0  0  0  0  0  0  0  0  0
   12.3009  -11.0005    0.0000 C   0  0  0  0  0  0  0  0  0  0  0  0
   12.3009  -10.1755    0.0000 C   0  0  0  0  0  0  0  0  0  0  0  0
   13.0153   -9.7630    0.0000 C   0  0  0  0  0  0  0  0  0  0  0  0
   13.7298  -10.1755    0.0000 C   0  0  0  0  0  0  0  0  0  0  0  0
   14.4443   -9.7630    0.0000 C   0  0  0  0  0  0  0  0  0  0  0  0
   15.1588  -10.1755    0.0000 C   0  0  0  0  0  0  0  0  0  0  0  0
   17.3022   -9.7630    0.0000 C   0  0  0  0  0  0  0  0  0  0  0  0
   17.3022   -8.9380    0.0000 O   0  0  0  0  0  0  0  0  0  0  0  0
   18.0166  -10.1755    0.0000 O   0  0  0  0  0  0  0  0  0  0  0  0
   14.4443  -12.2380    0.0000 O   0  0  0  0  0  0  0  0  0  0  0  0
   14.4443   -8.9380    0.0000 O   0  0  0  0  0  0  0  0  0  0  0  0
   15.8732  -12.2380    0.0000 O   0  0  0  0  0  0  0  0  0  0  0  0
   17.3022  -11.4130    0.0000 O   0  0  0  0  0  0  0  0  0  0  0  0
   15.8732   -8.9380    0.0000 O   0  0  0  0  0  0  0  0  0  0  0  0
  1  2  1  0  0  0  0
  2  3  2  0  0  0  0
  3  4  1  0  0  0  0
  4  5  2  0  0  0  0
  5  6  1  0  0  0  0
  6  7  1  0  0  0  0
  7  8  1  0  0  0  0
  8  9  2  0  0  0  0
  9 10  1  0  0  0  0
 10 11  2  0  0  0  0
 11 12  1  0  0  0  0
  7 12  2  0  0  0  0
 12 13  1  0  0  0  0
 13 14  1  0  0  0  0
  5 14  1  0  0  0  0
  1 14  2  0  0  0  0
 15 16  2  0  0  0  0
 15 17  1  0  0  0  0
  2 15  1  0  0  0  0
  6 18  2  0  0  0  0
 13 19  2  0  0  0  0
  4 20  1  0  0  0  0
  3 21  1  0  0  0  0
  1 22  1  0  0  0  0
M  END
>  <cdx:groupId>
12630

>  <cdx:fragmentId>
12565

$$$$
