12442785.cdx
  Mrv1902 05222410222D          

 35 39  0  0  0  0            999 V2000
    5.6979  -14.6349    0.0000 C   0  0  2  0  0  0  0  0  0  0  0  0
    5.6979  -13.8099    0.0000 C   0  0  2  0  0  0  0  0  0  0  0  0
    4.9835  -13.3974    0.0000 C   0  0  0  0  0  0  0  0  0  0  0  0
    4.2690  -13.8099    0.0000 C   0  0  0  0  0  0  0  0  0  0  0  0
    3.5545  -13.3974    0.0000 C   0  0  0  0  0  0  0  0  0  0  0  0
    2.8401  -13.8099    0.0000 C   0  0  0  0  0  0  0  0  0  0  0  0
    2.8401  -14.6349    0.0000 C   0  0  0  0  0  0  0  0  0  0  0  0
    3.5545  -15.0474    0.0000 C   0  0  0  0  0  0  0  0  0  0  0  0
    4.2690  -14.6349    0.0000 C   0  0  0  0  0  0  0  0  0  0  0  0
    4.9835  -15.0474    0.0000 O   0  0  0  0  0  0  0  0  0  0  0  0
    4.9835  -12.5724    0.0000 O   0  0  0  0  0  0  0  0  0  0  0  0
    8.6260  -16.1274    0.0000 O   0  0  0  0  0  0  0  0  0  0  0  0
    9.1109  -15.4599    0.0000 C   0  0  1  0  0  0  0  0  0  0  0  0
    8.6260  -14.7925    0.0000 C   0  0  2  0  0  0  0  0  0  0  0  0
    7.8414  -15.0474    0.0000 C   0  0  0  0  0  0  0  0  0  0  0  0
    7.1269  -14.6349    0.0000 C   0  0  0  0  0  0  0  0  0  0  0  0
    6.4124  -15.0474    0.0000 C   0  0  0  0  0  0  0  0  0  0  0  0
    6.4124  -15.8724    0.0000 C   0  0  0  0  0  0  0  0  0  0  0  0
    7.1269  -16.2849    0.0000 C   0  0  0  0  0  0  0  0  0  0  0  0
    7.8414  -15.8724    0.0000 C   0  0  0  0  0  0  0  0  0  0  0  0
    8.8809  -14.0079    0.0000 C   0  0  0  0  0  0  0  0  0  0  0  0
    9.6879  -13.8363    0.0000 O   0  0  0  0  0  0  0  0  0  0  0  0
    9.9359  -15.4599    0.0000 C   0  0  0  0  0  0  0  0  0  0  0  0
   10.3484  -14.7455    0.0000 C   0  0  0  0  0  0  0  0  0  0  0  0
   11.1734  -14.7455    0.0000 C   0  0  0  0  0  0  0  0  0  0  0  0
   11.5859  -15.4599    0.0000 C   0  0  0  0  0  0  0  0  0  0  0  0
   11.1734  -16.1744    0.0000 C   0  0  0  0  0  0  0  0  0  0  0  0
   10.3484  -16.1744    0.0000 C   0  0  0  0  0  0  0  0  0  0  0  0
   12.4109  -15.4599    0.0000 O   0  0  0  0  0  0  0  0  0  0  0  0
    7.1269  -17.1099    0.0000 O   0  0  0  0  0  0  0  0  0  0  0  0
    2.1256  -15.0474    0.0000 O   0  0  0  0  0  0  0  0  0  0  0  0
    3.5545  -12.5724    0.0000 O   0  0  0  0  0  0  0  0  0  0  0  0
    6.4124  -13.3974    0.0000 O   0  0  0  0  0  0  0  0  0  0  0  0
   11.5859  -16.8889    0.0000 O   0  0  0  0  0  0  0  0  0  0  0  0
   11.1734  -17.6033    0.0000 C   0  0  0  0  0  0  0  0  0  0  0  0
  1  2  1  0  0  0  0
  2  3  1  0  0  0  0
  3  4  1  0  0  0  0
  4  5  1  0  0  0  0
  5  6  2  0  0  0  0
  6  7  1  0  0  0  0
  7  8  2  0  0  0  0
  8  9  1  0  0  0  0
  4  9  2  0  0  0  0
  9 10  1  0  0  0  0
  1 10  1  0  0  0  0
  3 11  2  0  0  0  0
 12 13  1  0  0  0  0
 13 14  1  0  0  0  0
 14 15  1  0  0  0  0
 15 16  1  0  0  0  0
 16 17  2  0  0  0  0
 17 18  1  0  0  0  0
 18 19  2  0  0  0  0
 19 20  1  0  0  0  0
 15 20  2  0  0  0  0
 12 20  1  0  0  0  0
 21 22  1  0  0  0  0
 14 21  1  6  0  0  0
 23 24  1  0  0  0  0
 24 25  2  0  0  0  0
 25 26  1  0  0  0  0
 26 27  2  0  0  0  0
 27 28  1  0  0  0  0
 23 28  2  0  0  0  0
 26 29  1  0  0  0  0
 13 23  1  1  0  0  0
 19 30  1  0  0  0  0
  1 17  1  1  0  0  0
  7 31  1  0  0  0  0
  5 32  1  0  0  0  0
  2 33  1  6  0  0  0
 27 34  1  0  0  0  0
 34 35  1  0  0  0  0
M  END
>  <cdx:groupId>
92378

>  <cdx:fragmentId>
92294

$$$$
