442700.cdx
  Mrv1902 05222410262D          

 16 17  0  0  0  0            999 V2000
   17.3022  -10.3931    0.0000 C   0  0  0  0  0  0  0  0  0  0  0  0
   17.3022  -11.2181    0.0000 C   0  0  0  0  0  0  0  0  0  0  0  0
   16.5877  -11.6306    0.0000 C   0  0  0  0  0  0  0  0  0  0  0  0
   15.8732  -11.2181    0.0000 C   0  0  0  0  0  0  0  0  0  0  0  0
   15.8732  -10.3931    0.0000 C   0  0  0  0  0  0  0  0  0  0  0  0
   16.5877   -9.9806    0.0000 C   0  0  0  0  0  0  0  0  0  0  0  0
   18.0166   -9.9806    0.0000 O   0  0  0  0  0  0  0  0  0  0  0  0
   16.5877  -12.4556    0.0000 O   0  0  0  0  0  0  0  0  0  0  0  0
   15.1588   -9.9806    0.0000 C   0  0  0  0  0  0  0  0  0  0  0  0
   14.4443  -10.3931    0.0000 C   0  0  0  0  0  0  0  0  0  0  0  0
   13.7298   -9.9806    0.0000 C   0  0  0  0  0  0  0  0  0  0  0  0
   13.0153  -10.3931    0.0000 C   0  0  0  0  0  0  0  0  0  0  0  0
   12.3009   -9.9806    0.0000 C   0  0  0  0  0  0  0  0  0  0  0  0
   12.3009   -9.1556    0.0000 C   0  0  0  0  0  0  0  0  0  0  0  0
   13.0153   -8.7431    0.0000 C   0  0  0  0  0  0  0  0  0  0  0  0
   13.7298   -9.1556    0.0000 C   0  0  0  0  0  0  0  0  0  0  0  0
  1  2  1  0  0  0  0
  2  3  2  0  0  0  0
  3  4  1  0  0  0  0
  4  5  2  0  0  0  0
  5  6  1  0  0  0  0
  1  6  2  0  0  0  0
  1  7  1  0  0  0  0
  3  8  1  0  0  0  0
  9 10  1  0  0  0  0
 10 11  1  0  0  0  0
 11 12  1  0  0  0  0
 12 13  2  0  0  0  0
 13 14  1  0  0  0  0
 14 15  2  0  0  0  0
 15 16  1  0  0  0  0
 11 16  2  0  0  0  0
  5  9  1  0  0  0  0
M  END
>  <cdx:fragmentId>
12124

$$$$
