442774.cdx
  Mrv1902 05222410232D          

 29 32  0  0  0  0            999 V2000
    9.2630   -4.8913    0.0000 C   0  0  0  0  0  0  0  0  0  0  0  0
    9.2630   -5.7163    0.0000 C   0  0  0  0  0  0  0  0  0  0  0  0
    8.5485   -6.1288    0.0000 C   0  0  0  0  0  0  0  0  0  0  0  0
    7.8341   -5.7163    0.0000 C   0  0  0  0  0  0  0  0  0  0  0  0
    7.8341   -4.8913    0.0000 C   0  0  0  0  0  0  0  0  0  0  0  0
    8.5485   -4.4788    0.0000 C   0  0  0  0  0  0  0  0  0  0  0  0
    9.9775   -4.4788    0.0000 O   0  0  0  0  0  0  0  0  0  0  0  0
    8.5485   -6.9538    0.0000 O   0  0  0  0  0  0  0  0  0  0  0  0
    9.9775   -6.1288    0.0000 C   0  0  0  0  0  0  0  0  0  0  0  0
   10.6919   -5.7163    0.0000 C   0  0  0  0  0  0  0  0  0  0  0  0
   11.4064   -6.1288    0.0000 C   0  0  0  0  0  0  0  0  0  0  0  0
   11.4064   -6.9538    0.0000 C   0  0  0  0  0  0  0  0  0  0  0  0
   12.1209   -5.7163    0.0000 C   0  0  0  0  0  0  0  0  0  0  0  0
    3.5472   -8.1913    0.0000 C   0  0  0  0  0  0  0  0  0  0  0  0
    3.5472   -7.3663    0.0000 C   0  0  0  0  0  0  0  0  0  0  0  0
    4.2617   -6.9538    0.0000 C   0  0  0  0  0  0  0  0  0  0  0  0
    4.9762   -7.3663    0.0000 C   0  0  0  0  0  0  0  0  0  0  0  0
    5.6906   -6.9538    0.0000 C   0  0  0  0  0  0  0  0  0  0  0  0
    6.4051   -7.3663    0.0000 C   0  0  0  0  0  0  0  0  0  0  0  0
    6.4051   -8.1913    0.0000 C   0  0  0  0  0  0  0  0  0  0  0  0
    5.6906   -8.6038    0.0000 C   0  0  0  0  0  0  0  0  0  0  0  0
    4.9762   -8.1913    0.0000 C   0  0  0  0  0  0  0  0  0  0  0  0
    4.2617   -8.6038    0.0000 O   0  0  0  0  0  0  0  0  0  0  0  0
    7.1196   -6.9538    0.0000 C   0  0  0  0  0  0  0  0  0  0  0  0
    7.1196   -6.1288    0.0000 C   0  0  1  0  0  0  0  0  0  0  0  0
    6.4051   -5.7163    0.0000 C   0  0  0  0  0  0  0  0  0  0  0  0
    5.6906   -6.1288    0.0000 O   0  0  0  0  0  0  0  0  0  0  0  0
    3.1347   -8.9057    0.0000 C   0  0  0  0  0  0  0  0  0  0  0  0
    2.7222   -8.1913    0.0000 C   0  0  0  0  0  0  0  0  0  0  0  0
  1  2  1  0  0  0  0
  2  3  2  0  0  0  0
  3  4  1  0  0  0  0
  4  5  2  0  0  0  0
  5  6  1  0  0  0  0
  1  6  2  0  0  0  0
  1  7  1  0  0  0  0
  3  8  1  0  0  0  0
  9 10  1  0  0  0  0
 10 11  2  0  0  0  0
 11 12  1  0  0  0  0
 11 13  1  0  0  0  0
  2  9  1  0  0  0  0
 14 15  1  0  0  0  0
 15 16  2  0  0  0  0
 16 17  1  0  0  0  0
 17 18  1  0  0  0  0
 18 19  2  0  0  0  0
 19 20  1  0  0  0  0
 20 21  2  0  0  0  0
 21 22  1  0  0  0  0
 17 22  2  0  0  0  0
 22 23  1  0  0  0  0
 14 23  1  0  0  0  0
 24 25  1  0  0  0  0
 25 26  1  0  0  0  0
 26 27  1  0  0  0  0
 27 18  1  0  0  0  0
 24 19  1  0  0  0  0
 14 28  1  0  0  0  0
 14 29  1  0  0  0  0
 25  4  1  1  0  0  0
M  END
>  <cdx:groupId>
92

>  <cdx:fragmentId>
31

$$$$
