442813.cdx
  Mrv1902 05222410212D          

 31 34  0  0  0  0            999 V2000
   13.2327  -10.3248    0.0000 C   0  0  0  0  0  0  0  0  0  0  0  0
    9.6867   -8.2174    0.0000 C   0  0  0  0  0  0  0  0  0  0  0  0
    9.6763   -9.0423    0.0000 C   0  0  0  0  0  0  0  0  0  0  0  0
    8.9566   -9.4458    0.0000 C   0  0  0  0  0  0  0  0  0  0  0  0
    8.9462  -10.2707    0.0000 O   0  0  0  0  0  0  0  0  0  0  0  0
    8.2474   -9.0243    0.0000 C   0  0  0  0  0  0  0  0  0  0  0  0
    7.5278   -9.4277    0.0000 C   0  0  0  0  0  0  0  0  0  0  0  0
    6.8186   -9.0062    0.0000 C   0  0  0  0  0  0  0  0  0  0  0  0
    6.8290   -8.1813    0.0000 C   0  0  0  0  0  0  0  0  0  0  0  0
    7.5486   -7.7778    0.0000 C   0  0  0  0  0  0  0  0  0  0  0  0
    8.2578   -8.1993    0.0000 C   0  0  0  0  0  0  0  0  0  0  0  0
    8.9775   -7.7959    0.0000 O   0  0  0  0  0  0  0  0  0  0  0  0
   10.3855   -9.4638    0.0000 C   0  0  0  0  0  0  0  0  0  0  0  0
   11.1051   -9.0604    0.0000 C   0  0  0  0  0  0  0  0  0  0  0  0
   11.8143   -9.4818    0.0000 C   0  0  0  0  0  0  0  0  0  0  0  0
   11.8039  -10.3068    0.0000 C   0  0  0  0  0  0  0  0  0  0  0  0
   12.5131  -10.7283    0.0000 O   0  0  0  0  0  0  0  0  0  0  0  0
   11.0842  -10.7102    0.0000 C   0  0  0  0  0  0  0  0  0  0  0  0
   10.3750  -10.2887    0.0000 C   0  0  0  0  0  0  0  0  0  0  0  0
    6.1198   -7.7598    0.0000 O   0  0  0  0  0  0  0  0  0  0  0  0
    2.5449   -8.1499    0.0000 O   0  0  0  0  0  0  0  0  0  0  0  0
    3.2620   -7.7419    0.0000 C   0  0  0  0  0  0  0  0  0  0  0  0
    4.6909   -7.7508    0.0000 O   0  0  0  0  0  0  0  0  0  0  0  0
    3.9739   -8.1588    0.0000 C   0  0  1  0  0  0  0  0  0  0  0  0
    3.2516   -9.3918    0.0000 O   0  0  0  0  0  0  0  0  0  0  0  0
    3.9687   -8.9838    0.0000 C   0  0  1  0  0  0  0  0  0  0  0  0
    4.6754  -10.2258    0.0000 O   0  0  0  0  0  0  0  0  0  0  0  0
    4.6805   -9.4008    0.0000 C   0  0  2  0  0  0  0  0  0  0  0  0
    6.1095   -9.4098    0.0000 O   0  0  0  0  0  0  0  0  0  0  0  0
    5.3976   -8.9928    0.0000 C   0  0  1  0  0  0  0  0  0  0  0  0
    5.4028   -8.1678    0.0000 C   0  0  2  0  0  0  0  0  0  0  0  0
 17  1  1  0  0  0  0
 31 23  1  0  0  0  0
 22 21  1  0  0  0  0
 24 22  1  1  0  0  0
 24 23  1  0  0  0  0
 26 24  1  0  0  0  0
 26 25  1  6  0  0  0
 28 26  1  0  0  0  0
 28 27  1  1  0  0  0
 30 28  1  0  0  0  0
 30 29  1  6  0  0  0
 31 30  1  0  0  0  0
 31 20  1  1  0  0  0
  2  3  2  0  0  0  0
  3  4  1  0  0  0  0
  4  5  2  0  0  0  0
  4  6  1  0  0  0  0
  6  7  1  0  0  0  0
  7  8  2  0  0  0  0
  8  9  1  0  0  0  0
  9 10  2  0  0  0  0
 10 11  1  0  0  0  0
  6 11  2  0  0  0  0
 11 12  1  0  0  0  0
  2 12  1  0  0  0  0
  3 13  1  0  0  0  0
 13 14  1  0  0  0  0
 14 15  2  0  0  0  0
 15 16  1  0  0  0  0
 16 17  1  0  0  0  0
 16 18  2  0  0  0  0
 18 19  1  0  0  0  0
 13 19  2  0  0  0  0
  9 20  1  0  0  0  0
M  END
>  <cdx:fragmentId>
12859

$$$$
