442840.cdx
  Mrv1902 05222410282D          

 26 29  0  0  0  0            999 V2000
    7.0071   -6.7494    0.0000 C   0  0  1  0  0  0  0  0  0  0  0  0
    6.9981   -5.9245    0.0000 Cl  0  0  0  0  0  0  0  0  0  0  0  0
    6.3450   -7.2416    0.0000 C   0  0  0  0  0  0  0  0  0  0  0  0
    6.6084   -8.0234    0.0000 C   0  0  2  0  0  0  0  0  0  0  0  0
    5.6457   -7.2992    0.0000 N   0  0  0  0  0  0  0  0  0  0  0  0
    6.3654   -6.7553    0.0000 C   0  0  0  0  0  0  0  0  0  0  0  0
    7.2125   -7.3951    0.0000 C   0  0  0  0  0  0  0  0  0  0  0  0
    7.4334   -8.0144    0.0000 C   0  0  1  0  0  0  0  0  0  0  0  0
    7.8536   -8.7244    0.0000 C   0  0  0  0  0  0  0  0  0  0  0  0
    7.4489   -9.4433    0.0000 C   0  0  0  0  0  0  0  0  0  0  0  0
    7.8692  -10.1532    0.0000 O   0  0  0  0  0  0  0  0  0  0  0  0
    6.6240   -9.4523    0.0000 C   0  0  0  0  0  0  0  0  0  0  0  0
    6.2193  -10.1712    0.0000 O   0  0  0  0  0  0  0  0  0  0  0  0
    6.6257  -10.8891    0.0000 C   0  0  0  0  0  0  0  0  0  0  0  0
    6.2037   -8.7423    0.0000 C   0  0  0  0  0  0  0  0  0  0  0  0
    5.3788   -8.7513    0.0000 O   0  0  0  0  0  0  0  0  0  0  0  0
    4.9602   -9.4622    0.0000 C   0  0  0  0  0  0  0  0  0  0  0  0
    8.3614   -8.5297    0.0000 O   0  0  0  0  0  0  0  0  0  0  0  0
    8.3524   -7.7047    0.0000 C   0  0  1  0  0  0  0  0  0  0  0  0
    7.6798   -7.2271    0.0000 C   0  0  2  0  0  0  0  0  0  0  0  0
    7.4340   -5.7776    0.0000 O   0  0  0  0  0  0  0  0  0  0  0  0
    7.9262   -6.4398    0.0000 C   0  0  0  0  0  0  0  0  0  0  0  0
    8.7511   -6.4308    0.0000 C   0  0  0  0  0  0  0  0  0  0  0  0
    9.0146   -7.2126    0.0000 C   0  0  0  0  0  0  0  0  0  0  0  0
    9.8019   -7.4590    0.0000 O   0  0  0  0  0  0  0  0  0  0  0  0
   10.4090   -6.9003    0.0000 C   0  0  0  0  0  0  0  0  0  0  0  0
 19 18  1  1  0  0  0
 24 19  1  0  0  0  0
 20 19  1  0  0  0  0
 20 22  1  6  0  0  0
 22 21  2  0  0  0  0
 23 22  1  0  0  0  0
 24 23  2  0  0  0  0
 25 24  1  0  0  0  0
 26 25  1  0  0  0  0
 20  1  1  0  0  0  0
  1  2  1  6  0  0  0
  1  3  1  0  0  0  0
  4  3  1  0  0  0  0
  4  5  1  1  0  0  0
  5  6  1  0  0  0  0
  6  7  1  0  0  0  0
  8  7  1  1  0  0  0
 20  8  1  0  0  0  0
  4  8  1  0  0  0  0
  8  9  1  0  0  0  0
  9 10  1  0  0  0  0
 10 11  2  0  0  0  0
 10 12  1  0  0  0  0
 12 13  1  0  0  0  0
 13 14  1  0  0  0  0
 12 15  2  0  0  0  0
  4 15  1  0  0  0  0
 15 16  1  0  0  0  0
 16 17  1  0  0  0  0
M  END
>  <cdx:fragmentId>
13356

$$$$
