442827.cdx
  Mrv1902 05222410232D          

 34 39  0  0  0  0            999 V2000
    7.6520   -4.2557    0.0000 H   0  0  0  0  0  0  0  0  0  0  0  0
    9.7967   -5.4727    0.0000 H   0  0  0  0  0  0  0  0  0  0  0  0
    5.4775   -6.4069    0.0000 O   0  0  0  0  0  0  0  0  0  0  0  0
    9.0467   -5.9678    0.0000 C   0  0  0  0  0  0  0  0  0  0  0  0
    8.3353   -6.3856    0.0000 O   0  0  0  0  0  0  0  0  0  0  0  0
    7.6178   -5.9784    0.0000 C   0  0  0  0  0  0  0  0  0  0  0  0
    6.9064   -6.3962    0.0000 C   0  0  0  0  0  0  0  0  0  0  0  0
    6.1889   -5.9890    0.0000 C   0  0  0  0  0  0  0  0  0  0  0  0
    6.1827   -5.1641    0.0000 C   0  0  0  0  0  0  0  0  0  0  0  0
    6.8941   -4.7463    0.0000 C   0  0  0  0  0  0  0  0  0  0  0  0
    7.6116   -5.1534    0.0000 C   0  0  0  0  0  0  0  0  0  0  0  0
    8.3230   -4.7356    0.0000 C   0  0  2  0  0  0  0  0  0  0  0  0
    8.4885   -3.9274    0.0000 O   0  0  0  0  0  0  0  0  0  0  0  0
    9.3084   -3.8350    0.0000 C   0  0  0  0  0  0  0  0  0  0  0  0
    9.7883   -3.1640    0.0000 C   0  0  0  0  0  0  0  0  0  0  0  0
   10.6094   -3.2441    0.0000 C   0  0  0  0  0  0  0  0  0  0  0  0
   11.2184   -2.6876    0.0000 O   0  0  0  0  0  0  0  0  0  0  0  0
   11.9359   -3.0947    0.0000 C   0  0  0  0  0  0  0  0  0  0  0  0
   11.7704   -3.9030    0.0000 O   0  0  0  0  0  0  0  0  0  0  0  0
   10.9506   -3.9953    0.0000 C   0  0  0  0  0  0  0  0  0  0  0  0
   10.4706   -4.6663    0.0000 C   0  0  0  0  0  0  0  0  0  0  0  0
    9.6495   -4.5862    0.0000 C   0  0  0  0  0  0  0  0  0  0  0  0
    9.0406   -5.1428    0.0000 C   0  0  2  0  0  0  0  0  0  0  0  0
    4.7644   -5.9921    0.0000 C   0  0  2  0  0  0  0  0  0  0  0  0
    4.7615   -5.1671    0.0000 O   0  0  0  0  0  0  0  0  0  0  0  0
    4.0457   -4.7570    0.0000 C   0  0  1  0  0  0  0  0  0  0  0  0
    3.3326   -5.1720    0.0000 C   0  0  2  0  0  0  0  0  0  0  0  0
    3.3191   -5.9967    0.0000 C   0  0  1  0  0  0  0  0  0  0  0  0
    4.0186   -6.4065    0.0000 C   0  0  1  0  0  0  0  0  0  0  0  0
    4.0428   -3.9320    0.0000 C   0  0  0  0  0  0  0  0  0  0  0  0
    2.6000   -6.4011    0.0000 O   0  0  0  0  0  0  0  0  0  0  0  0
    4.0093   -7.2314    0.0000 O   0  0  0  0  0  0  0  0  0  0  0  0
    2.6208   -4.7548    0.0000 O   0  0  0  0  0  0  0  0  0  0  0  0
    3.3269   -3.5220    0.0000 O   0  0  0  0  0  0  0  0  0  0  0  0
 12  1  1  1  0  0  0
 23  2  1  1  0  0  0
  8  3  1  0  0  0  0
 20 16  2  0  0  0  0
 22 14  1  0  0  0  0
 11  6  2  0  0  0  0
 23 12  1  0  0  0  0
 23  4  1  0  0  0  0
  5  4  1  0  0  0  0
  6  5  1  0  0  0  0
  7  6  1  0  0  0  0
  8  7  2  0  0  0  0
  9  8  1  0  0  0  0
 10  9  2  0  0  0  0
 11 10  1  0  0  0  0
 12 11  1  0  0  0  0
 13 12  1  0  0  0  0
 14 13  1  0  0  0  0
 15 14  2  0  0  0  0
 16 15  1  0  0  0  0
 17 16  1  0  0  0  0
 18 17  1  0  0  0  0
 19 18  1  0  0  0  0
 20 19  1  0  0  0  0
 21 20  1  0  0  0  0
 22 21  2  0  0  0  0
 23 22  1  0  0  0  0
 24  3  1  1  0  0  0
 24 25  1  0  0  0  0
 25 26  1  0  0  0  0
 26 27  1  0  0  0  0
 27 28  1  0  0  0  0
 28 29  1  0  0  0  0
 29 24  1  0  0  0  0
 26 30  1  1  0  0  0
 28 31  1  1  0  0  0
 29 32  1  6  0  0  0
 27 33  1  6  0  0  0
 30 34  1  0  0  0  0
M  END
>  <cdx:fragmentId>
5

$$$$
