442822.cdx
  Mrv1902 05222410252D          

 27 29  0  0  0  0            999 V2000
   15.0686  -11.6192    0.0000 C   0  0  0  0  0  0  0  0  0  0  0  0
   15.0686  -10.7942    0.0000 C   0  0  0  0  0  0  0  0  0  0  0  0
   14.3541  -10.3817    0.0000 C   0  0  0  0  0  0  0  0  0  0  0  0
   13.6396  -10.7942    0.0000 C   0  0  0  0  0  0  0  0  0  0  0  0
   12.9252  -10.3817    0.0000 C   0  0  0  0  0  0  0  0  0  0  0  0
   12.2107  -10.7942    0.0000 C   0  0  0  0  0  0  0  0  0  0  0  0
   12.2107  -11.6192    0.0000 C   0  0  0  0  0  0  0  0  0  0  0  0
   12.9252  -12.0317    0.0000 C   0  0  0  0  0  0  0  0  0  0  0  0
   13.6396  -11.6192    0.0000 C   0  0  0  0  0  0  0  0  0  0  0  0
   14.3541  -12.0317    0.0000 O   0  0  0  0  0  0  0  0  0  0  0  0
   14.3541   -9.5567    0.0000 O   0  0  0  0  0  0  0  0  0  0  0  0
   15.7830  -10.3817    0.0000 C   0  0  0  0  0  0  0  0  0  0  0  0
   16.4975  -10.7942    0.0000 C   0  0  0  0  0  0  0  0  0  0  0  0
   17.2120  -10.3817    0.0000 C   0  0  0  0  0  0  0  0  0  0  0  0
   17.2120   -9.5567    0.0000 C   0  0  0  0  0  0  0  0  0  0  0  0
   16.4975   -9.1442    0.0000 C   0  0  0  0  0  0  0  0  0  0  0  0
   15.7830   -9.5567    0.0000 C   0  0  0  0  0  0  0  0  0  0  0  0
   17.9265  -10.7942    0.0000 C   0  0  0  0  0  0  0  0  0  0  0  0
   18.6409  -10.3817    0.0000 C   0  0  0  0  0  0  0  0  0  0  0  0
   19.3554  -10.7942    0.0000 C   0  0  0  0  0  0  0  0  0  0  0  0
   19.3554  -11.6192    0.0000 C   0  0  0  0  0  0  0  0  0  0  0  0
   20.0699  -10.3817    0.0000 C   0  0  0  0  0  0  0  0  0  0  0  0
   16.4975  -11.6192    0.0000 O   0  0  0  0  0  0  0  0  0  0  0  0
   17.2120  -12.0317    0.0000 C   0  0  0  0  0  0  0  0  0  0  0  0
   17.9265   -9.1442    0.0000 O   0  0  0  0  0  0  0  0  0  0  0  0
   11.4962  -12.0317    0.0000 O   0  0  0  0  0  0  0  0  0  0  0  0
   12.9252   -9.5567    0.0000 O   0  0  0  0  0  0  0  0  0  0  0  0
  1  2  1  0  0  0  0
  2  3  1  0  0  0  0
  3  4  1  0  0  0  0
  4  5  1  0  0  0  0
  5  6  2  0  0  0  0
  6  7  1  0  0  0  0
  7  8  2  0  0  0  0
  8  9  1  0  0  0  0
  4  9  2  0  0  0  0
  9 10  1  0  0  0  0
  1 10  1  0  0  0  0
  3 11  2  0  0  0  0
 12 13  1  0  0  0  0
 13 14  2  0  0  0  0
 14 15  1  0  0  0  0
 15 16  2  0  0  0  0
 16 17  1  0  0  0  0
 12 17  2  0  0  0  0
 18 19  1  0  0  0  0
 19 20  2  0  0  0  0
 20 21  1  0  0  0  0
 20 22  1  0  0  0  0
 14 18  1  0  0  0  0
 23 24  1  0  0  0  0
 13 23  1  0  0  0  0
 15 25  1  0  0  0  0
  2 12  1  0  0  0  0
  7 26  1  0  0  0  0
  5 27  1  0  0  0  0
M  END
>  <cdx:groupId>
13040

>  <cdx:fragmentId>
12982

$$$$
