442808.cdx
  Mrv1902 05222410252D          

 21 23  0  0  0  0            999 V2000
    5.3594   -7.7124    0.0000 O   0  0  0  0  0  0  0  0  0  0  0  0
    8.2173  -11.0124    0.0000 O   0  0  0  0  0  0  0  0  0  0  0  0
    8.9318   -8.9499    0.0000 C   0  0  0  0  0  0  0  0  0  0  0  0
    8.9318   -9.7749    0.0000 C   0  0  0  0  0  0  0  0  0  0  0  0
    8.2173  -10.1874    0.0000 C   0  0  0  0  0  0  0  0  0  0  0  0
    7.5028   -9.7749    0.0000 C   0  0  0  0  0  0  0  0  0  0  0  0
    7.5028   -8.9499    0.0000 C   0  0  0  0  0  0  0  0  0  0  0  0
    8.2173   -8.5374    0.0000 C   0  0  0  0  0  0  0  0  0  0  0  0
    4.6450   -6.4749    0.0000 C   0  0  0  0  0  0  0  0  0  0  0  0
    5.3594   -6.0624    0.0000 O   0  0  0  0  0  0  0  0  0  0  0  0
    9.6463   -6.0624    0.0000 O   0  0  0  0  0  0  0  0  0  0  0  0
    8.2173   -6.0624    0.0000 O   0  0  0  0  0  0  0  0  0  0  0  0
    7.5028   -6.4749    0.0000 C   0  0  0  0  0  0  0  0  0  0  0  0
    6.7884   -6.0624    0.0000 C   0  0  0  0  0  0  0  0  0  0  0  0
    6.0739   -6.4749    0.0000 C   0  0  0  0  0  0  0  0  0  0  0  0
    6.0739   -7.2999    0.0000 C   0  0  0  0  0  0  0  0  0  0  0  0
    6.7884   -7.7124    0.0000 C   0  0  0  0  0  0  0  0  0  0  0  0
    7.5028   -7.2999    0.0000 C   0  0  0  0  0  0  0  0  0  0  0  0
    8.2173   -7.7124    0.0000 C   0  0  0  0  0  0  0  0  0  0  0  0
    8.9318   -7.2999    0.0000 C   0  0  0  0  0  0  0  0  0  0  0  0
    8.9318   -6.4749    0.0000 C   0  0  0  0  0  0  0  0  0  0  0  0
 16  1  1  0  0  0  0
 19  8  1  0  0  0  0
  5  2  1  0  0  0  0
  8  3  2  0  0  0  0
  4  3  1  0  0  0  0
  5  4  2  0  0  0  0
  6  5  1  0  0  0  0
  7  6  2  0  0  0  0
  8  7  1  0  0  0  0
 15 10  1  0  0  0  0
 10  9  1  0  0  0  0
 21 11  2  0  0  0  0
 21 12  1  0  0  0  0
 13 12  1  0  0  0  0
 18 13  2  0  0  0  0
 14 13  1  0  0  0  0
 15 14  2  0  0  0  0
 16 15  1  0  0  0  0
 17 16  2  0  0  0  0
 18 17  1  0  0  0  0
 19 18  1  0  0  0  0
 20 19  2  0  0  0  0
 21 20  1  0  0  0  0
M  END
>  <cdx:fragmentId>
5

$$$$
