442873.cdx
  Mrv1902 05222410192D          

 25 29  0  0  0  0            999 V2000
    3.4232   -7.8576    0.0000 O   0  0  0  0  0  0  0  0  0  0  0  0
    3.0831   -7.1059    0.0000 C   0  0  0  0  0  0  0  0  0  0  0  0
    3.6929   -6.5502    0.0000 O   0  0  0  0  0  0  0  0  0  0  0  0
    4.4098   -6.9584    0.0000 C   0  0  0  0  0  0  0  0  0  0  0  0
    4.2432   -7.7664    0.0000 C   0  0  0  0  0  0  0  0  0  0  0  0
    5.1929   -6.6987    0.0000 C   0  0  0  0  0  0  0  0  0  0  0  0
    5.8093   -7.2470    0.0000 C   0  0  0  0  0  0  0  0  0  0  0  0
    5.6427   -8.0550    0.0000 C   0  0  0  0  0  0  0  0  0  0  0  0
    4.8596   -8.3147    0.0000 C   0  0  0  0  0  0  0  0  0  0  0  0
    7.2627   -7.4682    0.0000 O   0  0  0  0  0  0  0  0  0  0  0  0
    6.5924   -6.9873    0.0000 C   0  0  2  0  0  0  0  0  0  0  0  0
    6.8426   -6.2012    0.0000 C   0  0  1  0  0  0  0  0  0  0  0  0
    7.6675   -6.1962    0.0000 C   0  0  2  0  0  0  0  0  0  0  0  0
    7.9272   -6.9793    0.0000 C   0  0  2  0  0  0  0  0  0  0  0  0
    8.1484   -5.5259    0.0000 C   0  0  0  0  0  0  0  0  0  0  0  0
    6.3536   -5.5367    0.0000 C   0  0  0  0  0  0  0  0  0  0  0  0
   11.1067   -7.8111    0.0000 O   0  0  0  0  0  0  0  0  0  0  0  0
   11.4376   -7.0554    0.0000 C   0  0  0  0  0  0  0  0  0  0  0  0
   10.8212   -6.5071    0.0000 O   0  0  0  0  0  0  0  0  0  0  0  0
   10.1093   -6.9239    0.0000 C   0  0  0  0  0  0  0  0  0  0  0  0
   10.2857   -7.7298    0.0000 C   0  0  0  0  0  0  0  0  0  0  0  0
    9.3231   -6.6737    0.0000 C   0  0  0  0  0  0  0  0  0  0  0  0
    8.7134   -7.2295    0.0000 C   0  0  0  0  0  0  0  0  0  0  0  0
    8.8898   -8.0354    0.0000 C   0  0  0  0  0  0  0  0  0  0  0  0
    9.6759   -8.2856    0.0000 C   0  0  0  0  0  0  0  0  0  0  0  0
  1  2  1  0  0  0  0
  2  3  1  0  0  0  0
  3  4  1  0  0  0  0
  4  5  1  0  0  0  0
  1  5  1  0  0  0  0
  6  7  1  0  0  0  0
  7  8  2  0  0  0  0
  8  9  1  0  0  0  0
  9  5  2  0  0  0  0
  6  4  2  0  0  0  0
 10 11  1  0  0  0  0
 11 12  1  0  0  0  0
 12 13  1  0  0  0  0
 13 14  1  0  0  0  0
 10 14  1  0  0  0  0
 13 15  1  1  0  0  0
 12 16  1  6  0  0  0
 17 18  1  0  0  0  0
 18 19  1  0  0  0  0
 19 20  1  0  0  0  0
 20 21  1  0  0  0  0
 17 21  1  0  0  0  0
 22 23  1  0  0  0  0
 23 24  2  0  0  0  0
 24 25  1  0  0  0  0
 25 21  2  0  0  0  0
 22 20  2  0  0  0  0
 14 23  1  6  0  0  0
 11  7  1  1  0  0  0
M  END
>  <cdx:fragmentId>
13454

$$$$
