12442899.cdx
  Mrv1902 05222410182D          

 22 25  0  0  0  0            999 V2000
    7.2680  -14.1672    0.0000 C   0  0  1  0  0  0  0  0  0  0  0  0
    6.5540  -14.5804    0.0000 C   0  0  1  0  0  0  0  0  0  0  0  0
    5.8394  -14.1682    0.0000 C   0  0  0  0  0  0  0  0  0  0  0  0
    5.1250  -14.5809    0.0000 C   0  0  0  0  0  0  0  0  0  0  0  0
    5.1253  -15.4059    0.0000 C   0  0  0  0  0  0  0  0  0  0  0  0
    5.8399  -15.8182    0.0000 C   0  0  0  0  0  0  0  0  0  0  0  0
    6.5543  -15.4054    0.0000 N   0  0  0  0  0  0  0  0  0  0  0  0
    7.2686  -15.8182    0.0000 C   0  0  0  0  0  0  0  0  0  0  0  0
    7.9825  -15.4047    0.0000 C   0  0  2  0  0  0  0  0  0  0  0  0
    8.6970  -15.8172    0.0000 C   0  0  0  0  0  0  0  0  0  0  0  0
    9.4115  -15.4047    0.0000 C   0  0  0  0  0  0  0  0  0  0  0  0
    9.4115  -14.5797    0.0000 C   0  0  0  0  0  0  0  0  0  0  0  0
    8.6970  -14.1672    0.0000 N   0  0  0  0  0  0  0  0  0  0  0  0
    8.6970  -13.3422    0.0000 C   0  0  0  0  0  0  0  0  0  0  0  0
    7.9825  -12.9297    0.0000 C   0  0  0  0  0  0  0  0  0  0  0  0
    7.2680  -13.3422    0.0000 C   0  0  0  0  0  0  0  0  0  0  0  0
    7.9825  -14.5797    0.0000 C   0  0  2  0  0  0  0  0  0  0  0  0
    5.8399  -16.6432    0.0000 O   0  0  0  0  0  0  0  0  0  0  0  0
    7.9825  -16.2297    0.0000 O   0  0  0  0  0  0  0  0  0  0  0  0
    7.2680  -14.9922    0.0000 H   0  0  0  0  0  0  0  0  0  0  0  0
    6.5540  -13.7554    0.0000 H   0  0  0  0  0  0  0  0  0  0  0  0
    7.9825  -13.7547    0.0000 H   0  0  0  0  0  0  0  0  0  0  0  0
  1  2  1  0  0  0  0
  2  3  1  0  0  0  0
  3  4  1  0  0  0  0
  4  5  1  0  0  0  0
  5  6  1  0  0  0  0
  6  7  1  0  0  0  0
  7  8  1  0  0  0  0
  8  9  1  0  0  0  0
  9 10  1  0  0  0  0
 10 11  1  0  0  0  0
 11 12  1  0  0  0  0
 12 13  1  0  0  0  0
 13 14  1  0  0  0  0
 14 15  1  0  0  0  0
 15 16  1  0  0  0  0
  1 16  1  0  0  0  0
  1 17  1  0  0  0  0
 17  9  1  0  0  0  0
  2  7  1  0  0  0  0
 13 17  1  0  0  0  0
  6 18  2  0  0  0  0
  9 19  1  6  0  0  0
  1 20  1  6  0  0  0
  2 21  1  1  0  0  0
 17 22  1  6  0  0  0
M  END
>  <cdx:groupId>
92568

>  <cdx:fragmentId>
92502

$$$$
