442838.cdx
  Mrv1902 05222410212D          

 28 31  0  0  0  0            999 V2000
   15.3495  -10.6601    0.0000 O   0  0  0  0  0  0  0  0  0  0  0  0
   15.4358   -9.8397    0.0000 C   0  0  1  0  0  0  0  0  0  0  0  0
   14.6821   -9.5041    0.0000 C   0  0  2  0  0  0  0  0  0  0  0  0
   14.1301  -10.1172    0.0000 C   0  0  2  0  0  0  0  0  0  0  0  0
   13.3051  -10.1172    0.0000 C   0  0  0  0  0  0  0  0  0  0  0  0
   12.8926  -10.8317    0.0000 C   0  0  0  0  0  0  0  0  0  0  0  0
   13.3051  -11.5461    0.0000 C   0  0  0  0  0  0  0  0  0  0  0  0
   14.1301  -11.5461    0.0000 C   0  0  2  0  0  0  0  0  0  0  0  0
   14.5426  -10.8317    0.0000 C   0  0  2  0  0  0  0  0  0  0  0  0
   12.8926  -12.2606    0.0000 O   0  0  0  0  0  0  0  0  0  0  0  0
   14.5426  -12.2606    0.0000 C   0  0  0  0  0  0  0  0  0  0  0  0
   15.3676  -12.2606    0.0000 C   0  0  0  0  0  0  0  0  0  0  0  0
   15.7801  -12.9751    0.0000 C   0  0  0  0  0  0  0  0  0  0  0  0
   14.5106   -8.6971    0.0000 C   0  0  0  0  0  0  0  0  0  0  0  0
   12.8926   -9.4027    0.0000 O   0  0  0  0  0  0  0  0  0  0  0  0
   12.0676   -9.4027    0.0000 C   0  0  0  0  0  0  0  0  0  0  0  0
   13.5932   -8.9113    0.0000 O   0  0  0  0  0  0  0  0  0  0  0  0
   14.0781   -8.2439    0.0000 C   0  0  0  0  0  0  0  0  0  0  0  0
   18.3638   -8.3472    0.0000 O   0  0  0  0  0  0  0  0  0  0  0  0
   18.8487   -9.0147    0.0000 C   0  0  0  0  0  0  0  0  0  0  0  0
   18.3638   -9.6821    0.0000 O   0  0  0  0  0  0  0  0  0  0  0  0
   17.5792   -9.4272    0.0000 C   0  0  0  0  0  0  0  0  0  0  0  0
   17.5792   -8.6022    0.0000 C   0  0  0  0  0  0  0  0  0  0  0  0
   16.8647   -9.8397    0.0000 C   0  0  0  0  0  0  0  0  0  0  0  0
   16.1502   -9.4272    0.0000 C   0  0  0  0  0  0  0  0  0  0  0  0
   16.1502   -8.6022    0.0000 C   0  0  0  0  0  0  0  0  0  0  0  0
   16.8647   -8.1897    0.0000 C   0  0  0  0  0  0  0  0  0  0  0  0
   15.0275  -11.4991    0.0000 H   0  0  0  0  0  0  0  0  0  0  0  0
  1  2  1  0  0  0  0
  2  3  1  0  0  0  0
  3  4  1  0  0  0  0
  4  5  1  0  0  0  0
  5  6  2  0  0  0  0
  6  7  1  0  0  0  0
  7  8  1  0  0  0  0
  8  9  1  0  0  0  0
  4  9  1  0  0  0  0
  1  9  1  0  0  0  0
  7 10  2  0  0  0  0
 11 12  1  0  0  0  0
 12 13  2  0  0  0  0
  8 11  1  6  0  0  0
  3 14  1  6  0  0  0
 15 16  1  0  0  0  0
  5 15  1  0  0  0  0
 17 18  1  0  0  0  0
  4 17  1  6  0  0  0
 19 20  1  0  0  0  0
 20 21  1  0  0  0  0
 21 22  1  0  0  0  0
 22 23  1  0  0  0  0
 19 23  1  0  0  0  0
 24 25  1  0  0  0  0
 25 26  2  0  0  0  0
 26 27  1  0  0  0  0
 27 23  2  0  0  0  0
 24 22  2  0  0  0  0
  2 25  1  1  0  0  0
  9 28  1  6  0  0  0
M  END
>  <cdx:groupId>
13345

>  <cdx:fragmentId>
13261

$$$$
