6442939.cdx
  Mrv1902 05222410182D          

 51 55  0  0  0  0            999 V2000
    5.1001   -7.3749    0.0000 C   0  0  0  0  0  0  0  0  0  0  0  0
    4.3856   -7.7874    0.0000 C   0  0  0  0  0  0  0  0  0  0  0  0
    3.6711   -7.3749    0.0000 C   0  0  0  0  0  0  0  0  0  0  0  0
    5.1001   -6.5499    0.0000 O   0  0  0  0  0  0  0  0  0  0  0  0
    5.8146   -7.7874    0.0000 O   0  0  0  0  0  0  0  0  0  0  0  0
    2.9567   -7.7874    0.0000 C   0  0  0  0  0  0  0  0  0  0  0  0
    2.9567   -8.6124    0.0000 C   0  0  0  0  0  0  0  0  0  0  0  0
    2.2422   -9.0249    0.0000 C   0  0  0  0  0  0  0  0  0  0  0  0
    1.5277   -8.6124    0.0000 C   0  0  0  0  0  0  0  0  0  0  0  0
    1.5277   -7.7874    0.0000 C   0  0  0  0  0  0  0  0  0  0  0  0
    2.2422   -7.3749    0.0000 C   0  0  0  0  0  0  0  0  0  0  0  0
    0.8133   -9.0249    0.0000 O   0  0  0  0  0  0  0  0  0  0  0  0
    7.9580   -7.3749    0.0000 O   0  0  0  0  0  0  0  0  0  0  0  0
    7.2435   -7.7874    0.0000 C   0  0  2  0  0  0  0  0  0  0  0  0
    6.5290   -7.3749    0.0000 C   0  0  1  0  0  0  0  0  0  0  0  0
    6.5290   -6.5499    0.0000 C   0  0  2  0  0  0  0  0  0  0  0  0
    7.2435   -6.1374    0.0000 C   0  0  1  0  0  0  0  0  0  0  0  0
    7.9580   -6.5499    0.0000 C   0  0  1  0  0  0  0  0  0  0  0  0
    7.2435   -8.6124    0.0000 O   0  0  0  0  0  0  0  0  0  0  0  0
    7.9580   -9.0249    0.0000 C   0  0  0  0  0  0  0  0  0  0  0  0
    7.9580   -9.8499    0.0000 C   0  0  0  0  0  0  0  0  0  0  0  0
    8.6724  -10.2624    0.0000 C   0  0  0  0  0  0  0  0  0  0  0  0
    9.3869   -9.8499    0.0000 C   0  0  0  0  0  0  0  0  0  0  0  0
    9.3869   -9.0249    0.0000 C   0  0  0  0  0  0  0  0  0  0  0  0
    8.6724   -8.6124    0.0000 C   0  0  0  0  0  0  0  0  0  0  0  0
   10.1014   -8.6124    0.0000 O   0  0  0  0  0  0  0  0  0  0  0  0
   11.5303   -8.6124    0.0000 O   0  0  0  0  0  0  0  0  0  0  0  0
   10.8159   -9.0249    0.0000 C   0  0  2  0  0  0  0  0  0  0  0  0
   10.8159   -9.8499    0.0000 C   0  0  1  0  0  0  0  0  0  0  0  0
   11.5303  -10.2624    0.0000 C   0  0  2  0  0  0  0  0  0  0  0  0
   12.2448   -9.8499    0.0000 C   0  0  1  0  0  0  0  0  0  0  0  0
   12.2448   -9.0249    0.0000 C   0  0  1  0  0  0  0  0  0  0  0  0
   12.9593   -8.6124    0.0000 C   0  0  0  0  0  0  0  0  0  0  0  0
   13.6737   -9.0249    0.0000 O   0  0  0  0  0  0  0  0  0  0  0  0
   12.9593  -10.2624    0.0000 O   0  0  0  0  0  0  0  0  0  0  0  0
   11.5303  -11.0874    0.0000 O   0  0  0  0  0  0  0  0  0  0  0  0
   10.1014  -10.2624    0.0000 O   0  0  0  0  0  0  0  0  0  0  0  0
    8.6724  -11.0874    0.0000 C   0  0  0  0  0  0  0  0  0  0  0  0
    7.2435  -10.2624    0.0000 C   0  0  0  0  0  0  0  0  0  0  0  0
    6.5290   -9.8499    0.0000 C   0  0  0  0  0  0  0  0  0  0  0  0
    5.8146  -10.2624    0.0000 C   0  0  0  0  0  0  0  0  0  0  0  0
    5.8146  -11.0874    0.0000 C   0  0  0  0  0  0  0  0  0  0  0  0
    6.5290  -11.4999    0.0000 C   0  0  0  0  0  0  0  0  0  0  0  0
    7.2435  -11.0874    0.0000 O   0  0  0  0  0  0  0  0  0  0  0  0
    6.5290  -12.3249    0.0000 O   0  0  0  0  0  0  0  0  0  0  0  0
    5.1001   -9.8499    0.0000 O   0  0  0  0  0  0  0  0  0  0  0  0
    4.3856  -10.2624    0.0000 C   0  0  0  0  0  0  0  0  0  0  0  0
    8.6724   -6.1374    0.0000 C   0  0  0  0  0  0  0  0  0  0  0  0
    9.3869   -6.5499    0.0000 O   0  0  0  0  0  0  0  0  0  0  0  0
    7.2435   -5.3124    0.0000 O   0  0  0  0  0  0  0  0  0  0  0  0
    5.8146   -6.1374    0.0000 O   0  0  0  0  0  0  0  0  0  0  0  0
  1  2  1  0  0  0  0
  2  3  2  0  0  0  0
  1  4  2  0  0  0  0
  1  5  1  0  0  0  0
  6  7  1  0  0  0  0
  7  8  2  0  0  0  0
  8  9  1  0  0  0  0
  9 10  2  0  0  0  0
 10 11  1  0  0  0  0
  6 11  2  0  0  0  0
  9 12  1  0  0  0  0
  3  6  1  0  0  0  0
 13 14  1  0  0  0  0
 14 15  1  0  0  0  0
 15 16  1  0  0  0  0
 16 17  1  0  0  0  0
 17 18  1  0  0  0  0
 13 18  1  0  0  0  0
 20 21  1  0  0  0  0
 21 22  2  0  0  0  0
 22 23  1  0  0  0  0
 23 24  2  0  0  0  0
 24 25  1  0  0  0  0
 20 25  2  0  0  0  0
 19 20  1  0  0  0  0
 27 28  1  0  0  0  0
 28 29  1  0  0  0  0
 29 30  1  0  0  0  0
 30 31  1  0  0  0  0
 31 32  1  0  0  0  0
 27 32  1  0  0  0  0
 33 34  1  0  0  0  0
 32 33  1  6  0  0  0
 31 35  1  1  0  0  0
 30 36  1  6  0  0  0
 29 37  1  1  0  0  0
 28 26  1  6  0  0  0
 24 26  1  0  0  0  0
 22 38  1  0  0  0  0
 39 40  2  0  0  0  0
 40 41  1  0  0  0  0
 41 42  2  0  0  0  0
 42 43  1  0  0  0  0
 43 44  1  0  0  0  0
 39 44  1  0  0  0  0
 43 45  2  0  0  0  0
 46 47  1  0  0  0  0
 41 46  1  0  0  0  0
 21 39  1  0  0  0  0
 14 19  1  1  0  0  0
 48 49  1  0  0  0  0
 18 48  1  1  0  0  0
 17 50  1  6  0  0  0
 16 51  1  1  0  0  0
 15  5  1  6  0  0  0
M  END
>  <cdx:groupId>
20222

>  <cdx:fragmentId>
20120

$$$$
