442987.cdx
  Mrv1902 05222410242D          

 41 47  0  0  0  0            999 V2000
    6.2899  -11.2794    0.0000 H   0  0  0  0  0  0  0  0  0  0  0  0
    8.2958  -10.2071    0.0000 H   0  0  0  0  0  0  0  0  0  0  0  0
   10.1088   -7.8137    0.0000 H   0  0  0  0  0  0  0  0  0  0  0  0
   10.2526   -6.3920    0.0000 H   0  0  0  0  0  0  0  0  0  0  0  0
    7.6703   -7.4342    0.0000 H   0  0  0  0  0  0  0  0  0  0  0  0
    7.4015   -7.7336    0.0000 H   0  0  0  0  0  0  0  0  0  0  0  0
    8.4163   -4.0519    0.0000 C   0  0  0  0  0  0  0  0  0  0  0  0
   10.5226   -6.7229    0.0000 C   0  0  0  0  0  0  0  0  0  0  0  0
    6.2835   -8.8044    0.0000 C   0  0  0  0  0  0  0  0  0  0  0  0
    5.5771  -11.6946    0.0000 O   0  0  0  0  0  0  0  0  0  0  0  0
    4.1449  -10.8752    0.0000 O   0  0  0  0  0  0  0  0  0  0  0  0
    8.7358   -9.7838    0.0000 O   0  0  0  0  0  0  0  0  0  0  0  0
    9.4827   -9.9048    0.0000 O   0  0  0  0  0  0  0  0  0  0  0  0
   10.4473   -8.5661    0.0000 O   0  0  0  0  0  0  0  0  0  0  0  0
   10.4396   -7.5437    0.0000 O   0  0  0  0  0  0  0  0  0  0  0  0
    7.1647   -8.4064    0.0000 C   0  0  0  0  0  0  0  0  0  0  0  0
    6.9963   -9.2141    0.0000 C   0  0  2  0  0  0  0  0  0  0  0  0
    5.7741   -9.6023    0.0000 O   0  0  0  0  0  0  0  0  0  0  0  0
    5.5738  -10.8697    0.0000 C   0  0  1  0  0  0  0  0  0  0  0  0
    4.8578  -10.4599    0.0000 C   0  0  2  0  0  0  0  0  0  0  0  0
    4.8546   -9.6350    0.0000 C   0  0  0  0  0  0  0  0  0  0  0  0
    5.5674   -9.2197    0.0000 C   0  0  0  0  0  0  0  0  0  0  0  0
    6.2835   -9.6294    0.0000 C   0  0  2  0  0  0  0  0  0  0  0  0
    6.2867  -10.4544    0.0000 C   0  0  2  0  0  0  0  0  0  0  0  0
    7.0028  -10.8641    0.0000 C   0  0  0  0  0  0  0  0  0  0  0  0
    7.7156  -10.4488    0.0000 C   0  0  0  0  0  0  0  0  0  0  0  0
    7.7124   -9.6238    0.0000 C   0  0  1  0  0  0  0  0  0  0  0  0
    8.3233   -9.0694    0.0000 C   0  0  1  0  0  0  0  0  0  0  0  0
    9.1442   -9.1524    0.0000 C   0  0  2  0  0  0  0  0  0  0  0  0
    9.6265   -8.4831    0.0000 C   0  0  1  0  0  0  0  0  0  0  0  0
    9.2880   -7.7307    0.0000 C   0  0  2  0  0  0  0  0  0  0  0  0
    9.7703   -7.0614    0.0000 C   0  0  2  0  0  0  0  0  0  0  0  0
    9.4318   -6.3090    0.0000 C   0  0  2  0  0  0  0  0  0  0  0  0
    9.9141   -5.6397    0.0000 C   0  0  0  0  0  0  0  0  0  0  0  0
    9.5756   -4.8873    0.0000 C   0  0  0  0  0  0  0  0  0  0  0  0
    8.7548   -4.8043    0.0000 C   0  0  1  0  0  0  0  0  0  0  0  0
    8.2725   -5.4736    0.0000 C   0  0  0  0  0  0  0  0  0  0  0  0
    8.6110   -6.2260    0.0000 N   0  0  0  0  0  0  0  0  0  0  0  0
    8.1287   -6.8953    0.0000 C   0  0  0  0  0  0  0  0  0  0  0  0
    8.4672   -7.6477    0.0000 C   0  0  1  0  0  0  0  0  0  0  0  0
    7.9848   -8.3170    0.0000 C   0  0  2  0  0  0  0  0  0  0  0  0
 24  1  1  1  0  0  0
 27  2  1  1  0  0  0
 31  3  1  6  0  0  0
 33  4  1  6  0  0  0
 40  5  1  1  0  0  0
 41  6  1  6  0  0  0
 36  7  1  1  0  0  0
 32  8  1  6  0  0  0
 23  9  1  1  0  0  0
 19 10  1  6  0  0  0
 20 11  1  1  0  0  0
 28 12  1  6  0  0  0
 29 13  1  6  0  0  0
 30 14  1  1  0  0  0
 32 15  1  1  0  0  0
 38 33  1  0  0  0  0
 40 31  1  0  0  0  0
 24 19  1  0  0  0  0
 27 17  1  0  0  0  0
 23 17  1  0  0  0  0
 41 28  1  0  0  0  0
 41 16  1  0  0  0  0
 17 16  1  1  0  0  0
 17 18  1  0  0  0  0
 19 18  1  0  0  0  0
 20 19  1  0  0  0  0
 21 20  1  0  0  0  0
 22 21  1  0  0  0  0
 23 22  1  0  0  0  0
 24 23  1  0  0  0  0
 25 24  1  0  0  0  0
 26 25  1  0  0  0  0
 27 26  1  0  0  0  0
 28 27  1  0  0  0  0
 29 28  1  0  0  0  0
 30 29  1  0  0  0  0
 31 30  1  0  0  0  0
 32 31  1  0  0  0  0
 33 32  1  0  0  0  0
 34 33  1  0  0  0  0
 35 34  1  0  0  0  0
 36 35  1  0  0  0  0
 37 36  1  0  0  0  0
 38 37  1  0  0  0  0
 39 38  1  0  0  0  0
 40 39  1  0  0  0  0
 41 40  1  0  0  0  0
M  END
>  <cdx:groupId>
13730

>  <cdx:fragmentId>
13604

$$$$
