442994.cdx
  Mrv1902 05222410252D          

 53 57  0  0  0  0            999 V2000
    5.4573   -8.8187    0.0000 C   0  0  0  0  0  0  0  0  0  0  0  0
    4.7429   -9.2312    0.0000 C   0  0  0  0  0  0  0  0  0  0  0  0
    4.0284   -8.8187    0.0000 C   0  0  0  0  0  0  0  0  0  0  0  0
    5.4573   -7.9937    0.0000 O   0  0  0  0  0  0  0  0  0  0  0  0
    6.1718   -9.2312    0.0000 O   0  0  0  0  0  0  0  0  0  0  0  0
    3.3139   -9.2312    0.0000 C   0  0  0  0  0  0  0  0  0  0  0  0
    2.5994   -8.8187    0.0000 C   0  0  0  0  0  0  0  0  0  0  0  0
    1.8850   -9.2312    0.0000 C   0  0  0  0  0  0  0  0  0  0  0  0
    1.8850  -10.0562    0.0000 C   0  0  0  0  0  0  0  0  0  0  0  0
    2.5994  -10.4687    0.0000 C   0  0  0  0  0  0  0  0  0  0  0  0
    3.3139  -10.0562    0.0000 C   0  0  0  0  0  0  0  0  0  0  0  0
    1.1705  -10.4687    0.0000 O   0  0  0  0  0  0  0  0  0  0  0  0
    1.1705   -8.8187    0.0000 O   0  0  0  0  0  0  0  0  0  0  0  0
    7.6007   -7.5812    0.0000 O   0  0  0  0  0  0  0  0  0  0  0  0
    6.8863   -7.9937    0.0000 C   0  0  1  0  0  0  0  0  0  0  0  0
    6.8863   -8.8187    0.0000 C   0  0  2  0  0  0  0  0  0  0  0  0
    7.6007   -9.2312    0.0000 C   0  0  1  0  0  0  0  0  0  0  0  0
    8.3152   -8.8187    0.0000 C   0  0  2  0  0  0  0  0  0  0  0  0
    8.3152   -7.9937    0.0000 C   0  0  2  0  0  0  0  0  0  0  0  0
    6.1718   -7.5812    0.0000 C   0  0  0  0  0  0  0  0  0  0  0  0
    6.1718   -6.7562    0.0000 O   0  0  0  0  0  0  0  0  0  0  0  0
    5.4573   -5.5187    0.0000 O   0  0  0  0  0  0  0  0  0  0  0  0
    5.4573   -6.3437    0.0000 C   0  0  2  0  0  0  0  0  0  0  0  0
    4.7429   -6.7562    0.0000 C   0  0  1  0  0  0  0  0  0  0  0  0
    4.0284   -6.3437    0.0000 C   0  0  2  0  0  0  0  0  0  0  0  0
    4.0284   -5.5187    0.0000 C   0  0  1  0  0  0  0  0  0  0  0  0
    4.7429   -5.1062    0.0000 C   0  0  0  0  0  0  0  0  0  0  0  0
    3.3139   -5.1062    0.0000 O   0  0  0  0  0  0  0  0  0  0  0  0
    3.3139   -6.7562    0.0000 O   0  0  0  0  0  0  0  0  0  0  0  0
    4.7429   -7.5812    0.0000 O   0  0  0  0  0  0  0  0  0  0  0  0
    7.6007  -10.0562    0.0000 O   0  0  0  0  0  0  0  0  0  0  0  0
    6.1718  -10.0562    0.0000 O   0  0  0  0  0  0  0  0  0  0  0  0
    6.8863  -10.4687    0.0000 C   0  0  2  0  0  0  0  0  0  0  0  0
    6.8863  -11.2937    0.0000 C   0  0  1  0  0  0  0  0  0  0  0  0
    6.1718  -11.7062    0.0000 C   0  0  1  0  0  0  0  0  0  0  0  0
    5.4573  -11.2937    0.0000 C   0  0  2  0  0  0  0  0  0  0  0  0
    5.4573  -10.4687    0.0000 C   0  0  2  0  0  0  0  0  0  0  0  0
    4.7429  -10.0562    0.0000 C   0  0  0  0  0  0  0  0  0  0  0  0
    4.7429  -11.7062    0.0000 O   0  0  0  0  0  0  0  0  0  0  0  0
    6.1718  -12.5312    0.0000 O   0  0  0  0  0  0  0  0  0  0  0  0
    7.6007  -11.7062    0.0000 O   0  0  0  0  0  0  0  0  0  0  0  0
    9.0297   -9.2312    0.0000 O   0  0  0  0  0  0  0  0  0  0  0  0
    9.0297   -7.5812    0.0000 O   0  0  0  0  0  0  0  0  0  0  0  0
    9.7441   -7.9937    0.0000 C   0  0  0  0  0  0  0  0  0  0  0  0
   10.4586   -7.5812    0.0000 C   0  0  0  0  0  0  0  0  0  0  0  0
   11.1731   -7.9937    0.0000 C   0  0  0  0  0  0  0  0  0  0  0  0
   11.8876   -7.5812    0.0000 C   0  0  0  0  0  0  0  0  0  0  0  0
   12.6020   -7.9937    0.0000 C   0  0  0  0  0  0  0  0  0  0  0  0
   12.6020   -8.8187    0.0000 C   0  0  0  0  0  0  0  0  0  0  0  0
   11.8876   -9.2312    0.0000 C   0  0  0  0  0  0  0  0  0  0  0  0
   11.1731   -8.8187    0.0000 C   0  0  0  0  0  0  0  0  0  0  0  0
   13.3165   -9.2312    0.0000 O   0  0  0  0  0  0  0  0  0  0  0  0
   13.3165   -7.5812    0.0000 O   0  0  0  0  0  0  0  0  0  0  0  0
  1  2  1  0  0  0  0
  2  3  2  0  0  0  0
  1  4  2  0  0  0  0
  1  5  1  0  0  0  0
  6  7  1  0  0  0  0
  7  8  2  0  0  0  0
  8  9  1  0  0  0  0
  9 10  2  0  0  0  0
 10 11  1  0  0  0  0
  6 11  2  0  0  0  0
  9 12  1  0  0  0  0
  8 13  1  0  0  0  0
  3  6  1  0  0  0  0
 14 15  1  0  0  0  0
 15 16  1  0  0  0  0
 16 17  1  0  0  0  0
 17 18  1  0  0  0  0
 18 19  1  0  0  0  0
 14 19  1  0  0  0  0
 22 23  1  0  0  0  0
 23 24  1  0  0  0  0
 24 25  1  0  0  0  0
 25 26  1  0  0  0  0
 26 27  1  0  0  0  0
 22 27  1  0  0  0  0
 26 28  1  6  0  0  0
 25 29  1  1  0  0  0
 24 30  1  6  0  0  0
 23 21  1  1  0  0  0
 20 21  1  0  0  0  0
 15 20  1  1  0  0  0
 32 33  1  0  0  0  0
 33 34  1  0  0  0  0
 34 35  1  0  0  0  0
 35 36  1  0  0  0  0
 36 37  1  0  0  0  0
 32 37  1  0  0  0  0
 37 38  1  6  0  0  0
 36 39  1  1  0  0  0
 35 40  1  6  0  0  0
 34 41  1  6  0  0  0
 33 31  1  1  0  0  0
 17 31  1  1  0  0  0
 18 42  1  6  0  0  0
 44 45  1  0  0  0  0
 43 44  1  0  0  0  0
 46 47  1  0  0  0  0
 47 48  2  0  0  0  0
 48 49  1  0  0  0  0
 49 50  2  0  0  0  0
 50 51  1  0  0  0  0
 46 51  2  0  0  0  0
 49 52  1  0  0  0  0
 48 53  1  0  0  0  0
 45 46  1  0  0  0  0
 19 43  1  1  0  0  0
 16  5  1  6  0  0  0
M  END
>  <cdx:fragmentId>
20278

$$$$
