443046.cdx
  Mrv1902 05222410232D          

 28 31  0  0  0  0            999 V2000
    7.8268   -7.9331    0.0000 C   0  0  0  0  0  0  0  0  0  0  0  0
    7.1146   -7.5166    0.0000 O   0  0  0  0  0  0  0  0  0  0  0  0
    7.8222   -8.7581    0.0000 O   0  0  0  0  0  0  0  0  0  0  0  0
    7.1238   -5.8666    0.0000 H   0  0  0  0  0  0  0  0  0  0  0  0
    7.1054   -9.1666    0.0000 C   0  0  0  0  0  0  0  0  0  0  0  0
    9.9724   -7.5326    0.0000 C   0  0  0  0  0  0  0  0  0  0  0  0
    9.9771   -6.7076    0.0000 C   0  0  0  0  0  0  0  0  0  0  0  0
    5.8612   -4.6221    0.0000 C   0  0  0  0  0  0  0  0  0  0  0  0
    5.0412   -4.5312    0.0000 C   0  0  0  0  0  0  0  0  0  0  0  0
    4.7099   -3.7757    0.0000 C   0  0  0  0  0  0  0  0  0  0  0  0
    5.1985   -3.1110    0.0000 C   0  0  0  0  0  0  0  0  0  0  0  0
    6.0185   -3.2018    0.0000 C   0  0  0  0  0  0  0  0  0  0  0  0
    6.3499   -3.9573    0.0000 C   0  0  0  0  0  0  0  0  0  0  0  0
    6.3424   -5.2922    0.0000 N   0  0  0  0  0  0  0  0  0  0  0  0
    7.8406   -5.4581    0.0000 C   0  0  2  0  0  0  0  0  0  0  0  0
    7.8360   -6.2831    0.0000 C   0  0  0  0  0  0  0  0  0  0  0  0
    8.5481   -6.6996    0.0000 C   0  0  1  0  0  0  0  0  0  0  0  0
    9.2649   -6.2911    0.0000 C   0  0  0  0  0  0  0  0  0  0  0  0
    9.2695   -5.4661    0.0000 C   0  0  0  0  0  0  0  0  0  0  0  0
    8.5573   -5.0496    0.0000 N   0  0  0  0  0  0  0  0  0  0  0  0
    8.5620   -4.2246    0.0000 C   0  0  0  0  0  0  0  0  0  0  0  0
    7.8498   -3.8082    0.0000 C   0  0  0  0  0  0  0  0  0  0  0  0
    7.1330   -4.2167    0.0000 C   0  0  0  0  0  0  0  0  0  0  0  0
    7.1284   -5.0416    0.0000 C   0  0  0  0  0  0  0  0  0  0  0  0
    9.9632   -9.1825    0.0000 C   0  0  0  0  0  0  0  0  0  0  0  0
    9.2511   -8.7661    0.0000 O   0  0  0  0  0  0  0  0  0  0  0  0
    9.2557   -7.9411    0.0000 C   0  0  0  0  0  0  0  0  0  0  0  0
    8.5435   -7.5246    0.0000 C   0  0  0  0  0  0  0  0  0  0  0  0
 15  4  1  6  0  0  0
 17 28  1  1  0  0  0
 18  7  2  0  0  0  0
  7  6  1  0  0  0  0
 13 23  1  0  0  0  0
 14 24  1  0  0  0  0
 13  8  2  0  0  0  0
 14  8  1  0  0  0  0
  9  8  1  0  0  0  0
 10  9  2  0  0  0  0
 11 10  1  0  0  0  0
 12 11  2  0  0  0  0
 13 12  1  0  0  0  0
 24 15  1  0  0  0  0
 20 15  1  0  0  0  0
 16 15  1  0  0  0  0
 17 16  1  0  0  0  0
 18 17  1  0  0  0  0
 19 18  1  0  0  0  0
 20 19  1  0  0  0  0
 21 20  1  0  0  0  0
 22 21  1  0  0  0  0
 23 22  1  0  0  0  0
 24 23  2  0  0  0  0
 27 26  1  0  0  0  0
 26 25  1  0  0  0  0
 28 27  2  0  0  0  0
  1 28  1  0  0  0  0
  1  2  2  0  0  0  0
  1  3  1  0  0  0  0
  3  5  1  0  0  0  0
M  END
>  <cdx:fragmentId>
19

$$$$
