443181.cdx
  Mrv1902 05222410272D          

 11 11  0  0  0  0            999 V2000
    6.4035   -6.6687    0.0000 C   0  0  0  0  0  0  0  0  0  0  0  0
    6.4035   -5.8437    0.0000 C   0  0  1  0  0  0  0  0  0  0  0  0
    7.1180   -5.4312    0.0000 C   0  0  0  0  0  0  0  0  0  0  0  0
    7.8324   -5.8437    0.0000 C   0  0  0  0  0  0  0  0  0  0  0  0
    7.8324   -6.6687    0.0000 C   0  0  1  0  0  0  0  0  0  0  0  0
    7.1180   -7.0812    0.0000 C   0  0  0  0  0  0  0  0  0  0  0  0
    5.6890   -7.0812    0.0000 O   0  0  0  0  0  0  0  0  0  0  0  0
    8.5469   -7.9062    0.0000 C   0  0  0  0  0  0  0  0  0  0  0  0
    8.5469   -7.0812    0.0000 C   0  0  0  0  0  0  0  0  0  0  0  0
    9.2614   -6.6687    0.0000 C   0  0  0  0  0  0  0  0  0  0  0  0
    5.6890   -5.4312    0.0000 C   0  0  0  0  0  0  0  0  0  0  0  0
  1  2  1  0  0  0  0
  2  3  1  0  0  0  0
  3  4  1  0  0  0  0
  4  5  1  0  0  0  0
  5  6  1  0  0  0  0
  1  6  1  0  0  0  0
  1  7  2  0  0  0  0
  8  9  2  0  0  0  0
  9 10  1  0  0  0  0
  5  9  1  6  0  0  0
  2 11  1  6  0  0  0
M  END
>  <cdx:groupId>
35

>  <cdx:fragmentId>
5

$$$$
