443126.cdx
  Mrv1902 05222410232D          

 18 20  0  0  0  0            999 V2000
    6.9964   -5.2854    0.0000 C   0  0  1  0  0  0  0  0  0  0  0  0
    6.2033   -5.0584    0.0000 C   0  0  0  0  0  0  0  0  0  0  0  0
    5.7422   -5.7425    0.0000 C   0  0  0  0  0  0  0  0  0  0  0  0
    6.2504   -6.3924    0.0000 C   0  0  0  0  0  0  0  0  0  0  0  0
    7.0256   -6.1099    0.0000 C   0  0  0  0  0  0  0  0  0  0  0  0
    7.6883   -6.6012    0.0000 C   0  0  2  0  0  0  0  0  0  0  0  0
    8.4857   -6.3893    0.0000 C   0  0  1  0  0  0  0  0  0  0  0  0
    8.8171   -5.6338    0.0000 C   0  0  0  0  0  0  0  0  0  0  0  0
    8.4331   -4.9036    0.0000 C   0  0  0  0  0  0  0  0  0  0  0  0
    7.6228   -4.7486    0.0000 C   0  0  1  0  0  0  0  0  0  0  0  0
    8.0586   -5.4073    0.0000 C   0  0  0  0  0  0  0  0  0  0  0  0
    4.9177   -5.7717    0.0000 O   0  0  0  0  0  0  0  0  0  0  0  0
    7.4109   -3.9512    0.0000 C   0  0  0  0  0  0  0  0  0  0  0  0
    6.0234   -7.1856    0.0000 C   0  0  0  0  0  0  0  0  0  0  0  0
    7.5333   -7.4115    0.0000 O   0  0  0  0  0  0  0  0  0  0  0  0
    9.0225   -7.0157    0.0000 H   0  0  0  0  0  0  0  0  0  0  0  0
    8.2722   -4.6104    0.0000 C   0  0  0  0  0  0  0  0  0  0  0  0
    8.8555   -5.1938    0.0000 C   0  0  0  0  0  0  0  0  0  0  0  0
  1  2  1  1  0  0  0
  2  3  1  0  0  0  0
  3  4  1  0  0  0  0
  4  5  2  0  0  0  0
  5  6  1  0  0  0  0
  6  7  1  0  0  0  0
  7  8  1  0  0  0  0
  8  9  1  0  0  0  0
  9 10  1  0  0  0  0
  1 10  1  0  0  0  0
  1 11  1  0  0  0  0
  7 11  1  0  0  0  0
  1  5  1  0  0  0  0
  3 12  2  0  0  0  0
 10 13  1  6  0  0  0
  4 14  1  0  0  0  0
  6 15  1  6  0  0  0
  7 16  1  1  0  0  0
 11 17  1  0  0  0  0
 11 18  1  0  0  0  0
M  END
>  <cdx:fragmentId>
40741

$$$$
