443309.cdx
  Mrv1902 05222410252D          

 20 22  0  0  0  0            999 V2000
    8.3878  -14.0178    0.0000 O   0  0  0  0  0  0  0  0  0  0  0  0
    8.8727  -14.6853    0.0000 C   0  0  0  0  0  0  0  0  0  0  0  0
    8.3878  -15.3527    0.0000 C   0  0  0  0  0  0  0  0  0  0  0  0
    7.6032  -15.0978    0.0000 C   0  0  1  0  0  0  0  0  0  0  0  0
    6.8887  -15.5103    0.0000 C   0  0  0  0  0  0  0  0  0  0  0  0
    6.1742  -15.0978    0.0000 C   0  0  2  0  0  0  0  0  0  0  0  0
    6.1742  -14.2728    0.0000 C   0  0  1  0  0  0  0  0  0  0  0  0
    6.8887  -13.8603    0.0000 C   0  0  0  0  0  0  0  0  0  0  0  0
    7.6032  -14.2728    0.0000 C   0  0  1  0  0  0  0  0  0  0  0  0
    5.4598  -13.8603    0.0000 C   0  0  0  0  0  0  0  0  0  0  0  0
    4.7453  -14.2728    0.0000 C   0  0  0  0  0  0  0  0  0  0  0  0
    4.7453  -15.0978    0.0000 C   0  0  0  0  0  0  0  0  0  0  0  0
    5.4598  -15.5103    0.0000 C   0  0  0  0  0  0  0  0  0  0  0  0
    9.6977  -14.6853    0.0000 O   0  0  0  0  0  0  0  0  0  0  0  0
    5.4598  -16.3353    0.0000 C   0  0  0  0  0  0  0  0  0  0  0  0
    8.6427  -16.1373    0.0000 C   0  0  0  0  0  0  0  0  0  0  0  0
    6.1742  -13.4478    0.0000 C   0  0  0  0  0  0  0  0  0  0  0  0
    6.1742  -15.9228    0.0000 O   0  0  0  0  0  0  0  0  0  0  0  0
    7.6894  -15.9182    0.0000 H   0  0  0  0  0  0  0  0  0  0  0  0
    7.6894  -13.4523    0.0000 H   0  0  0  0  0  0  0  0  0  0  0  0
  1  2  1  0  0  0  0
  2  3  1  0  0  0  0
  3  4  1  0  0  0  0
  4  5  1  0  0  0  0
  5  6  1  0  0  0  0
  6  7  1  0  0  0  0
  7  8  1  0  0  0  0
  8  9  1  0  0  0  0
  4  9  1  0  0  0  0
  1  9  1  0  0  0  0
 10 11  1  0  0  0  0
 11 12  1  0  0  0  0
 12 13  1  0  0  0  0
 13  6  1  0  0  0  0
 10  7  1  0  0  0  0
  2 14  2  0  0  0  0
 13 15  2  0  0  0  0
  3 16  2  0  0  0  0
  7 17  1  1  0  0  0
  6 18  1  6  0  0  0
  4 19  1  6  0  0  0
  9 20  1  6  0  0  0
M  END
>  <cdx:fragmentId>
92575

$$$$
