443485.cdx
  Mrv1902 05222410252D          

 40 43  0  0  0  0            999 V2000
    6.8038   -5.0099    0.0000 C   0  0  0  0  0  0  0  0  0  0  0  0
    8.9472   -7.8974    0.0000 O   0  0  0  0  0  0  0  0  0  0  0  0
   10.3760   -7.8829    0.0000 O   0  0  0  0  0  0  0  0  0  0  0  0
    9.6574   -7.4777    0.0000 C   0  0  2  0  0  0  0  0  0  0  0  0
    9.6491   -6.6527    0.0000 C   0  0  1  0  0  0  0  0  0  0  0  0
   10.3593   -6.2330    0.0000 C   0  0  2  0  0  0  0  0  0  0  0  0
   11.0779   -6.6382    0.0000 C   0  0  1  0  0  0  0  0  0  0  0  0
   11.0863   -7.4632    0.0000 C   0  0  1  0  0  0  0  0  0  0  0  0
   11.8049   -7.8684    0.0000 C   0  0  0  0  0  0  0  0  0  0  0  0
   12.5152   -7.4487    0.0000 O   0  0  0  0  0  0  0  0  0  0  0  0
   11.7882   -6.2185    0.0000 O   0  0  0  0  0  0  0  0  0  0  0  0
   10.3509   -5.4081    0.0000 O   0  0  0  0  0  0  0  0  0  0  0  0
    8.9304   -6.2475    0.0000 O   0  0  0  0  0  0  0  0  0  0  0  0
    5.3748   -4.1849    0.0000 O   0  0  0  0  0  0  0  0  0  0  0  0
    5.3748   -6.6599    0.0000 C   0  0  0  0  0  0  0  0  0  0  0  0
    6.0893   -6.2474    0.0000 C   0  0  0  0  0  0  0  0  0  0  0  0
    6.0893   -5.4224    0.0000 C   0  0  0  0  0  0  0  0  0  0  0  0
    5.3748   -5.0099    0.0000 C   0  0  0  0  0  0  0  0  0  0  0  0
    4.6604   -5.4224    0.0000 C   0  0  0  0  0  0  0  0  0  0  0  0
    4.6604   -6.2474    0.0000 C   0  0  0  0  0  0  0  0  0  0  0  0
    3.9459   -6.6599    0.0000 O   0  0  0  0  0  0  0  0  0  0  0  0
    1.8201   -3.7594    0.0000 O   0  0  0  0  0  0  0  0  0  0  0  0
    2.5320   -4.1763    0.0000 C   0  0  0  0  0  0  0  0  0  0  0  0
    1.0981   -4.9925    0.0000 O   0  0  0  0  0  0  0  0  0  0  0  0
    1.0880   -6.6425    0.0000 O   0  0  0  0  0  0  0  0  0  0  0  0
    2.5119   -7.4762    0.0000 O   0  0  0  0  0  0  0  0  0  0  0  0
    2.5270   -5.0013    0.0000 C   0  0  2  0  0  0  0  0  0  0  0  0
    1.8100   -5.4094    0.0000 C   0  0  2  0  0  0  0  0  0  0  0  0
    1.8050   -6.2344    0.0000 C   0  0  1  0  0  0  0  0  0  0  0  0
    2.5170   -6.6512    0.0000 C   0  0  2  0  0  0  0  0  0  0  0  0
    6.0893   -7.8974    0.0000 O   0  0  0  0  0  0  0  0  0  0  0  0
    8.2327   -6.6599    0.0000 C   0  0  0  0  0  0  0  0  0  0  0  0
    8.2327   -7.4849    0.0000 C   0  0  0  0  0  0  0  0  0  0  0  0
    7.5182   -7.8974    0.0000 C   0  0  0  0  0  0  0  0  0  0  0  0
    6.8038   -7.4849    0.0000 C   0  0  0  0  0  0  0  0  0  0  0  0
    6.8038   -6.6599    0.0000 C   0  0  0  0  0  0  0  0  0  0  0  0
    7.5182   -6.2474    0.0000 C   0  0  0  0  0  0  0  0  0  0  0  0
    7.5182   -5.4224    0.0000 C   0  0  0  0  0  0  0  0  0  0  0  0
    3.2339   -6.2431    0.0000 C   0  0  1  0  0  0  0  0  0  0  0  0
    3.2390   -5.4181    0.0000 O   0  0  0  0  0  0  0  0  0  0  0  0
 39 21  1  1  0  0  0
 18 14  1  0  0  0  0
 21 20  1  0  0  0  0
 20 15  2  0  0  0  0
 16 15  1  0  0  0  0
 17 16  2  0  0  0  0
 18 17  1  0  0  0  0
 19 18  2  0  0  0  0
 20 19  1  0  0  0  0
 27 23  1  1  0  0  0
 23 22  1  0  0  0  0
 28 24  1  6  0  0  0
 29 25  1  1  0  0  0
 30 26  1  6  0  0  0
 40 27  1  0  0  0  0
 28 27  1  0  0  0  0
 29 28  1  0  0  0  0
 30 29  1  0  0  0  0
 38 37  1  0  0  0  0
 35 31  1  0  0  0  0
 33  2  1  0  0  0  0
 37 32  2  0  0  0  0
 33 32  1  0  0  0  0
 34 33  2  0  0  0  0
 35 34  1  0  0  0  0
 36 35  2  0  0  0  0
 39 30  1  0  0  0  0
 40 39  1  0  0  0  0
  1 38  2  0  0  0  0
 37 36  1  0  0  0  0
  3  4  1  0  0  0  0
  4  5  1  0  0  0  0
  5  6  1  0  0  0  0
  6  7  1  0  0  0  0
  7  8  1  0  0  0  0
  3  8  1  0  0  0  0
  9 10  1  0  0  0  0
  8  9  1  1  0  0  0
  7 11  1  6  0  0  0
  6 12  1  1  0  0  0
  5 13  1  6  0  0  0
  4  2  1  1  0  0  0
 17  1  1  0  0  0  0
M  END
>  <cdx:fragmentId>
20545

$$$$
