443484.cdx
  Mrv1902 05222410252D          

 40 43  0  0  0  0            999 V2000
    6.8038   -5.0099    0.0000 C   0  0  0  0  0  0  0  0  0  0  0  0
    7.5182   -5.4224    0.0000 C   0  0  0  0  0  0  0  0  0  0  0  0
    8.2327   -5.0099    0.0000 C   0  0  0  0  0  0  0  0  0  0  0  0
    8.2327   -4.1849    0.0000 C   0  0  0  0  0  0  0  0  0  0  0  0
    8.9472   -3.7724    0.0000 C   0  0  0  0  0  0  0  0  0  0  0  0
    9.6616   -4.1849    0.0000 C   0  0  0  0  0  0  0  0  0  0  0  0
    9.6616   -5.0099    0.0000 C   0  0  0  0  0  0  0  0  0  0  0  0
    8.9472   -5.4224    0.0000 C   0  0  0  0  0  0  0  0  0  0  0  0
   10.3761   -5.4224    0.0000 O   0  0  0  0  0  0  0  0  0  0  0  0
   11.8050   -5.4079    0.0000 O   0  0  0  0  0  0  0  0  0  0  0  0
   11.0864   -5.0027    0.0000 C   0  0  2  0  0  0  0  0  0  0  0  0
   11.0780   -4.1777    0.0000 C   0  0  1  0  0  0  0  0  0  0  0  0
   11.7882   -3.7580    0.0000 C   0  0  2  0  0  0  0  0  0  0  0  0
   12.5069   -4.1632    0.0000 C   0  0  1  0  0  0  0  0  0  0  0  0
   12.5152   -4.9882    0.0000 C   0  0  1  0  0  0  0  0  0  0  0  0
   13.2339   -5.3934    0.0000 C   0  0  0  0  0  0  0  0  0  0  0  0
   13.9441   -4.9737    0.0000 O   0  0  0  0  0  0  0  0  0  0  0  0
   13.2171   -3.7435    0.0000 O   0  0  0  0  0  0  0  0  0  0  0  0
   11.7799   -2.9331    0.0000 O   0  0  0  0  0  0  0  0  0  0  0  0
   10.3594   -3.7725    0.0000 O   0  0  0  0  0  0  0  0  0  0  0  0
    8.9472   -2.9474    0.0000 O   0  0  0  0  0  0  0  0  0  0  0  0
    5.3748   -4.1849    0.0000 O   0  0  0  0  0  0  0  0  0  0  0  0
    5.3748   -6.6599    0.0000 C   0  0  0  0  0  0  0  0  0  0  0  0
    6.0893   -6.2474    0.0000 C   0  0  0  0  0  0  0  0  0  0  0  0
    6.0893   -5.4224    0.0000 C   0  0  0  0  0  0  0  0  0  0  0  0
    5.3748   -5.0099    0.0000 C   0  0  0  0  0  0  0  0  0  0  0  0
    4.6604   -5.4224    0.0000 C   0  0  0  0  0  0  0  0  0  0  0  0
    4.6604   -6.2474    0.0000 C   0  0  0  0  0  0  0  0  0  0  0  0
    3.9459   -6.6599    0.0000 O   0  0  0  0  0  0  0  0  0  0  0  0
    1.8201   -3.7594    0.0000 O   0  0  0  0  0  0  0  0  0  0  0  0
    2.5320   -4.1763    0.0000 C   0  0  0  0  0  0  0  0  0  0  0  0
    1.0981   -4.9925    0.0000 O   0  0  0  0  0  0  0  0  0  0  0  0
    1.0880   -6.6425    0.0000 O   0  0  0  0  0  0  0  0  0  0  0  0
    2.5119   -7.4762    0.0000 O   0  0  0  0  0  0  0  0  0  0  0  0
    2.5270   -5.0013    0.0000 C   0  0  2  0  0  0  0  0  0  0  0  0
    1.8100   -5.4094    0.0000 C   0  0  2  0  0  0  0  0  0  0  0  0
    1.8050   -6.2344    0.0000 C   0  0  1  0  0  0  0  0  0  0  0  0
    2.5170   -6.6512    0.0000 C   0  0  2  0  0  0  0  0  0  0  0  0
    3.2339   -6.2431    0.0000 C   0  0  1  0  0  0  0  0  0  0  0  0
    3.2390   -5.4181    0.0000 O   0  0  0  0  0  0  0  0  0  0  0  0
 39 29  1  1  0  0  0
 26 22  1  0  0  0  0
 29 28  1  0  0  0  0
 28 23  2  0  0  0  0
 24 23  1  0  0  0  0
 25 24  2  0  0  0  0
 26 25  1  0  0  0  0
 27 26  2  0  0  0  0
 28 27  1  0  0  0  0
 35 31  1  1  0  0  0
 31 30  1  0  0  0  0
 36 32  1  6  0  0  0
 37 33  1  1  0  0  0
 38 34  1  6  0  0  0
 40 35  1  0  0  0  0
 36 35  1  0  0  0  0
 37 36  1  0  0  0  0
 38 37  1  0  0  0  0
 39 38  1  0  0  0  0
 40 39  1  0  0  0  0
  1  2  2  0  0  0  0
  3  4  1  0  0  0  0
  4  5  2  0  0  0  0
  5  6  1  0  0  0  0
  6  7  2  0  0  0  0
  7  8  1  0  0  0  0
  3  8  2  0  0  0  0
 10 11  1  0  0  0  0
 11 12  1  0  0  0  0
 12 13  1  0  0  0  0
 13 14  1  0  0  0  0
 14 15  1  0  0  0  0
 10 15  1  0  0  0  0
 16 17  1  0  0  0  0
 15 16  1  1  0  0  0
 14 18  1  6  0  0  0
 13 19  1  1  0  0  0
 12 20  1  6  0  0  0
 11  9  1  1  0  0  0
  7  9  1  0  0  0  0
  5 21  1  0  0  0  0
  2  3  1  0  0  0  0
 25  1  1  0  0  0  0
M  END
>  <cdx:fragmentId>
20545

$$$$
