6443553.cdx
  Mrv1902 05222410272D          

 21 20  0  0  0  0            999 V2000
    2.5994   -9.6437    0.0000 C   0  0  0  0  0  0  0  0  0  0  0  0
    1.8850  -10.0562    0.0000 C   0  0  0  0  0  0  0  0  0  0  0  0
    2.5994   -8.8187    0.0000 O   0  0  0  0  0  0  0  0  0  0  0  0
    3.3139  -10.0562    0.0000 O   0  0  0  0  0  0  0  0  0  0  0  0
    4.0284   -9.6437    0.0000 C   0  0  0  0  0  0  0  0  0  0  0  0
    4.7429  -10.0562    0.0000 C   0  0  0  0  0  0  0  0  0  0  0  0
    5.4573   -9.6437    0.0000 C   0  0  0  0  0  0  0  0  0  0  0  0
    6.1718  -10.0562    0.0000 C   0  0  0  0  0  0  0  0  0  0  0  0
    6.8863   -9.6437    0.0000 C   0  0  0  0  0  0  0  0  0  0  0  0
    7.6007  -10.0562    0.0000 C   0  0  0  0  0  0  0  0  0  0  0  0
    8.3152   -9.6437    0.0000 C   0  0  0  0  0  0  0  0  0  0  0  0
    9.0297   -9.2312    0.0000 C   0  0  0  0  0  0  0  0  0  0  0  0
    9.7441   -8.8187    0.0000 C   0  0  0  0  0  0  0  0  0  0  0  0
   10.4586   -8.4062    0.0000 C   0  0  0  0  0  0  0  0  0  0  0  0
   11.1731   -7.9937    0.0000 C   0  0  0  0  0  0  0  0  0  0  0  0
   11.8876   -8.4062    0.0000 C   0  0  0  0  0  0  0  0  0  0  0  0
   12.6020   -7.9937    0.0000 C   0  0  0  0  0  0  0  0  0  0  0  0
    5.4573   -8.8187    0.0000 O   0  0  0  0  0  0  0  0  0  0  0  0
    4.7429   -8.4062    0.0000 C   0  0  0  0  0  0  0  0  0  0  0  0
    4.7429   -7.5812    0.0000 O   0  0  0  0  0  0  0  0  0  0  0  0
    4.0284   -8.8187    0.0000 C   0  0  0  0  0  0  0  0  0  0  0  0
  1  2  1  0  0  0  0
  1  3  2  0  0  0  0
  1  4  1  0  0  0  0
  5  6  1  0  0  0  0
  6  7  1  0  0  0  0
  7  8  1  0  0  0  0
  8  9  1  0  0  0  0
  9 10  2  0  0  0  0
 10 11  1  0  0  0  0
 11 12  3  0  0  0  0
 12 13  1  0  0  0  0
 13 14  3  0  0  0  0
 14 15  1  0  0  0  0
 15 16  2  0  0  0  0
 16 17  1  0  0  0  0
 19 20  2  0  0  0  0
 19 21  1  0  0  0  0
 18 19  1  0  0  0  0
  7 18  1  0  0  0  0
  4  5  1  0  0  0  0
M  END
>  <cdx:groupId>
20681

>  <cdx:fragmentId>
20630

$$$$
