443665.cdx
  Mrv1902 05222410232D          

 45 48  0  0  0  0            999 V2000
    6.1189   -7.9004    0.0000 O   0  0  0  0  0  0  0  0  0  0  0  0
    6.5314  -11.0899    0.0000 O   0  0  0  0  0  0  0  0  0  0  0  0
    7.9603  -11.0899    0.0000 O   0  0  0  0  0  0  0  0  0  0  0  0
   12.2471   -8.6149    0.0000 O   0  0  0  0  0  0  0  0  0  0  0  0
   10.1037   -9.0274    0.0000 C   0  0  0  0  0  0  0  0  0  0  0  0
   10.8182   -8.6149    0.0000 C   0  0  0  0  0  0  0  0  0  0  0  0
   11.5327   -9.0274    0.0000 C   0  0  0  0  0  0  0  0  0  0  0  0
   11.5327   -9.8524    0.0000 C   0  0  0  0  0  0  0  0  0  0  0  0
   10.8182  -10.2649    0.0000 C   0  0  0  0  0  0  0  0  0  0  0  0
   10.1037   -9.8524    0.0000 C   0  0  0  0  0  0  0  0  0  0  0  0
    9.3892  -10.2649    0.0000 C   0  0  0  0  0  0  0  0  0  0  0  0
    8.6748   -9.8524    0.0000 C   0  0  0  0  0  0  0  0  0  0  0  0
    7.9603  -10.2649    0.0000 C   0  0  0  0  0  0  0  0  0  0  0  0
    5.8169  -11.5024    0.0000 O   0  0  0  0  0  0  0  0  0  0  0  0
    4.3879  -12.3274    0.0000 O   0  0  0  0  0  0  0  0  0  0  0  0
    2.9590  -11.5024    0.0000 O   0  0  0  0  0  0  0  0  0  0  0  0
    2.2445  -10.2649    0.0000 O   0  0  0  0  0  0  0  0  0  0  0  0
    2.9590   -9.8524    0.0000 C   0  0  0  0  0  0  0  0  0  0  0  0
    3.6735  -10.2649    0.0000 C   0  0  2  0  0  0  0  0  0  0  0  0
    3.6735  -11.0899    0.0000 C   0  0  2  0  0  0  0  0  0  0  0  0
    4.3879  -11.5024    0.0000 C   0  0  1  0  0  0  0  0  0  0  0  0
    5.1024  -11.0899    0.0000 C   0  0  2  0  0  0  0  0  0  0  0  0
    5.1024  -10.2649    0.0000 C   0  0  1  0  0  0  0  0  0  0  0  0
    4.3879   -9.8524    0.0000 O   0  0  0  0  0  0  0  0  0  0  0  0
    5.1024   -8.6149    0.0000 O   0  0  0  0  0  0  0  0  0  0  0  0
    7.9603   -8.6149    0.0000 O   0  0  0  0  0  0  0  0  0  0  0  0
    7.2458   -9.8524    0.0000 C   0  0  0  0  0  0  0  0  0  0  0  0
    6.5314  -10.2649    0.0000 C   0  0  0  0  0  0  0  0  0  0  0  0
    5.8169   -9.8524    0.0000 C   0  0  0  0  0  0  0  0  0  0  0  0
    5.8169   -9.0274    0.0000 C   0  0  0  0  0  0  0  0  0  0  0  0
    6.5314   -8.6149    0.0000 C   0  0  0  0  0  0  0  0  0  0  0  0
    7.2458   -9.0274    0.0000 C   0  0  0  0  0  0  0  0  0  0  0  0
    5.1024   -9.4399    0.0000 H   0  0  0  0  0  0  0  0  0  0  0  0
    6.9439   -7.9004    0.0000 C   0  0  2  0  0  0  0  0  0  0  0  0
    7.7689   -7.9004    0.0000 O   0  0  0  0  0  0  0  0  0  0  0  0
    8.1814   -7.1860    0.0000 C   0  0  1  0  0  0  0  0  0  0  0  0
    7.7689   -6.4715    0.0000 C   0  0  2  0  0  0  0  0  0  0  0  0
    6.9439   -6.4715    0.0000 C   0  0  1  0  0  0  0  0  0  0  0  0
    6.5314   -7.1860    0.0000 C   0  0  1  0  0  0  0  0  0  0  0  0
    9.0064   -7.1860    0.0000 C   0  0  0  0  0  0  0  0  0  0  0  0
    6.5314   -5.7570    0.0000 O   0  0  0  0  0  0  0  0  0  0  0  0
    5.7064   -7.1860    0.0000 O   0  0  0  0  0  0  0  0  0  0  0  0
    8.1814   -5.7570    0.0000 O   0  0  0  0  0  0  0  0  0  0  0  0
    9.4189   -6.4715    0.0000 O   0  0  0  0  0  0  0  0  0  0  0  0
    7.3564   -8.6149    0.0000 H   0  0  0  0  0  0  0  0  0  0  0  0
 31  1  1  0  0  0  0
 28  2  1  0  0  0  0
 27 13  2  0  0  0  0
 13  3  1  0  0  0  0
 11 10  1  0  0  0  0
  7  4  1  0  0  0  0
 10  5  2  0  0  0  0
  6  5  1  0  0  0  0
  7  6  2  0  0  0  0
  8  7  1  0  0  0  0
  9  8  2  0  0  0  0
 10  9  1  0  0  0  0
 12 11  2  0  0  0  0
 13 12  1  0  0  0  0
 23 29  1  0  0  0  0
 22 14  1  6  0  0  0
 21 15  1  1  0  0  0
 20 16  1  6  0  0  0
 19 18  1  1  0  0  0
 18 17  1  0  0  0  0
 24 19  1  0  0  0  0
 20 19  1  0  0  0  0
 21 20  1  0  0  0  0
 22 21  1  0  0  0  0
 23 22  1  0  0  0  0
 24 23  1  0  0  0  0
 30 25  2  0  0  0  0
 32 26  2  0  0  0  0
 32 27  1  0  0  0  0
 28 27  1  0  0  0  0
 29 28  2  0  0  0  0
 30 29  1  0  0  0  0
 31 30  1  0  0  0  0
 32 31  1  0  0  0  0
 23 33  1  6  0  0  0
 31 34  1  0  0  0  0
 34 35  1  0  0  0  0
 35 36  1  0  0  0  0
 36 37  1  0  0  0  0
 37 38  1  0  0  0  0
 38 39  1  0  0  0  0
 39 34  1  0  0  0  0
 36 40  1  1  0  0  0
 38 41  1  1  0  0  0
 39 42  1  6  0  0  0
 37 43  1  6  0  0  0
 40 44  1  0  0  0  0
 34 45  1  6  0  0  0
M  END
>  <cdx:groupId>
20818

>  <cdx:fragmentId>
20705

$$$$
