443652.cdx
  Mrv1902 05222410252D          

 35 38  0  0  0  0            999 V2000
    7.3450  -10.0572    0.0000 O   0  0  0  0  0  0  0  0  0  0  0  0
    8.0595   -9.6447    0.0000 C   0  0  2  0  0  0  0  0  0  0  0  0
    8.7739  -10.0572    0.0000 C   0  0  1  0  0  0  0  0  0  0  0  0
    8.7739  -10.8822    0.0000 C   0  0  2  0  0  0  0  0  0  0  0  0
    8.0595  -11.2947    0.0000 C   0  0  1  0  0  0  0  0  0  0  0  0
    7.3450  -10.8822    0.0000 C   0  0  1  0  0  0  0  0  0  0  0  0
    9.4884   -9.6447    0.0000 O   0  0  0  0  0  0  0  0  0  0  0  0
    9.4884  -11.2947    0.0000 O   0  0  0  0  0  0  0  0  0  0  0  0
    8.0595  -12.1197    0.0000 O   0  0  0  0  0  0  0  0  0  0  0  0
    6.6305  -11.2947    0.0000 C   0  0  0  0  0  0  0  0  0  0  0  0
    6.6305  -12.1197    0.0000 O   0  0  0  0  0  0  0  0  0  0  0  0
    8.0595   -8.8197    0.0000 O   0  0  0  0  0  0  0  0  0  0  0  0
    7.3450   -7.5822    0.0000 C   0  0  0  0  0  0  0  0  0  0  0  0
    7.3450   -8.4072    0.0000 C   0  0  0  0  0  0  0  0  0  0  0  0
    6.6305   -8.8197    0.0000 C   0  0  0  0  0  0  0  0  0  0  0  0
    5.9160   -8.4072    0.0000 C   0  0  0  0  0  0  0  0  0  0  0  0
    5.2016   -8.8197    0.0000 C   0  0  0  0  0  0  0  0  0  0  0  0
    4.4871   -8.4072    0.0000 C   0  0  0  0  0  0  0  0  0  0  0  0
    4.4871   -7.5822    0.0000 C   0  0  0  0  0  0  0  0  0  0  0  0
    5.2016   -7.1697    0.0000 C   0  0  0  0  0  0  0  0  0  0  0  0
    5.9160   -7.5822    0.0000 C   0  0  0  0  0  0  0  0  0  0  0  0
    6.6305   -7.1697    0.0000 O   0  3  0  0  0  0  0  0  0  0  0  0
    8.0595   -7.1697    0.0000 C   0  0  0  0  0  0  0  0  0  0  0  0
    8.7739   -7.5822    0.0000 C   0  0  0  0  0  0  0  0  0  0  0  0
    9.4884   -7.1697    0.0000 C   0  0  0  0  0  0  0  0  0  0  0  0
    9.4884   -6.3447    0.0000 C   0  0  0  0  0  0  0  0  0  0  0  0
    8.7739   -5.9322    0.0000 C   0  0  0  0  0  0  0  0  0  0  0  0
    8.0595   -6.3447    0.0000 C   0  0  0  0  0  0  0  0  0  0  0  0
    8.7739   -5.1072    0.0000 O   0  0  0  0  0  0  0  0  0  0  0  0
    9.4884   -4.6947    0.0000 C   0  0  0  0  0  0  0  0  0  0  0  0
   10.2029   -7.5822    0.0000 O   0  0  0  0  0  0  0  0  0  0  0  0
   10.9173   -7.1697    0.0000 C   0  0  0  0  0  0  0  0  0  0  0  0
   10.2029   -5.9322    0.0000 O   0  0  0  0  0  0  0  0  0  0  0  0
    3.7726   -7.1697    0.0000 O   0  0  0  0  0  0  0  0  0  0  0  0
    5.2016   -9.6447    0.0000 O   0  0  0  0  0  0  0  0  0  0  0  0
  1  2  1  0  0  0  0
  2  3  1  0  0  0  0
  3  4  1  0  0  0  0
  4  5  1  0  0  0  0
  5  6  1  0  0  0  0
  1  6  1  0  0  0  0
  3  7  1  6  0  0  0
  4  8  1  1  0  0  0
  5  9  1  6  0  0  0
 10 11  1  0  0  0  0
  6 10  1  1  0  0  0
 13 14  1  0  0  0  0
 14 15  2  0  0  0  0
 15 16  1  0  0  0  0
 16 17  1  0  0  0  0
 17 18  2  0  0  0  0
 18 19  1  0  0  0  0
 19 20  2  0  0  0  0
 20 21  1  0  0  0  0
 16 21  2  0  0  0  0
 21 22  1  0  0  0  0
 13 22  2  0  0  0  0
 23 24  1  0  0  0  0
 24 25  2  0  0  0  0
 25 26  1  0  0  0  0
 26 27  2  0  0  0  0
 27 28  1  0  0  0  0
 23 28  2  0  0  0  0
 29 30  1  0  0  0  0
 27 29  1  0  0  0  0
 31 32  1  0  0  0  0
 25 31  1  0  0  0  0
 26 33  1  0  0  0  0
 13 23  1  0  0  0  0
 19 34  1  0  0  0  0
 17 35  1  0  0  0  0
 12 14  1  0  0  0  0
  2 12  1  1  0  0  0
M  CHG  1  22   1
M  END
>  <cdx:fragmentId>
49

$$$$
