4436.cdx
  Mrv1902 05222410232D          

 11 11  0  0  0  0            999 V2000
    6.8508   -7.5488    0.0000 C   0  0  0  0  0  0  0  0  0  0  0  0
    6.8508   -8.3737    0.0000 C   0  0  0  0  0  0  0  0  0  0  0  0
    7.5652   -8.7862    0.0000 C   0  0  0  0  0  0  0  0  0  0  0  0
    8.2797   -8.3737    0.0000 C   0  0  0  0  0  0  0  0  0  0  0  0
    8.2797   -7.5488    0.0000 C   0  0  0  0  0  0  0  0  0  0  0  0
    7.5652   -7.1362    0.0000 C   0  0  0  0  0  0  0  0  0  0  0  0
    7.5652   -6.3113    0.0000 O   0  0  0  0  0  0  0  0  0  0  0  0
    7.5652   -9.6112    0.0000 O   0  0  0  0  0  0  0  0  0  0  0  0
    6.0258   -8.3737    0.0000 C   0  0  0  0  0  0  0  0  0  0  0  0
    6.6373   -9.1706    0.0000 C   0  0  0  0  0  0  0  0  0  0  0  0
    8.9942   -8.7862    0.0000 C   0  0  0  0  0  0  0  0  0  0  0  0
  1  2  1  0  0  0  0
  2  3  1  0  0  0  0
  3  4  1  0  0  0  0
  4  5  1  0  0  0  0
  5  6  1  0  0  0  0
  6  1  1  0  0  0  0
  6  7  2  0  0  0  0
  3  8  2  0  0  0  0
  2  9  1  0  0  0  0
  2 10  1  0  0  0  0
  4 11  1  0  0  0  0
M  END
>  <cdx:fragmentId>
5

$$$$
