443614.cdx
  Mrv1902 05222410192D          

 67 74  0  0  0  0            999 V2000
    4.5023   -8.1894    0.0000 O   0  0  0  0  0  0  0  0  0  0  0  0
    3.0550   -8.1867    0.0000 O   0  0  0  0  0  0  0  0  0  0  0  0
    3.7658   -8.6055    0.0000 C   0  0  2  0  0  0  0  0  0  0  0  0
    3.7585   -9.4305    0.0000 C   0  0  1  0  0  0  0  0  0  0  0  0
    3.0404   -9.8366    0.0000 C   0  0  2  0  0  0  0  0  0  0  0  0
    2.3296   -9.4178    0.0000 C   0  0  2  0  0  0  0  0  0  0  0  0
    2.3369   -8.5928    0.0000 C   0  0  0  0  0  0  0  0  0  0  0  0
    4.4693   -9.8493    0.0000 O   0  0  0  0  0  0  0  0  0  0  0  0
    3.7439  -11.0804    0.0000 O   0  0  0  0  0  0  0  0  0  0  0  0
    4.4620  -10.6742    0.0000 C   0  0  2  0  0  0  0  0  0  0  0  0
    5.1727  -11.0931    0.0000 C   0  0  1  0  0  0  0  0  0  0  0  0
    5.1654  -11.9180    0.0000 C   0  0  1  0  0  0  0  0  0  0  0  0
    4.4473  -12.3242    0.0000 C   0  0  2  0  0  0  0  0  0  0  0  0
    3.7365  -11.9054    0.0000 C   0  0  2  0  0  0  0  0  0  0  0  0
    3.0184  -12.3115    0.0000 C   0  0  0  0  0  0  0  0  0  0  0  0
    4.4400  -13.1491    0.0000 O   0  0  0  0  0  0  0  0  0  0  0  0
    5.8762  -12.3369    0.0000 O   0  0  0  0  0  0  0  0  0  0  0  0
    5.8908  -10.6869    0.0000 O   0  0  0  0  0  0  0  0  0  0  0  0
    1.6115   -9.8239    0.0000 O   0  0  0  0  0  0  0  0  0  0  0  0
    3.0331  -10.6616    0.0000 O   0  0  0  0  0  0  0  0  0  0  0  0
    7.3606   -5.7153    0.0000 C   0  0  0  0  0  0  0  0  0  0  0  0
    6.6462   -6.1278    0.0000 C   0  0  0  0  0  0  0  0  0  0  0  0
    6.6462   -6.9528    0.0000 C   0  0  1  0  0  0  0  0  0  0  0  0
    7.3606   -7.3653    0.0000 C   0  0  2  0  0  0  0  0  0  0  0  0
    8.0751   -6.9528    0.0000 C   0  0  2  0  0  0  0  0  0  0  0  0
    8.7896   -7.3653    0.0000 C   0  0  0  0  0  0  0  0  0  0  0  0
    9.5041   -6.9528    0.0000 C   0  0  0  0  0  0  0  0  0  0  0  0
    9.5041   -6.1278    0.0000 C   0  0  1  0  0  0  0  0  0  0  0  0
   10.2185   -5.7153    0.0000 C   0  0  2  0  0  0  0  0  0  0  0  0
   10.9330   -6.1278    0.0000 C   0  0  0  0  0  0  0  0  0  0  0  0
   11.6475   -5.7153    0.0000 C   0  0  0  0  0  0  0  0  0  0  0  0
   11.6475   -4.8903    0.0000 C   0  0  1  0  0  0  0  0  0  0  0  0
   12.3619   -4.4778    0.0000 C   0  0  1  0  0  0  0  0  0  0  0  0
   12.3619   -3.6528    0.0000 C   0  0  0  0  0  0  0  0  0  0  0  0
   11.6475   -3.2403    0.0000 C   0  0  0  0  0  0  0  0  0  0  0  0
   10.9330   -3.6528    0.0000 C   0  0  0  0  0  0  0  0  0  0  0  0
   10.9330   -4.4778    0.0000 C   0  0  1  0  0  0  0  0  0  0  0  0
   10.2185   -4.8903    0.0000 C   0  0  0  0  0  0  0  0  0  0  0  0
    9.5041   -4.4778    0.0000 C   0  0  0  0  0  0  0  0  0  0  0  0
    8.7896   -4.8903    0.0000 C   0  0  0  0  0  0  0  0  0  0  0  0
    8.7896   -5.7153    0.0000 C   0  0  2  0  0  0  0  0  0  0  0  0
    8.0751   -6.1278    0.0000 C   0  0  1  0  0  0  0  0  0  0  0  0
    8.0751   -5.3028    0.0000 C   0  0  0  0  0  0  0  0  0  0  0  0
   11.2350   -2.5258    0.0000 C   0  0  0  0  0  0  0  0  0  0  0  0
   12.0600   -2.5258    0.0000 C   0  0  0  0  0  0  0  0  0  0  0  0
   12.3619   -5.3028    0.0000 C   0  0  0  0  0  0  0  0  0  0  0  0
   10.2185   -6.5403    0.0000 C   0  0  0  0  0  0  0  0  0  0  0  0
    9.5041   -5.3028    0.0000 C   0  0  0  0  0  0  0  0  0  0  0  0
    6.9481   -8.0797    0.0000 C   0  0  0  0  0  0  0  0  0  0  0  0
    7.7731   -8.0797    0.0000 C   0  0  0  0  0  0  0  0  0  0  0  0
    7.3606   -8.7942    0.0000 O   0  0  0  0  0  0  0  0  0  0  0  0
   13.0764   -4.8903    0.0000 O   0  0  0  0  0  0  0  0  0  0  0  0
    8.0751   -7.7778    0.0000 H   0  0  0  0  0  0  0  0  0  0  0  0
   10.9330   -5.3028    0.0000 H   0  0  0  0  0  0  0  0  0  0  0  0
    8.7896   -6.5403    0.0000 H   0  0  0  0  0  0  0  0  0  0  0  0
    5.9317   -7.3653    0.0000 O   0  0  0  0  0  0  0  0  0  0  0  0
    3.0748   -5.7136    0.0000 O   0  0  0  0  0  0  0  0  0  0  0  0
    3.0738   -7.3636    0.0000 O   0  0  0  0  0  0  0  0  0  0  0  0
    3.7900   -4.4765    0.0000 O   0  0  0  0  0  0  0  0  0  0  0  0
    5.2190   -4.4773    0.0000 O   0  0  0  0  0  0  0  0  0  0  0  0
    4.5042   -4.8894    0.0000 C   0  0  0  0  0  0  0  0  0  0  0  0
    5.2175   -6.9523    0.0000 C   0  0  1  0  0  0  0  0  0  0  0  0
    4.5028   -7.3644    0.0000 C   0  0  1  0  0  0  0  0  0  0  0  0
    3.7885   -6.9515    0.0000 C   0  0  2  0  0  0  0  0  0  0  0  0
    3.7890   -6.1265    0.0000 C   0  0  1  0  0  0  0  0  0  0  0  0
    4.5037   -5.7144    0.0000 C   0  0  2  0  0  0  0  0  0  0  0  0
    5.2180   -6.1273    0.0000 O   0  0  0  0  0  0  0  0  0  0  0  0
 62 56  1  1  0  0  0
 63  1  1  6  0  0  0
  2  3  1  0  0  0  0
 65 57  1  6  0  0  0
 64 58  1  1  0  0  0
 66 61  1  1  0  0  0
 61 59  1  0  0  0  0
 61 60  2  0  0  0  0
 67 62  1  0  0  0  0
 63 62  1  0  0  0  0
 64 63  1  0  0  0  0
 65 64  1  0  0  0  0
 66 65  1  0  0  0  0
 67 66  1  0  0  0  0
  3  4  1  0  0  0  0
  4  5  1  0  0  0  0
  5  6  1  0  0  0  0
  6  7  1  0  0  0  0
  2  7  1  0  0  0  0
  9 10  1  0  0  0  0
 10 11  1  0  0  0  0
 11 12  1  0  0  0  0
 12 13  1  0  0  0  0
 13 14  1  0  0  0  0
  9 14  1  0  0  0  0
 14 15  1  6  0  0  0
 13 16  1  1  0  0  0
 12 17  1  6  0  0  0
 11 18  1  6  0  0  0
 10  8  1  1  0  0  0
  4  8  1  6  0  0  0
  6 19  1  1  0  0  0
  5 20  1  1  0  0  0
  3  1  1  1  0  0  0
 21 22  1  0  0  0  0
 22 23  1  0  0  0  0
 23 24  1  0  0  0  0
 24 25  1  0  0  0  0
 25 26  1  0  0  0  0
 26 27  1  0  0  0  0
 27 28  1  0  0  0  0
 28 29  1  0  0  0  0
 29 30  1  0  0  0  0
 30 31  1  0  0  0  0
 31 32  1  0  0  0  0
 32 33  1  0  0  0  0
 33 34  1  0  0  0  0
 34 35  1  0  0  0  0
 35 36  1  0  0  0  0
 36 37  1  0  0  0  0
 32 37  1  0  0  0  0
 37 38  1  0  0  0  0
 29 38  1  0  0  0  0
 38 39  2  0  0  0  0
 39 40  1  0  0  0  0
 40 41  1  0  0  0  0
 28 41  1  0  0  0  0
 41 42  1  0  0  0  0
 25 42  1  0  0  0  0
 21 42  1  0  0  0  0
 42 43  1  1  0  0  0
 35 44  1  0  0  0  0
 35 45  1  0  0  0  0
 32 46  1  1  0  0  0
 29 47  1  6  0  0  0
 28 48  1  1  0  0  0
 24 49  1  6  0  0  0
 50 51  1  0  0  0  0
 24 50  1  0  0  0  0
 33 52  1  1  0  0  0
 23 56  1  1  0  0  0
 25 53  1  6  0  0  0
 37 54  1  1  0  0  0
 41 55  1  6  0  0  0
M  END
>  <cdx:fragmentId>
69

$$$$
