443716.cdx
  Mrv1902 05222410212D          

 26 31  0  0  0  0            999 V2000
    7.6653   -6.2098    0.0000 C   0  0  0  0  0  0  0  0  0  0  0  0
    8.3814   -5.8001    0.0000 C   0  0  0  0  0  0  0  0  0  0  0  0
    9.0943   -6.2153    0.0000 C   0  0  0  0  0  0  0  0  0  0  0  0
    9.8103   -5.8056    0.0000 C   0  0  0  0  0  0  0  0  0  0  0  0
   10.5940   -6.0636    0.0000 O   0  0  0  0  0  0  0  0  0  0  0  0
   11.0815   -5.3980    0.0000 C   0  0  0  0  0  0  0  0  0  0  0  0
   10.5991   -4.7287    0.0000 O   0  0  0  0  0  0  0  0  0  0  0  0
    9.8135   -4.9806    0.0000 C   0  0  0  0  0  0  0  0  0  0  0  0
    9.1007   -4.5653    0.0000 C   0  0  0  0  0  0  0  0  0  0  0  0
    8.3846   -4.9751    0.0000 C   0  0  0  0  0  0  0  0  0  0  0  0
    7.6717   -4.5598    0.0000 C   0  0  0  0  0  0  0  0  0  0  0  0
    6.9557   -4.9695    0.0000 C   0  0  0  0  0  0  0  0  0  0  0  0
    6.9525   -5.7945    0.0000 C   0  0  0  0  0  0  0  0  0  0  0  0
    6.2364   -6.2043    0.0000 C   0  0  0  0  0  0  0  0  0  0  0  0
    5.5235   -5.7890    0.0000 C   0  0  0  0  0  0  0  0  0  0  0  0
    4.8075   -6.1987    0.0000 C   0  0  0  0  0  0  0  0  0  0  0  0
    4.8043   -7.0237    0.0000 C   0  0  0  0  0  0  0  0  0  0  0  0
    4.1890   -7.5734    0.0000 O   0  0  0  0  0  0  0  0  0  0  0  0
    4.5217   -8.3284    0.0000 C   0  0  0  0  0  0  0  0  0  0  0  0
    5.3425   -8.2453    0.0000 O   0  0  0  0  0  0  0  0  0  0  0  0
    5.5171   -7.4390    0.0000 C   0  0  0  0  0  0  0  0  0  0  0  0
    6.2332   -7.0293    0.0000 C   0  0  0  0  0  0  0  0  0  0  0  0
    6.9461   -7.4445    0.0000 C   0  0  0  0  0  0  0  0  0  0  0  0
    7.6621   -7.0348    0.0000 N   0  0  0  0  0  0  0  0  0  0  0  0
    6.9429   -8.2695    0.0000 O   0  0  0  0  0  0  0  0  0  0  0  0
    8.3750   -7.4501    0.0000 C   0  0  0  0  0  0  0  0  0  0  0  0
  1  2  1  0  0  0  0
  2  3  2  0  0  0  0
  3  4  1  0  0  0  0
  4  5  1  0  0  0  0
  5  6  1  0  0  0  0
  6  7  1  0  0  0  0
  7  8  1  0  0  0  0
  8  9  1  0  0  0  0
  9 10  2  0  0  0  0
 10 11  1  0  0  0  0
 11 12  2  0  0  0  0
 12 13  1  0  0  0  0
 13 14  1  0  0  0  0
 14 15  1  0  0  0  0
 15 16  2  0  0  0  0
 16 17  1  0  0  0  0
 17 18  1  0  0  0  0
 18 19  1  0  0  0  0
 19 20  1  0  0  0  0
 20 21  1  0  0  0  0
 21 22  1  0  0  0  0
 22 23  1  0  0  0  0
 23 24  1  0  0  0  0
  1 24  1  0  0  0  0
  1 13  2  0  0  0  0
 14 22  2  0  0  0  0
 17 21  2  0  0  0  0
  2 10  1  0  0  0  0
  4  8  2  0  0  0  0
 23 25  2  0  0  0  0
 24 26  1  0  0  0  0
M  END
>  <cdx:fragmentId>
15087

$$$$
