443826.cdx
  Mrv1902 05222410192D          

 37 40  0  0  0  0            999 V2000
    9.8670   -9.2766    0.0000 C   0  0  0  0  0  0  0  0  0  0  0  0
    9.5423   -6.0564    0.0000 O   0  0  0  0  0  0  0  0  0  0  0  0
    4.5284   -6.5403    0.0000 C   0  0  0  0  0  0  0  0  0  0  0  0
    5.2117   -6.0780    0.0000 O   0  0  0  0  0  0  0  0  0  0  0  0
    4.7009   -8.2260    0.0000 C   0  0  0  0  0  0  0  0  0  0  0  0
    4.9272   -7.4327    0.0000 O   0  0  0  0  0  0  0  0  0  0  0  0
    6.6490   -9.2107    0.0000 C   0  0  0  0  0  0  0  0  0  0  0  0
    6.0751   -8.6180    0.0000 O   0  0  0  0  0  0  0  0  0  0  0  0
    4.5525   -5.0393    0.0000 C   0  0  0  0  0  0  0  0  0  0  0  0
    5.2206   -5.5233    0.0000 O   0  0  0  0  0  0  0  0  0  0  0  0
    9.3288   -6.8533    0.0000 C   0  0  0  0  0  0  0  0  0  0  0  0
    9.5259   -5.1416    0.0000 C   0  0  0  0  0  0  0  0  0  0  0  0
    5.9739   -5.1867    0.0000 C   0  0  0  0  0  0  0  0  0  0  0  0
    5.7732   -4.3865    0.0000 C   0  0  0  0  0  0  0  0  0  0  0  0
    5.0442   -4.0002    0.0000 O   0  0  0  0  0  0  0  0  0  0  0  0
    5.1863   -3.1876    0.0000 C   0  0  0  0  0  0  0  0  0  0  0  0
    6.0031   -3.0716    0.0000 O   0  0  0  0  0  0  0  0  0  0  0  0
    6.3658   -3.8126    0.0000 C   0  0  0  0  0  0  0  0  0  0  0  0
    7.1592   -4.0389    0.0000 C   0  0  0  0  0  0  0  0  0  0  0  0
    7.3599   -4.8391    0.0000 C   0  0  0  0  0  0  0  0  0  0  0  0
    8.1848   -4.8524    0.0000 C   0  0  0  0  0  0  0  0  0  0  0  0
    8.7587   -5.4450    0.0000 C   0  0  1  0  0  0  0  0  0  0  0  0
    8.7454   -6.2699    0.0000 C   0  0  1  0  0  0  0  0  0  0  0  0
    8.1528   -6.8438    0.0000 C   0  0  2  0  0  0  0  0  0  0  0  0
    7.3279   -6.8306    0.0000 C   0  0  0  0  0  0  0  0  0  0  0  0
    7.1016   -7.6240    0.0000 C   0  0  0  0  0  0  0  0  0  0  0  0
    6.3014   -7.8246    0.0000 C   0  0  0  0  0  0  0  0  0  0  0  0
    5.7274   -7.2320    0.0000 C   0  0  0  0  0  0  0  0  0  0  0  0
    5.9537   -6.4386    0.0000 C   0  0  0  0  0  0  0  0  0  0  0  0
    6.7540   -6.2379    0.0000 C   0  0  0  0  0  0  0  0  0  0  0  0
    6.7672   -5.4130    0.0000 C   0  0  0  0  0  0  0  0  0  0  0  0
    8.4381   -9.2609    0.0000 C   0  0  0  0  0  0  0  0  0  0  0  0
    8.4562   -7.6110    0.0000 O   0  0  0  0  0  0  0  0  0  0  0  0
    9.8850   -7.6267    0.0000 O   0  0  0  0  0  0  0  0  0  0  0  0
   10.5859   -8.8719    0.0000 C   0  0  0  0  0  0  0  0  0  0  0  0
    9.1571   -8.8563    0.0000 C   0  0  0  0  0  0  0  0  0  0  0  0
    9.1661   -8.0313    0.0000 C   0  0  0  0  0  0  0  0  0  0  0  0
 24 33  1  1  0  0  0
 23  2  1  6  0  0  0
 29  4  1  0  0  0  0
  4  3  1  0  0  0  0
 28  6  1  0  0  0  0
  6  5  1  0  0  0  0
 27  8  1  0  0  0  0
  8  7  1  0  0  0  0
 13 10  1  0  0  0  0
 10  9  1  0  0  0  0
 23 11  1  1  0  0  0
 22 12  1  6  0  0  0
 30 25  1  0  0  0  0
 18 14  2  0  0  0  0
 31 20  1  0  0  0  0
 31 13  2  0  0  0  0
 14 13  1  0  0  0  0
 15 14  1  0  0  0  0
 16 15  1  0  0  0  0
 17 16  1  0  0  0  0
 18 17  1  0  0  0  0
 19 18  1  0  0  0  0
 20 19  2  0  0  0  0
 21 20  1  0  0  0  0
 22 21  1  0  0  0  0
 23 22  1  0  0  0  0
 24 23  1  0  0  0  0
 25 24  1  0  0  0  0
 26 25  2  0  0  0  0
 27 26  1  0  0  0  0
 28 27  2  0  0  0  0
 29 28  1  0  0  0  0
 30 29  2  0  0  0  0
 31 30  1  0  0  0  0
 36 32  1  0  0  0  0
 37 33  1  0  0  0  0
 37 34  2  0  0  0  0
 36  1  2  0  0  0  0
 37 36  1  0  0  0  0
  1 35  1  0  0  0  0
M  END
>  <cdx:fragmentId>
19

$$$$
