443992.cdx
  Mrv1902 05222410182D          

 34 36  0  0  0  0            999 V2000
    8.6689   -9.0507    0.0000 C   0  0  0  0  0  0  0  0  0  0  0  0
    9.3897   -8.6494    0.0000 C   0  0  0  0  0  0  0  0  0  0  0  0
   10.0976   -9.0731    0.0000 C   0  0  0  0  0  0  0  0  0  0  0  0
    8.6559   -9.8756    0.0000 O   0  0  0  0  0  0  0  0  0  0  0  0
    7.9610   -8.6270    0.0000 O   0  0  0  0  0  0  0  0  0  0  0  0
   10.8185   -8.6718    0.0000 C   0  0  0  0  0  0  0  0  0  0  0  0
   11.5264   -9.0955    0.0000 C   0  0  0  0  0  0  0  0  0  0  0  0
   12.2473   -8.6942    0.0000 C   0  0  0  0  0  0  0  0  0  0  0  0
   12.2602   -7.8693    0.0000 C   0  0  0  0  0  0  0  0  0  0  0  0
   11.5523   -7.4457    0.0000 C   0  0  0  0  0  0  0  0  0  0  0  0
   10.8314   -7.8469    0.0000 C   0  0  0  0  0  0  0  0  0  0  0  0
   12.9810   -7.4681    0.0000 O   0  0  0  0  0  0  0  0  0  0  0  0
   12.9552   -9.1179    0.0000 O   0  0  0  0  0  0  0  0  0  0  0  0
    6.5322   -8.6046    0.0000 O   0  0  0  0  0  0  0  0  0  0  0  0
    7.2401   -9.0283    0.0000 C   0  0  2  0  0  0  0  0  0  0  0  0
    7.2272   -9.8532    0.0000 C   0  0  1  0  0  0  0  0  0  0  0  0
    6.5063  -10.2544    0.0000 C   0  0  2  0  0  0  0  0  0  0  0  0
    5.7984   -9.8308    0.0000 C   0  0  1  0  0  0  0  0  0  0  0  0
    5.8113   -9.0059    0.0000 C   0  0  1  0  0  0  0  0  0  0  0  0
    5.1034   -8.5822    0.0000 C   0  0  0  0  0  0  0  0  0  0  0  0
    5.0776  -10.2320    0.0000 O   0  0  0  0  0  0  0  0  0  0  0  0
    6.4934  -11.0793    0.0000 O   0  0  0  0  0  0  0  0  0  0  0  0
    7.9351  -10.2768    0.0000 O   0  0  0  0  0  0  0  0  0  0  0  0
    2.9448   -9.7929    0.0000 O   0  0  0  0  0  0  0  0  0  0  0  0
    1.5249   -8.9524    0.0000 O   0  0  0  0  0  0  0  0  0  0  0  0
    1.5428   -7.3025    0.0000 O   0  0  0  0  0  0  0  0  0  0  0  0
    2.9806   -6.4931    0.0000 C   0  0  0  0  0  0  0  0  0  0  0  0
    2.9716   -7.3180    0.0000 C   0  0  1  0  0  0  0  0  0  0  0  0
    2.2527   -7.7228    0.0000 C   0  0  1  0  0  0  0  0  0  0  0  0
    2.2438   -8.5477    0.0000 C   0  0  2  0  0  0  0  0  0  0  0  0
    2.9537   -8.9679    0.0000 C   0  0  2  0  0  0  0  0  0  0  0  0
    3.6726   -8.5632    0.0000 C   0  0  1  0  0  0  0  0  0  0  0  0
    3.6816   -7.7383    0.0000 O   0  0  0  0  0  0  0  0  0  0  0  0
    4.3826   -8.9834    0.0000 O   0  0  0  0  0  0  0  0  0  0  0  0
 32 34  1  1  0  0  0
 31 24  1  6  0  0  0
 30 25  1  6  0  0  0
 29 26  1  1  0  0  0
 28 27  1  6  0  0  0
 33 28  1  0  0  0  0
 29 28  1  0  0  0  0
 30 29  1  0  0  0  0
 31 30  1  0  0  0  0
 32 31  1  0  0  0  0
 33 32  1  0  0  0  0
  1  2  1  0  0  0  0
  2  3  2  0  0  0  0
  1  4  2  0  0  0  0
  1  5  1  0  0  0  0
  6  7  1  0  0  0  0
  7  8  2  0  0  0  0
  8  9  1  0  0  0  0
  9 10  2  0  0  0  0
 10 11  1  0  0  0  0
  6 11  2  0  0  0  0
  9 12  1  0  0  0  0
  8 13  1  0  0  0  0
  3  6  1  0  0  0  0
 14 15  1  0  0  0  0
 15 16  1  0  0  0  0
 16 17  1  0  0  0  0
 17 18  1  0  0  0  0
 18 19  1  0  0  0  0
 14 19  1  0  0  0  0
 20 34  1  0  0  0  0
 19 20  1  1  0  0  0
 18 21  1  6  0  0  0
 17 22  1  1  0  0  0
 16 23  1  6  0  0  0
 15  5  1  1  0  0  0
M  END
>  <cdx:fragmentId>
20872

$$$$
