443917.cdx
  Mrv1902 05222410262D          

 41 45  0  0  0  0            999 V2000
    8.5235   -5.3116    0.0000 C   0  0  0  0  0  0  0  0  0  0  0  0
    8.5132   -6.1365    0.0000 C   0  0  0  0  0  0  0  0  0  0  0  0
    7.7936   -6.5401    0.0000 C   0  0  0  0  0  0  0  0  0  0  0  0
    7.0844   -6.1186    0.0000 C   0  0  0  0  0  0  0  0  0  0  0  0
    6.3648   -6.5222    0.0000 C   0  0  0  0  0  0  0  0  0  0  0  0
    5.6555   -6.1007    0.0000 C   0  0  0  0  0  0  0  0  0  0  0  0
    5.6659   -5.2758    0.0000 C   0  0  0  0  0  0  0  0  0  0  0  0
    6.3854   -4.8723    0.0000 C   0  0  0  0  0  0  0  0  0  0  0  0
    7.0947   -5.2937    0.0000 C   0  0  0  0  0  0  0  0  0  0  0  0
    7.8143   -4.8902    0.0000 O   0  3  0  0  0  0  0  0  0  0  0  0
    9.2431   -4.9081    0.0000 C   0  0  0  0  0  0  0  0  0  0  0  0
    9.2534   -4.0832    0.0000 C   0  0  0  0  0  0  0  0  0  0  0  0
    9.9730   -3.6796    0.0000 C   0  0  0  0  0  0  0  0  0  0  0  0
   10.6823   -4.1011    0.0000 C   0  0  0  0  0  0  0  0  0  0  0  0
   10.6719   -4.9260    0.0000 C   0  0  0  0  0  0  0  0  0  0  0  0
    9.9523   -5.3295    0.0000 C   0  0  0  0  0  0  0  0  0  0  0  0
   11.4018   -3.6975    0.0000 O   0  0  0  0  0  0  0  0  0  0  0  0
    4.9566   -4.8544    0.0000 O   0  0  0  0  0  0  0  0  0  0  0  0
    6.3544   -7.3471    0.0000 O   0  0  0  0  0  0  0  0  0  0  0  0
    9.2224   -6.5580    0.0000 O   0  0  0  0  0  0  0  0  0  0  0  0
    9.2278   -9.8580    0.0000 O   0  0  0  0  0  0  0  0  0  0  0  0
   10.6554   -9.0306    0.0000 O   0  0  0  0  0  0  0  0  0  0  0  0
   10.6527   -7.3806    0.0000 O   0  0  0  0  0  0  0  0  0  0  0  0
    9.2238   -7.3830    0.0000 C   0  0  1  0  0  0  0  0  0  0  0  0
    9.9389   -7.7943    0.0000 C   0  0  1  0  0  0  0  0  0  0  0  0
    9.9403   -8.6193    0.0000 C   0  0  2  0  0  0  0  0  0  0  0  0
    9.2265   -9.0330    0.0000 C   0  0  1  0  0  0  0  0  0  0  0  0
    8.5113   -8.6216    0.0000 C   0  0  2  0  0  0  0  0  0  0  0  0
    8.5100   -7.7966    0.0000 O   0  0  0  0  0  0  0  0  0  0  0  0
    7.7975   -9.0353    0.0000 C   0  0  0  0  0  0  0  0  0  0  0  0
    7.0824   -8.6239    0.0000 O   0  0  0  0  0  0  0  0  0  0  0  0
    4.2245   -8.6286    0.0000 C   0  0  0  0  0  0  0  0  0  0  0  0
    4.2272  -10.2786    0.0000 O   0  0  0  0  0  0  0  0  0  0  0  0
    5.6575  -11.1013    0.0000 O   0  0  0  0  0  0  0  0  0  0  0  0
    7.0851  -10.2739    0.0000 O   0  0  0  0  0  0  0  0  0  0  0  0
    4.9396   -9.0399    0.0000 C   0  0  1  0  0  0  0  0  0  0  0  0
    4.9410   -9.8649    0.0000 C   0  0  1  0  0  0  0  0  0  0  0  0
    5.6561  -10.2763    0.0000 C   0  0  2  0  0  0  0  0  0  0  0  0
    6.3699   -9.8626    0.0000 C   0  0  2  0  0  0  0  0  0  0  0  0
    6.3686   -9.0376    0.0000 C   0  0  1  0  0  0  0  0  0  0  0  0
    5.6534   -8.6263    0.0000 O   0  0  0  0  0  0  0  0  0  0  0  0
 40 31  1  1  0  0  0
 28 30  1  1  0  0  0
 24 20  1  1  0  0  0
 27 21  1  6  0  0  0
 26 22  1  1  0  0  0
 25 23  1  6  0  0  0
 29 24  1  0  0  0  0
 25 24  1  0  0  0  0
 26 25  1  0  0  0  0
 27 26  1  0  0  0  0
 28 27  1  0  0  0  0
 29 28  1  0  0  0  0
 31 30  1  0  0  0  0
 36 32  1  6  0  0  0
 37 33  1  1  0  0  0
 38 34  1  6  0  0  0
 39 35  1  6  0  0  0
 41 36  1  0  0  0  0
 37 36  1  0  0  0  0
 38 37  1  0  0  0  0
 39 38  1  0  0  0  0
 40 39  1  0  0  0  0
 41 40  1  0  0  0  0
  1  2  1  0  0  0  0
  2  3  2  0  0  0  0
  3  4  1  0  0  0  0
  4  5  1  0  0  0  0
  5  6  2  0  0  0  0
  6  7  1  0  0  0  0
  7  8  2  0  0  0  0
  8  9  1  0  0  0  0
  4  9  2  0  0  0  0
  9 10  1  0  0  0  0
  1 10  2  0  0  0  0
 11 12  1  0  0  0  0
 12 13  2  0  0  0  0
 13 14  1  0  0  0  0
 14 15  2  0  0  0  0
 15 16  1  0  0  0  0
 11 16  2  0  0  0  0
 14 17  1  0  0  0  0
  1 11  1  0  0  0  0
  7 18  1  0  0  0  0
  5 19  1  0  0  0  0
 20  2  1  0  0  0  0
M  CHG  1  10   1
M  END
>  <cdx:fragmentId>
49

$$$$
