443916.cdx
  Mrv1902 05222410252D          

 42 46  0  0  0  0            999 V2000
    6.5710   -5.5866    0.0000 C   0  0  0  0  0  0  0  0  0  0  0  0
    6.5607   -6.4115    0.0000 C   0  0  0  0  0  0  0  0  0  0  0  0
    5.8411   -6.8151    0.0000 C   0  0  0  0  0  0  0  0  0  0  0  0
    5.1319   -6.3936    0.0000 C   0  0  0  0  0  0  0  0  0  0  0  0
    4.4123   -6.7972    0.0000 C   0  0  0  0  0  0  0  0  0  0  0  0
    3.7030   -6.3757    0.0000 C   0  0  0  0  0  0  0  0  0  0  0  0
    3.7134   -5.5508    0.0000 C   0  0  0  0  0  0  0  0  0  0  0  0
    4.4329   -5.1473    0.0000 C   0  0  0  0  0  0  0  0  0  0  0  0
    5.1422   -5.5687    0.0000 C   0  0  0  0  0  0  0  0  0  0  0  0
    5.8618   -5.1652    0.0000 O   0  3  0  0  0  0  0  0  0  0  0  0
    7.2906   -5.1831    0.0000 C   0  0  0  0  0  0  0  0  0  0  0  0
    7.3009   -4.3582    0.0000 C   0  0  0  0  0  0  0  0  0  0  0  0
    8.0205   -3.9546    0.0000 C   0  0  0  0  0  0  0  0  0  0  0  0
    8.7298   -4.3761    0.0000 C   0  0  0  0  0  0  0  0  0  0  0  0
    8.7194   -5.2010    0.0000 C   0  0  0  0  0  0  0  0  0  0  0  0
    7.9998   -5.6045    0.0000 C   0  0  0  0  0  0  0  0  0  0  0  0
    9.4493   -3.9725    0.0000 O   0  0  0  0  0  0  0  0  0  0  0  0
    3.0041   -5.1294    0.0000 O   0  0  0  0  0  0  0  0  0  0  0  0
    4.4019   -7.6221    0.0000 O   0  0  0  0  0  0  0  0  0  0  0  0
    7.2699   -6.8330    0.0000 O   0  0  0  0  0  0  0  0  0  0  0  0
    7.2753  -10.1330    0.0000 O   0  0  0  0  0  0  0  0  0  0  0  0
    8.7029   -9.3056    0.0000 O   0  0  0  0  0  0  0  0  0  0  0  0
    8.7002   -7.6556    0.0000 O   0  0  0  0  0  0  0  0  0  0  0  0
    7.2713   -7.6580    0.0000 C   0  0  1  0  0  0  0  0  0  0  0  0
    7.9864   -8.0693    0.0000 C   0  0  1  0  0  0  0  0  0  0  0  0
    7.9878   -8.8943    0.0000 C   0  0  2  0  0  0  0  0  0  0  0  0
    7.2740   -9.3080    0.0000 C   0  0  1  0  0  0  0  0  0  0  0  0
    6.5588   -8.8966    0.0000 C   0  0  2  0  0  0  0  0  0  0  0  0
    6.5575   -8.0716    0.0000 O   0  0  0  0  0  0  0  0  0  0  0  0
    5.8450   -9.3103    0.0000 C   0  0  0  0  0  0  0  0  0  0  0  0
    5.8450  -10.1353    0.0000 O   0  0  0  0  0  0  0  0  0  0  0  0
    9.4154   -8.0670    0.0000 C   0  0  2  0  0  0  0  0  0  0  0  0
    9.4174   -8.8920    0.0000 O   0  0  0  0  0  0  0  0  0  0  0  0
   10.1328   -9.3027    0.0000 C   0  0  1  0  0  0  0  0  0  0  0  0
   10.8463   -8.8920    0.0000 C   0  0  2  0  0  0  0  0  0  0  0  0
   10.8463   -8.0670    0.0000 C   0  0  1  0  0  0  0  0  0  0  0  0
   10.1328   -7.6562    0.0000 C   0  0  1  0  0  0  0  0  0  0  0  0
   10.1333  -10.1277    0.0000 C   0  0  0  0  0  0  0  0  0  0  0  0
   11.5605   -7.6540    0.0000 O   0  0  0  0  0  0  0  0  0  0  0  0
   11.5605   -9.3049    0.0000 O   0  0  0  0  0  0  0  0  0  0  0  0
   10.1338   -6.8312    0.0000 O   0  0  0  0  0  0  0  0  0  0  0  0
   10.8481  -10.5398    0.0000 O   0  0  0  0  0  0  0  0  0  0  0  0
 28 30  1  1  0  0  0
 24 20  1  1  0  0  0
 27 21  1  6  0  0  0
 26 22  1  1  0  0  0
 25 23  1  6  0  0  0
 29 24  1  0  0  0  0
 25 24  1  0  0  0  0
 26 25  1  0  0  0  0
 27 26  1  0  0  0  0
 28 27  1  0  0  0  0
 29 28  1  0  0  0  0
 31 30  1  0  0  0  0
  1  2  1  0  0  0  0
  2  3  2  0  0  0  0
  3  4  1  0  0  0  0
  4  5  1  0  0  0  0
  5  6  2  0  0  0  0
  6  7  1  0  0  0  0
  7  8  2  0  0  0  0
  8  9  1  0  0  0  0
  4  9  2  0  0  0  0
  9 10  1  0  0  0  0
  1 10  2  0  0  0  0
 11 12  1  0  0  0  0
 12 13  2  0  0  0  0
 13 14  1  0  0  0  0
 14 15  2  0  0  0  0
 15 16  1  0  0  0  0
 11 16  2  0  0  0  0
 14 17  1  0  0  0  0
  1 11  1  0  0  0  0
  7 18  1  0  0  0  0
  5 19  1  0  0  0  0
 20  2  1  0  0  0  0
 32 23  1  1  0  0  0
 32 33  1  0  0  0  0
 33 34  1  0  0  0  0
 34 35  1  0  0  0  0
 35 36  1  0  0  0  0
 36 37  1  0  0  0  0
 37 32  1  0  0  0  0
 34 38  1  1  0  0  0
 36 39  1  1  0  0  0
 35 40  1  6  0  0  0
 37 41  1  6  0  0  0
 38 42  1  0  0  0  0
M  CHG  1  10   1
M  END
>  <cdx:fragmentId>
49

$$$$
