444153.cdx
  Mrv1902 05222410192D          

 55 59  0  0  0  0            999 V2000
    5.6388   -6.6407    0.0000 C   0  0  0  0  0  0  0  0  0  0  0  0
    4.9244   -7.0532    0.0000 C   0  0  0  0  0  0  0  0  0  0  0  0
    4.2099   -6.6407    0.0000 C   0  0  0  0  0  0  0  0  0  0  0  0
    5.6388   -5.8157    0.0000 O   0  0  0  0  0  0  0  0  0  0  0  0
    6.3533   -7.0532    0.0000 O   0  0  0  0  0  0  0  0  0  0  0  0
    3.4954   -7.0532    0.0000 C   0  0  0  0  0  0  0  0  0  0  0  0
    2.7809   -6.6407    0.0000 C   0  0  0  0  0  0  0  0  0  0  0  0
    2.0665   -7.0532    0.0000 C   0  0  0  0  0  0  0  0  0  0  0  0
    2.0665   -7.8782    0.0000 C   0  0  0  0  0  0  0  0  0  0  0  0
    2.7809   -8.2907    0.0000 C   0  0  0  0  0  0  0  0  0  0  0  0
    3.4954   -7.8782    0.0000 C   0  0  0  0  0  0  0  0  0  0  0  0
    1.3520   -6.6407    0.0000 O   0  0  0  0  0  0  0  0  0  0  0  0
    0.6375   -7.0532    0.0000 C   0  0  0  0  0  0  0  0  0  0  0  0
    1.3520   -8.2907    0.0000 O   0  0  0  0  0  0  0  0  0  0  0  0
    7.7822   -5.4032    0.0000 O   0  0  0  0  0  0  0  0  0  0  0  0
    7.0678   -5.8157    0.0000 C   0  0  1  0  0  0  0  0  0  0  0  0
    7.0678   -6.6407    0.0000 C   0  0  2  0  0  0  0  0  0  0  0  0
    7.7822   -7.0532    0.0000 C   0  0  1  0  0  0  0  0  0  0  0  0
    8.4967   -6.6407    0.0000 C   0  0  2  0  0  0  0  0  0  0  0  0
    8.4967   -5.8157    0.0000 C   0  0  2  0  0  0  0  0  0  0  0  0
    6.3533   -5.4032    0.0000 C   0  0  0  0  0  0  0  0  0  0  0  0
    6.3533   -4.5782    0.0000 O   0  0  0  0  0  0  0  0  0  0  0  0
    5.6388   -3.3407    0.0000 O   0  0  0  0  0  0  0  0  0  0  0  0
    5.6388   -4.1657    0.0000 C   0  0  2  0  0  0  0  0  0  0  0  0
    4.9244   -4.5782    0.0000 C   0  0  1  0  0  0  0  0  0  0  0  0
    4.2099   -4.1657    0.0000 C   0  0  2  0  0  0  0  0  0  0  0  0
    4.2099   -3.3407    0.0000 C   0  0  2  0  0  0  0  0  0  0  0  0
    4.9244   -2.9282    0.0000 C   0  0  0  0  0  0  0  0  0  0  0  0
    3.4954   -2.9282    0.0000 O   0  0  0  0  0  0  0  0  0  0  0  0
    3.4954   -4.5782    0.0000 O   0  0  0  0  0  0  0  0  0  0  0  0
    4.9244   -5.4032    0.0000 O   0  0  0  0  0  0  0  0  0  0  0  0
    7.7822   -7.8782    0.0000 O   0  0  0  0  0  0  0  0  0  0  0  0
    6.3533   -7.8782    0.0000 O   0  0  0  0  0  0  0  0  0  0  0  0
    7.0678   -8.2907    0.0000 C   0  0  2  0  0  0  0  0  0  0  0  0
    7.0678   -9.1157    0.0000 C   0  0  1  0  0  0  0  0  0  0  0  0
    6.3533   -9.5282    0.0000 C   0  0  1  0  0  0  0  0  0  0  0  0
    5.6388   -9.1157    0.0000 C   0  0  2  0  0  0  0  0  0  0  0  0
    5.6388   -8.2907    0.0000 C   0  0  2  0  0  0  0  0  0  0  0  0
    4.9244   -7.8782    0.0000 C   0  0  0  0  0  0  0  0  0  0  0  0
    4.9244   -9.5282    0.0000 O   0  0  0  0  0  0  0  0  0  0  0  0
    6.3533  -10.3532    0.0000 O   0  0  0  0  0  0  0  0  0  0  0  0
    7.7822   -9.5282    0.0000 O   0  0  0  0  0  0  0  0  0  0  0  0
    9.2112   -5.4032    0.0000 O   0  0  0  0  0  0  0  0  0  0  0  0
    9.9256   -5.8157    0.0000 C   0  0  0  0  0  0  0  0  0  0  0  0
   10.6401   -5.4032    0.0000 C   0  0  0  0  0  0  0  0  0  0  0  0
   11.3546   -5.8157    0.0000 C   0  0  0  0  0  0  0  0  0  0  0  0
   12.0691   -5.4032    0.0000 C   0  0  0  0  0  0  0  0  0  0  0  0
   12.7835   -5.8157    0.0000 C   0  0  0  0  0  0  0  0  0  0  0  0
   12.7835   -6.6407    0.0000 C   0  0  0  0  0  0  0  0  0  0  0  0
   12.0691   -7.0532    0.0000 C   0  0  0  0  0  0  0  0  0  0  0  0
   11.3546   -6.6407    0.0000 C   0  0  0  0  0  0  0  0  0  0  0  0
   13.4980   -7.0532    0.0000 O   0  0  0  0  0  0  0  0  0  0  0  0
   14.2125   -6.6407    0.0000 C   0  0  0  0  0  0  0  0  0  0  0  0
   13.4980   -5.4032    0.0000 O   0  0  0  0  0  0  0  0  0  0  0  0
    9.2112   -7.0532    0.0000 O   0  0  0  0  0  0  0  0  0  0  0  0
  1  2  1  0  0  0  0
  2  3  2  0  0  0  0
  1  4  2  0  0  0  0
  1  5  1  0  0  0  0
  6  7  1  0  0  0  0
  7  8  2  0  0  0  0
  8  9  1  0  0  0  0
  9 10  2  0  0  0  0
 10 11  1  0  0  0  0
  6 11  2  0  0  0  0
 12 13  1  0  0  0  0
  8 12  1  0  0  0  0
  9 14  1  0  0  0  0
  3  6  1  0  0  0  0
 15 16  1  0  0  0  0
 16 17  1  0  0  0  0
 17 18  1  0  0  0  0
 18 19  1  0  0  0  0
 19 20  1  0  0  0  0
 15 20  1  0  0  0  0
 23 24  1  0  0  0  0
 24 25  1  0  0  0  0
 25 26  1  0  0  0  0
 26 27  1  0  0  0  0
 27 28  1  0  0  0  0
 23 28  1  0  0  0  0
 27 29  1  1  0  0  0
 26 30  1  1  0  0  0
 25 31  1  6  0  0  0
 24 22  1  1  0  0  0
 21 22  1  0  0  0  0
 16 21  1  1  0  0  0
 33 34  1  0  0  0  0
 34 35  1  0  0  0  0
 35 36  1  0  0  0  0
 36 37  1  0  0  0  0
 37 38  1  0  0  0  0
 33 38  1  0  0  0  0
 38 39  1  6  0  0  0
 37 40  1  1  0  0  0
 36 41  1  6  0  0  0
 35 42  1  6  0  0  0
 34 32  1  1  0  0  0
 18 32  1  1  0  0  0
 44 45  1  0  0  0  0
 43 44  1  0  0  0  0
 46 47  1  0  0  0  0
 47 48  2  0  0  0  0
 48 49  1  0  0  0  0
 49 50  2  0  0  0  0
 50 51  1  0  0  0  0
 46 51  2  0  0  0  0
 52 53  1  0  0  0  0
 49 52  1  0  0  0  0
 48 54  1  0  0  0  0
 45 46  1  0  0  0  0
 20 43  1  1  0  0  0
 19 55  1  6  0  0  0
 17  5  1  6  0  0  0
M  END
>  <cdx:fragmentId>
49

$$$$
