6444148.cdx
  Mrv1902 05222410282D          

 50 50  0  0  0  0            999 V2000
   12.3208   -8.2907    0.0000 C   0  0  0  0  0  0  0  0  0  0  0  0
   11.6063   -8.7032    0.0000 C   0  0  1  0  0  0  0  0  0  0  0  0
   10.8919   -8.2907    0.0000 C   0  0  0  0  0  0  0  0  0  0  0  0
   10.1774   -8.7032    0.0000 C   0  0  0  0  0  0  0  0  0  0  0  0
    9.4629   -8.2907    0.0000 C   0  0  0  0  0  0  0  0  0  0  0  0
    8.7484   -8.7032    0.0000 C   0  0  0  0  0  0  0  0  0  0  0  0
    8.0340   -8.2907    0.0000 C   0  0  0  0  0  0  0  0  0  0  0  0
    7.3195   -8.7032    0.0000 C   0  0  0  0  0  0  0  0  0  0  0  0
    6.6050   -8.2907    0.0000 C   0  0  0  0  0  0  0  0  0  0  0  0
    5.8906   -8.7032    0.0000 C   0  0  0  0  0  0  0  0  0  0  0  0
    5.1761   -8.2907    0.0000 C   0  0  0  0  0  0  0  0  0  0  0  0
    4.4616   -8.7032    0.0000 C   0  0  0  0  0  0  0  0  0  0  0  0
    3.7471   -8.2907    0.0000 C   0  0  0  0  0  0  0  0  0  0  0  0
    3.0327   -8.7032    0.0000 C   0  0  0  0  0  0  0  0  0  0  0  0
    2.3182   -8.2907    0.0000 C   0  0  0  0  0  0  0  0  0  0  0  0
    1.6037   -8.7032    0.0000 C   0  0  0  0  0  0  0  0  0  0  0  0
   12.3208   -7.4657    0.0000 O   0  0  0  0  0  0  0  0  0  0  0  0
   13.0353   -8.7032    0.0000 N   0  0  0  0  0  0  0  0  0  0  0  0
   13.7497   -7.4657    0.0000 C   0  0  0  0  0  0  0  0  0  0  0  0
   13.7497   -8.2907    0.0000 C   0  0  0  0  0  0  0  0  0  0  0  0
   14.4642   -8.7032    0.0000 C   0  0  1  0  0  0  0  0  0  0  0  0
   15.1787   -8.2907    0.0000 C   0  0  0  0  0  0  0  0  0  0  0  0
   15.8931   -8.7032    0.0000 C   0  0  0  0  0  0  0  0  0  0  0  0
   16.6076   -8.2907    0.0000 C   0  0  0  0  0  0  0  0  0  0  0  0
   17.3221   -8.7032    0.0000 C   0  0  0  0  0  0  0  0  0  0  0  0
   18.0366   -8.2907    0.0000 C   0  0  0  0  0  0  0  0  0  0  0  0
   18.7510   -8.7032    0.0000 C   0  0  0  0  0  0  0  0  0  0  0  0
   19.4655   -8.2907    0.0000 C   0  0  0  0  0  0  0  0  0  0  0  0
   20.1800   -8.7032    0.0000 C   0  0  0  0  0  0  0  0  0  0  0  0
   20.8944   -8.2907    0.0000 C   0  0  0  0  0  0  0  0  0  0  0  0
   21.6089   -8.7032    0.0000 C   0  0  0  0  0  0  0  0  0  0  0  0
   22.3234   -8.2907    0.0000 C   0  0  0  0  0  0  0  0  0  0  0  0
   23.0379   -8.7032    0.0000 C   0  0  0  0  0  0  0  0  0  0  0  0
   23.7523   -8.2907    0.0000 C   0  0  0  0  0  0  0  0  0  0  0  0
   24.4668   -8.7032    0.0000 C   0  0  0  0  0  0  0  0  0  0  0  0
   25.1813   -8.2907    0.0000 C   0  0  0  0  0  0  0  0  0  0  0  0
   14.4642   -7.0532    0.0000 O   0  0  0  0  0  0  0  0  0  0  0  0
   15.1787   -5.8157    0.0000 O   0  0  0  0  0  0  0  0  0  0  0  0
   14.4642   -6.2282    0.0000 C   0  0  1  0  0  0  0  0  0  0  0  0
   13.7497   -5.8157    0.0000 C   0  0  1  0  0  0  0  0  0  0  0  0
   13.7497   -4.9907    0.0000 C   0  0  2  0  0  0  0  0  0  0  0  0
   14.4642   -4.5782    0.0000 C   0  0  1  0  0  0  0  0  0  0  0  0
   15.1787   -4.9907    0.0000 C   0  0  1  0  0  0  0  0  0  0  0  0
   15.8931   -4.5782    0.0000 C   0  0  0  0  0  0  0  0  0  0  0  0
   16.6076   -4.9907    0.0000 O   0  0  0  0  0  0  0  0  0  0  0  0
   14.4642   -3.7532    0.0000 O   0  0  0  0  0  0  0  0  0  0  0  0
   13.0353   -4.5782    0.0000 O   0  0  0  0  0  0  0  0  0  0  0  0
   13.0353   -6.2282    0.0000 O   0  0  0  0  0  0  0  0  0  0  0  0
   14.4642   -9.5282    0.0000 O   0  0  0  0  0  0  0  0  0  0  0  0
   11.6063   -9.5282    0.0000 O   0  0  0  0  0  0  0  0  0  0  0  0
  1  2  1  0  0  0  0
  2  3  1  0  0  0  0
  3  4  1  0  0  0  0
  4  5  1  0  0  0  0
  5  6  1  0  0  0  0
  6  7  1  0  0  0  0
  7  8  1  0  0  0  0
  8  9  1  0  0  0  0
  9 10  1  0  0  0  0
 10 11  1  0  0  0  0
 11 12  1  0  0  0  0
 12 13  1  0  0  0  0
 13 14  1  0  0  0  0
 14 15  1  0  0  0  0
 15 16  1  0  0  0  0
  1 17  2  0  0  0  0
  1 18  1  0  0  0  0
 19 20  1  0  0  0  0
 20 21  1  0  0  0  0
 21 22  1  0  0  0  0
 22 23  2  3  0  0  0
 23 24  1  0  0  0  0
 24 25  1  0  0  0  0
 25 26  1  0  0  0  0
 26 27  2  3  0  0  0
 27 28  1  0  0  0  0
 28 29  1  0  0  0  0
 29 30  1  0  0  0  0
 30 31  1  0  0  0  0
 31 32  1  0  0  0  0
 32 33  1  0  0  0  0
 33 34  1  0  0  0  0
 34 35  1  0  0  0  0
 35 36  1  0  0  0  0
 38 39  1  0  0  0  0
 39 40  1  0  0  0  0
 40 41  1  0  0  0  0
 41 42  1  0  0  0  0
 42 43  1  0  0  0  0
 38 43  1  0  0  0  0
 44 45  1  0  0  0  0
 43 44  1  1  0  0  0
 42 46  1  6  0  0  0
 41 47  1  1  0  0  0
 40 48  1  6  0  0  0
 39 37  1  6  0  0  0
 19 37  1  0  0  0  0
 21 49  1  1  0  0  0
 18 20  1  0  0  0  0
  2 50  1  6  0  0  0
M  END
>  <cdx:groupId>
152

>  <cdx:fragmentId>
41

$$$$
