444266.cdx
  Mrv1902 05222410242D          

  8  7  0  0  0  0            999 V2000
   16.1832   -9.2538    0.0000 C   0  0  0  0  0  0  0  0  0  0  0  0
   15.4688   -9.6663    0.0000 C   0  0  0  0  0  0  0  0  0  0  0  0
   14.7543   -9.2538    0.0000 C   0  0  0  0  0  0  0  0  0  0  0  0
   14.7543   -8.4288    0.0000 C   0  0  0  0  0  0  0  0  0  0  0  0
   16.1832   -8.4288    0.0000 O   0  0  0  0  0  0  0  0  0  0  0  0
   16.8977   -9.6663    0.0000 O   0  0  0  0  0  0  0  0  0  0  0  0
   15.4688   -8.0163    0.0000 O   0  0  0  0  0  0  0  0  0  0  0  0
   14.0398   -8.0163    0.0000 O   0  0  0  0  0  0  0  0  0  0  0  0
  1  2  1  0  0  0  0
  2  3  2  0  0  0  0
  3  4  1  0  0  0  0
  1  5  2  0  0  0  0
  1  6  1  0  0  0  0
  4  7  2  0  0  0  0
  4  8  1  0  0  0  0
M  END
>  <cdx:groupId>
15237

>  <cdx:fragmentId>
15217

$$$$
