6444285.cdx
  Mrv1902 05222410212D          

 25 27  0  0  0  0            999 V2000
    6.1421   -6.0661    0.0000 C   0  0  0  0  0  0  0  0  0  0  0  0
    6.1421   -5.2411    0.0000 C   0  0  0  0  0  0  0  0  0  0  0  0
    5.4276   -4.8286    0.0000 C   0  0  0  0  0  0  0  0  0  0  0  0
    5.4276   -4.0036    0.0000 C   0  0  0  0  0  0  0  0  0  0  0  0
    5.4276   -6.4786    0.0000 O   0  0  0  0  0  0  0  0  0  0  0  0
    6.8566   -6.4786    0.0000 O   0  0  0  0  0  0  0  0  0  0  0  0
    6.8566   -4.8286    0.0000 C   0  0  0  0  0  0  0  0  0  0  0  0
    6.1421   -8.5411    0.0000 C   0  0  0  0  0  0  0  0  0  0  0  0
    6.1421   -7.7161    0.0000 C   0  0  1  0  0  0  0  0  0  0  0  0
    6.8566   -7.3036    0.0000 C   0  0  1  0  0  0  0  0  0  0  0  0
    7.5710   -7.7161    0.0000 C   0  0  0  0  0  0  0  0  0  0  0  0
    8.2855   -7.3036    0.0000 C   0  0  0  0  0  0  0  0  0  0  0  0
    9.0000   -7.7161    0.0000 C   0  0  0  0  0  0  0  0  0  0  0  0
    9.0000   -8.5411    0.0000 C   0  0  0  0  0  0  0  0  0  0  0  0
    8.2855   -8.9536    0.0000 C   0  0  0  0  0  0  0  0  0  0  0  0
    7.5710   -8.5411    0.0000 C   0  0  0  0  0  0  0  0  0  0  0  0
    6.8566   -8.9536    0.0000 O   0  0  0  0  0  0  0  0  0  0  0  0
    9.7145   -7.3036    0.0000 C   0  0  0  0  0  0  0  0  0  0  0  0
    9.7145   -6.4786    0.0000 C   0  0  0  0  0  0  0  0  0  0  0  0
    9.0000   -6.0661    0.0000 C   0  0  0  0  0  0  0  0  0  0  0  0
    8.2855   -6.4786    0.0000 O   0  0  0  0  0  0  0  0  0  0  0  0
    9.0000   -5.2411    0.0000 O   0  0  0  0  0  0  0  0  0  0  0  0
    5.7296   -9.2555    0.0000 C   0  0  0  0  0  0  0  0  0  0  0  0
    5.3171   -8.5411    0.0000 C   0  0  0  0  0  0  0  0  0  0  0  0
    5.4276   -7.3036    0.0000 O   0  0  0  0  0  0  0  0  0  0  0  0
  1  2  1  0  0  0  0
  2  3  2  0  0  0  0
  3  4  1  0  0  0  0
  1  5  2  0  0  0  0
  1  6  1  0  0  0  0
  2  7  1  0  0  0  0
  8  9  1  0  0  0  0
  9 10  1  0  0  0  0
 10 11  1  0  0  0  0
 11 12  1  0  0  0  0
 12 13  2  0  0  0  0
 13 14  1  0  0  0  0
 14 15  2  0  0  0  0
 15 16  1  0  0  0  0
 11 16  2  0  0  0  0
 16 17  1  0  0  0  0
  8 17  1  0  0  0  0
 18 19  2  0  0  0  0
 19 20  1  0  0  0  0
 20 21  1  0  0  0  0
 21 12  1  0  0  0  0
 18 13  1  0  0  0  0
 20 22  2  0  0  0  0
  8 23  1  0  0  0  0
  8 24  1  0  0  0  0
  9 25  1  6  0  0  0
 10  6  1  6  0  0  0
M  END
>  <cdx:groupId>
79

>  <cdx:fragmentId>
19

$$$$
