444693.cdx
  Mrv1902 05222410232D          

  4  3  0  0  0  0            999 V2000
    6.0287   -6.4889    0.0000 O   0  0  0  0  0  0  0  0  0  0  0  0
    6.7457   -6.0809    0.0000 C   0  0  0  0  0  0  0  0  0  0  0  0
    7.4576   -6.4978    0.0000 C   0  0  0  0  0  0  0  0  0  0  0  0
    8.1747   -6.0898    0.0000 N   0  0  0  0  0  0  0  0  0  0  0  0
  4  3  1  0  0  0  0
  2  1  1  0  0  0  0
  3  2  1  0  0  0  0
M  END
>  <cdx:groupId>
13

>  <cdx:fragmentId>
7

$$$$
