4446.cdx
  Mrv1902 05222410272D          

 22 24  0  0  0  0            999 V2000
    4.9533   -6.3937    0.0000 C   0  0  0  0  0  0  0  0  0  0  0  0
    4.9533   -7.2188    0.0000 C   0  0  0  0  0  0  0  0  0  0  0  0
    5.6677   -7.6313    0.0000 C   0  0  0  0  0  0  0  0  0  0  0  0
    6.3822   -7.2188    0.0000 C   0  0  0  0  0  0  0  0  0  0  0  0
    6.3822   -6.3937    0.0000 C   0  0  0  0  0  0  0  0  0  0  0  0
    5.6677   -5.9813    0.0000 C   0  0  0  0  0  0  0  0  0  0  0  0
    7.0967   -7.6313    0.0000 C   0  0  0  0  0  0  0  0  0  0  0  0
    7.8112   -7.2188    0.0000 C   0  0  0  0  0  0  0  0  0  0  0  0
    7.8112   -6.3937    0.0000 C   0  0  0  0  0  0  0  0  0  0  0  0
    7.0967   -5.9813    0.0000 O   0  0  0  0  0  0  0  0  0  0  0  0
    8.5256   -5.9813    0.0000 C   0  0  0  0  0  0  0  0  0  0  0  0
    8.5256   -5.1563    0.0000 C   0  0  0  0  0  0  0  0  0  0  0  0
    9.2401   -6.3937    0.0000 C   0  0  0  0  0  0  0  0  0  0  0  0
    9.9546   -5.9813    0.0000 C   0  0  0  0  0  0  0  0  0  0  0  0
    9.9546   -5.1563    0.0000 C   0  0  0  0  0  0  0  0  0  0  0  0
    9.2401   -4.7438    0.0000 C   0  0  0  0  0  0  0  0  0  0  0  0
    7.0967   -8.4563    0.0000 O   0  0  0  0  0  0  0  0  0  0  0  0
    8.5256   -7.6313    0.0000 O   0  0  0  0  0  0  0  0  0  0  0  0
    5.6677   -8.4563    0.0000 O   0  0  0  0  0  0  0  0  0  0  0  0
    4.2388   -5.9813    0.0000 O   0  0  0  0  0  0  0  0  0  0  0  0
    9.2401   -3.9188    0.0000 O   0  0  0  0  0  0  0  0  0  0  0  0
   10.6690   -6.3937    0.0000 O   0  0  0  0  0  0  0  0  0  0  0  0
  1  2  2  0  0  0  0
  2  3  1  0  0  0  0
  3  4  2  0  0  0  0
  4  5  1  0  0  0  0
  5  6  2  0  0  0  0
  6  1  1  0  0  0  0
  4  7  1  0  0  0  0
  7  8  1  0  0  0  0
  8  9  1  0  0  0  0
  9 10  1  0  0  0  0
 10  5  1  0  0  0  0
  9 11  1  0  0  0  0
 11 12  1  0  0  0  0
 11 13  2  0  0  0  0
 13 14  1  0  0  0  0
 14 15  2  0  0  0  0
 15 16  1  0  0  0  0
 16 12  2  0  0  0  0
  7 17  2  0  0  0  0
  8 18  1  0  0  0  0
  3 19  1  0  0  0  0
  1 20  1  0  0  0  0
 16 21  1  0  0  0  0
 14 22  1  0  0  0  0
M  END
>  <cdx:fragmentId>
5

$$$$
