4450.cdx
  Mrv1902 05222410282D          

 27 29  0  0  0  0            999 V2000
    3.1542   -9.2674    0.0000 C   0  0  0  0  0  0  0  0  0  0  0  0
    3.5667   -8.5530    0.0000 C   0  0  0  0  0  0  0  0  0  0  0  0
    4.3917   -8.5530    0.0000 C   0  0  0  0  0  0  0  0  0  0  0  0
    4.8042   -7.8385    0.0000 C   0  0  0  0  0  0  0  0  0  0  0  0
    3.1542   -7.8385    0.0000 O   0  0  0  0  0  0  0  0  0  0  0  0
    6.1638   -6.9126    0.0000 C   0  0  0  0  0  0  0  0  0  0  0  0
    6.9681   -7.0961    0.0000 C   0  0  0  0  0  0  0  0  0  0  0  0
    7.3260   -7.8394    0.0000 C   0  0  1  0  0  0  0  0  0  0  0  0
    6.9681   -8.5827    0.0000 C   0  0  0  0  0  0  0  0  0  0  0  0
    6.1638   -8.7663    0.0000 C   0  0  0  0  0  0  0  0  0  0  0  0
    5.5188   -8.2519    0.0000 O   0  0  0  0  0  0  0  0  0  0  0  0
    5.5188   -7.4269    0.0000 C   0  0  0  0  0  0  0  0  0  0  0  0
    5.6292   -7.8385    0.0000 C   0  0  2  0  0  0  0  0  0  0  0  0
    5.9802   -9.5706    0.0000 C   0  0  0  0  0  0  0  0  0  0  0  0
    5.9802   -6.1082    0.0000 C   0  0  0  0  0  0  0  0  0  0  0  0
    9.8010   -7.8344    0.0000 O   0  0  0  0  0  0  0  0  0  0  0  0
   10.6304   -9.2609    0.0000 O   0  0  0  0  0  0  0  0  0  0  0  0
    9.8097  -10.6923    0.0000 O   0  0  0  0  0  0  0  0  0  0  0  0
    7.3347  -10.6998    0.0000 O   0  0  0  0  0  0  0  0  0  0  0  0
    8.1597  -10.6973    0.0000 C   0  0  0  0  0  0  0  0  0  0  0  0
    8.5700   -9.9816    0.0000 C   0  0  2  0  0  0  0  0  0  0  0  0
    9.3950   -9.9791    0.0000 C   0  0  2  0  0  0  0  0  0  0  0  0
    9.8054   -9.2634    0.0000 C   0  0  1  0  0  0  0  0  0  0  0  0
    9.3907   -8.5502    0.0000 C   0  0  2  0  0  0  0  0  0  0  0  0
    8.5657   -8.5527    0.0000 C   0  0  1  0  0  0  0  0  0  0  0  0
    8.1554   -9.2684    0.0000 O   0  0  0  0  0  0  0  0  0  0  0  0
    8.1510   -7.8394    0.0000 O   0  0  0  0  0  0  0  0  0  0  0  0
 25 27  1  1  0  0  0
 24 16  1  6  0  0  0
 23 17  1  1  0  0  0
 22 18  1  6  0  0  0
 21 20  1  1  0  0  0
 20 19  1  0  0  0  0
 26 21  1  0  0  0  0
 22 21  1  0  0  0  0
 23 22  1  0  0  0  0
 24 23  1  0  0  0  0
 25 24  1  0  0  0  0
 26 25  1  0  0  0  0
  1  2  1  0  0  0  0
  2  3  1  0  0  0  0
  3  4  1  0  0  0  0
  2  5  2  0  0  0  0
  6  7  1  0  0  0  0
  7  8  1  0  0  0  0
  8  9  1  0  0  0  0
  9 10  1  0  0  0  0
 10 11  1  0  0  0  0
 11 12  1  0  0  0  0
  6 12  1  0  0  0  0
  6 13  1  0  0  0  0
 13 10  1  0  0  0  0
  8 27  1  6  0  0  0
 10 14  1  0  0  0  0
  6 15  1  0  0  0  0
 13  4  1  6  0  0  0
M  END
>  <cdx:fragmentId>
33

$$$$
