4453.cdx
  Mrv1902 05222410272D          

 37 39  0  0  0  0            999 V2000
    8.3876   -6.2254    0.0000 C   0  0  0  0  0  0  0  0  0  0  0  0
    7.6744   -6.6401    0.0000 C   0  0  0  0  0  0  0  0  0  0  0  0
    7.6770   -7.4651    0.0000 C   0  0  2  0  0  0  0  0  0  0  0  0
    8.3927   -7.8754    0.0000 C   0  0  0  0  0  0  0  0  0  0  0  0
    9.1059   -7.4607    0.0000 C   0  0  1  0  0  0  0  0  0  0  0  0
    9.1034   -6.6357    0.0000 C   0  0  0  0  0  0  0  0  0  0  0  0
    9.8217   -7.8709    0.0000 O   0  0  0  0  0  0  0  0  0  0  0  0
    8.7979   -5.5096    0.0000 C   0  0  0  0  0  0  0  0  0  0  0  0
    8.3953   -8.7004    0.0000 O   0  0  0  0  0  0  0  0  0  0  0  0
    6.9638   -7.8798    0.0000 O   0  0  0  0  0  0  0  0  0  0  0  0
    8.3832   -4.7964    0.0000 O   0  0  0  0  0  0  0  0  0  0  0  0
    9.6229   -5.5071    0.0000 O   0  0  0  0  0  0  0  0  0  0  0  0
   10.5563  -11.5887    0.0000 C   0  0  0  0  0  0  0  0  0  0  0  0
   10.5582  -12.4137    0.0000 C   0  0  0  0  0  0  0  0  0  0  0  0
    9.8447  -12.8279    0.0000 C   0  0  0  0  0  0  0  0  0  0  0  0
    9.1293  -12.4171    0.0000 C   0  0  0  0  0  0  0  0  0  0  0  0
    9.1273  -11.5921    0.0000 C   0  0  0  0  0  0  0  0  0  0  0  0
    9.8408  -11.1779    0.0000 C   0  0  0  0  0  0  0  0  0  0  0  0
   11.2736  -12.8245    0.0000 O   0  0  0  0  0  0  0  0  0  0  0  0
    9.8467  -13.6529    0.0000 O   0  0  0  0  0  0  0  0  0  0  0  0
    9.8389  -10.3529    0.0000 C   0  0  0  0  0  0  0  0  0  0  0  0
    9.1234   -9.9421    0.0000 C   0  0  0  0  0  0  0  0  0  0  0  0
    9.1215   -9.1171    0.0000 C   0  0  0  0  0  0  0  0  0  0  0  0
    9.8350   -8.7029    0.0000 O   0  0  0  0  0  0  0  0  0  0  0  0
    7.9751   -5.5109    0.0000 O   0  0  0  0  0  0  0  0  0  0  0  0
    7.1501   -5.5109    0.0000 C   0  0  0  0  0  0  0  0  0  0  0  0
    6.7376   -4.7964    0.0000 C   0  0  0  0  0  0  0  0  0  0  0  0
    6.7376   -6.2254    0.0000 O   0  0  0  0  0  0  0  0  0  0  0  0
    5.9126   -4.7964    0.0000 C   0  0  0  0  0  0  0  0  0  0  0  0
    5.5001   -4.0820    0.0000 C   0  0  0  0  0  0  0  0  0  0  0  0
    5.9126   -3.3675    0.0000 C   0  0  0  0  0  0  0  0  0  0  0  0
    5.5001   -2.6530    0.0000 C   0  0  0  0  0  0  0  0  0  0  0  0
    4.6751   -2.6530    0.0000 C   0  0  0  0  0  0  0  0  0  0  0  0
    4.2626   -3.3675    0.0000 C   0  0  0  0  0  0  0  0  0  0  0  0
    4.6751   -4.0820    0.0000 C   0  0  0  0  0  0  0  0  0  0  0  0
    4.2626   -1.9385    0.0000 O   0  0  0  0  0  0  0  0  0  0  0  0
    3.4376   -3.3675    0.0000 O   0  0  0  0  0  0  0  0  0  0  0  0
  1  2  1  0  0  0  0
  2  3  1  0  0  0  0
  3  4  1  0  0  0  0
  4  5  1  0  0  0  0
  5  6  1  0  0  0  0
  6  1  1  0  0  0  0
  5  7  1  1  0  0  0
  1  8  1  0  0  0  0
  4  9  1  0  0  0  0
  3 10  1  6  0  0  0
  8 11  2  0  0  0  0
  8 12  1  0  0  0  0
 13 14  2  0  0  0  0
 14 15  1  0  0  0  0
 15 16  2  0  0  0  0
 16 17  1  0  0  0  0
 17 18  2  0  0  0  0
 18 13  1  0  0  0  0
 14 19  1  0  0  0  0
 15 20  1  0  0  0  0
 18 21  1  0  0  0  0
 21 22  2  0  0  0  0
 22 23  1  0  0  0  0
 23 24  2  0  0  0  0
 23  9  1  0  0  0  0
  1 25  1  0  0  0  0
 25 26  1  0  0  0  0
 26 27  1  0  0  0  0
 26 28  2  0  0  0  0
 27 29  2  0  0  0  0
 29 30  1  0  0  0  0
 30 31  2  0  0  0  0
 31 32  1  0  0  0  0
 32 33  2  0  0  0  0
 33 34  1  0  0  0  0
 34 35  2  0  0  0  0
 35 30  1  0  0  0  0
 33 36  1  0  0  0  0
 34 37  1  0  0  0  0
M  END
>  <cdx:fragmentId>
5

$$$$
