445487.cdx
  Mrv1902 05222410282D          

 29 28  0  0  0  0            999 V2000
   12.4461  -10.0287    0.0000 Na  0  3  0  0  0  0  0  0  0  0  0  0
    1.6190  -10.1387    0.0000 Na  0  3  0  0  0  0  0  0  0  0  0  0
    2.7735   -9.2312    0.0000 C   0  0  0  0  0  0  0  0  0  0  0  0
    2.7735   -8.4062    0.0000 C   0  0  0  0  0  0  0  0  0  0  0  0
    3.4880   -7.9937    0.0000 C   0  0  0  0  0  0  0  0  0  0  0  0
    4.2025   -8.4062    0.0000 C   0  0  0  0  0  0  0  0  0  0  0  0
    4.2025   -9.2312    0.0000 C   0  0  0  0  0  0  0  0  0  0  0  0
    3.4880   -9.6437    0.0000 C   0  0  0  0  0  0  0  0  0  0  0  0
    2.0590   -9.6437    0.0000 O   0  5  0  0  0  0  0  0  0  0  0  0
    4.9169   -7.9937    0.0000 C   0  0  0  0  0  0  0  0  0  0  0  0
    5.6314   -8.4062    0.0000 C   0  0  0  0  0  0  0  0  0  0  0  0
    6.3459   -7.9937    0.0000 C   0  0  0  0  0  0  0  0  0  0  0  0
    7.0603   -8.4062    0.0000 C   0  0  0  0  0  0  0  0  0  0  0  0
    7.7748   -7.9937    0.0000 C   0  0  0  0  0  0  0  0  0  0  0  0
    8.4893   -8.4062    0.0000 C   0  0  0  0  0  0  0  0  0  0  0  0
    9.2038   -7.9937    0.0000 C   0  0  0  0  0  0  0  0  0  0  0  0
    7.7748   -7.1687    0.0000 O   0  0  0  0  0  0  0  0  0  0  0  0
    6.3459   -7.1687    0.0000 O   0  0  0  0  0  0  0  0  0  0  0  0
    9.9182   -8.4062    0.0000 C   0  0  0  0  0  0  0  0  0  0  0  0
   10.6327   -7.9937    0.0000 C   0  0  0  0  0  0  0  0  0  0  0  0
   11.3472   -8.4062    0.0000 C   0  0  0  0  0  0  0  0  0  0  0  0
   11.3472   -9.2312    0.0000 C   0  0  0  0  0  0  0  0  0  0  0  0
   10.6327   -9.6437    0.0000 C   0  0  0  0  0  0  0  0  0  0  0  0
    9.9182   -9.2312    0.0000 C   0  0  0  0  0  0  0  0  0  0  0  0
   12.0616   -9.6437    0.0000 O   0  5  0  0  0  0  0  0  0  0  0  0
   12.0616   -7.9937    0.0000 O   0  0  0  0  0  0  0  0  0  0  0  0
   12.7761   -8.4062    0.0000 C   0  0  0  0  0  0  0  0  0  0  0  0
    2.0590   -7.9937    0.0000 O   0  0  0  0  0  0  0  0  0  0  0  0
    1.3446   -8.4062    0.0000 C   0  0  0  0  0  0  0  0  0  0  0  0
  3  4  1  0  0  0  0
  4  5  2  0  0  0  0
  5  6  1  0  0  0  0
  6  7  2  0  0  0  0
  7  8  1  0  0  0  0
  3  8  2  0  0  0  0
  3  9  1  0  0  0  0
 10 11  2  0  0  0  0
 11 12  1  0  0  0  0
 12 13  1  0  0  0  0
 13 14  1  0  0  0  0
 14 15  1  0  0  0  0
 15 16  2  0  0  0  0
 14 17  2  0  0  0  0
 12 18  2  0  0  0  0
 19 20  1  0  0  0  0
 20 21  2  0  0  0  0
 21 22  1  0  0  0  0
 22 23  2  0  0  0  0
 23 24  1  0  0  0  0
 19 24  2  0  0  0  0
 22 25  1  0  0  0  0
 26 27  1  0  0  0  0
 21 26  1  0  0  0  0
 16 19  1  0  0  0  0
  6 10  1  0  0  0  0
 28 29  1  0  0  0  0
  4 28  1  0  0  0  0
M  CHG  4   1   1   2   1   9  -1  25  -1
M  END
>  <cdx:groupId>
21120

>  <cdx:fragmentId>
21073

$$$$
