12044565.cdx
  Mrv1902 05222410222D          

  6  6  0  0  0  0            999 V2000
    3.4023   -3.4155    0.0000 C   0  0  0  0  0  0  0  0  0  0  0  0
    3.4023   -4.2405    0.0000 C   0  0  0  0  0  0  0  0  0  0  0  0
    4.1167   -4.6530    0.0000 S   0  0  0  0  0  0  0  0  0  0  0  0
    4.8312   -4.2405    0.0000 S   0  0  0  0  0  0  0  0  0  0  0  0
    4.8312   -3.4155    0.0000 C   0  0  0  0  0  0  0  0  0  0  0  0
    4.1167   -3.0030    0.0000 C   0  0  0  0  0  0  0  0  0  0  0  0
  1  2  2  0  0  0  0
  2  3  1  0  0  0  0
  3  4  1  0  0  0  0
  4  5  1  0  0  0  0
  5  6  2  0  0  0  0
  6  1  1  0  0  0  0
M  END
>  <cdx:fragmentId>
5

$$$$
