446222.cdx
  Mrv1902 05222410182D          

  9  9  0  0  0  0            999 V2000
    7.5557   -5.7743    0.0000 N   0  0  0  0  0  0  0  0  0  0  0  0
    9.6283   -6.5362    0.0000 O   0  0  0  0  0  0  0  0  0  0  0  0
    9.0099   -5.9901    0.0000 C   0  0  0  0  0  0  0  0  0  0  0  0
    8.2278   -6.2527    0.0000 C   0  0  2  0  0  0  0  0  0  0  0  0
    8.4719   -7.7025    0.0000 O   0  0  0  0  0  0  0  0  0  0  0  0
    7.9805   -7.0398    0.0000 C   0  0  1  0  0  0  0  0  0  0  0  0
    6.6771   -7.7199    0.0000 O   0  0  0  0  0  0  0  0  0  0  0  0
    7.1555   -7.0478    0.0000 C   0  0  1  0  0  0  0  0  0  0  0  0
    6.8930   -6.2657    0.0000 C   0  0  0  0  0  0  0  0  0  0  0  0
  4  1  1  0  0  0  0
  9  1  1  0  0  0  0
  3  2  1  0  0  0  0
  4  3  1  6  0  0  0
  6  4  1  0  0  0  0
  6  5  1  1  0  0  0
  8  6  1  0  0  0  0
  8  7  1  1  0  0  0
  9  8  1  0  0  0  0
M  END
>  <cdx:fragmentId>
15836

$$$$
