4467.cdx
  Mrv1902 05222410192D          

 35 36  0  0  0  0            999 V2000
    2.5814   -6.4350    0.0000 C   0  0  0  0  0  0  0  0  0  0  0  0
    2.5814   -7.2600    0.0000 C   0  0  0  0  0  0  0  0  0  0  0  0
    3.2959   -7.6725    0.0000 C   0  0  0  0  0  0  0  0  0  0  0  0
    4.0103   -7.2600    0.0000 C   0  0  0  0  0  0  0  0  0  0  0  0
    4.0103   -6.4350    0.0000 C   0  0  0  0  0  0  0  0  0  0  0  0
    3.2959   -6.0225    0.0000 C   0  0  0  0  0  0  0  0  0  0  0  0
    1.8669   -6.0225    0.0000 O   0  0  0  0  0  0  0  0  0  0  0  0
    1.8669   -7.6725    0.0000 O   0  0  0  0  0  0  0  0  0  0  0  0
    4.7248   -7.6725    0.0000 C   0  0  0  0  0  0  0  0  0  0  0  0
    5.4393   -7.2600    0.0000 C   0  0  0  0  0  0  0  0  0  0  0  0
    6.1538   -7.6725    0.0000 C   0  0  0  0  0  0  0  0  0  0  0  0
    6.8682   -7.2600    0.0000 C   0  0  0  0  0  0  0  0  0  0  0  0
    7.5827   -7.6725    0.0000 C   0  0  0  0  0  0  0  0  0  0  0  0
    8.2972   -7.2600    0.0000 C   0  0  0  0  0  0  0  0  0  0  0  0
    9.0116   -7.6725    0.0000 C   0  0  0  0  0  0  0  0  0  0  0  0
    9.7261   -7.2600    0.0000 C   0  0  0  0  0  0  0  0  0  0  0  0
    9.7261   -6.4350    0.0000 C   0  0  0  0  0  0  0  0  0  0  0  0
   10.4406   -7.6725    0.0000 C   0  0  0  0  0  0  0  0  0  0  0  0
   11.1551   -7.2600    0.0000 C   0  0  0  0  0  0  0  0  0  0  0  0
   11.1551   -6.4350    0.0000 C   0  0  0  0  0  0  0  0  0  0  0  0
   10.4406   -6.0225    0.0000 C   0  0  0  0  0  0  0  0  0  0  0  0
   11.8695   -7.6725    0.0000 O   0  0  0  0  0  0  0  0  0  0  0  0
   12.5840   -7.2600    0.0000 C   0  0  0  0  0  0  0  0  0  0  0  0
   11.8695   -6.0225    0.0000 O   0  0  0  0  0  0  0  0  0  0  0  0
    1.8669   -8.4975    0.0000 C   0  0  0  0  0  0  0  0  0  0  0  0
   10.4406   -5.1975    0.0000 O   0  0  0  0  0  0  0  0  0  0  0  0
    6.1538   -8.4975    0.0000 O   0  0  0  0  0  0  0  0  0  0  0  0
    5.4393   -8.9100    0.0000 C   0  0  0  0  0  0  0  0  0  0  0  0
    4.7248   -8.4975    0.0000 C   0  0  0  0  0  0  0  0  0  0  0  0
    7.5827   -8.4975    0.0000 O   0  0  0  0  0  0  0  0  0  0  0  0
    8.2972   -8.9100    0.0000 C   0  0  0  0  0  0  0  0  0  0  0  0
    9.0116   -8.4975    0.0000 C   0  0  0  0  0  0  0  0  0  0  0  0
    5.4393   -9.7350    0.0000 O   0  0  0  0  0  0  0  0  0  0  0  0
    8.2972   -9.7350    0.0000 O   0  0  0  0  0  0  0  0  0  0  0  0
    3.2959   -8.4975    0.0000 O   0  0  0  0  0  0  0  0  0  0  0  0
  1  2  2  0  0  0  0
  2  3  1  0  0  0  0
  3  4  2  0  0  0  0
  4  5  1  0  0  0  0
  5  6  2  0  0  0  0
  6  1  1  0  0  0  0
  1  7  1  0  0  0  0
  8  2  1  0  0  0  0
  4  9  1  0  0  0  0
  9 10  1  0  0  0  0
 10 11  1  0  0  0  0
 11 12  1  0  0  0  0
 12 13  1  0  0  0  0
 13 14  1  0  0  0  0
 14 15  1  0  0  0  0
 15 16  1  0  0  0  0
 16 17  2  0  0  0  0
 16 18  1  0  0  0  0
 18 19  2  0  0  0  0
 19 20  1  0  0  0  0
 20 21  2  0  0  0  0
 21 17  1  0  0  0  0
 19 22  1  0  0  0  0
 22 23  1  0  0  0  0
 24 20  1  0  0  0  0
  8 25  1  0  0  0  0
 21 26  1  0  0  0  0
 11 27  1  0  0  0  0
 27 28  1  0  0  0  0
 28 29  1  0  0  0  0
 13 30  1  0  0  0  0
 30 31  1  0  0  0  0
 31 32  1  0  0  0  0
 28 33  2  0  0  0  0
 31 34  2  0  0  0  0
  3 35  1  0  0  0  0
M  END
>  <cdx:fragmentId>
5

$$$$
