446834.cdx
  Mrv1902 05222410262D          

 15 15  0  0  0  0            999 V2000
    6.3442   -8.5535    0.0000 O   0  0  0  0  0  0  0  0  0  0  0  0
    4.9069   -7.7431    0.0000 O   0  0  0  0  0  0  0  0  0  0  0  0
    4.1799   -6.5129    0.0000 C   0  0  0  0  0  0  0  0  0  0  0  0
    4.8902   -6.0932    0.0000 O   0  0  0  0  0  0  0  0  0  0  0  0
    9.8954   -6.4548    0.0000 O   0  0  0  0  0  0  0  0  0  0  0  0
    9.1684   -5.2246    0.0000 O   0  0  0  0  0  0  0  0  0  0  0  0
    6.3190   -6.0786    0.0000 C   0  0  0  0  0  0  0  0  0  0  0  0
    5.6088   -6.4984    0.0000 C   0  0  0  0  0  0  0  0  0  0  0  0
    5.6172   -7.3233    0.0000 C   0  0  0  0  0  0  0  0  0  0  0  0
    6.3358   -7.7285    0.0000 C   0  0  0  0  0  0  0  0  0  0  0  0
    7.0461   -7.3088    0.0000 C   0  0  0  0  0  0  0  0  0  0  0  0
    7.0377   -6.4838    0.0000 C   0  0  0  0  0  0  0  0  0  0  0  0
    7.7479   -6.0641    0.0000 C   0  0  0  0  0  0  0  0  0  0  0  0
    8.4665   -6.4693    0.0000 C   0  0  0  0  0  0  0  0  0  0  0  0
    9.1768   -6.0496    0.0000 C   0  0  0  0  0  0  0  0  0  0  0  0
 10  1  1  0  0  0  0
  9  2  1  0  0  0  0
  8  4  1  0  0  0  0
  4  3  1  0  0  0  0
 15  5  1  0  0  0  0
 15  6  2  0  0  0  0
 12  7  2  0  0  0  0
  8  7  1  0  0  0  0
  9  8  2  0  0  0  0
 10  9  1  0  0  0  0
 11 10  2  0  0  0  0
 12 11  1  0  0  0  0
 13 12  1  0  0  0  0
 14 13  2  0  0  0  0
 15 14  1  0  0  0  0
M  END
>  <cdx:fragmentId>
15940

$$$$
