447145.cdx
  Mrv1902 05222410252D          

 31 33  0  0  0  0            999 V2000
    4.4873  -10.3116    0.0000 C   0  0  0  0  0  0  0  0  0  0  0  0
    5.2018  -10.7241    0.0000 C   0  0  2  0  0  0  0  0  0  0  0  0
    5.2018  -11.5491    0.0000 C   0  0  0  0  0  0  0  0  0  0  0  0
    5.9163  -11.9616    0.0000 C   0  0  0  0  0  0  0  0  0  0  0  0
    4.4873   -9.4866    0.0000 O   0  0  0  0  0  0  0  0  0  0  0  0
    3.7729  -10.7241    0.0000 O   0  0  0  0  0  0  0  0  0  0  0  0
    5.9163  -12.7866    0.0000 O   0  0  0  0  0  0  0  0  0  0  0  0
    6.6307  -11.5491    0.0000 O   0  0  0  0  0  0  0  0  0  0  0  0
    5.9163  -10.3116    0.0000 N   0  0  0  0  0  0  0  0  0  0  0  0
    7.4154   -9.3290    0.0000 N   0  0  0  0  0  0  0  0  0  0  0  0
    7.9003   -8.6616    0.0000 C   0  0  0  0  0  0  0  0  0  0  0  0
    7.4154   -7.9941    0.0000 N   0  0  0  0  0  0  0  0  0  0  0  0
    6.6307   -8.2491    0.0000 C   0  0  0  0  0  0  0  0  0  0  0  0
    5.9163   -7.8366    0.0000 N   0  0  0  0  0  0  0  0  0  0  0  0
    5.2018   -8.2491    0.0000 C   0  0  0  0  0  0  0  0  0  0  0  0
    5.2018   -9.0741    0.0000 N   0  0  0  0  0  0  0  0  0  0  0  0
    5.9163   -9.4866    0.0000 C   0  0  0  0  0  0  0  0  0  0  0  0
    6.6307   -9.0741    0.0000 C   0  0  0  0  0  0  0  0  0  0  0  0
    8.4549   -6.9546    0.0000 O   0  0  0  0  0  0  0  0  0  0  0  0
    7.6703   -7.2095    0.0000 C   0  0  2  0  0  0  0  0  0  0  0  0
    7.1854   -6.5421    0.0000 C   0  0  1  0  0  0  0  0  0  0  0  0
    7.6703   -5.8746    0.0000 C   0  0  1  0  0  0  0  0  0  0  0  0
    8.4549   -6.1296    0.0000 C   0  0  1  0  0  0  0  0  0  0  0  0
    9.1224   -5.6446    0.0000 C   0  0  0  0  0  0  0  0  0  0  0  0
    9.8760   -5.9802    0.0000 O   0  0  0  0  0  0  0  0  0  0  0  0
   10.5435   -5.4953    0.0000 P   0  0  0  0  0  0  0  0  0  0  0  0
   10.1310   -4.7808    0.0000 O   0  0  0  0  0  0  0  0  0  0  0  0
   10.9560   -6.2097    0.0000 O   0  0  0  0  0  0  0  0  0  0  0  0
   11.2579   -5.0828    0.0000 O   0  0  0  0  0  0  0  0  0  0  0  0
    7.4154   -5.0900    0.0000 O   0  0  0  0  0  0  0  0  0  0  0  0
    6.3604   -6.5421    0.0000 O   0  0  0  0  0  0  0  0  0  0  0  0
  1  2  1  0  0  0  0
  2  3  1  0  0  0  0
  3  4  1  0  0  0  0
  1  5  2  0  0  0  0
  1  6  1  0  0  0  0
  4  7  2  0  0  0  0
  4  8  1  0  0  0  0
 10 11  2  0  0  0  0
 11 12  1  0  0  0  0
 12 13  1  0  0  0  0
 13 14  2  0  0  0  0
 14 15  1  0  0  0  0
 15 16  2  0  0  0  0
 16 17  1  0  0  0  0
 17 18  2  0  0  0  0
 10 18  1  0  0  0  0
 13 18  1  0  0  0  0
 19 20  1  0  0  0  0
 20 21  1  0  0  0  0
 21 22  1  0  0  0  0
 22 23  1  0  0  0  0
 19 23  1  0  0  0  0
 26 27  2  0  0  0  0
 26 28  1  0  0  0  0
 26 29  1  0  0  0  0
 25 26  1  0  0  0  0
 24 25  1  0  0  0  0
 23 24  1  1  0  0  0
 22 30  1  6  0  0  0
 21 31  1  6  0  0  0
 20 12  1  1  0  0  0
  9 17  1  0  0  0  0
  2  9  1  1  0  0  0
M  END
>  <cdx:groupId>
97

>  <cdx:fragmentId>
55

$$$$
