11447394.cdx
  Mrv1902 05222410242D          

 16 17  0  0  0  0            999 V2000
    5.0420   -9.6192    0.0000 C   0  0  0  0  0  0  0  0  0  0  0  0
    5.0420   -8.7942    0.0000 C   0  0  0  0  0  0  0  0  0  0  0  0
    5.7565   -8.3817    0.0000 C   0  0  0  0  0  0  0  0  0  0  0  0
    6.4710   -8.7942    0.0000 C   0  0  0  0  0  0  0  0  0  0  0  0
    6.4710   -9.6192    0.0000 C   0  0  0  0  0  0  0  0  0  0  0  0
    5.7565  -10.0317    0.0000 N   0  0  0  0  0  0  0  0  0  0  0  0
    4.3276  -10.0317    0.0000 O   0  0  0  0  0  0  0  0  0  0  0  0
    7.8999  -11.2692    0.0000 N   0  0  0  0  0  0  0  0  0  0  0  0
    7.1855  -10.8567    0.0000 C   0  0  0  0  0  0  0  0  0  0  0  0
    7.1855  -10.0317    0.0000 C   0  0  2  0  0  0  0  0  0  0  0  0
    7.8999   -9.6192    0.0000 C   0  0  0  0  0  0  0  0  0  0  0  0
    8.6144  -10.0317    0.0000 C   0  0  2  0  0  0  0  0  0  0  0  0
    8.6144  -10.8567    0.0000 C   0  0  0  0  0  0  0  0  0  0  0  0
    7.8999  -12.0942    0.0000 C   0  0  0  0  0  0  0  0  0  0  0  0
    9.3289   -9.6192    0.0000 C   0  0  0  0  0  0  0  0  0  0  0  0
   10.0433  -10.0317    0.0000 O   0  0  0  0  0  0  0  0  0  0  0  0
  1  2  1  0  0  0  0
  2  3  2  0  0  0  0
  3  4  1  0  0  0  0
  4  5  2  0  0  0  0
  5  6  1  0  0  0  0
  1  6  1  0  0  0  0
  1  7  2  0  0  0  0
  8  9  1  0  0  0  0
  9 10  1  0  0  0  0
 10 11  1  0  0  0  0
 11 12  1  0  0  0  0
 12 13  1  0  0  0  0
  8 13  1  0  0  0  0
  8 14  1  0  0  0  0
 15 16  1  0  0  0  0
 12 15  1  1  0  0  0
 10  5  1  1  0  0  0
M  END
>  <cdx:groupId>
72354

>  <cdx:fragmentId>
72322

$$$$
