11447401.cdx
  Mrv1902 05222410222D          

 18 20  0  0  0  0            999 V2000
   13.9997   -9.6811    0.0000 C   0  0  1  0  0  0  0  0  0  0  0  0
   13.9997  -10.5061    0.0000 C   0  0  2  0  0  0  0  0  0  0  0  0
   14.6447  -11.0205    0.0000 C   0  0  0  0  0  0  0  0  0  0  0  0
   15.4491  -10.8369    0.0000 C   0  0  0  0  0  0  0  0  0  0  0  0
   15.8070  -10.0936    0.0000 C   0  0  0  0  0  0  0  0  0  0  0  0
   15.4491   -9.3503    0.0000 C   0  0  0  0  0  0  0  0  0  0  0  0
   14.6447   -9.1667    0.0000 C   0  0  1  0  0  0  0  0  0  0  0  0
   13.5424   -9.7663    0.0000 C   0  0  1  0  0  0  0  0  0  0  0  0
   13.2151  -10.7610    0.0000 C   0  0  2  0  0  0  0  0  0  0  0  0
   12.7302  -10.0936    0.0000 C   0  0  0  0  0  0  0  0  0  0  0  0
   13.2151   -9.4261    0.0000 C   0  0  0  0  0  0  0  0  0  0  0  0
   12.8268   -9.3558    0.0000 O   0  0  0  0  0  0  0  0  0  0  0  0
   12.9602  -11.5456    0.0000 C   0  0  0  0  0  0  0  0  0  0  0  0
   15.5720   -8.5345    0.0000 C   0  0  0  0  0  0  0  0  0  0  0  0
   16.2170   -9.0489    0.0000 C   0  0  0  0  0  0  0  0  0  0  0  0
   13.8524  -11.3178    0.0000 C   0  0  0  0  0  0  0  0  0  0  0  0
   14.7430  -10.0390    0.0000 H   0  0  0  0  0  0  0  0  0  0  0  0
   14.5322   -8.3494    0.0000 H   0  0  0  0  0  0  0  0  0  0  0  0
  1  2  1  0  0  0  0
  2  3  1  0  0  0  0
  3  4  1  0  0  0  0
  4  5  1  0  0  0  0
  5  6  1  0  0  0  0
  6  7  1  0  0  0  0
  7  8  1  0  0  0  0
  8  9  1  0  0  0  0
  9 10  1  0  0  0  0
 10 11  1  0  0  0  0
  1 11  1  0  0  0  0
  1  7  1  0  0  0  0
  2  9  1  0  0  0  0
  8 12  1  1  0  0  0
  9 13  1  6  0  0  0
  6 14  1  0  0  0  0
  6 15  1  0  0  0  0
  2 16  1  1  0  0  0
  1 17  1  1  0  0  0
  7 18  1  1  0  0  0
M  END
>  <cdx:groupId>
8817

>  <cdx:fragmentId>
8764

$$$$
