4479.cdx
  Mrv1902 05222410282D          

 29 30  0  0  0  0            999 V2000
   10.8439   -7.0287    0.0000 C   0  0  0  0  0  0  0  0  0  0  0  0
   10.8328   -6.2038    0.0000 C   0  0  0  0  0  0  0  0  0  0  0  0
   10.1128   -5.8010    0.0000 C   0  0  0  0  0  0  0  0  0  0  0  0
    9.4040   -6.2230    0.0000 C   0  0  0  0  0  0  0  0  0  0  0  0
    9.4151   -7.0480    0.0000 C   0  0  0  0  0  0  0  0  0  0  0  0
   10.1350   -7.4508    0.0000 C   0  0  0  0  0  0  0  0  0  0  0  0
    8.6840   -5.8202    0.0000 C   0  0  0  0  0  0  0  0  0  0  0  0
    7.9751   -6.2423    0.0000 C   0  0  0  0  0  0  0  0  0  0  0  0
    7.2552   -5.8394    0.0000 C   0  0  0  0  0  0  0  0  0  0  0  0
    6.5463   -6.2615    0.0000 C   0  0  0  0  0  0  0  0  0  0  0  0
    5.8264   -5.8586    0.0000 C   0  0  0  0  0  0  0  0  0  0  0  0
    5.1175   -6.2807    0.0000 C   0  0  0  0  0  0  0  0  0  0  0  0
    4.3976   -5.8779    0.0000 C   0  0  0  0  0  0  0  0  0  0  0  0
    0.8311   -6.3384    0.0000 C   0  0  0  0  0  0  0  0  0  0  0  0
    1.5399   -5.9163    0.0000 O   0  0  0  0  0  0  0  0  0  0  0  0
    1.5621   -7.5662    0.0000 O   0  0  0  0  0  0  0  0  0  0  0  0
    2.2599   -6.3192    0.0000 C   0  0  0  0  0  0  0  0  0  0  0  0
    7.2441   -5.0145    0.0000 O   0  0  0  0  0  0  0  0  0  0  0  0
    5.8153   -5.0337    0.0000 O   0  0  0  0  0  0  0  0  0  0  0  0
   10.1461   -8.2757    0.0000 O   0  0  0  0  0  0  0  0  0  0  0  0
   11.5638   -7.4316    0.0000 O   0  0  0  0  0  0  0  0  0  0  0  0
   11.5416   -5.7817    0.0000 O   0  0  0  0  0  0  0  0  0  0  0  0
    2.2710   -7.1441    0.0000 C   0  0  0  0  0  0  0  0  0  0  0  0
    2.9910   -7.5470    0.0000 C   0  0  0  0  0  0  0  0  0  0  0  0
    3.6998   -7.1249    0.0000 C   0  0  0  0  0  0  0  0  0  0  0  0
    2.9688   -5.8971    0.0000 C   0  0  0  0  0  0  0  0  0  0  0  0
    3.6887   -6.3000    0.0000 C   0  0  0  0  0  0  0  0  0  0  0  0
   10.8661   -8.6786    0.0000 C   0  0  0  0  0  0  0  0  0  0  0  0
   12.2616   -6.1846    0.0000 C   0  0  0  0  0  0  0  0  0  0  0  0
  1  2  2  0  0  0  0
  2  3  1  0  0  0  0
  3  4  2  0  0  0  0
  4  5  1  0  0  0  0
  5  6  2  0  0  0  0
  6  1  1  0  0  0  0
  4  7  1  0  0  0  0
  7  8  1  0  0  0  0
  8  9  1  0  0  0  0
  9 10  1  0  0  0  0
 10 11  1  0  0  0  0
 11 12  1  0  0  0  0
 15 14  1  0  0  0  0
 12 13  1  0  0  0  0
 13 27  1  0  0  0  0
 17 15  1  0  0  0  0
 23 16  1  0  0  0  0
 17 26  1  0  0  0  0
 23 17  2  0  0  0  0
 24 23  1  0  0  0  0
 25 24  2  0  0  0  0
 27 25  1  0  0  0  0
  9 18  1  0  0  0  0
 11 19  1  0  0  0  0
  6 20  1  0  0  0  0
  1 21  1  0  0  0  0
  2 22  1  0  0  0  0
 27 26  2  0  0  0  0
 20 28  1  0  0  0  0
 22 29  1  0  0  0  0
M  END
>  <cdx:fragmentId>
5

$$$$
