448179.cdx
  Mrv1902 05222410182D          

 20 22  0  0  0  0            999 V2000
    8.8240   -9.0529    0.0000 O   0  0  0  0  0  0  0  0  0  0  0  0
    8.8240   -8.2279    0.0000 C   0  0  0  0  0  0  0  0  0  0  0  0
    8.1095   -7.8154    0.0000 C   0  0  2  0  0  0  0  0  0  0  0  0
    7.3950   -8.2279    0.0000 C   0  0  0  0  0  0  0  0  0  0  0  0
    6.6806   -7.8154    0.0000 C   0  0  0  0  0  0  0  0  0  0  0  0
    5.9661   -8.2279    0.0000 C   0  0  2  0  0  0  0  0  0  0  0  0
    5.9661   -9.0529    0.0000 C   0  0  0  0  0  0  0  0  0  0  0  0
    6.6806   -9.4654    0.0000 C   0  0  0  0  0  0  0  0  0  0  0  0
    7.3950   -9.0529    0.0000 C   0  0  1  0  0  0  0  0  0  0  0  0
    8.1095   -9.4654    0.0000 C   0  0  2  0  0  0  0  0  0  0  0  0
    9.5385   -7.8154    0.0000 O   0  0  0  0  0  0  0  0  0  0  0  0
    7.3950   -9.8779    0.0000 C   0  0  0  0  0  0  0  0  0  0  0  0
    6.6806   -6.9904    0.0000 C   0  0  0  0  0  0  0  0  0  0  0  0
    5.2516   -7.8154    0.0000 O   0  0  0  0  0  0  0  0  0  0  0  0
    8.1095   -6.9904    0.0000 O   0  0  0  0  0  0  0  0  0  0  0  0
    7.6970  -11.5599    0.0000 O   0  0  0  0  0  0  0  0  0  0  0  0
    7.4421  -10.7753    0.0000 C   0  0  0  0  0  0  0  0  0  0  0  0
    8.1095  -10.2904    0.0000 C   0  0  0  0  0  0  0  0  0  0  0  0
    8.7770  -10.7753    0.0000 C   0  0  0  0  0  0  0  0  0  0  0  0
    8.5220  -11.5599    0.0000 C   0  0  0  0  0  0  0  0  0  0  0  0
  1  2  1  0  0  0  0
  2  3  1  0  0  0  0
  3  4  1  0  0  0  0
  4  5  2  0  0  0  0
  5  6  1  0  0  0  0
  6  7  1  0  0  0  0
  7  8  1  0  0  0  0
  8  9  1  0  0  0  0
  4  9  1  0  0  0  0
  9 10  1  0  0  0  0
  1 10  1  0  0  0  0
  2 11  2  0  0  0  0
  9 12  1  1  0  0  0
  5 13  1  0  0  0  0
  6 14  1  6  0  0  0
  3 15  1  6  0  0  0
 16 17  1  0  0  0  0
 17 18  2  0  0  0  0
 18 19  1  0  0  0  0
 19 20  2  0  0  0  0
 16 20  1  0  0  0  0
 10 18  1  1  0  0  0
M  END
>  <cdx:fragmentId>
163194

$$$$
