4484.cdx
  Mrv1902 05222410272D          

 27 28  0  0  0  0            999 V2000
    1.2734   -6.2817    0.0000 C   0  0  0  0  0  0  0  0  0  0  0  0
    9.8470   -6.2455    0.0000 C   0  0  0  0  0  0  0  0  0  0  0  0
   10.5597   -5.8300    0.0000 C   0  0  0  0  0  0  0  0  0  0  0  0
    9.8505   -7.0705    0.0000 C   0  0  0  0  0  0  0  0  0  0  0  0
   10.5667   -7.4800    0.0000 C   0  0  0  0  0  0  0  0  0  0  0  0
   11.2794   -7.0645    0.0000 C   0  0  0  0  0  0  0  0  0  0  0  0
    1.9862   -5.8662    0.0000 O   0  0  0  0  0  0  0  0  0  0  0  0
    1.9931   -7.5162    0.0000 O   0  0  0  0  0  0  0  0  0  0  0  0
    7.6984   -5.0171    0.0000 O   0  0  0  0  0  0  0  0  0  0  0  0
    6.2695   -5.0231    0.0000 O   0  0  0  0  0  0  0  0  0  0  0  0
   11.2759   -6.2395    0.0000 C   0  0  0  0  0  0  0  0  0  0  0  0
   11.9956   -7.4739    0.0000 O   0  0  0  0  0  0  0  0  0  0  0  0
   11.9887   -5.8239    0.0000 O   0  0  0  0  0  0  0  0  0  0  0  0
   12.7049   -6.2334    0.0000 C   0  0  0  0  0  0  0  0  0  0  0  0
    9.1308   -5.8360    0.0000 C   0  0  0  0  0  0  0  0  0  0  0  0
    8.4181   -6.2515    0.0000 C   0  0  0  0  0  0  0  0  0  0  0  0
    7.7019   -5.8421    0.0000 C   0  0  0  0  0  0  0  0  0  0  0  0
    6.9892   -6.2576    0.0000 C   0  0  0  0  0  0  0  0  0  0  0  0
    6.2729   -5.8481    0.0000 C   0  0  0  0  0  0  0  0  0  0  0  0
    5.5602   -6.2636    0.0000 C   0  0  0  0  0  0  0  0  0  0  0  0
    4.8440   -5.8541    0.0000 C   0  0  0  0  0  0  0  0  0  0  0  0
    3.4221   -7.5102    0.0000 C   0  0  0  0  0  0  0  0  0  0  0  0
    4.1348   -7.0946    0.0000 C   0  0  0  0  0  0  0  0  0  0  0  0
    4.1313   -6.2697    0.0000 C   0  0  0  0  0  0  0  0  0  0  0  0
    3.4151   -5.8602    0.0000 C   0  0  0  0  0  0  0  0  0  0  0  0
    2.7024   -6.2757    0.0000 C   0  0  0  0  0  0  0  0  0  0  0  0
    2.7058   -7.1007    0.0000 C   0  0  0  0  0  0  0  0  0  0  0  0
  7  1  1  0  0  0  0
  2  3  2  0  0  0  0
 26  7  1  0  0  0  0
 27  8  1  0  0  0  0
 17  9  1  0  0  0  0
 19 10  1  0  0  0  0
  2  4  1  0  0  0  0
  4  5  2  0  0  0  0
  5  6  1  0  0  0  0
  6 11  2  0  0  0  0
 11  3  1  0  0  0  0
  6 12  1  0  0  0  0
 11 13  1  0  0  0  0
 15  2  1  0  0  0  0
 16 15  1  0  0  0  0
 13 14  1  0  0  0  0
 17 16  1  0  0  0  0
 18 17  1  0  0  0  0
 19 18  1  0  0  0  0
 20 19  1  0  0  0  0
 21 20  1  0  0  0  0
 24 21  1  0  0  0  0
 22 27  1  0  0  0  0
 23 22  2  0  0  0  0
 24 23  1  0  0  0  0
 25 24  2  0  0  0  0
 26 25  1  0  0  0  0
 27 26  2  0  0  0  0
M  END
>  <cdx:fragmentId>
5

$$$$
