448503.cdx
  Mrv1902 05222410232D          

 33 36  0  0  0  0            999 V2000
    6.2904   -7.4215    0.0000 O   0  0  0  0  0  0  0  0  0  0  0  0
    5.5692   -7.8221    0.0000 C   0  0  2  0  0  0  0  0  0  0  0  0
    4.8617   -7.3978    0.0000 C   0  0  1  0  0  0  0  0  0  0  0  0
    4.8753   -6.5729    0.0000 C   0  0  2  0  0  0  0  0  0  0  0  0
    5.5965   -6.1723    0.0000 C   0  0  1  0  0  0  0  0  0  0  0  0
    6.3041   -6.5966    0.0000 C   0  0  1  0  0  0  0  0  0  0  0  0
    7.0253   -6.1960    0.0000 C   0  0  0  0  0  0  0  0  0  0  0  0
    7.0253   -5.3710    0.0000 O   0  0  0  0  0  0  0  0  0  0  0  0
    5.6102   -5.3475    0.0000 O   0  0  0  0  0  0  0  0  0  0  0  0
    4.1678   -6.1487    0.0000 O   0  0  0  0  0  0  0  0  0  0  0  0
    4.1404   -7.7984    0.0000 O   0  0  0  0  0  0  0  0  0  0  0  0
    4.1268   -8.6233    0.0000 O   0  0  0  0  0  0  0  0  0  0  0  0
   10.5083  -11.6170    0.0000 O   0  0  0  0  0  0  0  0  0  0  0  0
   11.2432  -10.3915    0.0000 C   0  0  0  0  0  0  0  0  0  0  0  0
   10.5356   -9.9672    0.0000 O   0  0  0  0  0  0  0  0  0  0  0  0
    8.3720  -11.1690    0.0000 C   0  0  0  0  0  0  0  0  0  0  0  0
    9.0795  -11.5933    0.0000 C   0  0  0  0  0  0  0  0  0  0  0  0
    9.8008  -11.1927    0.0000 C   0  0  0  0  0  0  0  0  0  0  0  0
    9.8144  -10.3678    0.0000 C   0  0  0  0  0  0  0  0  0  0  0  0
    9.1069   -9.9435    0.0000 C   0  0  0  0  0  0  0  0  0  0  0  0
    8.3857  -10.3441    0.0000 C   0  0  0  0  0  0  0  0  0  0  0  0
    6.2767   -8.2464    0.0000 H   0  0  0  0  0  0  0  0  0  0  0  0
    6.9433  -11.1453    0.0000 O   0  0  0  0  0  0  0  0  0  0  0  0
    6.9843   -8.6707    0.0000 O   0  0  0  0  0  0  0  0  0  0  0  0
    6.2631   -9.0713    0.0000 C   0  0  0  0  0  0  0  0  0  0  0  0
    5.5555   -8.6470    0.0000 C   0  0  0  0  0  0  0  0  0  0  0  0
    4.8343   -9.0476    0.0000 C   0  0  0  0  0  0  0  0  0  0  0  0
    4.8206   -9.8725    0.0000 C   0  0  0  0  0  0  0  0  0  0  0  0
    5.5282  -10.2968    0.0000 C   0  0  0  0  0  0  0  0  0  0  0  0
    6.2494   -9.8962    0.0000 C   0  0  0  0  0  0  0  0  0  0  0  0
    6.9569  -10.3205    0.0000 C   0  0  0  0  0  0  0  0  0  0  0  0
    7.6781   -9.9198    0.0000 C   0  0  0  0  0  0  0  0  0  0  0  0
    7.6918   -9.0950    0.0000 C   0  0  0  0  0  0  0  0  0  0  0  0
 27 12  1  0  0  0  0
 32 21  1  0  0  0  0
 18 13  1  0  0  0  0
 19 15  1  0  0  0  0
 15 14  1  0  0  0  0
 21 16  2  0  0  0  0
 17 16  1  0  0  0  0
 18 17  2  0  0  0  0
 19 18  1  0  0  0  0
 20 19  2  0  0  0  0
 21 20  1  0  0  0  0
  2 26  1  0  0  0  0
  1  2  1  0  0  0  0
  2  3  1  0  0  0  0
 31 23  2  0  0  0  0
 33 24  1  0  0  0  0
 25 24  1  0  0  0  0
 30 25  2  0  0  0  0
 26 25  1  0  0  0  0
 27 26  2  0  0  0  0
 28 27  1  0  0  0  0
 29 28  2  0  0  0  0
 30 29  1  0  0  0  0
 31 30  1  0  0  0  0
 32 31  1  0  0  0  0
 33 32  2  0  0  0  0
  3  4  1  0  0  0  0
  4  5  1  0  0  0  0
  5  6  1  0  0  0  0
  1  6  1  0  0  0  0
  7  8  1  0  0  0  0
  6  7  1  1  0  0  0
  5  9  1  6  0  0  0
  4 10  1  1  0  0  0
  3 11  1  6  0  0  0
  2 22  1  6  0  0  0
M  END
>  <cdx:fragmentId>
5

$$$$
