4485.cdx
  Mrv1902 05222410272D          

 25 26  0  0  0  0            999 V2000
    6.4812  -10.3086    0.0000 C   0  0  0  0  0  0  0  0  0  0  0  0
    6.4812   -9.4836    0.0000 C   0  0  0  0  0  0  0  0  0  0  0  0
    7.1956   -9.0711    0.0000 C   0  0  0  0  0  0  0  0  0  0  0  0
    7.9101   -9.4836    0.0000 C   0  0  0  0  0  0  0  0  0  0  0  0
    7.9101  -10.3086    0.0000 C   0  0  0  0  0  0  0  0  0  0  0  0
    7.1956  -10.7211    0.0000 N   0  0  0  0  0  0  0  0  0  0  0  0
    5.7667   -9.0711    0.0000 C   0  0  0  0  0  0  0  0  0  0  0  0
    5.7667   -8.2461    0.0000 O   0  0  0  0  0  0  0  0  0  0  0  0
    5.0522   -9.4836    0.0000 O   0  0  0  0  0  0  0  0  0  0  0  0
    8.6246   -9.0711    0.0000 C   0  0  0  0  0  0  0  0  0  0  0  0
    8.6246   -8.2461    0.0000 O   0  0  0  0  0  0  0  0  0  0  0  0
    9.3391   -9.4836    0.0000 O   0  0  0  0  0  0  0  0  0  0  0  0
    8.6246  -10.7211    0.0000 C   0  0  0  0  0  0  0  0  0  0  0  0
    5.7667  -10.7211    0.0000 C   0  0  0  0  0  0  0  0  0  0  0  0
    4.3378   -9.0711    0.0000 C   0  0  0  0  0  0  0  0  0  0  0  0
   10.0535   -9.0711    0.0000 C   0  0  0  0  0  0  0  0  0  0  0  0
    8.6785   -6.5128    0.0000 O   0  5  0  0  0  0  0  0  0  0  0  0
    9.3689   -7.7639    0.0000 O   0  0  0  0  0  0  0  0  0  0  0  0
    8.6625   -7.3377    0.0000 N   0  3  0  0  0  0  0  0  0  0  0  0
    6.4698   -7.8052    0.0000 C   0  0  0  0  0  0  0  0  0  0  0  0
    6.4698   -6.9802    0.0000 C   0  0  0  0  0  0  0  0  0  0  0  0
    7.1843   -6.5677    0.0000 C   0  0  0  0  0  0  0  0  0  0  0  0
    7.8987   -6.9802    0.0000 C   0  0  0  0  0  0  0  0  0  0  0  0
    7.8987   -7.8052    0.0000 C   0  0  0  0  0  0  0  0  0  0  0  0
    7.1843   -8.2177    0.0000 C   0  0  0  0  0  0  0  0  0  0  0  0
 24 19  1  0  0  0  0
 19 17  1  0  0  0  0
 19 18  2  0  0  0  0
 25 20  2  0  0  0  0
 21 20  1  0  0  0  0
 22 21  2  0  0  0  0
 23 22  1  0  0  0  0
 24 23  2  0  0  0  0
 25 24  1  0  0  0  0
  1  2  2  0  0  0  0
  2  3  1  0  0  0  0
  3  4  1  0  0  0  0
  4  5  2  0  0  0  0
  5  6  1  0  0  0  0
  1  6  1  0  0  0  0
  7  8  2  0  0  0  0
  7  9  1  0  0  0  0
  2  7  1  0  0  0  0
 10 11  2  0  0  0  0
 10 12  1  0  0  0  0
  4 10  1  0  0  0  0
  3 25  1  0  0  0  0
  5 13  1  0  0  0  0
  1 14  1  0  0  0  0
  9 15  1  0  0  0  0
 12 16  1  0  0  0  0
M  CHG  2  17  -1  19   1
M  END
>  <cdx:fragmentId>
5

$$$$
