4487.cdx
  Mrv1902 05222410282D          

 23 24  0  0  0  0            999 V2000
    4.6508   -6.0362    0.0000 C   0  0  0  0  0  0  0  0  0  0  0  0
    4.6508   -6.8613    0.0000 C   0  0  0  0  0  0  0  0  0  0  0  0
    5.3652   -7.2738    0.0000 C   0  0  0  0  0  0  0  0  0  0  0  0
    6.0797   -6.8613    0.0000 C   0  0  0  0  0  0  0  0  0  0  0  0
    6.0797   -6.0362    0.0000 C   0  0  0  0  0  0  0  0  0  0  0  0
    5.3652   -5.6238    0.0000 C   0  0  0  0  0  0  0  0  0  0  0  0
    3.9363   -5.6238    0.0000 O   0  0  0  0  0  0  0  0  0  0  0  0
    6.7942   -7.2738    0.0000 C   0  0  0  0  0  0  0  0  0  0  0  0
    7.5087   -6.8613    0.0000 O   0  0  0  0  0  0  0  0  0  0  0  0
    8.2231   -7.2738    0.0000 C   0  0  0  0  0  0  0  0  0  0  0  0
    6.7942   -8.0987    0.0000 O   0  0  0  0  0  0  0  0  0  0  0  0
    8.2231   -8.0987    0.0000 C   0  0  0  0  0  0  0  0  0  0  0  0
    8.9376   -8.5113    0.0000 C   0  0  0  0  0  0  0  0  0  0  0  0
    9.6521   -8.0987    0.0000 C   0  0  0  0  0  0  0  0  0  0  0  0
    9.6521   -7.2738    0.0000 C   0  0  0  0  0  0  0  0  0  0  0  0
    8.9376   -6.8613    0.0000 C   0  0  0  0  0  0  0  0  0  0  0  0
    8.9376   -9.3362    0.0000 O   0  0  0  0  0  0  0  0  0  0  0  0
   10.3665   -6.8613    0.0000 O   0  0  0  0  0  0  0  0  0  0  0  0
    8.9376   -6.0362    0.0000 C   0  0  0  0  0  0  0  0  0  0  0  0
    9.6521   -5.6238    0.0000 C   0  0  0  0  0  0  0  0  0  0  0  0
    9.6521   -4.7988    0.0000 O   0  0  0  0  0  0  0  0  0  0  0  0
   10.3665   -6.0362    0.0000 O   0  0  0  0  0  0  0  0  0  0  0  0
   10.3665   -4.3862    0.0000 C   0  0  0  0  0  0  0  0  0  0  0  0
  1  2  2  0  0  0  0
  2  3  1  0  0  0  0
  3  4  2  0  0  0  0
  4  5  1  0  0  0  0
  5  6  2  0  0  0  0
  6  1  1  0  0  0  0
  1  7  1  0  0  0  0
  4  8  1  0  0  0  0
  8  9  1  0  0  0  0
  9 10  1  0  0  0  0
  8 11  2  0  0  0  0
 10 12  2  0  0  0  0
 12 13  1  0  0  0  0
 13 14  2  0  0  0  0
 14 15  1  0  0  0  0
 15 16  2  0  0  0  0
 16 10  1  0  0  0  0
 13 17  1  0  0  0  0
 15 18  1  0  0  0  0
 16 19  1  0  0  0  0
 19 20  1  0  0  0  0
 20 21  1  0  0  0  0
 20 22  2  0  0  0  0
 21 23  1  0  0  0  0
M  END
>  <cdx:fragmentId>
5

$$$$
