448864.cdx
  Mrv1902 05222410212D          

 26 25  0  0  0  0            999 V2000
   11.8964   -9.3528    0.0000 C   0  0  0  0  0  0  0  0  0  0  0  0
   11.1819   -9.7653    0.0000 C   0  0  0  0  0  0  0  0  0  0  0  0
   10.4675   -9.3528    0.0000 C   0  0  0  0  0  0  0  0  0  0  0  0
    9.7530   -9.7653    0.0000 C   0  0  0  0  0  0  0  0  0  0  0  0
    9.0385   -9.3528    0.0000 C   0  0  0  0  0  0  0  0  0  0  0  0
    8.3240   -9.7653    0.0000 C   0  0  0  0  0  0  0  0  0  0  0  0
    7.6096   -9.3528    0.0000 C   0  0  0  0  0  0  0  0  0  0  0  0
    6.8951   -9.7653    0.0000 C   0  0  0  0  0  0  0  0  0  0  0  0
   11.8964   -8.5278    0.0000 O   0  0  0  0  0  0  0  0  0  0  0  0
   12.6109   -9.7653    0.0000 O   0  0  0  0  0  0  0  0  0  0  0  0
   13.3253   -9.3528    0.0000 C   0  0  0  0  0  0  0  0  0  0  0  0
   14.0398   -9.7653    0.0000 C   0  0  0  0  0  0  0  0  0  0  0  0
   14.7543   -9.3528    0.0000 C   0  0  0  0  0  0  0  0  0  0  0  0
   15.4688   -9.7653    0.0000 C   0  0  0  0  0  0  0  0  0  0  0  0
   16.1832   -9.3528    0.0000 C   0  0  0  0  0  0  0  0  0  0  0  0
   16.8977   -9.7653    0.0000 C   0  0  0  0  0  0  0  0  0  0  0  0
   17.6122   -9.3528    0.0000 C   0  0  0  0  0  0  0  0  0  0  0  0
   18.3266   -9.7653    0.0000 C   0  0  0  0  0  0  0  0  0  0  0  0
   19.0411   -9.3528    0.0000 C   0  0  0  0  0  0  0  0  0  0  0  0
   19.7556   -9.7653    0.0000 C   0  0  0  0  0  0  0  0  0  0  0  0
   20.4701   -9.3528    0.0000 C   0  0  0  0  0  0  0  0  0  0  0  0
   21.1845   -9.7653    0.0000 C   0  0  0  0  0  0  0  0  0  0  0  0
   21.8990   -9.3528    0.0000 C   0  0  0  0  0  0  0  0  0  0  0  0
   22.6135   -9.7653    0.0000 C   0  0  0  0  0  0  0  0  0  0  0  0
   23.3279   -9.3528    0.0000 C   0  0  0  0  0  0  0  0  0  0  0  0
   24.0424   -9.7653    0.0000 C   0  0  0  0  0  0  0  0  0  0  0  0
  1  2  1  0  0  0  0
  2  3  1  0  0  0  0
  3  4  1  0  0  0  0
  4  5  1  0  0  0  0
  5  6  1  0  0  0  0
  6  7  1  0  0  0  0
  7  8  1  0  0  0  0
  1  9  2  0  0  0  0
  1 10  1  0  0  0  0
 11 12  1  0  0  0  0
 12 13  1  0  0  0  0
 13 14  1  0  0  0  0
 14 15  1  0  0  0  0
 15 16  1  0  0  0  0
 16 17  1  0  0  0  0
 17 18  1  0  0  0  0
 18 19  1  0  0  0  0
 19 20  1  0  0  0  0
 20 21  1  0  0  0  0
 21 22  1  0  0  0  0
 22 23  1  0  0  0  0
 23 24  1  0  0  0  0
 24 25  1  0  0  0  0
 25 26  1  0  0  0  0
 10 11  1  0  0  0  0
M  END
>  <cdx:groupId>
16315

>  <cdx:fragmentId>
16261

$$$$
