448939.cdx
  Mrv1902 05222410212D          

 70 78  0  0  0  0            999 V2000
    3.4282  -12.0801    0.0000 O   0  0  0  0  0  0  0  0  0  0  0  0
    4.1377  -12.5011    0.0000 C   0  0  2  0  0  0  0  0  0  0  0  0
    4.1278  -13.3261    0.0000 C   0  0  1  0  0  0  0  0  0  0  0  0
    3.4084  -13.7300    0.0000 C   0  0  2  0  0  0  0  0  0  0  0  0
    2.6989  -13.3089    0.0000 C   0  0  1  0  0  0  0  0  0  0  0  0
    2.7088  -12.4840    0.0000 C   0  0  1  0  0  0  0  0  0  0  0  0
    4.8372  -13.7471    0.0000 O   0  0  0  0  0  0  0  0  0  0  0  0
    3.3985  -14.5549    0.0000 O   0  0  0  0  0  0  0  0  0  0  0  0
    1.9796  -13.7128    0.0000 O   0  0  0  0  0  0  0  0  0  0  0  0
    1.9993  -12.0630    0.0000 C   0  0  0  0  0  0  0  0  0  0  0  0
    4.8570  -12.0972    0.0000 O   0  0  0  0  0  0  0  0  0  0  0  0
    5.5962  -10.0434    0.0000 O   0  0  0  0  0  0  0  0  0  0  0  0
    5.5863  -10.8684    0.0000 C   0  0  2  0  0  0  0  0  0  0  0  0
    4.8669  -11.2723    0.0000 C   0  0  1  0  0  0  0  0  0  0  0  0
    4.1574  -10.8512    0.0000 C   0  0  2  0  0  0  0  0  0  0  0  0
    4.1673  -10.0263    0.0000 C   0  0  1  0  0  0  0  0  0  0  0  0
    4.8867   -9.6224    0.0000 C   0  0  0  0  0  0  0  0  0  0  0  0
    3.4579   -9.6053    0.0000 O   0  0  0  0  0  0  0  0  0  0  0  0
    3.4381  -11.2551    0.0000 O   0  0  0  0  0  0  0  0  0  0  0  0
    6.2958  -11.2894    0.0000 O   0  0  0  0  0  0  0  0  0  0  0  0
    9.1536   -9.6394    0.0000 C   0  0  2  0  0  0  0  0  0  0  0  0
    8.4392   -9.2269    0.0000 C   0  0  0  0  0  0  0  0  0  0  0  0
    8.4392  -10.0519    0.0000 C   0  0  1  0  0  0  0  0  0  0  0  0
    7.7247   -9.6394    0.0000 C   0  0  0  0  0  0  0  0  0  0  0  0
    7.0102  -10.0519    0.0000 C   0  0  0  0  0  0  0  0  0  0  0  0
    7.0102  -10.8769    0.0000 C   0  0  1  0  0  0  0  0  0  0  0  0
    7.7247  -11.2894    0.0000 C   0  0  0  0  0  0  0  0  0  0  0  0
    8.4392  -10.8769    0.0000 C   0  0  2  0  0  0  0  0  0  0  0  0
    9.1536  -11.2894    0.0000 C   0  0  2  0  0  0  0  0  0  0  0  0
    9.8681  -10.8769    0.0000 C   0  0  0  0  0  0  0  0  0  0  0  0
    9.8681  -10.0519    0.0000 C   0  0  1  0  0  0  0  0  0  0  0  0
   10.5826   -9.6394    0.0000 C   0  0  2  0  0  0  0  0  0  0  0  0
   11.3672   -9.8944    0.0000 C   0  0  0  0  0  0  0  0  0  0  0  0
   11.8521   -9.2269    0.0000 C   0  0  1  0  0  0  0  0  0  0  0  0
   11.3672   -8.5595    0.0000 C   0  0  1  0  0  0  0  0  0  0  0  0
   10.5826   -8.8144    0.0000 C   0  0  1  0  0  0  0  0  0  0  0  0
    9.8681   -8.4019    0.0000 C   0  0  0  0  0  0  0  0  0  0  0  0
    9.1536   -8.8144    0.0000 C   0  0  0  0  0  0  0  0  0  0  0  0
   10.5826   -7.9894    0.0000 C   0  0  0  0  0  0  0  0  0  0  0  0
   10.5826  -10.4644    0.0000 C   0  0  0  0  0  0  0  0  0  0  0  0
    8.1372  -12.0039    0.0000 C   0  0  0  0  0  0  0  0  0  0  0  0
    7.3122  -12.0039    0.0000 C   0  0  0  0  0  0  0  0  0  0  0  0
   12.1742   -7.1618    0.0000 O   0  0  0  0  0  0  0  0  0  0  0  0
   11.6221   -7.7749    0.0000 C   0  0  2  0  0  0  0  0  0  0  0  0
   10.8685   -7.4393    0.0000 C   0  0  0  0  0  0  0  0  0  0  0  0
   10.9547   -6.6188    0.0000 C   0  0  0  0  0  0  0  0  0  0  0  0
   11.7617   -6.4473    0.0000 C   0  0  1  0  0  0  0  0  0  0  0  0
   12.4190   -7.9884    0.0000 C   0  0  0  0  0  0  0  0  0  0  0  0
   12.9121   -5.5646    0.0000 C   0  0  0  0  0  0  0  0  0  0  0  0
   12.0972   -5.6936    0.0000 C   0  0  0  0  0  0  0  0  0  0  0  0
   11.6123   -5.0262    0.0000 C   0  0  0  0  0  0  0  0  0  0  0  0
   12.4328   -4.9399    0.0000 O   0  0  0  0  0  0  0  0  0  0  0  0
   12.6771   -9.2269    0.0000 O   0  0  0  0  0  0  0  0  0  0  0  0
    9.1536  -12.1144    0.0000 O   0  0  0  0  0  0  0  0  0  0  0  0
    8.4392  -11.7019    0.0000 H   0  0  0  0  0  0  0  0  0  0  0  0
    9.8681   -9.2269    0.0000 H   0  0  0  0  0  0  0  0  0  0  0  0
   12.1820   -8.4304    0.0000 H   0  0  0  0  0  0  0  0  0  0  0  0
   12.5855   -6.4041    0.0000 H   0  0  0  0  0  0  0  0  0  0  0  0
    1.2800  -12.4669    0.0000 O   0  0  0  0  0  0  0  0  0  0  0  0
   11.9479   -4.2725    0.0000 C   0  0  2  0  0  0  0  0  0  0  0  0
   12.2834   -3.5188    0.0000 O   0  0  0  0  0  0  0  0  0  0  0  0
   11.7985   -2.8514    0.0000 C   0  0  1  0  0  0  0  0  0  0  0  0
   10.9780   -2.9376    0.0000 C   0  0  2  0  0  0  0  0  0  0  0  0
   10.6425   -3.6913    0.0000 C   0  0  1  0  0  0  0  0  0  0  0  0
   11.1274   -4.3587    0.0000 C   0  0  1  0  0  0  0  0  0  0  0  0
   12.1341   -2.0977    0.0000 C   0  0  0  0  0  0  0  0  0  0  0  0
    9.8220   -3.7775    0.0000 O   0  0  0  0  0  0  0  0  0  0  0  0
   11.6491   -1.4303    0.0000 O   0  0  0  0  0  0  0  0  0  0  0  0
   10.4931   -2.2702    0.0000 O   0  0  0  0  0  0  0  0  0  0  0  0
   10.7918   -5.1124    0.0000 O   0  0  0  0  0  0  0  0  0  0  0  0
  1  2  1  0  0  0  0
  2  3  1  0  0  0  0
  3  4  1  0  0  0  0
  4  5  1  0  0  0  0
  5  6  1  0  0  0  0
  1  6  1  0  0  0  0
  3  7  1  6  0  0  0
  4  8  1  1  0  0  0
  5  9  1  6  0  0  0
  6 10  1  1  0  0  0
 12 13  1  0  0  0  0
 13 14  1  0  0  0  0
 14 15  1  0  0  0  0
 15 16  1  0  0  0  0
 16 17  1  0  0  0  0
 12 17  1  0  0  0  0
 16 18  1  6  0  0  0
 15 19  1  1  0  0  0
 21 22  1  1  0  0  0
 23 22  1  1  0  0  0
 23 24  1  0  0  0  0
 24 25  1  0  0  0  0
 25 26  1  0  0  0  0
 26 27  1  0  0  0  0
 27 28  1  0  0  0  0
 28 29  1  0  0  0  0
 29 30  1  0  0  0  0
 30 31  1  0  0  0  0
 31 32  1  0  0  0  0
 32 33  1  0  0  0  0
 33 34  1  0  0  0  0
 34 35  1  0  0  0  0
 35 36  1  0  0  0  0
 36 37  1  0  0  0  0
 37 38  1  0  0  0  0
 21 38  1  0  0  0  0
 21 31  1  0  0  0  0
 32 36  1  0  0  0  0
 23 28  1  0  0  0  0
 21 23  1  0  0  0  0
 36 39  1  1  0  0  0
 32 40  1  6  0  0  0
 27 41  1  0  0  0  0
 27 42  1  0  0  0  0
 43 44  1  0  0  0  0
 44 45  1  0  0  0  0
 45 46  1  0  0  0  0
 46 47  1  0  0  0  0
 43 47  1  0  0  0  0
 44 48  1  6  0  0  0
 49 50  1  0  0  0  0
 50 51  1  0  0  0  0
 50 52  1  0  0  0  0
 47 50  1  0  0  0  0
 35 44  1  0  0  0  0
 34 53  1  1  0  0  0
 29 54  1  6  0  0  0
 26 20  1  1  0  0  0
 13 20  1  1  0  0  0
 14 11  1  6  0  0  0
  2 11  1  1  0  0  0
 28 55  1  6  0  0  0
 31 56  1  1  0  0  0
 35 57  1  6  0  0  0
 47 58  1  6  0  0  0
 10 59  1  0  0  0  0
 60 52  1  1  0  0  0
 60 61  1  0  0  0  0
 61 62  1  0  0  0  0
 62 63  1  0  0  0  0
 63 64  1  0  0  0  0
 64 65  1  0  0  0  0
 65 60  1  0  0  0  0
 62 66  1  1  0  0  0
 64 67  1  1  0  0  0
 66 68  1  0  0  0  0
 63 69  1  6  0  0  0
 65 70  1  6  0  0  0
M  END
>  <cdx:fragmentId>
177

$$$$
