448945.cdx
  Mrv1902 05222410262D          

 89 97  0  0  0  0            999 V2000
   11.2561  -13.6849    0.0000 O   0  0  0  0  0  0  0  0  0  0  0  0
   11.6788  -12.9764    0.0000 C   0  0  2  0  0  0  0  0  0  0  0  0
   12.5037  -12.9882    0.0000 C   0  0  2  0  0  0  0  0  0  0  0  0
   12.9059  -13.7085    0.0000 C   0  0  1  0  0  0  0  0  0  0  0  0
   12.4832  -14.4170    0.0000 C   0  0  1  0  0  0  0  0  0  0  0  0
   11.6583  -14.4052    0.0000 C   0  0  2  0  0  0  0  0  0  0  0  0
   12.9264  -12.2797    0.0000 O   0  0  0  0  0  0  0  0  0  0  0  0
   13.7308  -13.7204    0.0000 O   0  0  0  0  0  0  0  0  0  0  0  0
   12.8854  -15.1373    0.0000 O   0  0  0  0  0  0  0  0  0  0  0  0
   11.2356  -15.1137    0.0000 C   0  0  0  0  0  0  0  0  0  0  0  0
   11.2766  -12.2561    0.0000 O   0  0  0  0  0  0  0  0  0  0  0  0
   12.0092  -10.2000    0.0000 O   0  0  0  0  0  0  0  0  0  0  0  0
   12.0019  -11.0249    0.0000 C   0  0  2  0  0  0  0  0  0  0  0  0
   11.2838  -11.4311    0.0000 C   0  0  1  0  0  0  0  0  0  0  0  0
   10.5730  -11.0123    0.0000 C   0  0  2  0  0  0  0  0  0  0  0  0
   10.5803  -10.1873    0.0000 C   0  0  2  0  0  0  0  0  0  0  0  0
   11.2984   -9.7812    0.0000 C   0  0  0  0  0  0  0  0  0  0  0  0
   12.7127  -11.4437    0.0000 O   0  0  0  0  0  0  0  0  0  0  0  0
   17.0140   -9.8316    0.0000 C   0  0  1  0  0  0  0  0  0  0  0  0
   16.2959  -10.2378    0.0000 C   0  0  2  0  0  0  0  0  0  0  0  0
   16.2886  -11.0628    0.0000 C   0  0  0  0  0  0  0  0  0  0  0  0
   15.5705  -11.4689    0.0000 C   0  0  0  0  0  0  0  0  0  0  0  0
   14.8597  -11.0502    0.0000 C   0  0  1  0  0  0  0  0  0  0  0  0
   14.1416  -11.4563    0.0000 C   0  0  0  0  0  0  0  0  0  0  0  0
   13.4308  -11.0375    0.0000 C   0  0  2  0  0  0  0  0  0  0  0  0
   13.4381  -10.2126    0.0000 C   0  0  0  0  0  0  0  0  0  0  0  0
   14.1562   -9.8064    0.0000 C   0  0  0  0  0  0  0  0  0  0  0  0
   14.8670  -10.2252    0.0000 C   0  0  2  0  0  0  0  0  0  0  0  0
   15.5851   -9.8190    0.0000 C   0  0  1  0  0  0  0  0  0  0  0  0
   15.5924   -8.9940    0.0000 C   0  0  0  0  0  0  0  0  0  0  0  0
   16.3104   -8.5879    0.0000 C   0  0  0  0  0  0  0  0  0  0  0  0
   17.0212   -9.0067    0.0000 C   0  0  2  0  0  0  0  0  0  0  0  0
   17.8218   -8.7655    0.0000 C   0  0  2  0  0  0  0  0  0  0  0  0
   14.8743   -9.4002    0.0000 C   0  0  0  0  0  0  0  0  0  0  0  0
   14.5478  -12.1744    0.0000 C   0  0  0  0  0  0  0  0  0  0  0  0
   13.7228  -12.1671    0.0000 C   0  0  0  0  0  0  0  0  0  0  0  0
   16.3032   -9.4128    0.0000 C   0  0  0  0  0  0  0  0  0  0  0  0
    9.8695   -9.7686    0.0000 O   0  0  0  0  0  0  0  0  0  0  0  0
   14.8524  -11.8751    0.0000 H   0  0  0  0  0  0  0  0  0  0  0  0
   15.5778  -10.6440    0.0000 H   0  0  0  0  0  0  0  0  0  0  0  0
   17.0285   -8.1817    0.0000 H   0  0  0  0  0  0  0  0  0  0  0  0
    6.9251  -11.4454    0.0000 O   0  0  0  0  0  0  0  0  0  0  0  0
    6.9332   -9.7954    0.0000 O   0  0  0  0  0  0  0  0  0  0  0  0
    7.6537   -8.5614    0.0000 O   0  0  0  0  0  0  0  0  0  0  0  0
    8.3662   -8.9774    0.0000 C   0  0  0  0  0  0  0  0  0  0  0  0
    8.3419  -13.9274    0.0000 O   0  0  0  0  0  0  0  0  0  0  0  0
    6.9090  -14.7453    0.0000 O   0  0  0  0  0  0  0  0  0  0  0  0
    5.4841  -13.9134    0.0000 O   0  0  0  0  0  0  0  0  0  0  0  0
    6.2046  -12.6794    0.0000 C   0  0  0  0  0  0  0  0  0  0  0  0
    6.2006  -13.5044    0.0000 C   0  0  2  0  0  0  0  0  0  0  0  0
    6.9130  -13.9204    0.0000 C   0  0  1  0  0  0  0  0  0  0  0  0
    7.6295  -13.5114    0.0000 C   0  0  2  0  0  0  0  0  0  0  0  0
    7.6335  -12.6864    0.0000 C   0  0  1  0  0  0  0  0  0  0  0  0
    6.9211  -12.2704    0.0000 O   0  0  0  0  0  0  0  0  0  0  0  0
    8.3500  -12.2774    0.0000 O   0  0  0  0  0  0  0  0  0  0  0  0
    8.3621   -9.8024    0.0000 C   0  0  2  0  0  0  0  0  0  0  0  0
    7.6457  -10.2114    0.0000 C   0  0  2  0  0  0  0  0  0  0  0  0
    7.6416  -11.0364    0.0000 C   0  0  1  0  0  0  0  0  0  0  0  0
    8.3541  -11.4524    0.0000 C   0  0  2  0  0  0  0  0  0  0  0  0
    9.0705  -11.0434    0.0000 C   0  0  1  0  0  0  0  0  0  0  0  0
    9.0746  -10.2184    0.0000 O   0  0  0  0  0  0  0  0  0  0  0  0
    9.8542  -11.5010    0.0000 O   0  0  0  0  0  0  0  0  0  0  0  0
   17.7963  -10.0935    0.0000 C   0  0  0  0  0  0  0  0  0  0  0  0
   18.2871   -9.4303    0.0000 C   0  0  0  0  0  0  0  0  0  0  0  0
   19.1120   -9.4413    0.0000 O   0  0  0  0  0  0  0  0  0  0  0  0
   17.0067  -10.6566    0.0000 C   0  0  0  0  0  0  0  0  0  0  0  0
   17.7175  -11.0754    0.0000 O   0  0  0  0  0  0  0  0  0  0  0  0
   18.0921   -7.9860    0.0000 C   0  0  1  0  0  0  0  0  0  0  0  0
   17.3777   -7.5735    0.0000 O   0  0  0  0  0  0  0  0  0  0  0  0
   18.9023   -7.8304    0.0000 C   0  0  0  0  0  0  0  0  0  0  0  0
   19.1726   -7.0509    0.0000 C   0  0  2  0  0  0  0  0  0  0  0  0
   19.9828   -6.8953    0.0000 C   0  0  0  0  0  0  0  0  0  0  0  0
   20.2531   -6.1158    0.0000 C   0  0  0  0  0  0  0  0  0  0  0  0
   21.0633   -5.9602    0.0000 C   0  0  0  0  0  0  0  0  0  0  0  0
   19.7132   -5.4920    0.0000 C   0  0  0  0  0  0  0  0  0  0  0  0
   17.8786   -7.1891    0.0000 C   0  0  0  0  0  0  0  0  0  0  0  0
   18.6224   -8.5243    0.0000 H   0  0  0  0  0  0  0  0  0  0  0  0
   18.6327   -6.4271    0.0000 O   0  0  0  0  0  0  0  0  0  0  0  0
   18.6327   -5.6021    0.0000 C   0  0  2  0  0  0  0  0  0  0  0  0
   19.3472   -5.1896    0.0000 O   0  0  0  0  0  0  0  0  0  0  0  0
   19.3472   -4.3646    0.0000 C   0  0  1  0  0  0  0  0  0  0  0  0
   18.6327   -3.9521    0.0000 C   0  0  2  0  0  0  0  0  0  0  0  0
   17.9183   -4.3646    0.0000 C   0  0  1  0  0  0  0  0  0  0  0  0
   17.9183   -5.1896    0.0000 C   0  0  1  0  0  0  0  0  0  0  0  0
   20.0617   -3.9521    0.0000 C   0  0  0  0  0  0  0  0  0  0  0  0
   17.2038   -3.9521    0.0000 O   0  0  0  0  0  0  0  0  0  0  0  0
   17.2038   -5.6021    0.0000 O   0  0  0  0  0  0  0  0  0  0  0  0
   18.6327   -3.1271    0.0000 O   0  0  0  0  0  0  0  0  0  0  0  0
   20.0617   -3.1271    0.0000 O   0  0  0  0  0  0  0  0  0  0  0  0
 60 62  1  1  0  0  0
 58 42  1  1  0  0  0
 57 43  1  6  0  0  0
 56 45  1  1  0  0  0
 45 44  1  0  0  0  0
 59 55  1  6  0  0  0
 53 55  1  1  0  0  0
 52 46  1  6  0  0  0
 51 47  1  1  0  0  0
 50 48  1  6  0  0  0
 54 49  1  0  0  0  0
 50 49  1  0  0  0  0
 51 50  1  0  0  0  0
 52 51  1  0  0  0  0
 53 52  1  0  0  0  0
 54 53  1  0  0  0  0
 61 56  1  0  0  0  0
 57 56  1  0  0  0  0
 58 57  1  0  0  0  0
 59 58  1  0  0  0  0
 60 59  1  0  0  0  0
  1  2  1  0  0  0  0
  2  3  1  0  0  0  0
  3  4  1  0  0  0  0
  4  5  1  0  0  0  0
  5  6  1  0  0  0  0
  1  6  1  0  0  0  0
  3  7  1  1  0  0  0
  4  8  1  6  0  0  0
  5  9  1  6  0  0  0
  6 10  1  6  0  0  0
 12 13  1  0  0  0  0
 13 14  1  0  0  0  0
 14 15  1  0  0  0  0
 15 16  1  0  0  0  0
 16 17  1  0  0  0  0
 12 17  1  0  0  0  0
 19 20  1  0  0  0  0
 20 21  1  0  0  0  0
 21 22  1  0  0  0  0
 22 23  1  0  0  0  0
 23 24  1  0  0  0  0
 24 25  1  0  0  0  0
 25 26  1  0  0  0  0
 26 27  1  0  0  0  0
 27 28  1  0  0  0  0
 28 29  1  0  0  0  0
 29 30  1  0  0  0  0
 30 31  1  0  0  0  0
 31 32  1  0  0  0  0
 19 32  1  0  0  0  0
 20 29  1  0  0  0  0
 23 28  1  0  0  0  0
 28 34  1  1  0  0  0
 24 35  1  0  0  0  0
 24 36  1  0  0  0  0
 20 37  1  1  0  0  0
 25 18  1  1  0  0  0
 13 18  1  1  0  0  0
 16 38  1  1  0  0  0
 61 60  1  0  0  0  0
 14 11  1  6  0  0  0
  2 11  1  1  0  0  0
 23 39  1  6  0  0  0
 29 40  1  6  0  0  0
 32 41  1  1  0  0  0
 15 62  1  1  0  0  0
 19 63  1  0  0  0  0
 63 64  1  0  0  0  0
 33 64  1  0  0  0  0
 33 32  1  0  0  0  0
 64 65  2  0  0  0  0
 19 66  1  6  0  0  0
 66 67  1  0  0  0  0
 33 68  1  0  0  0  0
 68 69  1  1  0  0  0
 68 70  1  0  0  0  0
 70 71  1  0  0  0  0
 71 72  1  0  0  0  0
 72 73  2  0  0  0  0
 73 74  1  0  0  0  0
 73 75  1  0  0  0  0
 68 76  1  0  0  0  0
 33 77  1  6  0  0  0
 71 78  1  1  0  0  0
 79 78  1  1  0  0  0
 79 80  1  0  0  0  0
 80 81  1  0  0  0  0
 81 82  1  0  0  0  0
 82 83  1  0  0  0  0
 83 84  1  0  0  0  0
 84 79  1  0  0  0  0
 81 85  1  1  0  0  0
 83 86  1  1  0  0  0
 84 87  1  6  0  0  0
 82 88  1  6  0  0  0
 85 89  1  0  0  0  0
M  END
>  <cdx:fragmentId>
41

$$$$
