448929.cdx
  Mrv1902 05222410222D          

 73 82  0  0  0  0            999 V2000
    7.6362   -8.5663    0.0000 C   0  0  0  0  0  0  0  0  0  0  0  0
    7.6362   -9.3913    0.0000 C   0  0  1  0  0  0  0  0  0  0  0  0
    8.3506   -9.8038    0.0000 C   0  0  0  0  0  0  0  0  0  0  0  0
    9.0651   -9.3913    0.0000 C   0  0  1  0  0  0  0  0  0  0  0  0
    9.0651   -8.5663    0.0000 C   0  0  2  0  0  0  0  0  0  0  0  0
    8.3506   -8.1538    0.0000 C   0  0  0  0  0  0  0  0  0  0  0  0
    9.7796   -9.8038    0.0000 C   0  0  0  0  0  0  0  0  0  0  0  0
   10.4941   -9.3913    0.0000 C   0  0  0  0  0  0  0  0  0  0  0  0
   10.4941   -8.5663    0.0000 C   0  0  2  0  0  0  0  0  0  0  0  0
    9.7796   -8.1538    0.0000 C   0  0  2  0  0  0  0  0  0  0  0  0
   11.2085   -8.1538    0.0000 C   0  0  0  0  0  0  0  0  0  0  0  0
   11.2085   -7.3287    0.0000 C   0  0  0  0  0  0  0  0  0  0  0  0
   10.4941   -6.9162    0.0000 C   0  0  1  0  0  0  0  0  0  0  0  0
    9.7796   -7.3287    0.0000 C   0  0  1  0  0  0  0  0  0  0  0  0
    6.9217   -9.8038    0.0000 O   0  0  0  0  0  0  0  0  0  0  0  0
    9.0651   -7.7413    0.0000 C   0  0  0  0  0  0  0  0  0  0  0  0
   10.4941   -7.7413    0.0000 H   0  0  0  0  0  0  0  0  0  0  0  0
   10.4941   -6.0912    0.0000 O   0  0  0  0  0  0  0  0  0  0  0  0
    9.7796   -8.9788    0.0000 H   0  0  0  0  0  0  0  0  0  0  0  0
    9.0651   -6.9162    0.0000 O   0  0  0  0  0  0  0  0  0  0  0  0
    6.1954  -11.8728    0.0000 C   0  0  2  0  0  0  0  0  0  0  0  0
    6.9081  -12.2882    0.0000 C   0  0  2  0  0  0  0  0  0  0  0  0
    7.6243  -11.8787    0.0000 C   0  0  2  0  0  0  0  0  0  0  0  0
    7.6277  -11.0537    0.0000 C   0  0  0  0  0  0  0  0  0  0  0  0
    6.9150  -10.6383    0.0000 C   0  0  1  0  0  0  0  0  0  0  0  0
    6.1988  -11.0478    0.0000 O   0  0  0  0  0  0  0  0  0  0  0  0
    5.4792  -12.2823    0.0000 C   0  0  0  0  0  0  0  0  0  0  0  0
    6.9047  -13.1132    0.0000 O   0  0  0  0  0  0  0  0  0  0  0  0
    8.3370  -12.2942    0.0000 O   0  0  0  0  0  0  0  0  0  0  0  0
    6.1885  -13.5228    0.0000 C   0  0  2  0  0  0  0  0  0  0  0  0
    5.4758  -13.1073    0.0000 O   0  0  0  0  0  0  0  0  0  0  0  0
    4.7596  -13.5168    0.0000 C   0  0  1  0  0  0  0  0  0  0  0  0
    4.7562  -14.3418    0.0000 C   0  0  2  0  0  0  0  0  0  0  0  0
    5.4689  -14.7573    0.0000 C   0  0  1  0  0  0  0  0  0  0  0  0
    6.1851  -14.3478    0.0000 C   0  0  0  0  0  0  0  0  0  0  0  0
    4.0468  -13.1014    0.0000 C   0  0  0  0  0  0  0  0  0  0  0  0
    5.4655  -15.5823    0.0000 O   0  0  0  0  0  0  0  0  0  0  0  0
    4.0400  -14.7514    0.0000 O   0  0  0  0  0  0  0  0  0  0  0  0
    3.3262  -14.3377    0.0000 C   0  0  2  0  0  0  0  0  0  0  0  0
    3.3275  -13.5127    0.0000 O   0  0  0  0  0  0  0  0  0  0  0  0
    2.6137  -13.0990    0.0000 C   0  0  1  0  0  0  0  0  0  0  0  0
    1.8986  -13.5104    0.0000 C   0  0  2  0  0  0  0  0  0  0  0  0
    1.8972  -14.3354    0.0000 C   0  0  2  0  0  0  0  0  0  0  0  0
    2.6110  -14.7490    0.0000 C   0  0  1  0  0  0  0  0  0  0  0  0
    2.6151  -12.2740    0.0000 C   0  0  0  0  0  0  0  0  0  0  0  0
    1.1848  -13.0967    0.0000 O   0  0  0  0  0  0  0  0  0  0  0  0
    1.1821  -14.7467    0.0000 O   0  0  0  0  0  0  0  0  0  0  0  0
    9.0532  -11.8846    0.0000 C   0  0  0  0  0  0  0  0  0  0  0  0
    0.4683  -14.3330    0.0000 C   0  0  0  0  0  0  0  0  0  0  0  0
   10.0793   -5.3781    0.0000 C   0  0  0  0  0  0  0  0  0  0  0  0
   10.4896   -4.6623    0.0000 O   0  0  0  0  0  0  0  0  0  0  0  0
    9.2543   -5.3807    0.0000 C   0  0  0  0  0  0  0  0  0  0  0  0
    8.8396   -4.6675    0.0000 C   0  0  0  0  0  0  0  0  0  0  0  0
    8.0146   -4.6701    0.0000 C   0  0  0  0  0  0  0  0  0  0  0  0
    7.5999   -3.9569    0.0000 C   0  0  0  0  0  0  0  0  0  0  0  0
    6.7749   -3.9595    0.0000 C   0  0  0  0  0  0  0  0  0  0  0  0
    6.3646   -4.6752    0.0000 C   0  0  0  0  0  0  0  0  0  0  0  0
    6.7793   -5.3884    0.0000 C   0  0  0  0  0  0  0  0  0  0  0  0
    7.6043   -5.3858    0.0000 C   0  0  0  0  0  0  0  0  0  0  0  0
    8.2401   -6.9218    0.0000 C   0  0  0  0  0  0  0  0  0  0  0  0
    7.8228   -6.2101    0.0000 O   0  0  0  0  0  0  0  0  0  0  0  0
    7.8325   -7.6390    0.0000 C   0  0  0  0  0  0  0  0  0  0  0  0
    6.1782  -15.9977    0.0000 C   0  0  0  0  0  0  0  0  0  0  0  0
    9.0651  -10.2163    0.0000 H   0  0  0  0  0  0  0  0  0  0  0  0
    2.6097  -15.5740    0.0000 O   0  0  0  0  0  0  0  0  0  0  0  0
   11.9230   -8.5663    0.0000 C   0  0  0  0  0  0  0  0  0  0  0  0
   12.6375   -8.1537    0.0000 C   0  0  0  0  0  0  0  0  0  0  0  0
   12.6375   -7.3287    0.0000 C   0  0  0  0  0  0  0  0  0  0  0  0
   11.2085   -6.5038    0.0000 C   0  0  0  0  0  0  0  0  0  0  0  0
   12.6375   -6.5038    0.0000 C   0  0  2  0  0  0  0  0  0  0  0  0
   11.9230   -6.0912    0.0000 O   0  0  0  0  0  0  0  0  0  0  0  0
   13.3519   -6.0912    0.0000 C   0  0  0  0  0  0  0  0  0  0  0  0
   13.3100   -7.4250    0.0000 O   0  0  0  0  0  0  0  0  0  0  0  0
  1  2  1  0  0  0  0
  2  3  1  0  0  0  0
  3  4  1  0  0  0  0
  4  5  1  0  0  0  0
  5  6  1  0  0  0  0
  6  1  1  0  0  0  0
  4  7  1  0  0  0  0
  7  8  1  0  0  0  0
  8  9  1  0  0  0  0
  9 10  1  0  0  0  0
 10  5  1  0  0  0  0
  9 11  1  0  0  0  0
 11 12  1  0  0  0  0
 12 13  1  0  0  0  0
 13 14  1  0  0  0  0
 14 10  1  0  0  0  0
  2 15  1  1  0  0  0
  5 16  1  1  0  0  0
  9 17  1  1  0  0  0
 13 18  1  1  0  0  0
 10 19  1  6  0  0  0
 14 20  1  6  0  0  0
 21 22  1  0  0  0  0
 22 23  1  0  0  0  0
 23 24  1  0  0  0  0
 24 25  1  0  0  0  0
 25 26  1  0  0  0  0
 26 21  1  0  0  0  0
 21 27  1  1  0  0  0
 22 28  1  6  0  0  0
 23 29  1  6  0  0  0
 30 28  1  1  0  0  0
 30 31  1  0  0  0  0
 31 32  1  0  0  0  0
 32 33  1  0  0  0  0
 33 34  1  0  0  0  0
 34 35  1  0  0  0  0
 35 30  1  0  0  0  0
 32 36  1  1  0  0  0
 34 37  1  1  0  0  0
 33 38  1  6  0  0  0
 39 38  1  1  0  0  0
 39 40  1  0  0  0  0
 40 41  1  0  0  0  0
 41 42  1  0  0  0  0
 42 43  1  0  0  0  0
 43 44  1  0  0  0  0
 44 39  1  0  0  0  0
 41 45  1  1  0  0  0
 42 46  1  6  0  0  0
 43 47  1  6  0  0  0
 29 48  1  0  0  0  0
 47 49  1  0  0  0  0
 25 15  1  1  0  0  0
 18 50  1  0  0  0  0
 50 51  2  0  0  0  0
 50 52  1  0  0  0  0
 52 53  2  0  0  0  0
 53 54  1  0  0  0  0
 54 55  2  0  0  0  0
 55 56  1  0  0  0  0
 56 57  2  0  0  0  0
 57 58  1  0  0  0  0
 58 59  2  0  0  0  0
 59 54  1  0  0  0  0
 20 60  1  0  0  0  0
 60 61  2  0  0  0  0
 60 62  1  0  0  0  0
 37 63  1  0  0  0  0
  4 64  1  6  0  0  0
 44 65  1  6  0  0  0
 11 66  1  0  0  0  0
 66 67  1  0  0  0  0
 67 68  1  0  0  0  0
 12 68  1  0  0  0  0
 12 69  1  0  0  0  0
 68 70  1  0  0  0  0
 69 71  1  0  0  0  0
 70 71  1  0  0  0  0
 70 72  1  6  0  0  0
 70 73  1  0  0  0  0
 11 73  1  0  0  0  0
M  END
>  <cdx:fragmentId>
92

$$$$
