448931.cdx
  Mrv1902 05222410242D          

 85 94  0  0  0  0            999 V2000
    8.2412   -8.5938    0.0000 C   0  0  0  0  0  0  0  0  0  0  0  0
    8.2412   -9.4187    0.0000 C   0  0  1  0  0  0  0  0  0  0  0  0
    8.9556   -9.8312    0.0000 C   0  0  0  0  0  0  0  0  0  0  0  0
    9.6701   -9.4187    0.0000 C   0  0  1  0  0  0  0  0  0  0  0  0
    9.6701   -8.5938    0.0000 C   0  0  2  0  0  0  0  0  0  0  0  0
    8.9556   -8.1813    0.0000 C   0  0  0  0  0  0  0  0  0  0  0  0
   10.3846   -9.8312    0.0000 C   0  0  0  0  0  0  0  0  0  0  0  0
   11.0991   -9.4187    0.0000 C   0  0  0  0  0  0  0  0  0  0  0  0
   11.0991   -8.5938    0.0000 C   0  0  2  0  0  0  0  0  0  0  0  0
   10.3846   -8.1813    0.0000 C   0  0  2  0  0  0  0  0  0  0  0  0
   11.8135   -8.1813    0.0000 C   0  0  1  0  0  0  0  0  0  0  0  0
   11.8135   -7.3563    0.0000 C   0  0  0  0  0  0  0  0  0  0  0  0
   11.0991   -6.9438    0.0000 C   0  0  1  0  0  0  0  0  0  0  0  0
   10.3846   -7.3563    0.0000 C   0  0  1  0  0  0  0  0  0  0  0  0
    7.5267   -9.8312    0.0000 O   0  0  0  0  0  0  0  0  0  0  0  0
    9.6701   -7.7687    0.0000 C   0  0  0  0  0  0  0  0  0  0  0  0
   11.0991   -7.7687    0.0000 H   0  0  0  0  0  0  0  0  0  0  0  0
   11.8135   -9.0062    0.0000 O   0  0  0  0  0  0  0  0  0  0  0  0
   11.0991   -6.1188    0.0000 O   0  0  0  0  0  0  0  0  0  0  0  0
   10.3846   -9.0062    0.0000 H   0  0  0  0  0  0  0  0  0  0  0  0
    9.6701   -6.9437    0.0000 O   0  0  0  0  0  0  0  0  0  0  0  0
    6.8004  -11.9003    0.0000 C   0  0  2  0  0  0  0  0  0  0  0  0
    7.5131  -12.3157    0.0000 C   0  0  2  0  0  0  0  0  0  0  0  0
    8.2293  -11.9062    0.0000 C   0  0  2  0  0  0  0  0  0  0  0  0
    8.2327  -11.0812    0.0000 C   0  0  0  0  0  0  0  0  0  0  0  0
    7.5200  -10.6658    0.0000 C   0  0  1  0  0  0  0  0  0  0  0  0
    6.8038  -11.0753    0.0000 O   0  0  0  0  0  0  0  0  0  0  0  0
    6.0842  -12.3098    0.0000 C   0  0  0  0  0  0  0  0  0  0  0  0
    7.5097  -13.1407    0.0000 O   0  0  0  0  0  0  0  0  0  0  0  0
    8.9420  -12.3217    0.0000 O   0  0  0  0  0  0  0  0  0  0  0  0
    6.7935  -13.5503    0.0000 C   0  0  2  0  0  0  0  0  0  0  0  0
    6.0808  -13.1348    0.0000 O   0  0  0  0  0  0  0  0  0  0  0  0
    5.3646  -13.5443    0.0000 C   0  0  1  0  0  0  0  0  0  0  0  0
    5.3612  -14.3693    0.0000 C   0  0  2  0  0  0  0  0  0  0  0  0
    6.0739  -14.7848    0.0000 C   0  0  1  0  0  0  0  0  0  0  0  0
    6.7901  -14.3753    0.0000 C   0  0  0  0  0  0  0  0  0  0  0  0
    4.6518  -13.1289    0.0000 C   0  0  0  0  0  0  0  0  0  0  0  0
    6.0705  -15.6098    0.0000 O   0  0  0  0  0  0  0  0  0  0  0  0
    4.6450  -14.7789    0.0000 O   0  0  0  0  0  0  0  0  0  0  0  0
    3.9312  -14.3652    0.0000 C   0  0  2  0  0  0  0  0  0  0  0  0
    3.9325  -13.5402    0.0000 O   0  0  0  0  0  0  0  0  0  0  0  0
    3.2187  -13.1265    0.0000 C   0  0  1  0  0  0  0  0  0  0  0  0
    2.5036  -13.5379    0.0000 C   0  0  2  0  0  0  0  0  0  0  0  0
    2.5022  -14.3629    0.0000 C   0  0  2  0  0  0  0  0  0  0  0  0
    3.2160  -14.7765    0.0000 C   0  0  1  0  0  0  0  0  0  0  0  0
    3.2201  -12.3015    0.0000 C   0  0  0  0  0  0  0  0  0  0  0  0
    1.7898  -13.1242    0.0000 O   0  0  0  0  0  0  0  0  0  0  0  0
    1.7871  -14.7742    0.0000 O   0  0  0  0  0  0  0  0  0  0  0  0
    9.6582  -11.9121    0.0000 C   0  0  0  0  0  0  0  0  0  0  0  0
    1.0733  -14.3605    0.0000 C   0  0  0  0  0  0  0  0  0  0  0  0
    1.7912  -12.2992    0.0000 C   0  0  2  0  0  0  0  0  0  0  0  0
    2.5065  -11.8881    0.0000 O   0  0  0  0  0  0  0  0  0  0  0  0
    2.5081  -11.0631    0.0000 C   0  0  1  0  0  0  0  0  0  0  0  0
    1.7930  -10.6500    0.0000 C   0  0  2  0  0  0  0  0  0  0  0  0
    1.0782  -11.0619    0.0000 C   0  0  1  0  0  0  0  0  0  0  0  0
    1.0770  -11.8878    0.0000 C   0  0  1  0  0  0  0  0  0  0  0  0
    3.2231  -10.6515    0.0000 C   0  0  0  0  0  0  0  0  0  0  0  0
    0.3642  -10.6486    0.0000 O   0  0  0  0  0  0  0  0  0  0  0  0
    1.7935   -9.8250    0.0000 O   0  0  0  0  0  0  0  0  0  0  0  0
    0.3625  -12.3001    0.0000 O   0  0  0  0  0  0  0  0  0  0  0  0
   10.6843   -5.4056    0.0000 C   0  0  0  0  0  0  0  0  0  0  0  0
   11.0946   -4.6898    0.0000 O   0  0  0  0  0  0  0  0  0  0  0  0
    9.8593   -5.4082    0.0000 C   0  0  0  0  0  0  0  0  0  0  0  0
    9.4446   -4.6950    0.0000 C   0  0  0  0  0  0  0  0  0  0  0  0
    8.6196   -4.6976    0.0000 C   0  0  0  0  0  0  0  0  0  0  0  0
    8.2049   -3.9844    0.0000 C   0  0  0  0  0  0  0  0  0  0  0  0
    7.3799   -3.9870    0.0000 C   0  0  0  0  0  0  0  0  0  0  0  0
    6.9696   -4.7027    0.0000 C   0  0  0  0  0  0  0  0  0  0  0  0
    7.3843   -5.4159    0.0000 C   0  0  0  0  0  0  0  0  0  0  0  0
    8.2093   -5.4133    0.0000 C   0  0  0  0  0  0  0  0  0  0  0  0
    8.8451   -6.9493    0.0000 C   0  0  0  0  0  0  0  0  0  0  0  0
    8.4278   -6.2376    0.0000 O   0  0  0  0  0  0  0  0  0  0  0  0
    8.4375   -7.6665    0.0000 C   0  0  0  0  0  0  0  0  0  0  0  0
    6.7832  -16.0252    0.0000 C   0  0  0  0  0  0  0  0  0  0  0  0
    9.6701  -10.2437    0.0000 H   0  0  0  0  0  0  0  0  0  0  0  0
    3.2147  -15.6015    0.0000 O   0  0  0  0  0  0  0  0  0  0  0  0
    3.2240   -9.8265    0.0000 O   0  0  0  0  0  0  0  0  0  0  0  0
   12.5280   -8.5938    0.0000 C   0  0  0  0  0  0  0  0  0  0  0  0
   13.2425   -8.1812    0.0000 C   0  0  0  0  0  0  0  0  0  0  0  0
   13.2425   -7.3562    0.0000 C   0  0  0  0  0  0  0  0  0  0  0  0
   11.8135   -6.5313    0.0000 C   0  0  0  0  0  0  0  0  0  0  0  0
   13.2425   -6.5313    0.0000 C   0  0  1  0  0  0  0  0  0  0  0  0
   12.5280   -6.1188    0.0000 O   0  0  0  0  0  0  0  0  0  0  0  0
   13.9569   -6.9438    0.0000 O   0  0  0  0  0  0  0  0  0  0  0  0
   13.9569   -6.1187    0.0000 C   0  0  0  0  0  0  0  0  0  0  0  0
  1  2  1  0  0  0  0
  2  3  1  0  0  0  0
  3  4  1  0  0  0  0
  4  5  1  0  0  0  0
  5  6  1  0  0  0  0
  6  1  1  0  0  0  0
  4  7  1  0  0  0  0
  7  8  1  0  0  0  0
  8  9  1  0  0  0  0
  9 10  1  0  0  0  0
 10  5  1  0  0  0  0
  9 11  1  0  0  0  0
 11 12  1  0  0  0  0
 12 13  1  0  0  0  0
 13 14  1  0  0  0  0
 14 10  1  0  0  0  0
  2 15  1  1  0  0  0
  5 16  1  1  0  0  0
  9 17  1  1  0  0  0
 11 18  1  1  0  0  0
 13 19  1  1  0  0  0
 10 20  1  6  0  0  0
 14 21  1  6  0  0  0
 22 23  1  0  0  0  0
 23 24  1  0  0  0  0
 24 25  1  0  0  0  0
 25 26  1  0  0  0  0
 26 27  1  0  0  0  0
 27 22  1  0  0  0  0
 22 28  1  1  0  0  0
 23 29  1  6  0  0  0
 24 30  1  6  0  0  0
 31 29  1  1  0  0  0
 31 32  1  0  0  0  0
 32 33  1  0  0  0  0
 33 34  1  0  0  0  0
 34 35  1  0  0  0  0
 35 36  1  0  0  0  0
 36 31  1  0  0  0  0
 33 37  1  1  0  0  0
 35 38  1  1  0  0  0
 34 39  1  6  0  0  0
 40 39  1  1  0  0  0
 40 41  1  0  0  0  0
 41 42  1  0  0  0  0
 42 43  1  0  0  0  0
 43 44  1  0  0  0  0
 44 45  1  0  0  0  0
 45 40  1  0  0  0  0
 42 46  1  1  0  0  0
 43 47  1  6  0  0  0
 44 48  1  6  0  0  0
 30 49  1  0  0  0  0
 48 50  1  0  0  0  0
 26 15  1  1  0  0  0
 51 47  1  1  0  0  0
 51 52  1  0  0  0  0
 52 53  1  0  0  0  0
 53 54  1  0  0  0  0
 54 55  1  0  0  0  0
 55 56  1  0  0  0  0
 56 51  1  0  0  0  0
 53 57  1  1  0  0  0
 55 58  1  1  0  0  0
 54 59  1  6  0  0  0
 56 60  1  6  0  0  0
 19 61  1  0  0  0  0
 61 62  2  0  0  0  0
 61 63  1  0  0  0  0
 63 64  2  0  0  0  0
 64 65  1  0  0  0  0
 65 66  2  0  0  0  0
 66 67  1  0  0  0  0
 67 68  2  0  0  0  0
 68 69  1  0  0  0  0
 69 70  2  0  0  0  0
 70 65  1  0  0  0  0
 21 71  1  0  0  0  0
 71 72  2  0  0  0  0
 71 73  1  0  0  0  0
 38 74  1  0  0  0  0
  4 75  1  6  0  0  0
 45 76  1  6  0  0  0
 57 77  1  0  0  0  0
 11 78  1  0  0  0  0
 78 79  1  0  0  0  0
 79 80  1  0  0  0  0
 12 80  1  0  0  0  0
 12 81  1  0  0  0  0
 80 82  1  0  0  0  0
 81 83  1  0  0  0  0
 82 83  1  0  0  0  0
 82 84  1  1  0  0  0
 82 85  1  6  0  0  0
M  END
>  <cdx:fragmentId>
92

$$$$
