71448975.cdx
  Mrv1902 05222410202D          

 23 23  0  0  0  0            999 V2000
    7.9827  -14.4782    0.0000 C   0  0  0  0  0  0  0  0  0  0  0  0
    7.2682  -14.8907    0.0000 C   0  0  0  0  0  0  0  0  0  0  0  0
    6.5538  -14.4782    0.0000 C   0  0  0  0  0  0  0  0  0  0  0  0
    5.8393  -14.8907    0.0000 C   0  0  0  0  0  0  0  0  0  0  0  0
    5.1248  -14.4782    0.0000 C   0  0  0  0  0  0  0  0  0  0  0  0
    4.4104  -14.8907    0.0000 C   0  0  0  0  0  0  0  0  0  0  0  0
    3.6959  -14.4782    0.0000 C   0  0  0  0  0  0  0  0  0  0  0  0
    2.9814  -14.8907    0.0000 C   0  0  0  0  0  0  0  0  0  0  0  0
    2.2670  -14.4782    0.0000 C   0  0  0  0  0  0  0  0  0  0  0  0
    2.2670  -13.6532    0.0000 C   0  0  0  0  0  0  0  0  0  0  0  0
    7.9827  -13.6532    0.0000 O   0  0  0  0  0  0  0  0  0  0  0  0
    8.6972  -14.8907    0.0000 N   0  0  0  0  0  0  0  0  0  0  0  0
    1.5525  -14.8907    0.0000 C   0  0  0  0  0  0  0  0  0  0  0  0
    9.4117  -14.4782    0.0000 C   0  0  0  0  0  0  0  0  0  0  0  0
   10.1261  -14.8907    0.0000 C   0  0  0  0  0  0  0  0  0  0  0  0
   10.8406  -14.4782    0.0000 C   0  0  0  0  0  0  0  0  0  0  0  0
   11.5551  -14.8907    0.0000 C   0  0  0  0  0  0  0  0  0  0  0  0
   11.5551  -15.7157    0.0000 C   0  0  0  0  0  0  0  0  0  0  0  0
   10.8406  -16.1282    0.0000 C   0  0  0  0  0  0  0  0  0  0  0  0
   10.1261  -15.7157    0.0000 C   0  0  0  0  0  0  0  0  0  0  0  0
   12.2695  -14.4782    0.0000 O   0  0  0  0  0  0  0  0  0  0  0  0
   12.9840  -14.8907    0.0000 C   0  0  0  0  0  0  0  0  0  0  0  0
   12.2695  -16.1282    0.0000 O   0  0  0  0  0  0  0  0  0  0  0  0
  1  2  1  0  0  0  0
  2  3  1  0  0  0  0
  3  4  1  0  0  0  0
  4  5  1  0  0  0  0
  5  6  1  0  0  0  0
  6  7  2  0  0  0  0
  7  8  1  0  0  0  0
  8  9  1  0  0  0  0
  9 10  1  0  0  0  0
  1 11  2  0  0  0  0
  1 12  1  0  0  0  0
  9 13  1  0  0  0  0
 15 16  1  0  0  0  0
 16 17  2  0  0  0  0
 17 18  1  0  0  0  0
 18 19  2  0  0  0  0
 19 20  1  0  0  0  0
 15 20  2  0  0  0  0
 21 22  1  0  0  0  0
 17 21  1  0  0  0  0
 18 23  1  0  0  0  0
 14 15  1  0  0  0  0
 12 14  1  0  0  0  0
M  END
>  <cdx:groupId>
201509

>  <cdx:fragmentId>
201443

$$$$
