448947.cdx
  Mrv1902 05222410272D          

 40 45  0  0  0  0            999 V2000
   10.4505   -8.0375    0.0000 H   0  0  0  0  0  0  0  0  0  0  0  0
    6.1921   -8.6250    0.0000 C   0  0  2  0  0  0  0  0  0  0  0  0
    6.1823   -7.8000    0.0000 C   0  0  0  0  0  0  0  0  0  0  0  0
    6.8918   -7.3791    0.0000 C   0  0  0  0  0  0  0  0  0  0  0  0
    7.6111   -7.7831    0.0000 C   0  0  2  0  0  0  0  0  0  0  0  0
    8.3926   -7.5188    0.0000 C   0  0  1  0  0  0  0  0  0  0  0  0
    8.7192   -6.7612    0.0000 C   0  0  1  0  0  0  0  0  0  0  0  0
    9.5386   -6.6652    0.0000 C   0  0  0  0  0  0  0  0  0  0  0  0
   10.0314   -7.3268    0.0000 C   0  0  1  0  0  0  0  0  0  0  0  0
    9.7049   -8.0845    0.0000 O   0  0  0  0  0  0  0  0  0  0  0  0
    8.8855   -8.1804    0.0000 C   0  0  1  0  0  0  0  0  0  0  0  0
    8.4085   -8.8536    0.0000 C   0  0  0  0  0  0  0  0  0  0  0  0
    7.6209   -8.6080    0.0000 C   0  0  1  0  0  0  0  0  0  0  0  0
    6.9114   -9.0290    0.0000 C   0  0  2  0  0  0  0  0  0  0  0  0
    6.9212   -9.8539    0.0000 C   0  0  0  0  0  0  0  0  0  0  0  0
    6.2117  -10.2749    0.0000 C   0  0  0  0  0  0  0  0  0  0  0  0
    5.4923   -9.8709    0.0000 C   0  0  1  0  0  0  0  0  0  0  0  0
    4.7828  -10.2918    0.0000 C   0  0  0  0  0  0  0  0  0  0  0  0
    4.0635   -9.8879    0.0000 C   0  0  2  0  0  0  0  0  0  0  0  0
    4.0537   -9.0629    0.0000 C   0  0  0  0  0  0  0  0  0  0  0  0
    4.7632   -8.6420    0.0000 C   0  0  0  0  0  0  0  0  0  0  0  0
    5.4825   -9.0459    0.0000 C   0  0  2  0  0  0  0  0  0  0  0  0
    5.4727   -8.2210    0.0000 C   0  0  0  0  0  0  0  0  0  0  0  0
    8.6727   -9.6351    0.0000 O   0  0  0  0  0  0  0  0  0  0  0  0
    5.2038  -11.0014    0.0000 C   0  0  0  0  0  0  0  0  0  0  0  0
    4.3789  -11.0112    0.0000 C   0  0  0  0  0  0  0  0  0  0  0  0
    7.6307   -9.4329    0.0000 C   0  0  0  0  0  0  0  0  0  0  0  0
    8.2264   -6.0996    0.0000 C   0  0  0  0  0  0  0  0  0  0  0  0
    7.6035   -6.9581    0.0000 C   0  0  0  0  0  0  0  0  0  0  0  0
    3.3540  -10.3088    0.0000 O   0  0  0  0  0  0  0  0  0  0  0  0
   11.3436   -7.8925    0.0000 O   0  0  0  0  0  0  0  0  0  0  0  0
    7.9472   -6.8244    0.0000 H   0  0  0  0  0  0  0  0  0  0  0  0
    9.3064   -8.8900    0.0000 H   0  0  0  0  0  0  0  0  0  0  0  0
    6.9016   -8.2040    0.0000 H   0  0  0  0  0  0  0  0  0  0  0  0
    5.5022  -10.6958    0.0000 H   0  0  0  0  0  0  0  0  0  0  0  0
   11.5040   -5.7156    0.0000 O   0  0  0  0  0  0  0  0  0  0  0  0
   11.9762   -6.6794    0.0000 C   0  0  0  0  0  0  0  0  0  0  0  0
   10.3786   -6.2671    0.0000 C   0  0  0  0  0  0  0  0  0  0  0  0
   11.1774   -6.4732    0.0000 C   0  0  0  0  0  0  0  0  0  0  0  0
   10.8508   -7.2309    0.0000 C   0  0  1  0  0  0  0  0  0  0  0  0
  9  1  1  1  0  0  0
 40 31  1  6  0  0  0
 39 36  1  0  0  0  0
 39 37  1  0  0  0  0
 39 38  1  0  0  0  0
 40 39  1  0  0  0  0
  2  3  1  0  0  0  0
  3  4  1  0  0  0  0
  4  5  1  0  0  0  0
  5  6  1  0  0  0  0
  6  7  1  0  0  0  0
  7  8  1  0  0  0  0
  8  9  1  0  0  0  0
  9 10  1  0  0  0  0
 10 11  1  0  0  0  0
 11 12  1  0  0  0  0
 12 13  1  0  0  0  0
 13 14  1  0  0  0  0
 14 15  1  0  0  0  0
 15 16  1  0  0  0  0
 16 17  1  0  0  0  0
 17 18  1  0  0  0  0
 18 19  1  0  0  0  0
 19 20  1  0  0  0  0
 20 21  1  0  0  0  0
 21 22  1  0  0  0  0
 22 23  1  1  0  0  0
  2 23  1  1  0  0  0
  2 14  1  0  0  0  0
 17 22  1  0  0  0  0
  2 22  1  0  0  0  0
  5 13  1  0  0  0  0
  6 11  1  0  0  0  0
 12 24  2  0  0  0  0
 18 25  1  0  0  0  0
 18 26  1  0  0  0  0
 13 27  1  6  0  0  0
  7 28  1  6  0  0  0
  5 29  1  1  0  0  0
 19 30  1  1  0  0  0
  9 40  1  0  0  0  0
  6 32  1  6  0  0  0
 11 33  1  6  0  0  0
 14 34  1  1  0  0  0
 17 35  1  6  0  0  0
M  END
>  <cdx:fragmentId>
201205

$$$$
