449293.cdx
  Mrv1902 05222410272D          

 12 13  0  0  0  0            999 V2000
    8.0884  -10.2314    0.0000 C   0  0  0  0  0  0  0  0  0  0  0  0
    8.3568   -9.5718    0.0000 C   0  0  0  0  0  0  0  0  0  0  0  0
    7.6675   -9.1678    0.0000 C   0  0  1  0  0  0  0  0  0  0  0  0
    6.5297   -9.2176    0.0000 C   0  0  0  0  0  0  0  0  0  0  0  0
    6.2249   -9.6597    0.0000 C   0  0  0  0  0  0  0  0  0  0  0  0
    6.6393  -10.0788    0.0000 C   0  0  0  0  0  0  0  0  0  0  0  0
    7.3977   -9.8260    0.0000 C   0  0  2  0  0  0  0  0  0  0  0  0
    7.3977   -8.3882    0.0000 N   0  0  0  0  0  0  0  0  0  0  0  0
    5.4031   -9.7323    0.0000 O   0  0  0  0  0  0  0  0  0  0  0  0
    7.1842   -7.5913    0.0000 C   0  0  0  0  0  0  0  0  0  0  0  0
    7.3117  -10.6465    0.0000 H   0  0  0  0  0  0  0  0  0  0  0  0
    8.4603   -8.9395    0.0000 H   0  0  0  0  0  0  0  0  0  0  0  0
  7  1  1  0  0  0  0
  2  3  1  0  0  0  0
  3  8  1  0  0  0  0
  3  4  1  0  0  0  0
  4  5  1  0  0  0  0
  6  5  1  0  0  0  0
  7  6  1  0  0  0  0
  7  8  1  0  0  0  0
  1  2  1  0  0  0  0
  5  9  1  0  0  0  0
  8 10  1  0  0  0  0
  7 11  1  1  0  0  0
  3 12  1  6  0  0  0
M  END
>  <cdx:fragmentId>
820

$$$$
