449468.cdx
  Mrv1902 05222410262D          

  9  8  0  0  0  0            999 V2000
    6.0123   -7.0303    0.0000 N   0  0  0  0  0  0  0  0  0  0  0  0
    5.2935   -9.9168    0.0000 N   0  0  0  0  0  0  0  0  0  0  0  0
    7.4424   -6.2074    0.0000 O   0  0  0  0  0  0  0  0  0  0  0  0
    8.1551   -7.4460    0.0000 O   0  0  0  0  0  0  0  0  0  0  0  0
    6.0086   -9.5053    0.0000 C   0  0  0  0  0  0  0  0  0  0  0  0
    6.0098   -8.6803    0.0000 C   0  0  0  0  0  0  0  0  0  0  0  0
    6.7249   -8.2689    0.0000 C   0  0  0  0  0  0  0  0  0  0  0  0
    6.7261   -7.4439    0.0000 C   0  0  1  0  0  0  0  0  0  0  0  0
    7.4412   -7.0324    0.0000 C   0  0  0  0  0  0  0  0  0  0  0  0
  8  1  1  6  0  0  0
  5  2  1  0  0  0  0
  9  3  2  0  0  0  0
  9  4  1  0  0  0  0
  6  5  1  0  0  0  0
  7  6  1  0  0  0  0
  8  7  1  0  0  0  0
  9  8  1  0  0  0  0
M  END
>  <cdx:fragmentId>
5

$$$$
