449440.cdx
  Mrv1902 05222410262D          

 16 18  0  0  0  0            999 V2000
   14.6078   -7.8261    0.0000 N   0  0  0  0  0  0  0  0  0  0  0  0
   15.2753   -8.3110    0.0000 C   0  0  0  0  0  0  0  0  0  0  0  0
   15.0203   -9.0956    0.0000 C   0  0  0  0  0  0  0  0  0  0  0  0
   14.1953   -9.0956    0.0000 C   0  0  0  0  0  0  0  0  0  0  0  0
   13.6433   -9.7087    0.0000 C   0  0  0  0  0  0  0  0  0  0  0  0
   12.8363   -9.5372    0.0000 C   0  0  0  0  0  0  0  0  0  0  0  0
   12.5814   -8.7526    0.0000 C   0  0  0  0  0  0  0  0  0  0  0  0
   13.1334   -8.1395    0.0000 C   0  0  0  0  0  0  0  0  0  0  0  0
   13.9404   -8.3110    0.0000 C   0  0  0  0  0  0  0  0  0  0  0  0
   16.0823   -8.1395    0.0000 C   0  0  0  0  0  0  0  0  0  0  0  0
   15.5724   -9.7087    0.0000 C   0  0  0  0  0  0  0  0  0  0  0  0
   16.3793   -9.5372    0.0000 C   0  0  2  0  0  0  0  0  0  0  0  0
   16.6343   -8.7526    0.0000 N   0  0  0  0  0  0  0  0  0  0  0  0
   16.9314  -10.1503    0.0000 C   0  0  0  0  0  0  0  0  0  0  0  0
   16.6764  -10.9349    0.0000 O   0  0  0  0  0  0  0  0  0  0  0  0
   17.7383   -9.9788    0.0000 O   0  0  0  0  0  0  0  0  0  0  0  0
  1  2  1  0  0  0  0
  2  3  2  0  0  0  0
  3  4  1  0  0  0  0
  4  5  1  0  0  0  0
  5  6  2  0  0  0  0
  6  7  1  0  0  0  0
  7  8  2  0  0  0  0
  8  9  1  0  0  0  0
  1  9  1  0  0  0  0
  4  9  2  0  0  0  0
 11 12  1  0  0  0  0
 12 13  1  0  0  0  0
 10 13  1  0  0  0  0
 10  2  1  0  0  0  0
 11  3  1  0  0  0  0
 14 15  2  0  0  0  0
 14 16  1  0  0  0  0
 12 14  1  6  0  0  0
M  END
>  <cdx:groupId>
16485

>  <cdx:fragmentId>
16438

$$$$
