4494.cdx
  Mrv1902 05222410272D          

 62 68  0  0  0  0            999 V2000
    6.6646  -13.4192    0.0000 O   0  0  0  0  0  0  0  0  0  0  0  0
    7.0693  -14.1381    0.0000 C   0  0  0  0  0  0  0  0  0  0  0  0
    7.8943  -14.1470    0.0000 O   0  0  0  0  0  0  0  0  0  0  0  0
    5.9553  -12.9752    0.0000 H   0  0  0  0  0  0  0  0  0  0  0  0
    7.9770  -11.9167    0.0000 H   0  0  0  0  0  0  0  0  0  0  0  0
    9.8074   -9.5465    0.0000 H   0  0  0  0  0  0  0  0  0  0  0  0
    9.9649   -8.1263    0.0000 H   0  0  0  0  0  0  0  0  0  0  0  0
    7.3474   -9.2737    0.0000 H   0  0  0  0  0  0  0  0  0  0  0  0
    8.4986  -10.1202    0.0000 H   0  0  0  0  0  0  0  0  0  0  0  0
    7.3795  -13.8083    0.0000 C   0  0  0  0  0  0  0  0  0  0  0  0
    8.8084  -13.8165    0.0000 O   0  0  0  0  0  0  0  0  0  0  0  0
    8.0963  -13.3999    0.0000 C   0  0  0  0  0  0  0  0  0  0  0  0
    8.1010  -12.5750    0.0000 O   0  0  0  0  0  0  0  0  0  0  0  0
    6.6492  -14.8481    0.0000 C   0  0  0  0  0  0  0  0  0  0  0  0
   10.1906   -9.2034    0.0000 O   0  0  0  0  0  0  0  0  0  0  0  0
   10.1386  -10.3021    0.0000 O   0  0  0  0  0  0  0  0  0  0  0  0
    8.4224  -11.4993    0.0000 O   0  0  0  0  0  0  0  0  0  0  0  0
    5.2385  -13.3836    0.0000 O   0  0  0  0  0  0  0  0  0  0  0  0
    8.1512   -5.7686    0.0000 C   0  0  0  0  0  0  0  0  0  0  0  0
   10.2317   -8.4597    0.0000 C   0  0  0  0  0  0  0  0  0  0  0  0
    6.6768  -11.7418    0.0000 C   0  0  0  0  0  0  0  0  0  0  0  0
    9.8236  -13.1426    0.0000 C   0  0  0  0  0  0  0  0  0  0  0  0
   10.4698  -11.0577    0.0000 O   0  0  0  0  0  0  0  0  0  0  0  0
   11.4635  -13.3244    0.0000 C   0  0  0  0  0  0  0  0  0  0  0  0
   11.1323  -12.5688    0.0000 C   0  0  0  0  0  0  0  0  0  0  0  0
   10.3123  -12.4779    0.0000 C   0  0  2  0  0  0  0  0  0  0  0  0
    9.9811  -11.7223    0.0000 C   0  0  0  0  0  0  0  0  0  0  0  0
    9.1611  -11.6314    0.0000 O   0  0  0  0  0  0  0  0  0  0  0  0
    6.8577  -10.1108    0.0000 C   0  0  0  0  0  0  0  0  0  0  0  0
    6.6816  -10.9168    0.0000 C   0  0  2  0  0  0  0  0  0  0  0  0
    5.4557  -11.2933    0.0000 O   0  0  0  0  0  0  0  0  0  0  0  0
    5.2432  -12.5586    0.0000 C   0  0  1  0  0  0  0  0  0  0  0  0
    4.5311  -12.1420    0.0000 C   0  0  2  0  0  0  0  0  0  0  0  0
    4.5358  -11.3170    0.0000 C   0  0  0  0  0  0  0  0  0  0  0  0
    5.2526  -10.9086    0.0000 C   0  0  0  0  0  0  0  0  0  0  0  0
    5.9647  -11.3252    0.0000 C   0  0  2  0  0  0  0  0  0  0  0  0
    5.9600  -12.1502    0.0000 C   0  0  2  0  0  0  0  0  0  0  0  0
    6.6721  -12.5668    0.0000 C   0  0  2  0  0  0  0  0  0  0  0  0
    7.3889  -12.1584    0.0000 C   0  0  2  0  0  0  0  0  0  0  0  0
    7.3937  -11.3334    0.0000 C   0  0  1  0  0  0  0  0  0  0  0  0
    8.0099  -10.7849    0.0000 C   0  0  1  0  0  0  0  0  0  0  0  0
    8.8299  -10.8758    0.0000 C   0  0  2  0  0  0  0  0  0  0  0  0
    9.3186  -10.2112    0.0000 C   0  0  1  0  0  0  0  0  0  0  0  0
    8.9874   -9.4556    0.0000 C   0  0  2  0  0  0  0  0  0  0  0  0
    9.4761   -8.7909    0.0000 C   0  0  1  0  0  0  0  0  0  0  0  0
    9.1449   -8.0353    0.0000 C   0  0  2  0  0  0  0  0  0  0  0  0
    9.6336   -7.3707    0.0000 C   0  0  0  0  0  0  0  0  0  0  0  0
    9.3024   -6.6151    0.0000 C   0  0  0  0  0  0  0  0  0  0  0  0
    8.4824   -6.5242    0.0000 C   0  0  1  0  0  0  0  0  0  0  0  0
    7.9937   -7.1888    0.0000 C   0  0  0  0  0  0  0  0  0  0  0  0
    8.3249   -7.9444    0.0000 N   0  0  0  0  0  0  0  0  0  0  0  0
    7.8362   -8.6090    0.0000 C   0  0  0  0  0  0  0  0  0  0  0  0
    8.1674   -9.3646    0.0000 C   0  0  1  0  0  0  0  0  0  0  0  0
    7.6787  -10.0293    0.0000 C   0  0  2  0  0  0  0  0  0  0  0  0
    2.6843  -13.0670    0.0000 O   0  0  0  0  0  0  0  0  0  0  0  0
    2.2677  -13.7791    0.0000 C   0  0  0  0  0  0  0  0  0  0  0  0
    3.8143  -12.5504    0.0000 O   0  0  0  0  0  0  0  0  0  0  0  0
    4.5216  -13.7920    0.0000 O   0  0  0  0  0  0  0  0  0  0  0  0
    2.3712  -15.0172    0.0000 C   0  0  0  0  0  0  0  0  0  0  0  0
    3.0880  -14.6088    0.0000 C   0  0  0  0  0  0  0  0  0  0  0  0
    3.0927  -13.7838    0.0000 C   0  0  1  0  0  0  0  0  0  0  0  0
    3.8096  -13.3754    0.0000 C   0  0  0  0  0  0  0  0  0  0  0  0
 37  4  1  1  0  0  0
 40  5  1  1  0  0  0
 44  6  1  6  0  0  0
 46  7  1  6  0  0  0
 53  8  1  1  0  0  0
 54  9  1  6  0  0  0
 33 57  1  1  0  0  0
 39 13  1  6  0  0  0
 13 12  1  0  0  0  0
 12 10  1  0  0  0  0
 12 11  2  0  0  0  0
 38  1  1  6  0  0  0
 45 15  1  1  0  0  0
 43 16  1  1  0  0  0
 41 17  1  6  0  0  0
 32 18  1  6  0  0  0
 49 19  1  1  0  0  0
 45 20  1  6  0  0  0
 36 21  1  1  0  0  0
 42 28  1  6  0  0  0
 28 27  1  0  0  0  0
 26 22  1  1  0  0  0
 27 23  2  0  0  0  0
 25 24  1  0  0  0  0
 26 25  1  0  0  0  0
 27 26  1  0  0  0  0
 51 46  1  0  0  0  0
 53 44  1  0  0  0  0
 37 32  1  0  0  0  0
 40 30  1  0  0  0  0
 36 30  1  0  0  0  0
 54 41  1  0  0  0  0
 54 29  1  0  0  0  0
 30 29  1  1  0  0  0
 30 31  1  0  0  0  0
 32 31  1  0  0  0  0
 33 32  1  0  0  0  0
 34 33  1  0  0  0  0
 35 34  1  0  0  0  0
 36 35  1  0  0  0  0
 37 36  1  0  0  0  0
 38 37  1  0  0  0  0
 39 38  1  0  0  0  0
 40 39  1  0  0  0  0
 41 40  1  0  0  0  0
 42 41  1  0  0  0  0
 43 42  1  0  0  0  0
 44 43  1  0  0  0  0
 45 44  1  0  0  0  0
 46 45  1  0  0  0  0
 47 46  1  0  0  0  0
 48 47  1  0  0  0  0
 49 48  1  0  0  0  0
 50 49  1  0  0  0  0
 51 50  1  0  0  0  0
 52 51  1  0  0  0  0
 53 52  1  0  0  0  0
 54 53  1  0  0  0  0
 61 55  1  6  0  0  0
 61 56  1  0  0  0  0
 62 57  1  0  0  0  0
 62 58  2  0  0  0  0
 60 59  1  0  0  0  0
 61 60  1  0  0  0  0
 62 61  1  0  0  0  0
  2  3  2  0  0  0  0
  2 14  1  0  0  0  0
  1  2  1  0  0  0  0
M  END
>  <cdx:fragmentId>
13855

$$$$
