4495.cdx
  Mrv1902 05222410262D          

 54 60  0  0  0  0            999 V2000
    6.6007  -12.9385    0.0000 H   0  0  0  0  0  0  0  0  0  0  0  0
    8.6141  -11.8728    0.0000 H   0  0  0  0  0  0  0  0  0  0  0  0
   10.4354   -9.4904    0.0000 H   0  0  0  0  0  0  0  0  0  0  0  0
   10.5857   -8.0694    0.0000 H   0  0  0  0  0  0  0  0  0  0  0  0
    7.9741   -9.2300    0.0000 H   0  0  0  0  0  0  0  0  0  0  0  0
    7.7258   -9.4006    0.0000 H   0  0  0  0  0  0  0  0  0  0  0  0
    8.7444  -12.5274    0.0000 O   0  0  0  0  0  0  0  0  0  0  0  0
   10.7674   -9.2219    0.0000 O   0  0  0  0  0  0  0  0  0  0  0  0
   10.7704  -10.2443    0.0000 O   0  0  0  0  0  0  0  0  0  0  0  0
    9.0567  -11.4523    0.0000 O   0  0  0  0  0  0  0  0  0  0  0  0
    5.8859  -13.3505    0.0000 O   0  0  0  0  0  0  0  0  0  0  0  0
    8.7601   -5.7209    0.0000 C   0  0  0  0  0  0  0  0  0  0  0  0
   10.8542   -8.4014    0.0000 C   0  0  0  0  0  0  0  0  0  0  0  0
    6.6018  -10.4635    0.0000 C   0  0  0  0  0  0  0  0  0  0  0  0
    3.0280  -13.3486    0.0000 C   0  0  0  0  0  0  0  0  0  0  0  0
    5.1712  -13.7625    0.0000 O   0  0  0  0  0  0  0  0  0  0  0  0
    4.4612  -14.9902    0.0000 C   0  0  0  0  0  0  0  0  0  0  0  0
    3.7417  -14.5865    0.0000 C   0  0  0  0  0  0  0  0  0  0  0  0
    3.7422  -13.7615    0.0000 C   0  0  0  0  0  0  0  0  0  0  0  0
    4.4570  -13.3495    0.0000 C   0  0  0  0  0  0  0  0  0  0  0  0
    4.4575  -12.5245    0.0000 O   0  0  0  0  0  0  0  0  0  0  0  0
    7.4886  -10.0696    0.0000 C   0  0  0  0  0  0  0  0  0  0  0  0
    7.3165  -10.8765    0.0000 C   0  0  2  0  0  0  0  0  0  0  0  0
    6.0926  -11.2591    0.0000 O   0  0  0  0  0  0  0  0  0  0  0  0
    5.8865  -12.5255    0.0000 C   0  0  1  0  0  0  0  0  0  0  0  0
    5.1723  -12.1125    0.0000 C   0  0  2  0  0  0  0  0  0  0  0  0
    5.1728  -11.2875    0.0000 C   0  0  0  0  0  0  0  0  0  0  0  0
    5.8876  -10.8755    0.0000 C   0  0  0  0  0  0  0  0  0  0  0  0
    6.6018  -11.2885    0.0000 C   0  0  2  0  0  0  0  0  0  0  0  0
    6.6012  -12.1135    0.0000 C   0  0  2  0  0  0  0  0  0  0  0  0
    7.3154  -12.5265    0.0000 C   0  0  0  0  0  0  0  0  0  0  0  0
    8.0302  -12.1144    0.0000 C   0  0  2  0  0  0  0  0  0  0  0  0
    8.0307  -11.2894    0.0000 C   0  0  1  0  0  0  0  0  0  0  0  0
    8.6442  -10.7378    0.0000 C   0  0  1  0  0  0  0  0  0  0  0  0
    9.4646  -10.8246    0.0000 C   0  0  2  0  0  0  0  0  0  0  0  0
    9.9500  -10.1575    0.0000 C   0  0  1  0  0  0  0  0  0  0  0  0
    9.6149   -9.4036    0.0000 C   0  0  2  0  0  0  0  0  0  0  0  0
   10.1003   -8.7365    0.0000 C   0  0  1  0  0  0  0  0  0  0  0  0
    9.7653   -7.9826    0.0000 C   0  0  2  0  0  0  0  0  0  0  0  0
   10.2506   -7.3155    0.0000 C   0  0  0  0  0  0  0  0  0  0  0  0
    9.9156   -6.5616    0.0000 C   0  0  0  0  0  0  0  0  0  0  0  0
    9.0952   -6.4748    0.0000 C   0  0  1  0  0  0  0  0  0  0  0  0
    8.6098   -7.1419    0.0000 C   0  0  0  0  0  0  0  0  0  0  0  0
    8.9449   -7.8958    0.0000 N   0  0  0  0  0  0  0  0  0  0  0  0
    8.4595   -8.5629    0.0000 C   0  0  0  0  0  0  0  0  0  0  0  0
    8.7945   -9.3168    0.0000 C   0  0  1  0  0  0  0  0  0  0  0  0
    8.3092   -9.9839    0.0000 C   0  0  2  0  0  0  0  0  0  0  0  0
   10.4698  -13.0863    0.0000 C   0  0  0  0  0  0  0  0  0  0  0  0
    9.7997  -11.5785    0.0000 O   0  0  0  0  0  0  0  0  0  0  0  0
   11.1055  -10.9982    0.0000 O   0  0  0  0  0  0  0  0  0  0  0  0
   12.1106  -13.2599    0.0000 C   0  0  0  0  0  0  0  0  0  0  0  0
   11.7756  -12.5060    0.0000 C   0  0  0  0  0  0  0  0  0  0  0  0
   10.9551  -12.4192    0.0000 C   0  0  2  0  0  0  0  0  0  0  0  0
   10.6201  -11.6653    0.0000 C   0  0  0  0  0  0  0  0  0  0  0  0
 30  1  1  1  0  0  0
 33  2  1  1  0  0  0
 37  3  1  6  0  0  0
 39  4  1  6  0  0  0
 46  5  1  1  0  0  0
 47  6  1  6  0  0  0
 35 49  1  6  0  0  0
 32  7  1  6  0  0  0
 38  8  1  1  0  0  0
 36  9  1  1  0  0  0
 34 10  1  6  0  0  0
 25 11  1  6  0  0  0
 42 12  1  1  0  0  0
 38 13  1  6  0  0  0
 29 14  1  1  0  0  0
 26 21  1  1  0  0  0
 21 20  1  0  0  0  0
 19 15  1  0  0  0  0
 20 16  2  0  0  0  0
 18 17  1  0  0  0  0
 19 18  2  0  0  0  0
 20 19  1  0  0  0  0
 44 39  1  0  0  0  0
 46 37  1  0  0  0  0
 30 25  1  0  0  0  0
 33 23  1  0  0  0  0
 29 23  1  0  0  0  0
 47 34  1  0  0  0  0
 47 22  1  0  0  0  0
 23 22  1  1  0  0  0
 23 24  1  0  0  0  0
 25 24  1  0  0  0  0
 26 25  1  0  0  0  0
 27 26  1  0  0  0  0
 28 27  1  0  0  0  0
 29 28  1  0  0  0  0
 30 29  1  0  0  0  0
 31 30  1  0  0  0  0
 32 31  1  0  0  0  0
 33 32  1  0  0  0  0
 34 33  1  0  0  0  0
 35 34  1  0  0  0  0
 36 35  1  0  0  0  0
 37 36  1  0  0  0  0
 38 37  1  0  0  0  0
 39 38  1  0  0  0  0
 40 39  1  0  0  0  0
 41 40  1  0  0  0  0
 42 41  1  0  0  0  0
 43 42  1  0  0  0  0
 44 43  1  0  0  0  0
 45 44  1  0  0  0  0
 46 45  1  0  0  0  0
 47 46  1  0  0  0  0
 53 48  1  1  0  0  0
 54 49  1  0  0  0  0
 54 50  2  0  0  0  0
 52 51  1  0  0  0  0
 53 52  1  0  0  0  0
 54 53  1  0  0  0  0
M  END
>  <cdx:groupId>
238145

>  <cdx:fragmentId>
237985

$$$$
