4498.cdx
  Mrv1902 05222410192D          

 22 23  0  0  0  0            999 V2000
    5.9037   -8.6900    0.0000 C   0  0  0  0  0  0  0  0  0  0  0  0
    5.9037   -9.5150    0.0000 C   0  0  0  0  0  0  0  0  0  0  0  0
    6.6181   -9.9275    0.0000 C   0  0  0  0  0  0  0  0  0  0  0  0
    7.3326   -9.5150    0.0000 C   0  0  0  0  0  0  0  0  0  0  0  0
    7.3326   -8.6900    0.0000 C   0  0  0  0  0  0  0  0  0  0  0  0
    6.6181   -8.2775    0.0000 C   0  0  0  0  0  0  0  0  0  0  0  0
    5.1892   -9.9275    0.0000 C   0  0  0  0  0  0  0  0  0  0  0  0
    8.0471   -9.9275    0.0000 O   0  0  0  0  0  0  0  0  0  0  0  0
    8.0471   -8.2775    0.0000 O   0  0  0  0  0  0  0  0  0  0  0  0
    4.4747   -9.5150    0.0000 O   0  0  0  0  0  0  0  0  0  0  0  0
    5.1892  -10.7525    0.0000 O   0  0  0  0  0  0  0  0  0  0  0  0
    8.7506   -6.2034    0.0000 C   0  0  2  0  0  0  0  0  0  0  0  0
    8.0362   -5.7908    0.0000 C   0  0  2  0  0  0  0  0  0  0  0  0
    7.3217   -6.2033    0.0000 C   0  0  1  0  0  0  0  0  0  0  0  0
    7.3217   -7.0283    0.0000 C   0  0  2  0  0  0  0  0  0  0  0  0
    8.0361   -7.4408    0.0000 C   0  0  1  0  0  0  0  0  0  0  0  0
    8.7506   -7.0284    0.0000 O   0  0  0  0  0  0  0  0  0  0  0  0
    9.4651   -5.7909    0.0000 C   0  0  0  0  0  0  0  0  0  0  0  0
    6.6072   -5.7908    0.0000 O   0  0  0  0  0  0  0  0  0  0  0  0
    8.0362   -4.9658    0.0000 O   0  0  0  0  0  0  0  0  0  0  0  0
    6.6072   -7.4408    0.0000 O   0  0  0  0  0  0  0  0  0  0  0  0
    9.4652   -4.9659    0.0000 O   0  0  0  0  0  0  0  0  0  0  0  0
  1  2  2  0  0  0  0
  2  3  1  0  0  0  0
  3  4  2  0  0  0  0
  4  5  1  0  0  0  0
  5  6  2  0  0  0  0
  6  1  1  0  0  0  0
  2  7  1  0  0  0  0
  4  8  1  0  0  0  0
  5  9  1  0  0  0  0
  7 10  2  0  0  0  0
  7 11  1  0  0  0  0
 12 13  1  0  0  0  0
 13 14  1  0  0  0  0
 14 15  1  0  0  0  0
 15 16  1  0  0  0  0
 16 17  1  0  0  0  0
 17 12  1  0  0  0  0
 12 18  1  1  0  0  0
 14 19  1  1  0  0  0
 13 20  1  6  0  0  0
 15 21  1  6  0  0  0
 18 22  1  0  0  0  0
 16  9  1  1  0  0  0
M  END
>  <cdx:fragmentId>
5

$$$$
