4499.cdx
  Mrv1902 05222410192D          

 31 33  0  0  0  0            999 V2000
    4.7624   -9.8312    0.0000 C   0  0  0  0  0  0  0  0  0  0  0  0
    4.7624  -10.6563    0.0000 C   0  0  0  0  0  0  0  0  0  0  0  0
    5.4769  -11.0688    0.0000 C   0  0  0  0  0  0  0  0  0  0  0  0
    6.1914  -10.6563    0.0000 C   0  0  0  0  0  0  0  0  0  0  0  0
    6.1914   -9.8312    0.0000 C   0  0  0  0  0  0  0  0  0  0  0  0
    5.4769   -9.4187    0.0000 C   0  0  0  0  0  0  0  0  0  0  0  0
    4.0480  -11.0688    0.0000 C   0  0  0  0  0  0  0  0  0  0  0  0
    6.9058  -11.0688    0.0000 O   0  0  0  0  0  0  0  0  0  0  0  0
    6.9058   -9.4187    0.0000 O   0  0  0  0  0  0  0  0  0  0  0  0
    3.3335  -10.6563    0.0000 O   0  0  0  0  0  0  0  0  0  0  0  0
    4.0480  -11.8938    0.0000 O   0  0  0  0  0  0  0  0  0  0  0  0
    7.6094   -7.3446    0.0000 C   0  0  2  0  0  0  0  0  0  0  0  0
    6.8949   -6.9321    0.0000 C   0  0  2  0  0  0  0  0  0  0  0  0
    6.1804   -7.3445    0.0000 C   0  0  1  0  0  0  0  0  0  0  0  0
    6.1804   -8.1695    0.0000 C   0  0  2  0  0  0  0  0  0  0  0  0
    6.8949   -8.5821    0.0000 C   0  0  1  0  0  0  0  0  0  0  0  0
    7.6093   -8.1696    0.0000 O   0  0  0  0  0  0  0  0  0  0  0  0
    8.3239   -6.9321    0.0000 C   0  0  0  0  0  0  0  0  0  0  0  0
    5.4660   -6.9320    0.0000 O   0  0  0  0  0  0  0  0  0  0  0  0
    6.8950   -6.1071    0.0000 O   0  0  0  0  0  0  0  0  0  0  0  0
    5.4659   -8.5820    0.0000 O   0  0  0  0  0  0  0  0  0  0  0  0
    8.3239   -6.1071    0.0000 O   0  0  0  0  0  0  0  0  0  0  0  0
    9.0282   -5.6822    0.0000 C   0  0  2  0  0  0  0  0  0  0  0  0
    9.7819   -6.0178    0.0000 C   0  0  2  0  0  0  0  0  0  0  0  0
   10.3339   -5.4047    0.0000 C   0  0  1  0  0  0  0  0  0  0  0  0
    9.9214   -4.6902    0.0000 C   0  0  1  0  0  0  0  0  0  0  0  0
    9.1145   -4.8617    0.0000 O   0  0  0  0  0  0  0  0  0  0  0  0
    9.9954   -6.8147    0.0000 O   0  0  0  0  0  0  0  0  0  0  0  0
   11.1589   -5.4047    0.0000 O   0  0  0  0  0  0  0  0  0  0  0  0
   10.1350   -3.8933    0.0000 C   0  0  0  0  0  0  0  0  0  0  0  0
   10.9319   -3.6798    0.0000 O   0  0  0  0  0  0  0  0  0  0  0  0
  1  2  2  0  0  0  0
  2  3  1  0  0  0  0
  3  4  2  0  0  0  0
  4  5  1  0  0  0  0
  5  6  2  0  0  0  0
  6  1  1  0  0  0  0
  2  7  1  0  0  0  0
  4  8  1  0  0  0  0
  5  9  1  0  0  0  0
  7 10  2  0  0  0  0
  7 11  1  0  0  0  0
 12 13  1  0  0  0  0
 13 14  1  0  0  0  0
 14 15  1  0  0  0  0
 15 16  1  0  0  0  0
 16 17  1  0  0  0  0
 17 12  1  0  0  0  0
 12 18  1  1  0  0  0
 14 19  1  1  0  0  0
 13 20  1  6  0  0  0
 15 21  1  6  0  0  0
 18 22  1  0  0  0  0
 16  9  1  1  0  0  0
 23 24  1  0  0  0  0
 24 25  1  0  0  0  0
 25 26  1  0  0  0  0
 26 27  1  0  0  0  0
 27 23  1  0  0  0  0
 24 28  1  6  0  0  0
 25 29  1  1  0  0  0
 26 30  1  1  0  0  0
 30 31  1  0  0  0  0
 23 22  1  1  0  0  0
M  END
>  <cdx:fragmentId>
5

$$$$
