450044.cdx
  Mrv1902 05222410182D          

 24 27  0  0  0  0            999 V2000
    8.5228   -3.8358    0.0000 O   0  0  0  0  0  0  0  0  0  0  0  0
    8.7735   -4.6218    0.0000 C   0  0  0  0  0  0  0  0  0  0  0  0
    8.1034   -5.1030    0.0000 C   0  0  0  0  0  0  0  0  0  0  0  0
    7.4386   -4.6145    0.0000 C   0  0  0  0  0  0  0  0  0  0  0  0
    7.6978   -3.8312    0.0000 C   0  0  0  0  0  0  0  0  0  0  0  0
    9.5567   -4.8810    0.0000 O   0  0  0  0  0  0  0  0  0  0  0  0
    8.0989   -5.9280    0.0000 C   0  0  0  0  0  0  0  0  0  0  0  0
    7.3822   -6.3366    0.0000 C   0  0  0  0  0  0  0  0  0  0  0  0
    7.3776   -7.1616    0.0000 C   0  0  1  0  0  0  0  0  0  0  0  0
    8.0898   -7.5780    0.0000 C   0  0  0  0  0  0  0  0  0  0  0  0
    8.0853   -8.4030    0.0000 C   0  0  0  0  0  0  0  0  0  0  0  0
    7.3686   -8.8116    0.0000 C   0  0  0  0  0  0  0  0  0  0  0  0
    6.6564   -8.3952    0.0000 C   0  0  1  0  0  0  0  0  0  0  0  0
    5.9397   -8.8037    0.0000 C   0  0  0  0  0  0  0  0  0  0  0  0
    5.2275   -8.3873    0.0000 C   0  0  0  0  0  0  0  0  0  0  0  0
    5.2320   -7.5623    0.0000 C   0  0  0  0  0  0  0  0  0  0  0  0
    5.9487   -7.1538    0.0000 C   0  0  0  0  0  0  0  0  0  0  0  0
    6.6609   -7.5702    0.0000 C   0  0  2  0  0  0  0  0  0  0  0  0
    8.5062   -6.8658    0.0000 O   0  0  0  0  0  0  0  0  0  0  0  0
    8.9148   -7.5825    0.0000 C   0  0  0  0  0  0  0  0  0  0  0  0
    6.6654   -6.7452    0.0000 C   0  0  0  0  0  0  0  0  0  0  0  0
    6.3483   -9.5205    0.0000 C   0  0  0  0  0  0  0  0  0  0  0  0
    5.5233   -9.5159    0.0000 C   0  0  0  0  0  0  0  0  0  0  0  0
    6.6519   -9.2201    0.0000 H   0  0  0  0  0  0  0  0  0  0  0  0
  1  2  1  0  0  0  0
  2  3  1  0  0  0  0
  3  4  1  0  0  0  0
  4  5  1  0  0  0  0
  1  5  1  0  0  0  0
  2  6  2  0  0  0  0
  7  8  1  0  0  0  0
  9 10  1  0  0  0  0
 10 11  1  0  0  0  0
 11 12  1  0  0  0  0
 12 13  1  0  0  0  0
 13 14  1  0  0  0  0
 14 15  1  0  0  0  0
 15 16  1  0  0  0  0
 16 17  1  0  0  0  0
 17 18  1  0  0  0  0
  9 18  1  0  0  0  0
 13 18  1  0  0  0  0
 19 20  1  0  0  0  0
 19 10  1  0  0  0  0
 20 10  1  0  0  0  0
 18 21  1  1  0  0  0
 14 22  1  0  0  0  0
 14 23  1  0  0  0  0
  9  8  1  1  0  0  0
  3  7  2  0  0  0  0
 13 24  1  6  0  0  0
M  END
>  <cdx:groupId>
77

>  <cdx:fragmentId>
21

$$$$
