4501.cdx
  Mrv1902 05222410182D          

 26 30  0  0  0  0            999 V2000
    6.6172   -4.7132    0.0000 C   0  0  0  0  0  0  0  0  0  0  0  0
    5.9028   -5.1257    0.0000 C   0  0  0  0  0  0  0  0  0  0  0  0
    5.1883   -4.7132    0.0000 C   0  0  0  0  0  0  0  0  0  0  0  0
    5.1883   -3.8882    0.0000 C   0  0  0  0  0  0  0  0  0  0  0  0
    5.9028   -3.4757    0.0000 C   0  0  0  0  0  0  0  0  0  0  0  0
    5.9028   -2.6507    0.0000 N   0  3  0  0  0  0  0  0  0  0  0  0
    6.6172   -2.2382    0.0000 C   0  0  0  0  0  0  0  0  0  0  0  0
    7.3317   -2.6507    0.0000 C   0  0  0  0  0  0  0  0  0  0  0  0
    8.0462   -2.2382    0.0000 C   0  0  0  0  0  0  0  0  0  0  0  0
    8.7606   -2.6507    0.0000 C   0  0  0  0  0  0  0  0  0  0  0  0
    8.7606   -3.4757    0.0000 C   0  0  0  0  0  0  0  0  0  0  0  0
    8.0462   -3.8882    0.0000 C   0  0  0  0  0  0  0  0  0  0  0  0
    7.3317   -3.4757    0.0000 C   0  0  0  0  0  0  0  0  0  0  0  0
    6.6172   -3.8882    0.0000 C   0  0  0  0  0  0  0  0  0  0  0  0
    2.9747   -3.6333    0.0000 O   0  0  0  0  0  0  0  0  0  0  0  0
    2.4898   -4.3007    0.0000 C   0  0  0  0  0  0  0  0  0  0  0  0
    2.9747   -4.9682    0.0000 O   0  0  0  0  0  0  0  0  0  0  0  0
    3.7593   -4.7132    0.0000 C   0  0  0  0  0  0  0  0  0  0  0  0
    3.7593   -3.8882    0.0000 C   0  0  0  0  0  0  0  0  0  0  0  0
    4.4738   -5.1257    0.0000 C   0  0  0  0  0  0  0  0  0  0  0  0
    4.4738   -3.4757    0.0000 C   0  0  0  0  0  0  0  0  0  0  0  0
    5.1883   -2.2382    0.0000 C   0  0  0  0  0  0  0  0  0  0  0  0
    9.4751   -3.8882    0.0000 O   0  0  0  0  0  0  0  0  0  0  0  0
   10.1896   -3.4757    0.0000 C   0  0  0  0  0  0  0  0  0  0  0  0
    9.4751   -2.2382    0.0000 O   0  0  0  0  0  0  0  0  0  0  0  0
   10.1896   -2.6507    0.0000 C   0  0  0  0  0  0  0  0  0  0  0  0
  1  2  2  0  0  0  0
  2  3  1  0  0  0  0
  3  4  1  0  0  0  0
  4  5  1  0  0  0  0
  5  6  1  0  0  0  0
  6  7  2  0  0  0  0
  7  8  1  0  0  0  0
  8  9  2  0  0  0  0
  9 10  1  0  0  0  0
 10 11  2  0  0  0  0
 11 12  1  0  0  0  0
 12 13  2  0  0  0  0
  8 13  1  0  0  0  0
 13 14  1  0  0  0  0
  5 14  2  0  0  0  0
  1 14  1  0  0  0  0
 15 16  1  0  0  0  0
 16 17  1  0  0  0  0
 17 18  1  0  0  0  0
 18 19  2  0  0  0  0
 15 19  1  0  0  0  0
 21 19  1  0  0  0  0
 20 18  1  0  0  0  0
 20  3  2  0  0  0  0
 21  4  2  0  0  0  0
  6 22  1  0  0  0  0
 23 24  1  0  0  0  0
 11 23  1  0  0  0  0
 25 26  1  0  0  0  0
 10 25  1  0  0  0  0
M  CHG  1   6   1
M  END
>  <cdx:fragmentId>
5

$$$$
