450226.cdx
  Mrv1902 05222410212D          

 29 30  0  0  0  0            999 V2000
    7.1841   -7.7714    0.0000 H   0  0  0  0  0  0  0  0  0  0  0  0
    7.6028   -6.1760    0.0000 O   0  0  0  0  0  0  0  0  0  0  0  0
    8.9831   -5.8061    0.0000 C   0  0  0  0  0  0  0  0  0  0  0  0
    8.3997   -6.3895    0.0000 C   0  0  0  0  0  0  0  0  0  0  0  0
    8.6133   -7.1864    0.0000 O   0  0  0  0  0  0  0  0  0  0  0  0
    7.3966   -7.4284    0.0000 C   0  0  0  0  0  0  0  0  0  0  0  0
    8.8255   -8.2534    0.0000 C   0  0  0  0  0  0  0  0  0  0  0  0
    8.1110   -7.8409    0.0000 C   0  0  0  0  0  0  0  0  0  0  0  0
    6.0000  -10.4535    0.0000 H   0  0  0  0  0  0  0  0  0  0  0  0
    5.1078   -7.7772    0.0000 C   0  0  0  0  0  0  0  0  0  0  0  0
    6.6088  -10.9604    0.0000 C   0  0  0  0  0  0  0  0  0  0  0  0
    4.0528   -9.2292    0.0000 O   0  0  0  0  0  0  0  0  0  0  0  0
    6.1473   -9.6417    0.0000 C   0  0  2  0  0  0  0  0  0  0  0  0
    6.7923  -10.1561    0.0000 C   0  0  2  0  0  0  0  0  0  0  0  0
    7.5966   -9.9725    0.0000 C   0  0  0  0  0  0  0  0  0  0  0  0
    7.9546   -9.2292    0.0000 C   0  0  2  0  0  0  0  0  0  0  0  0
    7.5966   -8.4859    0.0000 C   0  0  2  0  0  0  0  0  0  0  0  0
    6.7923   -8.3023    0.0000 C   0  0  0  0  0  0  0  0  0  0  0  0
    6.1473   -8.8167    0.0000 C   0  0  0  0  0  0  0  0  0  0  0  0
    5.3627   -8.5618    0.0000 C   0  0  0  0  0  0  0  0  0  0  0  0
    4.8778   -9.2292    0.0000 C   0  0  0  0  0  0  0  0  0  0  0  0
    5.3627   -9.8967    0.0000 C   0  0  0  0  0  0  0  0  0  0  0  0
   10.4296   -9.2292    0.0000 C   0  0  0  0  0  0  0  0  0  0  0  0
    8.7796   -9.2292    0.0000 O   0  0  0  0  0  0  0  0  0  0  0  0
    8.7796  -10.6582    0.0000 O   0  0  0  0  0  0  0  0  0  0  0  0
   10.0171  -11.3726    0.0000 C   0  0  0  0  0  0  0  0  0  0  0  0
   10.4296  -10.6582    0.0000 C   0  0  0  0  0  0  0  0  0  0  0  0
   10.0171   -9.9437    0.0000 C   0  0  0  0  0  0  0  0  0  0  0  0
    9.1921   -9.9437    0.0000 C   0  0  0  0  0  0  0  0  0  0  0  0
 17  1  1  1  0  0  0
  4  2  2  0  0  0  0
  4  3  1  0  0  0  0
  5  4  1  0  0  0  0
  8  5  1  0  0  0  0
  8  6  1  0  0  0  0
  8  7  1  0  0  0  0
 17  8  1  0  0  0  0
 13  9  1  6  0  0  0
 16 24  1  6  0  0  0
 20 10  1  0  0  0  0
 14 11  1  6  0  0  0
 21 12  2  0  0  0  0
 19 13  1  0  0  0  0
 22 13  1  0  0  0  0
 14 13  1  0  0  0  0
 15 14  1  0  0  0  0
 16 15  1  0  0  0  0
 17 16  1  0  0  0  0
 18 17  1  0  0  0  0
 19 18  1  0  0  0  0
 20 19  2  0  0  0  0
 21 20  1  0  0  0  0
 22 21  1  0  0  0  0
 28 23  1  0  0  0  0
 29 24  1  0  0  0  0
 29 25  2  0  0  0  0
 27 26  1  0  0  0  0
 28 27  2  0  0  0  0
 29 28  1  0  0  0  0
M  END
>  <cdx:fragmentId>
19

$$$$
