450225.cdx
  Mrv1902 05222410202D          

 86 95  0  0  0  0            999 V2000
   15.8013   -9.4569    0.0000 C   0  0  1  0  0  0  0  0  0  0  0  0
   16.5127   -9.0393    0.0000 C   0  0  2  0  0  0  0  0  0  0  0  0
   17.2992   -9.2885    0.0000 C   0  0  0  0  0  0  0  0  0  0  0  0
   17.7793   -8.6176    0.0000 C   0  0  2  0  0  0  0  0  0  0  0  0
   18.5620   -8.3570    0.0000 O   0  0  0  0  0  0  0  0  0  0  0  0
   18.5561   -7.5320    0.0000 C   0  0  0  0  0  0  0  0  0  0  0  0
   17.7696   -7.2828    0.0000 C   0  0  0  0  0  0  0  0  0  0  0  0
   17.2895   -7.9537    0.0000 C   0  0  2  0  0  0  0  0  0  0  0  0
   16.5068   -8.2143    0.0000 C   0  0  1  0  0  0  0  0  0  0  0  0
   15.7894   -7.8069    0.0000 C   0  0  0  0  0  0  0  0  0  0  0  0
   15.0779   -8.2246    0.0000 C   0  0  0  0  0  0  0  0  0  0  0  0
   15.0838   -9.0496    0.0000 C   0  0  2  0  0  0  0  0  0  0  0  0
   14.3724   -9.4672    0.0000 C   0  0  1  0  0  0  0  0  0  0  0  0
   13.6549   -9.0599    0.0000 C   0  0  0  0  0  0  0  0  0  0  0  0
   12.9435   -9.4775    0.0000 C   0  0  0  0  0  0  0  0  0  0  0  0
   12.9494  -10.3025    0.0000 C   0  0  1  0  0  0  0  0  0  0  0  0
   13.6668  -10.7098    0.0000 C   0  0  0  0  0  0  0  0  0  0  0  0
   14.3783  -10.2922    0.0000 C   0  0  0  0  0  0  0  0  0  0  0  0
   15.0958  -10.6995    0.0000 C   0  0  0  0  0  0  0  0  0  0  0  0
   15.8072  -10.2819    0.0000 C   0  0  0  0  0  0  0  0  0  0  0  0
   12.2379  -10.7202    0.0000 O   0  0  0  0  0  0  0  0  0  0  0  0
   14.3664   -8.6422    0.0000 C   0  0  0  0  0  0  0  0  0  0  0  0
   16.5068   -7.3893    0.0000 C   0  0  0  0  0  0  0  0  0  0  0  0
   17.5090   -6.5000    0.0000 C   0  0  0  0  0  0  0  0  0  0  0  0
   15.7953   -8.6319    0.0000 H   0  0  0  0  0  0  0  0  0  0  0  0
   18.2690   -9.2815    0.0000 H   0  0  0  0  0  0  0  0  0  0  0  0
   16.9225   -7.2148    0.0000 H   0  0  0  0  0  0  0  0  0  0  0  0
   15.0898   -9.8745    0.0000 H   0  0  0  0  0  0  0  0  0  0  0  0
   11.5205  -10.3128    0.0000 C   0  0  2  0  0  0  0  0  0  0  0  0
   11.5116   -9.4879    0.0000 O   0  0  0  0  0  0  0  0  0  0  0  0
   10.7927   -9.0832    0.0000 C   0  0  1  0  0  0  0  0  0  0  0  0
   10.0827   -9.4879    0.0000 C   0  0  2  0  0  0  0  0  0  0  0  0
   10.0827  -10.3128    0.0000 C   0  0  1  0  0  0  0  0  0  0  0  0
   10.7927  -10.7175    0.0000 C   0  0  1  0  0  0  0  0  0  0  0  0
   10.7904   -8.2582    0.0000 C   0  0  0  0  0  0  0  0  0  0  0  0
    9.3694  -10.7273    0.0000 O   0  0  0  0  0  0  0  0  0  0  0  0
   10.7883  -11.5425    0.0000 O   0  0  0  0  0  0  0  0  0  0  0  0
    9.3694   -9.0734    0.0000 O   0  0  0  0  0  0  0  0  0  0  0  0
   10.0760   -7.8457    0.0000 O   0  0  0  0  0  0  0  0  0  0  0  0
   10.0669  -11.9428    0.0000 C   0  0  2  0  0  0  0  0  0  0  0  0
    9.3607  -11.5163    0.0000 O   0  0  0  0  0  0  0  0  0  0  0  0
    8.6382  -11.9146    0.0000 C   0  0  2  0  0  0  0  0  0  0  0  0
    8.6317  -12.7453    0.0000 C   0  0  1  0  0  0  0  0  0  0  0  0
    9.3413  -13.1661    0.0000 C   0  0  2  0  0  0  0  0  0  0  0  0
   10.0671  -12.7621    0.0000 C   0  0  1  0  0  0  0  0  0  0  0  0
    7.9133  -13.1508    0.0000 O   0  0  0  0  0  0  0  0  0  0  0  0
    7.9295  -11.4923    0.0000 C   0  0  0  0  0  0  0  0  0  0  0  0
    9.3300  -13.9910    0.0000 O   0  0  0  0  0  0  0  0  0  0  0  0
   10.7784  -13.1801    0.0000 O   0  0  0  0  0  0  0  0  0  0  0  0
   16.5187   -9.8642    0.0000 H   0  0  0  0  0  0  0  0  0  0  0  0
    8.5444   -9.0735    0.0000 C   0  0  2  0  0  0  0  0  0  0  0  0
    8.0594   -8.4060    0.0000 O   0  0  0  0  0  0  0  0  0  0  0  0
    7.2748   -8.6610    0.0000 C   0  0  2  0  0  0  0  0  0  0  0  0
    7.2748   -9.4860    0.0000 C   0  0  1  0  0  0  0  0  0  0  0  0
    8.0594   -9.7409    0.0000 C   0  0  1  0  0  0  0  0  0  0  0  0
    8.3144  -10.5255    0.0000 O   0  0  0  0  0  0  0  0  0  0  0  0
    6.6074   -9.9709    0.0000 O   0  0  0  0  0  0  0  0  0  0  0  0
    6.6074   -8.1760    0.0000 C   0  0  0  0  0  0  0  0  0  0  0  0
    5.8537   -8.5116    0.0000 O   0  0  0  0  0  0  0  0  0  0  0  0
    5.1863   -8.0267    0.0000 C   0  0  2  0  0  0  0  0  0  0  0  0
    5.2725   -7.2062    0.0000 O   0  0  0  0  0  0  0  0  0  0  0  0
    4.6051   -6.7213    0.0000 C   0  0  2  0  0  0  0  0  0  0  0  0
    3.8514   -7.0568    0.0000 C   0  0  1  0  0  0  0  0  0  0  0  0
    3.7651   -7.8773    0.0000 C   0  0  2  0  0  0  0  0  0  0  0  0
    4.4326   -8.3622    0.0000 C   0  0  1  0  0  0  0  0  0  0  0  0
    4.6913   -5.9008    0.0000 C   0  0  0  0  0  0  0  0  0  0  0  0
    3.0115   -8.2129    0.0000 O   0  0  0  0  0  0  0  0  0  0  0  0
    3.1839   -6.5719    0.0000 O   0  0  0  0  0  0  0  0  0  0  0  0
    4.3464   -9.1827    0.0000 O   0  0  0  0  0  0  0  0  0  0  0  0
   19.3530   -7.3185    0.0000 C   0  0  0  0  0  0  0  0  0  0  0  0
   19.9363   -7.9019    0.0000 C   0  0  0  0  0  0  0  0  0  0  0  0
   20.7332   -7.6883    0.0000 C   0  0  2  0  0  0  0  0  0  0  0  0
   21.3166   -8.2717    0.0000 C   0  0  0  0  0  0  0  0  0  0  0  0
   22.1135   -8.0582    0.0000 O   0  0  0  0  0  0  0  0  0  0  0  0
   22.6968   -8.6415    0.0000 C   0  0  2  0  0  0  0  0  0  0  0  0
   22.4833   -9.4384    0.0000 O   0  0  0  0  0  0  0  0  0  0  0  0
   23.0667  -10.0218    0.0000 C   0  0  1  0  0  0  0  0  0  0  0  0
   23.8636   -9.8083    0.0000 C   0  0  2  0  0  0  0  0  0  0  0  0
   24.0771   -9.0114    0.0000 C   0  0  1  0  0  0  0  0  0  0  0  0
   23.4937   -8.4280    0.0000 C   0  0  1  0  0  0  0  0  0  0  0  0
   22.8531  -10.8187    0.0000 C   0  0  0  0  0  0  0  0  0  0  0  0
   24.8740   -8.7978    0.0000 O   0  0  0  0  0  0  0  0  0  0  0  0
   23.7073   -7.6311    0.0000 O   0  0  0  0  0  0  0  0  0  0  0  0
   24.4469  -10.3916    0.0000 O   0  0  0  0  0  0  0  0  0  0  0  0
   23.4365  -11.4020    0.0000 O   0  0  0  0  0  0  0  0  0  0  0  0
   20.9467   -6.8914    0.0000 C   0  0  0  0  0  0  0  0  0  0  0  0
  1  2  1  0  0  0  0
  2  3  1  0  0  0  0
  3  4  1  0  0  0  0
  4  5  1  0  0  0  0
  5  6  1  0  0  0  0
  6  7  2  0  0  0  0
  7  8  1  0  0  0  0
  8  9  1  0  0  0  0
  9 10  1  0  0  0  0
 10 11  1  0  0  0  0
 11 12  1  0  0  0  0
 12 13  1  0  0  0  0
 13 14  1  0  0  0  0
 14 15  1  0  0  0  0
 15 16  1  0  0  0  0
 16 17  1  0  0  0  0
 17 18  1  0  0  0  0
 18 19  2  0  0  0  0
 19 20  1  0  0  0  0
  1 20  1  0  0  0  0
  1 12  1  0  0  0  0
 13 18  1  0  0  0  0
  2  9  1  0  0  0  0
  4  8  1  0  0  0  0
 16 21  1  1  0  0  0
 13 22  1  1  0  0  0
  9 23  1  1  0  0  0
  7 24  1  6  0  0  0
  1 25  1  1  0  0  0
  4 26  1  6  0  0  0
  8 27  1  6  0  0  0
 12 28  1  6  0  0  0
 29 21  1  1  0  0  0
 29 30  1  0  0  0  0
 30 31  1  0  0  0  0
 31 32  1  0  0  0  0
 32 33  1  0  0  0  0
 33 34  1  0  0  0  0
 34 29  1  0  0  0  0
 31 35  1  1  0  0  0
 33 36  1  1  0  0  0
 34 37  1  6  0  0  0
 32 38  1  6  0  0  0
 35 39  1  0  0  0  0
 40 37  1  1  0  0  0
 40 41  1  0  0  0  0
 41 42  1  0  0  0  0
 42 43  1  0  0  0  0
 43 44  1  0  0  0  0
 44 45  1  0  0  0  0
 45 40  1  0  0  0  0
 43 46  1  1  0  0  0
 42 47  1  6  0  0  0
 44 48  1  6  0  0  0
 45 49  1  6  0  0  0
  2 50  1  6  0  0  0
 51 38  1  1  0  0  0
 51 52  1  0  0  0  0
 52 53  1  0  0  0  0
 53 54  1  0  0  0  0
 54 55  1  0  0  0  0
 55 51  1  0  0  0  0
 55 56  1  6  0  0  0
 54 57  1  1  0  0  0
 53 58  1  6  0  0  0
 58 59  1  0  0  0  0
 60 59  1  1  0  0  0
 60 61  1  0  0  0  0
 61 62  1  0  0  0  0
 62 63  1  0  0  0  0
 63 64  1  0  0  0  0
 64 65  1  0  0  0  0
 65 60  1  0  0  0  0
 62 66  1  6  0  0  0
 64 67  1  6  0  0  0
 63 68  1  1  0  0  0
 65 69  1  6  0  0  0
  6 70  1  0  0  0  0
 70 71  1  0  0  0  0
 71 72  1  0  0  0  0
 72 73  1  0  0  0  0
 73 74  1  0  0  0  0
 75 74  1  1  0  0  0
 75 76  1  0  0  0  0
 76 77  1  0  0  0  0
 77 78  1  0  0  0  0
 78 79  1  0  0  0  0
 79 80  1  0  0  0  0
 80 75  1  0  0  0  0
 77 81  1  1  0  0  0
 79 82  1  1  0  0  0
 80 83  1  6  0  0  0
 78 84  1  6  0  0  0
 81 85  1  0  0  0  0
 72 86  1  1  0  0  0
M  END
>  <cdx:fragmentId>
5

$$$$
