450224.cdx
  Mrv1902 05222410212D          

 75 84  0  0  0  0            999 V2000
   15.8013   -9.4569    0.0000 C   0  0  1  0  0  0  0  0  0  0  0  0
   16.5127   -9.0393    0.0000 C   0  0  2  0  0  0  0  0  0  0  0  0
   17.2992   -9.2885    0.0000 C   0  0  0  0  0  0  0  0  0  0  0  0
   17.7793   -8.6176    0.0000 C   0  0  2  0  0  0  0  0  0  0  0  0
   18.5620   -8.3570    0.0000 O   0  0  0  0  0  0  0  0  0  0  0  0
   18.5561   -7.5320    0.0000 C   0  0  2  0  0  0  0  0  0  0  0  0
   17.7696   -7.2828    0.0000 C   0  0  2  0  0  0  0  0  0  0  0  0
   17.2895   -7.9537    0.0000 C   0  0  2  0  0  0  0  0  0  0  0  0
   16.5068   -8.2143    0.0000 C   0  0  1  0  0  0  0  0  0  0  0  0
   15.7894   -7.8069    0.0000 C   0  0  0  0  0  0  0  0  0  0  0  0
   15.0779   -8.2246    0.0000 C   0  0  0  0  0  0  0  0  0  0  0  0
   15.0838   -9.0496    0.0000 C   0  0  2  0  0  0  0  0  0  0  0  0
   14.3724   -9.4672    0.0000 C   0  0  1  0  0  0  0  0  0  0  0  0
   13.6549   -9.0599    0.0000 C   0  0  0  0  0  0  0  0  0  0  0  0
   12.9435   -9.4775    0.0000 C   0  0  0  0  0  0  0  0  0  0  0  0
   12.9494  -10.3025    0.0000 C   0  0  1  0  0  0  0  0  0  0  0  0
   13.6668  -10.7098    0.0000 C   0  0  0  0  0  0  0  0  0  0  0  0
   14.3783  -10.2922    0.0000 C   0  0  0  0  0  0  0  0  0  0  0  0
   15.0958  -10.6995    0.0000 C   0  0  0  0  0  0  0  0  0  0  0  0
   15.8072  -10.2819    0.0000 C   0  0  0  0  0  0  0  0  0  0  0  0
   18.4639   -6.7122    0.0000 O   0  0  0  0  0  0  0  0  0  0  0  0
   19.3122   -7.8621    0.0000 C   0  0  0  0  0  0  0  0  0  0  0  0
   19.9761   -7.3724    0.0000 C   0  0  0  0  0  0  0  0  0  0  0  0
   19.8839   -6.5526    0.0000 C   0  0  2  0  0  0  0  0  0  0  0  0
   19.1278   -6.2225    0.0000 C   0  0  0  0  0  0  0  0  0  0  0  0
   12.2379  -10.7202    0.0000 O   0  0  0  0  0  0  0  0  0  0  0  0
   14.3664   -8.6422    0.0000 C   0  0  0  0  0  0  0  0  0  0  0  0
   16.5068   -7.3893    0.0000 C   0  0  0  0  0  0  0  0  0  0  0  0
   17.5090   -6.5000    0.0000 C   0  0  0  0  0  0  0  0  0  0  0  0
   20.5478   -6.0628    0.0000 C   0  0  0  0  0  0  0  0  0  0  0  0
   15.7953   -8.6319    0.0000 H   0  0  0  0  0  0  0  0  0  0  0  0
   18.2690   -9.2815    0.0000 H   0  0  0  0  0  0  0  0  0  0  0  0
   16.9225   -7.2148    0.0000 H   0  0  0  0  0  0  0  0  0  0  0  0
   15.0898   -9.8745    0.0000 H   0  0  0  0  0  0  0  0  0  0  0  0
   11.5205  -10.3128    0.0000 C   0  0  2  0  0  0  0  0  0  0  0  0
   11.5116   -9.4879    0.0000 O   0  0  0  0  0  0  0  0  0  0  0  0
   10.7927   -9.0832    0.0000 C   0  0  1  0  0  0  0  0  0  0  0  0
   10.0827   -9.4879    0.0000 C   0  0  2  0  0  0  0  0  0  0  0  0
   10.0827  -10.3128    0.0000 C   0  0  1  0  0  0  0  0  0  0  0  0
   10.7927  -10.7175    0.0000 C   0  0  1  0  0  0  0  0  0  0  0  0
   10.7904   -8.2582    0.0000 C   0  0  0  0  0  0  0  0  0  0  0  0
    9.3694  -10.7273    0.0000 O   0  0  0  0  0  0  0  0  0  0  0  0
   10.7883  -11.5425    0.0000 O   0  0  0  0  0  0  0  0  0  0  0  0
    9.3694   -9.0734    0.0000 O   0  0  0  0  0  0  0  0  0  0  0  0
   10.0760   -7.8457    0.0000 O   0  0  0  0  0  0  0  0  0  0  0  0
   10.0669  -11.9428    0.0000 C   0  0  2  0  0  0  0  0  0  0  0  0
    9.3607  -11.5163    0.0000 O   0  0  0  0  0  0  0  0  0  0  0  0
    8.6382  -11.9146    0.0000 C   0  0  2  0  0  0  0  0  0  0  0  0
    8.6317  -12.7453    0.0000 C   0  0  1  0  0  0  0  0  0  0  0  0
    9.3413  -13.1661    0.0000 C   0  0  2  0  0  0  0  0  0  0  0  0
   10.0671  -12.7621    0.0000 C   0  0  1  0  0  0  0  0  0  0  0  0
    7.9133  -13.1508    0.0000 O   0  0  0  0  0  0  0  0  0  0  0  0
    7.9295  -11.4923    0.0000 C   0  0  0  0  0  0  0  0  0  0  0  0
    9.3300  -13.9910    0.0000 O   0  0  0  0  0  0  0  0  0  0  0  0
   10.7784  -13.1801    0.0000 O   0  0  0  0  0  0  0  0  0  0  0  0
   16.5187   -9.8642    0.0000 H   0  0  0  0  0  0  0  0  0  0  0  0
    8.5444   -9.0735    0.0000 C   0  0  2  0  0  0  0  0  0  0  0  0
    8.0594   -8.4060    0.0000 O   0  0  0  0  0  0  0  0  0  0  0  0
    7.2748   -8.6610    0.0000 C   0  0  2  0  0  0  0  0  0  0  0  0
    7.2748   -9.4860    0.0000 C   0  0  1  0  0  0  0  0  0  0  0  0
    8.0594   -9.7409    0.0000 C   0  0  1  0  0  0  0  0  0  0  0  0
    8.3144  -10.5255    0.0000 O   0  0  0  0  0  0  0  0  0  0  0  0
    6.6074   -9.9709    0.0000 O   0  0  0  0  0  0  0  0  0  0  0  0
    6.6074   -8.1760    0.0000 C   0  0  0  0  0  0  0  0  0  0  0  0
    5.8537   -8.5116    0.0000 O   0  0  0  0  0  0  0  0  0  0  0  0
    5.1863   -8.0267    0.0000 C   0  0  2  0  0  0  0  0  0  0  0  0
    5.2725   -7.2062    0.0000 O   0  0  0  0  0  0  0  0  0  0  0  0
    4.6051   -6.7213    0.0000 C   0  0  2  0  0  0  0  0  0  0  0  0
    3.8514   -7.0568    0.0000 C   0  0  1  0  0  0  0  0  0  0  0  0
    3.7651   -7.8773    0.0000 C   0  0  2  0  0  0  0  0  0  0  0  0
    4.4326   -8.3622    0.0000 C   0  0  1  0  0  0  0  0  0  0  0  0
    4.6913   -5.9008    0.0000 C   0  0  0  0  0  0  0  0  0  0  0  0
    3.0115   -8.2129    0.0000 O   0  0  0  0  0  0  0  0  0  0  0  0
    3.1839   -6.5719    0.0000 O   0  0  0  0  0  0  0  0  0  0  0  0
    4.3464   -9.1827    0.0000 O   0  0  0  0  0  0  0  0  0  0  0  0
  1  2  1  0  0  0  0
  2  3  1  0  0  0  0
  3  4  1  0  0  0  0
  4  5  1  0  0  0  0
  6  5  1  6  0  0  0
  6  7  1  0  0  0  0
  7  8  1  0  0  0  0
  8  9  1  0  0  0  0
  9 10  1  0  0  0  0
 10 11  1  0  0  0  0
 11 12  1  0  0  0  0
 12 13  1  0  0  0  0
 13 14  1  0  0  0  0
 14 15  1  0  0  0  0
 15 16  1  0  0  0  0
 16 17  1  0  0  0  0
 17 18  1  0  0  0  0
 18 19  2  0  0  0  0
 19 20  1  0  0  0  0
  1 20  1  0  0  0  0
  1 12  1  0  0  0  0
 13 18  1  0  0  0  0
  2  9  1  0  0  0  0
  4  8  1  0  0  0  0
 22 23  1  0  0  0  0
 23 24  1  0  0  0  0
 24 25  1  0  0  0  0
 21 25  1  0  0  0  0
  6 21  1  0  0  0  0
  6 22  1  0  0  0  0
 16 26  1  1  0  0  0
 13 27  1  1  0  0  0
  9 28  1  1  0  0  0
  7 29  1  6  0  0  0
 24 30  1  6  0  0  0
  1 31  1  1  0  0  0
  4 32  1  6  0  0  0
  8 33  1  6  0  0  0
 12 34  1  6  0  0  0
 35 26  1  1  0  0  0
 35 36  1  0  0  0  0
 36 37  1  0  0  0  0
 37 38  1  0  0  0  0
 38 39  1  0  0  0  0
 39 40  1  0  0  0  0
 40 35  1  0  0  0  0
 37 41  1  1  0  0  0
 39 42  1  1  0  0  0
 40 43  1  6  0  0  0
 38 44  1  6  0  0  0
 41 45  1  0  0  0  0
 46 43  1  1  0  0  0
 46 47  1  0  0  0  0
 47 48  1  0  0  0  0
 48 49  1  0  0  0  0
 49 50  1  0  0  0  0
 50 51  1  0  0  0  0
 51 46  1  0  0  0  0
 49 52  1  1  0  0  0
 48 53  1  6  0  0  0
 50 54  1  6  0  0  0
 51 55  1  6  0  0  0
  2 56  1  6  0  0  0
 57 44  1  1  0  0  0
 57 58  1  0  0  0  0
 58 59  1  0  0  0  0
 59 60  1  0  0  0  0
 60 61  1  0  0  0  0
 61 57  1  0  0  0  0
 61 62  1  6  0  0  0
 60 63  1  1  0  0  0
 59 64  1  6  0  0  0
 64 65  1  0  0  0  0
 66 65  1  1  0  0  0
 66 67  1  0  0  0  0
 67 68  1  0  0  0  0
 68 69  1  0  0  0  0
 69 70  1  0  0  0  0
 70 71  1  0  0  0  0
 71 66  1  0  0  0  0
 68 72  1  6  0  0  0
 70 73  1  6  0  0  0
 69 74  1  1  0  0  0
 71 75  1  6  0  0  0
M  END
>  <cdx:fragmentId>
5

$$$$
