450223.cdx
  Mrv1902 05222410222D          

 85 93  0  0  0  0            999 V2000
    8.3512  -10.1888    0.0000 C   0  0  0  0  0  0  0  0  0  0  0  0
    8.3512  -11.0137    0.0000 C   0  0  1  0  0  0  0  0  0  0  0  0
    9.0656  -11.4262    0.0000 C   0  0  0  0  0  0  0  0  0  0  0  0
    9.7801  -11.0137    0.0000 C   0  0  1  0  0  0  0  0  0  0  0  0
    9.7801  -10.1888    0.0000 C   0  0  2  0  0  0  0  0  0  0  0  0
    9.0656   -9.7763    0.0000 C   0  0  0  0  0  0  0  0  0  0  0  0
   10.4946  -11.4262    0.0000 C   0  0  0  0  0  0  0  0  0  0  0  0
   11.2091  -11.0137    0.0000 C   0  0  0  0  0  0  0  0  0  0  0  0
   11.2091  -10.1888    0.0000 C   0  0  2  0  0  0  0  0  0  0  0  0
   10.4946   -9.7763    0.0000 C   0  0  2  0  0  0  0  0  0  0  0  0
   11.9235   -9.7763    0.0000 C   0  0  1  0  0  0  0  0  0  0  0  0
   11.9235   -8.9513    0.0000 C   0  0  1  0  0  0  0  0  0  0  0  0
   11.2091   -8.5388    0.0000 C   0  0  1  0  0  0  0  0  0  0  0  0
   10.4946   -8.9513    0.0000 C   0  0  1  0  0  0  0  0  0  0  0  0
    7.6367  -11.4262    0.0000 O   0  0  0  0  0  0  0  0  0  0  0  0
    9.7801   -9.3637    0.0000 C   0  0  0  0  0  0  0  0  0  0  0  0
   11.2091   -9.3637    0.0000 H   0  0  0  0  0  0  0  0  0  0  0  0
   11.9235  -10.6013    0.0000 O   0  0  0  0  0  0  0  0  0  0  0  0
   11.9235   -8.1263    0.0000 C   0  0  0  0  0  0  0  0  0  0  0  0
   11.2091   -7.7138    0.0000 O   0  0  0  0  0  0  0  0  0  0  0  0
    9.7801  -11.8387    0.0000 H   0  0  0  0  0  0  0  0  0  0  0  0
   10.4946  -10.6013    0.0000 H   0  0  0  0  0  0  0  0  0  0  0  0
    9.7801   -8.5388    0.0000 O   0  0  0  0  0  0  0  0  0  0  0  0
    6.9399  -13.5054    0.0000 C   0  0  2  0  0  0  0  0  0  0  0  0
    7.6585  -13.9107    0.0000 C   0  0  2  0  0  0  0  0  0  0  0  0
    8.3688  -13.4910    0.0000 C   0  0  2  0  0  0  0  0  0  0  0  0
    8.3605  -12.6660    0.0000 C   0  0  0  0  0  0  0  0  0  0  0  0
    7.6419  -12.2608    0.0000 C   0  0  1  0  0  0  0  0  0  0  0  0
    6.9316  -12.6805    0.0000 O   0  0  0  0  0  0  0  0  0  0  0  0
    6.2297  -13.9251    0.0000 C   0  0  0  0  0  0  0  0  0  0  0  0
    7.6669  -14.7356    0.0000 O   0  0  0  0  0  0  0  0  0  0  0  0
    9.0874  -13.8962    0.0000 O   0  0  0  0  0  0  0  0  0  0  0  0
    6.9566  -15.1553    0.0000 C   0  0  2  0  0  0  0  0  0  0  0  0
    6.2380  -14.7501    0.0000 O   0  0  0  0  0  0  0  0  0  0  0  0
    5.5277  -15.1698    0.0000 C   0  0  1  0  0  0  0  0  0  0  0  0
    5.5361  -15.9948    0.0000 C   0  0  2  0  0  0  0  0  0  0  0  0
    6.2547  -16.4000    0.0000 C   0  0  1  0  0  0  0  0  0  0  0  0
    6.9650  -15.9803    0.0000 C   0  0  0  0  0  0  0  0  0  0  0  0
    4.8091  -14.7645    0.0000 C   0  0  0  0  0  0  0  0  0  0  0  0
    6.2630  -17.2250    0.0000 O   0  0  0  0  0  0  0  0  0  0  0  0
    4.8258  -16.4145    0.0000 O   0  0  0  0  0  0  0  0  0  0  0  0
    4.1062  -16.0110    0.0000 C   0  0  2  0  0  0  0  0  0  0  0  0
    4.0958  -15.1861    0.0000 O   0  0  0  0  0  0  0  0  0  0  0  0
    3.3762  -14.7826    0.0000 C   0  0  1  0  0  0  0  0  0  0  0  0
    2.6670  -15.2041    0.0000 C   0  0  2  0  0  0  0  0  0  0  0  0
    2.6774  -16.0290    0.0000 C   0  0  2  0  0  0  0  0  0  0  0  0
    3.3970  -16.4325    0.0000 C   0  0  1  0  0  0  0  0  0  0  0  0
    3.3658  -13.9577    0.0000 C   0  0  0  0  0  0  0  0  0  0  0  0
    1.9473  -14.8007    0.0000 O   0  0  0  0  0  0  0  0  0  0  0  0
    1.9682  -16.4505    0.0000 O   0  0  0  0  0  0  0  0  0  0  0  0
    3.4081  -17.2574    0.0000 O   0  0  0  0  0  0  0  0  0  0  0  0
    9.7977  -13.4765    0.0000 C   0  0  0  0  0  0  0  0  0  0  0  0
    6.9816  -17.6302    0.0000 C   0  0  0  0  0  0  0  0  0  0  0  0
    1.2485  -16.0471    0.0000 C   0  0  0  0  0  0  0  0  0  0  0  0
   12.7082  -10.0312    0.0000 C   0  0  0  0  0  0  0  0  0  0  0  0
   13.1931   -9.3637    0.0000 C   0  0  0  0  0  0  0  0  0  0  0  0
   12.7082   -8.6963    0.0000 C   0  0  2  0  0  0  0  0  0  0  0  0
   12.9631   -7.9117    0.0000 C   0  0  1  0  0  0  0  0  0  0  0  0
   13.4928   -8.4414    0.0000 H   0  0  0  0  0  0  0  0  0  0  0  0
   12.4111   -7.2986    0.0000 C   0  0  0  0  0  0  0  0  0  0  0  0
   13.7701   -7.7402    0.0000 O   0  0  0  0  0  0  0  0  0  0  0  0
    8.9559   -8.5752    0.0000 C   0  0  0  0  0  0  0  0  0  0  0  0
    8.5123   -7.8796    0.0000 O   0  0  0  0  0  0  0  0  0  0  0  0
    8.5754   -9.3072    0.0000 C   0  0  0  0  0  0  0  0  0  0  0  0
   11.6113   -6.9935    0.0000 C   0  0  0  0  0  0  0  0  0  0  0  0
   12.4363   -6.9817    0.0000 O   0  0  0  0  0  0  0  0  0  0  0  0
   11.1887   -6.2850    0.0000 C   0  0  0  0  0  0  0  0  0  0  0  0
   11.5910   -5.5647    0.0000 C   0  0  0  0  0  0  0  0  0  0  0  0
   11.1684   -4.8562    0.0000 C   0  0  0  0  0  0  0  0  0  0  0  0
   11.5661   -4.1334    0.0000 C   0  0  0  0  0  0  0  0  0  0  0  0
   11.1391   -3.4275    0.0000 C   0  0  0  0  0  0  0  0  0  0  0  0
   10.3275   -3.4213    0.0000 C   0  0  0  0  0  0  0  0  0  0  0  0
    9.9164   -4.1364    0.0000 C   0  0  0  0  0  0  0  0  0  0  0  0
   10.3301   -4.8345    0.0000 C   0  0  0  0  0  0  0  0  0  0  0  0
    1.9369  -13.9757    0.0000 C   0  0  2  0  0  0  0  0  0  0  0  0
    2.6463  -13.5545    0.0000 O   0  0  0  0  0  0  0  0  0  0  0  0
    2.6362  -12.7296    0.0000 C   0  0  1  0  0  0  0  0  0  0  0  0
    1.9153  -12.3267    0.0000 C   0  0  2  0  0  0  0  0  0  0  0  0
    1.2064  -12.7488    0.0000 C   0  0  1  0  0  0  0  0  0  0  0  0
    1.2170  -13.5745    0.0000 C   0  0  1  0  0  0  0  0  0  0  0  0
    3.3452  -12.3077    0.0000 C   0  0  0  0  0  0  0  0  0  0  0  0
    0.4866  -12.3457    0.0000 O   0  0  0  0  0  0  0  0  0  0  0  0
    1.9040  -11.5018    0.0000 O   0  0  0  0  0  0  0  0  0  0  0  0
    0.5084  -13.9970    0.0000 O   0  0  0  0  0  0  0  0  0  0  0  0
    3.3344  -11.4828    0.0000 O   0  0  0  0  0  0  0  0  0  0  0  0
  1  2  1  0  0  0  0
  2  3  1  0  0  0  0
  3  4  1  0  0  0  0
  4  5  1  0  0  0  0
  5  6  1  0  0  0  0
  6  1  1  0  0  0  0
  4  7  1  0  0  0  0
  7  8  1  0  0  0  0
  8  9  1  0  0  0  0
  9 10  1  0  0  0  0
 10  5  1  0  0  0  0
  9 11  1  0  0  0  0
 11 12  1  0  0  0  0
 12 13  1  0  0  0  0
 13 14  1  0  0  0  0
 14 10  1  0  0  0  0
  2 15  1  1  0  0  0
  5 16  1  1  0  0  0
  9 17  1  1  0  0  0
 11 18  1  1  0  0  0
 12 19  1  1  0  0  0
 13 20  1  1  0  0  0
  4 21  1  6  0  0  0
 10 22  1  6  0  0  0
 14 23  1  6  0  0  0
 24 25  1  0  0  0  0
 25 26  1  0  0  0  0
 26 27  1  0  0  0  0
 27 28  1  0  0  0  0
 28 29  1  0  0  0  0
 29 24  1  0  0  0  0
 24 30  1  1  0  0  0
 25 31  1  6  0  0  0
 26 32  1  6  0  0  0
 33 31  1  1  0  0  0
 33 34  1  0  0  0  0
 34 35  1  0  0  0  0
 35 36  1  0  0  0  0
 36 37  1  0  0  0  0
 37 38  1  0  0  0  0
 38 33  1  0  0  0  0
 35 39  1  1  0  0  0
 37 40  1  1  0  0  0
 36 41  1  6  0  0  0
 42 41  1  1  0  0  0
 42 43  1  0  0  0  0
 43 44  1  0  0  0  0
 44 45  1  0  0  0  0
 45 46  1  0  0  0  0
 46 47  1  0  0  0  0
 47 42  1  0  0  0  0
 44 48  1  1  0  0  0
 45 49  1  6  0  0  0
 46 50  1  6  0  0  0
 47 51  1  6  0  0  0
 32 52  1  0  0  0  0
 40 53  1  0  0  0  0
 50 54  1  0  0  0  0
 28 15  1  1  0  0  0
 11 55  1  0  0  0  0
 55 56  1  0  0  0  0
 56 57  1  0  0  0  0
 57 12  1  0  0  0  0
 57 58  1  0  0  0  0
 57 59  1  6  0  0  0
 58 60  1  0  0  0  0
 58 61  1  1  0  0  0
 23 62  1  0  0  0  0
 62 63  2  0  0  0  0
 62 64  1  0  0  0  0
 20 65  1  0  0  0  0
 65 66  2  0  0  0  0
 65 67  1  0  0  0  0
 67 68  2  0  0  0  0
 68 69  1  0  0  0  0
 69 70  2  0  0  0  0
 70 71  1  0  0  0  0
 71 72  2  0  0  0  0
 72 73  1  0  0  0  0
 73 74  2  0  0  0  0
 74 69  1  0  0  0  0
 75 49  1  1  0  0  0
 75 76  1  0  0  0  0
 76 77  1  0  0  0  0
 77 78  1  0  0  0  0
 78 79  1  0  0  0  0
 79 80  1  0  0  0  0
 80 75  1  0  0  0  0
 77 81  1  1  0  0  0
 79 82  1  1  0  0  0
 78 83  1  6  0  0  0
 80 84  1  6  0  0  0
 81 85  1  0  0  0  0
M  END
>  <cdx:fragmentId>
92

$$$$
