4504.cdx
  Mrv1902 05222410202D          

 38 42  0  0  0  0            999 V2000
    5.1532   -9.3392    0.0000 O   0  0  0  0  0  0  0  0  0  0  0  0
    3.7525   -7.7062    0.0000 C   0  0  2  0  0  0  0  0  0  0  0  0
    3.0360   -8.1152    0.0000 C   0  0  2  0  0  0  0  0  0  0  0  0
    3.0320   -8.9402    0.0000 C   0  0  1  0  0  0  0  0  0  0  0  0
    3.7444   -9.3562    0.0000 C   0  0  2  0  0  0  0  0  0  0  0  0
    4.4609   -8.9472    0.0000 C   0  0  1  0  0  0  0  0  0  0  0  0
    4.4650   -8.1222    0.0000 O   0  0  0  0  0  0  0  0  0  0  0  0
    3.7566   -6.8812    0.0000 C   0  0  0  0  0  0  0  0  0  0  0  0
    2.3155   -9.3491    0.0000 O   0  0  0  0  0  0  0  0  0  0  0  0
    3.7403  -10.1812    0.0000 O   0  0  0  0  0  0  0  0  0  0  0  0
    2.3236   -7.6992    0.0000 O   0  0  0  0  0  0  0  0  0  0  0  0
    3.0442   -6.4652    0.0000 O   0  0  0  0  0  0  0  0  0  0  0  0
    5.1532   -7.6892    0.0000 O   0  0  0  0  0  0  0  0  0  0  0  0
    6.5821  -10.1642    0.0000 O   0  0  0  0  0  0  0  0  0  0  0  0
   10.8690   -9.3392    0.0000 C   0  0  0  0  0  0  0  0  0  0  0  0
   10.1545   -8.9267    0.0000 O   0  0  0  0  0  0  0  0  0  0  0  0
    8.7255   -8.9267    0.0000 O   0  0  0  0  0  0  0  0  0  0  0  0
   11.6536   -7.9441    0.0000 O   0  0  0  0  0  0  0  0  0  0  0  0
   12.1385   -7.2767    0.0000 C   0  0  0  0  0  0  0  0  0  0  0  0
   11.6536   -6.6092    0.0000 O   0  0  0  0  0  0  0  0  0  0  0  0
   10.1545   -8.1017    0.0000 C   0  0  0  0  0  0  0  0  0  0  0  0
   10.8690   -7.6892    0.0000 C   0  0  0  0  0  0  0  0  0  0  0  0
   10.8690   -6.8642    0.0000 C   0  0  0  0  0  0  0  0  0  0  0  0
   10.1545   -6.4517    0.0000 C   0  0  0  0  0  0  0  0  0  0  0  0
    8.7255   -8.1017    0.0000 C   0  0  0  0  0  0  0  0  0  0  0  0
    9.4400   -7.6892    0.0000 C   0  0  0  0  0  0  0  0  0  0  0  0
    9.4400   -6.8642    0.0000 C   0  0  0  0  0  0  0  0  0  0  0  0
    8.7255   -6.4517    0.0000 O   0  0  0  0  0  0  0  0  0  0  0  0
    8.0111   -6.8642    0.0000 C   0  0  0  0  0  0  0  0  0  0  0  0
    8.0111   -7.6892    0.0000 C   0  0  0  0  0  0  0  0  0  0  0  0
    6.5821   -9.3392    0.0000 C   0  0  0  0  0  0  0  0  0  0  0  0
    7.2966   -8.9267    0.0000 C   0  0  0  0  0  0  0  0  0  0  0  0
    7.2966   -8.1017    0.0000 C   0  0  0  0  0  0  0  0  0  0  0  0
    6.5821   -7.6892    0.0000 C   0  0  0  0  0  0  0  0  0  0  0  0
    5.8677   -8.1017    0.0000 C   0  0  0  0  0  0  0  0  0  0  0  0
    5.8677   -8.9267    0.0000 C   0  0  0  0  0  0  0  0  0  0  0  0
    5.1532   -6.8642    0.0000 C   0  0  0  0  0  0  0  0  0  0  0  0
    7.2966  -10.5767    0.0000 C   0  0  0  0  0  0  0  0  0  0  0  0
  2  3  1  0  0  0  0
  3  4  1  0  0  0  0
  4  5  1  0  0  0  0
  5  6  1  0  0  0  0
  6  7  1  0  0  0  0
  7  2  1  0  0  0  0
  2  8  1  1  0  0  0
  4  9  1  1  0  0  0
  5 10  1  6  0  0  0
  3 11  1  6  0  0  0
  8 12  1  0  0  0  0
 35 13  1  0  0  0  0
 31 14  1  0  0  0  0
 16 15  1  0  0  0  0
 21 16  1  0  0  0  0
 25 17  2  0  0  0  0
 18 22  1  0  0  0  0
 19 18  1  0  0  0  0
 20 19  1  0  0  0  0
 23 20  1  0  0  0  0
 21 26  2  0  0  0  0
 22 21  1  0  0  0  0
 23 22  2  0  0  0  0
 24 23  1  0  0  0  0
 27 24  2  0  0  0  0
 25 30  1  0  0  0  0
 26 25  1  0  0  0  0
 27 26  1  0  0  0  0
 28 27  1  0  0  0  0
 29 28  1  0  0  0  0
 30 29  2  0  0  0  0
 33 30  1  0  0  0  0
 36  1  1  0  0  0  0
  6  1  1  1  0  0  0
 31 36  1  0  0  0  0
 32 31  2  0  0  0  0
 33 32  1  0  0  0  0
 34 33  2  0  0  0  0
 35 34  1  0  0  0  0
 36 35  2  0  0  0  0
 13 37  1  0  0  0  0
 14 38  1  0  0  0  0
M  END
>  <cdx:fragmentId>
5

$$$$
