450879.cdx
  Mrv1902 05222410262D          

 24 25  0  0  0  0            999 V2000
    7.2587   -8.4062    0.0000 C   0  0  0  0  0  0  0  0  0  0  0  0
    7.9732   -8.8187    0.0000 C   0  0  0  0  0  0  0  0  0  0  0  0
    8.6877   -8.4062    0.0000 C   0  0  0  0  0  0  0  0  0  0  0  0
    7.2587   -7.5812    0.0000 O   0  0  0  0  0  0  0  0  0  0  0  0
    9.4022   -8.8187    0.0000 C   0  0  0  0  0  0  0  0  0  0  0  0
   10.1166   -8.4062    0.0000 C   0  0  0  0  0  0  0  0  0  0  0  0
   10.8311   -8.8187    0.0000 C   0  0  0  0  0  0  0  0  0  0  0  0
   10.8311   -9.6437    0.0000 C   0  0  0  0  0  0  0  0  0  0  0  0
   10.1166  -10.0562    0.0000 C   0  0  0  0  0  0  0  0  0  0  0  0
    9.4022   -9.6437    0.0000 C   0  0  0  0  0  0  0  0  0  0  0  0
   11.5456  -10.0562    0.0000 O   0  0  0  0  0  0  0  0  0  0  0  0
    6.5443   -8.8187    0.0000 C   0  0  0  0  0  0  0  0  0  0  0  0
    6.5443   -9.6437    0.0000 C   0  0  0  0  0  0  0  0  0  0  0  0
    5.8298  -10.0562    0.0000 C   0  0  0  0  0  0  0  0  0  0  0  0
    5.1153   -9.6437    0.0000 C   0  0  0  0  0  0  0  0  0  0  0  0
    5.1153   -8.8187    0.0000 C   0  0  0  0  0  0  0  0  0  0  0  0
    5.8298   -8.4062    0.0000 C   0  0  0  0  0  0  0  0  0  0  0  0
    4.4009   -8.4062    0.0000 C   0  0  0  0  0  0  0  0  0  0  0  0
    3.6864   -8.8187    0.0000 C   0  0  0  0  0  0  0  0  0  0  0  0
    2.9719   -8.4062    0.0000 C   0  0  0  0  0  0  0  0  0  0  0  0
    2.9719   -7.5812    0.0000 C   0  0  0  0  0  0  0  0  0  0  0  0
    2.2575   -8.8187    0.0000 C   0  0  0  0  0  0  0  0  0  0  0  0
    4.4009  -10.0562    0.0000 O   0  0  0  0  0  0  0  0  0  0  0  0
    7.2587  -10.0562    0.0000 O   0  0  0  0  0  0  0  0  0  0  0  0
  1  2  1  0  0  0  0
  2  3  2  0  0  0  0
  1  4  2  0  0  0  0
  5  6  1  0  0  0  0
  6  7  2  0  0  0  0
  7  8  1  0  0  0  0
  8  9  2  0  0  0  0
  9 10  1  0  0  0  0
  5 10  2  0  0  0  0
  8 11  1  0  0  0  0
  3  5  1  0  0  0  0
 12 13  1  0  0  0  0
 13 14  2  0  0  0  0
 14 15  1  0  0  0  0
 15 16  2  0  0  0  0
 16 17  1  0  0  0  0
 12 17  2  0  0  0  0
 18 19  1  0  0  0  0
 19 20  2  0  0  0  0
 20 21  1  0  0  0  0
 20 22  1  0  0  0  0
 16 18  1  0  0  0  0
 15 23  1  0  0  0  0
 13 24  1  0  0  0  0
  1 12  1  0  0  0  0
M  END
>  <cdx:groupId>
22070

>  <cdx:fragmentId>
22022

$$$$
