6450832.cdx
  Mrv1902 05222410232D          

 14 15  0  0  0  0            999 V2000
    6.8458  -11.9029    0.0000 O   0  0  0  0  0  0  0  0  0  0  0  0
    6.1783  -12.3878    0.0000 C   0  0  0  0  0  0  0  0  0  0  0  0
    6.4333  -13.1725    0.0000 C   0  0  0  0  0  0  0  0  0  0  0  0
    7.2583  -13.1725    0.0000 C   0  0  0  0  0  0  0  0  0  0  0  0
    7.5132  -12.3878    0.0000 C   0  0  0  0  0  0  0  0  0  0  0  0
    7.6847  -11.5809    0.0000 C   0  0  0  0  0  0  0  0  0  0  0  0
    8.4694  -11.3259    0.0000 C   0  0  0  0  0  0  0  0  0  0  0  0
    9.0824  -11.8780    0.0000 C   0  0  0  0  0  0  0  0  0  0  0  0
    8.9109  -12.6849    0.0000 C   0  0  0  0  0  0  0  0  0  0  0  0
    8.1263  -12.9399    0.0000 C   0  0  0  0  0  0  0  0  0  0  0  0
    7.9548  -13.7468    0.0000 C   0  0  0  0  0  0  0  0  0  0  0  0
    6.8778  -11.4093    0.0000 C   0  0  0  0  0  0  0  0  0  0  0  0
    7.4298  -10.7963    0.0000 C   0  0  0  0  0  0  0  0  0  0  0  0
    5.3937  -12.1329    0.0000 C   0  0  0  0  0  0  0  0  0  0  0  0
  1  2  1  0  0  0  0
  2  3  1  0  0  0  0
  3  4  1  0  0  0  0
  4  5  1  0  0  0  0
  5  6  1  0  0  0  0
  6  7  1  0  0  0  0
  7  8  1  0  0  0  0
  8  9  2  0  0  0  0
  9 10  1  0  0  0  0
  1  5  1  0  0  0  0
 10  5  1  0  0  0  0
 10 11  2  0  0  0  0
  6 12  1  0  0  0  0
  6 13  1  0  0  0  0
  2 14  1  0  0  0  0
M  END
>  <cdx:groupId>
21991

>  <cdx:fragmentId>
21951

$$$$
