450918.cdx
  Mrv1902 05222410262D          

 37 42  0  0  0  0            999 V2000
   13.6686  -10.1695    0.0000 C   0  0  1  0  0  0  0  0  0  0  0  0
   14.3831   -9.7570    0.0000 C   0  0  2  0  0  0  0  0  0  0  0  0
   15.1677  -10.0119    0.0000 C   0  0  0  0  0  0  0  0  0  0  0  0
   15.6526   -9.3445    0.0000 C   0  0  2  0  0  0  0  0  0  0  0  0
   16.4373   -9.0895    0.0000 O   0  0  0  0  0  0  0  0  0  0  0  0
   16.4373   -8.2645    0.0000 C   0  0  2  0  0  0  0  0  0  0  0  0
   15.6526   -8.0096    0.0000 C   0  0  2  0  0  0  0  0  0  0  0  0
   15.1677   -8.6770    0.0000 C   0  0  2  0  0  0  0  0  0  0  0  0
   14.3831   -8.9320    0.0000 C   0  0  1  0  0  0  0  0  0  0  0  0
   13.6686   -8.5195    0.0000 C   0  0  0  0  0  0  0  0  0  0  0  0
   12.9542   -8.9320    0.0000 C   0  0  0  0  0  0  0  0  0  0  0  0
   12.9542   -9.7570    0.0000 C   0  0  2  0  0  0  0  0  0  0  0  0
   12.2397  -10.1695    0.0000 C   0  0  1  0  0  0  0  0  0  0  0  0
   11.5252   -9.7570    0.0000 C   0  0  0  0  0  0  0  0  0  0  0  0
   10.8107  -10.1695    0.0000 C   0  0  0  0  0  0  0  0  0  0  0  0
   10.8107  -10.9945    0.0000 C   0  0  1  0  0  0  0  0  0  0  0  0
   11.5252  -11.4070    0.0000 C   0  0  0  0  0  0  0  0  0  0  0  0
   12.2397  -10.9945    0.0000 C   0  0  2  0  0  0  0  0  0  0  0  0
   12.9542  -11.4070    0.0000 C   0  0  0  0  0  0  0  0  0  0  0  0
   13.6686  -10.9945    0.0000 C   0  0  0  0  0  0  0  0  0  0  0  0
   16.3510   -7.4441    0.0000 O   0  0  0  0  0  0  0  0  0  0  0  0
   17.1909   -8.6001    0.0000 C   0  0  0  0  0  0  0  0  0  0  0  0
   17.8584   -8.1152    0.0000 C   0  0  0  0  0  0  0  0  0  0  0  0
   17.7721   -7.2947    0.0000 C   0  0  2  0  0  0  0  0  0  0  0  0
   17.0185   -6.9591    0.0000 C   0  0  0  0  0  0  0  0  0  0  0  0
   12.9542  -12.2320    0.0000 O   0  0  0  0  0  0  0  0  0  0  0  0
   12.2397   -9.3445    0.0000 C   0  0  0  0  0  0  0  0  0  0  0  0
   14.3831   -8.1070    0.0000 C   0  0  0  0  0  0  0  0  0  0  0  0
   15.3977   -7.2250    0.0000 C   0  0  0  0  0  0  0  0  0  0  0  0
   18.4396   -6.8098    0.0000 C   0  0  0  0  0  0  0  0  0  0  0  0
   10.0963  -11.4070    0.0000 O   0  0  0  0  0  0  0  0  0  0  0  0
   13.6686   -9.3445    0.0000 H   0  0  0  0  0  0  0  0  0  0  0  0
   14.3831  -10.5820    0.0000 H   0  0  0  0  0  0  0  0  0  0  0  0
   16.1376  -10.0119    0.0000 H   0  0  0  0  0  0  0  0  0  0  0  0
   14.8061   -7.9355    0.0000 H   0  0  0  0  0  0  0  0  0  0  0  0
   12.9542  -10.5820    0.0000 H   0  0  0  0  0  0  0  0  0  0  0  0
   12.2397  -11.8195    0.0000 H   0  0  0  0  0  0  0  0  0  0  0  0
  1  2  1  0  0  0  0
  2  3  1  0  0  0  0
  3  4  1  0  0  0  0
  4  5  1  0  0  0  0
  6  5  1  6  0  0  0
  6  7  1  0  0  0  0
  7  8  1  0  0  0  0
  8  9  1  0  0  0  0
  9 10  1  0  0  0  0
 10 11  1  0  0  0  0
 11 12  1  0  0  0  0
 12 13  1  0  0  0  0
 13 14  1  0  0  0  0
 14 15  1  0  0  0  0
 15 16  1  0  0  0  0
 16 17  1  0  0  0  0
 17 18  1  0  0  0  0
 18 19  1  0  0  0  0
 19 20  1  0  0  0  0
  1 20  1  0  0  0  0
  1 12  1  0  0  0  0
 13 18  1  0  0  0  0
  2  9  1  0  0  0  0
  4  8  1  0  0  0  0
 22 23  1  0  0  0  0
 23 24  1  0  0  0  0
 24 25  1  0  0  0  0
 21 25  1  0  0  0  0
  6 21  1  0  0  0  0
  6 22  1  0  0  0  0
 19 26  2  0  0  0  0
 13 27  1  1  0  0  0
  9 28  1  1  0  0  0
  7 29  1  6  0  0  0
 24 30  1  6  0  0  0
 16 31  1  1  0  0  0
  1 32  1  1  0  0  0
  2 33  1  6  0  0  0
  4 34  1  6  0  0  0
  8 35  1  6  0  0  0
 12 36  1  6  0  0  0
 18 37  1  6  0  0  0
M  END
>  <cdx:fragmentId>
5

$$$$
