6450959.cdx
  Mrv1902 05222410212D          

 26 28  0  0  0  0            999 V2000
    7.6007  -11.6649    0.0000 C   0  0  0  0  0  0  0  0  0  0  0  0
    7.6007  -10.8399    0.0000 C   0  0  0  0  0  0  0  0  0  0  0  0
    6.8863  -10.4274    0.0000 C   0  0  0  0  0  0  0  0  0  0  0  0
    6.1718  -10.8399    0.0000 C   0  0  0  0  0  0  0  0  0  0  0  0
    5.4573  -10.4274    0.0000 C   0  0  0  0  0  0  0  0  0  0  0  0
    4.7429  -10.8399    0.0000 C   0  0  0  0  0  0  0  0  0  0  0  0
    4.7429  -11.6649    0.0000 C   0  0  0  0  0  0  0  0  0  0  0  0
    5.4573  -12.0774    0.0000 C   0  0  0  0  0  0  0  0  0  0  0  0
    6.1718  -11.6649    0.0000 C   0  0  0  0  0  0  0  0  0  0  0  0
    6.8863  -12.0774    0.0000 O   0  0  0  0  0  0  0  0  0  0  0  0
    6.8863   -9.6024    0.0000 O   0  0  0  0  0  0  0  0  0  0  0  0
    8.3152  -10.4274    0.0000 C   0  0  0  0  0  0  0  0  0  0  0  0
    8.3152   -9.6024    0.0000 C   0  0  0  0  0  0  0  0  0  0  0  0
    9.0297   -9.1899    0.0000 C   0  0  0  0  0  0  0  0  0  0  0  0
    9.7441   -9.6024    0.0000 C   0  0  0  0  0  0  0  0  0  0  0  0
    9.7441  -10.4274    0.0000 C   0  0  0  0  0  0  0  0  0  0  0  0
    9.0297  -10.8399    0.0000 C   0  0  0  0  0  0  0  0  0  0  0  0
   10.4586   -9.1899    0.0000 O   0  0  0  0  0  0  0  0  0  0  0  0
    5.4573  -12.9024    0.0000 C   0  0  0  0  0  0  0  0  0  0  0  0
    4.7429  -13.3149    0.0000 C   0  0  0  0  0  0  0  0  0  0  0  0
    4.7429  -14.1399    0.0000 C   0  0  0  0  0  0  0  0  0  0  0  0
    4.0284  -14.5524    0.0000 C   0  0  0  0  0  0  0  0  0  0  0  0
    5.4573  -14.5524    0.0000 C   0  0  0  0  0  0  0  0  0  0  0  0
    4.0284  -15.3774    0.0000 O   0  0  0  0  0  0  0  0  0  0  0  0
    4.0284  -12.0774    0.0000 O   0  0  0  0  0  0  0  0  0  0  0  0
    5.4573   -9.6024    0.0000 O   0  0  0  0  0  0  0  0  0  0  0  0
  1  2  2  0  0  0  0
  2  3  1  0  0  0  0
  3  4  1  0  0  0  0
  4  5  1  0  0  0  0
  5  6  2  0  0  0  0
  6  7  1  0  0  0  0
  7  8  2  0  0  0  0
  8  9  1  0  0  0  0
  4  9  2  0  0  0  0
  9 10  1  0  0  0  0
  1 10  1  0  0  0  0
  3 11  2  0  0  0  0
 12 13  1  0  0  0  0
 13 14  2  0  0  0  0
 14 15  1  0  0  0  0
 15 16  2  0  0  0  0
 16 17  1  0  0  0  0
 12 17  2  0  0  0  0
 15 18  1  0  0  0  0
  2 12  1  0  0  0  0
 19 20  1  0  0  0  0
 20 21  2  0  0  0  0
 21 22  1  0  0  0  0
 21 23  1  0  0  0  0
 22 24  1  0  0  0  0
  8 19  1  0  0  0  0
  7 25  1  0  0  0  0
  5 26  1  0  0  0  0
M  END
>  <cdx:fragmentId>
22081

$$$$
