4510.cdx
  Mrv1902 05222410202D          

 24 25  0  0  0  0            999 V2000
    5.7633   -8.6749    0.0000 C   0  0  0  0  0  0  0  0  0  0  0  0
    6.4777   -9.0874    0.0000 C   0  0  0  0  0  0  0  0  0  0  0  0
    7.1922   -8.6749    0.0000 C   0  0  0  0  0  0  0  0  0  0  0  0
    7.9067   -9.0874    0.0000 C   0  0  0  0  0  0  0  0  0  0  0  0
    8.6212   -8.6749    0.0000 C   0  0  0  0  0  0  0  0  0  0  0  0
    9.3356   -9.0874    0.0000 C   0  0  0  0  0  0  0  0  0  0  0  0
   10.0501   -8.6749    0.0000 C   0  0  0  0  0  0  0  0  0  0  0  0
    7.1922   -7.8499    0.0000 O   0  0  0  0  0  0  0  0  0  0  0  0
    8.6212   -7.8499    0.0000 O   0  0  0  0  0  0  0  0  0  0  0  0
   10.7646   -9.0874    0.0000 C   0  0  0  0  0  0  0  0  0  0  0  0
   11.4790   -8.6749    0.0000 C   0  0  0  0  0  0  0  0  0  0  0  0
   12.1935   -9.0874    0.0000 C   0  0  0  0  0  0  0  0  0  0  0  0
   12.1935   -9.9124    0.0000 C   0  0  0  0  0  0  0  0  0  0  0  0
   11.4790  -10.3249    0.0000 C   0  0  0  0  0  0  0  0  0  0  0  0
   10.7646   -9.9124    0.0000 C   0  0  0  0  0  0  0  0  0  0  0  0
    5.0488   -9.0874    0.0000 C   0  0  0  0  0  0  0  0  0  0  0  0
    4.3343   -8.6749    0.0000 C   0  0  0  0  0  0  0  0  0  0  0  0
    3.6199   -9.0874    0.0000 C   0  0  0  0  0  0  0  0  0  0  0  0
    3.6199   -9.9124    0.0000 C   0  0  0  0  0  0  0  0  0  0  0  0
    4.3343  -10.3249    0.0000 C   0  0  0  0  0  0  0  0  0  0  0  0
    5.0488   -9.9124    0.0000 C   0  0  0  0  0  0  0  0  0  0  0  0
    2.9054   -8.6749    0.0000 O   0  0  0  0  0  0  0  0  0  0  0  0
    2.1909   -9.0874    0.0000 C   0  0  0  0  0  0  0  0  0  0  0  0
    2.9054  -10.3249    0.0000 O   0  0  0  0  0  0  0  0  0  0  0  0
  1  2  1  0  0  0  0
  2  3  1  0  0  0  0
  3  4  1  0  0  0  0
  4  5  1  0  0  0  0
  5  6  1  0  0  0  0
  6  7  1  0  0  0  0
  3  8  1  0  0  0  0
  5  9  1  0  0  0  0
 10 11  1  0  0  0  0
 11 12  2  0  0  0  0
 12 13  1  0  0  0  0
 13 14  2  0  0  0  0
 14 15  1  0  0  0  0
 10 15  2  0  0  0  0
  7 10  1  0  0  0  0
 16 17  1  0  0  0  0
 17 18  2  0  0  0  0
 18 19  1  0  0  0  0
 19 20  2  0  0  0  0
 20 21  1  0  0  0  0
 16 21  2  0  0  0  0
 22 23  1  0  0  0  0
 18 22  1  0  0  0  0
 19 24  1  0  0  0  0
  1 16  1  0  0  0  0
M  END
>  <cdx:fragmentId>
5

$$$$
