451218.cdx
  Mrv1902 05222410272D          

 37 41  0  0  0  0            999 V2000
    7.1959   -8.6228    0.0000 C   0  0  1  0  0  0  0  0  0  0  0  0
    6.4797   -9.0323    0.0000 C   0  0  2  0  0  0  0  0  0  0  0  0
    6.4763   -9.8573    0.0000 C   0  0  0  0  0  0  0  0  0  0  0  0
    5.7601  -10.2668    0.0000 C   0  0  0  0  0  0  0  0  0  0  0  0
    5.0473   -9.8513    0.0000 C   0  0  1  0  0  0  0  0  0  0  0  0
    4.2616  -10.1029    0.0000 C   0  0  0  0  0  0  0  0  0  0  0  0
    3.7795   -9.4334    0.0000 C   0  0  0  0  0  0  0  0  0  0  0  0
    4.2673   -8.7680    0.0000 C   0  0  0  0  0  0  0  0  0  0  0  0
    5.0508   -9.0263    0.0000 C   0  0  2  0  0  0  0  0  0  0  0  0
    5.7670   -8.6168    0.0000 C   0  0  1  0  0  0  0  0  0  0  0  0
    5.7705   -7.7918    0.0000 C   0  0  0  0  0  0  0  0  0  0  0  0
    6.4867   -7.3823    0.0000 C   0  0  0  0  0  0  0  0  0  0  0  0
    7.1994   -7.7978    0.0000 C   0  0  2  0  0  0  0  0  0  0  0  0
    7.9156   -7.3884    0.0000 C   0  0  1  0  0  0  0  0  0  0  0  0
    8.0906   -6.5821    0.0000 C   0  0  1  0  0  0  0  0  0  0  0  0
    8.9114   -6.4993    0.0000 C   0  0  0  0  0  0  0  0  0  0  0  0
    9.2438   -7.2544    0.0000 C   0  0  0  0  0  0  0  0  0  0  0  0
    8.6284   -7.8039    0.0000 C   0  0  2  0  0  0  0  0  0  0  0  0
    8.6249   -8.6289    0.0000 C   0  0  0  0  0  0  0  0  0  0  0  0
    7.9087   -9.0383    0.0000 C   0  0  0  0  0  0  0  0  0  0  0  0
    9.3806   -8.1426    0.0000 C   0  0  0  0  0  0  0  0  0  0  0  0
    9.3806   -8.9676    0.0000 O   0  0  0  0  0  0  0  0  0  0  0  0
   10.0951   -7.7301    0.0000 O   0  0  0  0  0  0  0  0  0  0  0  0
    7.7994   -5.1832    0.0000 C   0  0  0  0  0  0  0  0  0  0  0  0
    7.5411   -5.9667    0.0000 C   0  0  0  0  0  0  0  0  0  0  0  0
    6.7334   -6.1348    0.0000 C   0  0  0  0  0  0  0  0  0  0  0  0
    5.0543   -8.2013    0.0000 C   0  0  0  0  0  0  0  0  0  0  0  0
    4.4298  -10.9106    0.0000 C   0  0  0  0  0  0  0  0  0  0  0  0
    3.6462  -10.6523    0.0000 C   0  0  0  0  0  0  0  0  0  0  0  0
    6.4832   -8.2073    0.0000 C   0  0  0  0  0  0  0  0  0  0  0  0
    5.0473  -10.6763    0.0000 H   0  0  0  0  0  0  0  0  0  0  0  0
    5.7635   -9.4418    0.0000 H   0  0  0  0  0  0  0  0  0  0  0  0
    7.2029   -6.9728    0.0000 H   0  0  0  0  0  0  0  0  0  0  0  0
    7.9121   -8.2133    0.0000 H   0  0  0  0  0  0  0  0  0  0  0  0
    7.3903   -9.4246    0.0000 C   0  0  0  0  0  0  0  0  0  0  0  0
    8.1818   -9.6572    0.0000 O   0  0  0  0  0  0  0  0  0  0  0  0
    6.7931   -9.9938    0.0000 O   0  0  0  0  0  0  0  0  0  0  0  0
  1  2  1  0  0  0  0
  2  3  1  0  0  0  0
  3  4  1  0  0  0  0
  4  5  1  0  0  0  0
  5  6  1  0  0  0  0
  6  7  1  0  0  0  0
  7  8  2  0  0  0  0
  8  9  1  0  0  0  0
  9 10  1  0  0  0  0
 10 11  1  0  0  0  0
 11 12  1  0  0  0  0
 12 13  1  0  0  0  0
 13 14  1  0  0  0  0
 14 15  1  0  0  0  0
 15 16  1  0  0  0  0
 16 17  1  0  0  0  0
 17 18  1  0  0  0  0
 18 19  1  0  0  0  0
 19 20  1  0  0  0  0
  1 20  1  0  0  0  0
  1 13  1  0  0  0  0
 14 18  1  0  0  0  0
  2 10  1  0  0  0  0
  5  9  1  0  0  0  0
 21 22  2  0  0  0  0
 21 23  1  0  0  0  0
 18 21  1  1  0  0  0
 24 25  2  0  0  0  0
 25 26  1  0  0  0  0
 15 25  1  6  0  0  0
  9 27  1  1  0  0  0
  6 28  1  0  0  0  0
  6 29  1  0  0  0  0
  2 30  1  1  0  0  0
  5 31  1  6  0  0  0
 10 32  1  6  0  0  0
 13 33  1  1  0  0  0
 14 34  1  6  0  0  0
  1 35  1  6  0  0  0
 35 36  2  0  0  0  0
 35 37  1  0  0  0  0
M  END
>  <cdx:fragmentId>
201519

$$$$
