451337.cdx
  Mrv1902 05222410252D          

 14 13  0  0  0  0            999 V2000
    4.5006   -7.3700    0.0000 C   0  0  0  0  0  0  0  0  0  0  0  0
    5.2151   -6.9575    0.0000 C   0  0  0  0  0  0  0  0  0  0  0  0
    5.9296   -7.3700    0.0000 C   0  0  0  0  0  0  0  0  0  0  0  0
    6.6441   -6.9575    0.0000 C   0  0  0  0  0  0  0  0  0  0  0  0
    7.3585   -7.3700    0.0000 C   0  0  2  0  0  0  0  0  0  0  0  0
    8.0730   -6.9575    0.0000 C   0  0  0  0  0  0  0  0  0  0  0  0
    8.7875   -7.3700    0.0000 C   0  0  0  0  0  0  0  0  0  0  0  0
    5.2151   -6.1325    0.0000 C   0  0  0  0  0  0  0  0  0  0  0  0
    8.0730   -6.1325    0.0000 C   0  0  0  0  0  0  0  0  0  0  0  0
    7.3585   -8.1950    0.0000 C   0  0  0  0  0  0  0  0  0  0  0  0
    8.0730   -8.6075    0.0000 C   0  0  0  0  0  0  0  0  0  0  0  0
    8.0730   -9.4325    0.0000 C   0  0  0  0  0  0  0  0  0  0  0  0
    7.3585   -9.8450    0.0000 O   0  0  0  0  0  0  0  0  0  0  0  0
    8.7875   -9.8450    0.0000 C   0  0  0  0  0  0  0  0  0  0  0  0
  1  2  1  0  0  0  0
  2  3  1  0  0  0  0
  3  4  2  0  0  0  0
  4  5  1  0  0  0  0
  5  6  1  0  0  0  0
  6  7  1  0  0  0  0
  2  8  2  0  0  0  0
  6  9  1  0  0  0  0
  5 10  1  6  0  0  0
 10 11  1  0  0  0  0
 11 12  1  0  0  0  0
 12 13  2  0  0  0  0
 12 14  1  0  0  0  0
M  END
>  <cdx:fragmentId>
45

$$$$
