6451349.cdx
  Mrv1902 05222410202D          

 17 20  0  0  0  0            999 V2000
    7.6771  -13.4809    0.0000 C   0  0  0  0  0  0  0  0  0  0  0  0
    7.1250  -12.8679    0.0000 C   0  0  0  0  0  0  0  0  0  0  0  0
    7.3800  -12.0832    0.0000 C   0  0  0  0  0  0  0  0  0  0  0  0
    8.1870  -11.9117    0.0000 C   0  0  0  0  0  0  0  0  0  0  0  0
    8.4419  -11.1271    0.0000 C   0  0  0  0  0  0  0  0  0  0  0  0
    9.2489  -10.9556    0.0000 C   0  0  0  0  0  0  0  0  0  0  0  0
    9.8009  -11.5686    0.0000 C   0  0  0  0  0  0  0  0  0  0  0  0
    9.5460  -12.3533    0.0000 C   0  0  0  0  0  0  0  0  0  0  0  0
    8.7390  -12.5248    0.0000 C   0  0  0  0  0  0  0  0  0  0  0  0
    8.4840  -13.3094    0.0000 O   0  0  0  0  0  0  0  0  0  0  0  0
    6.7125  -11.5983    0.0000 O   0  0  0  0  0  0  0  0  0  0  0  0
    6.3000  -12.8679    0.0000 C   0  0  0  0  0  0  0  0  0  0  0  0
    5.7480  -13.4809    0.0000 C   0  0  0  0  0  0  0  0  0  0  0  0
    4.9410  -13.3094    0.0000 C   0  0  0  0  0  0  0  0  0  0  0  0
    4.6861  -12.5248    0.0000 C   0  0  0  0  0  0  0  0  0  0  0  0
    5.2381  -11.9117    0.0000 C   0  0  0  0  0  0  0  0  0  0  0  0
    6.0451  -12.0832    0.0000 C   0  0  0  0  0  0  0  0  0  0  0  0
  1  2  1  0  0  0  0
  2  3  1  0  0  0  0
  3  4  1  0  0  0  0
  4  5  1  0  0  0  0
  5  6  2  0  0  0  0
  6  7  1  0  0  0  0
  7  8  2  0  0  0  0
  8  9  1  0  0  0  0
  4  9  2  0  0  0  0
  9 10  1  0  0  0  0
  1 10  1  0  0  0  0
 12 13  1  0  0  0  0
 13 14  2  0  0  0  0
 14 15  1  0  0  0  0
 15 16  2  0  0  0  0
 16 17  1  0  0  0  0
 12 17  2  0  0  0  0
 11 17  1  0  0  0  0
 12  2  1  0  0  0  0
 11  3  1  0  0  0  0
M  END
>  <cdx:groupId>
22543

>  <cdx:fragmentId>
22492

$$$$
