451991.cdx
  Mrv1902 05222410192D          

  9  9  0  0  0  0            999 V2000
    7.0132   -5.5876    0.0000 N   0  0  0  0  0  0  0  0  0  0  0  0
    9.0973   -6.3178    0.0000 O   0  0  0  0  0  0  0  0  0  0  0  0
    8.4706   -5.7812    0.0000 C   0  0  0  0  0  0  0  0  0  0  0  0
    7.6926   -6.0557    0.0000 C   0  0  2  0  0  0  0  0  0  0  0  0
    7.9588   -7.5016    0.0000 O   0  0  0  0  0  0  0  0  0  0  0  0
    7.4573   -6.8464    0.0000 C   0  0  1  0  0  0  0  0  0  0  0  0
    6.1645   -7.5464    0.0000 O   0  0  0  0  0  0  0  0  0  0  0  0
    6.6326   -6.8671    0.0000 C   0  0  2  0  0  0  0  0  0  0  0  0
    6.3581   -6.0891    0.0000 C   0  0  0  0  0  0  0  0  0  0  0  0
  4  1  1  0  0  0  0
  9  1  1  0  0  0  0
  3  2  1  0  0  0  0
  4  3  1  6  0  0  0
  6  4  1  0  0  0  0
  6  5  1  1  0  0  0
  8  6  1  0  0  0  0
  8  7  1  6  0  0  0
  9  8  1  0  0  0  0
M  END
>  <cdx:fragmentId>
16749

$$$$
