452077.cdx
  Mrv1902 05222410272D          

 17 18  0  0  0  0            999 V2000
    7.9619   -5.1997    0.0000 C   0  0  1  0  0  0  0  0  0  0  0  0
    8.6764   -5.6122    0.0000 C   0  0  1  0  0  0  0  0  0  0  0  0
    8.6764   -6.4372    0.0000 C   0  0  0  0  0  0  0  0  0  0  0  0
    7.9619   -6.8497    0.0000 C   0  0  0  0  0  0  0  0  0  0  0  0
    7.2475   -6.4372    0.0000 C   0  0  1  0  0  0  0  0  0  0  0  0
    6.5330   -6.8497    0.0000 C   0  0  0  0  0  0  0  0  0  0  0  0
    5.8185   -6.4372    0.0000 C   0  0  0  0  0  0  0  0  0  0  0  0
    5.8185   -5.6122    0.0000 C   0  0  0  0  0  0  0  0  0  0  0  0
    6.5330   -5.1997    0.0000 C   0  0  0  0  0  0  0  0  0  0  0  0
    7.2475   -5.6122    0.0000 C   0  0  2  0  0  0  0  0  0  0  0  0
    7.9619   -4.3747    0.0000 O   0  0  0  0  0  0  0  0  0  0  0  0
    9.3909   -4.3747    0.0000 C   0  0  0  0  0  0  0  0  0  0  0  0
    9.3909   -5.1997    0.0000 C   0  0  0  0  0  0  0  0  0  0  0  0
   10.1054   -5.6122    0.0000 C   0  0  0  0  0  0  0  0  0  0  0  0
    6.5330   -4.3747    0.0000 C   0  0  0  0  0  0  0  0  0  0  0  0
    7.2475   -7.2622    0.0000 C   0  0  0  0  0  0  0  0  0  0  0  0
    7.2475   -4.7872    0.0000 H   0  0  0  0  0  0  0  0  0  0  0  0
  1  2  1  0  0  0  0
  2  3  1  0  0  0  0
  3  4  1  0  0  0  0
  4  5  1  0  0  0  0
  5  6  1  0  0  0  0
  6  7  1  0  0  0  0
  7  8  1  0  0  0  0
  8  9  1  0  0  0  0
  9 10  1  0  0  0  0
  1 10  1  0  0  0  0
  5 10  1  0  0  0  0
  1 11  1  1  0  0  0
 12 13  1  0  0  0  0
 13 14  1  0  0  0  0
  2 13  1  6  0  0  0
  9 15  2  0  0  0  0
  5 16  1  6  0  0  0
 10 17  1  1  0  0  0
M  END
>  <cdx:fragmentId>
22552

$$$$
