452096.cdx
  Mrv1902 05222410182D          

 36 39  0  0  0  0            999 V2000
    9.3365   -8.3938    0.0000 C   0  0  0  0  0  0  0  0  0  0  0  0
    9.0815   -9.1784    0.0000 C   0  0  0  0  0  0  0  0  0  0  0  0
    8.2745   -9.3499    0.0000 C   0  0  1  0  0  0  0  0  0  0  0  0
    7.7225   -8.7368    0.0000 C   0  0  0  0  0  0  0  0  0  0  0  0
    4.3771  -11.2145    0.0000 C   0  0  0  0  0  0  0  0  0  0  0  0
    3.6626  -11.6270    0.0000 C   0  0  0  0  0  0  0  0  0  0  0  0
    3.6626  -12.4520    0.0000 C   0  0  2  0  0  0  0  0  0  0  0  0
    4.3771  -12.8645    0.0000 C   0  0  0  0  0  0  0  0  0  0  0  0
    5.0916  -12.4520    0.0000 C   0  0  1  0  0  0  0  0  0  0  0  0
    5.8060  -12.8645    0.0000 C   0  0  0  0  0  0  0  0  0  0  0  0
    6.5205  -12.4520    0.0000 C   0  0  2  0  0  0  0  0  0  0  0  0
    6.5205  -11.6270    0.0000 C   0  0  1  0  0  0  0  0  0  0  0  0
    7.2350  -11.2145    0.0000 C   0  0  2  0  0  0  0  0  0  0  0  0
    8.0196  -11.4694    0.0000 C   0  0  0  0  0  0  0  0  0  0  0  0
    8.5045  -10.8020    0.0000 C   0  0  0  0  0  0  0  0  0  0  0  0
    8.0196  -10.1345    0.0000 C   0  0  1  0  0  0  0  0  0  0  0  0
    7.2350  -10.3895    0.0000 C   0  0  1  0  0  0  0  0  0  0  0  0
    6.5205   -9.9770    0.0000 C   0  0  2  0  0  0  0  0  0  0  0  0
    5.8060  -10.3895    0.0000 C   0  0  0  0  0  0  0  0  0  0  0  0
    5.8060  -11.2145    0.0000 C   0  0  2  0  0  0  0  0  0  0  0  0
    5.0916  -11.6270    0.0000 C   0  0  1  0  0  0  0  0  0  0  0  0
    7.3212   -9.5690    0.0000 C   0  0  0  0  0  0  0  0  0  0  0  0
    5.0916  -10.8020    0.0000 C   0  0  0  0  0  0  0  0  0  0  0  0
    6.5205   -9.1520    0.0000 O   0  0  0  0  0  0  0  0  0  0  0  0
    7.2350  -12.8645    0.0000 O   0  0  0  0  0  0  0  0  0  0  0  0
    2.9482  -12.8645    0.0000 O   0  0  0  0  0  0  0  0  0  0  0  0
   11.4603   -6.4815    0.0000 C   0  0  0  0  0  0  0  0  0  0  0  0
    5.0916  -13.2770    0.0000 H   0  0  0  0  0  0  0  0  0  0  0  0
    6.5205  -10.8020    0.0000 H   0  0  0  0  0  0  0  0  0  0  0  0
    5.8060  -12.0395    0.0000 H   0  0  0  0  0  0  0  0  0  0  0  0
    7.2350  -12.0395    0.0000 H   0  0  0  0  0  0  0  0  0  0  0  0
   11.2053   -7.2661    0.0000 C   0  0  0  0  0  0  0  0  0  0  0  0
   10.3984   -7.4376    0.0000 O   0  0  0  0  0  0  0  0  0  0  0  0
   10.6955   -8.8353    0.0000 O   0  0  0  0  0  0  0  0  0  0  0  0
   10.1434   -8.2222    0.0000 C   0  0  0  0  0  0  0  0  0  0  0  0
    8.8042   -9.8796    0.0000 H   0  0  0  0  0  0  0  0  0  0  0  0
 33 32  1  0  0  0  0
 32 27  1  0  0  0  0
 35 33  1  0  0  0  0
 35 34  2  0  0  0  0
 35  1  1  0  0  0  0
  1  2  1  0  0  0  0
  2  3  1  0  0  0  0
  3  4  1  6  0  0  0
  5  6  1  0  0  0  0
  6  7  1  0  0  0  0
  7  8  1  0  0  0  0
  8  9  1  0  0  0  0
  9 10  1  0  0  0  0
 10 11  1  0  0  0  0
 11 12  1  0  0  0  0
 12 13  1  0  0  0  0
 13 14  1  0  0  0  0
 14 15  1  0  0  0  0
 16 15  1  0  0  0  0
 16 17  1  0  0  0  0
 13 17  1  0  0  0  0
 17 18  1  0  0  0  0
 18 19  1  0  0  0  0
 19 20  1  0  0  0  0
 12 20  1  0  0  0  0
 20 21  1  0  0  0  0
  9 21  1  0  0  0  0
  5 21  1  0  0  0  0
 17 22  1  1  0  0  0
 21 23  1  1  0  0  0
 18 24  1  6  0  0  0
 11 25  1  6  0  0  0
  7 26  1  6  0  0  0
  3 16  1  0  0  0  0
  9 28  1  1  0  0  0
 12 29  1  1  0  0  0
 20 30  1  6  0  0  0
 13 31  1  6  0  0  0
 16 36  1  6  0  0  0
M  END
>  <cdx:groupId>
22717

>  <cdx:fragmentId>
22626

$$$$
