452351.cdx
  Mrv1902 05222410222D          

 13 14  0  0  0  0            999 V2000
    5.6715   -6.7174    0.0000 C   0  0  0  0  0  0  0  0  0  0  0  0
    4.9570   -7.1299    0.0000 O   0  0  0  0  0  0  0  0  0  0  0  0
    7.1004   -6.7174    0.0000 C   0  0  1  0  0  0  0  0  0  0  0  0
    6.3859   -7.1299    0.0000 C   0  0  1  0  0  0  0  0  0  0  0  0
    6.3859   -7.9549    0.0000 C   0  0  0  0  0  0  0  0  0  0  0  0
    7.1004   -8.3674    0.0000 C   0  0  0  0  0  0  0  0  0  0  0  0
    7.8149   -7.9549    0.0000 C   0  0  1  0  0  0  0  0  0  0  0  0
    7.8149   -7.1299    0.0000 C   0  0  0  0  0  0  0  0  0  0  0  0
    7.2831   -7.4371    0.0000 C   0  0  0  0  0  0  0  0  0  0  0  0
    8.2274   -6.4155    0.0000 C   0  0  0  0  0  0  0  0  0  0  0  0
    8.6399   -7.1299    0.0000 C   0  0  0  0  0  0  0  0  0  0  0  0
    7.1004   -5.8924    0.0000 H   0  0  0  0  0  0  0  0  0  0  0  0
    8.5293   -8.3674    0.0000 H   0  0  0  0  0  0  0  0  0  0  0  0
  1  2  1  0  0  0  0
  3  4  1  0  0  0  0
  4  5  1  0  0  0  0
  5  6  1  0  0  0  0
  6  7  1  0  0  0  0
  7  8  1  0  0  0  0
  3  8  1  0  0  0  0
  3  9  1  6  0  0  0
  7  9  1  1  0  0  0
  8 10  1  0  0  0  0
  8 11  1  0  0  0  0
  4  1  1  1  0  0  0
  3 12  1  0  0  0  0
  7 13  1  0  0  0  0
M  END
>  <cdx:fragmentId>
9

$$$$
