4525.cdx
  Mrv1902 05222410282D          

 25 27  0  0  0  0            999 V2000
    4.1489   -6.4350    0.0000 C   0  0  0  0  0  0  0  0  0  0  0  0
    4.1489   -7.2600    0.0000 C   0  0  0  0  0  0  0  0  0  0  0  0
    4.8634   -7.6725    0.0000 C   0  0  0  0  0  0  0  0  0  0  0  0
    5.5778   -7.2600    0.0000 C   0  0  0  0  0  0  0  0  0  0  0  0
    5.5778   -6.4350    0.0000 C   0  0  0  0  0  0  0  0  0  0  0  0
    4.8634   -6.0225    0.0000 C   0  0  0  0  0  0  0  0  0  0  0  0
    6.2923   -7.6725    0.0000 C   0  0  0  0  0  0  0  0  0  0  0  0
    7.0068   -7.2600    0.0000 C   0  0  0  0  0  0  0  0  0  0  0  0
    7.0068   -6.4350    0.0000 C   0  0  0  0  0  0  0  0  0  0  0  0
    6.2923   -6.0225    0.0000 O   0  0  0  0  0  0  0  0  0  0  0  0
    7.7213   -6.0225    0.0000 C   0  0  0  0  0  0  0  0  0  0  0  0
    7.7213   -5.1975    0.0000 C   0  0  0  0  0  0  0  0  0  0  0  0
    8.4357   -6.4350    0.0000 C   0  0  0  0  0  0  0  0  0  0  0  0
    9.1502   -6.0225    0.0000 C   0  0  0  0  0  0  0  0  0  0  0  0
    9.1502   -5.1975    0.0000 C   0  0  0  0  0  0  0  0  0  0  0  0
    8.4357   -4.7850    0.0000 C   0  0  0  0  0  0  0  0  0  0  0  0
    6.2923   -8.4975    0.0000 O   0  0  0  0  0  0  0  0  0  0  0  0
    7.7213   -7.6725    0.0000 O   0  0  0  0  0  0  0  0  0  0  0  0
    8.4357   -8.0850    0.0000 C   0  0  0  0  0  0  0  0  0  0  0  0
    9.8647   -4.7850    0.0000 O   0  0  0  0  0  0  0  0  0  0  0  0
    3.4344   -7.6725    0.0000 O   0  0  0  0  0  0  0  0  0  0  0  0
    3.4344   -6.0225    0.0000 O   0  0  0  0  0  0  0  0  0  0  0  0
   10.5791   -4.3725    0.0000 C   0  0  0  0  0  0  0  0  0  0  0  0
    2.7200   -8.0850    0.0000 C   0  0  0  0  0  0  0  0  0  0  0  0
    2.7200   -5.6100    0.0000 C   0  0  0  0  0  0  0  0  0  0  0  0
  1  2  2  0  0  0  0
  2  3  1  0  0  0  0
  3  4  2  0  0  0  0
  4  5  1  0  0  0  0
  5  6  2  0  0  0  0
  6  1  1  0  0  0  0
  4  7  1  0  0  0  0
  7  8  1  0  0  0  0
  8  9  2  0  0  0  0
  9 10  1  0  0  0  0
 10  5  1  0  0  0  0
  9 11  1  0  0  0  0
 11 12  1  0  0  0  0
 11 13  2  0  0  0  0
 13 14  1  0  0  0  0
 14 15  2  0  0  0  0
 15 16  1  0  0  0  0
 16 12  2  0  0  0  0
  7 17  2  0  0  0  0
  8 18  1  0  0  0  0
 15 20  1  0  0  0  0
  2 21  1  0  0  0  0
  1 22  1  0  0  0  0
 18 19  1  0  0  0  0
 20 23  1  0  0  0  0
 21 24  1  0  0  0  0
 22 25  1  0  0  0  0
M  STY  4   1 SUP   2 SUP   3 SUP   4 SUP
M  SAL   1  2  18  19
M  SBL   1  1  20
M  SMT   1 OCH3
M  SAP   1  1  18   8  1
M  SAL   2  2  20  23
M  SBL   2  1  21
M  SMT   2 OCH3
M  SAP   2  1  20  15  1
M  SAL   3  2  21  24
M  SBL   3  1  22
M  SMT   3 OCH3
M  SAP   3  1  21   2  1
M  SAL   4  2  22  25
M  SBL   4  1  23
M  SMT   4 OCH3
M  SAP   4  1  22   1  1
M  END
>  <cdx:fragmentId>
112

$$$$
