4526.cdx
  Mrv1902 05222410272D          

 58 65  0  0  0  0            999 V2000
   10.0930   -6.6275    0.0000 C   0  0  2  0  0  0  0  0  0  0  0  0
   10.0930   -7.4525    0.0000 C   0  0  0  0  0  0  0  0  0  0  0  0
   10.8075   -7.8650    0.0000 C   0  0  1  0  0  0  0  0  0  0  0  0
   11.5220   -7.4525    0.0000 C   0  0  1  0  0  0  0  0  0  0  0  0
   11.5220   -6.6275    0.0000 C   0  0  0  0  0  0  0  0  0  0  0  0
   10.8075   -6.2150    0.0000 C   0  0  1  0  0  0  0  0  0  0  0  0
   10.8075   -5.3900    0.0000 C   0  0  0  0  0  0  0  0  0  0  0  0
   12.1550   -6.2425    0.0000 O   0  0  0  0  0  0  0  0  0  0  0  0
   10.8075   -7.0400    0.0000 C   0  0  2  0  0  0  0  0  0  0  0  0
    9.3786   -6.2150    0.0000 O   0  0  0  0  0  0  0  0  0  0  0  0
   12.1550   -7.8375    0.0000 O   0  0  0  0  0  0  0  0  0  0  0  0
   11.5220   -8.2775    0.0000 O   0  0  0  0  0  0  0  0  0  0  0  0
   10.2025   -7.8100    0.0000 C   0  0  0  0  0  0  0  0  0  0  0  0
   10.2025   -8.6350    0.0000 O   0  0  0  0  0  0  0  0  0  0  0  0
   12.1550   -7.0400    0.0000 C   0  0  1  0  0  0  0  0  0  0  0  0
    9.4840   -9.0405    0.0000 C   0  0  0  0  0  0  0  0  0  0  0  0
    8.7736   -8.6210    0.0000 O   0  0  0  0  0  0  0  0  0  0  0  0
    9.4759   -9.8654    0.0000 C   0  0  0  0  0  0  0  0  0  0  0  0
   10.1863  -10.2849    0.0000 C   0  0  0  0  0  0  0  0  0  0  0  0
   10.1782  -11.1099    0.0000 C   0  0  0  0  0  0  0  0  0  0  0  0
    9.4598  -11.5154    0.0000 C   0  0  0  0  0  0  0  0  0  0  0  0
    8.7494  -11.0959    0.0000 C   0  0  0  0  0  0  0  0  0  0  0  0
    8.7575  -10.2709    0.0000 C   0  0  0  0  0  0  0  0  0  0  0  0
    8.5536   -6.2137    0.0000 C   0  0  2  0  0  0  0  0  0  0  0  0
    8.1422   -5.4986    0.0000 O   0  0  0  0  0  0  0  0  0  0  0  0
    7.3172   -5.4974    0.0000 C   0  0  1  0  0  0  0  0  0  0  0  0
    6.9036   -6.2112    0.0000 C   0  0  2  0  0  0  0  0  0  0  0  0
    7.3150   -6.9263    0.0000 C   0  0  1  0  0  0  0  0  0  0  0  0
    8.1400   -6.9276    0.0000 C   0  0  1  0  0  0  0  0  0  0  0  0
    6.9058   -4.7823    0.0000 C   0  0  0  0  0  0  0  0  0  0  0  0
    6.9014   -7.6401    0.0000 O   0  0  0  0  0  0  0  0  0  0  0  0
    8.5514   -7.6427    0.0000 O   0  0  0  0  0  0  0  0  0  0  0  0
    6.0786   -6.2099    0.0000 O   0  0  0  0  0  0  0  0  0  0  0  0
    6.0808   -4.7810    0.0000 O   0  0  0  0  0  0  0  0  0  0  0  0
   10.8075   -8.6900    0.0000 H   0  0  0  0  0  0  0  0  0  0  0  0
   13.0625   -7.0125    0.0000 H   0  0  0  0  0  0  0  0  0  0  0  0
    6.0764   -7.6389    0.0000 C   0  0  0  0  0  0  0  0  0  0  0  0
    5.6628   -8.3527    0.0000 C   0  0  0  0  0  0  0  0  0  0  0  0
    5.6650   -6.9238    0.0000 O   0  0  0  0  0  0  0  0  0  0  0  0
    4.8378   -8.3508    0.0000 C   0  0  0  0  0  0  0  0  0  0  0  0
    4.4236   -9.0643    0.0000 C   0  0  0  0  0  0  0  0  0  0  0  0
    4.8378   -9.7798    0.0000 C   0  0  0  0  0  0  0  0  0  0  0  0
    5.6628   -9.7798    0.0000 C   0  0  0  0  0  0  0  0  0  0  0  0
    6.0769   -9.0643    0.0000 C   0  0  0  0  0  0  0  0  0  0  0  0
    3.5986   -9.0639    0.0000 O   0  0  0  0  0  0  0  0  0  0  0  0
    4.4257  -10.4945    0.0000 O   0  0  0  0  0  0  0  0  0  0  0  0
    6.0749  -10.4945    0.0000 O   0  0  0  0  0  0  0  0  0  0  0  0
    5.6693   -4.0659    0.0000 C   0  0  0  0  0  0  0  0  0  0  0  0
    4.8443   -4.0646    0.0000 C   0  0  0  0  0  0  0  0  0  0  0  0
    6.0829   -3.3521    0.0000 O   0  0  0  0  0  0  0  0  0  0  0  0
    4.4335   -3.3492    0.0000 C   0  0  0  0  0  0  0  0  0  0  0  0
    3.6085   -3.3492    0.0000 C   0  0  0  0  0  0  0  0  0  0  0  0
    3.1944   -4.0646    0.0000 C   0  0  0  0  0  0  0  0  0  0  0  0
    3.6085   -4.7801    0.0000 C   0  0  0  0  0  0  0  0  0  0  0  0
    4.4335   -4.7801    0.0000 C   0  0  0  0  0  0  0  0  0  0  0  0
    3.1964   -2.6345    0.0000 O   0  0  0  0  0  0  0  0  0  0  0  0
    2.3694   -4.0646    0.0000 O   0  0  0  0  0  0  0  0  0  0  0  0
    3.1964   -5.4948    0.0000 O   0  0  0  0  0  0  0  0  0  0  0  0
  1  2  1  0  0  0  0
  2  3  1  0  0  0  0
  3  4  1  0  0  0  0
  4  5  1  0  0  0  0
  5  6  1  0  0  0  0
  6  1  1  0  0  0  0
  6  7  1  6  0  0  0
  6  8  1  0  0  0  0
  3  9  1  0  0  0  0
  1 10  1  1  0  0  0
  4 11  1  0  0  0  0
  4 12  1  6  0  0  0
  9  1  1  0  0  0  0
  9 13  1  1  0  0  0
 13 14  1  0  0  0  0
 11 15  1  0  0  0  0
  8 15  1  0  0  0  0
  9 15  1  0  0  0  0
 14 16  1  0  0  0  0
 16 17  2  0  0  0  0
 16 18  1  0  0  0  0
 18 19  2  0  0  0  0
 19 20  1  0  0  0  0
 20 21  2  0  0  0  0
 21 22  1  0  0  0  0
 22 23  2  0  0  0  0
 23 18  1  0  0  0  0
 24 10  1  1  0  0  0
 24 25  1  0  0  0  0
 25 26  1  0  0  0  0
 26 27  1  0  0  0  0
 27 28  1  0  0  0  0
 28 29  1  0  0  0  0
 29 24  1  0  0  0  0
 26 30  1  1  0  0  0
 28 31  1  1  0  0  0
 29 32  1  6  0  0  0
 27 33  1  6  0  0  0
 30 34  1  0  0  0  0
  3 35  1  1  0  0  0
 15 36  1  1  0  0  0
 31 37  1  0  0  0  0
 37 38  1  0  0  0  0
 37 39  2  0  0  0  0
 38 40  2  0  0  0  0
 40 41  1  0  0  0  0
 41 42  2  0  0  0  0
 42 43  1  0  0  0  0
 43 44  2  0  0  0  0
 44 38  1  0  0  0  0
 41 45  1  0  0  0  0
 42 46  1  0  0  0  0
 43 47  1  0  0  0  0
 34 48  1  0  0  0  0
 48 49  1  0  0  0  0
 48 50  2  0  0  0  0
 49 51  2  0  0  0  0
 51 52  1  0  0  0  0
 52 53  2  0  0  0  0
 53 54  1  0  0  0  0
 54 55  2  0  0  0  0
 55 49  1  0  0  0  0
 52 56  1  0  0  0  0
 53 57  1  0  0  0  0
 54 58  1  0  0  0  0
M  END
>  <cdx:fragmentId>
157

$$$$
