452855.cdx
  Mrv1902 05222410262D          

 28 30  0  0  0  0            999 V2000
   13.8233   -8.0802    0.0000 O   0  0  0  0  0  0  0  0  0  0  0  0
   14.6079   -7.8253    0.0000 C   0  0  0  0  0  0  0  0  0  0  0  0
   15.0928   -8.4927    0.0000 C   0  0  1  0  0  0  0  0  0  0  0  0
   14.6079   -9.1601    0.0000 C   0  0  2  0  0  0  0  0  0  0  0  0
   13.8233   -8.9052    0.0000 C   0  0  0  0  0  0  0  0  0  0  0  0
   14.8628   -7.0406    0.0000 O   0  0  0  0  0  0  0  0  0  0  0  0
   15.8073   -8.9052    0.0000 C   0  0  0  0  0  0  0  0  0  0  0  0
   16.5217   -8.4927    0.0000 C   0  0  0  0  0  0  0  0  0  0  0  0
   17.2362   -8.9052    0.0000 C   0  0  0  0  0  0  0  0  0  0  0  0
   17.9507   -8.4927    0.0000 C   0  0  0  0  0  0  0  0  0  0  0  0
   17.9507   -7.6677    0.0000 C   0  0  0  0  0  0  0  0  0  0  0  0
   17.2362   -7.2552    0.0000 C   0  0  0  0  0  0  0  0  0  0  0  0
   16.5217   -7.6677    0.0000 C   0  0  0  0  0  0  0  0  0  0  0  0
   18.6652   -8.9052    0.0000 O   0  0  0  0  0  0  0  0  0  0  0  0
   19.3796   -8.4927    0.0000 C   0  0  0  0  0  0  0  0  0  0  0  0
   18.6652   -7.2552    0.0000 O   0  0  0  0  0  0  0  0  0  0  0  0
   15.8073   -8.0802    0.0000 O   0  0  0  0  0  0  0  0  0  0  0  0
   14.8628   -9.9448    0.0000 C   0  0  0  0  0  0  0  0  0  0  0  0
   14.3108  -10.5579    0.0000 C   0  0  0  0  0  0  0  0  0  0  0  0
   13.5038  -10.3863    0.0000 C   0  0  0  0  0  0  0  0  0  0  0  0
   12.9518  -10.9994    0.0000 C   0  0  0  0  0  0  0  0  0  0  0  0
   13.2067  -11.7841    0.0000 C   0  0  0  0  0  0  0  0  0  0  0  0
   14.0137  -11.9556    0.0000 C   0  0  0  0  0  0  0  0  0  0  0  0
   14.5657  -11.3425    0.0000 C   0  0  0  0  0  0  0  0  0  0  0  0
   12.6547  -12.3971    0.0000 O   0  0  0  0  0  0  0  0  0  0  0  0
   11.8477  -12.2256    0.0000 C   0  0  0  0  0  0  0  0  0  0  0  0
   12.1448  -10.8279    0.0000 O   0  0  0  0  0  0  0  0  0  0  0  0
   11.5614  -11.4113    0.0000 C   0  0  0  0  0  0  0  0  0  0  0  0
  1  2  1  0  0  0  0
  2  3  1  0  0  0  0
  3  4  1  0  0  0  0
  4  5  1  0  0  0  0
  1  5  1  0  0  0  0
  2  6  2  0  0  0  0
  8  9  1  0  0  0  0
  9 10  2  0  0  0  0
 10 11  1  0  0  0  0
 11 12  2  0  0  0  0
 12 13  1  0  0  0  0
  8 13  2  0  0  0  0
 14 15  1  0  0  0  0
 10 14  1  0  0  0  0
 11 16  1  0  0  0  0
  7  8  1  0  0  0  0
  3  7  1  6  0  0  0
  3 17  1  1  0  0  0
 19 20  1  0  0  0  0
 20 21  2  0  0  0  0
 21 22  1  0  0  0  0
 22 23  2  0  0  0  0
 23 24  1  0  0  0  0
 19 24  2  0  0  0  0
 25 26  1  0  0  0  0
 22 25  1  0  0  0  0
 27 28  1  0  0  0  0
 21 27  1  0  0  0  0
 18 19  1  0  0  0  0
  4 18  1  1  0  0  0
M  END
>  <cdx:groupId>
17011

>  <cdx:fragmentId>
16942

$$$$
