102004528.cdx
  Mrv1902 05222410182D          

 18 20  0  0  0  0            999 V2000
    7.7825   -6.1325    0.0000 C   0  0  2  0  0  0  0  0  0  0  0  0
    9.0200   -6.2425    0.0000 C   0  0  2  0  0  0  0  0  0  0  0  0
    9.5975   -6.9300    0.0000 C   0  0  0  0  0  0  0  0  0  0  0  0
    9.1575   -7.8375    0.0000 C   0  0  0  0  0  0  0  0  0  0  0  0
    8.0850   -7.5350    0.0000 C   0  0  1  0  0  0  0  0  0  0  0  0
    7.1225   -7.9750    0.0000 C   0  0  0  0  0  0  0  0  0  0  0  0
    6.3525   -7.3150    0.0000 C   0  0  1  0  0  0  0  0  0  0  0  0
    6.7650   -6.3525    0.0000 C   0  0  0  0  0  0  0  0  0  0  0  0
    7.2600   -5.6100    0.0000 C   0  0  1  0  0  0  0  0  0  0  0  0
    6.6000   -5.5000    0.0000 C   0  0  0  0  0  0  0  0  0  0  0  0
    5.8575   -6.2700    0.0000 C   0  0  0  0  0  0  0  0  0  0  0  0
    6.6000   -8.7175    0.0000 C   0  0  0  0  0  0  0  0  0  0  0  0
    7.5350   -8.7725    0.0000 C   0  0  0  0  0  0  0  0  0  0  0  0
    8.3906   -8.5085    0.0000 O   0  0  0  0  0  0  0  0  0  0  0  0
    7.5981   -4.9530    0.0000 C   0  0  0  0  0  0  0  0  0  0  0  0
    8.3875   -5.2525    0.0000 H   0  0  0  0  0  0  0  0  0  0  0  0
    9.5391   -5.5257    0.0000 C   0  0  0  0  0  0  0  0  0  0  0  0
    5.5203   -7.9506    0.0000 H   0  0  0  0  0  0  0  0  0  0  0  0
  1  2  1  0  0  0  0
  2  3  1  0  0  0  0
  3  4  1  0  0  0  0
  4  5  1  0  0  0  0
  5  6  1  0  0  0  0
  6  7  1  0  0  0  0
  7  8  1  0  0  0  0
  8  1  1  0  0  0  0
  1  9  1  0  0  0  0
  9  5  1  0  0  0  0
  9 10  1  0  0  0  0
 10 11  1  0  0  0  0
 11  7  1  0  0  0  0
  6 12  1  0  0  0  0
  6 13  1  0  0  0  0
  5 14  1  6  0  0  0
  9 15  1  6  0  0  0
  1 16  1  1  0  0  0
  2 17  1  1  0  0  0
  7 18  1  1  0  0  0
M  END
>  <cdx:fragmentId>
65

$$$$
