6453213.cdx
  Mrv1902 05222410202D          

 12 12  0  0  0  0            999 V2000
    8.5731  -12.4322    0.0000 C   0  0  0  0  0  0  0  0  0  0  0  0
    7.8587  -12.8447    0.0000 C   0  0  0  0  0  0  0  0  0  0  0  0
    8.5731  -11.6072    0.0000 O   0  0  0  0  0  0  0  0  0  0  0  0
    9.2876  -12.8447    0.0000 O   0  0  0  0  0  0  0  0  0  0  0  0
    7.1442  -12.4322    0.0000 C   0  0  0  0  0  0  0  0  0  0  0  0
    6.4297  -12.8447    0.0000 C   0  0  0  0  0  0  0  0  0  0  0  0
    5.7153  -12.4322    0.0000 C   0  0  0  0  0  0  0  0  0  0  0  0
    5.7153  -11.6072    0.0000 C   0  0  0  0  0  0  0  0  0  0  0  0
    6.4297  -11.1947    0.0000 C   0  0  0  0  0  0  0  0  0  0  0  0
    7.1442  -11.6072    0.0000 C   0  0  0  0  0  0  0  0  0  0  0  0
    5.0008  -11.1947    0.0000 O   0  0  0  0  0  0  0  0  0  0  0  0
    7.1442  -13.2572    0.0000 O   0  0  0  0  0  0  0  0  0  0  0  0
  1  2  1  0  0  0  0
  1  3  2  0  0  0  0
  1  4  1  0  0  0  0
  5  6  1  0  0  0  0
  6  7  2  0  0  0  0
  7  8  1  0  0  0  0
  8  9  1  0  0  0  0
  9 10  2  0  0  0  0
  5 10  1  0  0  0  0
  8 11  2  0  0  0  0
  5 12  1  0  0  0  0
  2  5  1  0  0  0  0
M  END
>  <cdx:groupId>
22765

>  <cdx:fragmentId>
22740

$$$$
