453214.cdx
  Mrv1902 05222410182D          

 34 37  0  0  0  0            999 V2000
    6.4845   -5.9675    0.0000 C   0  0  1  0  0  0  0  0  0  0  0  0
    7.1990   -5.5550    0.0000 C   0  0  1  0  0  0  0  0  0  0  0  0
    7.1990   -4.7300    0.0000 C   0  0  1  0  0  0  0  0  0  0  0  0
    6.4845   -4.3175    0.0000 C   0  0  0  0  0  0  0  0  0  0  0  0
    5.7700   -4.7300    0.0000 C   0  0  0  0  0  0  0  0  0  0  0  0
    5.7700   -5.5550    0.0000 O   0  0  0  0  0  0  0  0  0  0  0  0
    7.9836   -4.4750    0.0000 C   0  0  0  0  0  0  0  0  0  0  0  0
    8.4685   -5.1425    0.0000 C   0  0  0  0  0  0  0  0  0  0  0  0
    6.4845   -3.4925    0.0000 C   0  0  0  0  0  0  0  0  0  0  0  0
    7.1990   -3.0800    0.0000 O   0  0  0  0  0  0  0  0  0  0  0  0
    5.7700   -3.0800    0.0000 O   0  0  0  0  0  0  0  0  0  0  0  0
    6.4845   -6.7925    0.0000 O   0  0  0  0  0  0  0  0  0  0  0  0
    5.0556   -6.7925    0.0000 O   0  0  0  0  0  0  0  0  0  0  0  0
    5.7700   -7.2050    0.0000 C   0  0  2  0  0  0  0  0  0  0  0  0
    5.7700   -8.0300    0.0000 C   0  0  1  0  0  0  0  0  0  0  0  0
    5.0556   -8.4425    0.0000 C   0  0  2  0  0  0  0  0  0  0  0  0
    4.3411   -8.0300    0.0000 C   0  0  1  0  0  0  0  0  0  0  0  0
    4.3411   -7.2050    0.0000 C   0  0  1  0  0  0  0  0  0  0  0  0
    3.6266   -6.7925    0.0000 C   0  0  0  0  0  0  0  0  0  0  0  0
    2.9122   -7.2050    0.0000 O   0  0  0  0  0  0  0  0  0  0  0  0
    3.6266   -8.4425    0.0000 O   0  0  0  0  0  0  0  0  0  0  0  0
    5.0556   -9.2675    0.0000 O   0  0  0  0  0  0  0  0  0  0  0  0
    6.4845   -8.4425    0.0000 O   0  0  0  0  0  0  0  0  0  0  0  0
    7.2852   -3.9095    0.0000 H   0  0  0  0  0  0  0  0  0  0  0  0
    7.2852   -6.3755    0.0000 H   0  0  0  0  0  0  0  0  0  0  0  0
    5.7700   -2.2550    0.0000 C   0  0  0  0  0  0  0  0  0  0  0  0
   10.3506   -6.6895    0.0000 O   0  0  0  0  0  0  0  0  0  0  0  0
    9.6567   -7.1358    0.0000 C   0  0  0  0  0  0  0  0  0  0  0  0
    8.0539   -7.9435    0.0000 O   0  0  0  0  0  0  0  0  0  0  0  0
    8.1866   -7.1293    0.0000 C   0  0  0  0  0  0  0  0  0  0  0  0
    8.9233   -6.7580    0.0000 C   0  0  0  0  0  0  0  0  0  0  0  0
    8.7979   -5.9426    0.0000 C   0  0  0  0  0  0  0  0  0  0  0  0
    7.6058   -6.5433    0.0000 O   0  0  0  0  0  0  0  0  0  0  0  0
    7.9836   -5.8099    0.0000 C   0  0  1  0  0  0  0  0  0  0  0  0
 31 28  1  0  0  0  0
 28 27  1  0  0  0  0
 30 29  2  0  0  0  0
 34 32  1  0  0  0  0
 34 33  1  6  0  0  0
 33 30  1  0  0  0  0
 31 30  1  0  0  0  0
 32 31  2  0  0  0  0
  1  2  1  0  0  0  0
  2  3  1  0  0  0  0
  3  4  1  0  0  0  0
  4  5  2  0  0  0  0
  5  6  1  0  0  0  0
  1  6  1  0  0  0  0
  7  8  2  0  0  0  0
  8 34  1  0  0  0  0
 34  2  1  0  0  0  0
  7  3  1  0  0  0  0
  9 10  2  0  0  0  0
  9 11  1  0  0  0  0
  4  9  1  0  0  0  0
 13 14  1  0  0  0  0
 14 15  1  0  0  0  0
 15 16  1  0  0  0  0
 16 17  1  0  0  0  0
 17 18  1  0  0  0  0
 13 18  1  0  0  0  0
 19 20  1  0  0  0  0
 18 19  1  1  0  0  0
 17 21  1  6  0  0  0
 16 22  1  1  0  0  0
 15 23  1  6  0  0  0
 14 12  1  1  0  0  0
  1 12  1  6  0  0  0
  3 24  1  6  0  0  0
  2 25  1  6  0  0  0
 11 26  1  0  0  0  0
M  END
>  <cdx:groupId>
106598

>  <cdx:fragmentId>
106599

$$$$
