453655.cdx
  Mrv1902 05222410252D          

 27 29  0  0  0  0            999 V2000
   11.6054  -10.1311    0.0000 C   0  0  0  0  0  0  0  0  0  0  0  0
   10.8909   -9.7186    0.0000 C   0  0  0  0  0  0  0  0  0  0  0  0
   10.8909   -8.8936    0.0000 C   0  0  0  0  0  0  0  0  0  0  0  0
   11.6054   -8.4811    0.0000 C   0  0  0  0  0  0  0  0  0  0  0  0
   12.3199   -9.7186    0.0000 C   0  0  0  0  0  0  0  0  0  0  0  0
   12.3199   -8.8936    0.0000 C   0  0  0  0  0  0  0  0  0  0  0  0
   13.1045   -8.6387    0.0000 O   0  0  0  0  0  0  0  0  0  0  0  0
   13.5894   -9.3061    0.0000 C   0  0  0  0  0  0  0  0  0  0  0  0
   13.1045   -9.9735    0.0000 O   0  0  0  0  0  0  0  0  0  0  0  0
    1.6028   -8.4811    0.0000 C   0  0  0  0  0  0  0  0  0  0  0  0
    0.8883   -8.8936    0.0000 C   0  0  0  0  0  0  0  0  0  0  0  0
    0.8883   -9.7186    0.0000 C   0  0  0  0  0  0  0  0  0  0  0  0
    1.6028  -10.1311    0.0000 C   0  0  0  0  0  0  0  0  0  0  0  0
    2.3173   -9.7186    0.0000 C   0  0  0  0  0  0  0  0  0  0  0  0
    2.3173   -8.8936    0.0000 N   0  0  0  0  0  0  0  0  0  0  0  0
    3.0317   -7.6561    0.0000 O   0  0  0  0  0  0  0  0  0  0  0  0
   10.1765   -8.4811    0.0000 C   0  0  0  0  0  0  0  0  0  0  0  0
    9.4620   -8.8936    0.0000 C   0  0  0  0  0  0  0  0  0  0  0  0
    8.7475   -8.4811    0.0000 C   0  0  0  0  0  0  0  0  0  0  0  0
    8.0330   -8.8936    0.0000 C   0  0  0  0  0  0  0  0  0  0  0  0
    7.3186   -8.4811    0.0000 C   0  0  0  0  0  0  0  0  0  0  0  0
    6.6041   -8.8936    0.0000 C   0  0  0  0  0  0  0  0  0  0  0  0
    5.8896   -8.4811    0.0000 C   0  0  0  0  0  0  0  0  0  0  0  0
    5.1752   -8.8936    0.0000 C   0  0  0  0  0  0  0  0  0  0  0  0
    4.4607   -8.4811    0.0000 C   0  0  0  0  0  0  0  0  0  0  0  0
    3.7462   -8.8936    0.0000 C   0  0  0  0  0  0  0  0  0  0  0  0
    3.0317   -8.4811    0.0000 C   0  0  0  0  0  0  0  0  0  0  0  0
 17  3  1  0  0  0  0
  4  6  2  0  0  0  0
  1  5  2  0  0  0  0
  2  1  1  0  0  0  0
  3  2  2  0  0  0  0
  4  3  1  0  0  0  0
  9  5  1  0  0  0  0
  6  5  1  0  0  0  0
  7  6  1  0  0  0  0
  8  7  1  0  0  0  0
  9  8  1  0  0  0  0
 27 15  1  0  0  0  0
 15 10  1  0  0  0  0
 11 10  1  0  0  0  0
 12 11  1  0  0  0  0
 13 12  1  0  0  0  0
 14 13  1  0  0  0  0
 15 14  1  0  0  0  0
 27 16  2  0  0  0  0
 18 17  2  0  0  0  0
 19 18  1  0  0  0  0
 20 19  1  0  0  0  0
 21 20  1  0  0  0  0
 22 21  1  0  0  0  0
 23 22  1  0  0  0  0
 24 23  1  0  0  0  0
 25 24  1  0  0  0  0
 26 25  2  0  0  0  0
 27 26  1  0  0  0  0
M  END
>  <cdx:groupId>
163797

>  <cdx:fragmentId>
163717

$$$$
