453988.cdx
  Mrv1902 05222410272D          

 31 34  0  0  0  0            999 V2000
    5.5070   -7.8763    0.0000 C   0  0  0  0  0  0  0  0  0  0  0  0
    4.7925   -8.2888    0.0000 C   0  0  0  0  0  0  0  0  0  0  0  0
    4.7925   -9.1138    0.0000 C   0  0  1  0  0  0  0  0  0  0  0  0
    5.5070   -9.5263    0.0000 C   0  0  0  0  0  0  0  0  0  0  0  0
    6.2215   -9.1138    0.0000 C   0  0  2  0  0  0  0  0  0  0  0  0
    6.9359   -9.5263    0.0000 C   0  0  0  0  0  0  0  0  0  0  0  0
    7.6504   -9.1138    0.0000 C   0  0  1  0  0  0  0  0  0  0  0  0
    7.6504   -8.2888    0.0000 C   0  0  0  0  0  0  0  0  0  0  0  0
    8.3649   -7.8763    0.0000 C   0  0  2  0  0  0  0  0  0  0  0  0
    9.1495   -8.1313    0.0000 C   0  0  0  0  0  0  0  0  0  0  0  0
    9.6344   -7.4638    0.0000 C   0  0  0  0  0  0  0  0  0  0  0  0
    9.1495   -6.7964    0.0000 C   0  0  1  0  0  0  0  0  0  0  0  0
    8.3649   -7.0513    0.0000 C   0  0  1  0  0  0  0  0  0  0  0  0
    7.6504   -6.6388    0.0000 C   0  0  0  0  0  0  0  0  0  0  0  0
    6.9359   -7.0513    0.0000 C   0  0  0  0  0  0  0  0  0  0  0  0
    6.9359   -7.8763    0.0000 C   0  0  0  0  0  0  0  0  0  0  0  0
    6.2215   -8.2888    0.0000 C   0  0  1  0  0  0  0  0  0  0  0  0
    6.2215   -6.6388    0.0000 O   0  0  0  0  0  0  0  0  0  0  0  0
    9.4045   -8.9159    0.0000 O   0  0  0  0  0  0  0  0  0  0  0  0
    8.3649   -8.6625    0.0000 C   0  0  0  0  0  0  0  0  0  0  0  0
    8.3649   -6.3209    0.0000 C   0  0  0  0  0  0  0  0  0  0  0  0
    6.2215   -7.4638    0.0000 C   0  0  0  0  0  0  0  0  0  0  0  0
    5.9195  -10.2408    0.0000 C   0  0  0  0  0  0  0  0  0  0  0  0
    5.0945  -10.2408    0.0000 C   0  0  0  0  0  0  0  0  0  0  0  0
    8.3649   -9.5263    0.0000 O   0  0  0  0  0  0  0  0  0  0  0  0
    4.0781   -9.5263    0.0000 O   0  0  0  0  0  0  0  0  0  0  0  0
    9.4045   -6.0118    0.0000 C   0  0  0  0  0  0  0  0  0  0  0  0
    8.8524   -5.3987    0.0000 O   0  0  0  0  0  0  0  0  0  0  0  0
   10.2114   -5.8402    0.0000 C   0  0  0  0  0  0  0  0  0  0  0  0
    6.2215   -9.9388    0.0000 H   0  0  0  0  0  0  0  0  0  0  0  0
    9.9644   -6.6673    0.0000 H   0  0  0  0  0  0  0  0  0  0  0  0
  1  2  1  0  0  0  0
  2  3  1  0  0  0  0
  3  4  1  0  0  0  0
  4  5  1  0  0  0  0
  5  6  1  0  0  0  0
  6  7  1  0  0  0  0
  7  8  1  0  0  0  0
  8  9  1  0  0  0  0
  9 10  1  0  0  0  0
 10 11  1  0  0  0  0
 11 12  1  0  0  0  0
 12 13  1  0  0  0  0
  9 13  1  0  0  0  0
 13 14  1  0  0  0  0
 14 15  1  0  0  0  0
 15 16  1  0  0  0  0
  8 16  2  0  0  0  0
 16 17  1  0  0  0  0
  5 17  1  0  0  0  0
  1 17  1  0  0  0  0
 15 18  2  0  0  0  0
 10 19  2  0  0  0  0
  9 20  1  6  0  0  0
 13 21  1  1  0  0  0
 17 22  1  1  0  0  0
  4 23  1  0  0  0  0
  4 24  1  0  0  0  0
  7 25  1  1  0  0  0
  3 26  1  1  0  0  0
 27 28  2  0  0  0  0
 27 29  1  0  0  0  0
 12 27  1  0  0  0  0
  5 30  1  6  0  0  0
 12 31  1  6  0  0  0
M  END
>  <cdx:fragmentId>
201644

$$$$
