4542.cdx
  Mrv1902 05222410232D          

 28 30  0  0  0  0            999 V2000
    4.0252   -6.6413    0.0000 C   0  0  0  0  0  0  0  0  0  0  0  0
    4.0252   -7.4663    0.0000 C   0  0  0  0  0  0  0  0  0  0  0  0
    4.7396   -7.8788    0.0000 C   0  0  0  0  0  0  0  0  0  0  0  0
    5.4541   -7.4663    0.0000 C   0  0  0  0  0  0  0  0  0  0  0  0
    5.4541   -6.6413    0.0000 C   0  0  0  0  0  0  0  0  0  0  0  0
    4.7396   -6.2287    0.0000 C   0  0  0  0  0  0  0  0  0  0  0  0
    6.1686   -7.8788    0.0000 C   0  0  0  0  0  0  0  0  0  0  0  0
    6.8830   -7.4663    0.0000 C   0  0  0  0  0  0  0  0  0  0  0  0
    6.8830   -6.6413    0.0000 C   0  0  0  0  0  0  0  0  0  0  0  0
    6.1686   -6.2287    0.0000 O   0  0  0  0  0  0  0  0  0  0  0  0
    7.5975   -6.2287    0.0000 C   0  0  0  0  0  0  0  0  0  0  0  0
    7.5975   -5.4037    0.0000 C   0  0  0  0  0  0  0  0  0  0  0  0
    8.3120   -6.6413    0.0000 C   0  0  0  0  0  0  0  0  0  0  0  0
    9.0265   -6.2287    0.0000 C   0  0  0  0  0  0  0  0  0  0  0  0
    9.0265   -5.4037    0.0000 C   0  0  0  0  0  0  0  0  0  0  0  0
    8.3120   -4.9913    0.0000 C   0  0  0  0  0  0  0  0  0  0  0  0
    3.3107   -6.2287    0.0000 O   0  0  0  0  0  0  0  0  0  0  0  0
    4.7396   -5.4037    0.0000 C   0  0  0  0  0  0  0  0  0  0  0  0
    4.0252   -4.9913    0.0000 C   0  0  0  0  0  0  0  0  0  0  0  0
    4.0252   -4.1662    0.0000 C   0  0  0  0  0  0  0  0  0  0  0  0
    3.3107   -3.7538    0.0000 C   0  0  0  0  0  0  0  0  0  0  0  0
    4.7396   -3.7538    0.0000 C   0  0  0  0  0  0  0  0  0  0  0  0
    4.7396   -8.7037    0.0000 O   0  0  0  0  0  0  0  0  0  0  0  0
    4.0252   -9.1162    0.0000 C   0  0  0  0  0  0  0  0  0  0  0  0
    6.1686   -8.7037    0.0000 O   0  0  0  0  0  0  0  0  0  0  0  0
    7.5975   -7.8788    0.0000 O   0  0  0  0  0  0  0  0  0  0  0  0
    6.8830   -4.9913    0.0000 H   0  0  0  0  0  0  0  0  0  0  0  0
    9.7409   -4.9913    0.0000 O   0  0  0  0  0  0  0  0  0  0  0  0
  1  2  2  0  0  0  0
  2  3  1  0  0  0  0
  3  4  2  0  0  0  0
  4  5  1  0  0  0  0
  5  6  2  0  0  0  0
  6  1  1  0  0  0  0
  4  7  1  0  0  0  0
  7  8  1  0  0  0  0
  8  9  1  0  0  0  0
  9 10  1  0  0  0  0
 10  5  1  0  0  0  0
  9 11  1  0  0  0  0
 11 12  1  0  0  0  0
 11 13  2  0  0  0  0
 13 14  1  0  0  0  0
 14 15  2  0  0  0  0
 15 16  1  0  0  0  0
 16 12  2  0  0  0  0
  1 17  1  0  0  0  0
  6 18  1  0  0  0  0
 18 19  1  0  0  0  0
 19 20  2  0  0  0  0
 20 21  1  0  0  0  0
 20 22  1  0  0  0  0
  3 23  1  0  0  0  0
 23 24  1  0  0  0  0
  7 25  2  0  0  0  0
  8 26  1  0  0  0  0
 12 27  1  0  0  0  0
 15 28  1  0  0  0  0
M  END
>  <cdx:fragmentId>
5

$$$$
