4543.cdx
  Mrv1902 05222410232D          

 20 22  0  0  0  0            999 V2000
    4.7941   -5.7780    0.0000 C   0  0  0  0  0  0  0  0  0  0  0  0
    4.7941   -4.9530    0.0000 C   0  0  0  0  0  0  0  0  0  0  0  0
    4.0796   -4.5405    0.0000 C   0  0  0  0  0  0  0  0  0  0  0  0
    5.5086   -6.1905    0.0000 N   0  0  0  0  0  0  0  0  0  0  0  0
    3.3363   -3.3576    0.0000 C   0  0  0  0  0  0  0  0  0  0  0  0
    4.0796   -3.7155    0.0000 C   0  0  0  0  0  0  0  0  0  0  0  0
    4.8229   -3.3576    0.0000 C   0  0  0  0  0  0  0  0  0  0  0  0
    5.4277   -3.9187    0.0000 C   0  0  0  0  0  0  0  0  0  0  0  0
    6.2160   -3.6755    0.0000 C   0  0  0  0  0  0  0  0  0  0  0  0
    6.3996   -2.8712    0.0000 C   0  0  0  0  0  0  0  0  0  0  0  0
    5.7949   -2.3101    0.0000 C   0  0  0  0  0  0  0  0  0  0  0  0
    5.0065   -2.5532    0.0000 C   0  0  0  0  0  0  0  0  0  0  0  0
    4.4921   -1.9082    0.0000 C   0  0  0  0  0  0  0  0  0  0  0  0
    3.6671   -1.9082    0.0000 C   0  0  0  0  0  0  0  0  0  0  0  0
    3.1527   -2.5532    0.0000 C   0  0  0  0  0  0  0  0  0  0  0  0
    2.3644   -2.3101    0.0000 C   0  0  0  0  0  0  0  0  0  0  0  0
    1.7596   -2.8712    0.0000 C   0  0  0  0  0  0  0  0  0  0  0  0
    1.9432   -3.6755    0.0000 C   0  0  0  0  0  0  0  0  0  0  0  0
    2.7316   -3.9187    0.0000 C   0  0  0  0  0  0  0  0  0  0  0  0
    5.5086   -7.0155    0.0000 C   0  0  0  0  0  0  0  0  0  0  0  0
  1  2  1  0  0  0  0
  2  3  1  0  0  0  0
  1  4  1  0  0  0  0
  5  6  1  0  0  0  0
  6  7  1  0  0  0  0
  7  8  2  0  0  0  0
  8  9  1  0  0  0  0
  9 10  2  0  0  0  0
 10 11  1  0  0  0  0
 11 12  2  0  0  0  0
 12 13  1  0  0  0  0
 13 14  1  0  0  0  0
 14 15  1  0  0  0  0
 15 16  2  0  0  0  0
 16 17  1  0  0  0  0
 17 18  2  0  0  0  0
 18 19  1  0  0  0  0
  5 19  2  0  0  0  0
  5 15  1  0  0  0  0
  7 12  1  0  0  0  0
  3  6  2  0  0  0  0
  4 20  1  0  0  0  0
M  END
>  <cdx:groupId>
64

>  <cdx:fragmentId>
13

$$$$
