4545.cdx
  Mrv1902 05222410252D          

 22 24  0  0  0  0            999 V2000
    9.1421   -7.1190    0.0000 C   0  0  0  0  0  0  0  0  0  0  0  0
    9.1343   -6.2941    0.0000 C   0  0  0  0  0  0  0  0  0  0  0  0
    8.4160   -5.8883    0.0000 C   0  0  0  0  0  0  0  0  0  0  0  0
    7.7055   -6.3075    0.0000 C   0  0  0  0  0  0  0  0  0  0  0  0
    7.7132   -7.1324    0.0000 C   0  0  0  0  0  0  0  0  0  0  0  0
    8.4315   -7.5382    0.0000 C   0  0  0  0  0  0  0  0  0  0  0  0
    6.9872   -5.9017    0.0000 O   0  0  0  0  0  0  0  0  0  0  0  0
    6.2766   -6.3209    0.0000 C   0  0  0  0  0  0  0  0  0  0  0  0
    6.2843   -7.1458    0.0000 C   0  0  0  0  0  0  0  0  0  0  0  0
    7.0026   -7.5516    0.0000 C   0  0  0  0  0  0  0  0  0  0  0  0
    5.5583   -5.9151    0.0000 C   0  0  0  0  0  0  0  0  0  0  0  0
    4.8477   -6.3343    0.0000 C   0  0  0  0  0  0  0  0  0  0  0  0
    4.8555   -7.1593    0.0000 C   0  0  0  0  0  0  0  0  0  0  0  0
    5.5738   -7.5650    0.0000 C   0  0  0  0  0  0  0  0  0  0  0  0
    7.0104   -8.3766    0.0000 O   0  0  0  0  0  0  0  0  0  0  0  0
    9.8449   -5.8749    0.0000 O   0  0  0  0  0  0  0  0  0  0  0  0
    5.5815   -8.3900    0.0000 O   0  0  0  0  0  0  0  0  0  0  0  0
    4.1449   -7.5784    0.0000 O   0  0  0  0  0  0  0  0  0  0  0  0
    8.4393   -8.3632    0.0000 O   0  0  0  0  0  0  0  0  0  0  0  0
    4.8709   -8.8092    0.0000 C   0  0  0  0  0  0  0  0  0  0  0  0
    3.4266   -7.1727    0.0000 C   0  0  0  0  0  0  0  0  0  0  0  0
   10.5632   -6.2807    0.0000 C   0  0  0  0  0  0  0  0  0  0  0  0
  1  2  2  0  0  0  0
  2  3  1  0  0  0  0
  3  4  2  0  0  0  0
  4  5  1  0  0  0  0
  5  6  2  0  0  0  0
  6  1  1  0  0  0  0
  4  7  1  0  0  0  0
  7  8  1  0  0  0  0
  8  9  1  0  0  0  0
  9 10  1  0  0  0  0
 10  5  1  0  0  0  0
  8 11  2  0  0  0  0
 11 12  1  0  0  0  0
 12 13  2  0  0  0  0
 13 14  1  0  0  0  0
 14  9  2  0  0  0  0
 10 15  2  0  0  0  0
  2 16  1  0  0  0  0
 14 17  1  0  0  0  0
 13 18  1  0  0  0  0
  6 19  1  0  0  0  0
 17 20  1  0  0  0  0
 18 21  1  0  0  0  0
 16 22  1  0  0  0  0
M  END
>  <cdx:fragmentId>
5

$$$$
