10454576.cdx
  Mrv1902 05222410272D          

 32 35  0  0  0  0            999 V2000
    6.1709   -9.9000    0.0000 O   0  0  0  0  0  0  0  0  0  0  0  0
    6.6558   -9.2326    0.0000 C   0  0  0  0  0  0  0  0  0  0  0  0
    7.4404   -9.4875    0.0000 C   0  0  1  0  0  0  0  0  0  0  0  0
    7.4404  -10.3125    0.0000 C   0  0  1  0  0  0  0  0  0  0  0  0
    6.6558  -10.5674    0.0000 C   0  0  2  0  0  0  0  0  0  0  0  0
    8.7100   -9.9000    0.0000 O   0  0  0  0  0  0  0  0  0  0  0  0
    8.2250   -9.2326    0.0000 C   0  0  2  0  0  0  0  0  0  0  0  0
    8.2250  -10.5674    0.0000 C   0  0  0  0  0  0  0  0  0  0  0  0
    8.4800   -8.4479    0.0000 C   0  0  0  0  0  0  0  0  0  0  0  0
    9.2869   -8.2764    0.0000 C   0  0  0  0  0  0  0  0  0  0  0  0
    9.5419   -7.4918    0.0000 C   0  0  0  0  0  0  0  0  0  0  0  0
    8.9899   -6.8787    0.0000 C   0  0  0  0  0  0  0  0  0  0  0  0
    8.1829   -7.0502    0.0000 C   0  0  0  0  0  0  0  0  0  0  0  0
    7.9279   -7.8348    0.0000 C   0  0  0  0  0  0  0  0  0  0  0  0
    7.6309   -6.4371    0.0000 O   0  0  0  0  0  0  0  0  0  0  0  0
    6.8239   -6.6087    0.0000 C   0  0  0  0  0  0  0  0  0  0  0  0
    9.2448   -6.0941    0.0000 O   0  0  0  0  0  0  0  0  0  0  0  0
   10.0518   -5.9225    0.0000 C   0  0  0  0  0  0  0  0  0  0  0  0
   10.3489   -7.3203    0.0000 O   0  0  0  0  0  0  0  0  0  0  0  0
   10.9009   -7.9334    0.0000 C   0  0  0  0  0  0  0  0  0  0  0  0
    6.4009  -11.3521    0.0000 C   0  0  0  0  0  0  0  0  0  0  0  0
    5.5939  -11.5236    0.0000 C   0  0  0  0  0  0  0  0  0  0  0  0
    5.3389  -12.3082    0.0000 C   0  0  0  0  0  0  0  0  0  0  0  0
    5.8910  -12.9213    0.0000 C   0  0  0  0  0  0  0  0  0  0  0  0
    6.6980  -12.7498    0.0000 C   0  0  0  0  0  0  0  0  0  0  0  0
    6.9529  -11.9652    0.0000 C   0  0  0  0  0  0  0  0  0  0  0  0
    5.6360  -13.7059    0.0000 O   0  0  0  0  0  0  0  0  0  0  0  0
    4.8291  -13.8775    0.0000 C   0  0  0  0  0  0  0  0  0  0  0  0
    4.5320  -12.4797    0.0000 O   0  0  0  0  0  0  0  0  0  0  0  0
    3.9486  -11.8964    0.0000 C   0  0  0  0  0  0  0  0  0  0  0  0
    7.4404  -11.1375    0.0000 H   0  0  0  0  0  0  0  0  0  0  0  0
    7.4404   -8.6625    0.0000 H   0  0  0  0  0  0  0  0  0  0  0  0
  1  2  1  0  0  0  0
  2  3  1  0  0  0  0
  3  4  1  0  0  0  0
  4  5  1  0  0  0  0
  1  5  1  0  0  0  0
  6  7  1  0  0  0  0
  6  8  1  0  0  0  0
  7  3  1  0  0  0  0
  8  4  1  0  0  0  0
  9 10  1  0  0  0  0
 10 11  2  0  0  0  0
 11 12  1  0  0  0  0
 12 13  2  0  0  0  0
 13 14  1  0  0  0  0
  9 14  2  0  0  0  0
 15 16  1  0  0  0  0
 13 15  1  0  0  0  0
 17 18  1  0  0  0  0
 12 17  1  0  0  0  0
 19 20  1  0  0  0  0
 11 19  1  0  0  0  0
  7  9  1  1  0  0  0
 21 22  1  0  0  0  0
 22 23  2  0  0  0  0
 23 24  1  0  0  0  0
 24 25  2  0  0  0  0
 25 26  1  0  0  0  0
 21 26  2  0  0  0  0
 27 28  1  0  0  0  0
 24 27  1  0  0  0  0
 29 30  1  0  0  0  0
 23 29  1  0  0  0  0
  5 21  1  6  0  0  0
  4 31  1  1  0  0  0
  3 32  1  1  0  0  0
M  END
>  <cdx:groupId>
5385

>  <cdx:fragmentId>
5305

$$$$
