4546.cdx
  Mrv1902 05222410252D          

 14 13  0  0  0  0            999 V2000
    6.3965   -6.2012    0.0000 C   0  0  0  0  0  0  0  0  0  0  0  0
    7.1110   -5.7888    0.0000 C   0  0  0  0  0  0  0  0  0  0  0  0
    7.8254   -6.2012    0.0000 C   0  0  0  0  0  0  0  0  0  0  0  0
    8.5399   -5.7888    0.0000 C   0  0  0  0  0  0  0  0  0  0  0  0
    9.2544   -6.2012    0.0000 C   0  0  0  0  0  0  0  0  0  0  0  0
    9.9689   -5.7888    0.0000 C   0  0  0  0  0  0  0  0  0  0  0  0
    9.2544   -7.0263    0.0000 C   0  0  0  0  0  0  0  0  0  0  0  0
    6.8090   -6.9157    0.0000 C   0  0  0  0  0  0  0  0  0  0  0  0
    5.6820   -6.6137    0.0000 O   0  0  0  0  0  0  0  0  0  0  0  0
    5.9840   -5.4868    0.0000 C   0  0  0  0  0  0  0  0  0  0  0  0
    6.3965   -4.7723    0.0000 C   0  0  0  0  0  0  0  0  0  0  0  0
    4.9676   -6.2012    0.0000 C   0  0  0  0  0  0  0  0  0  0  0  0
    4.2531   -6.6137    0.0000 C   0  0  0  0  0  0  0  0  0  0  0  0
    4.9676   -5.3763    0.0000 O   0  0  0  0  0  0  0  0  0  0  0  0
  1  2  1  0  0  0  0
  2  3  1  0  0  0  0
  3  4  1  0  0  0  0
  4  5  2  0  0  0  0
  5  6  1  0  0  0  0
  5  7  1  0  0  0  0
  1  8  1  0  0  0  0
  1  9  1  0  0  0  0
  1 10  1  0  0  0  0
 10 11  2  0  0  0  0
  9 12  1  0  0  0  0
 12 13  1  0  0  0  0
 12 14  2  0  0  0  0
M  END
>  <cdx:fragmentId>
3

$$$$
