4547.cdx
  Mrv1902 05222410252D          

 11 10  0  0  0  0            999 V2000
    6.0665   -7.0263    0.0000 C   0  0  0  0  0  0  0  0  0  0  0  0
    6.7810   -6.6137    0.0000 C   0  0  0  0  0  0  0  0  0  0  0  0
    7.4954   -7.0263    0.0000 C   0  0  0  0  0  0  0  0  0  0  0  0
    8.2099   -6.6137    0.0000 C   0  0  0  0  0  0  0  0  0  0  0  0
    8.9244   -7.0263    0.0000 C   0  0  0  0  0  0  0  0  0  0  0  0
    9.6389   -6.6137    0.0000 C   0  0  0  0  0  0  0  0  0  0  0  0
    8.9244   -7.8513    0.0000 C   0  0  0  0  0  0  0  0  0  0  0  0
    6.4790   -7.7407    0.0000 C   0  0  0  0  0  0  0  0  0  0  0  0
    5.3520   -7.4387    0.0000 O   0  0  0  0  0  0  0  0  0  0  0  0
    5.6540   -6.3118    0.0000 C   0  0  0  0  0  0  0  0  0  0  0  0
    6.0665   -5.5973    0.0000 C   0  0  0  0  0  0  0  0  0  0  0  0
  1  2  1  0  0  0  0
  2  3  1  0  0  0  0
  3  4  1  0  0  0  0
  4  5  2  0  0  0  0
  5  6  1  0  0  0  0
  5  7  1  0  0  0  0
  1  8  1  0  0  0  0
  1  9  1  0  0  0  0
  1 10  1  0  0  0  0
 10 11  2  0  0  0  0
M  END
>  <cdx:fragmentId>
3

$$$$
