4549.cdx
  Mrv1902 05222410212D          

 11 10  0  0  0  0            999 V2000
    4.6365   -8.2088    0.0000 C   0  0  0  0  0  0  0  0  0  0  0  0
    5.3510   -7.7963    0.0000 C   0  0  0  0  0  0  0  0  0  0  0  0
    6.0654   -8.2088    0.0000 C   0  0  0  0  0  0  0  0  0  0  0  0
    6.7799   -7.7963    0.0000 C   0  0  0  0  0  0  0  0  0  0  0  0
    7.4944   -8.2088    0.0000 C   0  0  0  0  0  0  0  0  0  0  0  0
    8.2089   -7.7963    0.0000 C   0  0  0  0  0  0  0  0  0  0  0  0
    7.4944   -9.0337    0.0000 C   0  0  0  0  0  0  0  0  0  0  0  0
    5.0490   -8.9232    0.0000 C   0  0  0  0  0  0  0  0  0  0  0  0
    3.9220   -8.6212    0.0000 O   0  0  0  0  0  0  0  0  0  0  0  0
    4.2240   -7.4943    0.0000 C   0  0  0  0  0  0  0  0  0  0  0  0
    4.6365   -6.7798    0.0000 C   0  0  0  0  0  0  0  0  0  0  0  0
  1  2  1  0  0  0  0
  2  3  1  0  0  0  0
  3  4  1  0  0  0  0
  4  5  2  0  0  0  0
  5  6  1  0  0  0  0
  5  7  1  0  0  0  0
  1  8  1  0  0  0  0
  1  9  1  1  0  0  0
  1 10  1  0  0  0  0
 10 11  2  0  0  0  0
M  END
>  <cdx:fragmentId>
3

$$$$
