4551.cdx
  Mrv1902 05222410252D          

 21 23  0  0  0  0            999 V2000
    4.2314   -6.8888    0.0000 C   0  0  0  0  0  0  0  0  0  0  0  0
    4.2314   -7.7138    0.0000 C   0  0  0  0  0  0  0  0  0  0  0  0
    4.9459   -8.1263    0.0000 C   0  0  0  0  0  0  0  0  0  0  0  0
    5.6603   -7.7138    0.0000 C   0  0  0  0  0  0  0  0  0  0  0  0
    5.6603   -6.8888    0.0000 C   0  0  0  0  0  0  0  0  0  0  0  0
    4.9459   -6.4763    0.0000 C   0  0  0  0  0  0  0  0  0  0  0  0
    6.3748   -8.1263    0.0000 C   0  0  0  0  0  0  0  0  0  0  0  0
    7.0893   -7.7138    0.0000 C   0  0  0  0  0  0  0  0  0  0  0  0
    7.0893   -6.8888    0.0000 C   0  0  0  0  0  0  0  0  0  0  0  0
    6.3748   -6.4763    0.0000 O   0  0  0  0  0  0  0  0  0  0  0  0
    7.8038   -8.1263    0.0000 C   0  0  0  0  0  0  0  0  0  0  0  0
    7.8038   -8.9513    0.0000 C   0  0  0  0  0  0  0  0  0  0  0  0
    8.5182   -9.3637    0.0000 C   0  0  0  0  0  0  0  0  0  0  0  0
    9.2327   -8.9513    0.0000 C   0  0  0  0  0  0  0  0  0  0  0  0
    9.2327   -8.1263    0.0000 C   0  0  0  0  0  0  0  0  0  0  0  0
    8.5182   -7.7138    0.0000 C   0  0  0  0  0  0  0  0  0  0  0  0
    6.3748   -8.9513    0.0000 O   0  0  0  0  0  0  0  0  0  0  0  0
    9.9472   -7.7138    0.0000 O   0  0  0  0  0  0  0  0  0  0  0  0
    3.5169   -6.4763    0.0000 O   0  0  0  0  0  0  0  0  0  0  0  0
    9.9472   -9.3637    0.0000 O   0  0  0  0  0  0  0  0  0  0  0  0
   10.6616   -8.9512    0.0000 C   0  0  0  0  0  0  0  0  0  0  0  0
  1  2  2  0  0  0  0
  2  3  1  0  0  0  0
  3  4  2  0  0  0  0
  4  5  1  0  0  0  0
  5  6  2  0  0  0  0
  6  1  1  0  0  0  0
  4  7  1  0  0  0  0
  7  8  1  0  0  0  0
  8  9  2  0  0  0  0
  9 10  1  0  0  0  0
 10  5  1  0  0  0  0
  8 11  1  0  0  0  0
 11 12  2  0  0  0  0
 12 13  1  0  0  0  0
 13 14  2  0  0  0  0
 14 15  1  0  0  0  0
 15 16  2  0  0  0  0
 16 11  1  0  0  0  0
  7 17  2  0  0  0  0
 15 18  1  0  0  0  0
  1 19  1  0  0  0  0
 14 20  1  0  0  0  0
 20 21  1  0  0  0  0
M  END
>  <cdx:fragmentId>
5

$$$$
