4552.cdx
  Mrv1902 05222410252D          

 23 25  0  0  0  0            999 V2000
    3.7158   -6.4969    0.0000 C   0  0  0  0  0  0  0  0  0  0  0  0
    3.7158   -7.3219    0.0000 C   0  0  0  0  0  0  0  0  0  0  0  0
    4.4302   -7.7344    0.0000 C   0  0  0  0  0  0  0  0  0  0  0  0
    5.1447   -7.3219    0.0000 C   0  0  0  0  0  0  0  0  0  0  0  0
    5.1447   -6.4969    0.0000 C   0  0  0  0  0  0  0  0  0  0  0  0
    4.4302   -6.0844    0.0000 C   0  0  0  0  0  0  0  0  0  0  0  0
    5.8592   -7.7344    0.0000 C   0  0  0  0  0  0  0  0  0  0  0  0
    6.5737   -7.3219    0.0000 C   0  0  0  0  0  0  0  0  0  0  0  0
    6.5737   -6.4969    0.0000 C   0  0  0  0  0  0  0  0  0  0  0  0
    5.8592   -6.0844    0.0000 O   0  0  0  0  0  0  0  0  0  0  0  0
    7.2881   -6.0844    0.0000 C   0  0  0  0  0  0  0  0  0  0  0  0
    7.2881   -5.2594    0.0000 C   0  0  0  0  0  0  0  0  0  0  0  0
    8.0026   -6.4969    0.0000 C   0  0  0  0  0  0  0  0  0  0  0  0
    8.7171   -6.0844    0.0000 C   0  0  0  0  0  0  0  0  0  0  0  0
    8.7171   -5.2594    0.0000 C   0  0  0  0  0  0  0  0  0  0  0  0
    8.0026   -4.8469    0.0000 C   0  0  0  0  0  0  0  0  0  0  0  0
    7.2881   -7.7344    0.0000 O   0  0  0  0  0  0  0  0  0  0  0  0
    5.8592   -8.5594    0.0000 O   0  0  0  0  0  0  0  0  0  0  0  0
    3.0013   -6.0844    0.0000 O   0  0  0  0  0  0  0  0  0  0  0  0
    3.0013   -7.7344    0.0000 O   0  0  0  0  0  0  0  0  0  0  0  0
    2.2868   -8.1469    0.0000 C   0  0  0  0  0  0  0  0  0  0  0  0
    8.0026   -4.0219    0.0000 O   0  0  0  0  0  0  0  0  0  0  0  0
    9.4315   -4.8469    0.0000 O   0  0  0  0  0  0  0  0  0  0  0  0
  1  2  2  0  0  0  0
  2  3  1  0  0  0  0
  3  4  2  0  0  0  0
  4  5  1  0  0  0  0
  5  6  2  0  0  0  0
  6  1  1  0  0  0  0
  4  7  1  0  0  0  0
  7  8  1  0  0  0  0
  8  9  2  0  0  0  0
  9 10  1  0  0  0  0
 10  5  1  0  0  0  0
  9 11  1  0  0  0  0
 11 12  1  0  0  0  0
 11 13  2  0  0  0  0
 13 14  1  0  0  0  0
 14 15  2  0  0  0  0
 15 16  1  0  0  0  0
 16 12  2  0  0  0  0
  8 17  1  0  0  0  0
  7 18  2  0  0  0  0
  1 19  1  0  0  0  0
  2 20  1  0  0  0  0
 16 22  1  0  0  0  0
 15 23  1  0  0  0  0
 20 21  1  0  0  0  0
M  STY  1   1 SUP
M  SAL   1  2  20  21
M  SBL   1  1  22
M  SMT   1 OCH3
M  SAP   1  1  20   2  1
M  END
>  <cdx:fragmentId>
5

$$$$
