455477.cdx
  Mrv1902 05222410192D          

 34 37  0  0  0  0            999 V2000
    9.8661   -8.1972    0.0000 O   0  0  0  0  0  0  0  0  0  0  0  0
    7.0082   -9.0222    0.0000 O   0  0  0  0  0  0  0  0  0  0  0  0
   12.0095   -5.3097    0.0000 O   0  0  0  0  0  0  0  0  0  0  0  0
    9.8661   -5.7222    0.0000 C   0  0  0  0  0  0  0  0  0  0  0  0
   10.5806   -5.3097    0.0000 C   0  0  0  0  0  0  0  0  0  0  0  0
   11.2951   -5.7222    0.0000 C   0  0  0  0  0  0  0  0  0  0  0  0
   11.2951   -6.5472    0.0000 C   0  0  0  0  0  0  0  0  0  0  0  0
   10.5806   -6.9597    0.0000 C   0  0  0  0  0  0  0  0  0  0  0  0
    9.8661   -6.5472    0.0000 C   0  0  0  0  0  0  0  0  0  0  0  0
    5.5793   -8.1972    0.0000 O   0  0  0  0  0  0  0  0  0  0  0  0
    4.1504   -9.0222    0.0000 O   0  0  0  0  0  0  0  0  0  0  0  0
    2.7214   -8.1972    0.0000 O   0  0  0  0  0  0  0  0  0  0  0  0
    2.0070   -6.9597    0.0000 O   0  0  0  0  0  0  0  0  0  0  0  0
    2.7214   -6.5472    0.0000 C   0  0  0  0  0  0  0  0  0  0  0  0
    3.4359   -6.9597    0.0000 C   0  0  2  0  0  0  0  0  0  0  0  0
    3.4359   -7.7847    0.0000 C   0  0  2  0  0  0  0  0  0  0  0  0
    4.1504   -8.1972    0.0000 C   0  0  1  0  0  0  0  0  0  0  0  0
    4.8648   -7.7847    0.0000 C   0  0  2  0  0  0  0  0  0  0  0  0
    4.8648   -6.9597    0.0000 C   0  0  1  0  0  0  0  0  0  0  0  0
    4.1504   -6.5472    0.0000 O   0  0  0  0  0  0  0  0  0  0  0  0
    5.5793   -6.5472    0.0000 O   0  0  0  0  0  0  0  0  0  0  0  0
    8.4372   -9.0222    0.0000 O   0  0  0  0  0  0  0  0  0  0  0  0
    8.4372   -6.5472    0.0000 O   0  0  0  0  0  0  0  0  0  0  0  0
    7.7227   -6.9597    0.0000 C   0  0  0  0  0  0  0  0  0  0  0  0
    7.0082   -6.5472    0.0000 C   0  0  0  0  0  0  0  0  0  0  0  0
    6.2938   -6.9597    0.0000 C   0  0  0  0  0  0  0  0  0  0  0  0
    6.2938   -7.7847    0.0000 C   0  0  0  0  0  0  0  0  0  0  0  0
    7.0082   -8.1972    0.0000 C   0  0  0  0  0  0  0  0  0  0  0  0
    7.7227   -7.7847    0.0000 C   0  0  0  0  0  0  0  0  0  0  0  0
    8.4372   -8.1972    0.0000 C   0  0  0  0  0  0  0  0  0  0  0  0
    9.1517   -7.7847    0.0000 C   0  0  0  0  0  0  0  0  0  0  0  0
    9.1517   -6.9597    0.0000 C   0  0  0  0  0  0  0  0  0  0  0  0
   10.5806   -4.4847    0.0000 O   0  0  0  0  0  0  0  0  0  0  0  0
   11.2951   -4.0722    0.0000 C   0  0  0  0  0  0  0  0  0  0  0  0
 31  1  1  0  0  0  0
 28  2  1  0  0  0  0
 32  9  1  0  0  0  0
  6  3  1  0  0  0  0
  9  4  2  0  0  0  0
  5  4  1  0  0  0  0
  6  5  2  0  0  0  0
  7  6  1  0  0  0  0
  8  7  2  0  0  0  0
  9  8  1  0  0  0  0
 26 21  1  0  0  0  0
 19 21  1  1  0  0  0
 18 10  1  6  0  0  0
 17 11  1  1  0  0  0
 16 12  1  6  0  0  0
 15 14  1  1  0  0  0
 14 13  1  0  0  0  0
 20 15  1  0  0  0  0
 16 15  1  0  0  0  0
 17 16  1  0  0  0  0
 18 17  1  0  0  0  0
 19 18  1  0  0  0  0
 20 19  1  0  0  0  0
 30 22  2  0  0  0  0
 32 23  1  0  0  0  0
 24 23  1  0  0  0  0
 29 24  2  0  0  0  0
 25 24  1  0  0  0  0
 26 25  2  0  0  0  0
 27 26  1  0  0  0  0
 28 27  2  0  0  0  0
 29 28  1  0  0  0  0
 30 29  1  0  0  0  0
 31 30  1  0  0  0  0
 32 31  2  0  0  0  0
  5 33  1  0  0  0  0
 33 34  1  0  0  0  0
M  END
>  <cdx:fragmentId>
22944

$$$$
