456517.cdx
  Mrv1902 05222410232D          

 54 61  0  0  0  0            999 V2000
   10.7964   -7.3494    0.0000 O   0  0  0  0  0  0  0  0  0  0  0  0
   12.1863   -9.8465    0.0000 O   0  0  0  0  0  0  0  0  0  0  0  0
   10.0325  -11.8821    0.0000 O   0  0  0  0  0  0  0  0  0  0  0  0
    6.4543  -12.2702    0.0000 O   0  0  0  0  0  0  0  0  0  0  0  0
    6.4664  -10.6254    0.0000 O   0  0  0  0  0  0  0  0  0  0  0  0
    7.8938  -10.6298    0.0000 C   0  0  0  0  0  0  0  0  0  0  0  0
    7.1788  -11.0414    0.0000 C   0  0  0  0  0  0  0  0  0  0  0  0
    7.1718  -11.8629    0.0000 C   0  0  0  0  0  0  0  0  0  0  0  0
    7.8837  -12.2798    0.0000 C   0  0  0  0  0  0  0  0  0  0  0  0
    8.5967  -11.8716    0.0000 C   0  0  0  0  0  0  0  0  0  0  0  0
    8.6057  -11.0467    0.0000 C   0  0  0  0  0  0  0  0  0  0  0  0
    9.3326   -9.8222    0.0000 O   0  0  0  0  0  0  0  0  0  0  0  0
    9.3237  -10.6403    0.0000 C   0  0  1  0  0  0  0  0  0  0  0  0
   10.0356  -11.0571    0.0000 C   0  0  1  0  0  0  0  0  0  0  0  0
   10.7446  -10.6490    0.0000 C   0  0  0  0  0  0  0  0  0  0  0  0
   10.0497   -9.4004    0.0000 C   0  0  0  0  0  0  0  0  0  0  0  0
   10.7576   -9.8241    0.0000 C   0  0  0  0  0  0  0  0  0  0  0  0
   11.4784   -9.4228    0.0000 C   0  0  0  0  0  0  0  0  0  0  0  0
   11.4914   -8.5979    0.0000 C   0  0  0  0  0  0  0  0  0  0  0  0
   10.7835   -8.1743    0.0000 C   0  0  0  0  0  0  0  0  0  0  0  0
   10.0626   -8.5755    0.0000 C   0  0  0  0  0  0  0  0  0  0  0  0
    5.4074   -9.1247    0.0000 C   0  0  0  0  0  0  0  0  0  0  0  0
    5.4203   -8.2998    0.0000 C   0  0  0  0  0  0  0  0  0  0  0  0
    6.1412   -7.8986    0.0000 C   0  0  1  0  0  0  0  0  0  0  0  0
    6.8491   -8.3223    0.0000 C   0  0  0  0  0  0  0  0  0  0  0  0
    7.5700   -7.9210    0.0000 C   0  0  0  0  0  0  0  0  0  0  0  0
    8.2779   -8.3447    0.0000 C   0  0  0  0  0  0  0  0  0  0  0  0
    8.2649   -9.1696    0.0000 C   0  0  0  0  0  0  0  0  0  0  0  0
    7.5441   -9.5708    0.0000 C   0  0  0  0  0  0  0  0  0  0  0  0
    6.8362   -9.1472    0.0000 C   0  0  0  0  0  0  0  0  0  0  0  0
    6.1153   -9.5484    0.0000 O   0  0  0  0  0  0  0  0  0  0  0  0
    8.9987   -7.9434    0.0000 C   0  0  0  0  0  0  0  0  0  0  0  0
    9.0117   -7.1185    0.0000 C   0  0  2  0  0  0  0  0  0  0  0  0
    8.3037   -6.6949    0.0000 C   0  0  2  0  0  0  0  0  0  0  0  0
    7.5829   -7.0961    0.0000 O   0  0  0  0  0  0  0  0  0  0  0  0
    4.6865   -9.5260    0.0000 O   0  0  0  0  0  0  0  0  0  0  0  0
    8.9728   -9.5932    0.0000 O   0  0  0  0  0  0  0  0  0  0  0  0
    9.7325   -6.7173    0.0000 O   0  0  0  0  0  0  0  0  0  0  0  0
    6.1541   -7.0737    0.0000 C   0  0  0  0  0  0  0  0  0  0  0  0
    5.4462   -6.6500    0.0000 C   0  0  0  0  0  0  0  0  0  0  0  0
    5.4592   -5.8251    0.0000 C   0  0  0  0  0  0  0  0  0  0  0  0
    6.1800   -5.4239    0.0000 C   0  0  0  0  0  0  0  0  0  0  0  0
    6.8879   -5.8476    0.0000 C   0  0  0  0  0  0  0  0  0  0  0  0
    6.8750   -6.6725    0.0000 C   0  0  0  0  0  0  0  0  0  0  0  0
    6.1930   -4.5990    0.0000 O   0  0  0  0  0  0  0  0  0  0  0  0
    4.7512   -5.4015    0.0000 O   0  0  0  0  0  0  0  0  0  0  0  0
    8.3167   -5.8700    0.0000 C   0  0  0  0  0  0  0  0  0  0  0  0
    7.6088   -5.4463    0.0000 C   0  0  0  0  0  0  0  0  0  0  0  0
    7.6217   -4.6214    0.0000 C   0  0  0  0  0  0  0  0  0  0  0  0
    8.3426   -4.2202    0.0000 C   0  0  0  0  0  0  0  0  0  0  0  0
    9.0505   -4.6438    0.0000 C   0  0  0  0  0  0  0  0  0  0  0  0
    9.0375   -5.4687    0.0000 C   0  0  0  0  0  0  0  0  0  0  0  0
    8.3555   -3.3953    0.0000 O   0  0  0  0  0  0  0  0  0  0  0  0
    9.7713   -4.2426    0.0000 O   0  0  0  0  0  0  0  0  0  0  0  0
 20  1  1  0  0  0  0
 18  2  1  0  0  0  0
 14  3  1  1  0  0  0
  8  4  1  0  0  0  0
  7  5  1  0  0  0  0
  6 11  1  0  0  0  0
  7  6  2  0  0  0  0
  8  7  1  0  0  0  0
  9  8  2  0  0  0  0
 10  9  1  0  0  0  0
 11 10  2  0  0  0  0
 13 11  1  1  0  0  0
 12 16  1  0  0  0  0
 13 12  1  0  0  0  0
 14 13  1  0  0  0  0
 15 14  1  0  0  0  0
 17 15  1  0  0  0  0
 16 21  1  0  0  0  0
 17 16  2  0  0  0  0
 18 17  1  0  0  0  0
 19 18  2  0  0  0  0
 20 19  1  0  0  0  0
 21 20  2  0  0  0  0
 32 21  1  0  0  0  0
 22 23  1  0  0  0  0
 23 24  1  0  0  0  0
 24 25  1  0  0  0  0
 25 26  1  0  0  0  0
 26 27  2  0  0  0  0
 27 28  1  0  0  0  0
 28 29  2  0  0  0  0
 29 30  1  0  0  0  0
 25 30  2  0  0  0  0
 30 31  1  0  0  0  0
 22 31  1  0  0  0  0
 32 33  1  0  0  0  0
 33 34  1  0  0  0  0
 34 35  1  0  0  0  0
 35 26  1  0  0  0  0
 32 27  1  0  0  0  0
 22 36  2  0  0  0  0
 28 37  1  0  0  0  0
 33 38  1  6  0  0  0
 39 40  1  0  0  0  0
 40 41  2  0  0  0  0
 41 42  1  0  0  0  0
 42 43  2  0  0  0  0
 43 44  1  0  0  0  0
 39 44  2  0  0  0  0
 42 45  1  0  0  0  0
 41 46  1  0  0  0  0
 24 39  1  6  0  0  0
 47 48  1  0  0  0  0
 48 49  2  0  0  0  0
 49 50  1  0  0  0  0
 50 51  2  0  0  0  0
 51 52  1  0  0  0  0
 47 52  2  0  0  0  0
 50 53  1  0  0  0  0
 34 47  1  6  0  0  0
 51 54  1  0  0  0  0
M  END
>  <cdx:fragmentId>
5

$$$$
