10456516.cdx
  Mrv1902 05222410232D          

 33 37  0  0  0  0            999 V2000
    5.6388   -9.1487    0.0000 C   0  0  0  0  0  0  0  0  0  0  0  0
    5.6388   -8.3237    0.0000 C   0  0  0  0  0  0  0  0  0  0  0  0
    6.3533   -7.9112    0.0000 C   0  0  1  0  0  0  0  0  0  0  0  0
    7.0678   -8.3237    0.0000 C   0  0  0  0  0  0  0  0  0  0  0  0
    7.7822   -7.9112    0.0000 C   0  0  0  0  0  0  0  0  0  0  0  0
    8.4967   -8.3237    0.0000 C   0  0  0  0  0  0  0  0  0  0  0  0
    8.4967   -9.1487    0.0000 C   0  0  0  0  0  0  0  0  0  0  0  0
    7.7822   -9.5612    0.0000 C   0  0  0  0  0  0  0  0  0  0  0  0
    7.0678   -9.1487    0.0000 C   0  0  0  0  0  0  0  0  0  0  0  0
    6.3533   -9.5612    0.0000 O   0  0  0  0  0  0  0  0  0  0  0  0
    9.2112   -7.9112    0.0000 C   0  0  0  0  0  0  0  0  0  0  0  0
    9.2112   -7.0862    0.0000 C   0  0  2  0  0  0  0  0  0  0  0  0
    8.4967   -6.6737    0.0000 C   0  0  2  0  0  0  0  0  0  0  0  0
    7.7822   -7.0862    0.0000 O   0  0  0  0  0  0  0  0  0  0  0  0
    4.9244   -9.5612    0.0000 O   0  0  0  0  0  0  0  0  0  0  0  0
    9.2112   -9.5612    0.0000 O   0  0  0  0  0  0  0  0  0  0  0  0
    9.9256   -6.6737    0.0000 O   0  0  0  0  0  0  0  0  0  0  0  0
    6.3533   -7.0862    0.0000 C   0  0  0  0  0  0  0  0  0  0  0  0
    5.6388   -6.6737    0.0000 C   0  0  0  0  0  0  0  0  0  0  0  0
    5.6388   -5.8487    0.0000 C   0  0  0  0  0  0  0  0  0  0  0  0
    6.3533   -5.4362    0.0000 C   0  0  0  0  0  0  0  0  0  0  0  0
    7.0678   -5.8487    0.0000 C   0  0  0  0  0  0  0  0  0  0  0  0
    7.0678   -6.6737    0.0000 C   0  0  0  0  0  0  0  0  0  0  0  0
    6.3533   -4.6112    0.0000 O   0  0  0  0  0  0  0  0  0  0  0  0
    4.9244   -5.4362    0.0000 O   0  0  0  0  0  0  0  0  0  0  0  0
    8.4967   -5.8487    0.0000 C   0  0  0  0  0  0  0  0  0  0  0  0
    7.7822   -5.4362    0.0000 C   0  0  0  0  0  0  0  0  0  0  0  0
    7.7822   -4.6112    0.0000 C   0  0  0  0  0  0  0  0  0  0  0  0
    8.4967   -4.1987    0.0000 C   0  0  0  0  0  0  0  0  0  0  0  0
    9.2112   -4.6112    0.0000 C   0  0  0  0  0  0  0  0  0  0  0  0
    9.2112   -5.4362    0.0000 C   0  0  0  0  0  0  0  0  0  0  0  0
    8.4967   -3.3737    0.0000 O   0  0  0  0  0  0  0  0  0  0  0  0
    9.9256   -4.1987    0.0000 O   0  0  0  0  0  0  0  0  0  0  0  0
  1  2  1  0  0  0  0
  2  3  1  0  0  0  0
  3  4  1  0  0  0  0
  4  5  1  0  0  0  0
  5  6  2  0  0  0  0
  6  7  1  0  0  0  0
  7  8  2  0  0  0  0
  8  9  1  0  0  0  0
  4  9  2  0  0  0  0
  9 10  1  0  0  0  0
  1 10  1  0  0  0  0
 11 12  1  0  0  0  0
 12 13  1  0  0  0  0
 13 14  1  0  0  0  0
 14  5  1  0  0  0  0
 11  6  1  0  0  0  0
  1 15  2  0  0  0  0
  7 16  1  0  0  0  0
 12 17  1  6  0  0  0
 18 19  1  0  0  0  0
 19 20  2  0  0  0  0
 20 21  1  0  0  0  0
 21 22  2  0  0  0  0
 22 23  1  0  0  0  0
 18 23  2  0  0  0  0
 21 24  1  0  0  0  0
 20 25  1  0  0  0  0
  3 18  1  6  0  0  0
 26 27  1  0  0  0  0
 27 28  2  0  0  0  0
 28 29  1  0  0  0  0
 29 30  2  0  0  0  0
 30 31  1  0  0  0  0
 26 31  2  0  0  0  0
 29 32  1  0  0  0  0
 13 26  1  6  0  0  0
 30 33  1  0  0  0  0
M  END
>  <cdx:groupId>
105

>  <cdx:fragmentId>
5

$$$$
