44456685.cdx
  Mrv1902 05222410222D          

 40 45  0  0  0  0            999 V2000
    5.8393  -13.8677    0.0000 C   0  0  0  0  0  0  0  0  0  0  0  0
    5.8393  -13.0427    0.0000 C   0  0  0  0  0  0  0  0  0  0  0  0
    5.1248  -12.6302    0.0000 C   0  0  0  0  0  0  0  0  0  0  0  0
    4.4104  -13.0427    0.0000 C   0  0  0  0  0  0  0  0  0  0  0  0
    3.6959  -12.6302    0.0000 C   0  0  0  0  0  0  0  0  0  0  0  0
    2.9814  -13.0427    0.0000 C   0  0  0  0  0  0  0  0  0  0  0  0
    2.9814  -13.8677    0.0000 C   0  0  0  0  0  0  0  0  0  0  0  0
    3.6959  -14.2802    0.0000 C   0  0  0  0  0  0  0  0  0  0  0  0
    4.4104  -13.8677    0.0000 C   0  0  0  0  0  0  0  0  0  0  0  0
    5.1248  -14.2802    0.0000 O   0  0  0  0  0  0  0  0  0  0  0  0
    5.1248  -11.8052    0.0000 O   0  0  0  0  0  0  0  0  0  0  0  0
    6.5538  -14.2802    0.0000 C   0  0  0  0  0  0  0  0  0  0  0  0
    7.2682  -13.8677    0.0000 C   0  0  0  0  0  0  0  0  0  0  0  0
    7.9827  -14.2802    0.0000 C   0  0  0  0  0  0  0  0  0  0  0  0
    7.9827  -15.1052    0.0000 C   0  0  0  0  0  0  0  0  0  0  0  0
    7.2682  -15.5177    0.0000 C   0  0  0  0  0  0  0  0  0  0  0  0
    6.5538  -15.1052    0.0000 C   0  0  0  0  0  0  0  0  0  0  0  0
    8.6972  -15.5177    0.0000 O   0  0  0  0  0  0  0  0  0  0  0  0
    2.2670  -14.2802    0.0000 O   0  0  0  0  0  0  0  0  0  0  0  0
    3.6959  -11.8052    0.0000 O   0  0  0  0  0  0  0  0  0  0  0  0
    6.5538  -12.6302    0.0000 C   0  0  0  0  0  0  0  0  0  0  0  0
    6.5538  -11.8052    0.0000 C   0  0  0  0  0  0  0  0  0  0  0  0
    7.2682  -11.3927    0.0000 C   0  0  0  0  0  0  0  0  0  0  0  0
    7.9827  -11.8052    0.0000 C   0  0  0  0  0  0  0  0  0  0  0  0
    7.9827  -12.6302    0.0000 C   0  0  0  0  0  0  0  0  0  0  0  0
    7.2682  -13.0427    0.0000 C   0  0  0  0  0  0  0  0  0  0  0  0
    5.8393  -11.3927    0.0000 O   0  0  0  0  0  0  0  0  0  0  0  0
    8.6972  -13.0427    0.0000 C   0  0  0  0  0  0  0  0  0  0  0  0
    8.6972  -13.8677    0.0000 C   0  0  0  0  0  0  0  0  0  0  0  0
    9.4117  -14.2802    0.0000 C   0  0  0  0  0  0  0  0  0  0  0  0
   10.1261  -13.8677    0.0000 C   0  0  0  0  0  0  0  0  0  0  0  0
   10.8406  -14.2802    0.0000 C   0  0  0  0  0  0  0  0  0  0  0  0
   11.5551  -13.8677    0.0000 C   0  0  0  0  0  0  0  0  0  0  0  0
   11.5551  -13.0427    0.0000 C   0  0  0  0  0  0  0  0  0  0  0  0
   10.8406  -12.6302    0.0000 C   0  0  0  0  0  0  0  0  0  0  0  0
   10.1261  -13.0427    0.0000 C   0  0  0  0  0  0  0  0  0  0  0  0
    9.4117  -12.6302    0.0000 O   0  0  0  0  0  0  0  0  0  0  0  0
    9.4117  -15.1052    0.0000 O   0  0  0  0  0  0  0  0  0  0  0  0
   12.2695  -12.6302    0.0000 O   0  0  0  0  0  0  0  0  0  0  0  0
   10.8406  -15.1052    0.0000 O   0  0  0  0  0  0  0  0  0  0  0  0
  1  2  2  0  0  0  0
  2  3  1  0  0  0  0
  3  4  1  0  0  0  0
  4  5  1  0  0  0  0
  5  6  2  0  0  0  0
  6  7  1  0  0  0  0
  7  8  2  0  0  0  0
  8  9  1  0  0  0  0
  4  9  2  0  0  0  0
  9 10  1  0  0  0  0
  1 10  1  0  0  0  0
  3 11  2  0  0  0  0
 12 13  1  0  0  0  0
 13 14  2  0  0  0  0
 14 15  1  0  0  0  0
 15 16  2  0  0  0  0
 16 17  1  0  0  0  0
 12 17  2  0  0  0  0
 15 18  1  0  0  0  0
  1 12  1  0  0  0  0
  7 19  1  0  0  0  0
  5 20  1  0  0  0  0
 21 22  1  0  0  0  0
 22 23  2  0  0  0  0
 23 24  1  0  0  0  0
 24 25  2  0  0  0  0
 25 26  1  0  0  0  0
 21 26  2  0  0  0  0
 22 27  1  0  0  0  0
 28 29  2  0  0  0  0
 29 30  1  0  0  0  0
 30 31  1  0  0  0  0
 31 32  1  0  0  0  0
 32 33  2  0  0  0  0
 33 34  1  0  0  0  0
 34 35  2  0  0  0  0
 35 36  1  0  0  0  0
 31 36  2  0  0  0  0
 36 37  1  0  0  0  0
 28 37  1  0  0  0  0
 30 38  2  0  0  0  0
 34 39  1  0  0  0  0
 32 40  1  0  0  0  0
 25 28  1  0  0  0  0
  2 21  1  0  0  0  0
M  END
>  <cdx:groupId>
164026

>  <cdx:fragmentId>
163958

$$$$
