456947.cdx
  Mrv1902 05222410272D          

 33 38  0  0  0  0            999 V2000
    7.6003   -7.8769    0.0000 C   0  0  2  0  0  0  0  0  0  0  0  0
    6.8835   -7.4685    0.0000 C   0  0  2  0  0  0  0  0  0  0  0  0
    6.1714   -7.8851    0.0000 C   0  0  1  0  0  0  0  0  0  0  0  0
    6.1762   -8.7101    0.0000 C   0  0  2  0  0  0  0  0  0  0  0  0
    6.8930   -9.1185    0.0000 C   0  0  2  0  0  0  0  0  0  0  0  0
    7.6051   -8.7019    0.0000 C   0  0  1  0  0  0  0  0  0  0  0  0
    8.3666   -7.5711    0.0000 C   0  0  1  0  0  0  0  0  0  0  0  0
    8.6052   -6.7813    0.0000 C   0  0  1  0  0  0  0  0  0  0  0  0
    8.1365   -6.1024    0.0000 C   0  0  2  0  0  0  0  0  0  0  0  0
    7.3135   -6.0455    0.0000 C   0  0  0  0  0  0  0  0  0  0  0  0
    6.7559   -6.6534    0.0000 C   0  0  0  0  0  0  0  0  0  0  0  0
    5.4546   -7.4767    0.0000 C   0  0  2  0  0  0  0  0  0  0  0  0
    4.7425   -7.8933    0.0000 C   0  0  0  0  0  0  0  0  0  0  0  0
    4.7472   -8.7183    0.0000 C   0  0  0  0  0  0  0  0  0  0  0  0
    5.4641   -9.1267    0.0000 C   0  0  2  0  0  0  0  0  0  0  0  0
    7.0413   -7.9693    0.0000 C   0  0  1  0  0  0  0  0  0  0  0  0
    6.9094   -8.8119    0.0000 N   0  0  0  0  0  0  0  0  0  0  0  0
    9.3197   -7.1938    0.0000 O   0  0  0  0  0  0  0  0  0  0  0  0
    8.5449   -5.3856    0.0000 H   0  0  0  0  0  0  0  0  0  0  0  0
    8.9745   -8.1287    0.0000 O   0  0  0  0  0  0  0  0  0  0  0  0
    8.3219   -9.1103    0.0000 H   0  0  0  0  0  0  0  0  0  0  0  0
    5.4498   -6.6517    0.0000 O   0  0  0  0  0  0  0  0  0  0  0  0
    6.1667   -7.0601    0.0000 H   0  0  0  0  0  0  0  0  0  0  0  0
    5.0557   -9.8435    0.0000 C   0  0  0  0  0  0  0  0  0  0  0  0
    5.4593   -8.3017    0.0000 H   0  0  0  0  0  0  0  0  0  0  0  0
    6.3132   -9.3585    0.0000 C   0  0  0  0  0  0  0  0  0  0  0  0
    7.6262   -9.2203    0.0000 C   0  0  0  0  0  0  0  0  0  0  0  0
    8.0531   -7.0265    0.0000 C   0  0  0  0  0  0  0  0  0  0  0  0
    7.6310  -10.0453    0.0000 C   0  0  0  0  0  0  0  0  0  0  0  0
    7.4497   -7.2524    0.0000 H   0  0  0  0  0  0  0  0  0  0  0  0
    6.8977   -9.9435    0.0000 O   0  0  0  0  0  0  0  0  0  0  0  0
    9.3197   -6.3688    0.0000 C   0  0  0  0  0  0  0  0  0  0  0  0
   10.0341   -6.7813    0.0000 O   0  0  0  0  0  0  0  0  0  0  0  0
  1  2  1  0  0  0  0
  2  3  1  0  0  0  0
  3  4  1  0  0  0  0
  4  5  1  0  0  0  0
  5  6  1  0  0  0  0
  6  1  1  0  0  0  0
  1  7  1  0  0  0  0
  7  8  1  0  0  0  0
  8  9  1  0  0  0  0
  9 10  1  0  0  0  0
 10 11  1  0  0  0  0
 11  2  1  0  0  0  0
  3 12  1  6  0  0  0
 12 13  1  0  0  0  0
 13 14  1  0  0  0  0
 14 15  1  0  0  0  0
 15  4  1  0  0  0  0
  6 16  1  0  0  0  0
 16  3  1  0  0  0  0
 16 17  1  0  0  0  0
  8 18  1  0  0  0  0
  9 19  1  6  0  0  0
  7 20  1  1  0  0  0
  6 21  1  6  0  0  0
 12 22  1  6  0  0  0
  2 23  1  1  0  0  0
 15 24  1  1  0  0  0
  4 25  1  1  0  0  0
 17 26  1  0  0  0  0
 17 27  1  0  0  0  0
  1 28  1  6  0  0  0
 28  9  1  0  0  0  0
 15 26  1  0  0  0  0
 27 29  1  0  0  0  0
 16 30  1  6  0  0  0
  5 31  1  6  0  0  0
  8 32  1  6  0  0  0
 32 33  1  0  0  0  0
M  END
>  <cdx:fragmentId>
255

$$$$
