457213.cdx
  Mrv1902 05222410212D          

 17 17  0  0  0  0            999 V2000
    6.6242   -9.3474    0.0000 O   0  0  0  0  0  0  0  0  0  0  0  0
    5.9067   -9.7546    0.0000 C   0  0  1  0  0  0  0  0  0  0  0  0
    5.9006  -10.5796    0.0000 C   0  0  2  0  0  0  0  0  0  0  0  0
    6.6120  -10.9974    0.0000 C   0  0  1  0  0  0  0  0  0  0  0  0
    7.3295  -10.5902    0.0000 C   0  0  2  0  0  0  0  0  0  0  0  0
    7.3356   -9.7652    0.0000 C   0  0  2  0  0  0  0  0  0  0  0  0
    5.1831  -10.9867    0.0000 O   0  0  0  0  0  0  0  0  0  0  0  0
    6.6058  -11.8224    0.0000 O   0  0  0  0  0  0  0  0  0  0  0  0
    8.0409  -11.0080    0.0000 O   0  0  0  0  0  0  0  0  0  0  0  0
    8.0532   -9.3581    0.0000 O   0  0  0  0  0  0  0  0  0  0  0  0
    5.1953   -9.3368    0.0000 C   0  0  0  0  0  0  0  0  0  0  0  0
    4.4778   -9.7440    0.0000 O   0  0  0  0  0  0  0  0  0  0  0  0
    8.0593   -8.5331    0.0000 C   0  0  0  0  0  0  0  0  0  0  0  0
    7.2575   -8.5331    0.0000 C   0  0  0  0  0  0  0  0  0  0  0  0
    8.8277   -8.5331    0.0000 C   0  0  0  0  0  0  0  0  0  0  0  0
    8.0654   -7.7081    0.0000 C   0  0  0  0  0  0  0  0  0  0  0  0
    8.7128   -7.3343    0.0000 C   0  0  0  0  0  0  0  0  0  0  0  0
  1  2  1  0  0  0  0
  2  3  1  0  0  0  0
  3  4  1  0  0  0  0
  4  5  1  0  0  0  0
  5  6  1  0  0  0  0
  1  6  1  0  0  0  0
  3  7  1  6  0  0  0
  4  8  1  1  0  0  0
  5  9  1  6  0  0  0
  6 10  1  1  0  0  0
 11 12  1  0  0  0  0
  2 11  1  1  0  0  0
 10 13  1  0  0  0  0
 13 14  1  0  0  0  0
 13 15  1  0  0  0  0
 13 16  1  0  0  0  0
 16 17  2  0  0  0  0
M  END
>  <cdx:fragmentId>
60031

$$$$
