4573.cdx
  Mrv1902 05222410232D          

 27 29  0  0  0  0            999 V2000
    3.9014   -9.4462    0.0000 C   0  0  0  0  0  0  0  0  0  0  0  0
    3.9014  -10.2713    0.0000 C   0  0  0  0  0  0  0  0  0  0  0  0
    4.6159  -10.6837    0.0000 C   0  0  0  0  0  0  0  0  0  0  0  0
    5.3303  -10.2713    0.0000 C   0  0  0  0  0  0  0  0  0  0  0  0
    5.3303   -9.4462    0.0000 C   0  0  0  0  0  0  0  0  0  0  0  0
    4.6159   -9.0337    0.0000 C   0  0  0  0  0  0  0  0  0  0  0  0
    6.0448  -10.6837    0.0000 C   0  0  0  0  0  0  0  0  0  0  0  0
    6.7593  -10.2713    0.0000 C   0  0  1  0  0  0  0  0  0  0  0  0
    6.7593   -9.4462    0.0000 C   0  0  0  0  0  0  0  0  0  0  0  0
    6.0448   -9.0337    0.0000 O   0  0  0  0  0  0  0  0  0  0  0  0
    7.4738   -9.0337    0.0000 C   0  0  0  0  0  0  0  0  0  0  0  0
    7.4738   -8.2088    0.0000 C   0  0  0  0  0  0  0  0  0  0  0  0
    8.1882   -9.4462    0.0000 C   0  0  0  0  0  0  0  0  0  0  0  0
    8.9027   -9.0337    0.0000 C   0  0  0  0  0  0  0  0  0  0  0  0
    8.9027   -8.2088    0.0000 C   0  0  0  0  0  0  0  0  0  0  0  0
    8.1882   -7.7963    0.0000 C   0  0  0  0  0  0  0  0  0  0  0  0
    4.6159   -8.2088    0.0000 C   0  0  0  0  0  0  0  0  0  0  0  0
    3.9014   -7.7963    0.0000 C   0  0  0  0  0  0  0  0  0  0  0  0
    3.1869   -9.0337    0.0000 O   0  0  0  0  0  0  0  0  0  0  0  0
    4.6159   -6.5587    0.0000 C   0  0  0  0  0  0  0  0  0  0  0  0
    3.9014   -6.9712    0.0000 C   0  0  0  0  0  0  0  0  0  0  0  0
    3.1869   -6.5587    0.0000 C   0  0  0  0  0  0  0  0  0  0  0  0
    4.6159  -11.5088    0.0000 O   0  0  0  0  0  0  0  0  0  0  0  0
    4.6159  -12.3337    0.0000 C   0  0  0  0  0  0  0  0  0  0  0  0
    6.0448  -11.5087    0.0000 O   0  0  0  0  0  0  0  0  0  0  0  0
    9.6172   -7.7963    0.0000 O   0  0  0  0  0  0  0  0  0  0  0  0
    7.4738  -10.6837    0.0000 O   0  0  0  0  0  0  0  0  0  0  0  0
  1  2  2  0  0  0  0
  2  3  1  0  0  0  0
  3  4  2  0  0  0  0
  4  5  1  0  0  0  0
  5  6  2  0  0  0  0
  6  1  1  0  0  0  0
  4  7  1  0  0  0  0
  7  8  1  0  0  0  0
  8  9  1  0  0  0  0
  9 10  1  0  0  0  0
 10  5  1  0  0  0  0
  9 11  1  0  0  0  0
 11 12  1  0  0  0  0
 11 13  2  0  0  0  0
 13 14  1  0  0  0  0
 14 15  2  0  0  0  0
 15 16  1  0  0  0  0
 16 12  2  0  0  0  0
  6 17  1  0  0  0  0
 17 18  1  0  0  0  0
 19  1  1  0  0  0  0
 20 21  1  0  0  0  0
 21 18  2  0  0  0  0
 21 22  1  0  0  0  0
  3 23  1  0  0  0  0
  7 25  2  0  0  0  0
 15 26  1  0  0  0  0
  8 27  1  1  0  0  0
 23 24  1  0  0  0  0
M  STY  1   1 SUP
M  SAL   1  2  23  24
M  SBL   1  1  25
M  SMT   1 OCH3
M  SAP   1  1  23   3  1
M  END
>  <cdx:fragmentId>
5

$$$$
