457627.cdx
  Mrv1902 05222410252D          

 39 42  0  0  0  0            999 V2000
   11.2941   -3.4579    0.0000 C   0  0  0  0  0  0  0  0  0  0  0  0
   10.4871   -3.6294    0.0000 C   0  0  0  0  0  0  0  0  0  0  0  0
   10.2322   -4.4140    0.0000 C   0  0  0  0  0  0  0  0  0  0  0  0
    9.4252   -4.5855    0.0000 C   0  0  0  0  0  0  0  0  0  0  0  0
    9.1703   -5.3702    0.0000 C   0  0  0  0  0  0  0  0  0  0  0  0
    8.3633   -5.5417    0.0000 C   0  0  0  0  0  0  0  0  0  0  0  0
    7.8112   -4.9286    0.0000 C   0  0  0  0  0  0  0  0  0  0  0  0
   11.5490   -2.6733    0.0000 O   0  0  0  0  0  0  0  0  0  0  0  0
   11.8461   -4.0710    0.0000 O   0  0  0  0  0  0  0  0  0  0  0  0
    8.8732   -3.9725    0.0000 O   0  0  0  0  0  0  0  0  0  0  0  0
    9.9351   -3.0163    0.0000 C   0  0  0  0  0  0  0  0  0  0  0  0
    4.4658   -7.4063    0.0000 C   0  0  0  0  0  0  0  0  0  0  0  0
    3.7514   -7.8188    0.0000 C   0  0  0  0  0  0  0  0  0  0  0  0
    3.7514   -8.6438    0.0000 C   0  0  1  0  0  0  0  0  0  0  0  0
    4.4658   -9.0563    0.0000 C   0  0  0  0  0  0  0  0  0  0  0  0
    5.1803   -8.6438    0.0000 C   0  0  2  0  0  0  0  0  0  0  0  0
    5.8948   -9.0563    0.0000 C   0  0  0  0  0  0  0  0  0  0  0  0
    6.6092   -8.6438    0.0000 C   0  0  1  0  0  0  0  0  0  0  0  0
    6.6092   -7.8188    0.0000 C   0  0  0  0  0  0  0  0  0  0  0  0
    7.3237   -7.4063    0.0000 C   0  0  2  0  0  0  0  0  0  0  0  0
    8.1083   -7.6612    0.0000 C   0  0  0  0  0  0  0  0  0  0  0  0
    8.5933   -6.9938    0.0000 C   0  0  0  0  0  0  0  0  0  0  0  0
    8.1083   -6.3263    0.0000 C   0  0  1  0  0  0  0  0  0  0  0  0
    7.3237   -6.5813    0.0000 C   0  0  1  0  0  0  0  0  0  0  0  0
    6.6092   -6.1688    0.0000 C   0  0  0  0  0  0  0  0  0  0  0  0
    5.8948   -6.5813    0.0000 C   0  0  0  0  0  0  0  0  0  0  0  0
    5.8948   -7.4063    0.0000 C   0  0  0  0  0  0  0  0  0  0  0  0
    5.1803   -7.8188    0.0000 C   0  0  1  0  0  0  0  0  0  0  0  0
    8.3633   -8.4458    0.0000 O   0  0  0  0  0  0  0  0  0  0  0  0
    5.1803   -6.1688    0.0000 O   0  0  0  0  0  0  0  0  0  0  0  0
    7.3237   -8.1952    0.0000 C   0  0  0  0  0  0  0  0  0  0  0  0
    7.3237   -5.8264    0.0000 C   0  0  0  0  0  0  0  0  0  0  0  0
    5.1803   -6.9938    0.0000 C   0  0  0  0  0  0  0  0  0  0  0  0
    4.8783   -9.7707    0.0000 C   0  0  0  0  0  0  0  0  0  0  0  0
    4.0533   -9.7707    0.0000 C   0  0  0  0  0  0  0  0  0  0  0  0
    7.3237   -9.0563    0.0000 O   0  0  0  0  0  0  0  0  0  0  0  0
    3.0369   -9.0563    0.0000 O   0  0  0  0  0  0  0  0  0  0  0  0
    5.1803   -9.4688    0.0000 H   0  0  0  0  0  0  0  0  0  0  0  0
    8.9232   -6.1973    0.0000 H   0  0  0  0  0  0  0  0  0  0  0  0
  1  2  1  0  0  0  0
  2  3  1  0  0  0  0
  3  4  1  0  0  0  0
  4  5  1  0  0  0  0
  5  6  2  0  0  0  0
  6  7  1  0  0  0  0
  1  8  1  0  0  0  0
  1  9  2  0  0  0  0
  4 10  2  0  0  0  0
  2 11  1  0  0  0  0
 12 13  1  0  0  0  0
 13 14  1  0  0  0  0
 14 15  1  0  0  0  0
 15 16  1  0  0  0  0
 16 17  1  0  0  0  0
 17 18  1  0  0  0  0
 18 19  1  0  0  0  0
 19 20  1  0  0  0  0
 20 21  1  0  0  0  0
 21 22  1  0  0  0  0
 22 23  1  0  0  0  0
 23 24  1  0  0  0  0
 20 24  1  0  0  0  0
 24 25  1  0  0  0  0
 25 26  1  0  0  0  0
 26 27  1  0  0  0  0
 19 27  2  0  0  0  0
 27 28  1  0  0  0  0
 16 28  1  0  0  0  0
 12 28  1  0  0  0  0
 21 29  2  0  0  0  0
 26 30  2  0  0  0  0
 20 31  1  6  0  0  0
 24 32  1  1  0  0  0
 28 33  1  1  0  0  0
 15 34  1  0  0  0  0
 15 35  1  0  0  0  0
 18 36  1  1  0  0  0
 14 37  1  1  0  0  0
 23  6  1  0  0  0  0
 16 38  1  6  0  0  0
 23 39  1  6  0  0  0
M  END
>  <cdx:fragmentId>
233

$$$$
