458355.cdx
  Mrv1902 05222410182D          

 15 16  0  0  0  0            999 V2000
    7.1392   -5.9802    0.0000 C   0  0  0  0  0  0  0  0  0  0  0  0
    7.1410   -6.8052    0.0000 C   0  0  0  0  0  0  0  0  0  0  0  0
    6.4971   -7.3210    0.0000 C   0  0  2  0  0  0  0  0  0  0  0  0
    5.6924   -7.1392    0.0000 C   0  0  0  0  0  0  0  0  0  0  0  0
    5.3328   -6.3967    0.0000 C   0  0  0  0  0  0  0  0  0  0  0  0
    5.6891   -5.6527    0.0000 C   0  0  0  0  0  0  0  0  0  0  0  0
    6.4930   -5.4673    0.0000 C   0  0  0  0  0  0  0  0  0  0  0  0
    7.8564   -7.2161    0.0000 C   0  0  0  0  0  0  0  0  0  0  0  0
    8.5699   -6.8020    0.0000 C   0  0  0  0  0  0  0  0  0  0  0  0
    8.5681   -5.9770    0.0000 C   0  0  0  0  0  0  0  0  0  0  0  0
    7.8527   -5.5661    0.0000 C   0  0  0  0  0  0  0  0  0  0  0  0
    6.6825   -8.1249    0.0000 C   0  0  0  0  0  0  0  0  0  0  0  0
    6.2481   -4.6795    0.0000 C   0  0  0  0  0  0  0  0  0  0  0  0
    7.0528   -4.8613    0.0000 C   0  0  0  0  0  0  0  0  0  0  0  0
    9.2817   -5.5630    0.0000 C   0  0  0  0  0  0  0  0  0  0  0  0
  1  2  1  0  0  0  0
  2  3  1  0  0  0  0
  3  4  1  0  0  0  0
  4  5  1  0  0  0  0
  5  6  1  0  0  0  0
  6  7  1  0  0  0  0
  1  7  1  0  0  0  0
  8  9  1  0  0  0  0
  9 10  2  0  0  0  0
 10 11  1  0  0  0  0
 11  1  2  0  0  0  0
  8  2  2  0  0  0  0
  3 12  1  1  0  0  0
  7 13  1  0  0  0  0
  7 14  1  0  0  0  0
 10 15  1  0  0  0  0
M  END
>  <cdx:fragmentId>
8993

$$$$
