4585.cdx
  Mrv1902 05222410262D          

 22 22  0  0  0  0            999 V2000
    3.4683   -7.1775    0.0000 C   0  0  0  0  0  0  0  0  0  0  0  0
    3.4683   -8.0025    0.0000 C   0  0  0  0  0  0  0  0  0  0  0  0
    4.1827   -8.4150    0.0000 C   0  0  0  0  0  0  0  0  0  0  0  0
    4.8972   -8.0025    0.0000 C   0  0  0  0  0  0  0  0  0  0  0  0
    4.8972   -7.1775    0.0000 C   0  0  0  0  0  0  0  0  0  0  0  0
    4.1827   -6.7650    0.0000 C   0  0  0  0  0  0  0  0  0  0  0  0
    2.7538   -8.4150    0.0000 O   0  0  0  0  0  0  0  0  0  0  0  0
    5.6397   -6.7444    0.0000 C   0  0  0  0  0  0  0  0  0  0  0  0
    6.3542   -7.1569    0.0000 C   0  0  0  0  0  0  0  0  0  0  0  0
    7.0687   -6.7444    0.0000 C   0  0  0  0  0  0  0  0  0  0  0  0
    7.7831   -7.1569    0.0000 C   0  0  0  0  0  0  0  0  0  0  0  0
    8.4976   -6.7444    0.0000 C   0  0  0  0  0  0  0  0  0  0  0  0
    9.2121   -7.1569    0.0000 C   0  0  0  0  0  0  0  0  0  0  0  0
    9.9265   -6.7444    0.0000 C   0  0  0  0  0  0  0  0  0  0  0  0
    8.4976   -5.9194    0.0000 O   0  0  0  0  0  0  0  0  0  0  0  0
   10.6410   -7.1569    0.0000 C   0  0  0  0  0  0  0  0  0  0  0  0
    2.7538   -6.7650    0.0000 O   0  0  0  0  0  0  0  0  0  0  0  0
    2.0393   -7.1775    0.0000 C   0  0  0  0  0  0  0  0  0  0  0  0
    7.0687   -5.9194    0.0000 O   0  0  0  0  0  0  0  0  0  0  0  0
    6.3542   -5.5069    0.0000 C   0  0  0  0  0  0  0  0  0  0  0  0
    6.3515   -4.6819    0.0000 C   0  0  0  0  0  0  0  0  0  0  0  0
    5.6399   -5.9208    0.0000 O   0  0  0  0  0  0  0  0  0  0  0  0
  1  2  2  0  0  0  0
  2  3  1  0  0  0  0
  3  4  2  0  0  0  0
  4  5  1  0  0  0  0
  5  6  2  0  0  0  0
  6  1  1  0  0  0  0
  2  7  1  0  0  0  0
  8  9  1  0  0  0  0
  9 10  1  0  0  0  0
 10 11  1  0  0  0  0
 11 12  1  0  0  0  0
 12 13  1  0  0  0  0
 13 14  1  0  0  0  0
  8  5  1  0  0  0  0
 10 19  1  0  0  0  0
 12 15  1  0  0  0  0
 14 16  1  0  0  0  0
  1 17  1  0  0  0  0
 17 18  1  0  0  0  0
 19 20  1  0  0  0  0
 20 21  1  0  0  0  0
 20 22  2  0  0  0  0
M  END
>  <cdx:fragmentId>
5

$$$$
