458999.cdx
  Mrv1902 05222410192D          

 36 40  0  0  0  0            999 V2000
    4.6491   -5.5073    0.0000 C   0  0  0  0  0  0  0  0  0  0  0  0
    5.0527   -4.7877    0.0000 C   0  0  0  0  0  0  0  0  0  0  0  0
    5.8776   -4.7775    0.0000 C   0  0  0  0  0  0  0  0  0  0  0  0
    6.2990   -5.4867    0.0000 C   0  0  0  0  0  0  0  0  0  0  0  0
    5.8954   -6.2063    0.0000 C   0  0  0  0  0  0  0  0  0  0  0  0
    5.0705   -6.2166    0.0000 C   0  0  0  0  0  0  0  0  0  0  0  0
    3.8242   -5.5176    0.0000 O   0  0  0  0  0  0  0  0  0  0  0  0
    4.6313   -4.0785    0.0000 O   0  0  0  0  0  0  0  0  0  0  0  0
    7.6005   -4.8030    0.0000 O   0  0  0  0  0  0  0  0  0  0  0  0
    7.1239   -5.4765    0.0000 C   0  0  2  0  0  0  0  0  0  0  0  0
    7.6171   -6.1378    0.0000 C   0  0  1  0  0  0  0  0  0  0  0  0
    8.3985   -5.8731    0.0000 C   0  0  0  0  0  0  0  0  0  0  0  0
    9.1181   -6.2767    0.0000 C   0  0  0  0  0  0  0  0  0  0  0  0
    9.8273   -5.8553    0.0000 C   0  0  0  0  0  0  0  0  0  0  0  0
    9.8171   -5.0304    0.0000 C   0  0  0  0  0  0  0  0  0  0  0  0
    9.0975   -4.6268    0.0000 C   0  0  0  0  0  0  0  0  0  0  0  0
    8.3882   -5.0482    0.0000 C   0  0  0  0  0  0  0  0  0  0  0  0
    9.1283   -7.1016    0.0000 C   0  0  0  0  0  0  0  0  0  0  0  0
    9.8479   -7.5052    0.0000 C   0  0  0  0  0  0  0  0  0  0  0  0
    9.8582   -8.3301    0.0000 C   0  0  0  0  0  0  0  0  0  0  0  0
   10.5777   -8.7337    0.0000 C   0  0  0  0  0  0  0  0  0  0  0  0
   10.5880   -9.5586    0.0000 C   0  0  0  0  0  0  0  0  0  0  0  0
    9.8787   -9.9800    0.0000 C   0  0  0  0  0  0  0  0  0  0  0  0
    9.1592   -9.5764    0.0000 C   0  0  0  0  0  0  0  0  0  0  0  0
    9.1489   -8.7515    0.0000 C   0  0  0  0  0  0  0  0  0  0  0  0
    9.8890  -10.8049    0.0000 O   0  0  0  0  0  0  0  0  0  0  0  0
   10.5263   -4.6090    0.0000 O   0  0  0  0  0  0  0  0  0  0  0  0
    7.3720   -6.9255    0.0000 C   0  0  0  0  0  0  0  0  0  0  0  0
    7.9316   -7.5317    0.0000 C   0  0  0  0  0  0  0  0  0  0  0  0
    7.6865   -8.3194    0.0000 C   0  0  0  0  0  0  0  0  0  0  0  0
    6.8817   -8.5010    0.0000 C   0  0  0  0  0  0  0  0  0  0  0  0
    6.3221   -7.8948    0.0000 C   0  0  0  0  0  0  0  0  0  0  0  0
    6.5672   -7.1071    0.0000 C   0  0  0  0  0  0  0  0  0  0  0  0
    5.5173   -8.0764    0.0000 O   0  0  0  0  0  0  0  0  0  0  0  0
    8.2461   -8.9256    0.0000 O   0  0  0  0  0  0  0  0  0  0  0  0
   11.3076   -9.9622    0.0000 O   0  0  0  0  0  0  0  0  0  0  0  0
  1  2  1  0  0  0  0
  2  3  2  0  0  0  0
  3  4  1  0  0  0  0
  4  5  2  0  0  0  0
  5  6  1  0  0  0  0
  1  6  2  0  0  0  0
  1  7  1  0  0  0  0
  2  8  1  0  0  0  0
  9 10  1  0  0  0  0
 10 11  1  0  0  0  0
 11 12  1  0  0  0  0
 12 13  1  0  0  0  0
 13 14  2  0  0  0  0
 14 15  1  0  0  0  0
 15 16  2  0  0  0  0
 16 17  1  0  0  0  0
 12 17  2  0  0  0  0
  9 17  1  0  0  0  0
 18 19  2  0  0  0  0
 20 21  1  0  0  0  0
 21 22  2  0  0  0  0
 22 23  1  0  0  0  0
 23 24  2  0  0  0  0
 24 25  1  0  0  0  0
 20 25  2  0  0  0  0
 23 26  1  0  0  0  0
 19 20  1  0  0  0  0
 13 18  1  0  0  0  0
 15 27  1  0  0  0  0
 28 29  1  0  0  0  0
 29 30  2  0  0  0  0
 30 31  1  0  0  0  0
 31 32  2  0  0  0  0
 32 33  1  0  0  0  0
 28 33  2  0  0  0  0
 32 34  1  0  0  0  0
 30 35  1  0  0  0  0
 11 28  1  1  0  0  0
 10  4  1  6  0  0  0
 22 36  1  0  0  0  0
M  END
>  <cdx:fragmentId>
21

$$$$
