459215.cdx
  Mrv1902 05222410202D          

 21 22  0  0  0  0            999 V2000
    4.8223   -7.5344    0.0000 C   0  0  0  0  0  0  0  0  0  0  0  0
    5.5368   -7.9469    0.0000 C   0  0  0  0  0  0  0  0  0  0  0  0
    6.2513   -7.5344    0.0000 C   0  0  0  0  0  0  0  0  0  0  0  0
    6.9657   -7.9469    0.0000 C   0  0  0  0  0  0  0  0  0  0  0  0
    6.9657   -8.7719    0.0000 C   0  0  0  0  0  0  0  0  0  0  0  0
    6.2513   -9.1844    0.0000 C   0  0  0  0  0  0  0  0  0  0  0  0
    5.5368   -8.7719    0.0000 C   0  0  0  0  0  0  0  0  0  0  0  0
    4.8223   -6.7094    0.0000 O   0  0  0  0  0  0  0  0  0  0  0  0
    4.1079   -7.9469    0.0000 O   0  0  0  0  0  0  0  0  0  0  0  0
    7.6802   -9.1844    0.0000 O   0  0  0  0  0  0  0  0  0  0  0  0
    7.6802   -7.5344    0.0000 N   0  0  0  0  0  0  0  0  0  0  0  0
    8.3947   -7.9469    0.0000 C   0  0  0  0  0  0  0  0  0  0  0  0
    9.1092   -7.5344    0.0000 C   0  0  0  0  0  0  0  0  0  0  0  0
    9.8236   -7.9469    0.0000 C   0  0  0  0  0  0  0  0  0  0  0  0
    9.8236   -8.7719    0.0000 C   0  0  0  0  0  0  0  0  0  0  0  0
    9.1092   -9.1844    0.0000 C   0  0  0  0  0  0  0  0  0  0  0  0
    8.3947   -8.7719    0.0000 C   0  0  0  0  0  0  0  0  0  0  0  0
    9.1092   -6.7094    0.0000 O   0  0  0  0  0  0  0  0  0  0  0  0
    9.1092  -10.0094    0.0000 C   0  0  0  0  0  0  0  0  0  0  0  0
    8.3947  -10.4219    0.0000 O   0  0  0  0  0  0  0  0  0  0  0  0
    9.8236  -10.4219    0.0000 O   0  0  0  0  0  0  0  0  0  0  0  0
  1  2  1  0  0  0  0
  2  3  1  0  0  0  0
  3  4  2  0  0  0  0
  4  5  1  0  0  0  0
  5  6  2  0  0  0  0
  6  7  1  0  0  0  0
  2  7  2  0  0  0  0
  1  8  2  0  0  0  0
  1  9  1  0  0  0  0
  5 10  1  0  0  0  0
 11 12  1  0  0  0  0
 12 13  1  0  0  0  0
 13 14  2  0  0  0  0
 14 15  1  0  0  0  0
 15 16  2  0  0  0  0
 16 17  1  0  0  0  0
 12 17  2  0  0  0  0
 13 18  1  0  0  0  0
 19 20  2  0  0  0  0
 19 21  1  0  0  0  0
 16 19  1  0  0  0  0
  4 11  1  0  0  0  0
M  END
>  <cdx:groupId>
213431

>  <cdx:fragmentId>
213390

$$$$
