4596.cdx
  Mrv1902 05222410242D          

 29 30  0  0  0  0            999 V2000
   11.2788   -8.2175    0.0000 C   0  0  0  0  0  0  0  0  0  0  0  0
   11.2788   -7.3925    0.0000 C   0  0  0  0  0  0  0  0  0  0  0  0
   10.5643   -6.9800    0.0000 C   0  0  0  0  0  0  0  0  0  0  0  0
    9.8499   -7.3925    0.0000 C   0  0  0  0  0  0  0  0  0  0  0  0
    9.8499   -8.2175    0.0000 C   0  0  0  0  0  0  0  0  0  0  0  0
   10.5643   -8.6300    0.0000 C   0  0  0  0  0  0  0  0  0  0  0  0
    9.1354   -6.9800    0.0000 C   0  0  0  0  0  0  0  0  0  0  0  0
    8.4209   -7.3925    0.0000 C   0  0  0  0  0  0  0  0  0  0  0  0
    7.7065   -6.9800    0.0000 C   0  0  0  0  0  0  0  0  0  0  0  0
    6.9920   -7.3925    0.0000 C   0  0  0  0  0  0  0  0  0  0  0  0
    6.2775   -6.9800    0.0000 C   0  0  0  0  0  0  0  0  0  0  0  0
    5.5630   -7.3925    0.0000 C   0  0  0  0  0  0  0  0  0  0  0  0
    4.8486   -6.9800    0.0000 C   0  0  0  0  0  0  0  0  0  0  0  0
    1.2762   -7.3925    0.0000 C   0  0  0  0  0  0  0  0  0  0  0  0
    1.9907   -6.9800    0.0000 O   0  0  0  0  0  0  0  0  0  0  0  0
    1.9907   -8.6300    0.0000 O   0  0  0  0  0  0  0  0  0  0  0  0
    2.7052   -7.3925    0.0000 C   0  0  0  0  0  0  0  0  0  0  0  0
   11.9933   -8.6300    0.0000 O   0  0  0  0  0  0  0  0  0  0  0  0
   11.9933   -6.9800    0.0000 O   0  0  0  0  0  0  0  0  0  0  0  0
    2.7052   -8.2175    0.0000 C   0  0  0  0  0  0  0  0  0  0  0  0
    3.4196   -8.6300    0.0000 C   0  0  0  0  0  0  0  0  0  0  0  0
    4.1341   -8.2175    0.0000 C   0  0  0  0  0  0  0  0  0  0  0  0
    3.4196   -6.9800    0.0000 C   0  0  0  0  0  0  0  0  0  0  0  0
    4.1341   -7.3925    0.0000 C   0  0  0  0  0  0  0  0  0  0  0  0
    7.7065   -6.1550    0.0000 O   0  0  0  0  0  0  0  0  0  0  0  0
    6.2775   -6.1550    0.0000 O   0  0  0  0  0  0  0  0  0  0  0  0
    5.5630   -5.7425    0.0000 C   0  0  0  0  0  0  0  0  0  0  0  0
    5.5604   -4.9175    0.0000 C   0  0  0  0  0  0  0  0  0  0  0  0
    4.8487   -6.1565    0.0000 O   0  0  0  0  0  0  0  0  0  0  0  0
  1  2  2  0  0  0  0
  2  3  1  0  0  0  0
  3  4  2  0  0  0  0
  4  5  1  0  0  0  0
  5  6  2  0  0  0  0
  6  1  1  0  0  0  0
  4  7  1  0  0  0  0
  7  8  1  0  0  0  0
  8  9  1  0  0  0  0
  9 10  1  0  0  0  0
 10 11  1  0  0  0  0
 11 12  1  0  0  0  0
 15 14  1  0  0  0  0
 12 13  1  0  0  0  0
 13 24  1  0  0  0  0
 17 15  1  0  0  0  0
 20 16  1  0  0  0  0
 17 23  1  0  0  0  0
 20 17  2  0  0  0  0
 21 20  1  0  0  0  0
 22 21  2  0  0  0  0
 24 22  1  0  0  0  0
  9 25  1  0  0  0  0
 11 26  1  0  0  0  0
  1 18  1  0  0  0  0
  2 19  1  0  0  0  0
 24 23  2  0  0  0  0
 26 27  1  0  0  0  0
 27 28  1  0  0  0  0
 27 29  2  0  0  0  0
M  END
>  <cdx:fragmentId>
5

$$$$
