459879.cdx
  Mrv1902 05222410202D          

 42 47  0  0  0  0            999 V2000
    8.9474   -9.4649    0.0000 C   0  0  0  0  0  0  0  0  0  0  0  0
    9.6619   -9.8774    0.0000 C   0  0  0  0  0  0  0  0  0  0  0  0
    9.6619  -10.7024    0.0000 C   0  0  0  0  0  0  0  0  0  0  0  0
    8.9474  -11.1149    0.0000 C   0  0  0  0  0  0  0  0  0  0  0  0
    8.2330  -10.7024    0.0000 C   0  0  0  0  0  0  0  0  0  0  0  0
    7.5185  -11.1149    0.0000 C   0  0  0  0  0  0  0  0  0  0  0  0
    6.8040  -10.7024    0.0000 C   0  0  0  0  0  0  0  0  0  0  0  0
    6.0896  -11.1149    0.0000 C   0  0  0  0  0  0  0  0  0  0  0  0
    5.3751  -10.7024    0.0000 C   0  0  0  0  0  0  0  0  0  0  0  0
    5.3751   -9.8774    0.0000 C   0  0  0  0  0  0  0  0  0  0  0  0
    6.0896   -9.4649    0.0000 C   0  0  0  0  0  0  0  0  0  0  0  0
    6.8040   -9.8774    0.0000 C   0  0  0  0  0  0  0  0  0  0  0  0
    7.5185   -9.4649    0.0000 C   0  0  2  0  0  0  0  0  0  0  0  0
    8.2330   -9.8774    0.0000 C   0  0  0  0  0  0  0  0  0  0  0  0
   10.3764   -9.4649    0.0000 C   0  0  0  0  0  0  0  0  0  0  0  0
   10.3764   -8.6399    0.0000 O   0  0  0  0  0  0  0  0  0  0  0  0
   11.0909   -9.8774    0.0000 O   0  0  0  0  0  0  0  0  0  0  0  0
    7.5185  -11.9399    0.0000 O   0  0  0  0  0  0  0  0  0  0  0  0
    6.0896  -11.9399    0.0000 O   0  0  0  0  0  0  0  0  0  0  0  0
    8.9474  -11.9399    0.0000 O   0  0  0  0  0  0  0  0  0  0  0  0
    6.0896   -8.6399    0.0000 C   0  0  0  0  0  0  0  0  0  0  0  0
    5.3751   -8.2274    0.0000 C   0  0  0  0  0  0  0  0  0  0  0  0
    5.3751   -7.4024    0.0000 C   0  0  0  0  0  0  0  0  0  0  0  0
    6.0896   -6.9899    0.0000 C   0  0  0  0  0  0  0  0  0  0  0  0
    6.8040   -7.4024    0.0000 C   0  0  0  0  0  0  0  0  0  0  0  0
    7.5185   -6.9899    0.0000 C   0  0  0  0  0  0  0  0  0  0  0  0
    8.2330   -7.4024    0.0000 C   0  0  0  0  0  0  0  0  0  0  0  0
    8.9474   -6.9899    0.0000 C   0  0  0  0  0  0  0  0  0  0  0  0
    9.6619   -7.4024    0.0000 C   0  0  0  0  0  0  0  0  0  0  0  0
    9.6619   -8.2274    0.0000 C   0  0  0  0  0  0  0  0  0  0  0  0
    8.9474   -8.6399    0.0000 C   0  0  0  0  0  0  0  0  0  0  0  0
    8.2330   -8.2274    0.0000 C   0  0  0  0  0  0  0  0  0  0  0  0
    7.5185   -8.6399    0.0000 C   0  0  1  0  0  0  0  0  0  0  0  0
    6.8040   -8.2274    0.0000 C   0  0  0  0  0  0  0  0  0  0  0  0
    7.5185   -6.1649    0.0000 O   0  0  0  0  0  0  0  0  0  0  0  0
    8.9474   -6.1649    0.0000 O   0  0  0  0  0  0  0  0  0  0  0  0
    6.0896   -6.1649    0.0000 O   0  0  0  0  0  0  0  0  0  0  0  0
    4.6606   -8.6399    0.0000 C   0  0  0  0  0  0  0  0  0  0  0  0
    4.6606   -9.4649    0.0000 O   0  0  0  0  0  0  0  0  0  0  0  0
    3.9461   -8.2274    0.0000 O   0  0  0  0  0  0  0  0  0  0  0  0
    6.8040   -9.0524    0.0000 H   0  0  0  0  0  0  0  0  0  0  0  0
    8.2330   -9.0524    0.0000 H   0  0  0  0  0  0  0  0  0  0  0  0
  1  2  1  0  0  0  0
  2  3  2  0  0  0  0
  3  4  1  0  0  0  0
  4  5  2  0  0  0  0
  5  6  1  0  0  0  0
  6  7  1  0  0  0  0
  7  8  1  0  0  0  0
  8  9  2  0  0  0  0
  9 10  1  0  0  0  0
 10 11  2  0  0  0  0
 11 12  1  0  0  0  0
  7 12  2  0  0  0  0
 13 12  1  0  0  0  0
 13 14  1  0  0  0  0
  5 14  1  0  0  0  0
  1 14  2  0  0  0  0
 15 16  2  0  0  0  0
 15 17  1  0  0  0  0
  2 15  1  0  0  0  0
  6 18  2  0  0  0  0
  8 19  1  0  0  0  0
  4 20  1  0  0  0  0
 21 22  1  0  0  0  0
 22 23  2  0  0  0  0
 23 24  1  0  0  0  0
 24 25  2  0  0  0  0
 25 26  1  0  0  0  0
 26 27  1  0  0  0  0
 27 28  1  0  0  0  0
 28 29  2  0  0  0  0
 29 30  1  0  0  0  0
 30 31  2  0  0  0  0
 31 32  1  0  0  0  0
 27 32  2  0  0  0  0
 33 32  1  0  0  0  0
 33 34  1  0  0  0  0
 25 34  1  0  0  0  0
 21 34  2  0  0  0  0
 26 35  2  0  0  0  0
 28 36  1  0  0  0  0
 24 37  1  0  0  0  0
 38 39  2  0  0  0  0
 38 40  1  0  0  0  0
 22 38  1  0  0  0  0
 13 33  1  0  0  0  0
 33 41  1  1  0  0  0
 13 42  1  6  0  0  0
M  END
>  <cdx:fragmentId>
50801

$$$$
