4598.cdx
  Mrv1902 05222410232D          

 42 45  0  0  0  0            999 V2000
    9.4128   -6.8854    0.0000 H   0  0  0  0  0  0  0  0  0  0  0  0
   11.1634   -8.3899    0.0000 H   0  0  0  0  0  0  0  0  0  0  0  0
   11.0876   -9.0548    0.0000 H   0  0  0  0  0  0  0  0  0  0  0  0
    8.6805  -11.1762    0.0000 O   0  0  0  0  0  0  0  0  0  0  0  0
    9.2892  -11.6831    0.0000 O   0  0  0  0  0  0  0  0  0  0  0  0
   11.6073  -11.2173    0.0000 O   0  0  0  0  0  0  0  0  0  0  0  0
   10.7915  -11.3403    0.0000 C   0  0  0  0  0  0  0  0  0  0  0  0
    6.7332   -9.9519    0.0000 C   0  0  0  0  0  0  0  0  0  0  0  0
   10.6701   -6.5602    0.0000 C   0  0  0  0  0  0  0  0  0  0  0  0
   11.2958   -7.0979    0.0000 C   0  0  0  0  0  0  0  0  0  0  0  0
    7.5398   -8.7350    0.0000 C   0  0  0  0  0  0  0  0  0  0  0  0
    9.2892   -8.2208    0.0000 O   0  0  0  0  0  0  0  0  0  0  0  0
    9.4728   -9.0251    0.0000 C   0  0  0  0  0  0  0  0  0  0  0  0
    8.3648   -8.7350    0.0000 C   0  0  2  0  0  0  0  0  0  0  0  0
    8.7366   -7.8846    0.0000 C   0  0  0  0  0  0  0  0  0  0  0  0
    9.6414   -7.6781    0.0000 C   0  0  1  0  0  0  0  0  0  0  0  0
   10.5173   -7.3709    0.0000 C   0  0  0  0  0  0  0  0  0  0  0  0
   10.3454   -8.2830    0.0000 C   0  0  1  0  0  0  0  0  0  0  0  0
   10.2771   -9.2086    0.0000 C   0  0  2  0  0  0  0  0  0  0  0  0
   10.6350   -9.9519    0.0000 C   0  0  0  0  0  0  0  0  0  0  0  0
   10.2771  -10.6952    0.0000 C   0  0  0  0  0  0  0  0  0  0  0  0
    9.4728  -10.8788    0.0000 C   0  0  2  0  0  0  0  0  0  0  0  0
    8.8278  -10.3644    0.0000 C   0  0  1  0  0  0  0  0  0  0  0  0
    8.0431  -10.6194    0.0000 C   0  0  2  0  0  0  0  0  0  0  0  0
    7.5582   -9.9519    0.0000 C   0  0  0  0  0  0  0  0  0  0  0  0
    8.0431   -9.2845    0.0000 C   0  0  0  0  0  0  0  0  0  0  0  0
    8.8278   -9.5394    0.0000 C   0  0  0  0  0  0  0  0  0  0  0  0
    7.7882  -11.4040    0.0000 O   0  0  0  0  0  0  0  0  0  0  0  0
    6.7263  -12.3602    0.0000 O   0  0  0  0  0  0  0  0  0  0  0  0
    0.9932   -9.1962    0.0000 C   0  0  0  0  0  0  0  0  0  0  0  0
    1.5452   -9.8093    0.0000 C   0  0  0  0  0  0  0  0  0  0  0  0
    2.3522   -9.6377    0.0000 C   0  0  0  0  0  0  0  0  0  0  0  0
    2.9042  -10.2508    0.0000 C   0  0  0  0  0  0  0  0  0  0  0  0
    3.7112  -10.0793    0.0000 C   0  0  0  0  0  0  0  0  0  0  0  0
    4.2632  -10.6924    0.0000 C   0  0  0  0  0  0  0  0  0  0  0  0
    5.0702  -10.5209    0.0000 C   0  0  0  0  0  0  0  0  0  0  0  0
    5.6222  -11.1340    0.0000 C   0  0  0  0  0  0  0  0  0  0  0  0
    6.4292  -10.9624    0.0000 C   0  0  0  0  0  0  0  0  0  0  0  0
    6.9812  -11.5755    0.0000 C   0  0  0  0  0  0  0  0  0  0  0  0
   12.1216  -11.8623    0.0000 C   0  0  0  0  0  0  0  0  0  0  0  0
   12.9374  -11.7393    0.0000 C   0  0  0  0  0  0  0  0  0  0  0  0
   11.8202  -12.6303    0.0000 O   0  0  0  0  0  0  0  0  0  0  0  0
 16  1  1  6  0  0  0
 18  2  1  6  0  0  0
 19  3  1  1  0  0  0
 24 28  1  1  0  0  0
 23  4  1  1  0  0  0
 22  5  1  1  0  0  0
 21  7  1  0  0  0  0
  7  6  1  0  0  0  0
 25  8  1  0  0  0  0
 17  9  1  0  0  0  0
 17 10  1  0  0  0  0
 14 11  1  6  0  0  0
 13 12  2  0  0  0  0
 27 23  1  0  0  0  0
 18 16  1  0  0  0  0
 19 13  1  0  0  0  0
 27 13  1  0  0  0  0
 27 14  1  0  0  0  0
 15 14  1  0  0  0  0
 16 15  1  0  0  0  0
 17 16  1  0  0  0  0
 18 17  1  0  0  0  0
 19 18  1  0  0  0  0
 20 19  1  0  0  0  0
 21 20  2  0  0  0  0
 22 21  1  0  0  0  0
 23 22  1  0  0  0  0
 24 23  1  0  0  0  0
 25 24  1  0  0  0  0
 26 25  2  0  0  0  0
 27 26  1  0  0  0  0
 39 28  1  0  0  0  0
 39 29  2  0  0  0  0
 31 30  1  0  0  0  0
 32 31  1  0  0  0  0
 33 32  1  0  0  0  0
 34 33  1  0  0  0  0
 35 34  1  0  0  0  0
 36 35  2  0  0  0  0
 37 36  1  0  0  0  0
 38 37  2  0  0  0  0
 39 38  1  0  0  0  0
  6 40  1  0  0  0  0
 40 41  1  0  0  0  0
 40 42  2  0  0  0  0
M  END
>  <cdx:groupId>
947

>  <cdx:fragmentId>
854

$$$$
