459877.cdx
  Mrv1902 05222410272D          

 40 42  0  0  0  0            999 V2000
   11.5530   -8.7407    0.0000 C   0  0  0  0  0  0  0  0  0  0  0  0
   12.2719   -9.1456    0.0000 C   0  0  0  0  0  0  0  0  0  0  0  0
   12.9819   -8.7254    0.0000 C   0  0  0  0  0  0  0  0  0  0  0  0
   12.9730   -7.9005    0.0000 C   0  0  0  0  0  0  0  0  0  0  0  0
   12.2542   -7.4957    0.0000 C   0  0  0  0  0  0  0  0  0  0  0  0
   11.5442   -7.9158    0.0000 C   0  0  0  0  0  0  0  0  0  0  0  0
   13.6830   -7.4803    0.0000 O   0  0  0  0  0  0  0  0  0  0  0  0
   13.7007   -9.1302    0.0000 O   0  0  0  0  0  0  0  0  0  0  0  0
    8.6997   -8.7637    0.0000 C   0  0  0  0  0  0  0  0  0  0  0  0
    7.9852   -9.1762    0.0000 C   0  0  0  0  0  0  0  0  0  0  0  0
    7.2707   -8.7637    0.0000 C   0  0  0  0  0  0  0  0  0  0  0  0
    8.6997   -7.9387    0.0000 O   0  0  0  0  0  0  0  0  0  0  0  0
    6.5563   -9.1762    0.0000 C   0  0  0  0  0  0  0  0  0  0  0  0
    5.8418   -8.7637    0.0000 C   0  0  0  0  0  0  0  0  0  0  0  0
    5.1273   -9.1762    0.0000 C   0  0  0  0  0  0  0  0  0  0  0  0
    5.1273  -10.0012    0.0000 C   0  0  0  0  0  0  0  0  0  0  0  0
    5.8418  -10.4137    0.0000 C   0  0  0  0  0  0  0  0  0  0  0  0
    6.5563  -10.0012    0.0000 C   0  0  0  0  0  0  0  0  0  0  0  0
    4.4129   -8.7637    0.0000 O   0  0  0  0  0  0  0  0  0  0  0  0
    4.4129  -10.4137    0.0000 O   0  0  0  0  0  0  0  0  0  0  0  0
    4.4129  -11.2387    0.0000 C   0  0  0  0  0  0  0  0  0  0  0  0
    3.6984  -11.6512    0.0000 C   0  0  0  0  0  0  0  0  0  0  0  0
    2.9839  -11.2387    0.0000 C   0  0  0  0  0  0  0  0  0  0  0  0
    2.2694  -11.6512    0.0000 C   0  0  0  0  0  0  0  0  0  0  0  0
    1.5550  -11.2387    0.0000 C   0  0  0  0  0  0  0  0  0  0  0  0
    1.5550  -10.4137    0.0000 C   0  0  0  0  0  0  0  0  0  0  0  0
    2.2694  -10.0012    0.0000 C   0  0  0  0  0  0  0  0  0  0  0  0
    2.9839  -10.4137    0.0000 C   0  0  0  0  0  0  0  0  0  0  0  0
    0.8405  -10.0012    0.0000 O   0  0  0  0  0  0  0  0  0  0  0  0
    0.8405  -11.6512    0.0000 O   0  0  0  0  0  0  0  0  0  0  0  0
    5.1273  -11.6512    0.0000 C   0  0  0  0  0  0  0  0  0  0  0  0
    5.8418  -11.2387    0.0000 O   0  0  0  0  0  0  0  0  0  0  0  0
    5.1273  -12.4762    0.0000 O   0  0  0  0  0  0  0  0  0  0  0  0
    9.4141   -9.1762    0.0000 O   0  0  0  0  0  0  0  0  0  0  0  0
   10.8253   -7.5110    0.0000 O   0  0  0  0  0  0  0  0  0  0  0  0
    9.3965   -7.5263    0.0000 O   0  0  0  0  0  0  0  0  0  0  0  0
   10.8430   -9.1609    0.0000 C   0  0  0  0  0  0  0  0  0  0  0  0
   10.1242   -8.7560    0.0000 C   0  0  0  0  0  0  0  0  0  0  0  0
   10.1153   -7.9311    0.0000 C   0  0  0  0  0  0  0  0  0  0  0  0
   10.8253   -6.6860    0.0000 C   0  0  0  0  0  0  0  0  0  0  0  0
 38 34  1  0  0  0  0
 37  1  1  0  0  0  0
 39 35  1  0  0  0  0
 39 36  2  0  0  0  0
 38 37  1  0  0  0  0
 39 38  1  0  0  0  0
  1  2  1  0  0  0  0
  2  3  2  0  0  0  0
  3  4  1  0  0  0  0
  4  5  2  0  0  0  0
  5  6  1  0  0  0  0
  1  6  2  0  0  0  0
  4  7  1  0  0  0  0
  3  8  1  0  0  0  0
  9 10  1  0  0  0  0
 10 11  2  0  0  0  0
  9 12  2  0  0  0  0
 13 14  1  0  0  0  0
 14 15  2  0  0  0  0
 15 16  1  0  0  0  0
 16 17  2  0  0  0  0
 17 18  1  0  0  0  0
 13 18  2  0  0  0  0
 15 19  1  0  0  0  0
 21 22  2  0  0  0  0
 20 21  1  0  0  0  0
 23 24  1  0  0  0  0
 24 25  2  0  0  0  0
 25 26  1  0  0  0  0
 26 27  2  0  0  0  0
 27 28  1  0  0  0  0
 23 28  2  0  0  0  0
 26 29  1  0  0  0  0
 25 30  1  0  0  0  0
 22 23  1  0  0  0  0
 31 32  2  0  0  0  0
 31 33  1  0  0  0  0
 21 31  1  0  0  0  0
 16 20  1  0  0  0  0
 11 13  1  0  0  0  0
 34  9  1  0  0  0  0
 35 40  1  0  0  0  0
M  END
>  <cdx:fragmentId>
50689

$$$$
