4599.cdx
  Mrv1902 05222410222D          

 42 45  0  0  0  0            999 V2000
    3.9882  -11.1874    0.0000 C   0  0  0  0  0  0  0  0  0  0  0  0
    3.7333  -11.9720    0.0000 C   0  0  0  0  0  0  0  0  0  0  0  0
    2.9263  -12.1435    0.0000 C   0  0  0  0  0  0  0  0  0  0  0  0
    2.6714  -12.9282    0.0000 C   0  0  0  0  0  0  0  0  0  0  0  0
    1.8644  -13.0997    0.0000 C   0  0  0  0  0  0  0  0  0  0  0  0
    9.1378   -7.3804    0.0000 H   0  0  0  0  0  0  0  0  0  0  0  0
   10.8884   -8.8849    0.0000 H   0  0  0  0  0  0  0  0  0  0  0  0
   10.8126   -9.5498    0.0000 H   0  0  0  0  0  0  0  0  0  0  0  0
    8.4055  -11.6712    0.0000 O   0  0  0  0  0  0  0  0  0  0  0  0
    9.0142  -12.1781    0.0000 O   0  0  0  0  0  0  0  0  0  0  0  0
   11.3323  -11.7123    0.0000 O   0  0  0  0  0  0  0  0  0  0  0  0
   10.5165  -11.8353    0.0000 C   0  0  0  0  0  0  0  0  0  0  0  0
    6.4582  -10.4469    0.0000 C   0  0  0  0  0  0  0  0  0  0  0  0
   10.3951   -7.0552    0.0000 C   0  0  0  0  0  0  0  0  0  0  0  0
   11.0208   -7.5929    0.0000 C   0  0  0  0  0  0  0  0  0  0  0  0
    7.2648   -9.2300    0.0000 C   0  0  0  0  0  0  0  0  0  0  0  0
    9.0142   -8.7158    0.0000 O   0  0  0  0  0  0  0  0  0  0  0  0
    9.1978   -9.5201    0.0000 C   0  0  0  0  0  0  0  0  0  0  0  0
    8.0898   -9.2300    0.0000 C   0  0  2  0  0  0  0  0  0  0  0  0
    8.4616   -8.3796    0.0000 C   0  0  0  0  0  0  0  0  0  0  0  0
    9.3664   -8.1731    0.0000 C   0  0  1  0  0  0  0  0  0  0  0  0
   10.2423   -7.8659    0.0000 C   0  0  0  0  0  0  0  0  0  0  0  0
   10.0704   -8.7780    0.0000 C   0  0  1  0  0  0  0  0  0  0  0  0
   10.0021   -9.7036    0.0000 C   0  0  2  0  0  0  0  0  0  0  0  0
   10.3600  -10.4469    0.0000 C   0  0  0  0  0  0  0  0  0  0  0  0
   10.0021  -11.1902    0.0000 C   0  0  0  0  0  0  0  0  0  0  0  0
    9.1978  -11.3738    0.0000 C   0  0  2  0  0  0  0  0  0  0  0  0
    8.5528  -10.8594    0.0000 C   0  0  1  0  0  0  0  0  0  0  0  0
    7.7681  -11.1144    0.0000 C   0  0  2  0  0  0  0  0  0  0  0  0
    7.2832  -10.4469    0.0000 C   0  0  0  0  0  0  0  0  0  0  0  0
    7.7681   -9.7795    0.0000 C   0  0  0  0  0  0  0  0  0  0  0  0
    8.5528  -10.0344    0.0000 C   0  0  0  0  0  0  0  0  0  0  0  0
    7.5132  -11.8990    0.0000 O   0  0  0  0  0  0  0  0  0  0  0  0
    6.4513  -12.8552    0.0000 O   0  0  0  0  0  0  0  0  0  0  0  0
    1.6095  -13.8843    0.0000 C   0  0  0  0  0  0  0  0  0  0  0  0
    4.7952  -11.0159    0.0000 C   0  0  0  0  0  0  0  0  0  0  0  0
    5.3472  -11.6290    0.0000 C   0  0  0  0  0  0  0  0  0  0  0  0
    6.1542  -11.4574    0.0000 C   0  0  0  0  0  0  0  0  0  0  0  0
    6.7062  -12.0705    0.0000 C   0  0  0  0  0  0  0  0  0  0  0  0
   11.8466  -12.3573    0.0000 C   0  0  0  0  0  0  0  0  0  0  0  0
   12.6624  -12.2343    0.0000 C   0  0  0  0  0  0  0  0  0  0  0  0
   11.5452  -13.1253    0.0000 O   0  0  0  0  0  0  0  0  0  0  0  0
 21  6  1  6  0  0  0
 23  7  1  6  0  0  0
 24  8  1  1  0  0  0
 29 33  1  1  0  0  0
 28  9  1  1  0  0  0
 27 10  1  1  0  0  0
 26 12  1  0  0  0  0
 12 11  1  0  0  0  0
 30 13  1  0  0  0  0
 22 14  1  0  0  0  0
 22 15  1  0  0  0  0
 19 16  1  6  0  0  0
 18 17  2  0  0  0  0
 32 28  1  0  0  0  0
 23 21  1  0  0  0  0
 24 18  1  0  0  0  0
 32 18  1  0  0  0  0
 32 19  1  0  0  0  0
 20 19  1  0  0  0  0
 21 20  1  0  0  0  0
 22 21  1  0  0  0  0
 23 22  1  0  0  0  0
 24 23  1  0  0  0  0
 25 24  1  0  0  0  0
 26 25  2  0  0  0  0
 27 26  1  0  0  0  0
 28 27  1  0  0  0  0
 29 28  1  0  0  0  0
 30 29  1  0  0  0  0
 31 30  2  0  0  0  0
 32 31  1  0  0  0  0
 39 33  1  0  0  0  0
 39 34  2  0  0  0  0
 36  1  2  0  0  0  0
 37 36  1  0  0  0  0
 38 37  2  0  0  0  0
 39 38  1  0  0  0  0
  1  2  1  0  0  0  0
  2  3  1  0  0  0  0
  3  4  1  0  0  0  0
  4  5  1  0  0  0  0
  5 35  1  0  0  0  0
 11 40  1  0  0  0  0
 40 41  1  0  0  0  0
 40 42  2  0  0  0  0
M  END
>  <cdx:groupId>
947

>  <cdx:fragmentId>
854

$$$$
