460277.cdx
  Mrv1902 05222410252D          

 40 42  0  0  0  0            999 V2000
    7.5594   -6.6089    0.0000 C   0  0  0  0  0  0  0  0  0  0  0  0
    8.2738   -6.1963    0.0000 C   0  0  2  0  0  0  0  0  0  0  0  0
    8.9883   -6.6086    0.0000 C   0  0  0  0  0  0  0  0  0  0  0  0
    7.5595   -7.4339    0.0000 O   0  0  0  0  0  0  0  0  0  0  0  0
    6.8448   -6.1966    0.0000 N   0  0  0  0  0  0  0  0  0  0  0  0
    9.7027   -6.1960    0.0000 C   0  0  0  0  0  0  0  0  0  0  0  0
    9.7025   -5.3710    0.0000 C   0  0  0  0  0  0  0  0  0  0  0  0
   10.4169   -4.9584    0.0000 C   0  0  0  0  0  0  0  0  0  0  0  0
   11.1315   -5.3707    0.0000 C   0  0  0  0  0  0  0  0  0  0  0  0
   11.1317   -6.1957    0.0000 C   0  0  0  0  0  0  0  0  0  0  0  0
   10.4173   -6.6084    0.0000 C   0  0  0  0  0  0  0  0  0  0  0  0
    4.7017   -7.4345    0.0000 C   0  0  0  0  0  0  0  0  0  0  0  0
    4.7015   -6.6095    0.0000 O   0  0  0  0  0  0  0  0  0  0  0  0
    5.4159   -6.1968    0.0000 C   0  0  2  0  0  0  0  0  0  0  0  0
    6.1304   -6.6092    0.0000 C   0  0  1  0  0  0  0  0  0  0  0  0
    6.1306   -7.4342    0.0000 C   0  0  0  0  0  0  0  0  0  0  0  0
    6.8452   -7.8466    0.0000 N   0  0  0  0  0  0  0  0  0  0  0  0
    6.8453   -8.6716    0.0000 C   0  0  2  0  0  0  0  0  0  0  0  0
    6.1309   -9.0842    0.0000 C   0  0  0  0  0  0  0  0  0  0  0  0
    6.1311   -9.9092    0.0000 N   0  0  0  0  0  0  0  0  0  0  0  0
    5.4167  -10.3218    0.0000 C   0  0  0  0  0  0  0  0  0  0  0  0
    4.7022   -9.9095    0.0000 C   0  0  1  0  0  0  0  0  0  0  0  0
    4.7020   -9.0845    0.0000 C   0  0  0  0  0  0  0  0  0  0  0  0
    5.4164   -8.6718    0.0000 C   0  0  0  0  0  0  0  0  0  0  0  0
    5.4162   -7.8468    0.0000 C   0  0  0  0  0  0  0  0  0  0  0  0
    3.9879   -7.8483    0.0000 C   0  0  0  0  0  0  0  0  0  0  0  0
    3.9881   -8.6733    0.0000 C   0  0  0  0  0  0  0  0  0  0  0  0
    6.1301   -4.9592    0.0000 C   0  0  0  0  0  0  0  0  0  0  0  0
    5.4157   -5.3718    0.0000 C   0  0  0  0  0  0  0  0  0  0  0  0
    4.7012   -4.9595    0.0000 C   0  0  0  0  0  0  0  0  0  0  0  0
    5.4165   -9.4967    0.0000 O   0  0  0  0  0  0  0  0  0  0  0  0
    5.4161   -7.0217    0.0000 O   0  0  0  0  0  0  0  0  0  0  0  0
    7.5599   -9.0839    0.0000 C   0  0  0  0  0  0  0  0  0  0  0  0
    8.2743   -8.6713    0.0000 C   0  0  0  0  0  0  0  0  0  0  0  0
    8.2741   -7.8463    0.0000 C   0  0  0  0  0  0  0  0  0  0  0  0
    8.9888   -9.0836    0.0000 C   0  0  0  0  0  0  0  0  0  0  0  0
    3.9878  -10.3221    0.0000 O   0  0  0  0  0  0  0  0  0  0  0  0
    8.2736   -5.3713    0.0000 N   0  0  0  0  0  0  0  0  0  0  0  0
    8.9880   -4.9586    0.0000 C   0  0  0  0  0  0  0  0  0  0  0  0
    7.5591   -4.9589    0.0000 C   0  0  0  0  0  0  0  0  0  0  0  0
  1  2  1  0  0  0  0
  2  3  1  0  0  0  0
  1  4  2  0  0  0  0
  1  5  1  0  0  0  0
  6  7  1  0  0  0  0
  7  8  2  0  0  0  0
  8  9  1  0  0  0  0
  9 10  2  0  0  0  0
 10 11  1  0  0  0  0
  6 11  2  0  0  0  0
  3  6  1  0  0  0  0
 12 13  1  0  0  0  0
 13 14  1  0  0  0  0
 14 15  1  0  0  0  0
 15 16  1  0  0  0  0
 16 17  1  0  0  0  0
 17 18  1  0  0  0  0
 18 19  1  0  0  0  0
 19 20  1  0  0  0  0
 20 21  1  0  0  0  0
 21 22  1  0  0  0  0
 22 23  1  0  0  0  0
 23 24  2  0  0  0  0
 24 25  1  0  0  0  0
 26 27  2  0  0  0  0
 12 25  2  0  0  0  0
 12 26  1  0  0  0  0
 27 23  1  0  0  0  0
 28 29  1  0  0  0  0
 29 30  1  0  0  0  0
 14 29  1  1  0  0  0
 19 31  2  0  0  0  0
 16 32  2  0  0  0  0
 33 34  1  0  0  0  0
 34 35  1  0  0  0  0
 34 36  1  0  0  0  0
 18 33  1  1  0  0  0
 22 37  1  6  0  0  0
 15  5  1  6  0  0  0
 38 39  1  0  0  0  0
 38 40  1  0  0  0  0
  2 38  1  1  0  0  0
M  END
>  <cdx:fragmentId>
50920

$$$$
