10460360.cdx
  Mrv1902 05222410272D          

 41 45  0  0  0  0            999 V2000
    8.3619  -15.3926    0.0000 C   0  0  0  0  0  0  0  0  0  0  0  0
    9.1869  -15.3926    0.0000 C   0  0  0  0  0  0  0  0  0  0  0  0
    9.7390  -16.0056    0.0000 C   0  0  0  0  0  0  0  0  0  0  0  0
   10.5459  -15.8341    0.0000 C   0  0  0  0  0  0  0  0  0  0  0  0
   11.0980  -16.4472    0.0000 C   0  0  0  0  0  0  0  0  0  0  0  0
   11.9049  -16.2757    0.0000 C   0  0  0  0  0  0  0  0  0  0  0  0
   12.1599  -15.4911    0.0000 C   0  0  0  0  0  0  0  0  0  0  0  0
   11.6079  -14.8780    0.0000 C   0  0  0  0  0  0  0  0  0  0  0  0
   10.8009  -15.0495    0.0000 C   0  0  0  0  0  0  0  0  0  0  0  0
   10.2488  -14.4364    0.0000 C   0  0  0  0  0  0  0  0  0  0  0  0
    9.4419  -14.6079    0.0000 C   0  0  0  0  0  0  0  0  0  0  0  0
    8.7744  -14.1230    0.0000 C   0  0  0  0  0  0  0  0  0  0  0  0
    8.1070  -14.6079    0.0000 C   0  0  0  0  0  0  0  0  0  0  0  0
    7.3000  -14.4364    0.0000 C   0  0  0  0  0  0  0  0  0  0  0  0
    6.7480  -15.0495    0.0000 C   0  0  0  0  0  0  0  0  0  0  0  0
    5.9410  -14.8780    0.0000 C   0  0  0  0  0  0  0  0  0  0  0  0
    5.3890  -15.4911    0.0000 C   0  0  0  0  0  0  0  0  0  0  0  0
    5.6439  -16.2757    0.0000 C   0  0  0  0  0  0  0  0  0  0  0  0
    6.4509  -16.4472    0.0000 C   0  0  0  0  0  0  0  0  0  0  0  0
    7.0029  -15.8341    0.0000 C   0  0  0  0  0  0  0  0  0  0  0  0
    7.8099  -16.0056    0.0000 C   0  0  0  0  0  0  0  0  0  0  0  0
   10.8430  -17.2318    0.0000 O   0  0  0  0  0  0  0  0  0  0  0  0
   11.8628  -14.0933    0.0000 O   0  0  0  0  0  0  0  0  0  0  0  0
    5.6861  -14.0933    0.0000 O   0  0  0  0  0  0  0  0  0  0  0  0
    8.7744  -13.2980    0.0000 C   0  0  0  0  0  0  0  0  0  0  0  0
    9.4889  -12.8855    0.0000 C   0  0  0  0  0  0  0  0  0  0  0  0
    9.4889  -12.0605    0.0000 C   0  0  0  0  0  0  0  0  0  0  0  0
    8.7744  -11.6480    0.0000 C   0  0  0  0  0  0  0  0  0  0  0  0
   10.2034  -11.6480    0.0000 C   0  0  0  0  0  0  0  0  0  0  0  0
    5.0919  -16.8888    0.0000 C   0  0  1  0  0  0  0  0  0  0  0  0
    4.2849  -16.7173    0.0000 C   0  0  0  0  0  0  0  0  0  0  0  0
    3.7016  -17.3006    0.0000 C   0  0  0  0  0  0  0  0  0  0  0  0
    2.9047  -17.0871    0.0000 C   0  0  0  0  0  0  0  0  0  0  0  0
    2.3213  -17.6705    0.0000 C   0  0  0  0  0  0  0  0  0  0  0  0
    2.6911  -16.2902    0.0000 C   0  0  0  0  0  0  0  0  0  0  0  0
    5.3468  -17.6734    0.0000 O   0  0  0  0  0  0  0  0  0  0  0  0
    8.0648  -16.7903    0.0000 O   0  0  0  0  0  0  0  0  0  0  0  0
    6.7058  -17.2318    0.0000 O   0  0  0  0  0  0  0  0  0  0  0  0
    7.0451  -13.6518    0.0000 O   0  0  0  0  0  0  0  0  0  0  0  0
   10.5038  -13.6518    0.0000 O   0  0  0  0  0  0  0  0  0  0  0  0
    9.4840  -16.7903    0.0000 O   0  0  0  0  0  0  0  0  0  0  0  0
  1  2  1  0  0  0  0
  2  3  2  0  0  0  0
  3  4  1  0  0  0  0
  4  5  1  0  0  0  0
  5  6  1  0  0  0  0
  6  7  2  0  0  0  0
  7  8  1  0  0  0  0
  8  9  1  0  0  0  0
  9 10  1  0  0  0  0
 10 11  2  0  0  0  0
 11 12  1  0  0  0  0
 12 13  2  0  0  0  0
 13 14  1  0  0  0  0
 14 15  2  0  0  0  0
 15 16  1  0  0  0  0
 16 17  1  0  0  0  0
 17 18  2  0  0  0  0
 18 19  1  0  0  0  0
 19 20  2  0  0  0  0
 20 21  1  0  0  0  0
  1 21  2  0  0  0  0
  1 13  1  0  0  0  0
 15 20  1  0  0  0  0
  2 11  1  0  0  0  0
  4  9  2  0  0  0  0
  5 22  2  0  0  0  0
  8 23  2  0  0  0  0
 16 24  2  0  0  0  0
 25 26  1  0  0  0  0
 26 27  2  0  0  0  0
 27 28  1  0  0  0  0
 27 29  1  0  0  0  0
 12 25  1  0  0  0  0
 30 31  1  0  0  0  0
 31 32  1  0  0  0  0
 32 33  2  0  0  0  0
 33 34  1  0  0  0  0
 33 35  1  0  0  0  0
 30 36  1  6  0  0  0
 18 30  1  0  0  0  0
 21 37  1  0  0  0  0
 19 38  1  0  0  0  0
 14 39  1  0  0  0  0
 10 40  1  0  0  0  0
  3 41  1  0  0  0  0
M  END
>  <cdx:groupId>
51156

>  <cdx:fragmentId>
51032

$$$$
