460509.cdx
  Mrv1902 05222410212D          

 77 88  0  0  0  0            999 V2000
   12.7285   -3.8687    0.0000 O   0  0  0  0  0  0  0  0  0  0  0  0
   12.7285   -2.2187    0.0000 O   0  0  0  0  0  0  0  0  0  0  0  0
   11.2996   -1.3937    0.0000 O   0  0  0  0  0  0  0  0  0  0  0  0
    9.1562   -3.4562    0.0000 O   0  0  0  0  0  0  0  0  0  0  0  0
    9.8706   -4.6937    0.0000 O   0  0  0  0  0  0  0  0  0  0  0  0
   10.5851   -2.6312    0.0000 C   0  0  0  0  0  0  0  0  0  0  0  0
   11.2996   -2.2187    0.0000 C   0  0  0  0  0  0  0  0  0  0  0  0
   12.0141   -2.6312    0.0000 C   0  0  0  0  0  0  0  0  0  0  0  0
   12.0141   -3.4562    0.0000 C   0  0  0  0  0  0  0  0  0  0  0  0
   11.2996   -3.8687    0.0000 C   0  0  0  0  0  0  0  0  0  0  0  0
   10.5851   -3.4562    0.0000 C   0  0  0  0  0  0  0  0  0  0  0  0
    9.8706   -3.8687    0.0000 C   0  0  0  0  0  0  0  0  0  0  0  0
    7.7272   -5.9312    0.0000 O   0  0  0  0  0  0  0  0  0  0  0  0
    6.2983   -3.4562    0.0000 C   0  0  0  0  0  0  0  0  0  0  0  0
    6.2983   -5.1062    0.0000 O   0  0  0  0  0  0  0  0  0  0  0  0
    9.1562   -5.1062    0.0000 O   0  0  0  0  0  0  0  0  0  0  0  0
    8.4417   -3.8687    0.0000 C   0  0  1  0  0  0  0  0  0  0  0  0
    8.4417   -4.6937    0.0000 C   0  0  1  0  0  0  0  0  0  0  0  0
    7.7272   -5.1062    0.0000 C   0  0  2  0  0  0  0  0  0  0  0  0
    7.0128   -4.6937    0.0000 C   0  0  1  0  0  0  0  0  0  0  0  0
    7.0128   -3.8687    0.0000 C   0  0  2  0  0  0  0  0  0  0  0  0
    7.7272   -3.4562    0.0000 O   0  0  0  0  0  0  0  0  0  0  0  0
    5.5838   -3.8687    0.0000 O   0  0  0  0  0  0  0  0  0  0  0  0
    4.8694   -3.4562    0.0000 C   0  0  0  0  0  0  0  0  0  0  0  0
    4.1549   -3.8687    0.0000 C   0  0  0  0  0  0  0  0  0  0  0  0
    4.8694   -2.6312    0.0000 O   0  0  0  0  0  0  0  0  0  0  0  0
    3.4404   -3.4562    0.0000 C   0  0  0  0  0  0  0  0  0  0  0  0
    2.7259   -3.8687    0.0000 C   0  0  0  0  0  0  0  0  0  0  0  0
    2.7259   -4.6937    0.0000 C   0  0  0  0  0  0  0  0  0  0  0  0
    3.4404   -5.1062    0.0000 C   0  0  0  0  0  0  0  0  0  0  0  0
    4.1549   -4.6937    0.0000 C   0  0  0  0  0  0  0  0  0  0  0  0
    2.0115   -3.4562    0.0000 O   0  0  0  0  0  0  0  0  0  0  0  0
    2.0115   -5.1062    0.0000 O   0  0  0  0  0  0  0  0  0  0  0  0
    7.7316   -6.7562    0.0000 C   0  0  0  0  0  0  0  0  0  0  0  0
    7.0194   -7.1725    0.0000 C   0  0  0  0  0  0  0  0  0  0  0  0
    8.4483   -7.1649    0.0000 O   0  0  0  0  0  0  0  0  0  0  0  0
    6.3008   -6.7671    0.0000 C   0  0  0  0  0  0  0  0  0  0  0  0
    5.5849   -7.1769    0.0000 C   0  0  0  0  0  0  0  0  0  0  0  0
    5.5875   -7.9921    0.0000 C   0  0  0  0  0  0  0  0  0  0  0  0
    6.2892   -8.4072    0.0000 C   0  0  0  0  0  0  0  0  0  0  0  0
    7.0051   -7.9973    0.0000 C   0  0  0  0  0  0  0  0  0  0  0  0
    4.8705   -6.7642    0.0000 O   0  0  0  0  0  0  0  0  0  0  0  0
    4.8715   -8.4020    0.0000 O   0  0  0  0  0  0  0  0  0  0  0  0
    6.2833   -9.2321    0.0000 O   0  0  0  0  0  0  0  0  0  0  0  0
    3.4404   -5.9312    0.0000 O   0  0  0  0  0  0  0  0  0  0  0  0
    9.1562   -5.9312    0.0000 C   0  0  0  0  0  0  0  0  0  0  0  0
    9.9812   -5.9312    0.0000 O   0  0  0  0  0  0  0  0  0  0  0  0
    3.3275   -7.3150    0.0000 C   0  0  0  0  0  0  0  0  0  0  0  0
    2.5025   -7.3150    0.0000 O   0  0  0  0  0  0  0  0  0  0  0  0
    7.8650   -9.7905    0.0000 C   0  0  0  0  0  0  0  0  0  0  0  0
    7.4525  -10.5050    0.0000 C   0  0  0  0  0  0  0  0  0  0  0  0
    7.8650  -11.2195    0.0000 C   0  0  0  0  0  0  0  0  0  0  0  0
    8.6900  -11.2195    0.0000 C   0  0  0  0  0  0  0  0  0  0  0  0
    9.1025  -10.5050    0.0000 C   0  0  0  0  0  0  0  0  0  0  0  0
    8.6900   -9.7905    0.0000 C   0  0  0  0  0  0  0  0  0  0  0  0
    6.6275  -10.5050    0.0000 C   0  0  0  0  0  0  0  0  0  0  0  0
    6.2150  -11.2195    0.0000 C   0  0  0  0  0  0  0  0  0  0  0  0
    6.6275  -11.9339    0.0000 C   0  0  0  0  0  0  0  0  0  0  0  0
    7.4525  -11.9339    0.0000 O   0  0  0  0  0  0  0  0  0  0  0  0
    5.9130  -10.0925    0.0000 C   0  0  0  0  0  0  0  0  0  0  0  0
    5.8025  -11.9339    0.0000 C   0  0  0  0  0  0  0  0  0  0  0  0
    5.0880  -10.0925    0.0000 C   0  0  0  0  0  0  0  0  0  0  0  0
    5.5005  -10.8070    0.0000 C   0  0  0  0  0  0  0  0  0  0  0  0
    7.0400  -11.2195    0.0000 O   0  0  0  0  0  0  0  0  0  0  0  0
    4.9775  -11.9339    0.0000 O   0  0  0  0  0  0  0  0  0  0  0  0
    4.3175  -11.0000    0.0000 C   0  0  0  0  0  0  0  0  0  0  0  0
    5.0875  -11.2200    0.0000 O   0  0  0  0  0  0  0  0  0  0  0  0
    5.8025  -12.7589    0.0000 O   0  0  0  0  0  0  0  0  0  0  0  0
    6.6275  -12.7589    0.0000 O   0  0  0  0  0  0  0  0  0  0  0  0
    3.8627  -10.3117    0.0000 C   0  0  0  0  0  0  0  0  0  0  0  0
    3.0675  -10.5316    0.0000 C   0  0  0  0  0  0  0  0  0  0  0  0
    3.0309  -11.3558    0.0000 C   0  0  0  0  0  0  0  0  0  0  0  0
    3.8034  -11.6453    0.0000 O   0  0  0  0  0  0  0  0  0  0  0  0
    4.1522   -9.5392    0.0000 O   0  0  0  0  0  0  0  0  0  0  0  0
    2.4222  -10.0175    0.0000 O   0  0  0  0  0  0  0  0  0  0  0  0
    9.1025  -11.9339    0.0000 O   0  0  0  0  0  0  0  0  0  0  0  0
    9.9275  -10.5050    0.0000 O   0  0  0  0  0  0  0  0  0  0  0  0
 17  4  1  1  0  0  0
  9  1  1  0  0  0  0
  8  2  1  0  0  0  0
  7  3  1  0  0  0  0
 12  4  1  0  0  0  0
 12  5  2  0  0  0  0
 11  6  2  0  0  0  0
  7  6  1  0  0  0  0
  8  7  2  0  0  0  0
  9  8  1  0  0  0  0
 10  9  2  0  0  0  0
 11 10  1  0  0  0  0
 12 11  1  0  0  0  0
 19 13  1  1  0  0  0
 21 14  1  1  0  0  0
 20 15  1  6  0  0  0
 18 16  1  6  0  0  0
 22 17  1  0  0  0  0
 18 17  1  0  0  0  0
 19 18  1  0  0  0  0
 20 19  1  0  0  0  0
 21 20  1  0  0  0  0
 22 21  1  0  0  0  0
 14 23  1  0  0  0  0
 23 24  1  0  0  0  0
 24 25  1  0  0  0  0
 24 26  2  0  0  0  0
 25 27  2  0  0  0  0
 27 28  1  0  0  0  0
 28 29  2  0  0  0  0
 29 30  1  0  0  0  0
 30 31  2  0  0  0  0
 31 25  1  0  0  0  0
 28 32  1  0  0  0  0
 29 33  1  0  0  0  0
 13 34  1  0  0  0  0
 34 35  1  0  0  0  0
 34 36  2  0  0  0  0
 35 37  2  0  0  0  0
 37 38  1  0  0  0  0
 38 39  2  0  0  0  0
 39 40  1  0  0  0  0
 40 41  2  0  0  0  0
 41 35  1  0  0  0  0
 38 42  1  0  0  0  0
 39 43  1  0  0  0  0
 40 44  1  0  0  0  0
 30 45  1  0  0  0  0
 16 46  1  0  0  0  0
 46 47  2  0  0  0  0
 15 48  1  0  0  0  0
 48 49  2  0  0  0  0
 50 51  2  0  0  0  0
 51 52  1  0  0  0  0
 52 53  2  0  0  0  0
 53 54  1  0  0  0  0
 54 55  2  0  0  0  0
 55 50  1  0  0  0  0
 51 56  1  0  0  0  0
 56 57  1  0  0  0  0
 57 58  1  0  0  0  0
 58 59  1  0  0  0  0
 59 52  1  0  0  0  0
 56 60  1  0  0  0  0
 58 61  1  0  0  0  0
 60 62  1  0  0  0  0
 60 63  1  0  0  0  0
 57 64  1  0  0  0  0
 63 61  1  0  0  0  0
 61 65  1  0  0  0  0
 65 66  1  0  0  0  0
 62 67  1  0  0  0  0
 66 62  1  0  0  0  0
 67 57  1  0  0  0  0
 61 68  1  0  0  0  0
 58 69  1  0  0  0  0
 66 70  1  0  0  0  0
 70 71  1  0  0  0  0
 71 72  1  0  0  0  0
 72 73  1  0  0  0  0
 73 66  1  0  0  0  0
 70 74  1  0  0  0  0
 71 75  1  0  0  0  0
 53 76  1  0  0  0  0
 54 77  1  0  0  0  0
 60 48  1  0  0  0  0
 50 46  1  0  0  0  0
 37 31  1  0  0  0  0
M  END
>  <cdx:fragmentId>
1231

$$$$
