5460659.cdx
  Mrv1902 05222410252D          

 15 16  0  0  0  0            999 V2000
    8.6195   -7.6481    0.0000 C   0  0  0  0  0  0  0  0  0  0  0  0
    9.3340   -7.2356    0.0000 C   0  0  0  0  0  0  0  0  0  0  0  0
    9.3340   -6.4106    0.0000 C   0  0  0  0  0  0  0  0  0  0  0  0
    8.6195   -5.9981    0.0000 C   0  0  2  0  0  0  0  0  0  0  0  0
    7.9050   -6.4106    0.0000 C   0  0  1  0  0  0  0  0  0  0  0  0
    7.1906   -5.9981    0.0000 C   0  0  0  0  0  0  0  0  0  0  0  0
    6.4761   -6.4106    0.0000 C   0  0  1  0  0  0  0  0  0  0  0  0
    6.4761   -7.2356    0.0000 C   0  0  0  0  0  0  0  0  0  0  0  0
    7.1906   -7.6481    0.0000 C   0  0  0  0  0  0  0  0  0  0  0  0
    7.9050   -7.2356    0.0000 C   0  0  0  0  0  0  0  0  0  0  0  0
    5.7616   -5.1731    0.0000 C   0  0  0  0  0  0  0  0  0  0  0  0
    5.7616   -5.9981    0.0000 C   0  0  0  0  0  0  0  0  0  0  0  0
    5.0471   -6.4106    0.0000 C   0  0  0  0  0  0  0  0  0  0  0  0
    7.9050   -5.5856    0.0000 C   0  0  0  0  0  0  0  0  0  0  0  0
    8.6195   -5.1731    0.0000 C   0  0  0  0  0  0  0  0  0  0  0  0
  1  2  1  0  0  0  0
  2  3  1  0  0  0  0
  3  4  1  0  0  0  0
  4  5  1  0  0  0  0
  5  6  1  0  0  0  0
  6  7  1  0  0  0  0
  7  8  1  0  0  0  0
  8  9  1  0  0  0  0
  9 10  2  0  0  0  0
  1 10  1  0  0  0  0
  5 10  1  0  0  0  0
 11 12  2  0  0  0  0
 12 13  1  0  0  0  0
  7 12  1  1  0  0  0
  5 14  1  1  0  0  0
  4 15  1  6  0  0  0
M  END
>  <cdx:groupId>
615

>  <cdx:fragmentId>
572

$$$$
