5460677.cdx
  Mrv1902 05222410242D          

 11 10  0  0  0  0            999 V2000
    8.6229   -6.2199    0.0000 C   0  0  0  0  0  0  0  0  0  0  0  0
    7.9085   -6.6324    0.0000 C   0  0  1  0  0  0  0  0  0  0  0  0
    7.1940   -6.2199    0.0000 C   0  0  1  0  0  0  0  0  0  0  0  0
    6.4795   -6.6324    0.0000 C   0  0  1  0  0  0  0  0  0  0  0  0
    5.7651   -6.2199    0.0000 C   0  0  0  0  0  0  0  0  0  0  0  0
    8.6229   -5.3949    0.0000 O   0  0  0  0  0  0  0  0  0  0  0  0
    9.3374   -6.6324    0.0000 O   0  0  0  0  0  0  0  0  0  0  0  0
    5.0506   -6.6324    0.0000 O   0  0  0  0  0  0  0  0  0  0  0  0
    6.4795   -7.4574    0.0000 O   0  0  0  0  0  0  0  0  0  0  0  0
    7.1940   -5.3949    0.0000 O   0  0  0  0  0  0  0  0  0  0  0  0
    7.9085   -7.4574    0.0000 O   0  0  0  0  0  0  0  0  0  0  0  0
  1  2  1  0  0  0  0
  2  3  1  0  0  0  0
  3  4  1  0  0  0  0
  4  5  1  0  0  0  0
  1  6  2  0  0  0  0
  1  7  1  0  0  0  0
  5  8  1  0  0  0  0
  4  9  1  6  0  0  0
  3 10  1  1  0  0  0
  2 11  1  6  0  0  0
M  END
>  <cdx:groupId>
652

>  <cdx:fragmentId>
623

$$$$
