460657.cdx
  Mrv1902 05222410212D          

 29 32  0  0  0  0            999 V2000
    5.7339   -4.5363    0.0000 H   0  0  0  0  0  0  0  0  0  0  0  0
    6.8139   -6.9709    0.0000 H   0  0  0  0  0  0  0  0  0  0  0  0
    9.4448   -6.5670    0.0000 O   0  0  0  0  0  0  0  0  0  0  0  0
    4.9270   -4.3648    0.0000 C   0  0  0  0  0  0  0  0  0  0  0  0
    9.2639   -5.0821    0.0000 C   0  0  0  0  0  0  0  0  0  0  0  0
    5.6869   -3.6389    0.0000 O   0  0  0  0  0  0  0  0  0  0  0  0
    7.1158   -3.6389    0.0000 O   0  0  0  0  0  0  0  0  0  0  0  0
    6.4014   -4.0514    0.0000 C   0  0  0  0  0  0  0  0  0  0  0  0
    7.5911   -6.2961    0.0000 C   0  0  0  0  0  0  0  0  0  0  0  0
    5.4368   -6.7590    0.0000 C   0  0  0  0  0  0  0  0  0  0  0  0
    4.6299   -6.5875    0.0000 C   0  0  0  0  0  0  0  0  0  0  0  0
    4.3749   -5.8029    0.0000 C   0  0  0  0  0  0  0  0  0  0  0  0
    4.9270   -5.1898    0.0000 C   0  0  1  0  0  0  0  0  0  0  0  0
    5.7339   -5.3613    0.0000 C   0  0  1  0  0  0  0  0  0  0  0  0
    6.4014   -4.8764    0.0000 C   0  0  1  0  0  0  0  0  0  0  0  0
    7.0688   -5.3613    0.0000 C   0  0  1  0  0  0  0  0  0  0  0  0
    7.8412   -5.0714    0.0000 C   0  0  0  0  0  0  0  0  0  0  0  0
    8.5494   -5.4946    0.0000 C   0  0  0  0  0  0  0  0  0  0  0  0
    8.6602   -6.3121    0.0000 C   0  0  1  0  0  0  0  0  0  0  0  0
    8.0900   -6.9084    0.0000 C   0  0  0  0  0  0  0  0  0  0  0  0
    7.2684   -6.8345    0.0000 C   0  0  0  0  0  0  0  0  0  0  0  0
    6.8139   -6.1459    0.0000 C   0  0  1  0  0  0  0  0  0  0  0  0
    5.9889   -6.1459    0.0000 C   0  0  2  0  0  0  0  0  0  0  0  0
    5.9889   -6.9709    0.0000 C   0  0  0  0  0  0  0  0  0  0  0  0
    4.2125   -4.7773    0.0000 C   0  0  0  0  0  0  0  0  0  0  0  0
    3.4980   -5.1898    0.0000 O   0  0  0  0  0  0  0  0  0  0  0  0
    4.2125   -3.9523    0.0000 O   0  0  0  0  0  0  0  0  0  0  0  0
    6.7033   -7.3834    0.0000 O   0  0  0  0  0  0  0  0  0  0  0  0
    5.2744   -7.3834    0.0000 O   0  0  0  0  0  0  0  0  0  0  0  0
 14  1  1  6  0  0  0
 22  2  1  6  0  0  0
 19  3  1  1  0  0  0
 13  4  1  6  0  0  0
 18  5  2  0  0  0  0
 15  8  1  6  0  0  0
  8  6  1  0  0  0  0
  8  7  2  0  0  0  0
 22 16  1  0  0  0  0
 19  9  1  0  0  0  0
 16  9  1  1  0  0  0
 23 14  1  0  0  0  0
 23 10  1  0  0  0  0
 11 10  1  0  0  0  0
 12 11  1  0  0  0  0
 13 12  1  0  0  0  0
 14 13  1  0  0  0  0
 15 14  1  0  0  0  0
 16 15  1  0  0  0  0
 17 16  1  0  0  0  0
 18 17  1  0  0  0  0
 19 18  1  0  0  0  0
 20 19  1  0  0  0  0
 21 20  1  0  0  0  0
 22 21  1  0  0  0  0
 23 22  1  0  0  0  0
 23 24  1  1  0  0  0
 13 25  1  0  0  0  0
 25 26  1  0  0  0  0
 25 27  2  0  0  0  0
 24 28  2  0  0  0  0
 24 29  1  0  0  0  0
M  END
>  <cdx:groupId>
96

>  <cdx:fragmentId>
155

$$$$
