460894.cdx
  Mrv1902 05222410262D          

 24 25  0  0  0  0            999 V2000
    8.4412   -3.8872    0.0000 O   0  0  0  0  0  0  0  0  0  0  0  0
    9.6280   -4.6830    0.0000 O   0  0  0  0  0  0  0  0  0  0  0  0
    8.8049   -4.6277    0.0000 C   0  0  0  0  0  0  0  0  0  0  0  0
    8.3623   -7.7879    0.0000 O   0  0  0  0  0  0  0  0  0  0  0  0
    8.3567   -6.9629    0.0000 C   0  0  2  0  0  0  0  0  0  0  0  0
    6.9249   -6.9678    0.0000 O   0  0  0  0  0  0  0  0  0  0  0  0
    7.6394   -6.5553    0.0000 C   0  0  0  0  0  0  0  0  0  0  0  0
    7.6338   -5.7303    0.0000 C   0  0  0  0  0  0  0  0  0  0  0  0
    7.9817   -4.5725    0.0000 O   0  0  0  0  0  0  0  0  0  0  0  0
    8.3454   -5.3130    0.0000 C   0  0  1  0  0  0  0  0  0  0  0  0
    9.0627   -5.7206    0.0000 C   0  0  0  0  0  0  0  0  0  0  0  0
    9.7828   -6.9581    0.0000 O   0  0  0  0  0  0  0  0  0  0  0  0
    9.0683   -6.5456    0.0000 C   0  0  0  0  0  0  0  0  0  0  0  0
    6.2105   -6.5553    0.0000 C   0  0  0  0  0  0  0  0  0  0  0  0
    5.4960   -6.9678    0.0000 C   0  0  0  0  0  0  0  0  0  0  0  0
    6.2105   -5.7303    0.0000 O   0  0  0  0  0  0  0  0  0  0  0  0
    4.7815   -6.5553    0.0000 C   0  0  0  0  0  0  0  0  0  0  0  0
    4.0670   -6.9678    0.0000 C   0  0  0  0  0  0  0  0  0  0  0  0
    4.0670   -7.7928    0.0000 C   0  0  0  0  0  0  0  0  0  0  0  0
    4.7815   -8.2053    0.0000 C   0  0  0  0  0  0  0  0  0  0  0  0
    5.4960   -7.7928    0.0000 C   0  0  0  0  0  0  0  0  0  0  0  0
    3.3526   -6.5553    0.0000 O   0  0  0  0  0  0  0  0  0  0  0  0
    3.3526   -8.2053    0.0000 O   0  0  0  0  0  0  0  0  0  0  0  0
    4.7815   -9.0303    0.0000 O   0  0  0  0  0  0  0  0  0  0  0  0
  3  1  2  0  0  0  0
  3  2  1  0  0  0  0
 10  3  1  0  0  0  0
  5  4  1  6  0  0  0
 13  5  1  0  0  0  0
  7  5  1  0  0  0  0
  7  6  1  0  0  0  0
  8  7  1  0  0  0  0
 10  8  1  0  0  0  0
 10  9  1  6  0  0  0
 11 10  1  0  0  0  0
 13 11  1  0  0  0  0
 13 12  1  0  0  0  0
  6 14  1  0  0  0  0
 14 15  1  0  0  0  0
 14 16  2  0  0  0  0
 15 17  2  0  0  0  0
 17 18  1  0  0  0  0
 18 19  2  0  0  0  0
 19 20  1  0  0  0  0
 20 21  2  0  0  0  0
 21 15  1  0  0  0  0
 18 22  1  0  0  0  0
 19 23  1  0  0  0  0
 20 24  1  0  0  0  0
M  END
>  <cdx:fragmentId>
18697

$$$$
