460899.cdx
  Mrv1902 05222410202D          

 23 24  0  0  0  0            999 V2000
    6.3678   -7.0376    0.0000 C   0  0  0  0  0  0  0  0  0  0  0  0
    7.0823   -6.6251    0.0000 C   0  0  0  0  0  0  0  0  0  0  0  0
    7.7968   -7.0376    0.0000 C   0  0  2  0  0  0  0  0  0  0  0  0
    7.7968   -7.8626    0.0000 C   0  0  1  0  0  0  0  0  0  0  0  0
    7.0823   -8.2751    0.0000 C   0  0  1  0  0  0  0  0  0  0  0  0
    6.3678   -7.8626    0.0000 C   0  0  0  0  0  0  0  0  0  0  0  0
    5.6534   -6.6251    0.0000 C   0  0  0  0  0  0  0  0  0  0  0  0
    5.6534   -5.8001    0.0000 O   0  0  0  0  0  0  0  0  0  0  0  0
    4.9389   -7.0376    0.0000 O   0  0  0  0  0  0  0  0  0  0  0  0
    8.5113   -6.6251    0.0000 O   0  0  0  0  0  0  0  0  0  0  0  0
    9.2257   -7.0376    0.0000 C   0  0  0  0  0  0  0  0  0  0  0  0
    9.9402   -6.6251    0.0000 C   0  0  0  0  0  0  0  0  0  0  0  0
   10.6547   -7.0376    0.0000 C   0  0  0  0  0  0  0  0  0  0  0  0
   11.3691   -6.6251    0.0000 C   0  0  0  0  0  0  0  0  0  0  0  0
   11.3691   -5.8001    0.0000 C   0  0  0  0  0  0  0  0  0  0  0  0
   10.6547   -5.3876    0.0000 C   0  0  0  0  0  0  0  0  0  0  0  0
    9.9402   -5.8001    0.0000 C   0  0  0  0  0  0  0  0  0  0  0  0
    9.2257   -7.8626    0.0000 O   0  0  0  0  0  0  0  0  0  0  0  0
   10.6547   -4.5626    0.0000 O   0  0  0  0  0  0  0  0  0  0  0  0
   12.0836   -5.3876    0.0000 O   0  0  0  0  0  0  0  0  0  0  0  0
   12.0836   -7.0376    0.0000 O   0  0  0  0  0  0  0  0  0  0  0  0
    7.0823   -9.1001    0.0000 O   0  0  0  0  0  0  0  0  0  0  0  0
    8.5113   -8.2751    0.0000 O   0  0  0  0  0  0  0  0  0  0  0  0
  1  2  2  0  0  0  0
  2  3  1  0  0  0  0
  3  4  1  0  0  0  0
  4  5  1  0  0  0  0
  5  6  1  0  0  0  0
  1  6  1  0  0  0  0
  7  8  2  0  0  0  0
  7  9  1  0  0  0  0
  1  7  1  0  0  0  0
 11 12  1  0  0  0  0
 12 13  1  0  0  0  0
 13 14  2  0  0  0  0
 14 15  1  0  0  0  0
 15 16  2  0  0  0  0
 16 17  1  0  0  0  0
 12 17  2  0  0  0  0
 11 18  2  0  0  0  0
 16 19  1  0  0  0  0
 15 20  1  0  0  0  0
 14 21  1  0  0  0  0
 10 11  1  0  0  0  0
  3 10  1  1  0  0  0
  5 22  1  6  0  0  0
  4 23  1  6  0  0  0
M  END
>  <cdx:fragmentId>
17602

$$$$
