460935.cdx
  Mrv1902 05222410252D          

 23 24  0  0  0  0            999 V2000
    7.5512   -7.8699    0.0000 O   0  0  0  0  0  0  0  0  0  0  0  0
    6.1223   -8.6949    0.0000 O   0  0  0  0  0  0  0  0  0  0  0  0
    4.6934   -7.8699    0.0000 O   0  0  0  0  0  0  0  0  0  0  0  0
    3.9789   -6.6324    0.0000 O   0  0  0  0  0  0  0  0  0  0  0  0
    4.6934   -6.2199    0.0000 C   0  0  0  0  0  0  0  0  0  0  0  0
    5.4078   -6.6324    0.0000 C   0  0  2  0  0  0  0  0  0  0  0  0
    5.4078   -7.4574    0.0000 C   0  0  2  0  0  0  0  0  0  0  0  0
    6.1223   -7.8699    0.0000 C   0  0  1  0  0  0  0  0  0  0  0  0
    6.8368   -7.4574    0.0000 C   0  0  2  0  0  0  0  0  0  0  0  0
    6.8368   -6.6324    0.0000 C   0  0  2  0  0  0  0  0  0  0  0  0
    6.1223   -6.2199    0.0000 O   0  0  0  0  0  0  0  0  0  0  0  0
    7.5512   -6.2199    0.0000 O   0  0  0  0  0  0  0  0  0  0  0  0
    7.5512   -5.3949    0.0000 C   0  0  2  0  0  0  0  0  0  0  0  0
    8.2657   -4.9824    0.0000 C   0  0  0  0  0  0  0  0  0  0  0  0
    8.2657   -4.1574    0.0000 O   0  0  0  0  0  0  0  0  0  0  0  0
    7.5512   -3.7449    0.0000 C   0  0  0  0  0  0  0  0  0  0  0  0
    6.8368   -4.1574    0.0000 C   0  0  2  0  0  0  0  0  0  0  0  0
    6.8368   -4.9824    0.0000 C   0  0  1  0  0  0  0  0  0  0  0  0
    6.1223   -5.3949    0.0000 O   0  0  0  0  0  0  0  0  0  0  0  0
    6.1223   -3.7449    0.0000 O   0  0  0  0  0  0  0  0  0  0  0  0
    8.6782   -5.6969    0.0000 O   0  0  0  0  0  0  0  0  0  0  0  0
    9.0907   -4.9824    0.0000 C   0  0  0  0  0  0  0  0  0  0  0  0
    9.5032   -4.2680    0.0000 O   0  0  0  0  0  0  0  0  0  0  0  0
 13 12  1  1  0  0  0
 10 12  1  6  0  0  0
  9  1  1  6  0  0  0
  8  2  1  1  0  0  0
  7  3  1  6  0  0  0
  6  5  1  1  0  0  0
  5  4  1  0  0  0  0
 11  6  1  0  0  0  0
  7  6  1  0  0  0  0
  8  7  1  0  0  0  0
  9  8  1  0  0  0  0
 10  9  1  0  0  0  0
 11 10  1  0  0  0  0
 13 14  1  0  0  0  0
 14 15  1  0  0  0  0
 15 16  1  0  0  0  0
 16 17  1  0  0  0  0
 17 18  1  0  0  0  0
 18 13  1  0  0  0  0
 18 19  1  6  0  0  0
 17 20  1  6  0  0  0
 14 21  1  0  0  0  0
 14 22  1  0  0  0  0
 22 23  1  0  0  0  0
M  END
>  <cdx:groupId>
802

>  <cdx:fragmentId>
752

$$$$
