460988.cdx
  Mrv1902 05222410192D          

 22 21  0  0  0  0            999 V2000
    0.4263   -5.9080    0.0000 O   0  0  0  0  0  0  0  0  0  0  0  0
    1.1408   -7.1455    0.0000 O   0  0  0  0  0  0  0  0  0  0  0  0
   14.7157   -5.9080    0.0000 C   0  0  0  0  0  0  0  0  0  0  0  0
   14.0012   -6.3205    0.0000 C   0  0  0  0  0  0  0  0  0  0  0  0
   13.2868   -5.9080    0.0000 C   0  0  0  0  0  0  0  0  0  0  0  0
   12.5723   -6.3205    0.0000 C   0  0  0  0  0  0  0  0  0  0  0  0
   11.8578   -5.9080    0.0000 C   0  0  0  0  0  0  0  0  0  0  0  0
   11.1433   -6.3205    0.0000 C   0  0  0  0  0  0  0  0  0  0  0  0
   10.4289   -5.9080    0.0000 C   0  0  0  0  0  0  0  0  0  0  0  0
    9.7144   -6.3205    0.0000 C   0  0  0  0  0  0  0  0  0  0  0  0
    8.9999   -5.9080    0.0000 C   0  0  0  0  0  0  0  0  0  0  0  0
    8.2855   -6.3205    0.0000 C   0  0  0  0  0  0  0  0  0  0  0  0
    7.5710   -5.9080    0.0000 C   0  0  0  0  0  0  0  0  0  0  0  0
    6.8565   -6.3205    0.0000 C   0  0  0  0  0  0  0  0  0  0  0  0
    6.1420   -5.9080    0.0000 C   0  0  0  0  0  0  0  0  0  0  0  0
    5.4276   -6.3205    0.0000 C   0  0  0  0  0  0  0  0  0  0  0  0
    4.7131   -5.9080    0.0000 C   0  0  0  0  0  0  0  0  0  0  0  0
    3.9986   -6.3205    0.0000 C   0  0  0  0  0  0  0  0  0  0  0  0
    3.2842   -5.9080    0.0000 C   0  0  0  0  0  0  0  0  0  0  0  0
    2.5697   -6.3205    0.0000 C   0  0  0  0  0  0  0  0  0  0  0  0
    1.8552   -5.9080    0.0000 C   0  0  0  0  0  0  0  0  0  0  0  0
    1.1408   -6.3205    0.0000 C   0  0  0  0  0  0  0  0  0  0  0  0
 22  1  1  0  0  0  0
 22  2  2  0  0  0  0
  4  3  1  0  0  0  0
  5  4  1  0  0  0  0
  6  5  1  0  0  0  0
  7  6  1  0  0  0  0
  8  7  1  0  0  0  0
  9  8  1  0  0  0  0
 10  9  1  0  0  0  0
 11 10  1  0  0  0  0
 12 11  1  0  0  0  0
 13 12  1  0  0  0  0
 14 13  2  0  0  0  0
 15 14  1  0  0  0  0
 16 15  1  0  0  0  0
 17 16  1  0  0  0  0
 18 17  1  0  0  0  0
 19 18  1  0  0  0  0
 20 19  1  0  0  0  0
 21 20  1  0  0  0  0
 22 21  1  0  0  0  0
M  END
>  <cdx:fragmentId>
5

$$$$
