461021.cdx
  Mrv1902 05222410252D          

 26 25  0  0  0  0            999 V2000
    1.6954   -7.1217    0.0000 O   0  5  0  0  0  0  0  0  0  0  0  0
    2.4098   -8.3592    0.0000 O   0  0  0  0  0  0  0  0  0  0  0  0
   18.8427   -7.1217    0.0000 C   0  0  0  0  0  0  0  0  0  0  0  0
   18.1282   -7.5342    0.0000 C   0  0  0  0  0  0  0  0  0  0  0  0
   17.4137   -7.1217    0.0000 C   0  0  0  0  0  0  0  0  0  0  0  0
   16.6993   -7.5342    0.0000 C   0  0  0  0  0  0  0  0  0  0  0  0
   15.9848   -7.1217    0.0000 C   0  0  0  0  0  0  0  0  0  0  0  0
   15.2703   -7.5342    0.0000 C   0  0  0  0  0  0  0  0  0  0  0  0
   14.5559   -7.1217    0.0000 C   0  0  0  0  0  0  0  0  0  0  0  0
   13.8414   -7.5342    0.0000 C   0  0  0  0  0  0  0  0  0  0  0  0
   13.1269   -7.1217    0.0000 C   0  0  0  0  0  0  0  0  0  0  0  0
   12.4124   -7.5342    0.0000 C   0  0  0  0  0  0  0  0  0  0  0  0
   11.6980   -7.1217    0.0000 C   0  0  0  0  0  0  0  0  0  0  0  0
   10.9835   -7.5342    0.0000 C   0  0  0  0  0  0  0  0  0  0  0  0
   10.2690   -7.1217    0.0000 C   0  0  0  0  0  0  0  0  0  0  0  0
    9.5546   -7.5342    0.0000 C   0  0  0  0  0  0  0  0  0  0  0  0
    8.8401   -7.1217    0.0000 C   0  0  0  0  0  0  0  0  0  0  0  0
    8.1256   -7.5342    0.0000 C   0  0  0  0  0  0  0  0  0  0  0  0
    7.4111   -7.1217    0.0000 C   0  0  0  0  0  0  0  0  0  0  0  0
    6.6967   -7.5342    0.0000 C   0  0  0  0  0  0  0  0  0  0  0  0
    5.9822   -7.1217    0.0000 C   0  0  0  0  0  0  0  0  0  0  0  0
    5.2677   -7.5342    0.0000 C   0  0  0  0  0  0  0  0  0  0  0  0
    4.5533   -7.1217    0.0000 C   0  0  0  0  0  0  0  0  0  0  0  0
    3.8388   -7.5342    0.0000 C   0  0  0  0  0  0  0  0  0  0  0  0
    3.1243   -7.1217    0.0000 C   0  0  0  0  0  0  0  0  0  0  0  0
    2.4098   -7.5342    0.0000 C   0  0  0  0  0  0  0  0  0  0  0  0
 26  1  1  0  0  0  0
 26  2  2  0  0  0  0
  4  3  1  0  0  0  0
  5  4  1  0  0  0  0
  6  5  1  0  0  0  0
  7  6  1  0  0  0  0
  8  7  1  0  0  0  0
  9  8  1  0  0  0  0
 10  9  1  0  0  0  0
 11 10  1  0  0  0  0
 12 11  1  0  0  0  0
 13 12  1  0  0  0  0
 14 13  1  0  0  0  0
 15 14  1  0  0  0  0
 16 15  1  0  0  0  0
 17 16  1  0  0  0  0
 18 17  1  0  0  0  0
 19 18  1  0  0  0  0
 20 19  1  0  0  0  0
 21 20  1  0  0  0  0
 22 21  1  0  0  0  0
 23 22  1  0  0  0  0
 24 23  1  0  0  0  0
 25 24  1  0  0  0  0
 26 25  1  0  0  0  0
M  CHG  1   1  -1
M  END
>  <cdx:fragmentId>
814

$$$$
