461162.cdx
  Mrv1902 05222410222D          

 23 26  0  0  0  0            999 V2000
    7.6420  -10.0314    0.0000 C   0  0  0  0  0  0  0  0  0  0  0  0
    7.6420  -10.8564    0.0000 C   0  0  0  0  0  0  0  0  0  0  0  0
    6.9275  -11.2689    0.0000 C   0  0  0  0  0  0  0  0  0  0  0  0
    6.2130  -10.8564    0.0000 C   0  0  0  0  0  0  0  0  0  0  0  0
    5.4986  -11.2689    0.0000 C   0  0  0  0  0  0  0  0  0  0  0  0
    4.7841  -10.8564    0.0000 C   0  0  0  0  0  0  0  0  0  0  0  0
    4.7841  -10.0314    0.0000 C   0  0  0  0  0  0  0  0  0  0  0  0
    5.4986   -9.6189    0.0000 C   0  0  0  0  0  0  0  0  0  0  0  0
    6.2130  -10.0314    0.0000 C   0  0  0  0  0  0  0  0  0  0  0  0
    6.9275   -9.6189    0.0000 O   0  0  0  0  0  0  0  0  0  0  0  0
    8.3565  -11.2689    0.0000 O   0  0  0  0  0  0  0  0  0  0  0  0
    8.3565   -9.6189    0.0000 C   0  0  0  0  0  0  0  0  0  0  0  0
    8.3565   -8.7939    0.0000 C   0  0  0  0  0  0  0  0  0  0  0  0
    9.0709   -8.3814    0.0000 C   0  0  0  0  0  0  0  0  0  0  0  0
    9.7854   -8.7939    0.0000 C   0  0  0  0  0  0  0  0  0  0  0  0
    9.7854   -9.6189    0.0000 C   0  0  0  0  0  0  0  0  0  0  0  0
    9.0709  -10.0314    0.0000 C   0  0  0  0  0  0  0  0  0  0  0  0
    9.0709  -10.8564    0.0000 C   0  0  0  0  0  0  0  0  0  0  0  0
    6.9275  -12.0939    0.0000 O   0  0  0  0  0  0  0  0  0  0  0  0
    4.0696   -9.6189    0.0000 O   0  0  0  0  0  0  0  0  0  0  0  0
    5.4986  -12.0939    0.0000 O   0  0  0  0  0  0  0  0  0  0  0  0
   10.4999  -10.0314    0.0000 O   0  0  0  0  0  0  0  0  0  0  0  0
   10.4999   -8.3814    0.0000 O   0  0  0  0  0  0  0  0  0  0  0  0
  1  2  2  0  0  0  0
  2  3  1  0  0  0  0
  3  4  1  0  0  0  0
  4  5  1  0  0  0  0
  5  6  2  0  0  0  0
  6  7  1  0  0  0  0
  7  8  2  0  0  0  0
  8  9  1  0  0  0  0
  4  9  2  0  0  0  0
  9 10  1  0  0  0  0
  1 10  1  0  0  0  0
 12 13  1  0  0  0  0
 13 14  2  0  0  0  0
 14 15  1  0  0  0  0
 15 16  2  0  0  0  0
 16 17  1  0  0  0  0
 12 17  2  0  0  0  0
 17 18  1  0  0  0  0
 11 18  1  0  0  0  0
 12  1  1  0  0  0  0
 11  2  1  0  0  0  0
  3 19  2  0  0  0  0
  7 20  1  0  0  0  0
  5 21  1  0  0  0  0
 16 22  1  0  0  0  0
 15 23  1  0  0  0  0
M  END
>  <cdx:groupId>
72432

>  <cdx:fragmentId>
72363

$$$$
