461265.cdx
  Mrv1902 05222410182D          

 21 23  0  0  0  0            999 V2000
    6.7281   -7.0812    0.0000 C   0  0  0  0  0  0  0  0  0  0  0  0
    5.9444   -7.6587    0.0000 C   0  0  0  0  0  0  0  0  0  0  0  0
    5.3806   -7.3975    0.0000 C   0  0  0  0  0  0  0  0  0  0  0  0
    5.5456   -6.6962    0.0000 C   0  0  0  0  0  0  0  0  0  0  0  0
    6.9619   -6.4350    0.0000 C   0  0  0  0  0  0  0  0  0  0  0  0
    8.0404   -6.7303    0.0000 C   0  0  0  0  0  0  0  0  0  0  0  0
    7.9244   -7.4387    0.0000 C   0  0  0  0  0  0  0  0  0  0  0  0
    6.4806   -5.7338    0.0000 O   0  0  0  0  0  0  0  0  0  0  0  0
    8.8077   -6.4270    0.0000 C   0  0  0  0  0  0  0  0  0  0  0  0
    8.9286   -5.6109    0.0000 O   0  0  0  0  0  0  0  0  0  0  0  0
    9.4540   -6.9398    0.0000 O   0  0  0  0  0  0  0  0  0  0  0  0
    5.1331   -5.9818    0.0000 O   0  0  0  0  0  0  0  0  0  0  0  0
    8.6494   -8.1119    0.0000 C   0  0  0  0  0  0  0  0  0  0  0  0
    9.4359   -7.8628    0.0000 C   0  0  0  0  0  0  0  0  0  0  0  0
   10.0449   -8.4194    0.0000 C   0  0  0  0  0  0  0  0  0  0  0  0
    9.8674   -9.2251    0.0000 C   0  0  0  0  0  0  0  0  0  0  0  0
    9.0809   -9.4742    0.0000 C   0  0  0  0  0  0  0  0  0  0  0  0
    8.4719   -8.9176    0.0000 C   0  0  0  0  0  0  0  0  0  0  0  0
   10.4763   -9.7817    0.0000 O   0  0  0  0  0  0  0  0  0  0  0  0
    6.5906   -7.8237    0.0000 C   0  0  0  0  0  0  0  0  0  0  0  0
    7.1740   -8.4071    0.0000 O   0  0  0  0  0  0  0  0  0  0  0  0
  1  2  1  0  0  0  0
  2  3  2  0  0  0  0
  3  4  1  0  0  0  0
  4  5  1  0  0  0  0
  5  6  1  0  0  0  0
  6  7  1  0  0  0  0
  1  7  1  0  0  0  0
  1  8  1  0  0  0  0
  8  5  1  0  0  0  0
  9 10  2  0  0  0  0
  9 11  1  0  0  0  0
  6  9  1  0  0  0  0
  4 12  2  0  0  0  0
 13 14  1  0  0  0  0
 14 15  2  0  0  0  0
 15 16  1  0  0  0  0
 16 17  2  0  0  0  0
 17 18  1  0  0  0  0
 13 18  2  0  0  0  0
 16 19  1  0  0  0  0
  7 13  1  0  0  0  0
 20 21  1  0  0  0  0
  1 20  1  0  0  0  0
M  END
>  <cdx:groupId>
5022

>  <cdx:fragmentId>
4960

$$$$
