46161.cdx
  Mrv1902 05222410202D          

 31 32  0  0  0  0            999 V2000
    4.5291   -6.1241    0.0000 O   0  0  0  0  0  0  0  0  0  0  0  0
    2.3856   -7.3616    0.0000 C   0  0  0  0  0  0  0  0  0  0  0  0
    3.1001   -6.9491    0.0000 C   0  0  0  0  0  0  0  0  0  0  0  0
    3.8146   -7.3616    0.0000 C   0  0  0  0  0  0  0  0  0  0  0  0
    4.5291   -6.9491    0.0000 C   0  0  0  0  0  0  0  0  0  0  0  0
    5.9580   -6.1241    0.0000 O   0  0  0  0  0  0  0  0  0  0  0  0
    4.5291   -8.5991    0.0000 O   0  0  0  0  0  0  0  0  0  0  0  0
    7.3869   -8.5991    0.0000 O   0  0  0  0  0  0  0  0  0  0  0  0
    5.9580   -9.4241    0.0000 C   0  0  0  0  0  0  0  0  0  0  0  0
    6.6725   -8.1866    0.0000 C   0  0  0  0  0  0  0  0  0  0  0  0
    5.9580   -8.5991    0.0000 C   0  0  0  0  0  0  0  0  0  0  0  0
    5.2435   -8.1866    0.0000 C   0  0  0  0  0  0  0  0  0  0  0  0
    5.2435   -7.3616    0.0000 C   0  0  0  0  0  0  0  0  0  0  0  0
    5.9580   -6.9491    0.0000 C   0  0  0  0  0  0  0  0  0  0  0  0
    6.6725   -7.3616    0.0000 C   0  0  0  0  0  0  0  0  0  0  0  0
    7.6013   -6.8254    0.0000 C   0  0  0  0  0  0  0  0  0  0  0  0
   10.3715   -6.6472    0.0000 C   0  0  0  0  0  0  0  0  0  0  0  0
   10.7840   -7.3616    0.0000 C   0  0  0  0  0  0  0  0  0  0  0  0
    8.5301   -9.8366    0.0000 O   0  0  0  0  0  0  0  0  0  0  0  0
    9.9590  -10.6616    0.0000 C   0  0  0  0  0  0  0  0  0  0  0  0
    9.9590   -9.8366    0.0000 C   0  0  0  0  0  0  0  0  0  0  0  0
    9.2446   -9.4241    0.0000 C   0  0  0  0  0  0  0  0  0  0  0  0
    7.8156   -8.5991    0.0000 O   0  0  0  0  0  0  0  0  0  0  0  0
    9.2446   -6.1241    0.0000 O   0  0  0  0  0  0  0  0  0  0  0  0
   10.6735   -8.5991    0.0000 O   0  0  0  0  0  0  0  0  0  0  0  0
    9.2446   -8.5991    0.0000 C   0  0  0  0  0  0  0  0  0  0  0  0
    8.5301   -8.1866    0.0000 C   0  0  0  0  0  0  0  0  0  0  0  0
    8.5301   -7.3616    0.0000 C   0  0  0  0  0  0  0  0  0  0  0  0
    9.2446   -6.9491    0.0000 C   0  0  0  0  0  0  0  0  0  0  0  0
    9.9590   -7.3616    0.0000 C   0  0  0  0  0  0  0  0  0  0  0  0
    9.9590   -8.1866    0.0000 C   0  0  0  0  0  0  0  0  0  0  0  0
 28 16  1  0  0  0  0
 16 15  1  0  0  0  0
 13  5  1  0  0  0  0
  5  1  2  0  0  0  0
  3  2  1  0  0  0  0
  4  3  1  0  0  0  0
  5  4  1  0  0  0  0
 14  6  1  0  0  0  0
 12  7  1  0  0  0  0
 10  8  1  0  0  0  0
 11  9  1  0  0  0  0
 15 10  2  0  0  0  0
 11 10  1  0  0  0  0
 12 11  2  0  0  0  0
 13 12  1  0  0  0  0
 14 13  2  0  0  0  0
 15 14  1  0  0  0  0
 30 17  1  0  0  0  0
 30 18  1  0  0  0  0
 26 22  1  0  0  0  0
 22 19  2  0  0  0  0
 21 20  1  0  0  0  0
 22 21  1  0  0  0  0
 27 23  2  0  0  0  0
 29 24  2  0  0  0  0
 31 25  2  0  0  0  0
 31 26  1  0  0  0  0
 27 26  1  0  0  0  0
 28 27  1  0  0  0  0
 29 28  1  0  0  0  0
 30 29  1  0  0  0  0
 31 30  1  0  0  0  0
M  END
>  <cdx:fragmentId>
12066

$$$$
