10046166.cdx
  Mrv1902 05222410222D          

 29 31  0  0  0  0            999 V2000
    5.6651  -14.9330    0.0000 C   0  0  0  0  0  0  0  0  0  0  0  0
    5.6651  -14.1080    0.0000 C   0  0  0  0  0  0  0  0  0  0  0  0
    6.3795  -13.6955    0.0000 C   0  0  0  0  0  0  0  0  0  0  0  0
    7.0940  -14.1080    0.0000 C   0  0  0  0  0  0  0  0  0  0  0  0
    7.0940  -14.9330    0.0000 C   0  0  0  0  0  0  0  0  0  0  0  0
    6.3795  -15.3455    0.0000 C   0  0  0  0  0  0  0  0  0  0  0  0
    4.9506  -15.3455    0.0000 O   0  0  0  0  0  0  0  0  0  0  0  0
    6.3795  -12.8705    0.0000 O   0  0  0  0  0  0  0  0  0  0  0  0
    4.9506  -13.6955    0.0000 C   0  0  0  0  0  0  0  0  0  0  0  0
    4.2361  -14.1080    0.0000 C   0  0  0  0  0  0  0  0  0  0  0  0
    3.5217  -13.6955    0.0000 C   0  0  0  0  0  0  0  0  0  0  0  0
    3.5217  -12.8705    0.0000 C   0  0  0  0  0  0  0  0  0  0  0  0
    2.8072  -14.1080    0.0000 C   0  0  0  0  0  0  0  0  0  0  0  0
    7.8085  -12.8705    0.0000 C   0  0  0  0  0  0  0  0  0  0  0  0
    7.8085  -13.6955    0.0000 C   0  0  2  0  0  0  0  0  0  0  0  0
    8.5230  -14.1080    0.0000 C   0  0  0  0  0  0  0  0  0  0  0  0
    9.2374  -13.6955    0.0000 C   0  0  0  0  0  0  0  0  0  0  0  0
    9.9519  -14.1080    0.0000 C   0  0  0  0  0  0  0  0  0  0  0  0
   10.6664  -13.6955    0.0000 C   0  0  0  0  0  0  0  0  0  0  0  0
   10.6664  -12.8705    0.0000 C   0  0  0  0  0  0  0  0  0  0  0  0
    9.9519  -12.4580    0.0000 C   0  0  0  0  0  0  0  0  0  0  0  0
    9.2374  -12.8705    0.0000 C   0  0  0  0  0  0  0  0  0  0  0  0
    8.5230  -12.4580    0.0000 O   0  0  0  0  0  0  0  0  0  0  0  0
    9.9519  -11.6330    0.0000 C   0  0  0  0  0  0  0  0  0  0  0  0
   10.6664  -11.2205    0.0000 C   0  0  0  0  0  0  0  0  0  0  0  0
   10.6664  -10.3955    0.0000 C   0  0  0  0  0  0  0  0  0  0  0  0
    9.9519   -9.9830    0.0000 C   0  0  0  0  0  0  0  0  0  0  0  0
   11.3808   -9.9830    0.0000 C   0  0  0  0  0  0  0  0  0  0  0  0
   11.3808  -12.4580    0.0000 O   0  0  0  0  0  0  0  0  0  0  0  0
  1  2  1  0  0  0  0
  2  3  2  0  0  0  0
  3  4  1  0  0  0  0
  4  5  2  0  0  0  0
  5  6  1  0  0  0  0
  1  6  2  0  0  0  0
  1  7  1  0  0  0  0
  3  8  1  0  0  0  0
  9 10  1  0  0  0  0
 10 11  2  0  0  0  0
 11 12  1  0  0  0  0
 11 13  1  0  0  0  0
  2  9  1  0  0  0  0
 14 15  1  0  0  0  0
 15 16  1  0  0  0  0
 16 17  1  0  0  0  0
 17 18  1  0  0  0  0
 18 19  2  0  0  0  0
 19 20  1  0  0  0  0
 20 21  2  0  0  0  0
 21 22  1  0  0  0  0
 17 22  2  0  0  0  0
 22 23  1  0  0  0  0
 14 23  1  0  0  0  0
 24 25  1  0  0  0  0
 25 26  2  0  0  0  0
 26 27  1  0  0  0  0
 26 28  1  0  0  0  0
 21 24  1  0  0  0  0
 20 29  1  0  0  0  0
 15  4  1  6  0  0  0
M  END
>  <cdx:fragmentId>
37601

$$$$
