461840.cdx
  Mrv1902 05222410202D          

 34 38  0  0  0  0            999 V2000
    8.3816   -5.2440    0.0000 H   0  0  0  0  0  0  0  0  0  0  0  0
    8.0439   -5.4551    0.0000 H   0  0  0  0  0  0  0  0  0  0  0  0
    7.0425   -6.5893    0.0000 C   0  0  2  0  0  0  0  0  0  0  0  0
    7.5546   -5.9424    0.0000 C   0  0  0  0  0  0  0  0  0  0  0  0
    8.3281   -6.2296    0.0000 C   0  0  2  0  0  0  0  0  0  0  0  0
    8.2939   -7.0539    0.0000 N   0  0  0  0  0  0  0  0  0  0  0  0
    8.9427   -7.5629    0.0000 C   0  0  0  0  0  0  0  0  0  0  0  0
    8.9545   -8.3878    0.0000 C   0  0  0  0  0  0  0  0  0  0  0  0
    8.3191   -8.9140    0.0000 C   0  0  0  0  0  0  0  0  0  0  0  0
    7.5108   -8.7487    0.0000 C   0  0  0  0  0  0  0  0  0  0  0  0
    7.1330   -8.0153    0.0000 C   0  0  2  0  0  0  0  0  0  0  0  0
    6.3097   -8.0676    0.0000 C   0  0  2  0  0  0  0  0  0  0  0  0
    5.8528   -7.3807    0.0000 C   0  0  2  0  0  0  0  0  0  0  0  0
    5.0365   -7.2606    0.0000 O   0  0  0  0  0  0  0  0  0  0  0  0
    4.8985   -6.4472    0.0000 C   0  0  0  0  0  0  0  0  0  0  0  0
    5.6294   -6.0646    0.0000 C   0  0  1  0  0  0  0  0  0  0  0  0
    6.2192   -6.6415    0.0000 C   0  0  2  0  0  0  0  0  0  0  0  0
    7.4994   -7.2762    0.0000 C   0  0  2  0  0  0  0  0  0  0  0  0
    4.1594   -6.0808    0.0000 O   0  0  0  0  0  0  0  0  0  0  0  0
    5.7495   -5.2484    0.0000 C   0  0  0  0  0  0  0  0  0  0  0  0
    5.9432   -8.8067    0.0000 C   0  0  0  0  0  0  0  0  0  0  0  0
    5.1216   -8.8807    0.0000 C   0  0  0  0  0  0  0  0  0  0  0  0
    6.7584   -5.8147    0.0000 H   0  0  0  0  0  0  0  0  0  0  0  0
    6.7666   -8.7545    0.0000 H   0  0  0  0  0  0  0  0  0  0  0  0
    5.4111   -8.0775    0.0000 H   0  0  0  0  0  0  0  0  0  0  0  0
    6.3604   -5.8287    0.0000 H   0  0  0  0  0  0  0  0  0  0  0  0
    7.8659   -6.5370    0.0000 H   0  0  0  0  0  0  0  0  0  0  0  0
   11.1248   -5.4471    0.0000 C   0  0  0  0  0  0  0  0  0  0  0  0
   10.1307   -3.9527    0.0000 O   0  0  0  0  0  0  0  0  0  0  0  0
    9.8436   -4.7261    0.0000 C   0  0  0  0  0  0  0  0  0  0  0  0
   10.3005   -5.4130    0.0000 C   0  0  2  0  0  0  0  0  0  0  0  0
    9.7884   -6.0599    0.0000 C   0  0  0  0  0  0  0  0  0  0  0  0
    9.0150   -5.7727    0.0000 C   0  0  2  0  0  0  0  0  0  0  0  0
    9.0491   -4.9484    0.0000 O   0  0  0  0  0  0  0  0  0  0  0  0
 33  1  1  6  0  0  0
  5  2  1  6  0  0  0
 31 28  1  1  0  0  0
 30 29  2  0  0  0  0
 34 30  1  0  0  0  0
 31 30  1  0  0  0  0
 32 31  1  0  0  0  0
 33 32  1  0  0  0  0
 33 34  1  0  0  0  0
  3  4  1  0  0  0  0
  5  4  1  0  0  0  0
  5  6  1  0  0  0  0
  6  7  1  0  0  0  0
  7  8  1  0  0  0  0
  8  9  1  0  0  0  0
  9 10  1  0  0  0  0
 10 11  1  0  0  0  0
 11 12  1  0  0  0  0
 12 13  1  0  0  0  0
 13 14  1  0  0  0  0
 14 15  1  0  0  0  0
 15 16  1  0  0  0  0
 16 17  1  0  0  0  0
  3 17  1  0  0  0  0
  3 18  1  0  0  0  0
 18 11  1  0  0  0  0
 13 17  1  0  0  0  0
  6 18  1  0  0  0  0
 15 19  2  0  0  0  0
  5 33  1  0  0  0  0
 16 20  1  6  0  0  0
 21 22  1  0  0  0  0
 12 21  1  1  0  0  0
  3 23  1  6  0  0  0
 11 24  1  1  0  0  0
 13 25  1  1  0  0  0
 17 26  1  1  0  0  0
 18 27  1  1  0  0  0
M  END
>  <cdx:fragmentId>
900

$$$$
