4628.cdx
  Mrv1902 05222410212D          

 25 27  0  0  0  0            999 V2000
    6.6795   -8.9930    0.0000 C   0  0  0  0  0  0  0  0  0  0  0  0
    6.6677   -8.1681    0.0000 C   0  0  0  0  0  0  0  0  0  0  0  0
    7.3761   -7.7453    0.0000 C   0  0  0  0  0  0  0  0  0  0  0  0
    8.0965   -8.1475    0.0000 C   0  0  0  0  0  0  0  0  0  0  0  0
    8.8049   -7.7247    0.0000 C   0  0  0  0  0  0  0  0  0  0  0  0
    9.5253   -8.1269    0.0000 C   0  0  0  0  0  0  0  0  0  0  0  0
    9.5371   -8.9518    0.0000 C   0  0  0  0  0  0  0  0  0  0  0  0
    8.8287   -9.3746    0.0000 C   0  0  0  0  0  0  0  0  0  0  0  0
    8.1083   -8.9724    0.0000 C   0  0  0  0  0  0  0  0  0  0  0  0
    7.3999   -9.3951    0.0000 O   0  0  0  0  0  0  0  0  0  0  0  0
   10.2337   -7.7041    0.0000 C   0  0  0  0  0  0  0  0  0  0  0  0
   10.2218   -6.8792    0.0000 C   0  0  0  0  0  0  0  0  0  0  0  0
    9.5015   -6.4771    0.0000 C   0  0  0  0  0  0  0  0  0  0  0  0
    8.7930   -6.8998    0.0000 O   0  0  0  0  0  0  0  0  0  0  0  0
    9.4896   -5.6521    0.0000 O   0  0  0  0  0  0  0  0  0  0  0  0
    6.2774   -9.7133    0.0000 C   0  0  0  0  0  0  0  0  0  0  0  0
    5.8546   -9.0049    0.0000 C   0  0  0  0  0  0  0  0  0  0  0  0
    7.3642   -6.9204    0.0000 O   0  0  0  0  0  0  0  0  0  0  0  0
    5.9473   -7.7659    0.0000 O   0  0  0  0  0  0  0  0  0  0  0  0
    5.2389   -8.1886    0.0000 C   0  0  0  0  0  0  0  0  0  0  0  0
    4.5185   -7.7865    0.0000 C   0  0  0  0  0  0  0  0  0  0  0  0
    5.2508   -9.0136    0.0000 O   0  0  0  0  0  0  0  0  0  0  0  0
    3.8101   -8.2092    0.0000 C   0  0  0  0  0  0  0  0  0  0  0  0
    3.8243   -9.0341    0.0000 C   0  0  0  0  0  0  0  0  0  0  0  0
    4.5066   -6.9616    0.0000 C   0  0  0  0  0  0  0  0  0  0  0  0
  1  2  1  0  0  0  0
  2  3  1  0  0  0  0
  3  4  1  0  0  0  0
  4  5  1  0  0  0  0
  5  6  2  0  0  0  0
  6  7  1  0  0  0  0
  7  8  2  0  0  0  0
  8  9  1  0  0  0  0
  4  9  2  0  0  0  0
  9 10  1  0  0  0  0
  1 10  1  0  0  0  0
 11 12  2  0  0  0  0
 12 13  1  0  0  0  0
 13 14  1  0  0  0  0
 14  5  1  0  0  0  0
 11  6  1  0  0  0  0
 13 15  2  0  0  0  0
  1 16  1  0  0  0  0
  1 17  1  0  0  0  0
  3 18  2  0  0  0  0
  2 19  1  0  0  0  0
 19 20  1  0  0  0  0
 20 21  1  0  0  0  0
 20 22  2  0  0  0  0
 21 23  2  0  0  0  0
 23 24  1  0  0  0  0
 21 25  1  0  0  0  0
M  END
>  <cdx:fragmentId>
5

$$$$
