463047.cdx
  Mrv1902 05222410272D          

 23 22  0  0  0  0            999 V2000
    0.8138  -10.3449    0.0000 C   0  0  0  0  0  0  0  0  0  0  0  0
    1.5283   -9.9324    0.0000 O   0  0  0  0  0  0  0  0  0  0  0  0
    2.2427  -11.1699    0.0000 O   0  0  0  0  0  0  0  0  0  0  0  0
    9.3874  -10.3449    0.0000 C   0  0  0  0  0  0  0  0  0  0  0  0
    8.6730   -9.9324    0.0000 C   0  0  0  0  0  0  0  0  0  0  0  0
    7.9585  -10.3449    0.0000 C   0  0  0  0  0  0  0  0  0  0  0  0
    7.2440   -9.9324    0.0000 C   0  0  0  0  0  0  0  0  0  0  0  0
    6.5296  -10.3449    0.0000 C   0  0  0  0  0  0  0  0  0  0  0  0
    5.8151   -9.9324    0.0000 C   0  0  0  0  0  0  0  0  0  0  0  0
    5.1006  -10.3449    0.0000 C   0  0  0  0  0  0  0  0  0  0  0  0
    4.3861   -9.9324    0.0000 C   0  0  0  0  0  0  0  0  0  0  0  0
    3.6717  -10.3449    0.0000 C   0  0  0  0  0  0  0  0  0  0  0  0
    2.9572   -9.9324    0.0000 C   0  0  0  0  0  0  0  0  0  0  0  0
    2.2427  -10.3449    0.0000 C   0  0  0  0  0  0  0  0  0  0  0  0
   10.1019   -9.9324    0.0000 C   0  0  0  0  0  0  0  0  0  0  0  0
   10.1019   -9.1074    0.0000 C   0  0  0  0  0  0  0  0  0  0  0  0
   10.8164   -8.6949    0.0000 C   0  0  0  0  0  0  0  0  0  0  0  0
   10.8164   -7.8699    0.0000 C   0  0  0  0  0  0  0  0  0  0  0  0
   11.5309   -7.4574    0.0000 C   0  0  0  0  0  0  0  0  0  0  0  0
   11.5309   -6.6324    0.0000 C   0  0  0  0  0  0  0  0  0  0  0  0
   12.2453   -6.2199    0.0000 C   0  0  0  0  0  0  0  0  0  0  0  0
   12.2453   -5.3949    0.0000 C   0  0  0  0  0  0  0  0  0  0  0  0
   12.9598   -4.9824    0.0000 C   0  0  0  0  0  0  0  0  0  0  0  0
  2  1  1  0  0  0  0
 14  2  1  0  0  0  0
 14  3  2  0  0  0  0
  5  4  1  0  0  0  0
  6  5  1  0  0  0  0
  7  6  1  0  0  0  0
  8  7  1  0  0  0  0
  9  8  1  0  0  0  0
 10  9  1  0  0  0  0
 11 10  1  0  0  0  0
 12 11  1  0  0  0  0
 13 12  1  0  0  0  0
 14 13  1  0  0  0  0
  4 15  2  0  0  0  0
 15 16  1  0  0  0  0
 16 17  1  0  0  0  0
 17 18  1  0  0  0  0
 18 19  1  0  0  0  0
 19 20  1  0  0  0  0
 20 21  1  0  0  0  0
 21 22  1  0  0  0  0
 22 23  1  0  0  0  0
M  END
>  <cdx:groupId>
1239

>  <cdx:fragmentId>
1174

$$$$
