5463488.cdx
  Mrv1902 05222410192D          

 14 13  0  0  0  0            999 V2000
    9.6237   -6.8469    0.0000 C   0  0  0  0  0  0  0  0  0  0  0  0
    8.9092   -7.2594    0.0000 C   0  0  0  0  0  0  0  0  0  0  0  0
    8.1947   -6.8469    0.0000 C   0  0  0  0  0  0  0  0  0  0  0  0
    7.4803   -7.2594    0.0000 C   0  0  0  0  0  0  0  0  0  0  0  0
    6.6553   -7.2594    0.0000 C   0  0  0  0  0  0  0  0  0  0  0  0
    5.9408   -6.8469    0.0000 C   0  0  0  0  0  0  0  0  0  0  0  0
    5.2263   -7.2594    0.0000 C   0  0  0  0  0  0  0  0  0  0  0  0
    4.5119   -6.8469    0.0000 C   0  0  0  0  0  0  0  0  0  0  0  0
    3.7974   -7.2594    0.0000 C   0  0  0  0  0  0  0  0  0  0  0  0
    3.0829   -6.8469    0.0000 C   0  0  0  0  0  0  0  0  0  0  0  0
    9.6237   -6.0219    0.0000 O   0  0  0  0  0  0  0  0  0  0  0  0
   10.3381   -7.2594    0.0000 O   0  0  0  0  0  0  0  0  0  0  0  0
   11.0526   -6.8469    0.0000 C   0  0  0  0  0  0  0  0  0  0  0  0
   11.7671   -7.2594    0.0000 C   0  0  0  0  0  0  0  0  0  0  0  0
  1  2  1  0  0  0  0
  2  3  1  0  0  0  0
  3  4  1  0  0  0  0
  4  5  2  0  0  0  0
  5  6  1  0  0  0  0
  6  7  1  0  0  0  0
  7  8  1  0  0  0  0
  8  9  1  0  0  0  0
  9 10  1  0  0  0  0
  1 11  2  0  0  0  0
  1 12  1  0  0  0  0
 13 14  1  0  0  0  0
 12 13  1  0  0  0  0
M  END
>  <cdx:groupId>
43

>  <cdx:fragmentId>
5

$$$$
