463728.cdx
  Mrv1902 05222410192D          

 32 36  0  0  0  0            999 V2000
    7.0961   -8.6666    0.0000 H   0  0  0  0  0  0  0  0  0  0  0  0
    6.3816   -7.4291    0.0000 H   0  0  0  0  0  0  0  0  0  0  0  0
    7.8106   -7.4291    0.0000 H   0  0  0  0  0  0  0  0  0  0  0  0
    9.2395   -9.9041    0.0000 O   0  0  0  0  0  0  0  0  0  0  0  0
    9.9545   -9.4926    0.0000 O   0  0  0  0  0  0  0  0  0  0  0  0
    5.6671  -10.3166    0.0000 O   0  0  0  0  0  0  0  0  0  0  0  0
    6.3816  -10.7291    0.0000 O   0  0  0  0  0  0  0  0  0  0  0  0
    7.8106  -11.5541    0.0000 O   0  0  0  0  0  0  0  0  0  0  0  0
    5.6671   -7.0166    0.0000 C   0  0  0  0  0  0  0  0  0  0  0  0
    6.3816   -9.9041    0.0000 C   0  0  0  0  0  0  0  0  0  0  0  0
    9.2395  -10.7291    0.0000 C   0  0  0  0  0  0  0  0  0  0  0  0
    4.2382   -9.4916    0.0000 O   0  0  0  0  0  0  0  0  0  0  0  0
    9.9542   -7.8426    0.0000 O   0  0  0  0  0  0  0  0  0  0  0  0
    7.5053   -9.6860    0.0000 C   0  0  0  0  0  0  0  0  0  0  0  0
    7.8456  -10.2755    0.0000 O   0  0  0  0  0  0  0  0  0  0  0  0
    8.5250  -10.3166    0.0000 C   0  0  1  0  0  0  0  0  0  0  0  0
    7.8106  -10.7291    0.0000 C   0  0  2  0  0  0  0  0  0  0  0  0
    7.0961  -10.3166    0.0000 C   0  0  1  0  0  0  0  0  0  0  0  0
    7.0961   -9.4916    0.0000 C   0  0  2  0  0  0  0  0  0  0  0  0
    6.3816   -9.0791    0.0000 C   0  0  2  0  0  0  0  0  0  0  0  0
    5.6671   -9.4916    0.0000 C   0  0  1  0  0  0  0  0  0  0  0  0
    4.9527   -9.0791    0.0000 C   0  0  0  0  0  0  0  0  0  0  0  0
    4.9527   -8.2541    0.0000 C   0  0  0  0  0  0  0  0  0  0  0  0
    5.6671   -7.8416    0.0000 C   0  0  0  0  0  0  0  0  0  0  0  0
    6.3816   -8.2541    0.0000 C   0  0  2  0  0  0  0  0  0  0  0  0
    7.0961   -7.8416    0.0000 C   0  0  0  0  0  0  0  0  0  0  0  0
    7.8106   -8.2541    0.0000 C   0  0  1  0  0  0  0  0  0  0  0  0
    8.5254   -7.8423    0.0000 O   0  0  0  0  0  0  0  0  0  0  0  0
    9.2398   -8.2551    0.0000 C   0  0  0  0  0  0  0  0  0  0  0  0
    9.2400   -9.0801    0.0000 C   0  0  1  0  0  0  0  0  0  0  0  0
    8.5250   -9.4916    0.0000 C   0  0  1  0  0  0  0  0  0  0  0  0
    7.8106   -9.0791    0.0000 C   0  0  2  0  0  0  0  0  0  0  0  0
 19  1  1  1  0  0  0
 25  2  1  1  0  0  0
 27  3  1  6  0  0  0
 31  4  1  6  0  0  0
 30  5  1  6  0  0  0
 21  6  1  6  0  0  0
 18  7  1  6  0  0  0
 17  8  1  1  0  0  0
 24  9  1  0  0  0  0
 20 10  1  6  0  0  0
 16 11  1  0  0  0  0
 22 12  2  0  0  0  0
 29 13  2  0  0  0  0
 32 27  1  0  0  0  0
 25 20  1  0  0  0  0
 31 16  1  0  0  0  0
 32 19  1  0  0  0  0
 32 14  1  6  0  0  0
 15 14  1  0  0  0  0
 16 15  1  6  0  0  0
 17 16  1  0  0  0  0
 18 17  1  0  0  0  0
 19 18  1  0  0  0  0
 20 19  1  0  0  0  0
 21 20  1  0  0  0  0
 22 21  1  0  0  0  0
 23 22  1  0  0  0  0
 24 23  2  0  0  0  0
 25 24  1  0  0  0  0
 26 25  1  0  0  0  0
 27 26  1  0  0  0  0
 28 27  1  0  0  0  0
 29 28  1  0  0  0  0
 30 29  1  0  0  0  0
 31 30  1  0  0  0  0
 32 31  1  0  0  0  0
M  END
>  <cdx:fragmentId>
5

$$$$
