4638.cdx
  Mrv1902 05222410232D          

 14 15  0  0  0  0            999 V2000
    7.8341   -9.6535    0.0000 O   0  0  0  0  0  0  0  0  0  0  0  0
    7.6206   -8.8566    0.0000 C   0  0  0  0  0  0  0  0  0  0  0  0
    8.1055   -8.1892    0.0000 O   0  0  0  0  0  0  0  0  0  0  0  0
    7.6206   -7.5218    0.0000 C   0  0  0  0  0  0  0  0  0  0  0  0
    6.1215   -9.0142    0.0000 C   0  0  0  0  0  0  0  0  0  0  0  0
    6.8360   -8.6017    0.0000 C   0  0  0  0  0  0  0  0  0  0  0  0
    6.8360   -7.7767    0.0000 C   0  0  0  0  0  0  0  0  0  0  0  0
    6.1215   -7.3642    0.0000 C   0  0  0  0  0  0  0  0  0  0  0  0
    5.4070   -7.7767    0.0000 C   0  0  0  0  0  0  0  0  0  0  0  0
    5.4070   -8.6017    0.0000 C   0  0  0  0  0  0  0  0  0  0  0  0
    7.8755   -6.7371    0.0000 C   0  0  0  0  0  0  0  0  0  0  0  0
    7.3235   -6.1240    0.0000 C   0  0  0  0  0  0  0  0  0  0  0  0
    7.5784   -5.3394    0.0000 C   0  0  0  0  0  0  0  0  0  0  0  0
    7.0264   -4.7263    0.0000 C   0  0  0  0  0  0  0  0  0  0  0  0
  2  1  2  0  0  0  0
  2  6  1  0  0  0  0
  3  2  1  0  0  0  0
  4  3  1  0  0  0  0
  7  4  1  0  0  0  0
  5 10  2  0  0  0  0
  6  5  1  0  0  0  0
  7  6  2  0  0  0  0
  8  7  1  0  0  0  0
  9  8  1  0  0  0  0
 10  9  1  0  0  0  0
  4 11  2  0  0  0  0
 11 12  1  0  0  0  0
 12 13  1  0  0  0  0
 13 14  1  0  0  0  0
M  END
>  <cdx:fragmentId>
5

$$$$
