71463992.cdx
  Mrv1902 05222410222D          

 35 36  0  0  0  0            999 V2000
    7.2959  -12.1912    0.0000 C   0  0  0  0  0  0  0  0  0  0  0  0
    6.5172  -12.4637    0.0000 C   0  0  0  0  0  0  0  0  0  0  0  0
    5.8919  -11.9256    0.0000 C   0  0  0  0  0  0  0  0  0  0  0  0
    5.1132  -12.1980    0.0000 C   0  0  0  0  0  0  0  0  0  0  0  0
    7.4493  -11.3806    0.0000 O   0  0  0  0  0  0  0  0  0  0  0  0
    7.9007  -12.7524    0.0000 O   0  0  0  0  0  0  0  0  0  0  0  0
    6.3638  -13.2743    0.0000 C   0  0  0  0  0  0  0  0  0  0  0  0
    4.4879  -11.6599    0.0000 O   0  0  0  0  0  0  0  0  0  0  0  0
    9.1467  -15.1510    0.0000 O   0  0  0  0  0  0  0  0  0  0  0  0
    8.3621  -14.8961    0.0000 C   0  0  1  0  0  0  0  0  0  0  0  0
    8.3621  -14.0711    0.0000 C   0  0  2  0  0  0  0  0  0  0  0  0
    9.1467  -13.8161    0.0000 C   0  0  0  0  0  0  0  0  0  0  0  0
    9.6317  -14.4836    0.0000 C   0  0  0  0  0  0  0  0  0  0  0  0
    7.7171  -13.5567    0.0000 C   0  0  1  0  0  0  0  0  0  0  0  0
    6.9128  -13.7403    0.0000 C   0  0  0  0  0  0  0  0  0  0  0  0
    6.5548  -14.4836    0.0000 C   0  0  0  0  0  0  0  0  0  0  0  0
    6.9128  -15.2269    0.0000 C   0  0  0  0  0  0  0  0  0  0  0  0
    6.4896  -15.9351    0.0000 C   0  0  0  0  0  0  0  0  0  0  0  0
    7.0324  -16.5564    0.0000 C   0  0  1  0  0  0  0  0  0  0  0  0
    7.7911  -16.2321    0.0000 C   0  0  0  0  0  0  0  0  0  0  0  0
    7.7171  -15.4104    0.0000 C   0  0  0  0  0  0  0  0  0  0  0  0
   10.4567  -14.4836    0.0000 O   0  0  0  0  0  0  0  0  0  0  0  0
    9.4017  -13.0315    0.0000 C   0  0  0  0  0  0  0  0  0  0  0  0
    8.5055  -16.6446    0.0000 C   0  0  0  0  0  0  0  0  0  0  0  0
    5.7298  -14.4836    0.0000 C   0  0  0  0  0  0  0  0  0  0  0  0
    5.3173  -13.7691    0.0000 O   0  0  0  0  0  0  0  0  0  0  0  0
    4.4923  -13.7691    0.0000 C   0  0  0  0  0  0  0  0  0  0  0  0
    4.0798  -14.4836    0.0000 O   0  0  0  0  0  0  0  0  0  0  0  0
    4.0798  -13.0546    0.0000 C   0  0  0  0  0  0  0  0  0  0  0  0
    6.8489  -17.3607    0.0000 O   0  0  0  0  0  0  0  0  0  0  0  0
    6.0605  -17.6039    0.0000 C   0  0  0  0  0  0  0  0  0  0  0  0
    5.8470  -18.4007    0.0000 O   0  0  0  0  0  0  0  0  0  0  0  0
    5.4772  -17.0205    0.0000 C   0  0  0  0  0  0  0  0  0  0  0  0
    8.5094  -13.2593    0.0000 H   0  0  0  0  0  0  0  0  0  0  0  0
    8.5094  -15.7078    0.0000 H   0  0  0  0  0  0  0  0  0  0  0  0
  1  2  1  0  0  0  0
  2  3  2  0  0  0  0
  3  4  1  0  0  0  0
  1  5  2  0  0  0  0
  1  6  1  0  0  0  0
  2  7  1  0  0  0  0
  4  8  1  0  0  0  0
  9 10  1  0  0  0  0
 10 11  1  0  0  0  0
 11 12  1  0  0  0  0
 12 13  1  0  0  0  0
  9 13  1  0  0  0  0
 14 15  1  0  0  0  0
 15 16  1  0  0  0  0
 16 17  2  0  0  0  0
 17 18  1  0  0  0  0
 18 19  1  0  0  0  0
 19 20  1  0  0  0  0
 20 21  2  0  0  0  0
 21 10  1  0  0  0  0
 14 11  1  0  0  0  0
 13 22  2  0  0  0  0
 12 23  2  0  0  0  0
 20 24  1  0  0  0  0
 27 28  2  0  0  0  0
 27 29  1  0  0  0  0
 26 27  1  0  0  0  0
 25 26  1  0  0  0  0
 16 25  1  0  0  0  0
 31 32  2  0  0  0  0
 31 33  1  0  0  0  0
 30 31  1  0  0  0  0
 19 30  1  1  0  0  0
 14  6  1  1  0  0  0
 11 34  1  6  0  0  0
 10 35  1  1  0  0  0
M  END
>  <cdx:groupId>
202339

>  <cdx:fragmentId>
202262

$$$$
