71463991.cdx
  Mrv1902 05222410222D          

 34 37  0  0  0  0            999 V2000
    5.4311   -7.2594    0.0000 O   0  0  0  0  0  0  0  0  0  0  0  0
    4.0021   -4.7844    0.0000 O   0  0  0  0  0  0  0  0  0  0  0  0
   10.4324   -3.5469    0.0000 O   0  0  0  0  0  0  0  0  0  0  0  0
   11.1468   -4.7844    0.0000 C   0  0  0  0  0  0  0  0  0  0  0  0
   10.4324   -5.1969    0.0000 O   0  0  0  0  0  0  0  0  0  0  0  0
    8.2890   -3.9594    0.0000 C   0  0  0  0  0  0  0  0  0  0  0  0
    9.0034   -3.5469    0.0000 C   0  0  0  0  0  0  0  0  0  0  0  0
    9.7179   -3.9594    0.0000 C   0  0  0  0  0  0  0  0  0  0  0  0
    9.7179   -4.7844    0.0000 C   0  0  0  0  0  0  0  0  0  0  0  0
    9.0034   -5.1969    0.0000 C   0  0  0  0  0  0  0  0  0  0  0  0
    8.2890   -4.7844    0.0000 C   0  0  0  0  0  0  0  0  0  0  0  0
    9.7179   -7.2594    0.0000 O   0  0  0  0  0  0  0  0  0  0  0  0
    9.7179   -8.9094    0.0000 O   0  0  0  0  0  0  0  0  0  0  0  0
    8.2890   -9.7344    0.0000 O   0  0  0  0  0  0  0  0  0  0  0  0
    6.8600   -8.9094    0.0000 C   0  0  0  0  0  0  0  0  0  0  0  0
    7.5745   -8.4969    0.0000 C   0  0  2  0  0  0  0  0  0  0  0  0
    8.2890   -8.9094    0.0000 C   0  0  2  0  0  0  0  0  0  0  0  0
    9.0034   -8.4969    0.0000 C   0  0  1  0  0  0  0  0  0  0  0  0
    9.0034   -7.6719    0.0000 C   0  0  1  0  0  0  0  0  0  0  0  0
    8.2890   -7.2594    0.0000 C   0  0  0  0  0  0  0  0  0  0  0  0
    7.5745   -7.6719    0.0000 O   0  0  0  0  0  0  0  0  0  0  0  0
    8.2890   -6.4344    0.0000 O   0  0  0  0  0  0  0  0  0  0  0  0
    6.8600   -7.2594    0.0000 O   0  0  0  0  0  0  0  0  0  0  0  0
    6.8600   -4.7844    0.0000 O   0  0  0  0  0  0  0  0  0  0  0  0
    6.1455   -5.1969    0.0000 C   0  0  0  0  0  0  0  0  0  0  0  0
    5.4311   -4.7844    0.0000 C   0  0  0  0  0  0  0  0  0  0  0  0
    4.7166   -5.1969    0.0000 C   0  0  0  0  0  0  0  0  0  0  0  0
    4.7166   -6.0219    0.0000 C   0  0  0  0  0  0  0  0  0  0  0  0
    5.4311   -6.4344    0.0000 C   0  0  0  0  0  0  0  0  0  0  0  0
    6.1455   -6.0219    0.0000 C   0  0  0  0  0  0  0  0  0  0  0  0
    6.8600   -6.4344    0.0000 C   0  0  0  0  0  0  0  0  0  0  0  0
    7.5745   -6.0219    0.0000 C   0  0  0  0  0  0  0  0  0  0  0  0
    7.5745   -5.1969    0.0000 C   0  0  0  0  0  0  0  0  0  0  0  0
    6.8600   -9.7344    0.0000 O   0  0  0  0  0  0  0  0  0  0  0  0
 29  1  1  0  0  0  0
 27  2  1  0  0  0  0
 33 11  1  0  0  0  0
  8  3  1  0  0  0  0
  9  5  1  0  0  0  0
  5  4  1  0  0  0  0
 11  6  2  0  0  0  0
  7  6  1  0  0  0  0
  8  7  2  0  0  0  0
  9  8  1  0  0  0  0
 10  9  2  0  0  0  0
 11 10  1  0  0  0  0
 32 22  1  0  0  0  0
 22 20  1  0  0  0  0
 19 12  1  1  0  0  0
 18 13  1  1  0  0  0
 17 14  1  6  0  0  0
 16 15  1  1  0  0  0
 21 16  1  0  0  0  0
 17 16  1  0  0  0  0
 18 17  1  0  0  0  0
 19 18  1  0  0  0  0
 20 19  1  0  0  0  0
 21 20  1  0  0  0  0
 31 23  2  0  0  0  0
 33 24  1  0  0  0  0
 25 24  1  0  0  0  0
 30 25  2  0  0  0  0
 26 25  1  0  0  0  0
 27 26  2  0  0  0  0
 28 27  1  0  0  0  0
 29 28  2  0  0  0  0
 30 29  1  0  0  0  0
 31 30  1  0  0  0  0
 32 31  1  0  0  0  0
 33 32  2  0  0  0  0
 15 34  1  0  0  0  0
M  END
>  <cdx:fragmentId>
29

$$$$
