463990.cdx
  Mrv1902 05222410232D          

 45 50  0  0  0  0            999 V2000
    8.5637   -6.8392    0.0000 C   0  0  0  0  0  0  0  0  0  0  0  0
    8.5745   -7.6642    0.0000 C   0  0  0  0  0  0  0  0  0  0  0  0
    9.2943   -8.0673    0.0000 C   0  0  0  0  0  0  0  0  0  0  0  0
   10.0033   -7.6455    0.0000 C   0  0  0  0  0  0  0  0  0  0  0  0
    9.9925   -6.8206    0.0000 C   0  0  0  0  0  0  0  0  0  0  0  0
    9.2727   -6.4174    0.0000 C   0  0  0  0  0  0  0  0  0  0  0  0
   10.7231   -8.0486    0.0000 O   0  0  0  0  0  0  0  0  0  0  0  0
    7.8439   -6.4361    0.0000 C   0  0  0  0  0  0  0  0  0  0  0  0
    4.2557   -5.2454    0.0000 C   0  0  0  0  0  0  0  0  0  0  0  0
    4.9755   -5.6485    0.0000 O   0  0  0  0  0  0  0  0  0  0  0  0
    9.2620   -5.5925    0.0000 C   0  0  0  0  0  0  0  0  0  0  0  0
    4.9540   -3.9986    0.0000 O   0  0  0  0  0  0  0  0  0  0  0  0
    7.1133   -5.2080    0.0000 C   0  0  0  0  0  0  0  0  0  0  0  0
    6.4043   -5.6298    0.0000 C   0  0  0  0  0  0  0  0  0  0  0  0
    5.6845   -5.2267    0.0000 C   0  0  0  0  0  0  0  0  0  0  0  0
    5.6738   -4.4018    0.0000 C   0  0  0  0  0  0  0  0  0  0  0  0
    6.3828   -3.9800    0.0000 C   0  0  0  0  0  0  0  0  0  0  0  0
    7.1026   -4.3831    0.0000 C   0  0  0  0  0  0  0  0  0  0  0  0
    7.8116   -3.9613    0.0000 C   0  0  0  0  0  0  0  0  0  0  0  0
    8.5314   -4.3644    0.0000 C   0  0  0  0  0  0  0  0  0  0  0  0
    8.5422   -5.1894    0.0000 N   0  0  0  0  0  0  0  0  0  0  0  0
    3.6544  -13.9165    0.0000 C   0  0  0  0  0  0  0  0  0  0  0  0
    3.6437  -13.0915    0.0000 O   0  0  0  0  0  0  0  0  0  0  0  0
    2.9131  -11.8635    0.0000 C   0  0  0  0  0  0  0  0  0  0  0  0
    3.6221  -11.4417    0.0000 O   0  0  0  0  0  0  0  0  0  0  0  0
    7.9086  -11.3857    0.0000 C   0  0  0  0  0  0  0  0  0  0  0  0
    5.7707  -11.8261    0.0000 C   0  0  0  0  0  0  0  0  0  0  0  0
    5.0509  -11.4230    0.0000 C   0  0  0  0  0  0  0  0  0  0  0  0
    4.3419  -11.8448    0.0000 C   0  0  0  0  0  0  0  0  0  0  0  0
    4.3527  -12.6697    0.0000 C   0  0  0  0  0  0  0  0  0  0  0  0
    5.0725  -13.0729    0.0000 C   0  0  0  0  0  0  0  0  0  0  0  0
    5.7815  -12.6511    0.0000 C   0  0  0  0  0  0  0  0  0  0  0  0
    6.5013  -13.0542    0.0000 C   0  0  0  0  0  0  0  0  0  0  0  0
    7.2103  -12.6324    0.0000 C   0  0  0  0  0  0  0  0  0  0  0  0
    7.1995  -11.8075    0.0000 N   0  0  0  0  0  0  0  0  0  0  0  0
    6.4797  -11.4043    0.0000 C   0  0  2  0  0  0  0  0  0  0  0  0
    6.4690  -10.5794    0.0000 C   0  0  0  0  0  0  0  0  0  0  0  0
    8.6068  -10.1390    0.0000 C   0  0  0  0  0  0  0  0  0  0  0  0
    7.8978  -10.5607    0.0000 C   0  0  0  0  0  0  0  0  0  0  0  0
    7.1780  -10.1576    0.0000 C   0  0  0  0  0  0  0  0  0  0  0  0
    7.1672   -9.3327    0.0000 C   0  0  0  0  0  0  0  0  0  0  0  0
    7.8762   -8.9109    0.0000 C   0  0  0  0  0  0  0  0  0  0  0  0
    8.5960   -9.3140    0.0000 C   0  0  0  0  0  0  0  0  0  0  0  0
    9.3051   -8.8922    0.0000 O   0  0  0  0  0  0  0  0  0  0  0  0
    7.8331   -5.6112    0.0000 C   0  0  2  0  0  0  0  0  0  0  0  0
 45  8  1  6  0  0  0
 15 10  1  0  0  0  0
 10  9  1  0  0  0  0
 21 11  1  0  0  0  0
 16 12  1  0  0  0  0
 18 13  2  0  0  0  0
 45 13  1  0  0  0  0
 14 13  1  0  0  0  0
 15 14  2  0  0  0  0
 16 15  1  0  0  0  0
 17 16  2  0  0  0  0
 18 17  1  0  0  0  0
 19 18  1  0  0  0  0
 20 19  1  0  0  0  0
 21 20  1  0  0  0  0
 40 37  1  0  0  0  0
 36 37  1  1  0  0  0
 30 23  1  0  0  0  0
 23 22  1  0  0  0  0
 29 25  1  0  0  0  0
 25 24  1  0  0  0  0
 35 26  1  0  0  0  0
 32 27  2  0  0  0  0
 36 27  1  0  0  0  0
 28 27  1  0  0  0  0
 29 28  2  0  0  0  0
 30 29  1  0  0  0  0
 31 30  2  0  0  0  0
 32 31  1  0  0  0  0
 33 32  1  0  0  0  0
 34 33  1  0  0  0  0
 35 34  1  0  0  0  0
 36 35  1  0  0  0  0
 44 43  1  0  0  0  0
 43 38  2  0  0  0  0
 39 38  1  0  0  0  0
 40 39  2  0  0  0  0
 41 40  1  0  0  0  0
 45 21  1  0  0  0  0
  1  2  1  0  0  0  0
  2  3  2  0  0  0  0
  3  4  1  0  0  0  0
  4  5  2  0  0  0  0
  5  6  1  0  0  0  0
  1  6  2  0  0  0  0
  4  7  1  0  0  0  0
 42 41  2  0  0  0  0
 43 42  1  0  0  0  0
  3 44  1  0  0  0  0
  8  1  1  0  0  0  0
M  END
>  <cdx:fragmentId>
50522

$$$$
