11464082.cdx
  Mrv1902 05222410182D          

 32 35  0  0  0  0            999 V2000
    7.8733   -8.5708    0.0000 C   0  0  0  0  0  0  0  0  0  0  0  0
    8.2858   -7.8564    0.0000 C   0  0  0  0  0  0  0  0  0  0  0  0
    7.0483   -8.5708    0.0000 O   0  0  0  0  0  0  0  0  0  0  0  0
    8.2858   -9.2853    0.0000 O   0  0  0  0  0  0  0  0  0  0  0  0
    6.5339  -10.6448    0.0000 C   0  0  1  0  0  0  0  0  0  0  0  0
    7.0483   -9.9998    0.0000 C   0  0  0  0  0  0  0  0  0  0  0  0
    7.8733   -9.9998    0.0000 C   0  0  2  0  0  0  0  0  0  0  0  0
    8.3877  -10.6448    0.0000 C   0  0  2  0  0  0  0  0  0  0  0  0
    9.2094  -10.5708    0.0000 C   0  0  0  0  0  0  0  0  0  0  0  0
    9.5336  -11.3294    0.0000 C   0  0  2  0  0  0  0  0  0  0  0  0
    8.9123  -11.8722    0.0000 C   0  0  0  0  0  0  0  0  0  0  0  0
    8.2041  -11.4491    0.0000 C   0  0  1  0  0  0  0  0  0  0  0  0
    7.4608  -11.8071    0.0000 C   0  0  2  0  0  0  0  0  0  0  0  0
    6.7175  -11.4491    0.0000 C   0  0  2  0  0  0  0  0  0  0  0  0
    6.2031  -12.0941    0.0000 C   0  0  0  0  0  0  0  0  0  0  0  0
    5.3781  -12.0941    0.0000 C   0  0  0  0  0  0  0  0  0  0  0  0
    4.8638  -11.4491    0.0000 C   0  0  1  0  0  0  0  0  0  0  0  0
    5.0473  -10.6448    0.0000 C   0  0  2  0  0  0  0  0  0  0  0  0
    5.7906  -10.2868    0.0000 C   0  0  0  0  0  0  0  0  0  0  0  0
    5.4677  -10.5649    0.0000 C   0  0  1  0  0  0  0  0  0  0  0  0
    4.7459   -9.8768    0.0000 C   0  0  0  0  0  0  0  0  0  0  0  0
    7.1787  -12.5823    0.0000 C   0  0  0  0  0  0  0  0  0  0  0  0
    9.2094   -9.7458    0.0000 C   0  0  0  0  0  0  0  0  0  0  0  0
    9.9239  -10.1583    0.0000 C   0  0  0  0  0  0  0  0  0  0  0  0
    5.0552   -9.8504    0.0000 O   0  0  0  0  0  0  0  0  0  0  0  0
    4.2316  -10.5218    0.0000 O   0  0  0  0  0  0  0  0  0  0  0  0
    7.9340  -12.4829    0.0000 O   0  0  0  0  0  0  0  0  0  0  0  0
   10.3379  -11.5130    0.0000 O   0  0  0  0  0  0  0  0  0  0  0  0
    8.7119   -9.8862    0.0000 O   0  0  0  0  0  0  0  0  0  0  0  0
    7.5591  -10.9347    0.0000 H   0  0  0  0  0  0  0  0  0  0  0  0
    6.7586  -12.2731    0.0000 H   0  0  0  0  0  0  0  0  0  0  0  0
    4.0594  -11.6327    0.0000 H   0  0  0  0  0  0  0  0  0  0  0  0
  1  2  1  0  0  0  0
  1  3  2  0  0  0  0
  1  4  1  0  0  0  0
  5  6  1  0  0  0  0
  6  7  1  0  0  0  0
  7  8  1  0  0  0  0
  8  9  1  0  0  0  0
  9 10  1  0  0  0  0
 10 11  1  0  0  0  0
 11 12  1  0  0  0  0
 12 13  1  0  0  0  0
 13 14  1  0  0  0  0
 14 15  1  0  0  0  0
 15 16  1  0  0  0  0
 16 17  1  0  0  0  0
 17 18  1  0  0  0  0
 18 19  1  0  0  0  0
  5 19  1  1  0  0  0
  5 20  1  0  0  0  0
 20 17  1  0  0  0  0
  5 14  1  0  0  0  0
  8 12  1  0  0  0  0
 18 21  1  1  0  0  0
 13 22  1  1  0  0  0
  9 23  1  0  0  0  0
  9 24  1  0  0  0  0
 20 25  1  1  0  0  0
 18 26  1  6  0  0  0
 13 27  1  6  0  0  0
 10 28  1  1  0  0  0
  8 29  1  1  0  0  0
  7  4  1  1  0  0  0
 12 30  1  6  0  0  0
 14 31  1  1  0  0  0
 17 32  1  6  0  0  0
M  END
>  <cdx:groupId>
72540

>  <cdx:fragmentId>
72452

$$$$
