464170.cdx
  Mrv1902 05222410242D          

 26 28  0  0  0  0            999 V2000
    5.2010   -9.5088    0.0000 O   0  0  0  0  0  0  0  0  0  0  0  0
    3.7721   -7.0338    0.0000 O   0  0  0  0  0  0  0  0  0  0  0  0
    8.7734  -10.7463    0.0000 O   0  0  0  0  0  0  0  0  0  0  0  0
   10.9168   -9.5088    0.0000 C   0  0  0  0  0  0  0  0  0  0  0  0
   10.2023   -9.9213    0.0000 O   0  0  0  0  0  0  0  0  0  0  0  0
   10.9168   -8.6838    0.0000 C   0  0  0  0  0  0  0  0  0  0  0  0
   10.2023   -8.2713    0.0000 O   0  0  0  0  0  0  0  0  0  0  0  0
    8.7734   -8.2713    0.0000 C   0  0  0  0  0  0  0  0  0  0  0  0
    9.4878   -8.6838    0.0000 C   0  0  0  0  0  0  0  0  0  0  0  0
    9.4878   -9.5088    0.0000 C   0  0  0  0  0  0  0  0  0  0  0  0
    8.7734   -9.9213    0.0000 C   0  0  0  0  0  0  0  0  0  0  0  0
    8.0589   -9.5088    0.0000 C   0  0  0  0  0  0  0  0  0  0  0  0
    8.0589   -8.6838    0.0000 C   0  0  0  0  0  0  0  0  0  0  0  0
    3.0576   -8.2713    0.0000 C   0  0  0  0  0  0  0  0  0  0  0  0
    3.7721   -8.6838    0.0000 O   0  0  0  0  0  0  0  0  0  0  0  0
    6.6300   -9.5088    0.0000 O   0  0  0  0  0  0  0  0  0  0  0  0
    6.6300   -7.0338    0.0000 O   0  0  0  0  0  0  0  0  0  0  0  0
    5.9155   -7.4463    0.0000 C   0  0  0  0  0  0  0  0  0  0  0  0
    5.2010   -7.0338    0.0000 C   0  0  0  0  0  0  0  0  0  0  0  0
    4.4865   -7.4463    0.0000 C   0  0  0  0  0  0  0  0  0  0  0  0
    4.4865   -8.2713    0.0000 C   0  0  0  0  0  0  0  0  0  0  0  0
    5.2010   -8.6838    0.0000 C   0  0  0  0  0  0  0  0  0  0  0  0
    5.9155   -8.2713    0.0000 C   0  0  0  0  0  0  0  0  0  0  0  0
    6.6300   -8.6838    0.0000 C   0  0  0  0  0  0  0  0  0  0  0  0
    7.3444   -8.2713    0.0000 C   0  0  0  0  0  0  0  0  0  0  0  0
    7.3444   -7.4463    0.0000 C   0  0  0  0  0  0  0  0  0  0  0  0
 22  1  1  0  0  0  0
 20  2  1  0  0  0  0
 25 13  1  0  0  0  0
 11  3  1  0  0  0  0
 10  5  1  0  0  0  0
  5  4  1  0  0  0  0
  9  7  1  0  0  0  0
  7  6  1  0  0  0  0
 13  8  2  0  0  0  0
  9  8  1  0  0  0  0
 10  9  2  0  0  0  0
 11 10  1  0  0  0  0
 12 11  2  0  0  0  0
 13 12  1  0  0  0  0
 21 15  1  0  0  0  0
 15 14  1  0  0  0  0
 24 16  2  0  0  0  0
 26 17  1  0  0  0  0
 18 17  1  0  0  0  0
 23 18  2  0  0  0  0
 19 18  1  0  0  0  0
 20 19  2  0  0  0  0
 21 20  1  0  0  0  0
 22 21  2  0  0  0  0
 23 22  1  0  0  0  0
 24 23  1  0  0  0  0
 25 24  1  0  0  0  0
 26 25  2  0  0  0  0
M  END
>  <cdx:fragmentId>
1337

$$$$
