10464455.cdx
  Mrv1902 05222410202D          

 10  9  0  0  0  0            999 V2000
    8.4647  -14.9237    0.0000 C   0  0  0  0  0  0  0  0  0  0  0  0
    7.7502  -14.5112    0.0000 C   0  0  0  0  0  0  0  0  0  0  0  0
    7.0357  -14.9237    0.0000 C   0  0  0  0  0  0  0  0  0  0  0  0
    6.3213  -14.5112    0.0000 C   0  0  0  0  0  0  0  0  0  0  0  0
    5.6068  -14.9237    0.0000 C   0  0  0  0  0  0  0  0  0  0  0  0
    8.4647  -15.7487    0.0000 O   0  0  0  0  0  0  0  0  0  0  0  0
    9.1792  -14.5112    0.0000 O   0  0  0  0  0  0  0  0  0  0  0  0
    6.3213  -13.6862    0.0000 O   0  0  0  0  0  0  0  0  0  0  0  0
    4.8923  -14.5112    0.0000 O   0  0  0  0  0  0  0  0  0  0  0  0
    9.8936  -14.9237    0.0000 C   0  0  0  0  0  0  0  0  0  0  0  0
  1  2  1  0  0  0  0
  2  3  1  0  0  0  0
  3  4  1  0  0  0  0
  4  5  1  0  0  0  0
  1  6  2  0  0  0  0
  1  7  1  0  0  0  0
  4  8  2  0  0  0  0
  5  9  1  0  0  0  0
  7 10  1  0  0  0  0
M  END
>  <cdx:groupId>
51626

>  <cdx:fragmentId>
51600

$$$$
