465037.cdx
  Mrv1902 05222410272D          

 43 47  0  0  0  0            999 V2000
    6.0258   -9.7900    0.0000 C   0  0  0  0  0  0  0  0  0  0  0  0
    6.0258  -10.6150    0.0000 C   0  0  0  0  0  0  0  0  0  0  0  0
    6.7402  -11.0275    0.0000 C   0  0  0  0  0  0  0  0  0  0  0  0
    7.4547  -10.6150    0.0000 C   0  0  0  0  0  0  0  0  0  0  0  0
    7.4547   -9.7900    0.0000 C   0  0  0  0  0  0  0  0  0  0  0  0
    6.7402   -9.3775    0.0000 C   0  0  0  0  0  0  0  0  0  0  0  0
    8.1692  -11.0275    0.0000 C   0  0  0  0  0  0  0  0  0  0  0  0
    8.8837  -10.6150    0.0000 C   0  0  0  0  0  0  0  0  0  0  0  0
    8.8837   -9.7900    0.0000 C   0  0  0  0  0  0  0  0  0  0  0  0
    8.1692   -9.3775    0.0000 O   0  0  0  0  0  0  0  0  0  0  0  0
    9.5981   -9.3775    0.0000 C   0  0  0  0  0  0  0  0  0  0  0  0
    9.5981   -8.5525    0.0000 C   0  0  0  0  0  0  0  0  0  0  0  0
   10.3126   -9.7900    0.0000 C   0  0  0  0  0  0  0  0  0  0  0  0
   11.0271   -9.3775    0.0000 C   0  0  0  0  0  0  0  0  0  0  0  0
   11.0271   -8.5525    0.0000 C   0  0  0  0  0  0  0  0  0  0  0  0
   10.3126   -8.1400    0.0000 C   0  0  0  0  0  0  0  0  0  0  0  0
    5.3113   -9.3775    0.0000 O   0  0  0  0  0  0  0  0  0  0  0  0
    6.7402  -11.8525    0.0000 O   0  0  0  0  0  0  0  0  0  0  0  0
    8.1692  -11.8525    0.0000 O   0  0  0  0  0  0  0  0  0  0  0  0
   11.7415   -8.1400    0.0000 O   0  0  0  0  0  0  0  0  0  0  0  0
    6.7402   -8.5525    0.0000 C   0  0  2  0  0  0  0  0  0  0  0  0
    7.4547   -8.1400    0.0000 O   0  0  0  0  0  0  0  0  0  0  0  0
    7.4547   -7.3150    0.0000 C   0  0  1  0  0  0  0  0  0  0  0  0
    6.7402   -6.9025    0.0000 C   0  0  2  0  0  0  0  0  0  0  0  0
    6.0258   -7.3150    0.0000 C   0  0  1  0  0  0  0  0  0  0  0  0
    6.0258   -8.1400    0.0000 C   0  0  1  0  0  0  0  0  0  0  0  0
    5.3113   -6.9025    0.0000 O   0  0  0  0  0  0  0  0  0  0  0  0
    8.1692   -6.9025    0.0000 C   0  0  0  0  0  0  0  0  0  0  0  0
    8.1692   -6.0775    0.0000 O   0  0  0  0  0  0  0  0  0  0  0  0
    5.3113   -8.5525    0.0000 O   0  0  0  0  0  0  0  0  0  0  0  0
    6.7402   -6.0775    0.0000 O   0  0  0  0  0  0  0  0  0  0  0  0
    7.4547   -8.9650    0.0000 H   0  0  0  0  0  0  0  0  0  0  0  0
    4.5968   -8.1400    0.0000 C   0  0  2  0  0  0  0  0  0  0  0  0
    4.5968   -7.3150    0.0000 O   0  0  0  0  0  0  0  0  0  0  0  0
    3.8824   -6.9025    0.0000 C   0  0  1  0  0  0  0  0  0  0  0  0
    3.1679   -7.3150    0.0000 C   0  0  2  0  0  0  0  0  0  0  0  0
    3.1679   -8.1400    0.0000 C   0  0  1  0  0  0  0  0  0  0  0  0
    3.8824   -8.5525    0.0000 C   0  0  1  0  0  0  0  0  0  0  0  0
    3.8824   -6.0775    0.0000 C   0  0  0  0  0  0  0  0  0  0  0  0
    2.4534   -8.5525    0.0000 O   0  0  0  0  0  0  0  0  0  0  0  0
    3.8824   -9.3775    0.0000 O   0  0  0  0  0  0  0  0  0  0  0  0
    2.4534   -6.9025    0.0000 O   0  0  0  0  0  0  0  0  0  0  0  0
    3.1679   -5.6650    0.0000 O   0  0  0  0  0  0  0  0  0  0  0  0
  1  2  1  0  0  0  0
  2  3  2  0  0  0  0
  3  4  1  0  0  0  0
  4  5  2  0  0  0  0
  5  6  1  0  0  0  0
  6  1  2  0  0  0  0
  4  7  1  0  0  0  0
  7  8  1  0  0  0  0
  8  9  2  0  0  0  0
  9 10  1  0  0  0  0
 10  5  1  0  0  0  0
  9 11  1  0  0  0  0
 11 12  1  0  0  0  0
 11 13  2  0  0  0  0
 13 14  1  0  0  0  0
 14 15  2  0  0  0  0
 15 16  1  0  0  0  0
 16 12  2  0  0  0  0
  1 17  1  0  0  0  0
  3 18  1  0  0  0  0
  7 19  2  0  0  0  0
 15 20  1  0  0  0  0
  6 21  1  0  0  0  0
 21 22  1  0  0  0  0
 22 23  1  0  0  0  0
 23 24  1  0  0  0  0
 24 25  1  0  0  0  0
 25 26  1  0  0  0  0
 26 21  1  0  0  0  0
 25 27  1  1  0  0  0
 23 28  1  1  0  0  0
 28 29  1  0  0  0  0
 26 30  1  6  0  0  0
 24 31  1  6  0  0  0
 21 32  1  6  0  0  0
 33 30  1  1  0  0  0
 33 34  1  0  0  0  0
 34 35  1  0  0  0  0
 35 36  1  0  0  0  0
 36 37  1  0  0  0  0
 37 38  1  0  0  0  0
 38 33  1  0  0  0  0
 35 39  1  1  0  0  0
 37 40  1  1  0  0  0
 38 41  1  6  0  0  0
 36 42  1  6  0  0  0
 39 43  1  0  0  0  0
M  END
>  <cdx:fragmentId>
5

$$$$
