4651.cdx
  Mrv1902 05222410272D          

 12 12  0  0  0  0            999 V2000
    6.6033   -9.1781    0.0000 C   0  0  0  0  0  0  0  0  0  0  0  0
    6.6033  -10.0031    0.0000 C   0  0  0  0  0  0  0  0  0  0  0  0
    7.3177  -10.4156    0.0000 C   0  0  0  0  0  0  0  0  0  0  0  0
    8.0322  -10.0031    0.0000 C   0  0  0  0  0  0  0  0  0  0  0  0
    8.0322   -9.1781    0.0000 C   0  0  0  0  0  0  0  0  0  0  0  0
    7.3177   -8.7656    0.0000 C   0  0  0  0  0  0  0  0  0  0  0  0
    7.3177   -7.9406    0.0000 C   0  0  0  0  0  0  0  0  0  0  0  0
    6.6033   -7.5281    0.0000 C   0  0  0  0  0  0  0  0  0  0  0  0
    6.6033   -6.7031    0.0000 C   0  0  0  0  0  0  0  0  0  0  0  0
    8.0322   -7.5281    0.0000 C   0  0  0  0  0  0  0  0  0  0  0  0
    8.0322   -6.7031    0.0000 C   0  0  0  0  0  0  0  0  0  0  0  0
    8.7467   -7.9406    0.0000 O   0  0  0  0  0  0  0  0  0  0  0  0
  1  2  1  0  0  0  0
  2  3  1  0  0  0  0
  3  4  1  0  0  0  0
  4  5  1  0  0  0  0
  5  6  1  0  0  0  0
  6  1  1  0  0  0  0
  6  7  1  0  0  0  0
  7  8  1  0  0  0  0
  8  9  2  0  0  0  0
  7 10  1  0  0  0  0
 10 11  1  0  0  0  0
 10 12  2  0  0  0  0
M  END
>  <cdx:fragmentId>
5

$$$$
