465488.cdx
  Mrv1902 05222410232D          

 13 12  0  0  0  0            999 V2000
    4.8369   -4.9739    0.0000 C   0  0  0  0  0  0  0  0  0  0  0  0
    4.1185   -4.5682    0.0000 C   0  0  0  0  0  0  0  0  0  0  0  0
    4.8448   -5.7988    0.0000 O   0  0  0  0  0  0  0  0  0  0  0  0
    6.2736   -5.7852    0.0000 C   0  0  0  0  0  0  0  0  0  0  0  0
    5.5631   -6.2045    0.0000 S   0  0  0  0  0  0  0  0  0  0  0  0
    5.5710   -7.0295    0.0000 C   0  0  0  0  0  0  0  0  0  0  0  0
    4.8605   -7.4488    0.0000 C   0  0  0  0  0  0  0  0  0  0  0  0
    6.9763   -4.5410    0.0000 C   0  0  0  0  0  0  0  0  0  0  0  0
    6.9684   -3.7160    0.0000 O   0  0  0  0  0  0  0  0  0  0  0  0
    5.5474   -4.5546    0.0000 N   0  0  0  0  0  0  0  0  0  0  0  0
    4.8683   -8.2737    0.0000 C   0  0  0  0  0  0  0  0  0  0  0  0
    7.6947   -4.9467    0.0000 O   0  0  0  0  0  0  0  0  0  0  0  0
    6.2658   -4.9603    0.0000 C   0  0  1  0  0  0  0  0  0  0  0  0
 13 10  1  6  0  0  0
 13  4  1  0  0  0  0
 13  8  1  0  0  0  0
  1  2  1  0  0  0  0
  1  3  2  0  0  0  0
  1 10  1  0  0  0  0
  6  7  1  0  0  0  0
  7 11  2  0  0  0  0
  5  6  1  0  0  0  0
  8  9  2  0  0  0  0
  4  5  1  0  0  0  0
  8 12  1  0  0  0  0
M  END
>  <cdx:groupId>
51669

>  <cdx:fragmentId>
51632

$$$$
