465807.cdx
  Mrv1902 05222410272D          

 22 23  0  0  0  0            999 V2000
    8.9318   -8.9263    0.0000 C   0  0  0  0  0  0  0  0  0  0  0  0
    8.9318   -9.7513    0.0000 C   0  0  0  0  0  0  0  0  0  0  0  0
    8.2173  -10.1638    0.0000 C   0  0  0  0  0  0  0  0  0  0  0  0
    7.5028   -9.7513    0.0000 C   0  0  0  0  0  0  0  0  0  0  0  0
    6.7884  -10.1638    0.0000 C   0  0  0  0  0  0  0  0  0  0  0  0
    6.0739   -9.7513    0.0000 C   0  0  0  0  0  0  0  0  0  0  0  0
    6.0739   -8.9263    0.0000 C   0  0  0  0  0  0  0  0  0  0  0  0
    6.7884   -8.5138    0.0000 C   0  0  0  0  0  0  0  0  0  0  0  0
    7.5028   -8.9263    0.0000 C   0  0  0  0  0  0  0  0  0  0  0  0
    8.2173   -8.5138    0.0000 O   0  0  0  0  0  0  0  0  0  0  0  0
    9.6463   -8.5138    0.0000 O   0  0  0  0  0  0  0  0  0  0  0  0
    5.3594   -8.5138    0.0000 O   0  0  0  0  0  0  0  0  0  0  0  0
    4.6450   -8.9263    0.0000 C   0  0  0  0  0  0  0  0  0  0  0  0
    6.7884  -10.9888    0.0000 O   0  0  0  0  0  0  0  0  0  0  0  0
    6.0739  -11.4013    0.0000 C   0  0  0  0  0  0  0  0  0  0  0  0
    6.7884   -7.6888    0.0000 C   0  0  0  0  0  0  0  0  0  0  0  0
    6.0739   -7.2763    0.0000 C   0  0  2  0  0  0  0  0  0  0  0  0
    6.0739   -6.4513    0.0000 C   0  0  0  0  0  0  0  0  0  0  0  0
    6.7884   -6.0388    0.0000 C   0  0  0  0  0  0  0  0  0  0  0  0
    5.3594   -6.0388    0.0000 C   0  0  0  0  0  0  0  0  0  0  0  0
    6.0739   -5.6263    0.0000 O   0  0  0  0  0  0  0  0  0  0  0  0
    5.3594   -7.6888    0.0000 O   0  0  0  0  0  0  0  0  0  0  0  0
  1  2  1  0  0  0  0
  2  3  2  0  0  0  0
  3  4  1  0  0  0  0
  4  5  1  0  0  0  0
  5  6  2  0  0  0  0
  6  7  1  0  0  0  0
  7  8  2  0  0  0  0
  8  9  1  0  0  0  0
  4  9  2  0  0  0  0
  9 10  1  0  0  0  0
  1 10  1  0  0  0  0
  1 11  2  0  0  0  0
 12 13  1  0  0  0  0
  7 12  1  0  0  0  0
 14 15  1  0  0  0  0
  5 14  1  0  0  0  0
 16 17  1  0  0  0  0
 17 18  1  0  0  0  0
 18 19  1  0  0  0  0
 18 20  1  0  0  0  0
 18 21  1  0  0  0  0
 17 22  1  1  0  0  0
  8 16  1  0  0  0  0
M  END
>  <cdx:fragmentId>
5

$$$$
