4660.cdx
  Mrv1902 05222410192D          

 18 18  0  0  0  0            999 V2000
    3.2208   -6.6825    0.0000 C   0  0  0  0  0  0  0  0  0  0  0  0
    3.2208   -7.5075    0.0000 C   0  0  0  0  0  0  0  0  0  0  0  0
    3.9352   -7.9200    0.0000 C   0  0  0  0  0  0  0  0  0  0  0  0
    4.6497   -7.5075    0.0000 C   0  0  0  0  0  0  0  0  0  0  0  0
    4.6497   -6.6825    0.0000 C   0  0  0  0  0  0  0  0  0  0  0  0
    3.9352   -6.2700    0.0000 C   0  0  0  0  0  0  0  0  0  0  0  0
    2.5063   -7.9200    0.0000 O   0  0  0  0  0  0  0  0  0  0  0  0
    5.3716   -6.2494    0.0000 C   0  0  0  0  0  0  0  0  0  0  0  0
    6.0861   -6.6619    0.0000 C   0  0  0  0  0  0  0  0  0  0  0  0
    6.8005   -6.2494    0.0000 C   0  0  0  0  0  0  0  0  0  0  0  0
    7.5150   -6.6619    0.0000 C   0  0  0  0  0  0  0  0  0  0  0  0
    8.2295   -6.2494    0.0000 C   0  0  0  0  0  0  0  0  0  0  0  0
    8.9440   -6.6619    0.0000 C   0  0  0  0  0  0  0  0  0  0  0  0
    9.6584   -6.2494    0.0000 C   0  0  0  0  0  0  0  0  0  0  0  0
    6.8005   -5.4244    0.0000 O   0  0  0  0  0  0  0  0  0  0  0  0
   10.3729   -6.6619    0.0000 C   0  0  0  0  0  0  0  0  0  0  0  0
   11.0874   -6.2494    0.0000 C   0  0  0  0  0  0  0  0  0  0  0  0
   11.8018   -6.6619    0.0000 C   0  0  0  0  0  0  0  0  0  0  0  0
  1  2  2  0  0  0  0
  2  3  1  0  0  0  0
  3  4  2  0  0  0  0
  4  5  1  0  0  0  0
  5  6  2  0  0  0  0
  6  1  1  0  0  0  0
  2  7  1  0  0  0  0
  8  9  1  0  0  0  0
  9 10  1  0  0  0  0
 10 11  1  0  0  0  0
 11 12  2  0  0  0  0
 12 13  1  0  0  0  0
 13 14  1  0  0  0  0
  8  5  1  0  0  0  0
 10 15  1  0  0  0  0
 14 16  1  0  0  0  0
 16 17  1  0  0  0  0
 17 18  1  0  0  0  0
M  END
>  <cdx:fragmentId>
5

$$$$
