466192.cdx
  Mrv1902 05222410212D          

 19 20  0  0  0  0            999 V2000
    8.7749   -5.9932    0.0000 C   0  0  0  0  0  0  0  0  0  0  0  0
    9.2599   -5.3258    0.0000 C   0  0  0  0  0  0  0  0  0  0  0  0
    8.7749   -4.6583    0.0000 C   0  0  2  0  0  0  0  0  0  0  0  0
    7.9903   -4.9133    0.0000 C   0  0  1  0  0  0  0  0  0  0  0  0
    7.3453   -4.3989    0.0000 C   0  0  0  0  0  0  0  0  0  0  0  0
    6.5410   -4.5825    0.0000 C   0  0  0  0  0  0  0  0  0  0  0  0
    6.1830   -5.3258    0.0000 C   0  0  0  0  0  0  0  0  0  0  0  0
    6.5410   -6.0691    0.0000 C   0  0  0  0  0  0  0  0  0  0  0  0
    7.3453   -6.2527    0.0000 C   0  0  0  0  0  0  0  0  0  0  0  0
    7.9903   -5.7383    0.0000 C   0  0  2  0  0  0  0  0  0  0  0  0
    5.3580   -5.3258    0.0000 O   0  0  0  0  0  0  0  0  0  0  0  0
    6.3280   -3.1695    0.0000 C   0  0  0  0  0  0  0  0  0  0  0  0
    6.0266   -3.9375    0.0000 C   0  0  0  0  0  0  0  0  0  0  0  0
    5.2108   -4.0604    0.0000 C   0  0  0  0  0  0  0  0  0  0  0  0
    7.5289   -7.0570    0.0000 C   0  0  0  0  0  0  0  0  0  0  0  0
    9.3880   -4.1063    0.0000 C   0  0  0  0  0  0  0  0  0  0  0  0
    8.6034   -3.8514    0.0000 O   0  0  0  0  0  0  0  0  0  0  0  0
    8.1376   -4.1015    0.0000 H   0  0  0  0  0  0  0  0  0  0  0  0
    8.1376   -6.5500    0.0000 H   0  0  0  0  0  0  0  0  0  0  0  0
  1  2  1  0  0  0  0
  2  3  1  0  0  0  0
  3  4  1  0  0  0  0
  4  5  1  0  0  0  0
  5  6  1  0  0  0  0
  6  7  1  0  0  0  0
  7  8  1  0  0  0  0
  8  9  2  0  0  0  0
  9 10  1  0  0  0  0
  1 10  1  0  0  0  0
  4 10  1  0  0  0  0
  7 11  2  0  0  0  0
 12 13  1  0  0  0  0
 13 14  1  0  0  0  0
  6 13  2  0  0  0  0
  9 15  1  0  0  0  0
  3 16  1  6  0  0  0
  3 17  1  1  0  0  0
  4 18  1  1  0  0  0
 10 19  1  6  0  0  0
M  END
>  <cdx:fragmentId>
43781

$$$$
