4666.cdx
  Mrv1902 05222410202D          

 64 70  0  0  0  0            999 V2000
    4.3429  -12.1215    0.0000 C   0  0  0  0  0  0  0  0  0  0  0  0
    4.0272  -12.8837    0.0000 C   0  0  0  0  0  0  0  0  0  0  0  0
    4.5294  -13.5383    0.0000 C   0  0  0  0  0  0  0  0  0  0  0  0
    4.2137  -14.3005    0.0000 C   0  0  0  0  0  0  0  0  0  0  0  0
    3.3958  -14.4081    0.0000 C   0  0  0  0  0  0  0  0  0  0  0  0
    2.8935  -13.7536    0.0000 C   0  0  0  0  0  0  0  0  0  0  0  0
    3.2093  -12.9914    0.0000 C   0  0  0  0  0  0  0  0  0  0  0  0
    5.1609  -12.0139    0.0000 O   0  0  0  0  0  0  0  0  0  0  0  0
    3.8407  -11.4670    0.0000 O   0  0  0  0  0  0  0  0  0  0  0  0
    5.0761  -10.4762    0.0000 C   0  0  2  0  0  0  0  0  0  0  0  0
    4.2511  -10.4762    0.0000 C   0  0  2  0  0  0  0  0  0  0  0  0
    3.6678   -9.8928    0.0000 C   0  0  2  0  0  0  0  0  0  0  0  0
    2.9533  -10.3053    0.0000 C   0  0  2  0  0  0  0  0  0  0  0  0
    2.5408  -11.0198    0.0000 C   0  0  0  0  0  0  0  0  0  0  0  0
    1.8263  -10.6073    0.0000 O   0  0  0  0  0  0  0  0  0  0  0  0
    2.2388   -9.8928    0.0000 C   0  0  2  0  0  0  0  0  0  0  0  0
    2.2388   -9.0678    0.0000 C   0  0  0  0  0  0  0  0  0  0  0  0
    2.9533   -8.6553    0.0000 C   0  0  1  0  0  0  0  0  0  0  0  0
    3.6678   -9.0678    0.0000 C   0  0  1  0  0  0  0  0  0  0  0  0
    4.2511   -8.4844    0.0000 C   0  0  0  0  0  0  0  0  0  0  0  0
    5.0761   -8.4844    0.0000 C   0  0  1  0  0  0  0  0  0  0  0  0
    5.6595   -9.0678    0.0000 C   0  0  0  0  0  0  0  0  0  0  0  0
    6.3797   -9.4259    0.0000 C   0  0  0  0  0  0  0  0  0  0  0  0
    6.4664  -10.2256    0.0000 C   0  0  2  0  0  0  0  0  0  0  0  0
    5.8397  -10.7298    0.0000 C   0  0  0  0  0  0  0  0  0  0  0  0
    5.6595   -9.8928    0.0000 C   0  0  0  0  0  0  0  0  0  0  0  0
    3.9354   -7.7222    0.0000 O   0  0  0  0  0  0  0  0  0  0  0  0
    6.4774   -9.7851    0.0000 C   0  0  0  0  0  0  0  0  0  0  0  0
    6.1617  -10.5473    0.0000 C   0  0  0  0  0  0  0  0  0  0  0  0
    7.0942   -9.0134    0.0000 C   0  0  0  0  0  0  0  0  0  0  0  0
    3.5601   -8.2499    0.0000 C   0  0  0  0  0  0  0  0  0  0  0  0
    2.9533   -7.8303    0.0000 O   0  0  0  0  0  0  0  0  0  0  0  0
    4.9444  -11.2906    0.0000 O   0  0  0  0  0  0  0  0  0  0  0  0
    7.2286  -10.5413    0.0000 O   0  0  0  0  0  0  0  0  0  0  0  0
    7.8831  -10.0391    0.0000 C   0  0  0  0  0  0  0  0  0  0  0  0
    8.6453  -10.3548    0.0000 C   0  0  1  0  0  0  0  0  0  0  0  0
    9.2999   -9.8526    0.0000 C   0  0  2  0  0  0  0  0  0  0  0  0
    7.7755   -9.2212    0.0000 O   0  0  0  0  0  0  0  0  0  0  0  0
    9.1922   -9.0346    0.0000 C   0  0  0  0  0  0  0  0  0  0  0  0
    8.4300   -8.7189    0.0000 C   0  0  0  0  0  0  0  0  0  0  0  0
    8.3223   -7.9010    0.0000 C   0  0  0  0  0  0  0  0  0  0  0  0
    8.9768   -7.3988    0.0000 C   0  0  0  0  0  0  0  0  0  0  0  0
    9.7390   -7.7145    0.0000 C   0  0  0  0  0  0  0  0  0  0  0  0
    9.8467   -8.5324    0.0000 C   0  0  0  0  0  0  0  0  0  0  0  0
    8.7530  -11.1728    0.0000 O   0  0  0  0  0  0  0  0  0  0  0  0
   10.7166   -9.6661    0.0000 C   0  0  0  0  0  0  0  0  0  0  0  0
   11.4788   -9.9818    0.0000 C   0  0  0  0  0  0  0  0  0  0  0  0
   12.1333   -9.4796    0.0000 C   0  0  0  0  0  0  0  0  0  0  0  0
   12.8955   -9.7953    0.0000 C   0  0  0  0  0  0  0  0  0  0  0  0
   13.0032  -10.6132    0.0000 C   0  0  0  0  0  0  0  0  0  0  0  0
   12.3487  -11.1154    0.0000 C   0  0  0  0  0  0  0  0  0  0  0  0
   11.5865  -10.7997    0.0000 C   0  0  0  0  0  0  0  0  0  0  0  0
   10.6089   -8.8481    0.0000 O   0  0  0  0  0  0  0  0  0  0  0  0
   10.0621  -10.1683    0.0000 N   0  0  0  0  0  0  0  0  0  0  0  0
    5.3918   -7.7222    0.0000 O   0  0  0  0  0  0  0  0  0  0  0  0
    6.2098   -7.6146    0.0000 C   0  0  0  0  0  0  0  0  0  0  0  0
    6.5255   -6.8524    0.0000 O   0  0  0  0  0  0  0  0  0  0  0  0
    6.7120   -8.2691    0.0000 C   0  0  0  0  0  0  0  0  0  0  0  0
    3.4265  -10.9811    0.0000 O   0  0  0  0  0  0  0  0  0  0  0  0
    3.0778  -11.7288    0.0000 C   0  0  0  0  0  0  0  0  0  0  0  0
    3.5510  -12.4046    0.0000 O   0  0  0  0  0  0  0  0  0  0  0  0
    2.2560  -11.8007    0.0000 C   0  0  0  0  0  0  0  0  0  0  0  0
    2.9533   -9.4803    0.0000 H   0  0  0  0  0  0  0  0  0  0  0  0
    1.4419   -9.6793    0.0000 H   0  0  0  0  0  0  0  0  0  0  0  0
  1  2  1  0  0  0  0
  2  3  1  0  0  0  0
  3  4  2  0  0  0  0
  4  5  1  0  0  0  0
  5  6  2  0  0  0  0
  6  7  1  0  0  0  0
  2  7  2  0  0  0  0
  1  8  2  0  0  0  0
  1  9  1  0  0  0  0
 10 11  1  0  0  0  0
 11 12  1  0  0  0  0
 12 13  1  0  0  0  0
 13 14  1  0  0  0  0
 14 15  1  0  0  0  0
 15 16  1  0  0  0  0
 16 17  1  0  0  0  0
 17 18  1  0  0  0  0
 18 19  1  0  0  0  0
 19 20  1  0  0  0  0
 20 21  1  0  0  0  0
 21 22  1  0  0  0  0
 22 23  2  0  0  0  0
 23 24  1  0  0  0  0
 24 25  1  0  0  0  0
 10 25  1  0  0  0  0
 10 26  1  6  0  0  0
 26 22  1  0  0  0  0
 12 19  1  0  0  0  0
 13 16  1  0  0  0  0
 20 27  2  0  0  0  0
 26 28  1  0  0  0  0
 26 29  1  0  0  0  0
 23 30  1  0  0  0  0
 19 31  1  6  0  0  0
 18 32  1  6  0  0  0
 10 33  1  0  0  0  0
 35 36  1  0  0  0  0
 36 37  1  0  0  0  0
 35 38  2  0  0  0  0
 39 40  1  0  0  0  0
 40 41  2  0  0  0  0
 41 42  1  0  0  0  0
 42 43  2  0  0  0  0
 43 44  1  0  0  0  0
 39 44  2  0  0  0  0
 37 39  1  0  0  0  0
 36 45  1  1  0  0  0
 46 47  1  0  0  0  0
 47 48  1  0  0  0  0
 48 49  2  0  0  0  0
 49 50  1  0  0  0  0
 50 51  2  0  0  0  0
 51 52  1  0  0  0  0
 47 52  2  0  0  0  0
 46 53  2  0  0  0  0
 46 54  1  0  0  0  0
 37 54  1  6  0  0  0
 34 35  1  0  0  0  0
 24 34  1  1  0  0  0
 56 57  2  0  0  0  0
 56 58  1  0  0  0  0
 55 56  1  0  0  0  0
 21 55  1  6  0  0  0
 60 61  2  0  0  0  0
 60 62  1  0  0  0  0
 59 60  1  0  0  0  0
 13 59  1  1  0  0  0
 11  9  1  1  0  0  0
 12 63  1  1  0  0  0
 16 64  1  1  0  0  0
M  END
>  <cdx:fragmentId>
279

$$$$
