4667.cdx
  Mrv1902 05222410202D          

 18 17  0  0  0  0            999 V2000
    2.5096   -7.0546    0.0000 C   0  0  0  0  0  0  0  0  0  0  0  0
    3.2240   -6.6421    0.0000 C   0  0  0  0  0  0  0  0  0  0  0  0
    3.9385   -7.0546    0.0000 C   0  0  0  0  0  0  0  0  0  0  0  0
    4.6530   -6.6421    0.0000 C   0  0  0  0  0  0  0  0  0  0  0  0
    5.3674   -7.0546    0.0000 C   0  0  0  0  0  0  0  0  0  0  0  0
    6.0819   -6.6421    0.0000 C   0  0  0  0  0  0  0  0  0  0  0  0
    6.7964   -7.0546    0.0000 C   0  0  0  0  0  0  0  0  0  0  0  0
    7.5108   -6.6421    0.0000 C   0  0  0  0  0  0  0  0  0  0  0  0
    8.2253   -7.0546    0.0000 C   0  0  0  0  0  0  0  0  0  0  0  0
    8.9398   -6.6421    0.0000 C   0  0  0  0  0  0  0  0  0  0  0  0
    9.6543   -7.0546    0.0000 C   0  0  0  0  0  0  0  0  0  0  0  0
   10.3687   -6.6421    0.0000 C   0  0  0  0  0  0  0  0  0  0  0  0
   11.0832   -7.0546    0.0000 C   0  0  0  0  0  0  0  0  0  0  0  0
   11.7977   -6.6421    0.0000 C   0  0  0  0  0  0  0  0  0  0  0  0
   12.5121   -7.0546    0.0000 C   0  0  0  0  0  0  0  0  0  0  0  0
   13.2266   -6.6421    0.0000 C   0  0  0  0  0  0  0  0  0  0  0  0
    2.5096   -7.8796    0.0000 O   0  0  0  0  0  0  0  0  0  0  0  0
    1.7951   -6.6421    0.0000 O   0  0  0  0  0  0  0  0  0  0  0  0
  1  2  1  0  0  0  0
  2  3  1  0  0  0  0
  3  4  1  0  0  0  0
  4  5  1  0  0  0  0
  5  6  1  0  0  0  0
  6  7  1  0  0  0  0
  7  8  1  0  0  0  0
  8  9  1  0  0  0  0
  9 10  2  0  0  0  0
 10 11  1  0  0  0  0
 11 12  1  0  0  0  0
 12 13  1  0  0  0  0
 13 14  1  0  0  0  0
 14 15  1  0  0  0  0
 15 16  1  0  0  0  0
  1 17  2  0  0  0  0
  1 18  1  0  0  0  0
M  END
>  <cdx:groupId>
86

>  <cdx:fragmentId>
87

$$$$
