10466745.cdx
  Mrv1902 05222410222D          

 19 20  0  0  0  0            999 V2000
    6.4073  -15.9215    0.0000 C   0  0  0  0  0  0  0  0  0  0  0  0
    5.6003  -16.0930    0.0000 C   0  0  0  0  0  0  0  0  0  0  0  0
    6.6622  -15.1369    0.0000 C   0  0  1  0  0  0  0  0  0  0  0  0
    6.1773  -14.4695    0.0000 C   0  0  0  0  0  0  0  0  0  0  0  0
    6.6622  -13.8020    0.0000 C   0  0  0  0  0  0  0  0  0  0  0  0
    7.4468  -14.0570    0.0000 C   0  0  1  0  0  0  0  0  0  0  0  0
    8.1613  -13.6445    0.0000 C   0  0  2  0  0  0  0  0  0  0  0  0
    8.8758  -14.0570    0.0000 C   0  0  0  0  0  0  0  0  0  0  0  0
    8.8758  -14.8820    0.0000 C   0  0  0  0  0  0  0  0  0  0  0  0
    8.1613  -15.2945    0.0000 C   0  0  2  0  0  0  0  0  0  0  0  0
    7.4468  -14.8820    0.0000 C   0  0  2  0  0  0  0  0  0  0  0  0
    7.4468  -16.5320    0.0000 C   0  0  0  0  0  0  0  0  0  0  0  0
    8.1613  -16.1195    0.0000 C   0  0  0  0  0  0  0  0  0  0  0  0
    8.8758  -16.5320    0.0000 C   0  0  0  0  0  0  0  0  0  0  0  0
    8.5738  -12.9300    0.0000 C   0  0  0  0  0  0  0  0  0  0  0  0
    7.7488  -12.9300    0.0000 O   0  0  0  0  0  0  0  0  0  0  0  0
    6.9907  -16.5049    0.0000 O   0  0  0  0  0  0  0  0  0  0  0  0
    7.3606  -13.2365    0.0000 H   0  0  0  0  0  0  0  0  0  0  0  0
    7.3606  -15.7024    0.0000 H   0  0  0  0  0  0  0  0  0  0  0  0
  1  2  1  0  0  0  0
  3  4  1  0  0  0  0
  4  5  1  0  0  0  0
  5  6  1  0  0  0  0
  6  7  1  0  0  0  0
  7  8  1  0  0  0  0
  8  9  1  0  0  0  0
  9 10  1  0  0  0  0
 10 11  1  0  0  0  0
  3 11  1  0  0  0  0
  6 11  1  0  0  0  0
 12 13  1  0  0  0  0
 13 14  1  0  0  0  0
 10 13  1  1  0  0  0
  7 15  1  1  0  0  0
  7 16  1  6  0  0  0
  3  1  1  1  0  0  0
  1 17  2  0  0  0  0
  6 18  1  6  0  0  0
 11 19  1  1  0  0  0
M  END
>  <cdx:groupId>
51732

>  <cdx:fragmentId>
51681

$$$$
