4669.cdx
  Mrv1902 05222410272D          

 14 14  0  0  0  0            999 V2000
    6.0258   -7.3219    0.0000 C   0  0  0  0  0  0  0  0  0  0  0  0
    6.0258   -8.1469    0.0000 C   0  0  0  0  0  0  0  0  0  0  0  0
    6.7402   -8.5594    0.0000 C   0  0  0  0  0  0  0  0  0  0  0  0
    7.4547   -8.1469    0.0000 C   0  0  0  0  0  0  0  0  0  0  0  0
    7.4547   -7.3219    0.0000 C   0  0  0  0  0  0  0  0  0  0  0  0
    6.7402   -6.9094    0.0000 C   0  0  0  0  0  0  0  0  0  0  0  0
    5.3113   -6.9094    0.0000 O   0  0  0  0  0  0  0  0  0  0  0  0
    6.0258   -6.4969    0.0000 C   0  0  0  0  0  0  0  0  0  0  0  0
    5.3113   -6.0844    0.0000 C   0  0  0  0  0  0  0  0  0  0  0  0
    5.3113   -8.5594    0.0000 O   0  0  0  0  0  0  0  0  0  0  0  0
    6.7402   -9.3844    0.0000 O   0  0  0  0  0  0  0  0  0  0  0  0
    8.1692   -6.9094    0.0000 C   0  0  0  0  0  0  0  0  0  0  0  0
    8.8837   -7.3219    0.0000 O   0  0  0  0  0  0  0  0  0  0  0  0
    8.1692   -6.0844    0.0000 O   0  0  0  0  0  0  0  0  0  0  0  0
  1  2  1  0  0  0  0
  2  3  2  0  0  0  0
  3  4  1  0  0  0  0
  4  5  2  0  0  0  0
  5  6  1  0  0  0  0
  6  1  1  0  0  0  0
  1  7  1  0  0  0  0
  1  8  1  0  0  0  0
  8  9  1  0  0  0  0
  2 10  1  0  0  0  0
  3 11  1  0  0  0  0
  5 12  1  0  0  0  0
 12 13  1  0  0  0  0
 12 14  2  0  0  0  0
M  END
>  <cdx:fragmentId>
5

$$$$
