101467043.cdx
  Mrv1902 05222410252D          

 40 39  0  0  0  0            999 V2000
    0.0096   -5.2721    0.0000 C   0  0  0  0  0  0  0  0  0  0  0  0
    0.7241   -4.8596    0.0000 C   0  0  0  0  0  0  0  0  0  0  0  0
    1.4386   -5.2721    0.0000 C   0  0  0  0  0  0  0  0  0  0  0  0
    1.4386   -6.0971    0.0000 C   0  0  0  0  0  0  0  0  0  0  0  0
    2.1530   -6.5096    0.0000 C   0  0  0  0  0  0  0  0  0  0  0  0
    2.1530   -7.3346    0.0000 C   0  0  0  0  0  0  0  0  0  0  0  0
    2.8675   -7.7471    0.0000 C   0  0  0  0  0  0  0  0  0  0  0  0
    3.5820   -7.3346    0.0000 C   0  0  0  0  0  0  0  0  0  0  0  0
    4.2965   -7.7471    0.0000 C   0  0  0  0  0  0  0  0  0  0  0  0
    5.0109   -7.3346    0.0000 C   0  0  0  0  0  0  0  0  0  0  0  0
    5.7254   -7.7471    0.0000 C   0  0  0  0  0  0  0  0  0  0  0  0
    5.7254   -8.5721    0.0000 C   0  0  0  0  0  0  0  0  0  0  0  0
    6.4399   -8.9846    0.0000 C   0  0  0  0  0  0  0  0  0  0  0  0
    6.4399   -9.8096    0.0000 C   0  0  0  0  0  0  0  0  0  0  0  0
    7.1543  -10.2221    0.0000 C   0  0  0  0  0  0  0  0  0  0  0  0
    7.8688   -9.8096    0.0000 C   0  0  0  0  0  0  0  0  0  0  0  0
    8.6938   -9.8096    0.0000 C   0  0  0  0  0  0  0  0  0  0  0  0
    9.4083  -10.2221    0.0000 C   0  0  0  0  0  0  0  0  0  0  0  0
   10.1227   -9.8096    0.0000 C   0  0  0  0  0  0  0  0  0  0  0  0
   10.8372  -10.2221    0.0000 C   0  0  0  0  0  0  0  0  0  0  0  0
   11.5517   -9.8096    0.0000 C   0  0  0  0  0  0  0  0  0  0  0  0
   12.2662  -10.2221    0.0000 C   0  0  0  0  0  0  0  0  0  0  0  0
   12.9806   -9.8096    0.0000 C   0  0  0  0  0  0  0  0  0  0  0  0
   13.6951  -10.2221    0.0000 C   0  0  0  0  0  0  0  0  0  0  0  0
   14.4096   -9.8096    0.0000 C   0  0  0  0  0  0  0  0  0  0  0  0
   15.1240  -10.2221    0.0000 C   0  0  0  0  0  0  0  0  0  0  0  0
   15.8385   -9.8096    0.0000 C   0  0  0  0  0  0  0  0  0  0  0  0
   16.5530  -10.2221    0.0000 C   0  0  0  0  0  0  0  0  0  0  0  0
   17.2675   -9.8096    0.0000 C   0  0  0  0  0  0  0  0  0  0  0  0
   17.9819  -10.2221    0.0000 C   0  0  0  0  0  0  0  0  0  0  0  0
   18.6964   -9.8096    0.0000 C   0  0  0  0  0  0  0  0  0  0  0  0
   18.6964   -8.9846    0.0000 C   0  0  0  0  0  0  0  0  0  0  0  0
   19.4109  -10.2221    0.0000 C   0  0  0  0  0  0  0  0  0  0  0  0
   15.8385   -8.9846    0.0000 C   0  0  0  0  0  0  0  0  0  0  0  0
   12.9806   -8.9846    0.0000 C   0  0  0  0  0  0  0  0  0  0  0  0
   10.1227   -8.9846    0.0000 C   0  0  0  0  0  0  0  0  0  0  0  0
    5.7254  -10.2221    0.0000 C   0  0  0  0  0  0  0  0  0  0  0  0
    5.0109   -6.5096    0.0000 C   0  0  0  0  0  0  0  0  0  0  0  0
    1.4386   -7.7471    0.0000 C   0  0  0  0  0  0  0  0  0  0  0  0
    0.7241   -4.0346    0.0000 C   0  0  0  0  0  0  0  0  0  0  0  0
  1  2  1  0  0  0  0
  2  3  2  0  0  0  0
  3  4  1  0  0  0  0
  4  5  1  0  0  0  0
  5  6  1  0  0  0  0
  6  7  2  0  0  0  0
  7  8  1  0  0  0  0
  8  9  2  0  0  0  0
  9 10  1  0  0  0  0
 10 11  2  0  0  0  0
 11 12  1  0  0  0  0
 12 13  2  0  0  0  0
 13 14  1  0  0  0  0
 14 15  2  0  0  0  0
 15 16  1  0  0  0  0
 16 17  2  0  0  0  0
 17 18  1  0  0  0  0
 18 19  2  0  0  0  0
 19 20  1  0  0  0  0
 20 21  2  0  0  0  0
 21 22  1  0  0  0  0
 22 23  2  0  0  0  0
 23 24  1  0  0  0  0
 24 25  2  0  0  0  0
 25 26  1  0  0  0  0
 26 27  2  0  0  0  0
 27 28  1  0  0  0  0
 28 29  1  0  0  0  0
 29 30  1  0  0  0  0
 30 31  2  0  0  0  0
 31 32  1  0  0  0  0
 31 33  1  0  0  0  0
 27 34  1  0  0  0  0
 23 35  1  0  0  0  0
 19 36  1  0  0  0  0
 14 37  1  0  0  0  0
 10 38  1  0  0  0  0
  6 39  1  0  0  0  0
  2 40  1  0  0  0  0
M  END
>  <cdx:groupId>
245926

>  <cdx:fragmentId>
245810

$$$$
