4670.cdx
  Mrv1902 05222410192D          

 50 53  0  0  0  0            999 V2000
    7.3171   -7.6530    0.0000 C   0  0  2  0  0  0  0  0  0  0  0  0
    6.6020   -8.0644    0.0000 C   0  0  0  0  0  0  0  0  0  0  0  0
    6.6007   -8.8894    0.0000 C   0  0  2  0  0  0  0  0  0  0  0  0
    7.3145   -9.3030    0.0000 C   0  0  1  0  0  0  0  0  0  0  0  0
    8.0297   -8.8916    0.0000 C   0  0  1  0  0  0  0  0  0  0  0  0
    8.0309   -8.0666    0.0000 C   0  0  0  0  0  0  0  0  0  0  0  0
    5.8856   -9.3008    0.0000 O   0  0  0  0  0  0  0  0  0  0  0  0
    6.9046   -6.9385    0.0000 O   0  0  0  0  0  0  0  0  0  0  0  0
    7.7296   -6.9385    0.0000 C   0  0  0  0  0  0  0  0  0  0  0  0
    7.3171   -6.2241    0.0000 O   0  0  0  0  0  0  0  0  0  0  0  0
    8.5546   -6.9385    0.0000 O   0  0  0  0  0  0  0  0  0  0  0  0
    8.7435   -9.3052    0.0000 O   0  0  0  0  0  0  0  0  0  0  0  0
    7.3133  -10.1280    0.0000 O   0  0  0  0  0  0  0  0  0  0  0  0
    9.4586   -8.8938    0.0000 C   0  0  0  0  0  0  0  0  0  0  0  0
   10.1724   -9.3074    0.0000 C   0  0  0  0  0  0  0  0  0  0  0  0
    9.4599   -8.0688    0.0000 O   0  0  0  0  0  0  0  0  0  0  0  0
   10.8875   -8.8961    0.0000 C   0  0  0  0  0  0  0  0  0  0  0  0
   11.6014   -9.3097    0.0000 C   0  0  0  0  0  0  0  0  0  0  0  0
   11.5994  -10.1347    0.0000 C   0  0  0  0  0  0  0  0  0  0  0  0
   12.3130  -10.5488    0.0000 C   0  0  0  0  0  0  0  0  0  0  0  0
   13.0284  -10.1347    0.0000 C   0  0  0  0  0  0  0  0  0  0  0  0
   13.0284   -9.3097    0.0000 C   0  0  0  0  0  0  0  0  0  0  0  0
   12.3130   -8.8955    0.0000 C   0  0  0  0  0  0  0  0  0  0  0  0
   13.7431   -8.8976    0.0000 O   0  0  0  0  0  0  0  0  0  0  0  0
   13.7431  -10.5467    0.0000 O   0  0  0  0  0  0  0  0  0  0  0  0
    6.5982  -10.5394    0.0000 C   0  0  0  0  0  0  0  0  0  0  0  0
    5.8843  -10.1258    0.0000 O   0  0  0  0  0  0  0  0  0  0  0  0
    6.5969  -11.3644    0.0000 C   0  0  0  0  0  0  0  0  0  0  0  0
    5.8818  -11.7758    0.0000 C   0  0  0  0  0  0  0  0  0  0  0  0
    5.8805  -12.6008    0.0000 C   0  0  0  0  0  0  0  0  0  0  0  0
    5.1663  -13.0138    0.0000 C   0  0  0  0  0  0  0  0  0  0  0  0
    5.1663  -13.8388    0.0000 C   0  0  0  0  0  0  0  0  0  0  0  0
    5.8805  -14.2508    0.0000 C   0  0  0  0  0  0  0  0  0  0  0  0
    6.5946  -13.8388    0.0000 C   0  0  0  0  0  0  0  0  0  0  0  0
    6.5946  -13.0138    0.0000 C   0  0  0  0  0  0  0  0  0  0  0  0
    5.8805  -15.0758    0.0000 O   0  0  0  0  0  0  0  0  0  0  0  0
    4.4519  -14.2515    0.0000 O   0  0  0  0  0  0  0  0  0  0  0  0
    5.1718   -8.8872    0.0000 C   0  0  0  0  0  0  0  0  0  0  0  0
    4.4567   -9.2986    0.0000 C   0  0  0  0  0  0  0  0  0  0  0  0
    5.1731   -8.0622    0.0000 O   0  0  0  0  0  0  0  0  0  0  0  0
    3.7428   -8.8850    0.0000 C   0  0  0  0  0  0  0  0  0  0  0  0
    3.0277   -9.2964    0.0000 C   0  0  0  0  0  0  0  0  0  0  0  0
    2.3145   -8.8816    0.0000 C   0  0  0  0  0  0  0  0  0  0  0  0
    1.5988   -9.2964    0.0000 C   0  0  0  0  0  0  0  0  0  0  0  0
    1.5988  -10.1214    0.0000 C   0  0  0  0  0  0  0  0  0  0  0  0
    2.3145  -10.5361    0.0000 C   0  0  0  0  0  0  0  0  0  0  0  0
    3.0277  -10.1214    0.0000 C   0  0  0  0  0  0  0  0  0  0  0  0
    0.8840   -8.8844    0.0000 O   0  0  0  0  0  0  0  0  0  0  0  0
    0.8840  -10.5333    0.0000 O   0  0  0  0  0  0  0  0  0  0  0  0
    0.1698   -9.2975    0.0000 C   0  0  0  0  0  0  0  0  0  0  0  0
  1  2  1  0  0  0  0
  2  3  1  0  0  0  0
  3  4  1  0  0  0  0
  4  5  1  0  0  0  0
  5  6  1  0  0  0  0
  1  6  1  0  0  0  0
  5 12  1  1  0  0  0
  4 13  1  1  0  0  0
  3  7  1  6  0  0  0
  1  8  1  1  0  0  0
  1  9  1  0  0  0  0
  9 10  2  0  0  0  0
  9 11  1  0  0  0  0
 12 14  1  0  0  0  0
 14 15  1  0  0  0  0
 14 16  2  0  0  0  0
 15 17  2  0  0  0  0
 17 18  1  0  0  0  0
 18 19  2  0  0  0  0
 19 20  1  0  0  0  0
 20 21  2  0  0  0  0
 21 22  1  0  0  0  0
 22 23  2  0  0  0  0
 23 18  1  0  0  0  0
 22 24  1  0  0  0  0
 21 25  1  0  0  0  0
 13 26  1  0  0  0  0
 26 27  2  0  0  0  0
 26 28  1  0  0  0  0
 28 29  2  0  0  0  0
 29 30  1  0  0  0  0
 30 31  2  0  0  0  0
 31 32  1  0  0  0  0
 32 33  2  0  0  0  0
 33 34  1  0  0  0  0
 34 35  2  0  0  0  0
 35 30  1  0  0  0  0
 33 36  1  0  0  0  0
 32 37  1  0  0  0  0
  7 38  1  0  0  0  0
 38 39  1  0  0  0  0
 38 40  2  0  0  0  0
 39 41  2  0  0  0  0
 41 42  1  0  0  0  0
 42 43  2  0  0  0  0
 43 44  1  0  0  0  0
 44 45  2  0  0  0  0
 45 46  1  0  0  0  0
 46 47  2  0  0  0  0
 47 42  1  0  0  0  0
 44 48  1  0  0  0  0
 45 49  1  0  0  0  0
 48 50  1  0  0  0  0
M  END
>  <cdx:fragmentId>
37

$$$$
