4678.cdx
  Mrv1902 05222410272D          

 29 31  0  0  0  0            999 V2000
    2.0864   -7.8375    0.0000 C   0  0  0  0  0  0  0  0  0  0  0  0
    2.0864   -8.6625    0.0000 C   0  0  0  0  0  0  0  0  0  0  0  0
    2.8009   -9.0750    0.0000 C   0  0  0  0  0  0  0  0  0  0  0  0
    3.5153   -8.6625    0.0000 C   0  0  0  0  0  0  0  0  0  0  0  0
    3.5153   -7.8375    0.0000 C   0  0  0  0  0  0  0  0  0  0  0  0
    2.8009   -7.4250    0.0000 C   0  0  0  0  0  0  0  0  0  0  0  0
    4.2298   -9.0750    0.0000 C   0  0  0  0  0  0  0  0  0  0  0  0
    4.9443   -8.6625    0.0000 C   0  0  0  0  0  0  0  0  0  0  0  0
    4.9443   -7.8375    0.0000 C   0  0  0  0  0  0  0  0  0  0  0  0
    4.2298   -7.4250    0.0000 C   0  0  0  0  0  0  0  0  0  0  0  0
    5.6588   -9.0750    0.0000 C   0  0  0  0  0  0  0  0  0  0  0  0
    6.3732   -8.6625    0.0000 C   0  0  0  0  0  0  0  0  0  0  0  0
    6.3732   -7.8375    0.0000 C   0  0  0  0  0  0  0  0  0  0  0  0
    5.6588   -7.4250    0.0000 C   0  0  0  0  0  0  0  0  0  0  0  0
    7.0877   -9.0750    0.0000 O   0  0  0  0  0  0  0  0  0  0  0  0
    7.8022   -8.6625    0.0000 C   0  0  0  0  0  0  0  0  0  0  0  0
    8.5166   -9.0750    0.0000 C   0  0  0  0  0  0  0  0  0  0  0  0
    9.2311   -8.6625    0.0000 C   0  0  0  0  0  0  0  0  0  0  0  0
    9.2311   -7.8375    0.0000 C   0  0  0  0  0  0  0  0  0  0  0  0
    9.9456   -9.0750    0.0000 C   0  0  0  0  0  0  0  0  0  0  0  0
   10.6601   -8.6625    0.0000 C   0  0  0  0  0  0  0  0  0  0  0  0
   11.3745   -9.0750    0.0000 C   0  0  0  0  0  0  0  0  0  0  0  0
   12.0890   -8.6625    0.0000 C   0  0  0  0  0  0  0  0  0  0  0  0
    1.3719   -9.0750    0.0000 C   0  0  0  0  0  0  0  0  0  0  0  0
    2.8009   -6.6000    0.0000 O   0  0  0  0  0  0  0  0  0  0  0  0
    4.2298   -6.6000    0.0000 O   0  0  0  0  0  0  0  0  0  0  0  0
    4.2298   -9.9000    0.0000 O   0  0  0  0  0  0  0  0  0  0  0  0
    5.6588   -6.6000    0.0000 O   0  0  0  0  0  0  0  0  0  0  0  0
   11.3745   -9.9000    0.0000 C   0  0  0  0  0  0  0  0  0  0  0  0
  1  2  2  0  0  0  0
  2  3  1  0  0  0  0
  3  4  2  0  0  0  0
  4  5  1  0  0  0  0
  5  6  2  0  0  0  0
  6  1  1  0  0  0  0
  4  7  1  0  0  0  0
  7  8  1  0  0  0  0
  8  9  2  0  0  0  0
  9 10  1  0  0  0  0
 10  5  1  0  0  0  0
  8 11  1  0  0  0  0
 11 12  2  0  0  0  0
 12 13  1  0  0  0  0
 13 14  2  0  0  0  0
 14  9  1  0  0  0  0
 12 15  1  0  0  0  0
 15 16  1  0  0  0  0
 16 17  1  0  0  0  0
 17 18  2  0  0  0  0
 18 19  1  0  0  0  0
 18 20  1  0  0  0  0
 20 21  1  0  0  0  0
 21 22  2  0  0  0  0
 22 23  1  0  0  0  0
  2 24  1  0  0  0  0
  6 25  1  0  0  0  0
 10 26  2  0  0  0  0
  7 27  2  0  0  0  0
 14 28  1  0  0  0  0
 22 29  1  0  0  0  0
M  END
>  <cdx:fragmentId>
5

$$$$
