10467801.cdx
  Mrv1902 05222410282D          

 19 18  0  0  0  0            999 V2000
   13.1408   -8.8764    0.0000 C   0  0  0  0  0  0  0  0  0  0  0  0
   12.4263   -9.2889    0.0000 C   0  0  0  0  0  0  0  0  0  0  0  0
   11.7118   -8.8764    0.0000 C   0  0  1  0  0  0  0  0  0  0  0  0
   10.9974   -9.2889    0.0000 C   0  0  0  0  0  0  0  0  0  0  0  0
   10.2829   -9.7014    0.0000 C   0  0  0  0  0  0  0  0  0  0  0  0
    9.5684  -10.1139    0.0000 C   0  0  0  0  0  0  0  0  0  0  0  0
    8.8539  -10.5264    0.0000 C   0  0  0  0  0  0  0  0  0  0  0  0
    8.1395  -10.9389    0.0000 C   0  0  0  0  0  0  0  0  0  0  0  0
    7.4250  -10.5264    0.0000 C   0  0  0  0  0  0  0  0  0  0  0  0
    6.7105  -10.9389    0.0000 C   0  0  2  0  0  0  0  0  0  0  0  0
    5.9961  -10.5264    0.0000 C   0  0  0  0  0  0  0  0  0  0  0  0
    5.2816  -10.9389    0.0000 C   0  0  0  0  0  0  0  0  0  0  0  0
    4.5671  -10.5264    0.0000 C   0  0  0  0  0  0  0  0  0  0  0  0
    3.8526  -10.9389    0.0000 C   0  0  0  0  0  0  0  0  0  0  0  0
    3.1382  -10.5264    0.0000 C   0  0  0  0  0  0  0  0  0  0  0  0
    2.4237  -10.9389    0.0000 C   0  0  0  0  0  0  0  0  0  0  0  0
    1.7092  -10.5264    0.0000 C   0  0  0  0  0  0  0  0  0  0  0  0
   11.7118   -8.0514    0.0000 O   0  0  0  0  0  0  0  0  0  0  0  0
    6.7105  -11.7639    0.0000 O   0  0  0  0  0  0  0  0  0  0  0  0
  1  2  2  0  0  0  0
  2  3  1  0  0  0  0
  3  4  1  0  0  0  0
  4  5  3  0  0  0  0
  5  6  1  0  0  0  0
  6  7  3  0  0  0  0
  7  8  1  0  0  0  0
  8  9  2  3  0  0  0
  9 10  1  0  0  0  0
 10 11  1  0  0  0  0
 11 12  1  0  0  0  0
 12 13  1  0  0  0  0
 13 14  1  0  0  0  0
 14 15  1  0  0  0  0
 15 16  1  0  0  0  0
 16 17  1  0  0  0  0
  3 18  1  1  0  0  0
 10 19  1  1  0  0  0
M  END
>  <cdx:groupId>
7004

>  <cdx:fragmentId>
6951

$$$$
