4679.cdx
  Mrv1902 05222410272D          

 18 18  0  0  0  0            999 V2000
    6.8384   -7.7016    0.0000 C   0  0  0  0  0  0  0  0  0  0  0  0
    7.5529   -8.1141    0.0000 C   0  0  0  0  0  0  0  0  0  0  0  0
    8.2674   -7.7016    0.0000 C   0  0  0  0  0  0  0  0  0  0  0  0
    8.9818   -8.1141    0.0000 C   0  0  0  0  0  0  0  0  0  0  0  0
    9.6963   -7.7016    0.0000 C   0  0  0  0  0  0  0  0  0  0  0  0
   10.4108   -8.1141    0.0000 C   0  0  0  0  0  0  0  0  0  0  0  0
   11.1252   -7.7016    0.0000 C   0  0  0  0  0  0  0  0  0  0  0  0
    8.2674   -6.8766    0.0000 O   0  0  0  0  0  0  0  0  0  0  0  0
    9.6963   -6.8766    0.0000 O   0  0  0  0  0  0  0  0  0  0  0  0
    6.1239   -8.1141    0.0000 C   0  0  0  0  0  0  0  0  0  0  0  0
    5.4095   -7.7016    0.0000 C   0  0  0  0  0  0  0  0  0  0  0  0
    4.6950   -8.1141    0.0000 C   0  0  0  0  0  0  0  0  0  0  0  0
    4.6950   -8.9391    0.0000 C   0  0  0  0  0  0  0  0  0  0  0  0
    5.4095   -9.3516    0.0000 C   0  0  0  0  0  0  0  0  0  0  0  0
    6.1239   -8.9391    0.0000 C   0  0  0  0  0  0  0  0  0  0  0  0
    3.9805   -7.7016    0.0000 O   0  0  0  0  0  0  0  0  0  0  0  0
    3.2661   -8.1141    0.0000 C   0  0  0  0  0  0  0  0  0  0  0  0
    3.9805   -9.3516    0.0000 O   0  0  0  0  0  0  0  0  0  0  0  0
  1  2  1  0  0  0  0
  2  3  1  0  0  0  0
  3  4  1  0  0  0  0
  4  5  1  0  0  0  0
  5  6  1  0  0  0  0
  6  7  1  0  0  0  0
  3  8  2  0  0  0  0
  5  9  2  0  0  0  0
 10 11  1  0  0  0  0
 11 12  2  0  0  0  0
 12 13  1  0  0  0  0
 13 14  2  0  0  0  0
 14 15  1  0  0  0  0
 10 15  2  0  0  0  0
 16 17  1  0  0  0  0
 12 16  1  0  0  0  0
 13 18  1  0  0  0  0
  1 10  1  0  0  0  0
M  END
>  <cdx:groupId>
56

>  <cdx:fragmentId>
23

$$$$
