4680.cdx
  Mrv1902 05222410262D          

 25 27  0  0  0  0            999 V2000
    7.4387   -7.1027    0.0000 C   0  0  0  0  0  0  0  0  0  0  0  0
    8.1532   -7.5152    0.0000 N   0  0  0  0  0  0  0  0  0  0  0  0
    8.1532   -8.3402    0.0000 C   0  0  0  0  0  0  0  0  0  0  0  0
    7.4387   -8.7527    0.0000 C   0  0  0  0  0  0  0  0  0  0  0  0
    6.7243   -8.3402    0.0000 C   0  0  0  0  0  0  0  0  0  0  0  0
    6.0098   -8.7527    0.0000 C   0  0  0  0  0  0  0  0  0  0  0  0
    5.2953   -8.3402    0.0000 C   0  0  0  0  0  0  0  0  0  0  0  0
    5.2953   -7.5152    0.0000 C   0  0  0  0  0  0  0  0  0  0  0  0
    6.0098   -7.1027    0.0000 C   0  0  0  0  0  0  0  0  0  0  0  0
    6.7243   -7.5152    0.0000 C   0  0  0  0  0  0  0  0  0  0  0  0
    4.5809   -7.1027    0.0000 O   0  0  0  0  0  0  0  0  0  0  0  0
    3.8664   -7.5152    0.0000 C   0  0  0  0  0  0  0  0  0  0  0  0
    4.5809   -8.7527    0.0000 O   0  0  0  0  0  0  0  0  0  0  0  0
    3.8664   -8.3402    0.0000 C   0  0  0  0  0  0  0  0  0  0  0  0
    7.4387   -6.2777    0.0000 C   0  0  0  0  0  0  0  0  0  0  0  0
    8.1532   -5.8652    0.0000 C   0  0  0  0  0  0  0  0  0  0  0  0
    8.8677   -6.2777    0.0000 C   0  0  0  0  0  0  0  0  0  0  0  0
    9.5822   -5.8652    0.0000 C   0  0  0  0  0  0  0  0  0  0  0  0
    9.5822   -5.0402    0.0000 C   0  0  0  0  0  0  0  0  0  0  0  0
    8.8677   -4.6277    0.0000 C   0  0  0  0  0  0  0  0  0  0  0  0
    8.1532   -5.0402    0.0000 C   0  0  0  0  0  0  0  0  0  0  0  0
   10.2966   -4.6277    0.0000 O   0  0  0  0  0  0  0  0  0  0  0  0
   11.0111   -5.0402    0.0000 C   0  0  0  0  0  0  0  0  0  0  0  0
   10.2966   -6.2777    0.0000 O   0  0  0  0  0  0  0  0  0  0  0  0
   11.0111   -5.8652    0.0000 C   0  0  0  0  0  0  0  0  0  0  0  0
  1  2  2  0  0  0  0
  2  3  1  0  0  0  0
  3  4  2  0  0  0  0
  4  5  1  0  0  0  0
  5  6  1  0  0  0  0
  6  7  2  0  0  0  0
  7  8  1  0  0  0  0
  8  9  2  0  0  0  0
  9 10  1  0  0  0  0
  1 10  1  0  0  0  0
  5 10  2  0  0  0  0
 11 12  1  0  0  0  0
  8 11  1  0  0  0  0
 13 14  1  0  0  0  0
  7 13  1  0  0  0  0
 16 17  1  0  0  0  0
 17 18  2  0  0  0  0
 18 19  1  0  0  0  0
 19 20  2  0  0  0  0
 20 21  1  0  0  0  0
 16 21  2  0  0  0  0
 22 23  1  0  0  0  0
 19 22  1  0  0  0  0
 24 25  1  0  0  0  0
 18 24  1  0  0  0  0
 15 16  1  0  0  0  0
  1 15  1  0  0  0  0
M  END
>  <cdx:groupId>
79

>  <cdx:fragmentId>
5

$$$$
