4683.cdx
  Mrv1902 05222410272D          

 11 11  0  0  0  0            999 V2000
    6.1655   -9.8625    0.0000 C   0  0  0  0  0  0  0  0  0  0  0  0
    6.4205  -10.6471    0.0000 C   0  0  0  0  0  0  0  0  0  0  0  0
    7.2455  -10.6471    0.0000 C   0  0  0  0  0  0  0  0  0  0  0  0
    7.5004   -9.8625    0.0000 C   0  0  0  0  0  0  0  0  0  0  0  0
    6.8330   -9.3775    0.0000 C   0  0  0  0  0  0  0  0  0  0  0  0
    6.8330   -8.5525    0.0000 C   0  0  0  0  0  0  0  0  0  0  0  0
    7.5475   -8.1400    0.0000 C   0  0  0  0  0  0  0  0  0  0  0  0
    7.5475   -7.3150    0.0000 C   0  0  0  0  0  0  0  0  0  0  0  0
    8.2619   -6.9025    0.0000 C   0  0  0  0  0  0  0  0  0  0  0  0
    8.2619   -6.0775    0.0000 C   0  0  0  0  0  0  0  0  0  0  0  0
    8.9764   -5.6650    0.0000 C   0  0  0  0  0  0  0  0  0  0  0  0
  1  2  1  0  0  0  0
  2  3  1  0  0  0  0
  3  4  2  0  0  0  0
  4  5  1  0  0  0  0
  5  1  1  0  0  0  0
  5  6  1  0  0  0  0
  6  7  1  0  0  0  0
  7  8  1  0  0  0  0
  8  9  1  0  0  0  0
  9 10  1  0  0  0  0
 10 11  1  0  0  0  0
M  END
>  <cdx:fragmentId>
5

$$$$
