4684.cdx
  Mrv1902 05222410282D          

 34 37  0  0  0  0            999 V2000
    4.3097   -7.2779    0.0000 O   0  0  0  0  0  0  0  0  0  0  0  0
    5.0231   -6.0397    0.0000 O   0  0  0  0  0  0  0  0  0  0  0  0
    4.3090   -6.4529    0.0000 C   0  0  2  0  0  0  0  0  0  0  0  0
    3.5942   -6.0410    0.0000 C   0  0  1  0  0  0  0  0  0  0  0  0
    3.5934   -5.2160    0.0000 C   0  0  2  0  0  0  0  0  0  0  0  0
    4.3075   -4.8029    0.0000 C   0  0  1  0  0  0  0  0  0  0  0  0
    5.0224   -5.2147    0.0000 C   0  0  1  0  0  0  0  0  0  0  0  0
    5.7365   -4.8016    0.0000 C   0  0  0  0  0  0  0  0  0  0  0  0
    6.4513   -5.2134    0.0000 O   0  0  0  0  0  0  0  0  0  0  0  0
    4.3068   -3.9779    0.0000 O   0  0  0  0  0  0  0  0  0  0  0  0
    2.8786   -4.8042    0.0000 O   0  0  0  0  0  0  0  0  0  0  0  0
    2.8801   -6.4542    0.0000 O   0  0  0  0  0  0  0  0  0  0  0  0
   10.7400   -8.5154    0.0000 O   0  0  0  0  0  0  0  0  0  0  0  0
   10.7400  -10.1654    0.0000 O   0  0  0  0  0  0  0  0  0  0  0  0
    8.5966   -9.7529    0.0000 C   0  0  0  0  0  0  0  0  0  0  0  0
    9.3110  -10.1654    0.0000 C   0  0  0  0  0  0  0  0  0  0  0  0
   10.0255   -9.7529    0.0000 C   0  0  0  0  0  0  0  0  0  0  0  0
   10.0255   -8.9279    0.0000 C   0  0  0  0  0  0  0  0  0  0  0  0
    9.3110   -8.5154    0.0000 C   0  0  0  0  0  0  0  0  0  0  0  0
    8.5966   -8.9279    0.0000 C   0  0  0  0  0  0  0  0  0  0  0  0
    5.7387   -9.7529    0.0000 O   0  0  0  0  0  0  0  0  0  0  0  0
    3.5953   -8.5154    0.0000 C   0  0  0  0  0  0  0  0  0  0  0  0
    4.3097   -8.9279    0.0000 O   0  0  0  0  0  0  0  0  0  0  0  0
    7.1676   -9.7529    0.0000 O   0  0  0  0  0  0  0  0  0  0  0  0
    7.1676   -7.2779    0.0000 O   0  0  0  0  0  0  0  0  0  0  0  0
    6.4531   -7.6904    0.0000 C   0  0  0  0  0  0  0  0  0  0  0  0
    5.7387   -7.2779    0.0000 C   0  0  0  0  0  0  0  0  0  0  0  0
    5.0242   -7.6904    0.0000 C   0  0  0  0  0  0  0  0  0  0  0  0
    5.0242   -8.5154    0.0000 C   0  0  0  0  0  0  0  0  0  0  0  0
    5.7387   -8.9279    0.0000 C   0  0  0  0  0  0  0  0  0  0  0  0
    6.4531   -8.5154    0.0000 C   0  0  0  0  0  0  0  0  0  0  0  0
    7.1676   -8.9279    0.0000 C   0  0  0  0  0  0  0  0  0  0  0  0
    7.8821   -8.5154    0.0000 C   0  0  0  0  0  0  0  0  0  0  0  0
    7.8821   -7.6904    0.0000 C   0  0  0  0  0  0  0  0  0  0  0  0
 33 20  1  0  0  0  0
 18 13  1  0  0  0  0
 17 14  1  0  0  0  0
 20 15  2  0  0  0  0
 16 15  1  0  0  0  0
 17 16  2  0  0  0  0
 18 17  1  0  0  0  0
 19 18  2  0  0  0  0
 20 19  1  0  0  0  0
 30 21  1  0  0  0  0
 29 23  1  0  0  0  0
 23 22  1  0  0  0  0
 28  1  1  0  0  0  0
 32 24  2  0  0  0  0
 34 25  1  0  0  0  0
 26 25  1  0  0  0  0
 31 26  2  0  0  0  0
 27 26  1  0  0  0  0
 28 27  2  0  0  0  0
 29 28  1  0  0  0  0
 30 29  2  0  0  0  0
 31 30  1  0  0  0  0
 32 31  1  0  0  0  0
 33 32  1  0  0  0  0
 34 33  2  0  0  0  0
  2  3  1  0  0  0  0
  3  4  1  0  0  0  0
  4  5  1  0  0  0  0
  5  6  1  0  0  0  0
  6  7  1  0  0  0  0
  2  7  1  0  0  0  0
  8  9  1  0  0  0  0
  7  8  1  1  0  0  0
  6 10  1  6  0  0  0
  5 11  1  1  0  0  0
  4 12  1  6  0  0  0
  3  1  1  1  0  0  0
M  END
>  <cdx:fragmentId>
29

$$$$
