468522.cdx
  Mrv1902 05222410192D          

 19 19  0  0  0  0            999 V2000
    4.1944   -7.4007    0.0000 C   0  0  0  0  0  0  0  0  0  0  0  0
    4.1944   -6.5757    0.0000 C   0  0  0  0  0  0  0  0  0  0  0  0
    4.9088   -6.1632    0.0000 C   0  0  0  0  0  0  0  0  0  0  0  0
    5.6233   -6.5757    0.0000 C   0  0  0  0  0  0  0  0  0  0  0  0
    5.6233   -7.4007    0.0000 C   0  0  0  0  0  0  0  0  0  0  0  0
    4.9088   -7.8132    0.0000 C   0  0  0  0  0  0  0  0  0  0  0  0
    3.4799   -7.8132    0.0000 O   0  0  0  0  0  0  0  0  0  0  0  0
    6.3378   -6.1632    0.0000 C   0  0  0  0  0  0  0  0  0  0  0  0
    7.0522   -6.5757    0.0000 C   0  0  0  0  0  0  0  0  0  0  0  0
    9.0236   -6.8430    0.0000 C   0  0  0  0  0  0  0  0  0  0  0  0
    8.1989   -6.8659    0.0000 C   0  0  0  0  0  0  0  0  0  0  0  0
    7.3542   -5.4487    0.0000 C   0  0  0  0  0  0  0  0  0  0  0  0
    7.7667   -6.1632    0.0000 C   0  0  0  0  0  0  0  0  0  0  0  0
    8.4754   -5.7408    0.0000 C   0  0  0  0  0  0  0  0  0  0  0  0
    9.1955   -6.1433    0.0000 C   0  0  0  0  0  0  0  0  0  0  0  0
    9.9042   -5.7210    0.0000 C   0  0  0  0  0  0  0  0  0  0  0  0
   10.6243   -6.1235    0.0000 C   0  0  0  0  0  0  0  0  0  0  0  0
   11.3330   -5.7011    0.0000 C   0  0  0  0  0  0  0  0  0  0  0  0
   10.6358   -6.9484    0.0000 C   0  0  0  0  0  0  0  0  0  0  0  0
 13 11  1  0  0  0  0
 11 10  2  0  0  0  0
 13 12  1  6  0  0  0
  1  2  1  0  0  0  0
  2  3  2  0  0  0  0
  3  4  1  0  0  0  0
  4  5  2  0  0  0  0
  5  6  1  0  0  0  0
  1  6  2  0  0  0  0
  1  7  1  0  0  0  0
  8  9  2  0  0  0  0
  9 13  1  0  0  0  0
  4  8  1  0  0  0  0
 13 14  1  0  0  0  0
 14 15  1  0  0  0  0
 15 16  1  0  0  0  0
 16 17  2  0  0  0  0
 17 18  1  0  0  0  0
 17 19  1  0  0  0  0
M  END
>  <cdx:groupId>
1479

>  <cdx:fragmentId>
1439

$$$$
