4685.cdx
  Mrv1902 05222410282D          

  8  8  0  0  0  0            999 V2000
    4.9522   -2.1733    0.0000 C   0  0  0  0  0  0  0  0  0  0  0  0
    4.9522   -2.9983    0.0000 C   0  0  0  0  0  0  0  0  0  0  0  0
    4.2377   -3.4108    0.0000 C   0  0  0  0  0  0  0  0  0  0  0  0
    3.5233   -2.9983    0.0000 C   0  0  0  0  0  0  0  0  0  0  0  0
    3.5233   -2.1733    0.0000 C   0  0  0  0  0  0  0  0  0  0  0  0
    4.2377   -1.7608    0.0000 C   0  0  0  0  0  0  0  0  0  0  0  0
    2.8088   -3.4108    0.0000 Cl  0  0  0  0  0  0  0  0  0  0  0  0
    5.6667   -1.7608    0.0000 Cl  0  0  0  0  0  0  0  0  0  0  0  0
  1  2  1  0  0  0  0
  2  3  2  0  0  0  0
  3  4  1  0  0  0  0
  4  5  2  0  0  0  0
  5  6  1  0  0  0  0
  1  6  2  0  0  0  0
  4  7  1  0  0  0  0
  1  8  1  0  0  0  0
M  END
>  <cdx:groupId>
26

>  <cdx:fragmentId>
5

$$$$
