4687.cdx
  Mrv1902 05222410272D          

 13 14  0  0  0  0            999 V2000
    8.7976   -5.4075    0.0000 N   0  0  0  0  0  0  0  0  0  0  0  0
    9.2825   -6.0750    0.0000 C   0  0  0  0  0  0  0  0  0  0  0  0
    8.7976   -6.7424    0.0000 N   0  0  0  0  0  0  0  0  0  0  0  0
    8.0129   -6.4875    0.0000 C   0  0  0  0  0  0  0  0  0  0  0  0
    7.2985   -6.9000    0.0000 N   0  0  0  0  0  0  0  0  0  0  0  0
    6.5840   -6.4875    0.0000 C   0  0  0  0  0  0  0  0  0  0  0  0
    6.5840   -5.6625    0.0000 N   0  0  0  0  0  0  0  0  0  0  0  0
    7.2985   -5.2500    0.0000 C   0  0  0  0  0  0  0  0  0  0  0  0
    8.0129   -5.6625    0.0000 C   0  0  0  0  0  0  0  0  0  0  0  0
    5.8695   -6.9000    0.0000 O   0  0  0  0  0  0  0  0  0  0  0  0
    7.2985   -4.4250    0.0000 O   0  0  0  0  0  0  0  0  0  0  0  0
    9.0525   -4.6229    0.0000 C   0  0  0  0  0  0  0  0  0  0  0  0
    5.8695   -5.2500    0.0000 C   0  0  0  0  0  0  0  0  0  0  0  0
  1  2  1  0  0  0  0
  2  3  2  0  0  0  0
  3  4  1  0  0  0  0
  4  5  1  0  0  0  0
  5  6  1  0  0  0  0
  6  7  1  0  0  0  0
  7  8  1  0  0  0  0
  8  9  1  0  0  0  0
  1  9  1  0  0  0  0
  4  9  2  0  0  0  0
  6 10  2  0  0  0  0
  8 11  2  0  0  0  0
  1 12  1  0  0  0  0
  7 13  1  0  0  0  0
M  END
>  <cdx:fragmentId>
5

$$$$
