469.cdx
  Mrv1902 05222410262D          

 11 10  0  0  0  0            999 V2000
    9.1039   -4.7157    0.0000 C   0  0  0  0  0  0  0  0  0  0  0  0
    8.3895   -5.1282    0.0000 C   0  0  0  0  0  0  0  0  0  0  0  0
    7.6750   -4.7157    0.0000 C   0  0  0  0  0  0  0  0  0  0  0  0
    6.9605   -5.1282    0.0000 C   0  0  0  0  0  0  0  0  0  0  0  0
    6.2460   -4.7157    0.0000 C   0  0  0  0  0  0  0  0  0  0  0  0
    5.5316   -5.1282    0.0000 C   0  0  0  0  0  0  0  0  0  0  0  0
    9.1039   -3.8907    0.0000 O   0  0  0  0  0  0  0  0  0  0  0  0
    9.8184   -5.1282    0.0000 O   0  0  0  0  0  0  0  0  0  0  0  0
    5.5316   -5.9532    0.0000 O   0  0  0  0  0  0  0  0  0  0  0  0
    4.8171   -4.7157    0.0000 O   0  0  0  0  0  0  0  0  0  0  0  0
    8.3895   -5.9532    0.0000 N   0  0  0  0  0  0  0  0  0  0  0  0
  1  2  1  0  0  0  0
  2  3  1  0  0  0  0
  3  4  1  0  0  0  0
  4  5  1  0  0  0  0
  5  6  1  0  0  0  0
  1  7  2  0  0  0  0
  1  8  1  0  0  0  0
  6  9  2  0  0  0  0
  6 10  1  0  0  0  0
  2 11  1  0  0  0  0
M  END
>  <cdx:groupId>
34

>  <cdx:fragmentId>
5

$$$$
