4693.cdx
  Mrv1902 05222410272D          

 32 35  0  0  0  0            999 V2000
    6.4464   -6.5808    0.0000 O   0  0  0  0  0  0  0  0  0  0  0  0
    5.7319   -6.9933    0.0000 C   0  0  2  0  0  0  0  0  0  0  0  0
    5.0175   -6.5808    0.0000 C   0  0  1  0  0  0  0  0  0  0  0  0
    5.0175   -5.7558    0.0000 C   0  0  2  0  0  0  0  0  0  0  0  0
    5.7319   -5.3433    0.0000 C   0  0  1  0  0  0  0  0  0  0  0  0
    6.4464   -5.7558    0.0000 C   0  0  1  0  0  0  0  0  0  0  0  0
    7.1609   -5.3433    0.0000 C   0  0  0  0  0  0  0  0  0  0  0  0
    7.1609   -4.5183    0.0000 O   0  0  0  0  0  0  0  0  0  0  0  0
    5.7319   -4.5183    0.0000 O   0  0  0  0  0  0  0  0  0  0  0  0
    4.3030   -5.3433    0.0000 O   0  0  0  0  0  0  0  0  0  0  0  0
    4.3030   -6.9933    0.0000 O   0  0  0  0  0  0  0  0  0  0  0  0
   10.7332   -9.0558    0.0000 O   0  0  0  0  0  0  0  0  0  0  0  0
   10.7332  -10.7058    0.0000 O   0  0  0  0  0  0  0  0  0  0  0  0
    8.5898  -10.2933    0.0000 C   0  0  0  0  0  0  0  0  0  0  0  0
    9.3043  -10.7058    0.0000 C   0  0  0  0  0  0  0  0  0  0  0  0
   10.0187  -10.2933    0.0000 C   0  0  0  0  0  0  0  0  0  0  0  0
   10.0187   -9.4683    0.0000 C   0  0  0  0  0  0  0  0  0  0  0  0
    9.3043   -9.0558    0.0000 C   0  0  0  0  0  0  0  0  0  0  0  0
    8.5898   -9.4683    0.0000 C   0  0  0  0  0  0  0  0  0  0  0  0
    4.3030   -7.8183    0.0000 O   0  0  0  0  0  0  0  0  0  0  0  0
    6.4464   -7.4058    0.0000 H   0  0  0  0  0  0  0  0  0  0  0  0
    7.1609  -10.2933    0.0000 O   0  0  0  0  0  0  0  0  0  0  0  0
    7.1609   -7.8183    0.0000 O   0  0  0  0  0  0  0  0  0  0  0  0
    6.4464   -8.2308    0.0000 C   0  0  0  0  0  0  0  0  0  0  0  0
    5.7319   -7.8183    0.0000 C   0  0  0  0  0  0  0  0  0  0  0  0
    5.0175   -8.2308    0.0000 C   0  0  0  0  0  0  0  0  0  0  0  0
    5.0175   -9.0558    0.0000 C   0  0  0  0  0  0  0  0  0  0  0  0
    5.7319   -9.4683    0.0000 C   0  0  0  0  0  0  0  0  0  0  0  0
    6.4464   -9.0558    0.0000 C   0  0  0  0  0  0  0  0  0  0  0  0
    7.1609   -9.4683    0.0000 C   0  0  0  0  0  0  0  0  0  0  0  0
    7.8753   -9.0558    0.0000 C   0  0  0  0  0  0  0  0  0  0  0  0
    7.8753   -8.2308    0.0000 C   0  0  0  0  0  0  0  0  0  0  0  0
 31 19  1  0  0  0  0
 17 12  1  0  0  0  0
 16 13  1  0  0  0  0
 19 14  2  0  0  0  0
 15 14  1  0  0  0  0
 16 15  2  0  0  0  0
 17 16  1  0  0  0  0
 18 17  2  0  0  0  0
 19 18  1  0  0  0  0
 26 20  1  0  0  0  0
  2 25  1  0  0  0  0
  1  2  1  0  0  0  0
  2  3  1  0  0  0  0
 30 22  2  0  0  0  0
 32 23  1  0  0  0  0
 24 23  1  0  0  0  0
 29 24  2  0  0  0  0
 25 24  1  0  0  0  0
 26 25  2  0  0  0  0
 27 26  1  0  0  0  0
 28 27  2  0  0  0  0
 29 28  1  0  0  0  0
 30 29  1  0  0  0  0
 31 30  1  0  0  0  0
 32 31  2  0  0  0  0
  3  4  1  0  0  0  0
  4  5  1  0  0  0  0
  5  6  1  0  0  0  0
  1  6  1  0  0  0  0
  7  8  1  0  0  0  0
  6  7  1  1  0  0  0
  5  9  1  6  0  0  0
  4 10  1  1  0  0  0
  3 11  1  6  0  0  0
  2 21  1  6  0  0  0
M  END
>  <cdx:fragmentId>
7826

$$$$
