4696.cdx
  Mrv1902 05222410272D          

 20 20  0  0  0  0            999 V2000
    4.0045   -7.6519    0.0000 C   0  0  0  0  0  0  0  0  0  0  0  0
    4.0045   -8.4769    0.0000 C   0  0  0  0  0  0  0  0  0  0  0  0
    4.7190   -8.8894    0.0000 C   0  0  0  0  0  0  0  0  0  0  0  0
    5.4335   -8.4769    0.0000 C   0  0  0  0  0  0  0  0  0  0  0  0
    5.4335   -7.6519    0.0000 C   0  0  0  0  0  0  0  0  0  0  0  0
    4.7190   -7.2394    0.0000 C   0  0  0  0  0  0  0  0  0  0  0  0
    3.2901   -7.2394    0.0000 O   0  0  0  0  0  0  0  0  0  0  0  0
    3.2901   -8.8894    0.0000 O   0  0  0  0  0  0  0  0  0  0  0  0
    6.1479   -7.2394    0.0000 C   0  0  0  0  0  0  0  0  0  0  0  0
    6.8624   -7.6519    0.0000 C   0  0  0  0  0  0  0  0  0  0  0  0
    7.5769   -7.2394    0.0000 C   0  0  0  0  0  0  0  0  0  0  0  0
    8.2914   -7.6519    0.0000 C   0  0  0  0  0  0  0  0  0  0  0  0
    9.0058   -7.2394    0.0000 C   0  0  0  0  0  0  0  0  0  0  0  0
    9.7203   -7.6519    0.0000 C   0  0  0  0  0  0  0  0  0  0  0  0
    7.5769   -6.4144    0.0000 O   0  0  0  0  0  0  0  0  0  0  0  0
    2.5756   -7.6519    0.0000 C   0  0  0  0  0  0  0  0  0  0  0  0
   10.4348   -7.2394    0.0000 C   0  0  0  0  0  0  0  0  0  0  0  0
   11.1492   -7.6519    0.0000 C   0  0  0  0  0  0  0  0  0  0  0  0
   11.8637   -7.2394    0.0000 C   0  0  0  0  0  0  0  0  0  0  0  0
   12.5782   -7.6519    0.0000 C   0  0  0  0  0  0  0  0  0  0  0  0
  1  2  2  0  0  0  0
  2  3  1  0  0  0  0
  3  4  2  0  0  0  0
  4  5  1  0  0  0  0
  5  6  2  0  0  0  0
  6  1  1  0  0  0  0
  1  7  1  0  0  0  0
  2  8  1  0  0  0  0
  5  9  1  0  0  0  0
  9 10  1  0  0  0  0
 10 11  1  0  0  0  0
 11 12  1  0  0  0  0
 12 13  2  0  0  0  0
 13 14  1  0  0  0  0
 11 15  1  0  0  0  0
  7 16  1  0  0  0  0
 14 17  1  0  0  0  0
 17 18  1  0  0  0  0
 18 19  1  0  0  0  0
 19 20  1  0  0  0  0
M  END
>  <cdx:fragmentId>
5

$$$$
