4699.cdx
  Mrv1902 05222410202D          

 27 28  0  0  0  0            999 V2000
    2.7258   -7.3425    0.0000 C   0  0  0  0  0  0  0  0  0  0  0  0
    2.7258   -8.1675    0.0000 C   0  0  0  0  0  0  0  0  0  0  0  0
    3.4402   -8.5800    0.0000 C   0  0  0  0  0  0  0  0  0  0  0  0
    4.1547   -8.1675    0.0000 C   0  0  0  0  0  0  0  0  0  0  0  0
    4.1547   -7.3425    0.0000 C   0  0  0  0  0  0  0  0  0  0  0  0
    3.4402   -6.9300    0.0000 C   0  0  0  0  0  0  0  0  0  0  0  0
    5.5837   -7.3425    0.0000 C   0  0  0  0  0  0  0  0  0  0  0  0
    4.8692   -6.9300    0.0000 C   0  0  0  0  0  0  0  0  0  0  0  0
    7.0126   -7.3425    0.0000 C   0  0  0  0  0  0  0  0  0  0  0  0
    6.2981   -6.9300    0.0000 C   0  0  0  0  0  0  0  0  0  0  0  0
    8.4415   -7.3425    0.0000 C   0  0  0  0  0  0  0  0  0  0  0  0
    7.7271   -6.9300    0.0000 C   0  0  0  0  0  0  0  0  0  0  0  0
    9.8705   -8.1675    0.0000 C   0  0  0  0  0  0  0  0  0  0  0  0
    9.8705   -7.3425    0.0000 C   0  0  0  0  0  0  0  0  0  0  0  0
    9.1560   -6.9300    0.0000 C   0  0  0  0  0  0  0  0  0  0  0  0
   10.5850   -8.5800    0.0000 C   0  0  0  0  0  0  0  0  0  0  0  0
   11.2994   -8.1675    0.0000 C   0  0  0  0  0  0  0  0  0  0  0  0
   11.2994   -7.3425    0.0000 C   0  0  0  0  0  0  0  0  0  0  0  0
   10.5850   -6.9300    0.0000 C   0  0  0  0  0  0  0  0  0  0  0  0
    2.0113   -6.9300    0.0000 O   0  0  0  0  0  0  0  0  0  0  0  0
    1.2968   -6.5175    0.0000 C   0  0  0  0  0  0  0  0  0  0  0  0
    2.0113   -8.5800    0.0000 O   0  0  0  0  0  0  0  0  0  0  0  0
   12.0139   -6.9300    0.0000 O   0  0  0  0  0  0  0  0  0  0  0  0
   12.0139   -8.5800    0.0000 O   0  0  0  0  0  0  0  0  0  0  0  0
    6.2981   -6.1050    0.0000 O   0  0  0  0  0  0  0  0  0  0  0  0
    7.7271   -6.1050    0.0000 H   0  0  0  0  0  0  0  0  0  0  0  0
   12.7284   -6.5175    0.0000 C   0  0  0  0  0  0  0  0  0  0  0  0
  1  2  2  0  0  0  0
  2  3  1  0  0  0  0
  3  4  2  0  0  0  0
  4  5  1  0  0  0  0
  5  6  2  0  0  0  0
  6  1  1  0  0  0  0
  7  8  1  0  0  0  0
  8  5  1  0  0  0  0
  9 10  1  0  0  0  0
 10  7  1  0  0  0  0
 11 12  1  0  0  0  0
 12  9  1  0  0  0  0
 13 14  2  0  0  0  0
 14 15  1  0  0  0  0
 15 11  1  0  0  0  0
 13 16  1  0  0  0  0
 16 17  2  0  0  0  0
 17 18  1  0  0  0  0
 18 19  2  0  0  0  0
 19 14  1  0  0  0  0
  1 20  1  0  0  0  0
  2 22  1  0  0  0  0
 18 23  1  0  0  0  0
 17 24  1  0  0  0  0
 10 25  1  0  0  0  0
 12 26  1  0  0  0  0
 20 21  1  0  0  0  0
 23 27  1  0  0  0  0
M  STY  2   1 SUP   2 SUP
M  SAL   1  2  20  21
M  SBL   1  1  21
M  SMT   1 OCH3
M  SAP   1  1  20   1  1
M  SAL   2  2  23  27
M  SBL   2  1  23
M  SMT   2 OCH3
M  SAP   2  1  23  18  1
M  END
>  <cdx:fragmentId>
5

$$$$
