470093.cdx
  Mrv1902 05222410222D          

 47 48  0  0  0  0            999 V2000
    9.0232   -9.9539    0.0000 C   0  0  0  0  0  0  0  0  0  0  0  0
    9.0232   -9.1289    0.0000 C   0  0  0  0  0  0  0  0  0  0  0  0
    9.7377   -8.7164    0.0000 C   0  0  0  0  0  0  0  0  0  0  0  0
    9.7377   -7.8914    0.0000 C   0  0  0  0  0  0  0  0  0  0  0  0
   10.4522   -7.4789    0.0000 C   0  0  0  0  0  0  0  0  0  0  0  0
   10.4522   -6.6539    0.0000 C   0  0  0  0  0  0  0  0  0  0  0  0
   11.1667   -6.2414    0.0000 C   0  0  0  0  0  0  0  0  0  0  0  0
   11.1667   -5.4164    0.0000 C   0  0  0  0  0  0  0  0  0  0  0  0
   11.8811   -5.0039    0.0000 C   0  0  0  0  0  0  0  0  0  0  0  0
    9.7377  -10.3664    0.0000 O   0  0  0  0  0  0  0  0  0  0  0  0
    8.3088  -10.3664    0.0000 O   0  0  0  0  0  0  0  0  0  0  0  0
    8.3088  -11.1914    0.0000 C   0  0  0  0  0  0  0  0  0  0  0  0
    7.5943  -11.6039    0.0000 C   0  0  2  0  0  0  0  0  0  0  0  0
    7.5943  -12.4289    0.0000 C   0  0  0  0  0  0  0  0  0  0  0  0
    6.8798  -12.8414    0.0000 O   0  0  0  0  0  0  0  0  0  0  0  0
    6.1654  -14.0789    0.0000 O   0  0  0  0  0  0  0  0  0  0  0  0
    6.8798  -13.6664    0.0000 C   0  0  2  0  0  0  0  0  0  0  0  0
    7.5943  -14.0789    0.0000 C   0  0  1  0  0  0  0  0  0  0  0  0
    7.5943  -14.9039    0.0000 C   0  0  2  0  0  0  0  0  0  0  0  0
    6.8798  -15.3164    0.0000 C   0  0  2  0  0  0  0  0  0  0  0  0
    6.1654  -14.9039    0.0000 C   0  0  1  0  0  0  0  0  0  0  0  0
    5.4509  -15.3164    0.0000 C   0  0  0  0  0  0  0  0  0  0  0  0
    5.4509  -16.1414    0.0000 O   0  0  0  0  0  0  0  0  0  0  0  0
    6.8798  -16.1414    0.0000 O   0  0  0  0  0  0  0  0  0  0  0  0
    8.3088  -15.3164    0.0000 O   0  0  0  0  0  0  0  0  0  0  0  0
    8.3088  -13.6664    0.0000 O   0  0  0  0  0  0  0  0  0  0  0  0
    6.8798  -11.1914    0.0000 O   0  0  0  0  0  0  0  0  0  0  0  0
    5.4509  -17.7914    0.0000 O   0  0  0  0  0  0  0  0  0  0  0  0
    4.0219  -18.6164    0.0000 O   0  0  0  0  0  0  0  0  0  0  0  0
    2.5930  -17.7914    0.0000 O   0  0  0  0  0  0  0  0  0  0  0  0
    1.8785  -16.5539    0.0000 O   0  0  0  0  0  0  0  0  0  0  0  0
    2.5930  -16.1414    0.0000 C   0  0  0  0  0  0  0  0  0  0  0  0
    3.3075  -16.5539    0.0000 C   0  0  2  0  0  0  0  0  0  0  0  0
    3.3075  -17.3789    0.0000 C   0  0  1  0  0  0  0  0  0  0  0  0
    4.0219  -17.7914    0.0000 C   0  0  1  0  0  0  0  0  0  0  0  0
    4.7364  -17.3789    0.0000 C   0  0  2  0  0  0  0  0  0  0  0  0
    4.7364  -16.5539    0.0000 C   0  0  2  0  0  0  0  0  0  0  0  0
    4.0219  -16.1414    0.0000 O   0  0  0  0  0  0  0  0  0  0  0  0
   11.8811   -4.1789    0.0000 C   0  0  0  0  0  0  0  0  0  0  0  0
   11.1667   -3.7664    0.0000 C   0  0  0  0  0  0  0  0  0  0  0  0
   11.1667   -2.9414    0.0000 C   0  0  0  0  0  0  0  0  0  0  0  0
   10.4522   -2.5289    0.0000 C   0  0  0  0  0  0  0  0  0  0  0  0
    9.7377   -2.9414    0.0000 C   0  0  0  0  0  0  0  0  0  0  0  0
    9.0232   -2.5289    0.0000 C   0  0  0  0  0  0  0  0  0  0  0  0
    8.3088   -2.9414    0.0000 C   0  0  0  0  0  0  0  0  0  0  0  0
    8.3088   -3.7664    0.0000 C   0  0  0  0  0  0  0  0  0  0  0  0
    7.5943   -4.1789    0.0000 C   0  0  0  0  0  0  0  0  0  0  0  0
 37 23  1  6  0  0  0
 36 28  1  6  0  0  0
 35 29  1  1  0  0  0
 34 30  1  1  0  0  0
 33 32  1  1  0  0  0
 32 31  1  0  0  0  0
 38 33  1  0  0  0  0
 34 33  1  0  0  0  0
 35 34  1  0  0  0  0
 36 35  1  0  0  0  0
 37 36  1  0  0  0  0
 38 37  1  0  0  0  0
  1  2  1  0  0  0  0
  2  3  1  0  0  0  0
  3  4  1  0  0  0  0
  4  5  1  0  0  0  0
  5  6  1  0  0  0  0
  6  7  1  0  0  0  0
  7  8  1  0  0  0  0
  8  9  1  0  0  0  0
  1 10  2  0  0  0  0
  1 11  1  0  0  0  0
 12 13  1  0  0  0  0
 13 14  1  0  0  0  0
 16 17  1  0  0  0  0
 17 18  1  0  0  0  0
 18 19  1  0  0  0  0
 19 20  1  0  0  0  0
 20 21  1  0  0  0  0
 16 21  1  0  0  0  0
 22 23  1  0  0  0  0
 21 22  1  1  0  0  0
 20 24  1  1  0  0  0
 19 25  1  1  0  0  0
 18 26  1  6  0  0  0
 17 15  1  1  0  0  0
 14 15  1  0  0  0  0
 13 27  1  6  0  0  0
 11 12  1  0  0  0  0
  9 39  2  0  0  0  0
 39 40  1  0  0  0  0
 40 41  1  0  0  0  0
 41 42  2  0  0  0  0
 42 43  1  0  0  0  0
 43 44  1  0  0  0  0
 44 45  2  0  0  0  0
 45 46  1  0  0  0  0
 46 47  1  0  0  0  0
M  END
>  <cdx:groupId>
35404

>  <cdx:fragmentId>
35329

$$$$
