5470187.cdx
  Mrv1902 05222410202D          

 16 16  0  0  0  0            999 V2000
    8.0576   -5.0551    0.0000 C   0  0  0  0  0  0  0  0  0  0  0  0
    8.4701   -5.7570    0.0000 C   0  0  0  0  0  0  0  0  0  0  0  0
    8.0576   -6.4714    0.0000 C   0  0  0  0  0  0  0  0  0  0  0  0
    8.4701   -7.1859    0.0000 C   0  0  0  0  0  0  0  0  0  0  0  0
    8.0576   -7.9004    0.0000 C   0  0  0  0  0  0  0  0  0  0  0  0
    7.2326   -7.9004    0.0000 C   0  0  0  0  0  0  0  0  0  0  0  0
    6.8201   -7.1859    0.0000 C   0  0  0  0  0  0  0  0  0  0  0  0
    6.0499   -6.8902    0.0000 C   0  0  0  0  0  0  0  0  0  0  0  0
    6.0499   -6.0652    0.0000 C   0  0  0  0  0  0  0  0  0  0  0  0
    6.8201   -5.7696    0.0000 C   0  0  0  0  0  0  0  0  0  0  0  0
    7.2326   -5.0551    0.0000 C   0  0  0  0  0  0  0  0  0  0  0  0
    8.4701   -4.3406    0.0000 O   0  0  0  0  0  0  0  0  0  0  0  0
    5.2249   -6.0652    0.0000 C   0  0  0  0  0  0  0  0  0  0  0  0
    5.6374   -5.3508    0.0000 C   0  0  0  0  0  0  0  0  0  0  0  0
    6.8201   -8.6148    0.0000 C   0  0  0  0  0  0  0  0  0  0  0  0
    9.2951   -5.7570    0.0000 C   0  0  0  0  0  0  0  0  0  0  0  0
  1  2  1  0  0  0  0
  2  3  2  0  0  0  0
  3  4  1  0  0  0  0
  4  5  1  0  0  0  0
  5  6  1  0  0  0  0
  6  7  2  0  0  0  0
  7  8  1  0  0  0  0
  8  9  1  0  0  0  0
  9 10  1  0  0  0  0
 10 11  2  0  0  0  0
  1 11  1  0  0  0  0
  1 12  2  0  0  0  0
  9 13  1  0  0  0  0
  9 14  1  0  0  0  0
  6 15  1  0  0  0  0
  2 16  1  0  0  0  0
M  END
>  <cdx:groupId>
1696

>  <cdx:fragmentId>
1651

$$$$
