470259.cdx
  Mrv1902 05222410252D          

 36 40  0  0  0  0            999 V2000
    7.8387   -5.8327    0.0000 H   0  0  0  0  0  0  0  0  0  0  0  0
    6.4094   -8.3029    0.0000 H   0  0  0  0  0  0  0  0  0  0  0  0
    4.9781   -7.4731    0.0000 C   0  0  0  0  0  0  0  0  0  0  0  0
    4.2622   -7.8832    0.0000 C   0  0  0  0  0  0  0  0  0  0  0  0
    4.2595   -8.7082    0.0000 C   0  0  1  0  0  0  0  0  0  0  0  0
    4.9726   -9.1231    0.0000 C   0  0  0  0  0  0  0  0  0  0  0  0
    5.6884   -8.7130    0.0000 C   0  0  2  0  0  0  0  0  0  0  0  0
    6.4015   -9.1279    0.0000 C   0  0  0  0  0  0  0  0  0  0  0  0
    7.1174   -8.7178    0.0000 C   0  0  0  0  0  0  0  0  0  0  0  0
    7.1201   -7.8928    0.0000 C   0  0  1  0  0  0  0  0  0  0  0  0
    7.8360   -7.4826    0.0000 C   0  0  2  0  0  0  0  0  0  0  0  0
    8.5491   -7.8975    0.0000 C   0  0  0  0  0  0  0  0  0  0  0  0
    9.2649   -7.4874    0.0000 C   0  0  1  0  0  0  0  0  0  0  0  0
    9.2676   -6.6624    0.0000 C   0  0  1  0  0  0  0  0  0  0  0  0
    9.9835   -6.2523    0.0000 C   0  0  0  0  0  0  0  0  0  0  0  0
    9.9862   -5.4273    0.0000 C   0  0  0  0  0  0  0  0  0  0  0  0
    9.2732   -5.0124    0.0000 C   0  0  0  0  0  0  0  0  0  0  0  0
    8.5573   -5.4225    0.0000 C   0  0  2  0  0  0  0  0  0  0  0  0
    8.5546   -6.2475    0.0000 C   0  0  2  0  0  0  0  0  0  0  0  0
    7.8387   -6.6577    0.0000 C   0  0  1  0  0  0  0  0  0  0  0  0
    7.1256   -6.2428    0.0000 C   0  0  0  0  0  0  0  0  0  0  0  0
    6.4098   -6.6529    0.0000 C   0  0  0  0  0  0  0  0  0  0  0  0
    6.4070   -7.4779    0.0000 C   0  0  2  0  0  0  0  0  0  0  0  0
    5.6912   -7.8880    0.0000 C   0  0  1  0  0  0  0  0  0  0  0  0
    3.5437   -9.1183    0.0000 O   0  0  0  0  0  0  0  0  0  0  0  0
    9.9780   -7.9023    0.0000 O   0  0  0  0  0  0  0  0  0  0  0  0
    9.2759   -4.1874    0.0000 C   0  0  0  0  0  0  0  0  0  0  0  0
    5.6939   -7.0630    0.0000 C   0  0  0  0  0  0  0  0  0  0  0  0
    7.8442   -5.0077    0.0000 C   0  0  0  0  0  0  0  0  0  0  0  0
    9.9807   -7.0773    0.0000 C   0  0  0  0  0  0  0  0  0  0  0  0
    7.1229   -7.0678    0.0000 C   0  0  0  0  0  0  0  0  0  0  0  0
    5.3827   -9.8389    0.0000 C   0  0  0  0  0  0  0  0  0  0  0  0
    4.5577   -9.8362    0.0000 C   0  0  0  0  0  0  0  0  0  0  0  0
    5.6857   -9.5380    0.0000 H   0  0  0  0  0  0  0  0  0  0  0  0
    8.5518   -7.0725    0.0000 H   0  0  0  0  0  0  0  0  0  0  0  0
    7.8332   -8.3076    0.0000 C   0  0  0  0  0  0  0  0  0  0  0  0
 20  1  1  1  0  0  0
 23  2  1  6  0  0  0
  3  4  1  0  0  0  0
  4  5  1  0  0  0  0
  5  6  1  0  0  0  0
  6  7  1  0  0  0  0
  7  8  1  0  0  0  0
  8  9  1  0  0  0  0
  9 10  1  0  0  0  0
 10 11  1  0  0  0  0
 11 12  1  0  0  0  0
 12 13  1  0  0  0  0
 13 14  1  0  0  0  0
 14 15  1  0  0  0  0
 15 16  1  0  0  0  0
 16 17  1  0  0  0  0
 17 18  1  0  0  0  0
 18 19  1  0  0  0  0
 14 19  1  0  0  0  0
 19 20  1  0  0  0  0
 11 20  1  0  0  0  0
 20 21  1  0  0  0  0
 21 22  1  0  0  0  0
 22 23  1  0  0  0  0
 10 23  1  0  0  0  0
 23 24  1  0  0  0  0
  7 24  1  0  0  0  0
  3 24  1  0  0  0  0
  5 25  1  1  0  0  0
 13 26  1  1  0  0  0
 17 27  2  0  0  0  0
 24 28  1  1  0  0  0
 18 29  1  6  0  0  0
 14 30  1  1  0  0  0
 10 31  1  1  0  0  0
  6 32  1  0  0  0  0
  6 33  1  0  0  0  0
  7 34  1  6  0  0  0
 19 35  1  6  0  0  0
 11 36  1  6  0  0  0
M  END
>  <cdx:groupId>
108

>  <cdx:fragmentId>
5

$$$$
