90470395.cdx
  Mrv1902 05222410182D          

 19 20  0  0  0  0            999 V2000
    7.9392  -16.2921    0.0000 O   0  0  0  0  0  0  0  0  0  0  0  0
    7.1546  -16.0371    0.0000 C   0  0  1  0  0  0  0  0  0  0  0  0
    7.1546  -15.2121    0.0000 C   0  0  1  0  0  0  0  0  0  0  0  0
    7.9392  -14.9572    0.0000 C   0  0  1  0  0  0  0  0  0  0  0  0
    8.4241  -15.6246    0.0000 C   0  0  0  0  0  0  0  0  0  0  0  0
    6.5096  -14.6978    0.0000 C   0  0  0  0  0  0  0  0  0  0  0  0
    6.5835  -13.8761    0.0000 C   0  0  0  0  0  0  0  0  0  0  0  0
    5.8249  -13.5518    0.0000 C   0  0  0  0  0  0  0  0  0  0  0  0
    5.2821  -14.1731    0.0000 C   0  0  0  0  0  0  0  0  0  0  0  0
    5.7053  -14.8813    0.0000 C   0  0  0  0  0  0  0  0  0  0  0  0
    5.3473  -15.6246    0.0000 C   0  0  0  0  0  0  0  0  0  0  0  0
    5.7053  -16.3679    0.0000 C   0  0  0  0  0  0  0  0  0  0  0  0
    6.5096  -16.5515    0.0000 C   0  0  0  0  0  0  0  0  0  0  0  0
    9.2491  -15.6246    0.0000 O   0  0  0  0  0  0  0  0  0  0  0  0
    5.1909  -17.0130    0.0000 C   0  0  0  0  0  0  0  0  0  0  0  0
    5.6413  -12.7475    0.0000 C   0  0  0  0  0  0  0  0  0  0  0  0
    8.1941  -14.1726    0.0000 C   0  0  0  0  0  0  0  0  0  0  0  0
    7.3019  -14.4004    0.0000 H   0  0  0  0  0  0  0  0  0  0  0  0
    7.3019  -16.8489    0.0000 H   0  0  0  0  0  0  0  0  0  0  0  0
  1  2  1  0  0  0  0
  2  3  1  0  0  0  0
  3  4  1  0  0  0  0
  4  5  1  0  0  0  0
  1  5  1  0  0  0  0
  6  7  1  0  0  0  0
  7  8  2  0  0  0  0
  8  9  1  0  0  0  0
  9 10  1  0  0  0  0
 10 11  1  0  0  0  0
 11 12  2  0  0  0  0
 12 13  1  0  0  0  0
 13  2  1  0  0  0  0
  6  3  1  0  0  0  0
  5 14  2  0  0  0  0
 12 15  1  0  0  0  0
  8 16  1  0  0  0  0
  4 17  1  6  0  0  0
  3 18  1  1  0  0  0
  2 19  1  1  0  0  0
M  END
>  <cdx:groupId>
211211

>  <cdx:fragmentId>
211166

$$$$
