470538.cdx
  Mrv1902 05222410242D          

 31 32  0  0  0  0            999 V2000
    7.3568   -9.3274    0.0000 C   0  0  0  0  0  0  0  0  0  0  0  0
    8.0713   -8.9149    0.0000 C   0  0  0  0  0  0  0  0  0  0  0  0
    8.7858   -9.3274    0.0000 C   0  0  0  0  0  0  0  0  0  0  0  0
    9.5002   -8.9149    0.0000 C   0  0  0  0  0  0  0  0  0  0  0  0
    8.0713   -8.0899    0.0000 O   0  0  0  0  0  0  0  0  0  0  0  0
   10.2147   -9.3274    0.0000 C   0  0  0  0  0  0  0  0  0  0  0  0
   10.2147  -10.1524    0.0000 C   0  0  0  0  0  0  0  0  0  0  0  0
   10.9292  -10.5649    0.0000 C   0  0  0  0  0  0  0  0  0  0  0  0
   11.6436  -10.1524    0.0000 C   0  0  0  0  0  0  0  0  0  0  0  0
   11.6436   -9.3274    0.0000 C   0  0  0  0  0  0  0  0  0  0  0  0
   10.9292   -8.9149    0.0000 C   0  0  0  0  0  0  0  0  0  0  0  0
   12.3581   -8.9149    0.0000 O   0  0  0  0  0  0  0  0  0  0  0  0
   13.0726   -9.3274    0.0000 C   0  0  0  0  0  0  0  0  0  0  0  0
   12.3581  -10.5649    0.0000 O   0  0  0  0  0  0  0  0  0  0  0  0
   10.9292  -11.3899    0.0000 O   0  0  0  0  0  0  0  0  0  0  0  0
    2.3555  -10.5649    0.0000 O   0  0  0  0  0  0  0  0  0  0  0  0
    1.6410   -9.3274    0.0000 C   0  0  0  0  0  0  0  0  0  0  0  0
    2.3555   -8.9149    0.0000 O   0  0  0  0  0  0  0  0  0  0  0  0
    4.4989  -10.1524    0.0000 C   0  0  0  0  0  0  0  0  0  0  0  0
    3.7845  -10.5649    0.0000 C   0  0  0  0  0  0  0  0  0  0  0  0
    3.0700  -10.1524    0.0000 C   0  0  0  0  0  0  0  0  0  0  0  0
    3.0700   -9.3274    0.0000 C   0  0  0  0  0  0  0  0  0  0  0  0
    3.7845   -8.9149    0.0000 C   0  0  0  0  0  0  0  0  0  0  0  0
    4.4989   -9.3274    0.0000 C   0  0  0  0  0  0  0  0  0  0  0  0
    6.6423   -8.9149    0.0000 C   0  0  0  0  0  0  0  0  0  0  0  0
    5.9279   -9.3274    0.0000 C   0  0  0  0  0  0  0  0  0  0  0  0
    5.2134   -8.9149    0.0000 C   0  0  0  0  0  0  0  0  0  0  0  0
    6.6423   -8.0899    0.0000 O   0  0  0  0  0  0  0  0  0  0  0  0
    5.2134   -8.0899    0.0000 O   0  0  0  0  0  0  0  0  0  0  0  0
    5.9279   -6.8524    0.0000 C   0  0  0  0  0  0  0  0  0  0  0  0
    5.9279   -7.6774    0.0000 C   0  0  0  0  0  0  0  0  0  0  0  0
 28 25  1  0  0  0  0
 27 24  1  0  0  0  0
 21 16  1  0  0  0  0
 22 18  1  0  0  0  0
 18 17  1  0  0  0  0
 24 19  2  0  0  0  0
 20 19  1  0  0  0  0
 21 20  2  0  0  0  0
 22 21  1  0  0  0  0
 23 22  2  0  0  0  0
 24 23  1  0  0  0  0
 26 25  1  0  0  0  0
 27 26  1  0  0  0  0
 31 28  1  0  0  0  0
 31 29  2  0  0  0  0
 31 30  1  0  0  0  0
 25  1  1  0  0  0  0
  1  2  1  0  0  0  0
  2  3  1  0  0  0  0
  3  4  1  0  0  0  0
  2  5  1  0  0  0  0
  6  7  1  0  0  0  0
  7  8  2  0  0  0  0
  8  9  1  0  0  0  0
  9 10  2  0  0  0  0
 10 11  1  0  0  0  0
  6 11  2  0  0  0  0
 12 13  1  0  0  0  0
 10 12  1  0  0  0  0
  9 14  1  0  0  0  0
  8 15  1  0  0  0  0
  4  6  1  0  0  0  0
M  END
>  <cdx:groupId>
39579

>  <cdx:fragmentId>
39510

$$$$
