4706.cdx
  Mrv1902 05222410202D          

 22 24  0  0  0  0            999 V2000
    4.0458   -6.9300    0.0000 C   0  0  0  0  0  0  0  0  0  0  0  0
    4.0458   -7.7550    0.0000 C   0  0  0  0  0  0  0  0  0  0  0  0
    4.7602   -8.1675    0.0000 C   0  0  0  0  0  0  0  0  0  0  0  0
    5.4747   -7.7550    0.0000 C   0  0  0  0  0  0  0  0  0  0  0  0
    5.4747   -6.9300    0.0000 C   0  0  0  0  0  0  0  0  0  0  0  0
    4.7602   -6.5175    0.0000 C   0  0  0  0  0  0  0  0  0  0  0  0
    6.1892   -8.1675    0.0000 C   0  0  0  0  0  0  0  0  0  0  0  0
    6.9037   -7.7550    0.0000 C   0  0  0  0  0  0  0  0  0  0  0  0
    6.9037   -6.9300    0.0000 C   0  0  0  0  0  0  0  0  0  0  0  0
    6.1892   -6.5175    0.0000 C   0  0  0  0  0  0  0  0  0  0  0  0
    7.6181   -8.1675    0.0000 C   0  0  0  0  0  0  0  0  0  0  0  0
    8.3326   -7.7550    0.0000 C   0  0  0  0  0  0  0  0  0  0  0  0
    8.3326   -6.9300    0.0000 C   0  0  0  0  0  0  0  0  0  0  0  0
    7.6181   -6.5175    0.0000 C   0  0  0  0  0  0  0  0  0  0  0  0
    4.7602   -5.6925    0.0000 O   0  0  0  0  0  0  0  0  0  0  0  0
    3.3313   -8.1675    0.0000 O   0  0  0  0  0  0  0  0  0  0  0  0
    6.1892   -5.6925    0.0000 O   0  0  0  0  0  0  0  0  0  0  0  0
    6.1892   -8.9925    0.0000 O   0  0  0  0  0  0  0  0  0  0  0  0
    7.6181   -5.6925    0.0000 O   0  0  0  0  0  0  0  0  0  0  0  0
    8.3326   -5.2800    0.0000 C   0  0  0  0  0  0  0  0  0  0  0  0
    9.0471   -6.5175    0.0000 O   0  0  0  0  0  0  0  0  0  0  0  0
    9.0471   -8.1675    0.0000 C   0  0  0  0  0  0  0  0  0  0  0  0
  1  2  1  0  0  0  0
  2  3  2  0  0  0  0
  3  4  1  0  0  0  0
  4  5  2  0  0  0  0
  5  6  1  0  0  0  0
  6  1  2  0  0  0  0
  4  7  1  0  0  0  0
  7  8  1  0  0  0  0
  8  9  2  0  0  0  0
  9 10  1  0  0  0  0
 10  5  1  0  0  0  0
  8 11  1  0  0  0  0
 11 12  2  0  0  0  0
 12 13  1  0  0  0  0
 13 14  2  0  0  0  0
 14  9  1  0  0  0  0
  6 15  1  0  0  0  0
  2 16  1  0  0  0  0
 10 17  2  0  0  0  0
  7 18  2  0  0  0  0
 14 19  1  0  0  0  0
 19 20  1  0  0  0  0
 13 21  1  0  0  0  0
 12 22  1  0  0  0  0
M  END
>  <cdx:fragmentId>
5

$$$$
