4707.cdx
  Mrv1902 05222410202D          

 13 14  0  0  0  0            999 V2000
    4.4555   -6.5175    0.0000 C   0  0  0  0  0  0  0  0  0  0  0  0
    4.4555   -7.3425    0.0000 C   0  0  0  0  0  0  0  0  0  0  0  0
    5.1700   -7.7550    0.0000 C   0  0  0  0  0  0  0  0  0  0  0  0
    5.8845   -7.3425    0.0000 C   0  0  0  0  0  0  0  0  0  0  0  0
    5.8845   -6.5175    0.0000 C   0  0  0  0  0  0  0  0  0  0  0  0
    5.1700   -6.1050    0.0000 C   0  0  0  0  0  0  0  0  0  0  0  0
    6.6691   -7.5974    0.0000 O   0  0  0  0  0  0  0  0  0  0  0  0
    7.1540   -6.9300    0.0000 C   0  0  0  0  0  0  0  0  0  0  0  0
    6.6691   -6.2626    0.0000 C   0  0  0  0  0  0  0  0  0  0  0  0
    7.9790   -6.9300    0.0000 O   0  0  0  0  0  0  0  0  0  0  0  0
    5.9707   -8.1630    0.0000 O   0  0  0  0  0  0  0  0  0  0  0  0
    6.9240   -5.4779    0.0000 C   0  0  0  0  0  0  0  0  0  0  0  0
    3.7411   -7.7550    0.0000 C   0  0  0  0  0  0  0  0  0  0  0  0
  1  2  1  0  0  0  0
  2  3  1  0  0  0  0
  3  4  1  0  0  0  0
  4  5  1  0  0  0  0
  5  6  1  0  0  0  0
  6  1  1  0  0  0  0
  4  7  1  0  0  0  0
  7  8  1  0  0  0  0
  8  9  1  0  0  0  0
  9  5  2  0  0  0  0
  8 10  2  0  0  0  0
  4 11  1  0  0  0  0
  9 12  1  0  0  0  0
  2 13  1  0  0  0  0
M  END
>  <cdx:fragmentId>
90

$$$$
