470826.cdx
  Mrv1902 05222410272D          

 15 16  0  0  0  0            999 V2000
    8.8688   -5.4085    0.0000 C   0  0  0  0  0  0  0  0  0  0  0  0
    8.1483   -5.8104    0.0000 C   0  0  0  0  0  0  0  0  0  0  0  0
    5.2785   -6.5929    0.0000 C   0  0  0  0  0  0  0  0  0  0  0  0
    5.9990   -6.1910    0.0000 C   0  0  0  0  0  0  0  0  0  0  0  0
    6.0113   -5.3661    0.0000 C   0  0  0  0  0  0  0  0  0  0  0  0
    8.1361   -6.6353    0.0000 C   0  0  1  0  0  0  0  0  0  0  0  0
    7.4278   -6.2122    0.0000 C   0  0  0  0  0  0  0  0  0  0  0  0
    6.7073   -6.6141    0.0000 C   0  0  0  0  0  0  0  0  0  0  0  0
    6.6950   -7.4390    0.0000 C   0  0  0  0  0  0  0  0  0  0  0  0
    7.4033   -7.8621    0.0000 C   0  0  0  0  0  0  0  0  0  0  0  0
    8.1238   -7.4602    0.0000 C   0  0  0  0  0  0  0  0  0  0  0  0
    8.8321   -7.8833    0.0000 C   0  0  0  0  0  0  0  0  0  0  0  0
    9.5526   -7.4814    0.0000 C   0  0  0  0  0  0  0  0  0  0  0  0
    9.5649   -6.6565    0.0000 C   0  0  0  0  0  0  0  0  0  0  0  0
    8.8566   -6.2335    0.0000 C   0  0  1  0  0  0  0  0  0  0  0  0
 15  1  1  6  0  0  0
  6  2  1  6  0  0  0
  8  4  1  0  0  0  0
  4  3  1  0  0  0  0
  5  4  2  0  0  0  0
 11  6  1  0  0  0  0
 15  6  1  0  0  0  0
  7  6  1  0  0  0  0
  8  7  2  0  0  0  0
  9  8  1  0  0  0  0
 10  9  1  0  0  0  0
 11 10  2  0  0  0  0
 12 11  1  0  0  0  0
 13 12  1  0  0  0  0
 14 13  1  0  0  0  0
 15 14  1  0  0  0  0
M  END
>  <cdx:groupId>
48

>  <cdx:fragmentId>
5

$$$$
