471008.cdx
  Mrv1902 05222410242D          

 35 38  0  0  0  0            999 V2000
    4.1298   -9.6161    0.0000 C   0  0  0  0  0  0  0  0  0  0  0  0
    3.4153  -10.0286    0.0000 C   0  0  0  0  0  0  0  0  0  0  0  0
    3.4153  -10.8536    0.0000 C   0  0  0  0  0  0  0  0  0  0  0  0
    4.1298  -11.2661    0.0000 C   0  0  0  0  0  0  0  0  0  0  0  0
    4.8442  -10.8536    0.0000 C   0  0  2  0  0  0  0  0  0  0  0  0
    5.5587  -11.2661    0.0000 C   0  0  0  0  0  0  0  0  0  0  0  0
    6.2732  -10.8536    0.0000 C   0  0  0  0  0  0  0  0  0  0  0  0
    6.2732  -10.0286    0.0000 C   0  0  0  0  0  0  0  0  0  0  0  0
    6.9877   -9.6161    0.0000 C   0  0  2  0  0  0  0  0  0  0  0  0
    7.7723   -9.8710    0.0000 C   0  0  0  0  0  0  0  0  0  0  0  0
    8.2572   -9.2036    0.0000 C   0  0  0  0  0  0  0  0  0  0  0  0
    7.7723   -8.5362    0.0000 C   0  0  1  0  0  0  0  0  0  0  0  0
    6.9877   -8.7911    0.0000 C   0  0  1  0  0  0  0  0  0  0  0  0
    6.2732   -8.3786    0.0000 C   0  0  0  0  0  0  0  0  0  0  0  0
    5.5587   -8.7911    0.0000 C   0  0  0  0  0  0  0  0  0  0  0  0
    5.5587   -9.6161    0.0000 C   0  0  0  0  0  0  0  0  0  0  0  0
    4.8442  -10.0286    0.0000 C   0  0  1  0  0  0  0  0  0  0  0  0
    2.7008  -11.2661    0.0000 O   0  0  0  0  0  0  0  0  0  0  0  0
    6.9877  -10.4411    0.0000 C   0  0  0  0  0  0  0  0  0  0  0  0
    6.9877   -7.9661    0.0000 C   0  0  0  0  0  0  0  0  0  0  0  0
    4.8442   -9.2036    0.0000 C   0  0  0  0  0  0  0  0  0  0  0  0
    4.5423  -11.9806    0.0000 C   0  0  0  0  0  0  0  0  0  0  0  0
    3.7173  -11.9806    0.0000 C   0  0  0  0  0  0  0  0  0  0  0  0
    7.4752   -7.1385    0.0000 C   0  0  0  0  0  0  0  0  0  0  0  0
    8.0272   -7.7515    0.0000 C   0  0  2  0  0  0  0  0  0  0  0  0
    8.8342   -7.5800    0.0000 C   0  0  0  0  0  0  0  0  0  0  0  0
    9.0891   -6.7954    0.0000 C   0  0  0  0  0  0  0  0  0  0  0  0
    9.8961   -6.6239    0.0000 C   0  0  0  0  0  0  0  0  0  0  0  0
   10.1510   -5.8392    0.0000 C   0  0  0  0  0  0  0  0  0  0  0  0
   10.9580   -5.6677    0.0000 C   0  0  0  0  0  0  0  0  0  0  0  0
    9.5990   -5.2262    0.0000 C   0  0  0  0  0  0  0  0  0  0  0  0
    9.8125   -4.4293    0.0000 O   0  0  0  0  0  0  0  0  0  0  0  0
   11.2129   -4.8831    0.0000 O   0  0  0  0  0  0  0  0  0  0  0  0
    4.8442  -11.6786    0.0000 H   0  0  0  0  0  0  0  0  0  0  0  0
    8.5569   -8.2812    0.0000 H   0  0  0  0  0  0  0  0  0  0  0  0
  1  2  1  0  0  0  0
  2  3  1  0  0  0  0
  3  4  1  0  0  0  0
  4  5  1  0  0  0  0
  5  6  1  0  0  0  0
  6  7  1  0  0  0  0
  7  8  2  0  0  0  0
  8  9  1  0  0  0  0
  9 10  1  0  0  0  0
 10 11  1  0  0  0  0
 12 11  1  0  0  0  0
 12 13  1  0  0  0  0
  9 13  1  0  0  0  0
 13 14  1  0  0  0  0
 14 15  1  0  0  0  0
 15 16  2  0  0  0  0
  8 16  1  0  0  0  0
 16 17  1  0  0  0  0
  5 17  1  0  0  0  0
  1 17  1  0  0  0  0
  3 18  2  0  0  0  0
  9 19  1  6  0  0  0
 13 20  1  1  0  0  0
 17 21  1  1  0  0  0
  4 22  1  0  0  0  0
  4 23  1  0  0  0  0
 25 24  1  6  0  0  0
 25 26  1  0  0  0  0
 26 27  1  0  0  0  0
 27 28  1  0  0  0  0
 28 29  2  0  0  0  0
 29 30  1  0  0  0  0
 31 32  1  0  0  0  0
 29 31  1  0  0  0  0
 30 33  1  0  0  0  0
 12 25  1  0  0  0  0
  5 34  1  6  0  0  0
 12 35  1  6  0  0  0
M  END
>  <cdx:groupId>
18000

>  <cdx:fragmentId>
17898

$$$$
