471007.cdx
  Mrv1902 05222410222D          

 36 39  0  0  0  0            999 V2000
    4.3498   -8.7911    0.0000 C   0  0  0  0  0  0  0  0  0  0  0  0
    3.6353   -9.2036    0.0000 C   0  0  0  0  0  0  0  0  0  0  0  0
    3.6353  -10.0286    0.0000 C   0  0  0  0  0  0  0  0  0  0  0  0
    4.3498  -10.4411    0.0000 C   0  0  0  0  0  0  0  0  0  0  0  0
    5.0642  -10.0286    0.0000 C   0  0  2  0  0  0  0  0  0  0  0  0
    5.7787  -10.4411    0.0000 C   0  0  0  0  0  0  0  0  0  0  0  0
    6.4932  -10.0286    0.0000 C   0  0  0  0  0  0  0  0  0  0  0  0
    6.4932   -9.2036    0.0000 C   0  0  0  0  0  0  0  0  0  0  0  0
    7.2077   -8.7911    0.0000 C   0  0  2  0  0  0  0  0  0  0  0  0
    7.9923   -9.0460    0.0000 C   0  0  2  0  0  0  0  0  0  0  0  0
    8.4772   -8.3786    0.0000 C   0  0  0  0  0  0  0  0  0  0  0  0
    7.9923   -7.7112    0.0000 C   0  0  1  0  0  0  0  0  0  0  0  0
    7.2077   -7.9661    0.0000 C   0  0  1  0  0  0  0  0  0  0  0  0
    6.4932   -7.5536    0.0000 C   0  0  0  0  0  0  0  0  0  0  0  0
    5.7787   -7.9661    0.0000 C   0  0  0  0  0  0  0  0  0  0  0  0
    5.7787   -8.7911    0.0000 C   0  0  0  0  0  0  0  0  0  0  0  0
    5.0642   -9.2036    0.0000 C   0  0  1  0  0  0  0  0  0  0  0  0
    2.9208  -10.4411    0.0000 O   0  0  0  0  0  0  0  0  0  0  0  0
    7.2077   -9.6161    0.0000 C   0  0  0  0  0  0  0  0  0  0  0  0
    7.2077   -7.1411    0.0000 C   0  0  0  0  0  0  0  0  0  0  0  0
    5.0642   -8.3786    0.0000 C   0  0  0  0  0  0  0  0  0  0  0  0
    4.7623  -11.1556    0.0000 C   0  0  0  0  0  0  0  0  0  0  0  0
    3.9373  -11.1556    0.0000 C   0  0  0  0  0  0  0  0  0  0  0  0
    7.6952   -6.3135    0.0000 C   0  0  0  0  0  0  0  0  0  0  0  0
    8.2472   -6.9265    0.0000 C   0  0  2  0  0  0  0  0  0  0  0  0
    9.0542   -6.7550    0.0000 C   0  0  0  0  0  0  0  0  0  0  0  0
    9.3091   -5.9704    0.0000 C   0  0  0  0  0  0  0  0  0  0  0  0
   10.1161   -5.7989    0.0000 C   0  0  0  0  0  0  0  0  0  0  0  0
   10.3710   -5.0142    0.0000 C   0  0  0  0  0  0  0  0  0  0  0  0
   11.1780   -4.8427    0.0000 C   0  0  0  0  0  0  0  0  0  0  0  0
    9.8190   -4.4012    0.0000 C   0  0  0  0  0  0  0  0  0  0  0  0
   10.0325   -3.6043    0.0000 O   0  0  0  0  0  0  0  0  0  0  0  0
   11.4329   -4.0581    0.0000 O   0  0  0  0  0  0  0  0  0  0  0  0
    8.2472   -9.8307    0.0000 O   0  0  0  0  0  0  0  0  0  0  0  0
    5.0642  -10.8536    0.0000 H   0  0  0  0  0  0  0  0  0  0  0  0
    8.7769   -7.4562    0.0000 H   0  0  0  0  0  0  0  0  0  0  0  0
  1  2  1  0  0  0  0
  2  3  1  0  0  0  0
  3  4  1  0  0  0  0
  4  5  1  0  0  0  0
  5  6  1  0  0  0  0
  6  7  1  0  0  0  0
  7  8  2  0  0  0  0
  8  9  1  0  0  0  0
  9 10  1  0  0  0  0
 10 11  1  0  0  0  0
 12 11  1  0  0  0  0
 12 13  1  0  0  0  0
  9 13  1  0  0  0  0
 13 14  1  0  0  0  0
 14 15  1  0  0  0  0
 15 16  2  0  0  0  0
  8 16  1  0  0  0  0
 16 17  1  0  0  0  0
  5 17  1  0  0  0  0
  1 17  1  0  0  0  0
  3 18  2  0  0  0  0
  9 19  1  6  0  0  0
 13 20  1  1  0  0  0
 17 21  1  1  0  0  0
  4 22  1  0  0  0  0
  4 23  1  0  0  0  0
 25 24  1  6  0  0  0
 25 26  1  0  0  0  0
 26 27  1  0  0  0  0
 27 28  1  0  0  0  0
 28 29  2  0  0  0  0
 29 30  1  0  0  0  0
 31 32  1  0  0  0  0
 29 31  1  0  0  0  0
 30 33  1  0  0  0  0
 12 25  1  0  0  0  0
 10 34  1  6  0  0  0
  5 35  1  6  0  0  0
 12 36  1  6  0  0  0
M  END
>  <cdx:groupId>
17887

>  <cdx:fragmentId>
17782

$$$$
