471006.cdx
  Mrv1902 05222410232D          

 36 39  0  0  0  0            999 V2000
   10.6191   -4.0996    0.0000 C   0  0  0  0  0  0  0  0  0  0  0  0
   10.3642   -4.8843    0.0000 C   0  0  2  0  0  0  0  0  0  0  0  0
    9.5572   -5.0558    0.0000 C   0  0  0  0  0  0  0  0  0  0  0  0
    9.3023   -5.8404    0.0000 C   0  0  0  0  0  0  0  0  0  0  0  0
    8.4953   -6.0119    0.0000 C   0  0  1  0  0  0  0  0  0  0  0  0
    7.9433   -5.3989    0.0000 C   0  0  0  0  0  0  0  0  0  0  0  0
   10.8327   -3.3028    0.0000 O   0  0  0  0  0  0  0  0  0  0  0  0
   10.9162   -5.4974    0.0000 O   0  0  0  0  0  0  0  0  0  0  0  0
    9.8223   -3.8861    0.0000 C   0  0  0  0  0  0  0  0  0  0  0  0
    4.5979   -7.8765    0.0000 C   0  0  0  0  0  0  0  0  0  0  0  0
    3.8834   -8.2890    0.0000 C   0  0  0  0  0  0  0  0  0  0  0  0
    3.8834   -9.1140    0.0000 C   0  0  1  0  0  0  0  0  0  0  0  0
    4.5979   -9.5265    0.0000 C   0  0  0  0  0  0  0  0  0  0  0  0
    5.3124   -9.1140    0.0000 C   0  0  2  0  0  0  0  0  0  0  0  0
    6.0268   -9.5265    0.0000 C   0  0  0  0  0  0  0  0  0  0  0  0
    6.7413   -9.1140    0.0000 C   0  0  0  0  0  0  0  0  0  0  0  0
    6.7413   -8.2890    0.0000 C   0  0  0  0  0  0  0  0  0  0  0  0
    7.4558   -7.8765    0.0000 C   0  0  2  0  0  0  0  0  0  0  0  0
    8.2404   -8.1314    0.0000 C   0  0  0  0  0  0  0  0  0  0  0  0
    8.7253   -7.4640    0.0000 C   0  0  0  0  0  0  0  0  0  0  0  0
    8.2404   -6.7966    0.0000 C   0  0  1  0  0  0  0  0  0  0  0  0
    7.4558   -7.0515    0.0000 C   0  0  1  0  0  0  0  0  0  0  0  0
    6.7413   -6.6390    0.0000 C   0  0  0  0  0  0  0  0  0  0  0  0
    6.0268   -7.0515    0.0000 C   0  0  0  0  0  0  0  0  0  0  0  0
    6.0268   -7.8765    0.0000 C   0  0  0  0  0  0  0  0  0  0  0  0
    5.3124   -8.2890    0.0000 C   0  0  1  0  0  0  0  0  0  0  0  0
    7.4558   -8.7015    0.0000 C   0  0  0  0  0  0  0  0  0  0  0  0
    7.4558   -6.2265    0.0000 C   0  0  0  0  0  0  0  0  0  0  0  0
    5.3124   -7.4640    0.0000 C   0  0  0  0  0  0  0  0  0  0  0  0
    5.0104  -10.2410    0.0000 C   0  0  0  0  0  0  0  0  0  0  0  0
    4.1854  -10.2410    0.0000 C   0  0  0  0  0  0  0  0  0  0  0  0
    3.1689   -9.5265    0.0000 O   0  0  0  0  0  0  0  0  0  0  0  0
    5.3124   -9.9390    0.0000 H   0  0  0  0  0  0  0  0  0  0  0  0
    9.0373   -6.5830    0.0000 H   0  0  0  0  0  0  0  0  0  0  0  0
   11.4102   -4.3340    0.0000 C   0  0  0  0  0  0  0  0  0  0  0  0
   12.0086   -3.7661    0.0000 O   0  0  0  0  0  0  0  0  0  0  0  0
  1  2  1  0  0  0  0
  2  3  1  0  0  0  0
  3  4  1  0  0  0  0
  4  5  1  0  0  0  0
  5  6  1  6  0  0  0
  1  7  1  0  0  0  0
  2  8  1  1  0  0  0
  1  9  1  0  0  0  0
 10 11  1  0  0  0  0
 11 12  1  0  0  0  0
 12 13  1  0  0  0  0
 13 14  1  0  0  0  0
 14 15  1  0  0  0  0
 15 16  1  0  0  0  0
 16 17  2  0  0  0  0
 17 18  1  0  0  0  0
 18 19  1  0  0  0  0
 19 20  1  0  0  0  0
 21 20  1  0  0  0  0
 21 22  1  0  0  0  0
 18 22  1  0  0  0  0
 22 23  1  0  0  0  0
 23 24  1  0  0  0  0
 24 25  2  0  0  0  0
 17 25  1  0  0  0  0
 25 26  1  0  0  0  0
 14 26  1  0  0  0  0
 10 26  1  0  0  0  0
 18 27  1  6  0  0  0
 22 28  1  1  0  0  0
 26 29  1  1  0  0  0
 13 30  1  0  0  0  0
 13 31  1  0  0  0  0
 12 32  1  1  0  0  0
  5 21  1  0  0  0  0
 14 33  1  6  0  0  0
 21 34  1  6  0  0  0
  1 35  1  0  0  0  0
 35 36  1  0  0  0  0
M  END
>  <cdx:groupId>
111

>  <cdx:fragmentId>
31

$$$$
