471119.cdx
  Mrv1902 05222410282D          

 45 48  0  0  0  0            999 V2000
    7.9733   -6.9633    0.0000 O   0  0  0  0  0  0  0  0  0  0  0  0
    8.6877   -8.4483    0.0000 C   0  0  1  0  0  0  0  0  0  0  0  0
    8.6877   -7.3758    0.0000 C   0  0  2  0  0  0  0  0  0  0  0  0
    9.4022   -6.9633    0.0000 C   0  0  0  0  0  0  0  0  0  0  0  0
    9.4022   -8.8608    0.0000 O   0  0  0  0  0  0  0  0  0  0  0  0
    9.4022   -9.6858    0.0000 C   0  0  0  0  0  0  0  0  0  0  0  0
   10.1167  -10.0983    0.0000 C   0  0  0  0  0  0  0  0  0  0  0  0
   10.8311   -9.6858    0.0000 C   0  0  0  0  0  0  0  0  0  0  0  0
   11.5456  -10.0983    0.0000 C   0  0  0  0  0  0  0  0  0  0  0  0
   11.5456  -10.9233    0.0000 C   0  0  0  0  0  0  0  0  0  0  0  0
   10.8311  -11.3358    0.0000 C   0  0  0  0  0  0  0  0  0  0  0  0
   10.1167  -10.9233    0.0000 C   0  0  0  0  0  0  0  0  0  0  0  0
    8.6877  -10.0983    0.0000 O   0  0  0  0  0  0  0  0  0  0  0  0
   10.8311  -12.1608    0.0000 O   0  0  0  0  0  0  0  0  0  0  0  0
   12.2601  -11.3358    0.0000 O   0  0  0  0  0  0  0  0  0  0  0  0
   12.2601   -9.6858    0.0000 O   0  0  0  0  0  0  0  0  0  0  0  0
   10.1167   -7.3758    0.0000 O   0  0  0  0  0  0  0  0  0  0  0  0
    5.0321   -7.7850    0.0000 C   0  0  0  0  0  0  0  0  0  0  0  0
    5.6155   -7.2016    0.0000 C   0  0  0  0  0  0  0  0  0  0  0  0
    5.2030   -6.4872    0.0000 C   0  0  0  0  0  0  0  0  0  0  0  0
    5.6155   -5.7727    0.0000 C   0  0  0  0  0  0  0  0  0  0  0  0
    6.4405   -5.7727    0.0000 C   0  0  0  0  0  0  0  0  0  0  0  0
    6.8530   -6.4872    0.0000 C   0  0  0  0  0  0  0  0  0  0  0  0
    6.4405   -7.2016    0.0000 C   0  0  0  0  0  0  0  0  0  0  0  0
    7.0238   -7.7850    0.0000 C   0  0  0  0  0  0  0  0  0  0  0  0
    7.0238   -8.6100    0.0000 O   0  0  0  0  0  0  0  0  0  0  0  0
    7.7589   -8.9845    0.0000 C   0  0  2  0  0  0  0  0  0  0  0  0
    7.6299   -9.7994    0.0000 C   0  0  1  0  0  0  0  0  0  0  0  0
    6.8150   -9.9284    0.0000 C   0  0  0  0  0  0  0  0  0  0  0  0
    6.4405   -9.1934    0.0000 O   0  0  0  0  0  0  0  0  0  0  0  0
    5.6155   -9.1934    0.0000 C   0  0  0  0  0  0  0  0  0  0  0  0
    5.0321   -8.6100    0.0000 C   0  0  0  0  0  0  0  0  0  0  0  0
    4.3176   -9.0225    0.0000 C   0  0  0  0  0  0  0  0  0  0  0  0
    3.6032   -8.6100    0.0000 C   0  0  0  0  0  0  0  0  0  0  0  0
    3.6032   -7.7850    0.0000 C   0  0  0  0  0  0  0  0  0  0  0  0
    4.3176   -7.3725    0.0000 C   0  0  0  0  0  0  0  0  0  0  0  0
    5.2998   -9.9556    0.0000 O   0  0  0  0  0  0  0  0  0  0  0  0
    7.7860   -7.4693    0.0000 O   0  0  0  0  0  0  0  0  0  0  0  0
    4.0355   -6.5972    0.0000 O   0  0  0  0  0  0  0  0  0  0  0  0
    2.8887   -7.3725    0.0000 O   0  0  0  0  0  0  0  0  0  0  0  0
    2.8887   -9.0225    0.0000 O   0  0  0  0  0  0  0  0  0  0  0  0
    8.2132  -10.3827    0.0000 O   0  0  0  0  0  0  0  0  0  0  0  0
    6.8530   -5.0582    0.0000 O   0  0  0  0  0  0  0  0  0  0  0  0
    5.2030   -5.0582    0.0000 O   0  0  0  0  0  0  0  0  0  0  0  0
    4.4277   -6.2050    0.0000 O   0  0  0  0  0  0  0  0  0  0  0  0
  2  3  1  0  0  0  0
  3  4  1  0  0  0  0
  6  7  1  0  0  0  0
  7  8  1  0  0  0  0
  8  9  2  0  0  0  0
  9 10  1  0  0  0  0
 10 11  2  0  0  0  0
 11 12  1  0  0  0  0
  7 12  2  0  0  0  0
  6 13  2  0  0  0  0
 11 14  1  0  0  0  0
 10 15  1  0  0  0  0
  9 16  1  0  0  0  0
  5  6  1  0  0  0  0
  2  5  1  1  0  0  0
  4 17  2  0  0  0  0
 18 19  1  0  0  0  0
 19 20  2  0  0  0  0
 20 21  1  0  0  0  0
 21 22  2  0  0  0  0
 22 23  1  0  0  0  0
 23 24  2  0  0  0  0
 24 25  1  0  0  0  0
 25 26  1  0  0  0  0
 27 26  1  1  0  0  0
 27 28  1  0  0  0  0
 28 29  1  0  0  0  0
 29 30  1  0  0  0  0
 30 31  1  0  0  0  0
 31 32  1  0  0  0  0
 32 33  2  0  0  0  0
 33 34  1  0  0  0  0
 34 35  2  0  0  0  0
 35 36  1  0  0  0  0
 18 36  2  0  0  0  0
 18 32  1  0  0  0  0
 19 24  1  0  0  0  0
 31 37  2  0  0  0  0
 25 38  2  0  0  0  0
 36 39  1  0  0  0  0
 35 40  1  0  0  0  0
 34 41  1  0  0  0  0
 28 42  1  6  0  0  0
 22 43  1  0  0  0  0
 21 44  1  0  0  0  0
 20 45  1  0  0  0  0
  2 27  1  0  0  0  0
  3  1  1  1  0  0  0
M  END
>  <cdx:fragmentId>
241

$$$$
