471123.cdx
  Mrv1902 05222410272D          

 25 27  0  0  0  0            999 V2000
    8.4230   -7.8244    0.0000 C   0  0  0  0  0  0  0  0  0  0  0  0
    9.2300   -7.6529    0.0000 C   0  0  0  0  0  0  0  0  0  0  0  0
    9.4849   -6.8683    0.0000 C   0  0  0  0  0  0  0  0  0  0  0  0
   10.2919   -6.6967    0.0000 C   0  0  0  0  0  0  0  0  0  0  0  0
   10.8439   -7.3098    0.0000 C   0  0  0  0  0  0  0  0  0  0  0  0
   10.5890   -8.0945    0.0000 C   0  0  0  0  0  0  0  0  0  0  0  0
    9.7820   -8.2660    0.0000 C   0  0  0  0  0  0  0  0  0  0  0  0
    7.8710   -7.2113    0.0000 O   0  0  0  0  0  0  0  0  0  0  0  0
    8.1680   -8.6090    0.0000 O   0  0  0  0  0  0  0  0  0  0  0  0
    7.3611   -8.7806    0.0000 C   0  0  0  0  0  0  0  0  0  0  0  0
    7.1061  -10.9001    0.0000 O   0  0  0  0  0  0  0  0  0  0  0  0
    7.5911  -10.2326    0.0000 C   0  0  0  0  0  0  0  0  0  0  0  0
    7.1061   -9.5652    0.0000 C   0  0  1  0  0  0  0  0  0  0  0  0
    6.3215   -9.8201    0.0000 C   0  0  1  0  0  0  0  0  0  0  0  0
    5.6070   -9.4076    0.0000 C   0  0  0  0  0  0  0  0  0  0  0  0
    4.8926   -9.8201    0.0000 C   0  0  0  0  0  0  0  0  0  0  0  0
    4.8926  -10.6451    0.0000 C   0  0  1  0  0  0  0  0  0  0  0  0
    5.6070  -11.0576    0.0000 C   0  0  0  0  0  0  0  0  0  0  0  0
    6.3215  -10.6451    0.0000 C   0  0  1  0  0  0  0  0  0  0  0  0
    4.1781   -9.4076    0.0000 O   0  0  0  0  0  0  0  0  0  0  0  0
    8.4161  -10.2326    0.0000 O   0  0  0  0  0  0  0  0  0  0  0  0
    4.4801  -11.3596    0.0000 C   0  0  0  0  0  0  0  0  0  0  0  0
    4.0676  -10.6451    0.0000 O   0  0  0  0  0  0  0  0  0  0  0  0
    6.3215   -8.9951    0.0000 H   0  0  0  0  0  0  0  0  0  0  0  0
    6.3215  -11.4701    0.0000 H   0  0  0  0  0  0  0  0  0  0  0  0
  1  2  1  0  0  0  0
  2  3  1  0  0  0  0
  3  4  2  0  0  0  0
  4  5  1  0  0  0  0
  5  6  2  0  0  0  0
  6  7  1  0  0  0  0
  2  7  2  0  0  0  0
  1  8  2  0  0  0  0
  1  9  1  0  0  0  0
 11 12  1  0  0  0  0
 12 13  1  0  0  0  0
 13 14  1  0  0  0  0
 14 15  1  0  0  0  0
 15 16  1  0  0  0  0
 16 17  1  0  0  0  0
 17 18  1  0  0  0  0
 18 19  1  0  0  0  0
 14 19  1  0  0  0  0
 11 19  1  0  0  0  0
 16 20  2  0  0  0  0
 12 21  2  0  0  0  0
 17 22  1  1  0  0  0
 17 23  1  6  0  0  0
 13 10  1  1  0  0  0
  9 10  1  0  0  0  0
 14 24  1  1  0  0  0
 19 25  1  1  0  0  0
M  END
>  <cdx:fragmentId>
51895

$$$$
