5471349.cdx
  Mrv1902 05222410212D          

 25 27  0  0  0  0            999 V2000
    4.8095   -3.1812    0.0000 C   0  0  0  0  0  0  0  0  0  0  0  0
    4.8095   -4.0062    0.0000 C   0  0  0  0  0  0  0  0  0  0  0  0
    5.5240   -4.4187    0.0000 C   0  0  0  0  0  0  0  0  0  0  0  0
    6.2385   -4.0062    0.0000 C   0  0  0  0  0  0  0  0  0  0  0  0
    6.9530   -4.4187    0.0000 C   0  0  0  0  0  0  0  0  0  0  0  0
    7.6674   -4.0062    0.0000 C   0  0  0  0  0  0  0  0  0  0  0  0
    7.6674   -3.1812    0.0000 C   0  0  0  0  0  0  0  0  0  0  0  0
    6.9530   -2.7687    0.0000 C   0  0  0  0  0  0  0  0  0  0  0  0
    6.2385   -3.1812    0.0000 C   0  0  0  0  0  0  0  0  0  0  0  0
    5.5240   -2.7687    0.0000 O   0  0  0  0  0  0  0  0  0  0  0  0
    8.4520   -2.9262    0.0000 O   0  0  0  0  0  0  0  0  0  0  0  0
    8.4520   -4.2611    0.0000 C   0  0  0  0  0  0  0  0  0  0  0  0
    8.9370   -3.5937    0.0000 C   0  0  0  0  0  0  0  0  0  0  0  0
    4.0951   -2.7687    0.0000 O   0  0  0  0  0  0  0  0  0  0  0  0
    6.9530   -5.2437    0.0000 O   0  0  0  0  0  0  0  0  0  0  0  0
    7.6674   -5.6562    0.0000 C   0  0  0  0  0  0  0  0  0  0  0  0
    7.6674   -6.4812    0.0000 C   0  0  0  0  0  0  0  0  0  0  0  0
    8.3819   -6.8937    0.0000 C   0  0  0  0  0  0  0  0  0  0  0  0
    8.3819   -7.7187    0.0000 C   0  0  0  0  0  0  0  0  0  0  0  0
    9.0964   -8.1312    0.0000 C   0  0  0  0  0  0  0  0  0  0  0  0
    9.0964   -8.9562    0.0000 C   0  0  0  0  0  0  0  0  0  0  0  0
    9.8108   -9.3687    0.0000 C   0  0  0  0  0  0  0  0  0  0  0  0
    9.8108  -10.1937    0.0000 C   0  0  0  0  0  0  0  0  0  0  0  0
   10.5253   -8.9562    0.0000 C   0  0  0  0  0  0  0  0  0  0  0  0
    9.0964   -6.4812    0.0000 C   0  0  0  0  0  0  0  0  0  0  0  0
  1  2  1  0  0  0  0
  2  3  2  0  0  0  0
  3  4  1  0  0  0  0
  4  5  2  0  0  0  0
  5  6  1  0  0  0  0
  6  7  2  0  0  0  0
  7  8  1  0  0  0  0
  8  9  2  0  0  0  0
  4  9  1  0  0  0  0
  9 10  1  0  0  0  0
  1 10  1  0  0  0  0
 12 13  2  0  0  0  0
 11 13  1  0  0  0  0
 12  6  1  0  0  0  0
 11  7  1  0  0  0  0
  1 14  2  0  0  0  0
 16 17  1  0  0  0  0
 17 18  2  0  0  0  0
 18 19  1  0  0  0  0
 19 20  1  0  0  0  0
 20 21  1  0  0  0  0
 21 22  2  0  0  0  0
 22 23  1  0  0  0  0
 15 16  1  0  0  0  0
 22 24  1  0  0  0  0
 18 25  1  0  0  0  0
  5 15  1  0  0  0  0
M  END
>  <cdx:groupId>
1822

>  <cdx:fragmentId>
1748

$$$$
