4713.cdx
  Mrv1902 05222410202D          

 33 35  0  0  0  0            999 V2000
    6.2882   -5.5543    0.0000 C   0  0  0  0  0  0  0  0  0  0  0  0
    5.9556   -6.3093    0.0000 C   0  0  0  0  0  0  0  0  0  0  0  0
    6.5709   -6.8589    0.0000 C   0  0  2  0  0  0  0  0  0  0  0  0
    7.2837   -6.4436    0.0000 C   0  0  1  0  0  0  0  0  0  0  0  0
    7.1090   -5.6373    0.0000 C   0  0  0  0  0  0  0  0  0  0  0  0
    6.5742   -7.6839    0.0000 C   0  0  0  0  0  0  0  0  0  0  0  0
    7.2903   -8.0936    0.0000 C   0  0  0  0  0  0  0  0  0  0  0  0
    8.0031   -7.6782    0.0000 O   0  0  0  0  0  0  0  0  0  0  0  0
    7.9998   -6.8532    0.0000 C   0  0  1  0  0  0  0  0  0  0  0  0
    5.9054   -7.3465    0.0000 H   0  0  0  0  0  0  0  0  0  0  0  0
    7.9492   -5.9560    0.0000 C   0  0  0  0  0  0  0  0  0  0  0  0
    7.6586   -5.0220    0.0000 C   0  0  0  0  0  0  0  0  0  0  0  0
    7.4005   -4.2384    0.0000 O   0  0  0  0  0  0  0  0  0  0  0  0
    5.8614   -8.0993    0.0000 C   0  0  0  0  0  0  0  0  0  0  0  0
    5.8646   -8.9242    0.0000 O   0  0  0  0  0  0  0  0  0  0  0  0
    8.7126   -6.4379    0.0000 O   0  0  0  0  0  0  0  0  0  0  0  0
    9.4288   -6.8475    0.0000 C   0  0  0  0  0  0  0  0  0  0  0  0
   10.1416   -6.4322    0.0000 C   0  0  0  0  0  0  0  0  0  0  0  0
    9.4320   -7.6725    0.0000 O   0  0  0  0  0  0  0  0  0  0  0  0
   10.8577   -6.8418    0.0000 C   0  0  0  0  0  0  0  0  0  0  0  0
   11.5705   -6.4265    0.0000 C   0  0  0  0  0  0  0  0  0  0  0  0
   10.8610   -7.6668    0.0000 C   0  0  0  0  0  0  0  0  0  0  0  0
    5.1518   -9.3396    0.0000 C   0  0  2  0  0  0  0  0  0  0  0  0
    4.4341   -8.9328    0.0000 O   0  0  0  0  0  0  0  0  0  0  0  0
    3.7229   -9.3396    0.0000 C   0  0  1  0  0  0  0  0  0  0  0  0
    3.7229  -10.1646    0.0000 C   0  0  2  0  0  0  0  0  0  0  0  0
    4.4341  -10.5714    0.0000 C   0  0  1  0  0  0  0  0  0  0  0  0
    5.1518  -10.1646    0.0000 C   0  0  1  0  0  0  0  0  0  0  0  0
    3.0093   -8.9257    0.0000 C   0  0  0  0  0  0  0  0  0  0  0  0
    4.4325  -11.3964    0.0000 O   0  0  0  0  0  0  0  0  0  0  0  0
    5.8646  -10.5799    0.0000 O   0  0  0  0  0  0  0  0  0  0  0  0
    3.0093  -10.5785    0.0000 O   0  0  0  0  0  0  0  0  0  0  0  0
    2.2940   -9.3367    0.0000 O   0  0  0  0  0  0  0  0  0  0  0  0
  1  2  1  0  0  0  0
  2  3  1  0  0  0  0
  3  4  1  0  0  0  0
  4  5  1  0  0  0  0
  5  1  2  0  0  0  0
  3  6  1  0  0  0  0
  6  7  2  0  0  0  0
  7  8  1  0  0  0  0
  8  9  1  0  0  0  0
  9  4  1  0  0  0  0
  3 10  1  1  0  0  0
  4 11  1  6  0  0  0
  5 12  1  0  0  0  0
 12 13  1  0  0  0  0
  6 14  1  0  0  0  0
 14 15  1  0  0  0  0
  9 16  1  6  0  0  0
 16 17  1  0  0  0  0
 17 18  1  0  0  0  0
 17 19  2  0  0  0  0
 18 20  1  0  0  0  0
 20 21  1  0  0  0  0
 20 22  1  0  0  0  0
 23 15  1  1  0  0  0
 23 24  1  0  0  0  0
 24 25  1  0  0  0  0
 25 26  1  0  0  0  0
 26 27  1  0  0  0  0
 27 28  1  0  0  0  0
 28 23  1  0  0  0  0
 25 29  1  1  0  0  0
 27 30  1  1  0  0  0
 28 31  1  6  0  0  0
 26 32  1  6  0  0  0
 29 33  1  0  0  0  0
M  END
>  <cdx:fragmentId>
131

$$$$
