471426.cdx
  Mrv1902 05222410232D          

 38 42  0  0  0  0            999 V2000
    6.1836  -10.0879    0.0000 H   0  0  0  0  0  0  0  0  0  0  0  0
    6.9063   -8.8552    0.0000 H   0  0  0  0  0  0  0  0  0  0  0  0
    8.3464   -6.3897    0.0000 H   0  0  0  0  0  0  0  0  0  0  0  0
    9.7862   -4.7493    0.0000 C   0  0  0  0  0  0  0  0  0  0  0  0
    9.7807   -5.5743    0.0000 C   0  0  2  0  0  0  0  0  0  0  0  0
   10.4924   -5.9915    0.0000 C   0  0  0  0  0  0  0  0  0  0  0  0
   10.4869   -6.8165    0.0000 C   0  0  0  0  0  0  0  0  0  0  0  0
    9.7697   -7.2243    0.0000 C   0  0  2  0  0  0  0  0  0  0  0  0
    9.7642   -8.0492    0.0000 C   0  0  0  0  0  0  0  0  0  0  0  0
    9.0470   -8.4570    0.0000 C   0  0  0  0  0  0  0  0  0  0  0  0
    8.3353   -8.0397    0.0000 C   0  0  2  0  0  0  0  0  0  0  0  0
    8.3353   -8.8647    0.0000 C   0  0  0  0  0  0  0  0  0  0  0  0
    8.3408   -7.2147    0.0000 C   0  0  0  0  0  0  0  0  0  0  0  0
    7.6291   -6.7974    0.0000 C   0  0  0  0  0  0  0  0  0  0  0  0
    6.9118   -7.2052    0.0000 C   0  0  0  0  0  0  0  0  0  0  0  0
    6.9063   -8.0302    0.0000 C   0  0  2  0  0  0  0  0  0  0  0  0
    6.1891   -8.4379    0.0000 C   0  0  1  0  0  0  0  0  0  0  0  0
    6.1891   -7.6129    0.0000 C   0  0  0  0  0  0  0  0  0  0  0  0
    5.4775   -8.0206    0.0000 C   0  0  0  0  0  0  0  0  0  0  0  0
    4.7602   -8.4283    0.0000 C   0  0  1  0  0  0  0  0  0  0  0  0
    4.0485   -8.0111    0.0000 O   0  0  0  0  0  0  0  0  0  0  0  0
    4.7547   -9.2533    0.0000 C   0  0  1  0  0  0  0  0  0  0  0  0
    4.0375   -9.6611    0.0000 O   0  0  0  0  0  0  0  0  0  0  0  0
    5.4664   -9.6706    0.0000 C   0  0  0  0  0  0  0  0  0  0  0  0
    5.8742  -10.3878    0.0000 C   0  0  0  0  0  0  0  0  0  0  0  0
    5.0492  -10.3823    0.0000 C   0  0  0  0  0  0  0  0  0  0  0  0
    6.1836   -9.2629    0.0000 C   0  0  2  0  0  0  0  0  0  0  0  0
    6.8953   -9.6801    0.0000 C   0  0  0  0  0  0  0  0  0  0  0  0
    7.6126   -9.2724    0.0000 C   0  0  0  0  0  0  0  0  0  0  0  0
    7.6181   -8.4474    0.0000 C   0  0  1  0  0  0  0  0  0  0  0  0
    7.6181   -7.6224    0.0000 C   0  0  0  0  0  0  0  0  0  0  0  0
    9.0580   -6.8070    0.0000 C   0  0  2  0  0  0  0  0  0  0  0  0
    9.0635   -5.9820    0.0000 C   0  0  1  0  0  0  0  0  0  0  0  0
    8.2667   -5.7685    0.0000 C   0  0  0  0  0  0  0  0  0  0  0  0
    8.8500   -5.1851    0.0000 O   0  0  0  0  0  0  0  0  0  0  0  0
   10.4814   -7.6415    0.0000 C   0  0  0  0  0  0  0  0  0  0  0  0
   11.1987   -7.2338    0.0000 O   0  0  0  0  0  0  0  0  0  0  0  0
   10.4759   -8.4665    0.0000 O   0  0  0  0  0  0  0  0  0  0  0  0
 27  1  1  6  0  0  0
 16  2  1  6  0  0  0
 32  3  1  1  0  0  0
  5  4  1  6  0  0  0
  5  6  1  0  0  0  0
  6  7  1  0  0  0  0
  7  8  1  0  0  0  0
  8  9  1  0  0  0  0
  9 10  1  0  0  0  0
 10 11  1  0  0  0  0
 11 12  1  6  0  0  0
 11 13  1  0  0  0  0
 13 14  2  0  0  0  0
 14 15  1  0  0  0  0
 16 15  1  0  0  0  0
 16 17  1  0  0  0  0
 17 18  1  1  0  0  0
 17 19  1  0  0  0  0
 19 20  1  0  0  0  0
 20 21  1  6  0  0  0
 20 22  1  0  0  0  0
 22 23  1  6  0  0  0
 22 24  1  0  0  0  0
 24 25  1  0  0  0  0
 24 26  1  0  0  0  0
 24 27  1  0  0  0  0
 17 27  1  0  0  0  0
 27 28  1  0  0  0  0
 28 29  1  0  0  0  0
 29 30  1  0  0  0  0
 11 30  1  0  0  0  0
 16 30  1  0  0  0  0
 30 31  1  1  0  0  0
 32 13  1  0  0  0  0
  8 32  1  0  0  0  0
 32 33  1  0  0  0  0
  5 33  1  0  0  0  0
 33 34  1  1  0  0  0
 33 35  1  6  0  0  0
  8 36  1  1  0  0  0
 36 37  1  0  0  0  0
 36 38  2  0  0  0  0
M  END
>  <cdx:fragmentId>
18155

$$$$
