4717.cdx
  Mrv1902 05222410182D          

 22 24  0  0  0  0            999 V2000
    4.9739   -5.1975    0.0000 C   0  0  0  0  0  0  0  0  0  0  0  0
    4.9739   -6.0225    0.0000 C   0  0  0  0  0  0  0  0  0  0  0  0
    5.6884   -6.4350    0.0000 C   0  0  0  0  0  0  0  0  0  0  0  0
    6.4028   -6.0225    0.0000 C   0  0  0  0  0  0  0  0  0  0  0  0
    6.4028   -5.1975    0.0000 C   0  0  0  0  0  0  0  0  0  0  0  0
    5.6884   -4.7850    0.0000 C   0  0  0  0  0  0  0  0  0  0  0  0
    7.1173   -6.4350    0.0000 C   0  0  0  0  0  0  0  0  0  0  0  0
    7.8318   -6.0225    0.0000 C   0  0  0  0  0  0  0  0  0  0  0  0
    7.8318   -5.1975    0.0000 C   0  0  0  0  0  0  0  0  0  0  0  0
    7.1173   -4.7850    0.0000 O   0  0  0  0  0  0  0  0  0  0  0  0
    8.5463   -6.4350    0.0000 C   0  0  0  0  0  0  0  0  0  0  0  0
    9.2607   -6.0225    0.0000 C   0  0  0  0  0  0  0  0  0  0  0  0
    8.5463   -7.2600    0.0000 C   0  0  0  0  0  0  0  0  0  0  0  0
    9.2607   -7.6725    0.0000 C   0  0  0  0  0  0  0  0  0  0  0  0
    9.9752   -7.2600    0.0000 C   0  0  0  0  0  0  0  0  0  0  0  0
    9.9752   -6.4350    0.0000 C   0  0  0  0  0  0  0  0  0  0  0  0
    7.1173   -7.2600    0.0000 O   0  0  0  0  0  0  0  0  0  0  0  0
   10.6897   -6.0225    0.0000 O   0  0  0  0  0  0  0  0  0  0  0  0
    4.2594   -4.7850    0.0000 O   0  0  0  0  0  0  0  0  0  0  0  0
    3.5450   -4.3725    0.0000 C   0  0  0  0  0  0  0  0  0  0  0  0
   10.6897   -7.6725    0.0000 O   0  0  0  0  0  0  0  0  0  0  0  0
   11.4041   -8.0850    0.0000 C   0  0  0  0  0  0  0  0  0  0  0  0
  1  2  2  0  0  0  0
  2  3  1  0  0  0  0
  3  4  2  0  0  0  0
  4  5  1  0  0  0  0
  5  6  2  0  0  0  0
  6  1  1  0  0  0  0
  4  7  1  0  0  0  0
  7  8  1  0  0  0  0
  8  9  2  0  0  0  0
  9 10  1  0  0  0  0
 10  5  1  0  0  0  0
  8 11  1  0  0  0  0
 11 12  1  0  0  0  0
 11 13  2  0  0  0  0
 13 14  1  0  0  0  0
 14 15  2  0  0  0  0
 15 16  1  0  0  0  0
 16 12  2  0  0  0  0
  7 17  2  0  0  0  0
 16 18  1  0  0  0  0
  1 19  1  0  0  0  0
 15 21  1  0  0  0  0
 19 20  1  0  0  0  0
 21 22  1  0  0  0  0
M  STY  2   1 SUP   2 SUP
M  SAL   1  2  19  20
M  SBL   1  1  21
M  SMT   1 OCH3
M  SAP   1  1  19   1  1
M  SAL   2  2  21  22
M  SBL   2  1  22
M  SMT   2 OCH3
M  SAP   2  1  21  15  1
M  END
>  <cdx:fragmentId>
5

$$$$
