471722.cdx
  Mrv1902 05222410282D          

 22 24  0  0  0  0            999 V2000
   16.5362   -8.8180    0.0000 C   0  0  0  0  0  0  0  0  0  0  0  0
   16.5362   -9.6430    0.0000 C   0  0  0  0  0  0  0  0  0  0  0  0
   15.8217  -10.0555    0.0000 C   0  0  0  0  0  0  0  0  0  0  0  0
   15.8217  -10.8805    0.0000 O   0  0  0  0  0  0  0  0  0  0  0  0
   15.1072   -9.6430    0.0000 C   0  0  0  0  0  0  0  0  0  0  0  0
   14.3928  -10.0555    0.0000 C   0  0  0  0  0  0  0  0  0  0  0  0
   13.6783   -9.6430    0.0000 C   0  0  0  0  0  0  0  0  0  0  0  0
   13.6783   -8.8180    0.0000 C   0  0  0  0  0  0  0  0  0  0  0  0
   14.3928   -8.4055    0.0000 C   0  0  0  0  0  0  0  0  0  0  0  0
   15.1072   -8.8180    0.0000 C   0  0  0  0  0  0  0  0  0  0  0  0
   15.8217   -8.4055    0.0000 O   0  0  0  0  0  0  0  0  0  0  0  0
   17.2506   -8.4055    0.0000 C   0  0  0  0  0  0  0  0  0  0  0  0
   17.2506   -7.5805    0.0000 C   0  0  0  0  0  0  0  0  0  0  0  0
   17.9651   -7.1680    0.0000 C   0  0  0  0  0  0  0  0  0  0  0  0
   18.6796   -7.5805    0.0000 C   0  0  0  0  0  0  0  0  0  0  0  0
   18.6796   -8.4055    0.0000 C   0  0  0  0  0  0  0  0  0  0  0  0
   17.9651   -8.8180    0.0000 C   0  0  0  0  0  0  0  0  0  0  0  0
   12.9638   -8.4055    0.0000 O   0  0  0  0  0  0  0  0  0  0  0  0
   12.2493   -8.8180    0.0000 C   0  0  0  0  0  0  0  0  0  0  0  0
   12.9638  -10.0555    0.0000 O   0  0  0  0  0  0  0  0  0  0  0  0
   12.2493   -9.6430    0.0000 C   0  0  0  0  0  0  0  0  0  0  0  0
   14.3928  -10.8805    0.0000 O   0  0  0  0  0  0  0  0  0  0  0  0
  1  2  2  0  0  0  0
  2  3  1  0  0  0  0
  3  4  2  0  0  0  0
  3  5  1  0  0  0  0
  5  6  1  0  0  0  0
  6  7  2  0  0  0  0
  7  8  1  0  0  0  0
  8  9  2  0  0  0  0
  9 10  1  0  0  0  0
  5 10  2  0  0  0  0
 10 11  1  0  0  0  0
  1 11  1  0  0  0  0
  1 12  1  0  0  0  0
 12 13  1  0  0  0  0
 13 14  2  0  0  0  0
 14 15  1  0  0  0  0
 15 16  2  0  0  0  0
 16 17  1  0  0  0  0
 12 17  2  0  0  0  0
 18 19  1  0  0  0  0
  8 18  1  0  0  0  0
 20 21  1  0  0  0  0
  7 20  1  0  0  0  0
  6 22  1  0  0  0  0
M  END
>  <cdx:groupId>
18356

>  <cdx:fragmentId>
18291

$$$$
