4720.cdx
  Mrv1902 05222410262D          

 20 23  0  0  0  0            999 V2000
    3.3063   -7.8592    0.0000 O   0  0  0  0  0  0  0  0  0  0  0  0
   10.0371   -7.0303    0.0000 O   0  0  0  0  0  0  0  0  0  0  0  0
    8.9658   -8.0219    0.0000 C   0  0  0  0  0  0  0  0  0  0  0  0
    9.2402   -7.2438    0.0000 C   0  0  0  0  0  0  0  0  0  0  0  0
    8.7035   -6.6172    0.0000 C   0  0  0  0  0  0  0  0  0  0  0  0
    7.8926   -6.7686    0.0000 C   0  0  0  0  0  0  0  0  0  0  0  0
    7.0695   -9.1028    0.0000 C   0  0  0  0  0  0  0  0  0  0  0  0
    7.8805   -8.9514    0.0000 O   0  0  0  0  0  0  0  0  0  0  0  0
    8.1549   -8.1733    0.0000 C   0  0  0  0  0  0  0  0  0  0  0  0
    7.6182   -7.5467    0.0000 C   0  0  0  0  0  0  0  0  0  0  0  0
    6.5329   -8.4762    0.0000 C   0  0  0  0  0  0  0  0  0  0  0  0
    6.8072   -7.6981    0.0000 C   0  0  0  0  0  0  0  0  0  0  0  0
    6.1520   -7.1968    0.0000 O   0  0  0  0  0  0  0  0  0  0  0  0
    5.1411   -9.0549    0.0000 C   0  0  0  0  0  0  0  0  0  0  0  0
    5.7081   -8.4557    0.0000 C   0  0  0  0  0  0  0  0  0  0  0  0
    5.4728   -7.6650    0.0000 C   0  0  0  0  0  0  0  0  0  0  0  0
    4.6703   -7.4735    0.0000 C   0  0  0  0  0  0  0  0  0  0  0  0
    4.1032   -8.0727    0.0000 C   0  0  0  0  0  0  0  0  0  0  0  0
    4.3386   -8.8634    0.0000 C   0  0  0  0  0  0  0  0  0  0  0  0
    3.0928   -7.0623    0.0000 C   0  0  0  0  0  0  0  0  0  0  0  0
 18  1  1  0  0  0  0
  4  2  1  0  0  0  0
  3  9  1  0  0  0  0
  4  3  2  0  0  0  0
  5  4  1  0  0  0  0
  6  5  2  0  0  0  0
 10  6  1  0  0  0  0
  7 11  1  0  0  0  0
  8  7  1  0  0  0  0
  9  8  1  0  0  0  0
 10  9  2  0  0  0  0
 12 10  1  0  0  0  0
 11 15  1  0  0  0  0
 12 11  2  0  0  0  0
 13 12  1  0  0  0  0
 16 13  1  0  0  0  0
 14 19  1  0  0  0  0
 15 14  2  0  0  0  0
 16 15  1  0  0  0  0
 17 16  2  0  0  0  0
 18 17  1  0  0  0  0
 19 18  2  0  0  0  0
  1 20  1  0  0  0  0
M  END
>  <cdx:fragmentId>
5

$$$$
