4722.cdx
  Mrv1902 05222410262D          

 41 46  0  0  0  0            999 V2000
    3.4270   -3.4238    0.0000 C   0  0  0  0  0  0  0  0  0  0  0  0
    3.4270   -4.2488    0.0000 C   0  0  0  0  0  0  0  0  0  0  0  0
    4.1415   -4.6612    0.0000 C   0  0  0  0  0  0  0  0  0  0  0  0
    4.8560   -4.2488    0.0000 C   0  0  0  0  0  0  0  0  0  0  0  0
    4.8560   -3.4238    0.0000 C   0  0  0  0  0  0  0  0  0  0  0  0
    4.1415   -3.0112    0.0000 C   0  0  0  0  0  0  0  0  0  0  0  0
    5.5704   -4.6612    0.0000 O   0  0  0  0  0  0  0  0  0  0  0  0
    6.2849   -4.2488    0.0000 C   0  0  0  0  0  0  0  0  0  0  0  0
    6.2849   -3.4238    0.0000 C   0  0  0  0  0  0  0  0  0  0  0  0
    5.5704   -3.0112    0.0000 C   0  0  0  0  0  0  0  0  0  0  0  0
    6.9994   -4.6612    0.0000 C   0  0  0  0  0  0  0  0  0  0  0  0
    7.7139   -4.2488    0.0000 C   0  0  0  0  0  0  0  0  0  0  0  0
    6.9994   -5.4862    0.0000 C   0  0  0  0  0  0  0  0  0  0  0  0
    7.7139   -5.8987    0.0000 C   0  0  0  0  0  0  0  0  0  0  0  0
    8.4283   -5.4862    0.0000 C   0  0  0  0  0  0  0  0  0  0  0  0
    8.4283   -4.6612    0.0000 C   0  0  0  0  0  0  0  0  0  0  0  0
    2.7126   -4.6612    0.0000 O   0  0  0  0  0  0  0  0  0  0  0  0
    2.7126   -5.4863    0.0000 O   0  0  0  0  0  0  0  0  0  0  0  0
    3.4270   -5.8988    0.0000 C   0  0  0  0  0  0  0  0  0  0  0  0
    4.1415   -5.4863    0.0000 C   0  0  0  0  0  0  0  0  0  0  0  0
    3.4270   -6.7237    0.0000 C   0  0  0  0  0  0  0  0  0  0  0  0
    4.1415   -7.1362    0.0000 C   0  0  0  0  0  0  0  0  0  0  0  0
    4.8560   -6.7237    0.0000 C   0  0  0  0  0  0  0  0  0  0  0  0
    4.8560   -5.8988    0.0000 C   0  0  0  0  0  0  0  0  0  0  0  0
    5.5704   -7.9612    0.0000 O   0  0  0  0  0  0  0  0  0  0  0  0
    5.5704   -7.1362    0.0000 C   0  0  0  0  0  0  0  0  0  0  0  0
    6.2849   -8.3737    0.0000 C   0  0  0  0  0  0  0  0  0  0  0  0
    6.9994   -7.9612    0.0000 C   0  0  0  0  0  0  0  0  0  0  0  0
    6.9994   -7.1362    0.0000 C   0  0  0  0  0  0  0  0  0  0  0  0
    6.2849   -6.7237    0.0000 C   0  0  0  0  0  0  0  0  0  0  0  0
    6.2849   -9.1987    0.0000 C   0  0  0  0  0  0  0  0  0  0  0  0
    6.9994   -9.6112    0.0000 C   0  0  0  0  0  0  0  0  0  0  0  0
    7.7139   -9.1987    0.0000 C   0  0  0  0  0  0  0  0  0  0  0  0
    7.7139   -8.3737    0.0000 C   0  0  0  0  0  0  0  0  0  0  0  0
    9.1428   -5.8987    0.0000 O   0  0  0  0  0  0  0  0  0  0  0  0
    5.5704   -2.1863    0.0000 O   0  0  0  0  0  0  0  0  0  0  0  0
    4.1415   -2.1863    0.0000 O   0  0  0  0  0  0  0  0  0  0  0  0
    7.7139   -6.7237    0.0000 O   0  0  0  0  0  0  0  0  0  0  0  0
    8.4283   -7.9612    0.0000 O   0  0  0  0  0  0  0  0  0  0  0  0
    6.9994  -10.4362    0.0000 O   0  0  0  0  0  0  0  0  0  0  0  0
    9.1428   -4.2488    0.0000 O   0  0  0  0  0  0  0  0  0  0  0  0
  1  2  1  0  0  0  0
  2  3  2  0  0  0  0
  3  4  1  0  0  0  0
  4  5  2  0  0  0  0
  5  6  1  0  0  0  0
  6  1  2  0  0  0  0
  4  7  1  0  0  0  0
  7  8  1  0  0  0  0
  8  9  2  0  0  0  0
  9 10  1  0  0  0  0
 10  5  1  0  0  0  0
  8 11  1  0  0  0  0
 11 12  1  0  0  0  0
 11 13  2  0  0  0  0
 13 14  1  0  0  0  0
 14 15  2  0  0  0  0
 15 16  1  0  0  0  0
 16 12  2  0  0  0  0
  2 17  1  0  0  0  0
 18 19  1  0  0  0  0
 19 20  2  0  0  0  0
 20  3  1  0  0  0  0
 19 21  1  0  0  0  0
 21 22  2  0  0  0  0
 22 23  1  0  0  0  0
 23 24  2  0  0  0  0
 24 20  1  0  0  0  0
 25 26  1  0  0  0  0
 26 23  1  0  0  0  0
 25 27  1  0  0  0  0
 27 28  1  0  0  0  0
 28 29  1  0  0  0  0
 29 30  1  0  0  0  0
 30 26  2  0  0  0  0
 27 31  2  0  0  0  0
 31 32  1  0  0  0  0
 32 33  2  0  0  0  0
 33 34  1  0  0  0  0
 34 28  2  0  0  0  0
 15 35  1  0  0  0  0
 10 36  2  0  0  0  0
  6 37  1  0  0  0  0
 29 38  2  0  0  0  0
 34 39  1  0  0  0  0
 32 40  1  0  0  0  0
 16 41  1  0  0  0  0
M  END
>  <cdx:fragmentId>
5

$$$$
