472344.cdx
  Mrv1902 05222410192D          

 22 22  0  0  0  0            999 V2000
    5.4986   -9.8252    0.0000 C   0  0  0  0  0  0  0  0  0  0  0  0
    6.2130  -10.2377    0.0000 C   0  0  0  0  0  0  0  0  0  0  0  0
    6.9275   -9.8252    0.0000 C   0  0  0  0  0  0  0  0  0  0  0  0
    7.6420  -10.2377    0.0000 C   0  0  0  0  0  0  0  0  0  0  0  0
    8.3565   -9.8252    0.0000 C   0  0  2  0  0  0  0  0  0  0  0  0
    9.0709  -10.2377    0.0000 C   0  0  0  0  0  0  0  0  0  0  0  0
    9.7854   -9.8252    0.0000 C   0  0  0  0  0  0  0  0  0  0  0  0
   10.4999  -10.2377    0.0000 C   0  0  0  0  0  0  0  0  0  0  0  0
   11.2143   -9.8252    0.0000 C   0  0  0  0  0  0  0  0  0  0  0  0
   11.9288  -10.2377    0.0000 C   0  0  0  0  0  0  0  0  0  0  0  0
   12.6433   -9.8252    0.0000 C   0  0  0  0  0  0  0  0  0  0  0  0
    6.9275   -9.0002    0.0000 O   0  0  0  0  0  0  0  0  0  0  0  0
    4.7841  -10.2377    0.0000 C   0  0  0  0  0  0  0  0  0  0  0  0
    4.0696   -9.8252    0.0000 C   0  0  0  0  0  0  0  0  0  0  0  0
    3.3552  -10.2377    0.0000 C   0  0  0  0  0  0  0  0  0  0  0  0
    3.3552  -11.0627    0.0000 C   0  0  0  0  0  0  0  0  0  0  0  0
    4.0696  -11.4752    0.0000 C   0  0  0  0  0  0  0  0  0  0  0  0
    4.7841  -11.0627    0.0000 C   0  0  0  0  0  0  0  0  0  0  0  0
    2.6407   -9.8252    0.0000 O   0  0  0  0  0  0  0  0  0  0  0  0
    1.9262  -10.2377    0.0000 C   0  0  0  0  0  0  0  0  0  0  0  0
    2.6407  -11.4752    0.0000 O   0  0  0  0  0  0  0  0  0  0  0  0
    8.3565   -9.0002    0.0000 O   0  0  0  0  0  0  0  0  0  0  0  0
  1  2  1  0  0  0  0
  2  3  1  0  0  0  0
  3  4  1  0  0  0  0
  4  5  1  0  0  0  0
  5  6  1  0  0  0  0
  6  7  1  0  0  0  0
  7  8  1  0  0  0  0
  8  9  1  0  0  0  0
  9 10  1  0  0  0  0
 10 11  1  0  0  0  0
  3 12  2  0  0  0  0
 13 14  1  0  0  0  0
 14 15  2  0  0  0  0
 15 16  1  0  0  0  0
 16 17  2  0  0  0  0
 17 18  1  0  0  0  0
 13 18  2  0  0  0  0
 19 20  1  0  0  0  0
 15 19  1  0  0  0  0
 16 21  1  0  0  0  0
  1 13  1  0  0  0  0
  5 22  1  1  0  0  0
M  END
>  <cdx:groupId>
72745

>  <cdx:fragmentId>
72682

$$$$
