4723.cdx
  Mrv1902 05222410262D          

 23 24  0  0  0  0            999 V2000
    7.0158   -5.8575    0.0000 C   0  0  0  0  0  0  0  0  0  0  0  0
    7.0158   -6.6825    0.0000 C   0  0  0  0  0  0  0  0  0  0  0  0
    7.7302   -7.0950    0.0000 C   0  0  0  0  0  0  0  0  0  0  0  0
    8.4447   -6.6825    0.0000 C   0  0  0  0  0  0  0  0  0  0  0  0
    8.4447   -5.8575    0.0000 C   0  0  0  0  0  0  0  0  0  0  0  0
    7.7302   -5.4450    0.0000 C   0  0  0  0  0  0  0  0  0  0  0  0
    6.3013   -7.0950    0.0000 O   0  0  0  0  0  0  0  0  0  0  0  0
    7.7302   -7.9200    0.0000 O   0  0  0  0  0  0  0  0  0  0  0  0
    9.1592   -5.4450    0.0000 C   0  0  0  0  0  0  0  0  0  0  0  0
    9.8737   -5.8575    0.0000 C   0  0  0  0  0  0  0  0  0  0  0  0
   10.5881   -5.4450    0.0000 C   0  0  0  0  0  0  0  0  0  0  0  0
    5.5927   -8.3325    0.0000 C   0  0  2  0  0  0  0  0  0  0  0  0
    5.5927   -9.1575    0.0000 C   0  0  2  0  0  0  0  0  0  0  0  0
    6.3071   -9.5700    0.0000 C   0  0  1  0  0  0  0  0  0  0  0  0
    7.0216   -9.1575    0.0000 C   0  0  2  0  0  0  0  0  0  0  0  0
    7.0216   -8.3325    0.0000 C   0  0  1  0  0  0  0  0  0  0  0  0
    6.3071   -7.9200    0.0000 O   0  0  0  0  0  0  0  0  0  0  0  0
    4.8782   -7.9200    0.0000 C   0  0  0  0  0  0  0  0  0  0  0  0
    6.3071  -10.3950    0.0000 O   0  0  0  0  0  0  0  0  0  0  0  0
    7.7361   -9.5700    0.0000 O   0  0  0  0  0  0  0  0  0  0  0  0
    4.8782   -9.5700    0.0000 O   0  0  0  0  0  0  0  0  0  0  0  0
    4.1637   -8.3325    0.0000 O   0  0  0  0  0  0  0  0  0  0  0  0
    5.5868   -6.6825    0.0000 C   0  0  0  0  0  0  0  0  0  0  0  0
  1  2  2  0  0  0  0
  2  3  1  0  0  0  0
  3  4  2  0  0  0  0
  4  5  1  0  0  0  0
  5  6  2  0  0  0  0
  6  1  1  0  0  0  0
  2  7  1  0  0  0  0
  3  8  1  0  0  0  0
  5  9  1  0  0  0  0
  9 10  1  0  0  0  0
 10 11  2  0  0  0  0
 12 13  1  0  0  0  0
 13 14  1  0  0  0  0
 14 15  1  0  0  0  0
 15 16  1  0  0  0  0
 16 17  1  0  0  0  0
 17 12  1  0  0  0  0
 12 18  1  1  0  0  0
 14 19  1  1  0  0  0
 15 20  1  6  0  0  0
 13 21  1  6  0  0  0
 18 22  1  0  0  0  0
 16  8  1  1  0  0  0
  7 23  1  0  0  0  0
M  END
>  <cdx:fragmentId>
5

$$$$
