4724.cdx
  Mrv1902 05222410272D          

 18 20  0  0  0  0            999 V2000
    3.5508   -7.5488    0.0000 C   0  0  0  0  0  0  0  0  0  0  0  0
    3.5508   -8.3737    0.0000 C   0  0  0  0  0  0  0  0  0  0  0  0
    4.2652   -8.7862    0.0000 C   0  0  0  0  0  0  0  0  0  0  0  0
    4.9797   -8.3737    0.0000 C   0  0  0  0  0  0  0  0  0  0  0  0
    4.9797   -7.5488    0.0000 C   0  0  0  0  0  0  0  0  0  0  0  0
    4.2652   -7.1362    0.0000 C   0  0  0  0  0  0  0  0  0  0  0  0
    5.6942   -8.7862    0.0000 C   0  0  0  0  0  0  0  0  0  0  0  0
    6.4087   -8.3737    0.0000 C   0  0  0  0  0  0  0  0  0  0  0  0
    6.4087   -7.5488    0.0000 C   0  0  0  0  0  0  0  0  0  0  0  0
    5.6942   -7.1362    0.0000 O   0  0  0  0  0  0  0  0  0  0  0  0
    7.1231   -7.1362    0.0000 C   0  0  0  0  0  0  0  0  0  0  0  0
    7.1231   -6.3113    0.0000 C   0  0  0  0  0  0  0  0  0  0  0  0
    7.8376   -7.5488    0.0000 C   0  0  0  0  0  0  0  0  0  0  0  0
    8.5521   -7.1362    0.0000 C   0  0  0  0  0  0  0  0  0  0  0  0
    8.5521   -6.3113    0.0000 C   0  0  0  0  0  0  0  0  0  0  0  0
    7.8376   -5.8988    0.0000 C   0  0  0  0  0  0  0  0  0  0  0  0
    5.6942   -9.6112    0.0000 O   0  0  0  0  0  0  0  0  0  0  0  0
    7.1231   -8.7862    0.0000 O   0  0  0  0  0  0  0  0  0  0  0  0
  1  2  1  0  0  0  0
  2  3  2  0  0  0  0
  3  4  1  0  0  0  0
  4  5  2  0  0  0  0
  5  6  1  0  0  0  0
  6  1  2  0  0  0  0
  4  7  1  0  0  0  0
  7  8  1  0  0  0  0
  8  9  1  0  0  0  0
  9 10  1  0  0  0  0
 10  5  1  0  0  0  0
  9 11  1  0  0  0  0
 11 12  1  0  0  0  0
 11 13  2  0  0  0  0
 13 14  1  0  0  0  0
 14 15  2  0  0  0  0
 15 16  1  0  0  0  0
 16 12  2  0  0  0  0
  7 17  2  0  0  0  0
  8 18  1  0  0  0  0
M  END
>  <cdx:fragmentId>
5

$$$$
