4725.cdx
  Mrv1902 05222410272D          

 22 24  0  0  0  0            999 V2000
   10.2855   -4.3404    0.0000 O   0  0  0  0  0  0  0  0  0  0  0  0
    8.8697   -3.4932    0.0000 O   0  0  0  0  0  0  0  0  0  0  0  0
    8.8309   -5.9679    0.0000 C   0  0  0  0  0  0  0  0  0  0  0  0
    9.5518   -5.5666    0.0000 C   0  0  0  0  0  0  0  0  0  0  0  0
    9.5647   -4.7417    0.0000 C   0  0  0  0  0  0  0  0  0  0  0  0
    8.8567   -4.3181    0.0000 C   0  0  0  0  0  0  0  0  0  0  0  0
    8.1359   -4.7193    0.0000 C   0  0  0  0  0  0  0  0  0  0  0  0
    6.6555   -7.9965    0.0000 O   0  0  0  0  0  0  0  0  0  0  0  0
    5.2267   -7.9742    0.0000 O   0  0  0  0  0  0  0  0  0  0  0  0
    3.1158   -5.8784    0.0000 C   0  0  0  0  0  0  0  0  0  0  0  0
    3.8367   -5.4771    0.0000 O   0  0  0  0  0  0  0  0  0  0  0  0
    8.1230   -5.5442    0.0000 C   0  0  0  0  0  0  0  0  0  0  0  0
    6.6684   -7.1716    0.0000 C   0  0  0  0  0  0  0  0  0  0  0  0
    7.3892   -6.7704    0.0000 C   0  0  0  0  0  0  0  0  0  0  0  0
    7.4021   -5.9455    0.0000 C   0  0  0  0  0  0  0  0  0  0  0  0
    6.6942   -5.5218    0.0000 O   0  0  0  0  0  0  0  0  0  0  0  0
    5.2396   -7.1493    0.0000 C   0  0  0  0  0  0  0  0  0  0  0  0
    5.9605   -6.7480    0.0000 C   0  0  0  0  0  0  0  0  0  0  0  0
    5.9734   -5.9231    0.0000 C   0  0  0  0  0  0  0  0  0  0  0  0
    5.2655   -5.4995    0.0000 C   0  0  0  0  0  0  0  0  0  0  0  0
    4.5446   -5.9007    0.0000 C   0  0  0  0  0  0  0  0  0  0  0  0
    4.5317   -6.7256    0.0000 C   0  0  0  0  0  0  0  0  0  0  0  0
  5  1  1  0  0  0  0
  6  2  1  0  0  0  0
  3 12  1  0  0  0  0
  4  3  2  0  0  0  0
  5  4  1  0  0  0  0
  6  5  2  0  0  0  0
  7  6  1  0  0  0  0
 12  7  2  0  0  0  0
 13  8  2  0  0  0  0
 17  9  1  0  0  0  0
 11 10  1  0  0  0  0
 21 11  1  0  0  0  0
 15 12  1  0  0  0  0
 13 18  1  0  0  0  0
 14 13  1  0  0  0  0
 15 14  2  0  0  0  0
 16 15  1  0  0  0  0
 19 16  1  0  0  0  0
 17 22  1  0  0  0  0
 18 17  2  0  0  0  0
 19 18  1  0  0  0  0
 20 19  2  0  0  0  0
 21 20  1  0  0  0  0
 22 21  2  0  0  0  0
M  END
>  <cdx:fragmentId>
5

$$$$
