47263.cdx
  Mrv1902 05222410232D          

 30 31  0  0  0  0            999 V2000
   16.1406  -11.9818    0.0000 C   0  0  0  0  0  0  0  0  0  0  0  0
   15.4261  -11.5693    0.0000 C   0  0  0  0  0  0  0  0  0  0  0  0
   15.4261  -10.7443    0.0000 C   0  0  0  0  0  0  0  0  0  0  0  0
   16.1406  -10.3318    0.0000 C   0  0  0  0  0  0  0  0  0  0  0  0
   16.8551  -11.5693    0.0000 C   0  0  0  0  0  0  0  0  0  0  0  0
   16.8551  -10.7443    0.0000 C   0  0  0  0  0  0  0  0  0  0  0  0
   17.6397  -10.4894    0.0000 O   0  0  0  0  0  0  0  0  0  0  0  0
   18.1246  -11.1568    0.0000 C   0  0  0  0  0  0  0  0  0  0  0  0
   17.6397  -11.8243    0.0000 O   0  0  0  0  0  0  0  0  0  0  0  0
    2.5657  -11.5693    0.0000 C   0  0  0  0  0  0  0  0  0  0  0  0
    1.8512  -10.3318    0.0000 C   0  0  0  0  0  0  0  0  0  0  0  0
    2.5657  -10.7443    0.0000 C   0  0  0  0  0  0  0  0  0  0  0  0
    3.2801  -10.3318    0.0000 C   0  0  0  0  0  0  0  0  0  0  0  0
    3.9946  -10.7443    0.0000 N   0  0  0  0  0  0  0  0  0  0  0  0
    4.7091   -9.5068    0.0000 O   0  0  0  0  0  0  0  0  0  0  0  0
   14.7117  -10.3318    0.0000 C   0  0  0  0  0  0  0  0  0  0  0  0
   13.9972  -10.7443    0.0000 C   0  0  0  0  0  0  0  0  0  0  0  0
   13.2827  -10.3318    0.0000 C   0  0  0  0  0  0  0  0  0  0  0  0
   12.5683  -10.7443    0.0000 C   0  0  0  0  0  0  0  0  0  0  0  0
   11.8538  -10.3318    0.0000 C   0  0  0  0  0  0  0  0  0  0  0  0
   11.1393  -10.7443    0.0000 C   0  0  0  0  0  0  0  0  0  0  0  0
   10.4248  -10.3318    0.0000 C   0  0  0  0  0  0  0  0  0  0  0  0
    9.7104  -10.7443    0.0000 C   0  0  0  0  0  0  0  0  0  0  0  0
    8.9959  -10.3318    0.0000 C   0  0  0  0  0  0  0  0  0  0  0  0
    8.2814  -10.7443    0.0000 C   0  0  0  0  0  0  0  0  0  0  0  0
    7.5670  -10.3318    0.0000 C   0  0  0  0  0  0  0  0  0  0  0  0
    6.8525  -10.7443    0.0000 C   0  0  0  0  0  0  0  0  0  0  0  0
    6.1380  -10.3318    0.0000 C   0  0  0  0  0  0  0  0  0  0  0  0
    5.4235  -10.7443    0.0000 C   0  0  0  0  0  0  0  0  0  0  0  0
    4.7091  -10.3318    0.0000 C   0  0  0  0  0  0  0  0  0  0  0  0
 16  3  1  0  0  0  0
  4  6  2  0  0  0  0
  1  5  2  0  0  0  0
  2  1  1  0  0  0  0
  3  2  2  0  0  0  0
  4  3  1  0  0  0  0
  9  5  1  0  0  0  0
  6  5  1  0  0  0  0
  7  6  1  0  0  0  0
  8  7  1  0  0  0  0
  9  8  1  0  0  0  0
 14 13  1  0  0  0  0
 12 10  1  0  0  0  0
 12 11  1  0  0  0  0
 13 12  1  0  0  0  0
 30 14  1  0  0  0  0
 30 15  2  0  0  0  0
 17 16  2  0  0  0  0
 18 17  1  0  0  0  0
 19 18  1  0  0  0  0
 20 19  1  0  0  0  0
 21 20  1  0  0  0  0
 22 21  1  0  0  0  0
 23 22  1  0  0  0  0
 24 23  1  0  0  0  0
 25 24  1  0  0  0  0
 26 25  1  0  0  0  0
 27 26  2  0  0  0  0
 28 27  1  0  0  0  0
 29 28  2  0  0  0  0
 30 29  1  0  0  0  0
M  END
>  <cdx:groupId>
37759

>  <cdx:fragmentId>
37671

$$$$
