4730.cdx
  Mrv1902 05222410272D          

 30 32  0  0  0  0            999 V2000
    3.5302   -7.1569    0.0000 C   0  0  0  0  0  0  0  0  0  0  0  0
    3.5302   -7.9819    0.0000 C   0  0  0  0  0  0  0  0  0  0  0  0
    4.2446   -8.3944    0.0000 C   0  0  0  0  0  0  0  0  0  0  0  0
    4.9591   -7.9819    0.0000 C   0  0  0  0  0  0  0  0  0  0  0  0
    4.9591   -7.1569    0.0000 C   0  0  0  0  0  0  0  0  0  0  0  0
    4.2446   -6.7444    0.0000 C   0  0  0  0  0  0  0  0  0  0  0  0
    5.6736   -8.3944    0.0000 C   0  0  0  0  0  0  0  0  0  0  0  0
    6.3880   -7.9819    0.0000 C   0  0  0  0  0  0  0  0  0  0  0  0
    6.3880   -7.1569    0.0000 C   0  0  0  0  0  0  0  0  0  0  0  0
    5.6736   -6.7444    0.0000 O   0  0  0  0  0  0  0  0  0  0  0  0
    7.1025   -6.7444    0.0000 C   0  0  0  0  0  0  0  0  0  0  0  0
    7.1025   -5.9194    0.0000 C   0  0  0  0  0  0  0  0  0  0  0  0
    7.8170   -7.1569    0.0000 C   0  0  0  0  0  0  0  0  0  0  0  0
    8.5315   -6.7444    0.0000 C   0  0  0  0  0  0  0  0  0  0  0  0
    8.5315   -5.9194    0.0000 C   0  0  0  0  0  0  0  0  0  0  0  0
    7.8170   -5.5069    0.0000 C   0  0  0  0  0  0  0  0  0  0  0  0
    5.6736   -9.2194    0.0000 O   0  0  0  0  0  0  0  0  0  0  0  0
    7.1025   -8.3944    0.0000 O   0  0  0  0  0  0  0  0  0  0  0  0
    2.8157   -8.3944    0.0000 O   0  0  0  0  0  0  0  0  0  0  0  0
    9.2459   -5.5069    0.0000 O   0  0  0  0  0  0  0  0  0  0  0  0
    2.8157   -6.7444    0.0000 C   0  0  0  0  0  0  0  0  0  0  0  0
    2.8157   -5.9194    0.0000 C   0  0  0  0  0  0  0  0  0  0  0  0
    9.2459   -7.1569    0.0000 C   0  0  0  0  0  0  0  0  0  0  0  0
    9.2459   -7.9819    0.0000 C   0  0  0  0  0  0  0  0  0  0  0  0
    9.9604   -8.3944    0.0000 C   0  0  0  0  0  0  0  0  0  0  0  0
   10.6749   -7.9819    0.0000 C   0  0  0  0  0  0  0  0  0  0  0  0
    9.9604   -9.2194    0.0000 C   0  0  0  0  0  0  0  0  0  0  0  0
    2.1012   -5.5069    0.0000 C   0  0  0  0  0  0  0  0  0  0  0  0
    2.1012   -4.6819    0.0000 C   0  0  0  0  0  0  0  0  0  0  0  0
    1.3867   -5.9194    0.0000 C   0  0  0  0  0  0  0  0  0  0  0  0
  1  2  2  0  0  0  0
  2  3  1  0  0  0  0
  3  4  2  0  0  0  0
  4  5  1  0  0  0  0
  5  6  2  0  0  0  0
  6  1  1  0  0  0  0
  4  7  1  0  0  0  0
  7  8  1  0  0  0  0
  8  9  1  0  0  0  0
  9 10  1  0  0  0  0
 10  5  1  0  0  0  0
  9 11  1  0  0  0  0
 11 12  2  0  0  0  0
 11 13  1  0  0  0  0
 13 14  2  0  0  0  0
 14 15  1  0  0  0  0
 15 16  2  0  0  0  0
 16 12  1  0  0  0  0
  7 17  2  0  0  0  0
  8 18  1  0  0  0  0
  2 19  1  0  0  0  0
 15 20  1  0  0  0  0
  1 21  1  0  0  0  0
 21 22  1  0  0  0  0
 14 23  1  0  0  0  0
 23 24  1  0  0  0  0
 24 25  2  0  0  0  0
 25 26  1  0  0  0  0
 25 27  1  0  0  0  0
 22 28  2  0  0  0  0
 28 29  1  0  0  0  0
 28 30  1  0  0  0  0
M  END
>  <cdx:fragmentId>
5

$$$$
