473252.cdx
  Mrv1902 05222410262D          

 19 20  0  0  0  0            999 V2000
   16.4330   -9.6725    0.0000 O   0  0  0  0  0  0  0  0  0  0  0  0
   17.1475  -10.0850    0.0000 C   0  0  0  0  0  0  0  0  0  0  0  0
   17.8620   -9.6725    0.0000 O   0  0  0  0  0  0  0  0  0  0  0  0
   17.1475  -10.9100    0.0000 C   0  0  0  0  0  0  0  0  0  0  0  0
   16.4330  -11.3225    0.0000 C   0  0  0  0  0  0  0  0  0  0  0  0
   15.7186  -10.9100    0.0000 C   0  0  0  0  0  0  0  0  0  0  0  0
   15.0041  -11.3225    0.0000 C   0  0  0  0  0  0  0  0  0  0  0  0
   14.2896  -10.9100    0.0000 C   0  0  0  0  0  0  0  0  0  0  0  0
   14.2896  -10.0850    0.0000 C   0  0  0  0  0  0  0  0  0  0  0  0
   15.0041   -9.6725    0.0000 C   0  0  0  0  0  0  0  0  0  0  0  0
   15.7186  -10.0850    0.0000 C   0  0  0  0  0  0  0  0  0  0  0  0
   15.0041   -8.8475    0.0000 C   0  0  0  0  0  0  0  0  0  0  0  0
   14.2896   -8.4350    0.0000 C   0  0  0  0  0  0  0  0  0  0  0  0
   14.2896   -7.6100    0.0000 C   0  0  0  0  0  0  0  0  0  0  0  0
   15.0041   -7.1975    0.0000 C   0  0  0  0  0  0  0  0  0  0  0  0
   13.5752   -8.8475    0.0000 O   0  0  0  0  0  0  0  0  0  0  0  0
   13.5752   -7.1975    0.0000 C   0  0  0  0  0  0  0  0  0  0  0  0
   13.5752   -9.6725    0.0000 O   0  0  0  0  0  0  0  0  0  0  0  0
   12.8607  -10.0850    0.0000 C   0  0  0  0  0  0  0  0  0  0  0  0
  1  2  1  0  0  0  0
  2  3  2  0  0  0  0
  2  4  1  0  0  0  0
  4  5  2  0  0  0  0
  5  6  1  0  0  0  0
  6  7  1  0  0  0  0
  7  8  2  0  0  0  0
  8  9  1  0  0  0  0
  9 10  2  0  0  0  0
 10 11  1  0  0  0  0
  1 11  1  0  0  0  0
  6 11  2  0  0  0  0
 12 13  1  0  0  0  0
 13 14  1  0  0  0  0
 14 15  1  0  0  0  0
 13 16  2  0  0  0  0
 14 17  1  0  0  0  0
 10 12  1  0  0  0  0
 18 19  1  0  0  0  0
  9 18  1  0  0  0  0
M  END
>  <cdx:fragmentId>
18363

$$$$
