4732.cdx
  Mrv1902 05222410282D          

 20 22  0  0  0  0            999 V2000
    5.0702   -6.9850    0.0000 C   0  0  0  0  0  0  0  0  0  0  0  0
    5.0702   -6.1600    0.0000 C   0  0  0  0  0  0  0  0  0  0  0  0
    5.7846   -5.7475    0.0000 C   0  0  0  0  0  0  0  0  0  0  0  0
    6.4991   -6.1600    0.0000 C   0  0  0  0  0  0  0  0  0  0  0  0
    6.4991   -6.9850    0.0000 C   0  0  0  0  0  0  0  0  0  0  0  0
    5.7846   -7.3975    0.0000 C   0  0  0  0  0  0  0  0  0  0  0  0
    7.2136   -5.7475    0.0000 O   0  0  0  0  0  0  0  0  0  0  0  0
    7.9280   -6.1600    0.0000 C   0  0  0  0  0  0  0  0  0  0  0  0
    7.9280   -6.9850    0.0000 C   0  0  0  0  0  0  0  0  0  0  0  0
    7.2136   -7.3975    0.0000 C   0  0  0  0  0  0  0  0  0  0  0  0
    8.6425   -7.3975    0.0000 C   0  0  0  0  0  0  0  0  0  0  0  0
    8.6425   -8.2225    0.0000 C   0  0  0  0  0  0  0  0  0  0  0  0
    7.2136   -8.2225    0.0000 O   0  0  0  0  0  0  0  0  0  0  0  0
    9.3570   -6.9850    0.0000 C   0  0  0  0  0  0  0  0  0  0  0  0
   10.0715   -7.3975    0.0000 C   0  0  0  0  0  0  0  0  0  0  0  0
   10.0715   -8.2225    0.0000 C   0  0  0  0  0  0  0  0  0  0  0  0
    9.3570   -8.6350    0.0000 C   0  0  0  0  0  0  0  0  0  0  0  0
   10.7859   -8.6350    0.0000 O   0  0  0  0  0  0  0  0  0  0  0  0
    4.3557   -5.7475    0.0000 O   0  0  0  0  0  0  0  0  0  0  0  0
   10.7859   -6.9850    0.0000 O   0  0  0  0  0  0  0  0  0  0  0  0
  1  2  1  0  0  0  0
  2  3  2  0  0  0  0
  3  4  1  0  0  0  0
  4  5  2  0  0  0  0
  5  6  1  0  0  0  0
  6  1  2  0  0  0  0
  4  7  1  0  0  0  0
  7  8  1  0  0  0  0
  8  9  2  0  0  0  0
  9 10  1  0  0  0  0
 10  5  1  0  0  0  0
  9 11  1  0  0  0  0
 11 12  1  0  0  0  0
 13 10  2  0  0  0  0
 11 14  2  0  0  0  0
 14 15  1  0  0  0  0
 15 16  2  0  0  0  0
 16 17  1  0  0  0  0
 17 12  2  0  0  0  0
 16 18  1  0  0  0  0
  2 19  1  0  0  0  0
 15 20  1  0  0  0  0
M  END
>  <cdx:fragmentId>
5

$$$$
