10473311.cdx
  Mrv1902 05222410182D          

 26 27  0  0  0  0            999 V2000
    7.0134  -15.5424    0.0000 C   0  0  0  0  0  0  0  0  0  0  0  0
    6.2989  -15.1299    0.0000 C   0  0  0  0  0  0  0  0  0  0  0  0
    5.5844  -15.5424    0.0000 C   0  0  0  0  0  0  0  0  0  0  0  0
    7.0134  -16.3674    0.0000 O   0  0  0  0  0  0  0  0  0  0  0  0
    7.7278  -15.1299    0.0000 C   0  0  0  0  0  0  0  0  0  0  0  0
    8.4423  -15.5424    0.0000 C   0  0  0  0  0  0  0  0  0  0  0  0
    9.1568  -15.1299    0.0000 C   0  0  0  0  0  0  0  0  0  0  0  0
    9.1568  -14.3049    0.0000 C   0  0  0  0  0  0  0  0  0  0  0  0
    8.4423  -13.8924    0.0000 C   0  0  0  0  0  0  0  0  0  0  0  0
    7.7278  -14.3049    0.0000 C   0  0  0  0  0  0  0  0  0  0  0  0
    9.8712  -15.5424    0.0000 C   0  0  0  0  0  0  0  0  0  0  0  0
   10.5857  -15.1299    0.0000 C   0  0  0  0  0  0  0  0  0  0  0  0
   11.3002  -15.5424    0.0000 C   0  0  0  0  0  0  0  0  0  0  0  0
   11.3002  -16.3674    0.0000 C   0  0  0  0  0  0  0  0  0  0  0  0
   12.0147  -15.1299    0.0000 C   0  0  0  0  0  0  0  0  0  0  0  0
    9.8712  -13.8924    0.0000 O   0  0  0  0  0  0  0  0  0  0  0  0
    4.8700  -15.1299    0.0000 C   0  0  0  0  0  0  0  0  0  0  0  0
    4.8700  -14.3049    0.0000 C   0  0  0  0  0  0  0  0  0  0  0  0
    4.1555  -13.8924    0.0000 C   0  0  0  0  0  0  0  0  0  0  0  0
    3.4410  -14.3049    0.0000 C   0  0  0  0  0  0  0  0  0  0  0  0
    3.4410  -15.1299    0.0000 C   0  0  0  0  0  0  0  0  0  0  0  0
    4.1555  -15.5424    0.0000 C   0  0  0  0  0  0  0  0  0  0  0  0
    5.5844  -13.8924    0.0000 O   0  0  0  0  0  0  0  0  0  0  0  0
    6.2989  -14.3049    0.0000 C   0  0  0  0  0  0  0  0  0  0  0  0
    2.7265  -13.8924    0.0000 O   0  0  0  0  0  0  0  0  0  0  0  0
    4.1555  -13.0674    0.0000 O   0  0  0  0  0  0  0  0  0  0  0  0
  1  2  1  0  0  0  0
  2  3  2  0  0  0  0
  1  4  2  0  0  0  0
  5  6  1  0  0  0  0
  6  7  2  0  0  0  0
  7  8  1  0  0  0  0
  8  9  2  0  0  0  0
  9 10  1  0  0  0  0
  5 10  2  0  0  0  0
 11 12  1  0  0  0  0
 12 13  2  0  0  0  0
 13 14  1  0  0  0  0
 13 15  1  0  0  0  0
  7 11  1  0  0  0  0
  8 16  1  0  0  0  0
  1  5  1  0  0  0  0
 17 18  1  0  0  0  0
 18 19  2  0  0  0  0
 19 20  1  0  0  0  0
 20 21  2  0  0  0  0
 21 22  1  0  0  0  0
 17 22  2  0  0  0  0
 23 24  1  0  0  0  0
 18 23  1  0  0  0  0
 20 25  1  0  0  0  0
 19 26  1  0  0  0  0
  3 17  1  0  0  0  0
M  END
>  <cdx:fragmentId>
51964

$$$$
