473436.cdx
  Mrv1902 05222410232D          

 33 36  0  0  0  0            999 V2000
    5.3091   -7.7822    0.0000 O   0  0  0  0  0  0  0  0  0  0  0  0
    3.8603   -5.3188    0.0000 O   0  0  0  0  0  0  0  0  0  0  0  0
   10.2803   -4.0295    0.0000 O   0  0  0  0  0  0  0  0  0  0  0  0
   11.0048   -5.2612    0.0000 C   0  0  0  0  0  0  0  0  0  0  0  0
   10.2936   -5.6794    0.0000 O   0  0  0  0  0  0  0  0  0  0  0  0
    8.1403   -4.4593    0.0000 C   0  0  0  0  0  0  0  0  0  0  0  0
    8.8514   -4.0410    0.0000 C   0  0  0  0  0  0  0  0  0  0  0  0
    9.5692   -4.4477    0.0000 C   0  0  0  0  0  0  0  0  0  0  0  0
    9.5759   -5.2727    0.0000 C   0  0  0  0  0  0  0  0  0  0  0  0
    8.8647   -5.6910    0.0000 C   0  0  0  0  0  0  0  0  0  0  0  0
    8.1470   -5.2842    0.0000 C   0  0  0  0  0  0  0  0  0  0  0  0
    9.5958   -7.7476    0.0000 O   0  0  0  0  0  0  0  0  0  0  0  0
    9.6091   -9.3976    0.0000 O   0  0  0  0  0  0  0  0  0  0  0  0
    8.1868  -10.2341    0.0000 O   0  0  0  0  0  0  0  0  0  0  0  0
    6.7513   -9.4206    0.0000 C   0  0  0  0  0  0  0  0  0  0  0  0
    7.4624   -9.0024    0.0000 C   0  0  1  0  0  0  0  0  0  0  0  0
    8.1802   -9.4091    0.0000 C   0  0  1  0  0  0  0  0  0  0  0  0
    8.8913   -8.9908    0.0000 C   0  0  2  0  0  0  0  0  0  0  0  0
    8.8847   -8.1659    0.0000 C   0  0  2  0  0  0  0  0  0  0  0  0
    8.1669   -7.7591    0.0000 C   0  0  1  0  0  0  0  0  0  0  0  0
    7.4558   -8.1774    0.0000 O   0  0  0  0  0  0  0  0  0  0  0  0
    8.1603   -6.9342    0.0000 O   0  0  0  0  0  0  0  0  0  0  0  0
    6.7380   -7.7707    0.0000 O   0  0  0  0  0  0  0  0  0  0  0  0
    6.7181   -5.2957    0.0000 O   0  0  0  0  0  0  0  0  0  0  0  0
    6.0069   -5.7140    0.0000 C   0  0  0  0  0  0  0  0  0  0  0  0
    5.2892   -5.3072    0.0000 C   0  0  0  0  0  0  0  0  0  0  0  0
    4.5780   -5.7255    0.0000 C   0  0  0  0  0  0  0  0  0  0  0  0
    4.5847   -6.5505    0.0000 C   0  0  0  0  0  0  0  0  0  0  0  0
    5.3025   -6.9572    0.0000 C   0  0  0  0  0  0  0  0  0  0  0  0
    6.0136   -6.5389    0.0000 C   0  0  0  0  0  0  0  0  0  0  0  0
    6.7314   -6.9457    0.0000 C   0  0  0  0  0  0  0  0  0  0  0  0
    7.4425   -6.5274    0.0000 C   0  0  1  0  0  0  0  0  0  0  0  0
    7.4358   -5.7025    0.0000 C   0  0  1  0  0  0  0  0  0  0  0  0
 29  1  1  0  0  0  0
 27  2  1  0  0  0  0
 33 11  1  6  0  0  0
  8  3  1  0  0  0  0
  9  5  1  0  0  0  0
  5  4  1  0  0  0  0
 11  6  2  0  0  0  0
  7  6  1  0  0  0  0
  8  7  2  0  0  0  0
  9  8  1  0  0  0  0
 10  9  2  0  0  0  0
 11 10  1  0  0  0  0
 32 22  1  1  0  0  0
 20 22  1  1  0  0  0
 19 12  1  6  0  0  0
 18 13  1  6  0  0  0
 17 14  1  1  0  0  0
 16 15  1  6  0  0  0
 21 16  1  0  0  0  0
 17 16  1  0  0  0  0
 18 17  1  0  0  0  0
 19 18  1  0  0  0  0
 20 19  1  0  0  0  0
 21 20  1  0  0  0  0
 31 23  2  0  0  0  0
 33 24  1  0  0  0  0
 25 24  1  0  0  0  0
 30 25  2  0  0  0  0
 26 25  1  0  0  0  0
 27 26  2  0  0  0  0
 28 27  1  0  0  0  0
 29 28  2  0  0  0  0
 30 29  1  0  0  0  0
 31 30  1  0  0  0  0
 32 31  1  0  0  0  0
 33 32  1  0  0  0  0
M  END
>  <cdx:fragmentId>
245943

$$$$
