473624.cdx
  Mrv1902 05222410262D          

 37 39  0  0  0  0            999 V2000
    8.1789   -9.8495    0.0000 C   0  0  0  0  0  0  0  0  0  0  0  0
    8.9407   -6.9742    0.0000 C   0  0  0  0  0  0  0  0  0  0  0  0
    9.6483   -7.3983    0.0000 C   0  0  0  0  0  0  0  0  0  0  0  0
   10.3694   -6.9976    0.0000 C   0  0  0  0  0  0  0  0  0  0  0  0
    6.7501  -10.6511    0.0000 O   0  0  0  0  0  0  0  0  0  0  0  0
    6.7095  -12.3007    0.0000 O   0  0  0  0  0  0  0  0  0  0  0  0
    9.5534  -13.1726    0.0000 C   0  0  0  0  0  0  0  0  0  0  0  0
    9.5670  -12.3477    0.0000 O   0  0  0  0  0  0  0  0  0  0  0  0
    8.8729  -11.0986    0.0000 C   0  0  0  0  0  0  0  0  0  0  0  0
    8.8594  -11.9235    0.0000 C   0  0  0  0  0  0  0  0  0  0  0  0
    8.1382  -12.3242    0.0000 C   0  0  0  0  0  0  0  0  0  0  0  0
    7.4306  -11.9000    0.0000 C   0  0  0  0  0  0  0  0  0  0  0  0
    7.4442  -11.0751    0.0000 C   0  0  0  0  0  0  0  0  0  0  0  0
    8.1653  -10.6744    0.0000 C   0  0  0  0  0  0  0  0  0  0  0  0
    7.4713   -9.4254    0.0000 C   0  0  0  0  0  0  0  0  0  0  0  0
    6.7501   -9.8261    0.0000 C   0  0  0  0  0  0  0  0  0  0  0  0
   11.0770   -7.4218    0.0000 O   0  0  0  0  0  0  0  0  0  0  0  0
    6.0967   -6.1023    0.0000 C   0  0  0  0  0  0  0  0  0  0  0  0
    6.0832   -6.9272    0.0000 O   0  0  0  0  0  0  0  0  0  0  0  0
    6.7908   -7.3514    0.0000 C   0  0  0  0  0  0  0  0  0  0  0  0
    7.5119   -6.9507    0.0000 C   0  0  0  0  0  0  0  0  0  0  0  0
    8.2195   -7.3749    0.0000 C   0  0  0  0  0  0  0  0  0  0  0  0
    8.2060   -8.1998    0.0000 C   0  0  0  0  0  0  0  0  0  0  0  0
    7.4848   -8.6005    0.0000 C   0  0  0  0  0  0  0  0  0  0  0  0
    6.7772   -8.1763    0.0000 C   0  0  0  0  0  0  0  0  0  0  0  0
    6.0561   -8.5770    0.0000 O   0  0  0  0  0  0  0  0  0  0  0  0
    4.0846   -5.4955    0.0000 O   0  0  0  0  0  0  0  0  0  0  0  0
    4.6680   -6.0789    0.0000 C   0  0  0  0  0  0  0  0  0  0  0  0
    3.2257   -6.8803    0.0000 O   0  0  0  0  0  0  0  0  0  0  0  0
    3.1986   -8.5301    0.0000 O   0  0  0  0  0  0  0  0  0  0  0  0
    4.6138   -9.3784    0.0000 O   0  0  0  0  0  0  0  0  0  0  0  0
    4.6544   -6.9038    0.0000 C   0  0  2  0  0  0  0  0  0  0  0  0
    3.9333   -7.3045    0.0000 C   0  0  2  0  0  0  0  0  0  0  0  0
    3.9197   -8.1294    0.0000 C   0  0  1  0  0  0  0  0  0  0  0  0
    4.6273   -8.5535    0.0000 C   0  0  2  0  0  0  0  0  0  0  0  0
    5.3485   -8.1528    0.0000 C   0  0  1  0  0  0  0  0  0  0  0  0
    5.3620   -7.3279    0.0000 O   0  0  0  0  0  0  0  0  0  0  0  0
 36 26  1  1  0  0  0
 24 15  1  0  0  0  0
 16  5  1  0  0  0  0
 12  6  1  0  0  0  0
 10  8  1  0  0  0  0
  8  7  1  0  0  0  0
 14  9  2  0  0  0  0
 10  9  1  0  0  0  0
 11 10  2  0  0  0  0
 12 11  1  0  0  0  0
 13 12  2  0  0  0  0
 14 13  1  0  0  0  0
 15  1  1  0  0  0  0
 16 15  1  0  0  0  0
 22  2  1  0  0  0  0
 20 19  1  0  0  0  0
 19 18  1  0  0  0  0
 26 25  1  0  0  0  0
 25 20  2  0  0  0  0
 21 20  1  0  0  0  0
 22 21  2  0  0  0  0
 23 22  1  0  0  0  0
 24 23  2  0  0  0  0
 25 24  1  0  0  0  0
 32 28  1  1  0  0  0
 28 27  1  0  0  0  0
 33 29  1  6  0  0  0
 34 30  1  1  0  0  0
 35 31  1  6  0  0  0
 37 32  1  0  0  0  0
 33 32  1  0  0  0  0
 34 33  1  0  0  0  0
 35 34  1  0  0  0  0
 36 35  1  0  0  0  0
 37 36  1  0  0  0  0
  1 14  1  0  0  0  0
  2  3  2  0  0  0  0
  3  4  1  0  0  0  0
  4 17  1  0  0  0  0
M  END
>  <cdx:fragmentId>
39647

$$$$
