4737.cdx
  Mrv1902 05222410262D          

 30 33  0  0  0  0            999 V2000
    7.8071   -8.7638    0.0000 O   0  0  0  0  0  0  0  0  0  0  0  0
    3.0388   -6.5542    0.0000 O   0  0  0  0  0  0  0  0  0  0  0  0
    4.4678   -6.5550    0.0000 O   0  0  0  0  0  0  0  0  0  0  0  0
    3.7531   -6.9671    0.0000 C   0  0  0  0  0  0  0  0  0  0  0  0
    3.7526   -7.7921    0.0000 C   0  0  0  0  0  0  0  0  0  0  0  0
    4.4669   -8.2050    0.0000 C   0  0  0  0  0  0  0  0  0  0  0  0
    5.8967   -6.5558    0.0000 C   0  0  0  0  0  0  0  0  0  0  0  0
    5.1820   -6.9679    0.0000 C   0  0  0  0  0  0  0  0  0  0  0  0
    5.1816   -7.7929    0.0000 C   0  0  0  0  0  0  0  0  0  0  0  0
    5.8958   -8.2058    0.0000 C   0  0  0  0  0  0  0  0  0  0  0  0
    7.3957   -6.7142    0.0000 O   0  0  0  0  0  0  0  0  0  0  0  0
    6.6110   -6.9687    0.0000 C   0  0  0  0  0  0  0  0  0  0  0  0
    6.6105   -7.7937    0.0000 C   0  0  0  0  0  0  0  0  0  0  0  0
    7.3950   -8.0491    0.0000 C   0  0  0  0  0  0  0  0  0  0  0  0
    7.8803   -7.3820    0.0000 C   0  0  0  0  0  0  0  0  0  0  0  0
    8.7057   -6.5574    0.0000 C   0  0  0  0  0  0  0  0  0  0  0  0
    8.7048   -8.2074    0.0000 C   0  0  0  0  0  0  0  0  0  0  0  0
    8.7053   -7.3824    0.0000 C   0  0  0  0  0  0  0  0  0  0  0  0
    9.9416   -9.5265    0.0000 C   0  0  2  0  0  0  0  0  0  0  0  0
   10.7666   -9.5270    0.0000 C   0  0  2  0  0  0  0  0  0  0  0  0
   11.1795   -8.8128    0.0000 C   0  0  1  0  0  0  0  0  0  0  0  0
   10.7674   -8.0981    0.0000 C   0  0  2  0  0  0  0  0  0  0  0  0
    9.9424   -8.0976    0.0000 C   0  0  1  0  0  0  0  0  0  0  0  0
    9.5295   -8.8118    0.0000 O   0  0  0  0  0  0  0  0  0  0  0  0
    9.5303   -7.3829    0.0000 O   0  0  0  0  0  0  0  0  0  0  0  0
    9.5287  -10.2408    0.0000 C   0  0  0  0  0  0  0  0  0  0  0  0
   12.0045   -8.8132    0.0000 O   0  0  0  0  0  0  0  0  0  0  0  0
   11.1803   -7.3838    0.0000 O   0  0  0  0  0  0  0  0  0  0  0  0
   11.1787  -10.2417    0.0000 O   0  0  0  0  0  0  0  0  0  0  0  0
    9.9408  -10.9555    0.0000 O   0  0  0  0  0  0  0  0  0  0  0  0
 14  1  1  0  0  0  0
  4  2  2  0  0  0  0
  3  8  1  0  0  0  0
  4  3  1  0  0  0  0
  5  4  1  0  0  0  0
  6  5  2  0  0  0  0
  9  6  1  0  0  0  0
  7 12  1  0  0  0  0
  8  7  2  0  0  0  0
  9  8  1  0  0  0  0
 10  9  2  0  0  0  0
 13 10  1  0  0  0  0
 11 15  1  0  0  0  0
 12 11  1  0  0  0  0
 13 12  2  0  0  0  0
 14 13  1  0  0  0  0
 15 14  1  0  0  0  0
 18 15  1  0  0  0  0
 18 16  1  0  0  0  0
 18 17  1  0  0  0  0
 25 18  1  0  0  0  0
 19 20  1  0  0  0  0
 20 21  1  0  0  0  0
 21 22  1  0  0  0  0
 22 23  1  0  0  0  0
 23 24  1  0  0  0  0
 24 19  1  0  0  0  0
 23 25  1  1  0  0  0
 19 26  1  1  0  0  0
 21 27  1  1  0  0  0
 22 28  1  6  0  0  0
 20 29  1  6  0  0  0
 26 30  1  0  0  0  0
M  END
>  <cdx:fragmentId>
5

$$$$
