473944.cdx
  Mrv1902 05222410212D          

 37 42  0  0  0  0            999 V2000
    6.7976   -9.1451    0.0000 C   0  0  1  0  0  0  0  0  0  0  0  0
    7.5121   -8.7326    0.0000 C   0  0  2  0  0  0  0  0  0  0  0  0
    8.2967   -8.9875    0.0000 C   0  0  0  0  0  0  0  0  0  0  0  0
    8.7816   -8.3201    0.0000 C   0  0  2  0  0  0  0  0  0  0  0  0
    9.5663   -8.0652    0.0000 O   0  0  0  0  0  0  0  0  0  0  0  0
    9.5663   -7.2402    0.0000 C   0  0  2  0  0  0  0  0  0  0  0  0
    8.7816   -6.9852    0.0000 C   0  0  2  0  0  0  0  0  0  0  0  0
    8.2967   -7.6527    0.0000 C   0  0  2  0  0  0  0  0  0  0  0  0
    7.5121   -7.9076    0.0000 C   0  0  1  0  0  0  0  0  0  0  0  0
    6.7976   -7.4951    0.0000 C   0  0  0  0  0  0  0  0  0  0  0  0
    6.0832   -7.9076    0.0000 C   0  0  0  0  0  0  0  0  0  0  0  0
    6.0832   -8.7326    0.0000 C   0  0  2  0  0  0  0  0  0  0  0  0
    5.3687   -9.1451    0.0000 C   0  0  1  0  0  0  0  0  0  0  0  0
    4.6542   -8.7326    0.0000 C   0  0  0  0  0  0  0  0  0  0  0  0
    3.9397   -9.1451    0.0000 C   0  0  0  0  0  0  0  0  0  0  0  0
    3.9397   -9.9701    0.0000 C   0  0  1  0  0  0  0  0  0  0  0  0
    4.6542  -10.3826    0.0000 C   0  0  0  0  0  0  0  0  0  0  0  0
    5.3687   -9.9701    0.0000 C   0  0  2  0  0  0  0  0  0  0  0  0
    6.0832  -10.3826    0.0000 C   0  0  0  0  0  0  0  0  0  0  0  0
    6.7976   -9.9701    0.0000 C   0  0  0  0  0  0  0  0  0  0  0  0
    9.4800   -6.4197    0.0000 O   0  0  0  0  0  0  0  0  0  0  0  0
   10.3199   -7.5757    0.0000 C   0  0  0  0  0  0  0  0  0  0  0  0
   10.9874   -7.0908    0.0000 C   0  0  0  0  0  0  0  0  0  0  0  0
   10.9011   -6.2703    0.0000 C   0  0  1  0  0  0  0  0  0  0  0  0
   10.1475   -5.9348    0.0000 C   0  0  0  0  0  0  0  0  0  0  0  0
    6.7976   -6.6701    0.0000 O   0  0  0  0  0  0  0  0  0  0  0  0
    5.3687   -8.3201    0.0000 C   0  0  0  0  0  0  0  0  0  0  0  0
    7.5121   -7.0826    0.0000 C   0  0  0  0  0  0  0  0  0  0  0  0
    8.5267   -6.2006    0.0000 C   0  0  0  0  0  0  0  0  0  0  0  0
   11.5686   -5.7854    0.0000 C   0  0  0  0  0  0  0  0  0  0  0  0
    9.2666   -8.9875    0.0000 C   0  0  0  0  0  0  0  0  0  0  0  0
    3.2253  -10.3826    0.0000 O   0  0  0  0  0  0  0  0  0  0  0  0
    6.7976   -8.3201    0.0000 H   0  0  0  0  0  0  0  0  0  0  0  0
    7.5121   -9.5576    0.0000 H   0  0  0  0  0  0  0  0  0  0  0  0
    7.9351   -6.9112    0.0000 H   0  0  0  0  0  0  0  0  0  0  0  0
    6.0832   -9.5576    0.0000 H   0  0  0  0  0  0  0  0  0  0  0  0
    5.3687  -10.7951    0.0000 H   0  0  0  0  0  0  0  0  0  0  0  0
  1  2  1  0  0  0  0
  2  3  1  0  0  0  0
  3  4  1  0  0  0  0
  4  5  1  0  0  0  0
  6  5  1  6  0  0  0
  6  7  1  0  0  0  0
  7  8  1  0  0  0  0
  8  9  1  0  0  0  0
  9 10  1  0  0  0  0
 10 11  1  0  0  0  0
 11 12  1  0  0  0  0
 12 13  1  0  0  0  0
 13 14  1  0  0  0  0
 14 15  1  0  0  0  0
 15 16  1  0  0  0  0
 16 17  1  0  0  0  0
 17 18  1  0  0  0  0
 18 19  1  0  0  0  0
 19 20  1  0  0  0  0
  1 20  1  0  0  0  0
  1 12  1  0  0  0  0
 13 18  1  0  0  0  0
  2  9  1  0  0  0  0
  4  8  1  0  0  0  0
 22 23  1  0  0  0  0
 23 24  1  0  0  0  0
 24 25  1  0  0  0  0
 21 25  1  0  0  0  0
  6 21  1  0  0  0  0
  6 22  1  0  0  0  0
 10 26  2  0  0  0  0
 13 27  1  1  0  0  0
  9 28  1  1  0  0  0
  7 29  1  6  0  0  0
 24 30  1  1  0  0  0
  4 31  1  6  0  0  0
 16 32  1  1  0  0  0
  1 33  1  1  0  0  0
  2 34  1  6  0  0  0
  8 35  1  6  0  0  0
 12 36  1  6  0  0  0
 18 37  1  6  0  0  0
M  END
>  <cdx:groupId>
211880

>  <cdx:fragmentId>
211767

$$$$
