4747.cdx
  Mrv1902 05222410252D          

 71 82  0  0  0  0            999 V2000
    4.8405   -6.1600    0.0000 C   0  0  0  0  0  0  0  0  0  0  0  0
    4.8405   -6.9850    0.0000 C   0  0  0  0  0  0  0  0  0  0  0  0
    5.5550   -7.3975    0.0000 C   0  0  0  0  0  0  0  0  0  0  0  0
    6.2695   -6.9850    0.0000 C   0  0  0  0  0  0  0  0  0  0  0  0
    6.2695   -6.1600    0.0000 C   0  0  0  0  0  0  0  0  0  0  0  0
    5.5550   -5.7475    0.0000 C   0  0  0  0  0  0  0  0  0  0  0  0
    6.9839   -5.7475    0.0000 O   0  0  0  0  0  0  0  0  0  0  0  0
    7.4250   -4.7575    0.0000 C   0  0  0  0  0  0  0  0  0  0  0  0
    8.0850   -5.9950    0.0000 C   0  0  2  0  0  0  0  0  0  0  0  0
    8.1675   -5.1425    0.0000 C   0  0  2  0  0  0  0  0  0  0  0  0
    7.2600   -5.2250    0.0000 C   0  0  0  0  0  0  0  0  0  0  0  0
    7.0400   -4.0975    0.0000 C   0  0  0  0  0  0  0  0  0  0  0  0
    6.5725   -4.7575    0.0000 C   0  0  0  0  0  0  0  0  0  0  0  0
    6.3525   -4.0150    0.0000 C   0  0  0  0  0  0  0  0  0  0  0  0
    5.7337   -3.4694    0.0000 O   0  0  0  0  0  0  0  0  0  0  0  0
    8.8703   -6.3369    0.0000 C   0  0  1  0  0  0  0  0  0  0  0  0
    9.4381   -5.6957    0.0000 C   0  0  2  0  0  0  0  0  0  0  0  0
    9.0038   -4.9575    0.0000 C   0  0  2  0  0  0  0  0  0  0  0  0
    9.3331   -4.2011    0.0000 C   0  0  0  0  0  0  0  0  0  0  0  0
   10.2593   -5.7752    0.0000 C   0  0  0  0  0  0  0  0  0  0  0  0
    9.0485   -7.1424    0.0000 C   0  0  0  0  0  0  0  0  0  0  0  0
   10.1528   -4.1081    0.0000 C   0  0  0  0  0  0  0  0  0  0  0  0
   10.4822   -3.3517    0.0000 C   0  0  0  0  0  0  0  0  0  0  0  0
    9.9918   -2.6883    0.0000 C   0  0  0  0  0  0  0  0  0  0  0  0
    9.1720   -2.7813    0.0000 C   0  0  0  0  0  0  0  0  0  0  0  0
    8.8427   -3.5377    0.0000 C   0  0  0  0  0  0  0  0  0  0  0  0
   10.3211   -1.9319    0.0000 O   0  0  0  0  0  0  0  0  0  0  0  0
   10.6010   -6.5261    0.0000 C   0  0  0  0  0  0  0  0  0  0  0  0
   11.4222   -6.6055    0.0000 C   0  0  0  0  0  0  0  0  0  0  0  0
   11.9016   -5.9341    0.0000 C   0  0  0  0  0  0  0  0  0  0  0  0
   11.5598   -5.1832    0.0000 C   0  0  0  0  0  0  0  0  0  0  0  0
   10.7387   -5.1038    0.0000 C   0  0  0  0  0  0  0  0  0  0  0  0
   12.0392   -4.5118    0.0000 O   0  0  0  0  0  0  0  0  0  0  0  0
   11.7640   -7.3564    0.0000 O   0  0  0  0  0  0  0  0  0  0  0  0
    8.4399   -7.6995    0.0000 C   0  0  0  0  0  0  0  0  0  0  0  0
    8.6181   -8.5050    0.0000 C   0  0  0  0  0  0  0  0  0  0  0  0
    9.4048   -8.7535    0.0000 C   0  0  0  0  0  0  0  0  0  0  0  0
   10.0133   -8.1964    0.0000 C   0  0  0  0  0  0  0  0  0  0  0  0
    9.8352   -7.3909    0.0000 C   0  0  0  0  0  0  0  0  0  0  0  0
   10.8000   -8.4449    0.0000 O   0  0  0  0  0  0  0  0  0  0  0  0
    8.0096   -9.0621    0.0000 O   0  0  0  0  0  0  0  0  0  0  0  0
    8.0025   -6.8475    0.0000 H   0  0  0  0  0  0  0  0  0  0  0  0
    4.1261   -5.7475    0.0000 O   0  0  0  0  0  0  0  0  0  0  0  0
    4.2274   -7.5370    0.0000 C   0  0  2  0  0  0  0  0  0  0  0  0
    4.5630   -8.2907    0.0000 C   0  0  1  0  0  0  0  0  0  0  0  0
    5.3835   -8.2045    0.0000 C   0  0  2  0  0  0  0  0  0  0  0  0
    4.3915   -9.0977    0.0000 C   0  0  0  0  0  0  0  0  0  0  0  0
    5.1059   -9.5102    0.0000 C   0  0  0  0  0  0  0  0  0  0  0  0
    5.7190   -8.9581    0.0000 C   0  0  1  0  0  0  0  0  0  0  0  0
    3.6770   -9.5102    0.0000 C   0  0  0  0  0  0  0  0  0  0  0  0
    3.6770  -10.3352    0.0000 C   0  0  0  0  0  0  0  0  0  0  0  0
    4.3915  -10.7477    0.0000 C   0  0  0  0  0  0  0  0  0  0  0  0
    5.1059  -10.3352    0.0000 C   0  0  0  0  0  0  0  0  0  0  0  0
    6.5260   -9.1297    0.0000 C   0  0  0  0  0  0  0  0  0  0  0  0
    6.7809   -9.9143    0.0000 C   0  0  0  0  0  0  0  0  0  0  0  0
    7.5879  -10.0858    0.0000 C   0  0  0  0  0  0  0  0  0  0  0  0
    8.1399   -9.4727    0.0000 C   0  0  0  0  0  0  0  0  0  0  0  0
    7.8850   -8.6881    0.0000 C   0  0  0  0  0  0  0  0  0  0  0  0
    7.0780   -8.5166    0.0000 C   0  0  0  0  0  0  0  0  0  0  0  0
    8.9469   -9.6443    0.0000 O   0  0  0  0  0  0  0  0  0  0  0  0
    5.8204  -10.7477    0.0000 O   0  0  0  0  0  0  0  0  0  0  0  0
    2.9625  -10.7477    0.0000 O   0  0  0  0  0  0  0  0  0  0  0  0
    3.7425   -8.3769    0.0000 H   0  0  0  0  0  0  0  0  0  0  0  0
    6.2040   -8.1182    0.0000 H   0  0  0  0  0  0  0  0  0  0  0  0
    3.4205   -7.3655    0.0000 C   0  0  0  0  0  0  0  0  0  0  0  0
    3.1655   -6.5809    0.0000 C   0  0  0  0  0  0  0  0  0  0  0  0
    2.3586   -6.4094    0.0000 C   0  0  0  0  0  0  0  0  0  0  0  0
    1.8065   -7.0225    0.0000 C   0  0  0  0  0  0  0  0  0  0  0  0
    2.0615   -7.8071    0.0000 C   0  0  0  0  0  0  0  0  0  0  0  0
    2.8684   -7.9786    0.0000 C   0  0  0  0  0  0  0  0  0  0  0  0
    0.9995   -6.8509    0.0000 O   0  0  0  0  0  0  0  0  0  0  0  0
  1  2  1  0  0  0  0
  2  3  2  0  0  0  0
  3  4  1  0  0  0  0
  5  4  1  6  0  0  0
  5  6  1  6  0  0  0
  6  1  1  0  0  0  0
  5  7  2  0  0  0  0
  6  8  1  0  0  0  0
  4  9  1  0  0  0  0
  9 10  1  0  0  0  0
 10  8  1  0  0  0  0
 10 11  1  1  0  0  0
  8 12  1  0  0  0  0
 11 13  2  0  0  0  0
 12 14  1  0  0  0  0
 14 13  1  1  0  0  0
 14 15  2  0  0  0  0
  9 16  1  0  0  0  0
 16 17  1  0  0  0  0
 17 18  1  0  0  0  0
 18 10  1  0  0  0  0
 18 19  1  1  0  0  0
 17 20  1  6  0  0  0
 16 21  1  1  0  0  0
 19 22  2  0  0  0  0
 22 23  1  0  0  0  0
 23 24  2  0  0  0  0
 24 25  1  0  0  0  0
 25 26  2  0  0  0  0
 26 19  1  0  0  0  0
 24 27  1  0  0  0  0
 20 28  2  0  0  0  0
 28 29  1  0  0  0  0
 29 30  2  0  0  0  0
 30 31  1  0  0  0  0
 31 32  2  0  0  0  0
 32 20  1  0  0  0  0
 31 33  1  0  0  0  0
 29 34  1  0  0  0  0
 21 35  2  0  0  0  0
 35 36  1  0  0  0  0
 36 37  2  0  0  0  0
 37 38  1  0  0  0  0
 38 39  2  0  0  0  0
 39 21  1  0  0  0  0
 38 40  1  0  0  0  0
 36 41  1  0  0  0  0
  9 42  1  1  0  0  0
  1 43  2  0  0  0  0
  2 44  1  0  0  0  0
 44 45  1  0  0  0  0
 45 46  1  0  0  0  0
 46  3  1  0  0  0  0
 45 47  1  0  0  0  0
 47 48  2  0  0  0  0
 48 49  1  0  0  0  0
 49 46  1  0  0  0  0
 47 50  1  0  0  0  0
 50 51  2  0  0  0  0
 51 52  1  0  0  0  0
 52 53  2  0  0  0  0
 53 48  1  0  0  0  0
 49 54  1  6  0  0  0
 54 55  2  0  0  0  0
 55 56  1  0  0  0  0
 56 57  2  0  0  0  0
 57 58  1  0  0  0  0
 58 59  2  0  0  0  0
 59 54  1  0  0  0  0
 57 60  1  0  0  0  0
 53 61  1  0  0  0  0
 51 62  1  0  0  0  0
 45 63  1  6  0  0  0
 46 64  1  6  0  0  0
 44 65  1  6  0  0  0
 65 66  2  0  0  0  0
 66 67  1  0  0  0  0
 67 68  2  0  0  0  0
 68 69  1  0  0  0  0
 69 70  2  0  0  0  0
 70 65  1  0  0  0  0
 68 71  1  0  0  0  0
M  END
>  <cdx:fragmentId>
1038

$$$$
