4746.cdx
  Mrv1902 05222410242D          

 36 41  0  0  0  0            999 V2000
    6.3956   -8.1607    0.0000 C   0  0  2  0  0  0  0  0  0  0  0  0
    6.3103   -7.4009    0.0000 C   0  0  2  0  0  0  0  0  0  0  0  0
    6.8631   -6.6145    0.0000 C   0  0  1  0  0  0  0  0  0  0  0  0
    7.1663   -8.6199    0.0000 C   0  0  0  0  0  0  0  0  0  0  0  0
    4.2609   -7.7707    0.0000 C   0  0  0  0  0  0  0  0  0  0  0  0
    3.8013   -8.4558    0.0000 C   0  0  0  0  0  0  0  0  0  0  0  0
    4.1648   -9.1964    0.0000 C   0  0  0  0  0  0  0  0  0  0  0  0
    4.9879   -9.2518    0.0000 C   0  0  0  0  0  0  0  0  0  0  0  0
    5.4475   -8.5667    0.0000 C   0  0  0  0  0  0  0  0  0  0  0  0
    5.0840   -7.8261    0.0000 C   0  0  0  0  0  0  0  0  0  0  0  0
    7.2720   -9.4381    0.0000 C   0  0  0  0  0  0  0  0  0  0  0  0
    8.0335   -9.7556    0.0000 C   0  0  0  0  0  0  0  0  0  0  0  0
    8.6892   -9.2549    0.0000 C   0  0  0  0  0  0  0  0  0  0  0  0
    8.5834   -8.4367    0.0000 C   0  0  0  0  0  0  0  0  0  0  0  0
    7.8219   -8.1192    0.0000 C   0  0  0  0  0  0  0  0  0  0  0  0
    7.5882   -7.5692    0.0000 C   0  0  1  0  0  0  0  0  0  0  0  0
    2.9781   -8.4003    0.0000 O   0  0  0  0  0  0  0  0  0  0  0  0
    5.3514   -9.9924    0.0000 O   0  0  0  0  0  0  0  0  0  0  0  0
    8.1392  -10.5738    0.0000 O   0  0  0  0  0  0  0  0  0  0  0  0
    9.2391   -7.9361    0.0000 O   0  0  0  0  0  0  0  0  0  0  0  0
    6.8631   -5.7895    0.0000 C   0  0  0  0  0  0  0  0  0  0  0  0
    8.0875   -6.9125    0.0000 C   0  0  0  0  0  0  0  0  0  0  0  0
    8.9059   -7.0164    0.0000 C   0  0  0  0  0  0  0  0  0  0  0  0
    9.4051   -6.3597    0.0000 C   0  0  0  0  0  0  0  0  0  0  0  0
    9.0860   -5.5989    0.0000 C   0  0  0  0  0  0  0  0  0  0  0  0
    8.2676   -5.4949    0.0000 C   0  0  0  0  0  0  0  0  0  0  0  0
    7.7683   -6.1517    0.0000 C   0  0  0  0  0  0  0  0  0  0  0  0
    7.5776   -5.3770    0.0000 C   0  0  0  0  0  0  0  0  0  0  0  0
    7.5776   -4.5520    0.0000 C   0  0  0  0  0  0  0  0  0  0  0  0
    6.8631   -4.1395    0.0000 C   0  0  0  0  0  0  0  0  0  0  0  0
    6.1486   -4.5520    0.0000 C   0  0  0  0  0  0  0  0  0  0  0  0
    6.1486   -5.3770    0.0000 C   0  0  0  0  0  0  0  0  0  0  0  0
    6.6254   -8.9682    0.0000 H   0  0  0  0  0  0  0  0  0  0  0  0
    6.0664   -6.6503    0.0000 H   0  0  0  0  0  0  0  0  0  0  0  0
    6.8631   -3.3145    0.0000 O   0  0  0  0  0  0  0  0  0  0  0  0
    9.5852   -4.9421    0.0000 O   0  0  0  0  0  0  0  0  0  0  0  0
  2  3  1  0  0  0  0
  1  4  1  0  0  0  0
  5  6  2  0  0  0  0
  6  7  1  0  0  0  0
  7  8  2  0  0  0  0
  8  9  1  0  0  0  0
  9 10  2  0  0  0  0
 10  5  1  0  0  0  0
  2 10  1  0  0  0  0
  1  9  1  0  0  0  0
  4 11  2  0  0  0  0
 11 12  1  0  0  0  0
 12 13  2  0  0  0  0
 13 14  1  0  0  0  0
 14 15  2  0  0  0  0
 15  4  1  0  0  0  0
 15 16  1  0  0  0  0
 16  2  1  0  0  0  0
  3  1  1  0  0  0  0
  6 17  1  0  0  0  0
  8 18  1  0  0  0  0
 12 19  1  0  0  0  0
 14 20  1  0  0  0  0
  3 21  1  1  0  0  0
 16 22  1  6  0  0  0
 22 23  2  0  0  0  0
 23 24  1  0  0  0  0
 24 25  2  0  0  0  0
 25 26  1  0  0  0  0
 26 27  2  0  0  0  0
 27 22  1  0  0  0  0
 21 28  2  0  0  0  0
 28 29  1  0  0  0  0
 29 30  2  0  0  0  0
 30 31  1  0  0  0  0
 31 32  2  0  0  0  0
 32 21  1  0  0  0  0
  1 33  1  1  0  0  0
  2 34  1  6  0  0  0
 30 35  1  0  0  0  0
 25 36  1  0  0  0  0
M  END
>  <cdx:fragmentId>
862

$$$$
