4748.cdx
  Mrv1902 05222410212D          

 23 26  0  0  0  0            999 V2000
    4.8433   -7.6037    0.0000 C   0  0  0  0  0  0  0  0  0  0  0  0
    4.8433   -8.4288    0.0000 C   0  0  0  0  0  0  0  0  0  0  0  0
    5.5577   -8.8413    0.0000 C   0  0  0  0  0  0  0  0  0  0  0  0
    6.2722   -8.4288    0.0000 C   0  0  0  0  0  0  0  0  0  0  0  0
    6.2722   -7.6037    0.0000 C   0  0  0  0  0  0  0  0  0  0  0  0
    5.5577   -7.1913    0.0000 C   0  0  0  0  0  0  0  0  0  0  0  0
    6.9867   -8.8413    0.0000 C   0  0  0  0  0  0  0  0  0  0  0  0
    7.7012   -8.4288    0.0000 C   0  0  0  0  0  0  0  0  0  0  0  0
    7.7012   -7.6037    0.0000 C   0  0  0  0  0  0  0  0  0  0  0  0
    6.9867   -7.1913    0.0000 C   0  0  0  0  0  0  0  0  0  0  0  0
    8.4156   -7.1913    0.0000 C   0  0  0  0  0  0  0  0  0  0  0  0
    8.4156   -6.3662    0.0000 C   0  0  0  0  0  0  0  0  0  0  0  0
    7.7012   -5.9538    0.0000 C   0  0  0  0  0  0  0  0  0  0  0  0
    6.9867   -6.3662    0.0000 C   0  0  0  0  0  0  0  0  0  0  0  0
    9.2003   -7.4462    0.0000 O   0  0  0  0  0  0  0  0  0  0  0  0
    9.6852   -6.7788    0.0000 C   0  0  0  0  0  0  0  0  0  0  0  0
    9.2003   -6.1113    0.0000 C   0  0  0  0  0  0  0  0  0  0  0  0
    4.1288   -8.8413    0.0000 O   0  0  0  0  0  0  0  0  0  0  0  0
    5.1452   -9.5557    0.0000 C   0  0  0  0  0  0  0  0  0  0  0  0
    5.9702   -9.5557    0.0000 C   0  0  0  0  0  0  0  0  0  0  0  0
    9.4138   -5.3144    0.0000 C   0  0  0  0  0  0  0  0  0  0  0  0
    6.2722   -5.9538    0.0000 O   0  0  0  0  0  0  0  0  0  0  0  0
    7.7012   -5.1287    0.0000 O   0  0  0  0  0  0  0  0  0  0  0  0
  1  2  1  0  0  0  0
  2  3  1  0  0  0  0
  3  4  1  0  0  0  0
  4  5  2  0  0  0  0
  5  6  1  0  0  0  0
  6  1  1  0  0  0  0
  4  7  1  0  0  0  0
  7  8  2  0  0  0  0
  8  9  1  0  0  0  0
  9 10  2  0  0  0  0
 10  5  1  0  0  0  0
  9 11  1  0  0  0  0
 11 12  2  0  0  0  0
 12 13  1  0  0  0  0
 13 14  1  0  0  0  0
 14 10  1  0  0  0  0
 11 15  1  0  0  0  0
 15 16  1  0  0  0  0
 16 17  2  0  0  0  0
 17 12  1  0  0  0  0
  2 18  1  0  0  0  0
  3 19  1  0  0  0  0
  3 20  1  0  0  0  0
 17 21  1  0  0  0  0
 14 22  2  0  0  0  0
 13 23  2  0  0  0  0
M  END
>  <cdx:fragmentId>
5

$$$$
