475125.cdx
  Mrv1902 05222410242D          

 37 40  0  0  0  0            999 V2000
    4.6376   -8.9206    0.0000 C   0  0  0  0  0  0  0  0  0  0  0  0
    3.9231   -9.3331    0.0000 C   0  0  0  0  0  0  0  0  0  0  0  0
    3.9231  -10.1581    0.0000 C   0  0  1  0  0  0  0  0  0  0  0  0
    4.6376  -10.5706    0.0000 C   0  0  0  0  0  0  0  0  0  0  0  0
    5.3521  -10.1581    0.0000 C   0  0  2  0  0  0  0  0  0  0  0  0
    6.0665  -10.5706    0.0000 C   0  0  0  0  0  0  0  0  0  0  0  0
    6.7810  -10.1581    0.0000 C   0  0  0  0  0  0  0  0  0  0  0  0
    6.7810   -9.3331    0.0000 C   0  0  1  0  0  0  0  0  0  0  0  0
    7.4955   -8.9206    0.0000 C   0  0  2  0  0  0  0  0  0  0  0  0
    8.2801   -9.1755    0.0000 C   0  0  0  0  0  0  0  0  0  0  0  0
    8.7650   -8.5081    0.0000 C   0  0  0  0  0  0  0  0  0  0  0  0
    8.2801   -7.8406    0.0000 C   0  0  1  0  0  0  0  0  0  0  0  0
    7.4955   -8.0956    0.0000 C   0  0  1  0  0  0  0  0  0  0  0  0
    6.7810   -7.6831    0.0000 C   0  0  0  0  0  0  0  0  0  0  0  0
    6.0665   -8.0956    0.0000 C   0  0  0  0  0  0  0  0  0  0  0  0
    6.0665   -8.9206    0.0000 C   0  0  2  0  0  0  0  0  0  0  0  0
    5.3521   -9.3331    0.0000 C   0  0  1  0  0  0  0  0  0  0  0  0
    6.0665  -11.3956    0.0000 O   0  0  0  0  0  0  0  0  0  0  0  0
    7.4955   -7.2706    0.0000 C   0  0  0  0  0  0  0  0  0  0  0  0
    5.3521   -8.5081    0.0000 C   0  0  0  0  0  0  0  0  0  0  0  0
    3.2087  -10.5706    0.0000 O   0  0  0  0  0  0  0  0  0  0  0  0
    7.9830   -6.4429    0.0000 C   0  0  0  0  0  0  0  0  0  0  0  0
    8.5350   -7.0560    0.0000 C   0  0  2  0  0  0  0  0  0  0  0  0
    9.3420   -6.8845    0.0000 C   0  0  2  0  0  0  0  0  0  0  0  0
    9.5970   -6.0999    0.0000 C   0  0  1  0  0  0  0  0  0  0  0  0
   10.4039   -5.9283    0.0000 C   0  0  2  0  0  0  0  0  0  0  0  0
   10.6589   -5.1437    0.0000 C   0  0  0  0  0  0  0  0  0  0  0  0
   10.1068   -4.5306    0.0000 C   0  0  0  0  0  0  0  0  0  0  0  0
   11.4658   -4.9722    0.0000 C   0  0  0  0  0  0  0  0  0  0  0  0
   10.9560   -6.5414    0.0000 C   0  0  0  0  0  0  0  0  0  0  0  0
    9.0449   -5.4868    0.0000 O   0  0  0  0  0  0  0  0  0  0  0  0
    9.8940   -7.4976    0.0000 O   0  0  0  0  0  0  0  0  0  0  0  0
    5.3521  -10.9831    0.0000 H   0  0  0  0  0  0  0  0  0  0  0  0
    6.7810   -8.5081    0.0000 H   0  0  0  0  0  0  0  0  0  0  0  0
    6.0665   -9.7456    0.0000 H   0  0  0  0  0  0  0  0  0  0  0  0
    7.4955   -9.7456    0.0000 H   0  0  0  0  0  0  0  0  0  0  0  0
    9.0647   -7.5857    0.0000 H   0  0  0  0  0  0  0  0  0  0  0  0
  1  2  1  0  0  0  0
  2  3  1  0  0  0  0
  3  4  1  0  0  0  0
  4  5  1  0  0  0  0
  5  6  1  0  0  0  0
  6  7  1  0  0  0  0
  7  8  1  0  0  0  0
  8  9  1  0  0  0  0
  9 10  1  0  0  0  0
 10 11  1  0  0  0  0
 12 11  1  0  0  0  0
 12 13  1  0  0  0  0
  9 13  1  0  0  0  0
 13 14  1  0  0  0  0
 14 15  1  0  0  0  0
 15 16  1  0  0  0  0
  8 16  1  0  0  0  0
 16 17  1  0  0  0  0
  5 17  1  0  0  0  0
  1 17  1  0  0  0  0
  6 18  2  0  0  0  0
 13 19  1  1  0  0  0
 17 20  1  1  0  0  0
  3 21  1  1  0  0  0
 23 22  1  6  0  0  0
 23 24  1  0  0  0  0
 24 25  1  0  0  0  0
 25 26  1  0  0  0  0
 26 27  1  0  0  0  0
 27 28  1  0  0  0  0
 27 29  1  0  0  0  0
 26 30  1  6  0  0  0
 25 31  1  6  0  0  0
 24 32  1  6  0  0  0
 12 23  1  0  0  0  0
  5 33  1  6  0  0  0
  8 34  1  1  0  0  0
 16 35  1  6  0  0  0
  9 36  1  6  0  0  0
 12 37  1  6  0  0  0
M  END
>  <cdx:fragmentId>
95011

$$$$
