475263.cdx
  Mrv1902 05222410222D          

 24 25  0  0  0  0            999 V2000
    8.4412   -3.8872    0.0000 O   0  0  0  0  0  0  0  0  0  0  0  0
    9.6280   -4.6830    0.0000 O   0  0  0  0  0  0  0  0  0  0  0  0
    8.8049   -4.6277    0.0000 C   0  0  0  0  0  0  0  0  0  0  0  0
    6.9446   -9.4476    0.0000 C   0  0  0  0  0  0  0  0  0  0  0  0
    6.2386  -10.6899    0.0000 O   0  0  0  0  0  0  0  0  0  0  0  0
    6.9502  -10.2726    0.0000 C   0  0  0  0  0  0  0  0  0  0  0  0
    7.6731  -11.5052    0.0000 O   0  0  0  0  0  0  0  0  0  0  0  0
    7.6675  -10.6802    0.0000 C   0  0  0  0  0  0  0  0  0  0  0  0
    9.0964  -10.6705    0.0000 O   0  0  0  0  0  0  0  0  0  0  0  0
    8.3791  -10.2628    0.0000 C   0  0  0  0  0  0  0  0  0  0  0  0
    8.3735   -9.4379    0.0000 C   0  0  0  0  0  0  0  0  0  0  0  0
    7.6562   -9.0303    0.0000 C   0  0  0  0  0  0  0  0  0  0  0  0
    6.9334   -7.7976    0.0000 O   0  0  0  0  0  0  0  0  0  0  0  0
    7.6506   -8.2053    0.0000 C   0  0  0  0  0  0  0  0  0  0  0  0
    8.3623   -7.7879    0.0000 O   0  0  0  0  0  0  0  0  0  0  0  0
    8.3567   -6.9629    0.0000 C   0  0  0  0  0  0  0  0  0  0  0  0
    6.9249   -6.9678    0.0000 O   0  0  0  0  0  0  0  0  0  0  0  0
    7.6394   -6.5553    0.0000 C   0  0  2  0  0  0  0  0  0  0  0  0
    7.6338   -5.7303    0.0000 C   0  0  0  0  0  0  0  0  0  0  0  0
    7.9817   -4.5725    0.0000 O   0  0  0  0  0  0  0  0  0  0  0  0
    8.3454   -5.3130    0.0000 C   0  0  0  0  0  0  0  0  0  0  0  0
    9.0627   -5.7206    0.0000 C   0  0  0  0  0  0  0  0  0  0  0  0
    9.7828   -6.9581    0.0000 O   0  0  0  0  0  0  0  0  0  0  0  0
    9.0683   -6.5456    0.0000 C   0  0  1  0  0  0  0  0  0  0  0  0
  3  1  2  0  0  0  0
  3  2  1  0  0  0  0
 21  3  1  0  0  0  0
 12  4  1  0  0  0  0
  6  4  2  0  0  0  0
  6  5  1  0  0  0  0
  8  6  1  0  0  0  0
  8  7  1  0  0  0  0
 10  8  2  0  0  0  0
 10  9  1  0  0  0  0
 11 10  1  0  0  0  0
 12 11  2  0  0  0  0
 14 12  1  0  0  0  0
 14 13  2  0  0  0  0
 15 14  1  0  0  0  0
 16 15  1  0  0  0  0
 24 16  1  0  0  0  0
 18 16  1  0  0  0  0
 18 17  1  6  0  0  0
 19 18  1  0  0  0  0
 21 19  1  0  0  0  0
 21 20  1  0  0  0  0
 22 21  1  0  0  0  0
 24 22  1  0  0  0  0
 24 23  1  1  0  0  0
M  END
>  <cdx:fragmentId>
18697

$$$$
