4754.cdx
  Mrv1902 05222410232D          

 25 27  0  0  0  0            999 V2000
    3.2208   -7.2806    0.0000 C   0  0  0  0  0  0  0  0  0  0  0  0
    3.2208   -8.1056    0.0000 C   0  0  0  0  0  0  0  0  0  0  0  0
    3.9352   -8.5181    0.0000 C   0  0  0  0  0  0  0  0  0  0  0  0
    4.6497   -8.1056    0.0000 C   0  0  0  0  0  0  0  0  0  0  0  0
    4.6497   -7.2806    0.0000 C   0  0  0  0  0  0  0  0  0  0  0  0
    3.9352   -6.8681    0.0000 C   0  0  0  0  0  0  0  0  0  0  0  0
    5.3642   -8.5181    0.0000 C   0  0  0  0  0  0  0  0  0  0  0  0
    6.0787   -8.1056    0.0000 C   0  0  0  0  0  0  0  0  0  0  0  0
    6.0787   -7.2806    0.0000 C   0  0  0  0  0  0  0  0  0  0  0  0
    5.3642   -6.8681    0.0000 C   0  0  0  0  0  0  0  0  0  0  0  0
    6.7931   -8.5181    0.0000 C   0  0  0  0  0  0  0  0  0  0  0  0
    7.5076   -8.1056    0.0000 C   0  0  0  0  0  0  0  0  0  0  0  0
    7.5076   -7.2806    0.0000 C   0  0  0  0  0  0  0  0  0  0  0  0
    6.7931   -6.8681    0.0000 C   0  0  0  0  0  0  0  0  0  0  0  0
    2.5063   -8.5181    0.0000 C   0  0  0  0  0  0  0  0  0  0  0  0
    3.9352   -6.0431    0.0000 O   0  0  0  0  0  0  0  0  0  0  0  0
    5.3642   -6.0431    0.0000 O   0  0  0  0  0  0  0  0  0  0  0  0
    5.3642   -9.3431    0.0000 O   0  0  0  0  0  0  0  0  0  0  0  0
    6.7931   -6.0431    0.0000 O   0  0  0  0  0  0  0  0  0  0  0  0
    8.2221   -8.5181    0.0000 O   0  0  0  0  0  0  0  0  0  0  0  0
    8.9365   -8.1056    0.0000 C   0  0  0  0  0  0  0  0  0  0  0  0
    9.6510   -8.5181    0.0000 C   0  0  0  0  0  0  0  0  0  0  0  0
   10.3655   -8.1056    0.0000 C   0  0  0  0  0  0  0  0  0  0  0  0
   11.0800   -8.5181    0.0000 C   0  0  0  0  0  0  0  0  0  0  0  0
   10.3655   -7.2806    0.0000 C   0  0  0  0  0  0  0  0  0  0  0  0
  1  2  1  0  0  0  0
  2  3  2  0  0  0  0
  3  4  1  0  0  0  0
  4  5  2  0  0  0  0
  5  6  1  0  0  0  0
  6  1  2  0  0  0  0
  4  7  1  0  0  0  0
  7  8  1  0  0  0  0
  8  9  2  0  0  0  0
  9 10  1  0  0  0  0
 10  5  1  0  0  0  0
  8 11  1  0  0  0  0
 11 12  2  0  0  0  0
 12 13  1  0  0  0  0
 13 14  2  0  0  0  0
 14  9  1  0  0  0  0
  2 15  1  0  0  0  0
  6 16  1  0  0  0  0
 10 17  2  0  0  0  0
  7 18  2  0  0  0  0
 14 19  1  0  0  0  0
 12 20  1  0  0  0  0
 20 21  1  0  0  0  0
 21 22  1  0  0  0  0
 22 23  2  0  0  0  0
 23 24  1  0  0  0  0
 23 25  1  0  0  0  0
M  END
>  <cdx:fragmentId>
5

$$$$
