475854.cdx
  Mrv1902 05222410222D          

 27 28  0  0  0  0            999 V2000
    8.1657  -12.8997    0.0000 C   0  0  2  0  0  0  0  0  0  0  0  0
    8.1657  -12.0747    0.0000 C   0  0  0  0  0  0  0  0  0  0  0  0
    8.8802  -11.6622    0.0000 C   0  0  0  0  0  0  0  0  0  0  0  0
    9.5947  -12.0747    0.0000 C   0  0  0  0  0  0  0  0  0  0  0  0
   10.3091  -11.6622    0.0000 C   0  0  0  0  0  0  0  0  0  0  0  0
   11.0236  -12.0747    0.0000 C   0  0  0  0  0  0  0  0  0  0  0  0
   11.0236  -12.8997    0.0000 C   0  0  0  0  0  0  0  0  0  0  0  0
   10.3091  -13.3122    0.0000 C   0  0  0  0  0  0  0  0  0  0  0  0
    9.5947  -12.8997    0.0000 C   0  0  0  0  0  0  0  0  0  0  0  0
    8.8802  -13.3122    0.0000 O   0  0  0  0  0  0  0  0  0  0  0  0
   11.7381  -11.6622    0.0000 C   0  0  0  0  0  0  0  0  0  0  0  0
   11.7381  -10.8372    0.0000 O   0  0  0  0  0  0  0  0  0  0  0  0
   12.4525  -12.0747    0.0000 O   0  0  0  0  0  0  0  0  0  0  0  0
   11.7381  -13.3122    0.0000 C   0  0  0  0  0  0  0  0  0  0  0  0
    8.1657  -13.7247    0.0000 C   0  0  0  0  0  0  0  0  0  0  0  0
   10.3091  -10.8372    0.0000 O   0  0  0  0  0  0  0  0  0  0  0  0
    7.4512  -13.3122    0.0000 C   0  0  0  0  0  0  0  0  0  0  0  0
    6.7368  -12.8997    0.0000 C   0  0  0  0  0  0  0  0  0  0  0  0
    6.0223  -13.3122    0.0000 C   0  0  0  0  0  0  0  0  0  0  0  0
    5.3078  -12.8997    0.0000 C   0  0  0  0  0  0  0  0  0  0  0  0
    4.5934  -13.3122    0.0000 C   0  0  0  0  0  0  0  0  0  0  0  0
    3.8789  -12.8997    0.0000 C   0  0  0  0  0  0  0  0  0  0  0  0
    3.1644  -13.3122    0.0000 C   0  0  0  0  0  0  0  0  0  0  0  0
    2.4500  -12.8997    0.0000 C   0  0  0  0  0  0  0  0  0  0  0  0
    1.7355  -13.3122    0.0000 C   0  0  0  0  0  0  0  0  0  0  0  0
    2.4500  -12.0747    0.0000 C   0  0  0  0  0  0  0  0  0  0  0  0
    5.3078  -12.0747    0.0000 C   0  0  0  0  0  0  0  0  0  0  0  0
  1  2  1  0  0  0  0
  2  3  2  0  0  0  0
  3  4  1  0  0  0  0
  4  5  1  0  0  0  0
  5  6  2  0  0  0  0
  6  7  1  0  0  0  0
  7  8  2  0  0  0  0
  8  9  1  0  0  0  0
  4  9  2  0  0  0  0
  9 10  1  0  0  0  0
  1 10  1  0  0  0  0
 11 12  2  0  0  0  0
 11 13  1  0  0  0  0
  6 11  1  0  0  0  0
  7 14  1  0  0  0  0
  1 15  1  6  0  0  0
  5 16  1  0  0  0  0
 17 18  1  0  0  0  0
 18 19  1  0  0  0  0
 19 20  2  0  0  0  0
 20 21  1  0  0  0  0
 21 22  1  0  0  0  0
 22 23  1  0  0  0  0
 23 24  2  0  0  0  0
 24 25  1  0  0  0  0
 24 26  1  0  0  0  0
 20 27  1  0  0  0  0
  1 17  1  0  0  0  0
M  END
>  <cdx:fragmentId>
23405

$$$$
