4759.cdx
  Mrv1902 05222410232D          

 44 47  0  0  0  0            999 V2000
   11.0875   -6.6342    0.0000 C   0  0  0  0  0  0  0  0  0  0  0  0
   10.2805   -6.8057    0.0000 C   0  0  0  0  0  0  0  0  0  0  0  0
   10.0256   -7.5904    0.0000 C   0  0  0  0  0  0  0  0  0  0  0  0
    9.2186   -7.7619    0.0000 C   0  0  0  0  0  0  0  0  0  0  0  0
    8.9637   -8.5465    0.0000 C   0  0  0  0  0  0  0  0  0  0  0  0
    8.1567   -8.7180    0.0000 C   0  0  1  0  0  0  0  0  0  0  0  0
    7.6047   -8.1049    0.0000 C   0  0  0  0  0  0  0  0  0  0  0  0
   11.3424   -5.8496    0.0000 O   0  0  0  0  0  0  0  0  0  0  0  0
   11.6395   -7.2473    0.0000 O   0  0  0  0  0  0  0  0  0  0  0  0
    8.6666   -7.1488    0.0000 O   0  0  0  0  0  0  0  0  0  0  0  0
    9.7285   -6.1926    0.0000 C   0  0  0  0  0  0  0  0  0  0  0  0
    4.2593  -10.5826    0.0000 C   0  0  0  0  0  0  0  0  0  0  0  0
    3.5448  -10.9951    0.0000 C   0  0  0  0  0  0  0  0  0  0  0  0
    3.5448  -11.8201    0.0000 C   0  0  1  0  0  0  0  0  0  0  0  0
    4.2593  -12.2326    0.0000 C   0  0  0  0  0  0  0  0  0  0  0  0
    4.9737  -11.8201    0.0000 C   0  0  2  0  0  0  0  0  0  0  0  0
    5.6882  -12.2326    0.0000 C   0  0  0  0  0  0  0  0  0  0  0  0
    6.4027  -11.8201    0.0000 C   0  0  0  0  0  0  0  0  0  0  0  0
    6.4027  -10.9951    0.0000 C   0  0  0  0  0  0  0  0  0  0  0  0
    7.1171  -10.5826    0.0000 C   0  0  2  0  0  0  0  0  0  0  0  0
    7.9018  -10.8375    0.0000 C   0  0  0  0  0  0  0  0  0  0  0  0
    8.3867  -10.1701    0.0000 C   0  0  0  0  0  0  0  0  0  0  0  0
    7.9018   -9.5027    0.0000 C   0  0  1  0  0  0  0  0  0  0  0  0
    7.1171   -9.7576    0.0000 C   0  0  1  0  0  0  0  0  0  0  0  0
    6.4027   -9.3451    0.0000 C   0  0  1  0  0  0  0  0  0  0  0  0
    5.6882   -9.7576    0.0000 C   0  0  0  0  0  0  0  0  0  0  0  0
    5.6882  -10.5826    0.0000 C   0  0  0  0  0  0  0  0  0  0  0  0
    4.9737  -10.9951    0.0000 C   0  0  1  0  0  0  0  0  0  0  0  0
    8.1567  -11.6222    0.0000 O   0  0  0  0  0  0  0  0  0  0  0  0
    4.9737   -9.3451    0.0000 O   0  0  0  0  0  0  0  0  0  0  0  0
    7.1171  -12.2326    0.0000 O   0  0  0  0  0  0  0  0  0  0  0  0
    7.1171  -11.4076    0.0000 C   0  0  0  0  0  0  0  0  0  0  0  0
    7.1171   -8.9326    0.0000 C   0  0  0  0  0  0  0  0  0  0  0  0
    4.9737  -10.1701    0.0000 C   0  0  0  0  0  0  0  0  0  0  0  0
    4.6718  -12.9471    0.0000 C   0  0  0  0  0  0  0  0  0  0  0  0
    3.8468  -12.9471    0.0000 C   0  0  0  0  0  0  0  0  0  0  0  0
    2.8303  -12.2326    0.0000 O   0  0  0  0  0  0  0  0  0  0  0  0
    6.4027   -8.5201    0.0000 O   0  0  0  0  0  0  0  0  0  0  0  0
    5.6882   -8.1076    0.0000 C   0  0  0  0  0  0  0  0  0  0  0  0
    5.6882   -7.2826    0.0000 O   0  0  0  0  0  0  0  0  0  0  0  0
    4.9737   -8.5201    0.0000 C   0  0  0  0  0  0  0  0  0  0  0  0
    4.9737  -12.6451    0.0000 H   0  0  0  0  0  0  0  0  0  0  0  0
    8.6864   -9.2477    0.0000 H   0  0  0  0  0  0  0  0  0  0  0  0
   12.1393   -5.6361    0.0000 C   0  0  0  0  0  0  0  0  0  0  0  0
  1  2  1  0  0  0  0
  2  3  1  0  0  0  0
  3  4  1  0  0  0  0
  4  5  1  0  0  0  0
  5  6  1  0  0  0  0
  6  7  1  6  0  0  0
  1  8  1  0  0  0  0
  1  9  2  0  0  0  0
  4 10  2  0  0  0  0
  2 11  1  0  0  0  0
 12 13  1  0  0  0  0
 13 14  1  0  0  0  0
 14 15  1  0  0  0  0
 15 16  1  0  0  0  0
 16 17  1  0  0  0  0
 17 18  1  0  0  0  0
 18 19  1  0  0  0  0
 19 20  1  0  0  0  0
 20 21  1  0  0  0  0
 21 22  1  0  0  0  0
 23 22  1  0  0  0  0
 23 24  1  0  0  0  0
 20 24  1  0  0  0  0
 24 25  1  0  0  0  0
 25 26  1  0  0  0  0
 26 27  1  0  0  0  0
 19 27  2  0  0  0  0
 27 28  1  0  0  0  0
 16 28  1  0  0  0  0
 12 28  1  0  0  0  0
 21 29  2  0  0  0  0
 26 30  2  0  0  0  0
 18 31  2  0  0  0  0
 20 32  1  6  0  0  0
 24 33  1  1  0  0  0
 28 34  1  1  0  0  0
 15 35  1  0  0  0  0
 15 36  1  0  0  0  0
 14 37  1  1  0  0  0
 39 40  2  0  0  0  0
 39 41  1  0  0  0  0
 38 39  1  0  0  0  0
 25 38  1  1  0  0  0
  6 23  1  0  0  0  0
 16 42  1  6  0  0  0
 23 43  1  6  0  0  0
  8 44  1  0  0  0  0
M  END
>  <cdx:fragmentId>
5750

$$$$
