6475943.cdx
  Mrv1902 05222410192D          

 32 34  0  0  0  0            999 V2000
   11.3504   -6.2282    0.0000 C   0  0  0  0  0  0  0  0  0  0  0  0
   10.6359   -6.6407    0.0000 C   0  0  0  0  0  0  0  0  0  0  0  0
    9.9214   -6.2282    0.0000 C   0  0  0  0  0  0  0  0  0  0  0  0
    9.2070   -6.6407    0.0000 C   0  0  0  0  0  0  0  0  0  0  0  0
    8.4925   -6.2282    0.0000 C   0  0  0  0  0  0  0  0  0  0  0  0
   11.3504   -5.4032    0.0000 O   0  0  0  0  0  0  0  0  0  0  0  0
   12.0649   -6.6407    0.0000 O   0  0  0  0  0  0  0  0  0  0  0  0
   10.6359   -7.4657    0.0000 C   0  0  0  0  0  0  0  0  0  0  0  0
    6.3491   -7.4657    0.0000 C   0  0  2  0  0  0  0  0  0  0  0  0
    5.7041   -7.9801    0.0000 C   0  0  0  0  0  0  0  0  0  0  0  0
    4.8998   -7.7965    0.0000 C   0  0  0  0  0  0  0  0  0  0  0  0
    4.5418   -7.0532    0.0000 C   0  0  0  0  0  0  0  0  0  0  0  0
    4.8998   -6.3099    0.0000 C   0  0  0  0  0  0  0  0  0  0  0  0
    5.7041   -6.1263    0.0000 C   0  0  0  0  0  0  0  0  0  0  0  0
    6.3491   -6.6407    0.0000 C   0  0  2  0  0  0  0  0  0  0  0  0
    7.0636   -6.2282    0.0000 C   0  0  2  0  0  0  0  0  0  0  0  0
    7.7780   -6.6407    0.0000 C   0  0  2  0  0  0  0  0  0  0  0  0
    7.7780   -7.4657    0.0000 O   0  0  0  0  0  0  0  0  0  0  0  0
    7.0636   -7.8782    0.0000 C   0  0  0  0  0  0  0  0  0  0  0  0
    6.9569   -7.3500    0.0000 C   0  0  0  0  0  0  0  0  0  0  0  0
    7.2663   -6.8141    0.0000 C   0  0  0  0  0  0  0  0  0  0  0  0
    7.0636   -8.7032    0.0000 O   0  0  0  0  0  0  0  0  0  0  0  0
    7.7780   -5.8157    0.0000 C   0  0  0  0  0  0  0  0  0  0  0  0
    3.7168   -7.0532    0.0000 C   0  0  0  0  0  0  0  0  0  0  0  0
    3.3043   -6.3387    0.0000 O   0  0  0  0  0  0  0  0  0  0  0  0
    3.3043   -7.7676    0.0000 O   0  0  0  0  0  0  0  0  0  0  0  0
    2.4793   -7.7676    0.0000 C   0  0  0  0  0  0  0  0  0  0  0  0
    6.3491   -5.8157    0.0000 O   0  0  0  0  0  0  0  0  0  0  0  0
    5.6346   -5.4032    0.0000 C   0  0  0  0  0  0  0  0  0  0  0  0
    5.6346   -4.5782    0.0000 O   0  0  0  0  0  0  0  0  0  0  0  0
    4.9201   -5.8157    0.0000 C   0  0  0  0  0  0  0  0  0  0  0  0
    7.0636   -5.4032    0.0000 H   0  0  0  0  0  0  0  0  0  0  0  0
  1  2  1  0  0  0  0
  2  3  2  0  0  0  0
  3  4  1  0  0  0  0
  4  5  2  0  0  0  0
  1  6  2  0  0  0  0
  1  7  1  0  0  0  0
  2  8  1  0  0  0  0
  9 10  1  0  0  0  0
 10 11  1  0  0  0  0
 11 12  2  0  0  0  0
 12 13  1  0  0  0  0
 13 14  1  0  0  0  0
 14 15  1  0  0  0  0
 15 16  1  0  0  0  0
 16 17  1  0  0  0  0
 17 18  1  0  0  0  0
 18 19  1  0  0  0  0
 20 21  1  0  0  0  0
  9 19  1  6  0  0  0
  9 20  1  1  0  0  0
 16 21  1  1  0  0  0
  9 15  1  0  0  0  0
 19 22  2  0  0  0  0
 17 23  1  6  0  0  0
 24 25  2  0  0  0  0
 26 27  1  0  0  0  0
 24 26  1  0  0  0  0
 12 24  1  0  0  0  0
 29 30  2  0  0  0  0
 29 31  1  0  0  0  0
 28 29  1  0  0  0  0
 15 28  1  1  0  0  0
  5 17  1  0  0  0  0
 16 32  1  0  0  0  0
M  END
>  <cdx:groupId>
100

>  <cdx:fragmentId>
21

$$$$
