6476032.cdx
  Mrv1902 05222410222D          

 82 89  0  0  0  0            999 V2000
    3.4030  -14.1102    0.0000 O   0  0  0  0  0  0  0  0  0  0  0  0
    2.6885  -13.6977    0.0000 C   0  0  1  0  0  0  0  0  0  0  0  0
    2.6885  -12.8727    0.0000 C   0  0  2  0  0  0  0  0  0  0  0  0
    3.4030  -12.4602    0.0000 C   0  0  1  0  0  0  0  0  0  0  0  0
    4.1175  -12.8727    0.0000 C   0  0  2  0  0  0  0  0  0  0  0  0
    4.1175  -13.6977    0.0000 C   0  0  2  0  0  0  0  0  0  0  0  0
    1.9741  -14.1102    0.0000 C   0  0  0  0  0  0  0  0  0  0  0  0
    1.9741  -14.9352    0.0000 O   0  0  0  0  0  0  0  0  0  0  0  0
    1.2596  -13.6977    0.0000 O   0  0  0  0  0  0  0  0  0  0  0  0
    4.8319  -12.4602    0.0000 O   0  0  0  0  0  0  0  0  0  0  0  0
    4.1175  -11.2227    0.0000 O   0  0  0  0  0  0  0  0  0  0  0  0
    4.8319  -11.6352    0.0000 C   0  0  2  0  0  0  0  0  0  0  0  0
    5.5464  -11.2227    0.0000 C   0  0  1  0  0  0  0  0  0  0  0  0
    5.5464  -10.3977    0.0000 C   0  0  2  0  0  0  0  0  0  0  0  0
    4.8319   -9.9852    0.0000 C   0  0  1  0  0  0  0  0  0  0  0  0
    4.1175  -10.3977    0.0000 C   0  0  1  0  0  0  0  0  0  0  0  0
    3.4030   -9.9852    0.0000 C   0  0  0  0  0  0  0  0  0  0  0  0
    3.4030   -9.1602    0.0000 O   0  0  0  0  0  0  0  0  0  0  0  0
    4.8319   -9.1602    0.0000 O   0  0  0  0  0  0  0  0  0  0  0  0
    6.2609   -9.9852    0.0000 O   0  0  0  0  0  0  0  0  0  0  0  0
    6.2609  -11.6352    0.0000 O   0  0  0  0  0  0  0  0  0  0  0  0
    1.5454  -12.2127    0.0000 O   0  0  0  0  0  0  0  0  0  0  0  0
    2.2598  -10.9752    0.0000 O   0  0  0  0  0  0  0  0  0  0  0  0
    1.5454  -11.3877    0.0000 C   0  0  2  0  0  0  0  0  0  0  0  0
    0.8309  -10.9752    0.0000 C   0  0  1  0  0  0  0  0  0  0  0  0
    0.8309  -10.1502    0.0000 C   0  0  2  0  0  0  0  0  0  0  0  0
    1.5454   -9.7377    0.0000 C   0  0  1  0  0  0  0  0  0  0  0  0
    2.2598  -10.1502    0.0000 C   0  0  1  0  0  0  0  0  0  0  0  0
    2.9743   -9.7377    0.0000 C   0  0  0  0  0  0  0  0  0  0  0  0
    2.9743   -8.9127    0.0000 O   0  0  0  0  0  0  0  0  0  0  0  0
    1.5454   -8.9127    0.0000 O   0  0  0  0  0  0  0  0  0  0  0  0
    0.1164   -9.7377    0.0000 O   0  0  0  0  0  0  0  0  0  0  0  0
    0.1164  -11.3877    0.0000 O   0  0  0  0  0  0  0  0  0  0  0  0
    3.4030  -11.6352    0.0000 O   0  0  0  0  0  0  0  0  0  0  0  0
    4.8319  -14.1102    0.0000 O   0  0  0  0  0  0  0  0  0  0  0  0
    6.2609  -12.4602    0.0000 C   0  0  0  0  0  0  0  0  0  0  0  0
    5.5464  -12.8727    0.0000 C   0  0  0  0  0  0  0  0  0  0  0  0
    5.5464  -13.6977    0.0000 C   0  0  1  0  0  0  0  0  0  0  0  0
    6.2609  -14.1102    0.0000 C   0  0  2  0  0  0  0  0  0  0  0  0
    6.9754  -13.6977    0.0000 C   0  0  2  0  0  0  0  0  0  0  0  0
    7.6898  -14.1102    0.0000 C   0  0  0  0  0  0  0  0  0  0  0  0
    8.4043  -13.6977    0.0000 C   0  0  0  0  0  0  0  0  0  0  0  0
    8.4043  -12.8727    0.0000 C   0  0  1  0  0  0  0  0  0  0  0  0
    9.1188  -12.4602    0.0000 C   0  0  2  0  0  0  0  0  0  0  0  0
    9.8332  -12.8727    0.0000 C   0  0  0  0  0  0  0  0  0  0  0  0
   10.5477  -12.4602    0.0000 C   0  0  2  0  0  0  0  0  0  0  0  0
   10.5477  -11.6352    0.0000 C   0  0  1  0  0  0  0  0  0  0  0  0
   11.2622  -11.2227    0.0000 C   0  0  2  0  0  0  0  0  0  0  0  0
   11.2622  -10.3977    0.0000 C   0  0  1  0  0  0  0  0  0  0  0  0
   10.5477   -9.9852    0.0000 C   0  0  0  0  0  0  0  0  0  0  0  0
    9.8332  -10.3977    0.0000 C   0  0  0  0  0  0  0  0  0  0  0  0
    9.8332  -11.2227    0.0000 C   0  0  1  0  0  0  0  0  0  0  0  0
    9.1188  -11.6352    0.0000 C   0  0  0  0  0  0  0  0  0  0  0  0
    8.4043  -11.2227    0.0000 C   0  0  0  0  0  0  0  0  0  0  0  0
    7.6898  -11.6352    0.0000 C   0  0  0  0  0  0  0  0  0  0  0  0
    7.6898  -12.4602    0.0000 C   0  0  2  0  0  0  0  0  0  0  0  0
    6.9754  -12.8727    0.0000 C   0  0  1  0  0  0  0  0  0  0  0  0
   11.9767   -9.9852    0.0000 O   0  0  0  0  0  0  0  0  0  0  0  0
   12.6911  -10.3977    0.0000 C   0  0  0  0  0  0  0  0  0  0  0  0
   13.4056   -9.9852    0.0000 C   0  0  0  0  0  0  0  0  0  0  0  0
   14.1201  -10.3977    0.0000 C   0  0  0  0  0  0  0  0  0  0  0  0
   14.8345   -9.9852    0.0000 C   0  0  0  0  0  0  0  0  0  0  0  0
   12.6911  -11.2227    0.0000 O   0  0  0  0  0  0  0  0  0  0  0  0
   13.4056   -9.1602    0.0000 C   0  0  0  0  0  0  0  0  0  0  0  0
    6.9754  -12.0477    0.0000 C   0  0  0  0  0  0  0  0  0  0  0  0
   10.1352   -9.2707    0.0000 C   0  0  0  0  0  0  0  0  0  0  0  0
   10.9602   -9.2707    0.0000 C   0  0  0  0  0  0  0  0  0  0  0  0
    9.1188  -13.2852    0.0000 C   0  0  0  0  0  0  0  0  0  0  0  0
    8.4043  -12.0477    0.0000 C   0  0  0  0  0  0  0  0  0  0  0  0
    5.8484  -14.8247    0.0000 C   0  0  0  0  0  0  0  0  0  0  0  0
    6.6734  -14.8247    0.0000 C   0  0  0  0  0  0  0  0  0  0  0  0
    6.2609  -15.5391    0.0000 O   0  0  0  0  0  0  0  0  0  0  0  0
   11.9767  -11.6352    0.0000 O   0  0  0  0  0  0  0  0  0  0  0  0
   11.2622  -12.8727    0.0000 O   0  0  0  0  0  0  0  0  0  0  0  0
   11.6909  -12.2952    0.0000 C   0  0  0  0  0  0  0  0  0  0  0  0
   12.4053  -11.8827    0.0000 O   0  0  0  0  0  0  0  0  0  0  0  0
   13.1198  -12.2952    0.0000 C   0  0  0  0  0  0  0  0  0  0  0  0
   13.1198  -13.1202    0.0000 O   0  0  0  0  0  0  0  0  0  0  0  0
   13.8343  -11.8827    0.0000 C   0  0  0  0  0  0  0  0  0  0  0  0
    6.9754  -14.5227    0.0000 H   0  0  0  0  0  0  0  0  0  0  0  0
    9.8332  -12.0477    0.0000 H   0  0  0  0  0  0  0  0  0  0  0  0
    7.6898  -13.2852    0.0000 H   0  0  0  0  0  0  0  0  0  0  0  0
  1  2  1  0  0  0  0
  2  3  1  0  0  0  0
  3  4  1  0  0  0  0
  4  5  1  0  0  0  0
  5  6  1  0  0  0  0
  1  6  1  0  0  0  0
  7  8  2  0  0  0  0
  7  9  1  0  0  0  0
  2  7  1  6  0  0  0
 11 12  1  0  0  0  0
 12 13  1  0  0  0  0
 13 14  1  0  0  0  0
 14 15  1  0  0  0  0
 15 16  1  0  0  0  0
 11 16  1  0  0  0  0
 17 18  1  0  0  0  0
 16 17  1  6  0  0  0
 15 19  1  1  0  0  0
 14 20  1  6  0  0  0
 13 21  1  1  0  0  0
 12 10  1  6  0  0  0
  5 10  1  1  0  0  0
 23 24  1  0  0  0  0
 24 25  1  0  0  0  0
 25 26  1  0  0  0  0
 26 27  1  0  0  0  0
 27 28  1  0  0  0  0
 23 28  1  0  0  0  0
 29 30  1  0  0  0  0
 28 29  1  1  0  0  0
 27 31  1  6  0  0  0
 26 32  1  1  0  0  0
 25 33  1  6  0  0  0
 24 22  1  1  0  0  0
  3 22  1  1  0  0  0
  4 34  1  6  0  0  0
 36 37  1  0  0  0  0
 37 38  1  0  0  0  0
 38 39  1  0  0  0  0
 39 40  1  0  0  0  0
 40 41  1  0  0  0  0
 41 42  1  0  0  0  0
 42 43  1  0  0  0  0
 43 44  1  0  0  0  0
 44 45  1  0  0  0  0
 45 46  1  0  0  0  0
 46 47  1  0  0  0  0
 47 48  1  0  0  0  0
 48 49  1  0  0  0  0
 49 50  1  0  0  0  0
 50 51  1  0  0  0  0
 51 52  1  0  0  0  0
 47 52  1  0  0  0  0
 52 53  1  0  0  0  0
 44 53  1  0  0  0  0
 53 54  2  0  0  0  0
 54 55  1  0  0  0  0
 55 56  1  0  0  0  0
 43 56  1  0  0  0  0
 56 57  1  0  0  0  0
 40 57  1  0  0  0  0
 36 57  1  0  0  0  0
 59 60  1  0  0  0  0
 60 61  2  0  0  0  0
 61 62  1  0  0  0  0
 59 63  2  0  0  0  0
 60 64  1  0  0  0  0
 58 59  1  0  0  0  0
 49 58  1  1  0  0  0
 57 65  1  1  0  0  0
 50 66  1  0  0  0  0
 50 67  1  0  0  0  0
 44 68  1  6  0  0  0
 43 69  1  1  0  0  0
 39 70  1  6  0  0  0
 71 72  1  0  0  0  0
 39 71  1  1  0  0  0
 48 73  1  6  0  0  0
 46 74  1  6  0  0  0
 77 78  2  0  0  0  0
 77 79  1  0  0  0  0
 76 77  1  0  0  0  0
 75 76  1  0  0  0  0
 47 75  1  1  0  0  0
 38 35  1  1  0  0  0
  6 35  1  6  0  0  0
 40 80  1  6  0  0  0
 52 81  1  1  0  0  0
 56 82  1  6  0  0  0
M  END
>  <cdx:groupId>
24135

>  <cdx:fragmentId>
23955

$$$$
