6476030.cdx
  Mrv1902 05222410222D          

 82 89  0  0  0  0            999 V2000
    4.0350  -14.7547    0.0000 O   0  0  0  0  0  0  0  0  0  0  0  0
    3.3205  -14.3422    0.0000 C   0  0  1  0  0  0  0  0  0  0  0  0
    3.3205  -13.5172    0.0000 C   0  0  2  0  0  0  0  0  0  0  0  0
    4.0350  -13.1047    0.0000 C   0  0  1  0  0  0  0  0  0  0  0  0
    4.7494  -13.5172    0.0000 C   0  0  2  0  0  0  0  0  0  0  0  0
    4.7494  -14.3422    0.0000 C   0  0  2  0  0  0  0  0  0  0  0  0
    2.6060  -14.7547    0.0000 C   0  0  0  0  0  0  0  0  0  0  0  0
    2.6060  -15.5797    0.0000 O   0  0  0  0  0  0  0  0  0  0  0  0
    1.8916  -14.3422    0.0000 O   0  0  0  0  0  0  0  0  0  0  0  0
    5.4639  -13.1047    0.0000 O   0  0  0  0  0  0  0  0  0  0  0  0
    4.7494  -11.8672    0.0000 O   0  0  0  0  0  0  0  0  0  0  0  0
    5.4639  -12.2797    0.0000 C   0  0  2  0  0  0  0  0  0  0  0  0
    6.1784  -11.8672    0.0000 C   0  0  1  0  0  0  0  0  0  0  0  0
    6.1784  -11.0422    0.0000 C   0  0  2  0  0  0  0  0  0  0  0  0
    5.4639  -10.6297    0.0000 C   0  0  1  0  0  0  0  0  0  0  0  0
    4.7494  -11.0422    0.0000 C   0  0  1  0  0  0  0  0  0  0  0  0
    4.0350  -10.6297    0.0000 C   0  0  0  0  0  0  0  0  0  0  0  0
    4.0350   -9.8047    0.0000 O   0  0  0  0  0  0  0  0  0  0  0  0
    5.4639   -9.8047    0.0000 O   0  0  0  0  0  0  0  0  0  0  0  0
    6.8929  -10.6297    0.0000 O   0  0  0  0  0  0  0  0  0  0  0  0
    6.8929  -12.2797    0.0000 O   0  0  0  0  0  0  0  0  0  0  0  0
    2.1773  -12.8572    0.0000 O   0  0  0  0  0  0  0  0  0  0  0  0
    2.8918  -11.6197    0.0000 O   0  0  0  0  0  0  0  0  0  0  0  0
    2.1773  -12.0322    0.0000 C   0  0  2  0  0  0  0  0  0  0  0  0
    1.4629  -11.6197    0.0000 C   0  0  1  0  0  0  0  0  0  0  0  0
    1.4629  -10.7947    0.0000 C   0  0  2  0  0  0  0  0  0  0  0  0
    2.1773  -10.3822    0.0000 C   0  0  1  0  0  0  0  0  0  0  0  0
    2.8918  -10.7947    0.0000 C   0  0  1  0  0  0  0  0  0  0  0  0
    3.6063  -10.3822    0.0000 C   0  0  0  0  0  0  0  0  0  0  0  0
    3.6063   -9.5572    0.0000 O   0  0  0  0  0  0  0  0  0  0  0  0
    2.1773   -9.5572    0.0000 O   0  0  0  0  0  0  0  0  0  0  0  0
    0.7484  -10.3822    0.0000 O   0  0  0  0  0  0  0  0  0  0  0  0
    0.7484  -12.0322    0.0000 O   0  0  0  0  0  0  0  0  0  0  0  0
    4.0350  -12.2797    0.0000 O   0  0  0  0  0  0  0  0  0  0  0  0
    5.4639  -14.7547    0.0000 O   0  0  0  0  0  0  0  0  0  0  0  0
    6.8929  -13.1047    0.0000 C   0  0  0  0  0  0  0  0  0  0  0  0
    6.1784  -13.5172    0.0000 C   0  0  0  0  0  0  0  0  0  0  0  0
    6.1784  -14.3422    0.0000 C   0  0  1  0  0  0  0  0  0  0  0  0
    6.8929  -14.7547    0.0000 C   0  0  2  0  0  0  0  0  0  0  0  0
    7.6073  -14.3422    0.0000 C   0  0  2  0  0  0  0  0  0  0  0  0
    8.3218  -14.7547    0.0000 C   0  0  0  0  0  0  0  0  0  0  0  0
    9.0363  -14.3422    0.0000 C   0  0  0  0  0  0  0  0  0  0  0  0
    9.0363  -13.5172    0.0000 C   0  0  1  0  0  0  0  0  0  0  0  0
    9.7507  -13.1047    0.0000 C   0  0  2  0  0  0  0  0  0  0  0  0
   10.4652  -13.5172    0.0000 C   0  0  0  0  0  0  0  0  0  0  0  0
   11.1797  -13.1047    0.0000 C   0  0  2  0  0  0  0  0  0  0  0  0
   11.1797  -12.2797    0.0000 C   0  0  1  0  0  0  0  0  0  0  0  0
   11.8942  -11.8672    0.0000 C   0  0  2  0  0  0  0  0  0  0  0  0
   11.8942  -11.0422    0.0000 C   0  0  1  0  0  0  0  0  0  0  0  0
   11.1797  -10.6297    0.0000 C   0  0  0  0  0  0  0  0  0  0  0  0
   10.4652  -11.0422    0.0000 C   0  0  0  0  0  0  0  0  0  0  0  0
   10.4652  -11.8672    0.0000 C   0  0  1  0  0  0  0  0  0  0  0  0
    9.7507  -12.2797    0.0000 C   0  0  0  0  0  0  0  0  0  0  0  0
    9.0363  -11.8672    0.0000 C   0  0  0  0  0  0  0  0  0  0  0  0
    8.3218  -12.2797    0.0000 C   0  0  0  0  0  0  0  0  0  0  0  0
    8.3218  -13.1047    0.0000 C   0  0  2  0  0  0  0  0  0  0  0  0
    7.6073  -13.5172    0.0000 C   0  0  1  0  0  0  0  0  0  0  0  0
   12.6086  -10.6297    0.0000 O   0  0  0  0  0  0  0  0  0  0  0  0
   12.6086   -9.8047    0.0000 C   0  0  0  0  0  0  0  0  0  0  0  0
   13.3231   -9.3922    0.0000 C   0  0  0  0  0  0  0  0  0  0  0  0
   13.3231   -8.5672    0.0000 C   0  0  0  0  0  0  0  0  0  0  0  0
   14.0376   -8.1547    0.0000 C   0  0  0  0  0  0  0  0  0  0  0  0
   11.8942   -9.3922    0.0000 O   0  0  0  0  0  0  0  0  0  0  0  0
   14.0376   -9.8047    0.0000 C   0  0  0  0  0  0  0  0  0  0  0  0
    7.6073  -12.6922    0.0000 C   0  0  0  0  0  0  0  0  0  0  0  0
   10.7672   -9.9153    0.0000 C   0  0  0  0  0  0  0  0  0  0  0  0
   11.5922   -9.9153    0.0000 C   0  0  0  0  0  0  0  0  0  0  0  0
    9.7507  -13.9297    0.0000 C   0  0  0  0  0  0  0  0  0  0  0  0
    9.0363  -12.6922    0.0000 C   0  0  0  0  0  0  0  0  0  0  0  0
    6.4804  -15.4692    0.0000 C   0  0  0  0  0  0  0  0  0  0  0  0
   12.3228  -12.9397    0.0000 C   0  0  0  0  0  0  0  0  0  0  0  0
   12.3228  -13.7647    0.0000 O   0  0  0  0  0  0  0  0  0  0  0  0
    7.3054  -15.4692    0.0000 C   0  0  0  0  0  0  0  0  0  0  0  0
    6.8929  -16.1837    0.0000 O   0  0  0  0  0  0  0  0  0  0  0  0
   11.8942  -13.5172    0.0000 O   0  0  0  0  0  0  0  0  0  0  0  0
   12.6086  -12.2797    0.0000 O   0  0  0  0  0  0  0  0  0  0  0  0
   13.3231  -11.8672    0.0000 C   0  0  0  0  0  0  0  0  0  0  0  0
   13.3231  -11.0422    0.0000 O   0  0  0  0  0  0  0  0  0  0  0  0
   14.0376  -12.2797    0.0000 C   0  0  0  0  0  0  0  0  0  0  0  0
    7.6073  -15.1672    0.0000 H   0  0  0  0  0  0  0  0  0  0  0  0
   10.4652  -12.6922    0.0000 H   0  0  0  0  0  0  0  0  0  0  0  0
    8.3218  -13.9297    0.0000 H   0  0  0  0  0  0  0  0  0  0  0  0
  1  2  1  0  0  0  0
  2  3  1  0  0  0  0
  3  4  1  0  0  0  0
  4  5  1  0  0  0  0
  5  6  1  0  0  0  0
  1  6  1  0  0  0  0
  7  8  2  0  0  0  0
  7  9  1  0  0  0  0
  2  7  1  6  0  0  0
 11 12  1  0  0  0  0
 12 13  1  0  0  0  0
 13 14  1  0  0  0  0
 14 15  1  0  0  0  0
 15 16  1  0  0  0  0
 11 16  1  0  0  0  0
 17 18  1  0  0  0  0
 16 17  1  6  0  0  0
 15 19  1  1  0  0  0
 14 20  1  6  0  0  0
 13 21  1  1  0  0  0
 12 10  1  6  0  0  0
  5 10  1  1  0  0  0
 23 24  1  0  0  0  0
 24 25  1  0  0  0  0
 25 26  1  0  0  0  0
 26 27  1  0  0  0  0
 27 28  1  0  0  0  0
 23 28  1  0  0  0  0
 29 30  1  0  0  0  0
 28 29  1  1  0  0  0
 27 31  1  6  0  0  0
 26 32  1  1  0  0  0
 25 33  1  6  0  0  0
 24 22  1  1  0  0  0
  3 22  1  1  0  0  0
  4 34  1  6  0  0  0
 36 37  1  0  0  0  0
 37 38  1  0  0  0  0
 38 39  1  0  0  0  0
 39 40  1  0  0  0  0
 40 41  1  0  0  0  0
 41 42  1  0  0  0  0
 42 43  1  0  0  0  0
 43 44  1  0  0  0  0
 44 45  1  0  0  0  0
 45 46  1  0  0  0  0
 46 47  1  0  0  0  0
 47 48  1  0  0  0  0
 48 49  1  0  0  0  0
 49 50  1  0  0  0  0
 50 51  1  0  0  0  0
 51 52  1  0  0  0  0
 47 52  1  0  0  0  0
 52 53  1  0  0  0  0
 44 53  1  0  0  0  0
 53 54  2  0  0  0  0
 54 55  1  0  0  0  0
 55 56  1  0  0  0  0
 43 56  1  0  0  0  0
 56 57  1  0  0  0  0
 40 57  1  0  0  0  0
 36 57  1  0  0  0  0
 59 60  1  0  0  0  0
 60 61  2  0  0  0  0
 61 62  1  0  0  0  0
 59 63  2  0  0  0  0
 60 64  1  0  0  0  0
 58 59  1  0  0  0  0
 49 58  1  1  0  0  0
 57 65  1  1  0  0  0
 50 66  1  0  0  0  0
 50 67  1  0  0  0  0
 44 68  1  6  0  0  0
 43 69  1  1  0  0  0
 39 70  1  6  0  0  0
 71 72  1  0  0  0  0
 47 71  1  1  0  0  0
 73 74  1  0  0  0  0
 39 73  1  1  0  0  0
 46 75  1  6  0  0  0
 77 78  2  0  0  0  0
 77 79  1  0  0  0  0
 76 77  1  0  0  0  0
 48 76  1  6  0  0  0
 38 35  1  1  0  0  0
  6 35  1  6  0  0  0
 40 80  1  6  0  0  0
 52 81  1  1  0  0  0
 56 82  1  6  0  0  0
M  END
>  <cdx:groupId>
23865

>  <cdx:fragmentId>
23685

$$$$
