476085.cdx
  Mrv1902 05222410192D          

 25 26  0  0  0  0            999 V2000
    7.4787   -8.1284    0.0000 C   0  0  0  0  0  0  0  0  0  0  0  0
    8.1932   -7.7159    0.0000 C   0  0  0  0  0  0  0  0  0  0  0  0
    8.9077   -8.1284    0.0000 C   0  0  0  0  0  0  0  0  0  0  0  0
    7.4787   -8.9534    0.0000 O   0  0  0  0  0  0  0  0  0  0  0  0
    9.6222   -7.7159    0.0000 C   0  0  0  0  0  0  0  0  0  0  0  0
   10.3366   -8.1284    0.0000 C   0  0  0  0  0  0  0  0  0  0  0  0
   11.0511   -7.7159    0.0000 C   0  0  0  0  0  0  0  0  0  0  0  0
   11.0511   -6.8909    0.0000 C   0  0  0  0  0  0  0  0  0  0  0  0
   10.3366   -6.4784    0.0000 C   0  0  0  0  0  0  0  0  0  0  0  0
    9.6222   -6.8909    0.0000 C   0  0  0  0  0  0  0  0  0  0  0  0
   11.7656   -6.4784    0.0000 O   0  0  0  0  0  0  0  0  0  0  0  0
    6.7643   -7.7159    0.0000 C   0  0  0  0  0  0  0  0  0  0  0  0
    6.0498   -8.1284    0.0000 C   0  0  0  0  0  0  0  0  0  0  0  0
    5.3353   -7.7159    0.0000 C   0  0  0  0  0  0  0  0  0  0  0  0
    5.3353   -6.8909    0.0000 C   0  0  0  0  0  0  0  0  0  0  0  0
    6.0498   -6.4784    0.0000 C   0  0  0  0  0  0  0  0  0  0  0  0
    6.7643   -6.8909    0.0000 C   0  0  0  0  0  0  0  0  0  0  0  0
    4.6209   -8.1284    0.0000 C   0  0  0  0  0  0  0  0  0  0  0  0
    3.9064   -7.7159    0.0000 C   0  0  0  0  0  0  0  0  0  0  0  0
    3.1919   -8.1284    0.0000 C   0  0  0  0  0  0  0  0  0  0  0  0
    3.1919   -8.9534    0.0000 C   0  0  0  0  0  0  0  0  0  0  0  0
    2.4775   -7.7159    0.0000 C   0  0  0  0  0  0  0  0  0  0  0  0
    3.9064   -6.8909    0.0000 O   0  0  0  0  0  0  0  0  0  0  0  0
    4.6209   -6.4784    0.0000 O   0  0  0  0  0  0  0  0  0  0  0  0
    6.0498   -8.9534    0.0000 O   0  0  0  0  0  0  0  0  0  0  0  0
  1  2  1  0  0  0  0
  2  3  2  0  0  0  0
  1  4  2  0  0  0  0
  5  6  1  0  0  0  0
  6  7  2  0  0  0  0
  7  8  1  0  0  0  0
  8  9  2  0  0  0  0
  9 10  1  0  0  0  0
  5 10  2  0  0  0  0
  8 11  1  0  0  0  0
  3  5  1  0  0  0  0
 12 13  1  0  0  0  0
 13 14  2  0  0  0  0
 14 15  1  0  0  0  0
 15 16  2  0  0  0  0
 16 17  1  0  0  0  0
 12 17  2  0  0  0  0
 18 19  1  0  0  0  0
 19 20  1  0  0  0  0
 20 21  2  0  0  0  0
 20 22  1  0  0  0  0
 19 23  1  0  0  0  0
 14 18  1  0  0  0  0
 15 24  1  0  0  0  0
  1 12  1  0  0  0  0
 13 25  1  0  0  0  0
M  END
>  <cdx:groupId>
24506

>  <cdx:fragmentId>
24455

$$$$
