476086.cdx
  Mrv1902 05222410202D          

 25 27  0  0  0  0            999 V2000
    8.1194   -6.5884    0.0000 O   0  0  0  0  0  0  0  0  0  0  0  0
   11.7534   -8.2384    0.0000 O   0  0  0  0  0  0  0  0  0  0  0  0
   10.9284   -9.0634    0.0000 C   0  0  0  0  0  0  0  0  0  0  0  0
   10.9284   -8.2384    0.0000 C   0  0  0  0  0  0  0  0  0  0  0  0
   10.9284   -7.4134    0.0000 C   0  0  0  0  0  0  0  0  0  0  0  0
    8.8338   -8.6509    0.0000 C   0  0  0  0  0  0  0  0  0  0  0  0
    8.1194   -9.0634    0.0000 C   0  0  0  0  0  0  0  0  0  0  0  0
    7.4049   -8.6509    0.0000 C   0  0  0  0  0  0  0  0  0  0  0  0
    7.4049   -7.8259    0.0000 C   0  0  0  0  0  0  0  0  0  0  0  0
    8.1194   -7.4134    0.0000 C   0  0  0  0  0  0  0  0  0  0  0  0
    8.8338   -7.8259    0.0000 C   0  0  0  0  0  0  0  0  0  0  0  0
    9.6185   -7.5710    0.0000 C   0  0  0  0  0  0  0  0  0  0  0  0
   10.1034   -8.2384    0.0000 C   0  0  0  0  0  0  0  0  0  0  0  0
    9.6185   -8.9059    0.0000 O   0  0  0  0  0  0  0  0  0  0  0  0
    2.4036   -9.0634    0.0000 O   0  0  0  0  0  0  0  0  0  0  0  0
    4.5470   -8.6509    0.0000 C   0  0  0  0  0  0  0  0  0  0  0  0
    3.8325   -9.0634    0.0000 C   0  0  0  0  0  0  0  0  0  0  0  0
    3.1181   -8.6509    0.0000 C   0  0  0  0  0  0  0  0  0  0  0  0
    3.1181   -7.8259    0.0000 C   0  0  0  0  0  0  0  0  0  0  0  0
    3.8325   -7.4134    0.0000 C   0  0  0  0  0  0  0  0  0  0  0  0
    4.5470   -7.8259    0.0000 C   0  0  0  0  0  0  0  0  0  0  0  0
    6.6904   -6.5884    0.0000 O   0  0  0  0  0  0  0  0  0  0  0  0
    5.2615   -7.4134    0.0000 C   0  0  0  0  0  0  0  0  0  0  0  0
    5.9760   -7.8259    0.0000 C   0  0  0  0  0  0  0  0  0  0  0  0
    6.6904   -7.4134    0.0000 C   0  0  0  0  0  0  0  0  0  0  0  0
 25  9  1  0  0  0  0
 10  1  1  0  0  0  0
 13  4  1  0  0  0  0
  4  2  1  0  0  0  0
  4  3  1  0  0  0  0
  5  4  1  0  0  0  0
 14  6  1  0  0  0  0
 11  6  2  0  0  0  0
  7  6  1  0  0  0  0
  8  7  2  0  0  0  0
  9  8  1  0  0  0  0
 10  9  2  0  0  0  0
 11 10  1  0  0  0  0
 12 11  1  0  0  0  0
 13 12  1  0  0  0  0
 14 13  1  0  0  0  0
 23 21  1  0  0  0  0
 18 15  1  0  0  0  0
 21 16  2  0  0  0  0
 17 16  1  0  0  0  0
 18 17  2  0  0  0  0
 19 18  1  0  0  0  0
 20 19  2  0  0  0  0
 21 20  1  0  0  0  0
 25 22  2  0  0  0  0
 24 23  2  0  0  0  0
 25 24  1  0  0  0  0
M  END
>  <cdx:groupId>
24592

>  <cdx:fragmentId>
24540

$$$$
