4762.cdx
  Mrv1902 05222410212D          

 19 19  0  0  0  0            999 V2000
    5.9845   -7.3631    0.0000 C   0  0  0  0  0  0  0  0  0  0  0  0
    5.9845   -8.1881    0.0000 C   0  0  0  0  0  0  0  0  0  0  0  0
    6.6990   -8.6006    0.0000 C   0  0  0  0  0  0  0  0  0  0  0  0
    7.4135   -8.1881    0.0000 C   0  0  0  0  0  0  0  0  0  0  0  0
    7.4135   -7.3631    0.0000 C   0  0  0  0  0  0  0  0  0  0  0  0
    6.6990   -6.9506    0.0000 C   0  0  0  0  0  0  0  0  0  0  0  0
    6.6990   -6.1256    0.0000 O   0  0  0  0  0  0  0  0  0  0  0  0
    5.2701   -8.6006    0.0000 C   0  0  0  0  0  0  0  0  0  0  0  0
    4.5556   -8.1881    0.0000 C   0  0  0  0  0  0  0  0  0  0  0  0
    5.2701   -9.4256    0.0000 C   0  0  0  0  0  0  0  0  0  0  0  0
    8.1279   -8.6006    0.0000 O   0  0  0  0  0  0  0  0  0  0  0  0
    8.1279   -6.9506    0.0000 C   0  0  0  0  0  0  0  0  0  0  0  0
    8.1279   -6.1256    0.0000 C   0  0  0  0  0  0  0  0  0  0  0  0
    8.8424   -5.7131    0.0000 C   0  0  0  0  0  0  0  0  0  0  0  0
    8.8424   -4.8881    0.0000 C   0  0  0  0  0  0  0  0  0  0  0  0
    9.5569   -6.1256    0.0000 C   0  0  0  0  0  0  0  0  0  0  0  0
    8.8424   -8.1881    0.0000 C   0  0  0  0  0  0  0  0  0  0  0  0
    5.9845   -9.8381    0.0000 C   0  0  0  0  0  0  0  0  0  0  0  0
    5.9845  -10.6631    0.0000 C   0  0  0  0  0  0  0  0  0  0  0  0
  1  2  2  0  0  0  0
  2  3  1  0  0  0  0
  3  4  2  0  0  0  0
  4  5  1  0  0  0  0
  5  6  2  0  0  0  0
  6  1  1  0  0  0  0
  6  7  1  0  0  0  0
  2  8  1  0  0  0  0
  8  9  1  0  0  0  0
  8 10  1  0  0  0  0
  4 11  1  0  0  0  0
  5 12  1  0  0  0  0
 12 13  1  0  0  0  0
 13 14  2  0  0  0  0
 14 15  1  0  0  0  0
 14 16  1  0  0  0  0
 11 17  1  0  0  0  0
 10 18  1  0  0  0  0
 18 19  1  0  0  0  0
M  END
>  <cdx:fragmentId>
5

$$$$
