476333.cdx
  Mrv1902 05222410202D          

 44 47  0  0  0  0            999 V2000
    7.7941   -7.2223    0.0000 O   0  0  0  0  0  0  0  0  0  0  0  0
    7.0794   -7.6343    0.0000 C   0  0  1  0  0  0  0  0  0  0  0  0
    7.0788   -8.4593    0.0000 C   0  0  2  0  0  0  0  0  0  0  0  0
    7.7930   -8.8723    0.0000 C   0  0  1  0  0  0  0  0  0  0  0  0
    8.5077   -8.4603    0.0000 C   0  0  2  0  0  0  0  0  0  0  0  0
    8.5083   -7.6353    0.0000 C   0  0  2  0  0  0  0  0  0  0  0  0
    9.2219   -8.8733    0.0000 O   0  0  0  0  0  0  0  0  0  0  0  0
    6.3640   -8.8713    0.0000 O   0  0  0  0  0  0  0  0  0  0  0  0
    9.2230   -7.2233    0.0000 O   0  0  0  0  0  0  0  0  0  0  0  0
    9.9372   -7.6362    0.0000 C   0  0  0  0  0  0  0  0  0  0  0  0
   10.6520   -7.2242    0.0000 C   0  0  0  0  0  0  0  0  0  0  0  0
    6.3652   -7.2213    0.0000 C   0  0  0  0  0  0  0  0  0  0  0  0
    0.6494   -7.2175    0.0000 O   0  0  0  0  0  0  0  0  0  0  0  0
    0.6483   -8.8675    0.0000 O   0  0  0  0  0  0  0  0  0  0  0  0
    2.7920   -8.4564    0.0000 C   0  0  0  0  0  0  0  0  0  0  0  0
    2.0772   -8.8685    0.0000 C   0  0  0  0  0  0  0  0  0  0  0  0
    1.3630   -8.4555    0.0000 C   0  0  0  0  0  0  0  0  0  0  0  0
    1.3636   -7.6305    0.0000 C   0  0  0  0  0  0  0  0  0  0  0  0
    2.0783   -7.2185    0.0000 C   0  0  0  0  0  0  0  0  0  0  0  0
    2.7925   -7.6314    0.0000 C   0  0  0  0  0  0  0  0  0  0  0  0
    5.6504   -7.6334    0.0000 O   0  0  0  0  0  0  0  0  0  0  0  0
    4.9368   -6.3954    0.0000 O   0  0  0  0  0  0  0  0  0  0  0  0
    3.5073   -7.2194    0.0000 C   0  0  0  0  0  0  0  0  0  0  0  0
    4.2215   -7.6324    0.0000 C   0  0  0  0  0  0  0  0  0  0  0  0
    7.7913  -11.3473    0.0000 O   0  0  0  0  0  0  0  0  0  0  0  0
    6.3618  -12.1713    0.0000 O   0  0  0  0  0  0  0  0  0  0  0  0
    4.9334  -11.3454    0.0000 O   0  0  0  0  0  0  0  0  0  0  0  0
    4.9346   -9.6954    0.0000 C   0  0  0  0  0  0  0  0  0  0  0  0
    5.6487  -10.1084    0.0000 C   0  0  1  0  0  0  0  0  0  0  0  0
    5.6482  -10.9334    0.0000 C   0  0  1  0  0  0  0  0  0  0  0  0
    6.3624  -11.3463    0.0000 C   0  0  2  0  0  0  0  0  0  0  0  0
    7.0771  -10.9343    0.0000 C   0  0  2  0  0  0  0  0  0  0  0  0
    7.0777  -10.1093    0.0000 C   0  0  1  0  0  0  0  0  0  0  0  0
    6.3635   -9.6963    0.0000 O   0  0  0  0  0  0  0  0  0  0  0  0
    7.7924   -9.6973    0.0000 O   0  0  0  0  0  0  0  0  0  0  0  0
   13.5099   -7.2262    0.0000 O   0  0  0  0  0  0  0  0  0  0  0  0
   13.5088   -8.8762    0.0000 O   0  0  0  0  0  0  0  0  0  0  0  0
   11.3656   -8.4622    0.0000 C   0  0  0  0  0  0  0  0  0  0  0  0
   12.0798   -8.8752    0.0000 C   0  0  0  0  0  0  0  0  0  0  0  0
   12.7946   -8.4632    0.0000 C   0  0  0  0  0  0  0  0  0  0  0  0
   12.7951   -7.6382    0.0000 C   0  0  0  0  0  0  0  0  0  0  0  0
   12.0809   -7.2252    0.0000 C   0  0  0  0  0  0  0  0  0  0  0  0
   11.3662   -7.6372    0.0000 C   0  0  0  0  0  0  0  0  0  0  0  0
    4.9362   -7.2204    0.0000 C   0  0  0  0  0  0  0  0  0  0  0  0
 21 12  1  0  0  0  0
 23 20  1  0  0  0  0
 18 13  1  0  0  0  0
 17 14  1  0  0  0  0
 20 15  2  0  0  0  0
 16 15  1  0  0  0  0
 17 16  2  0  0  0  0
 18 17  1  0  0  0  0
 19 18  2  0  0  0  0
 20 19  1  0  0  0  0
 44 21  1  0  0  0  0
 44 22  2  0  0  0  0
 24 23  2  0  0  0  0
 44 24  1  0  0  0  0
 33 35  1  1  0  0  0
 32 25  1  6  0  0  0
 31 26  1  6  0  0  0
 30 27  1  1  0  0  0
 29 28  1  6  0  0  0
 34 29  1  0  0  0  0
 30 29  1  0  0  0  0
 31 30  1  0  0  0  0
 32 31  1  0  0  0  0
 33 32  1  0  0  0  0
 34 33  1  0  0  0  0
 41 36  1  0  0  0  0
 40 37  1  0  0  0  0
 43 38  2  0  0  0  0
 39 38  1  0  0  0  0
 40 39  2  0  0  0  0
 41 40  1  0  0  0  0
 42 41  2  0  0  0  0
 43 42  1  0  0  0  0
  1  2  1  0  0  0  0
  2  3  1  0  0  0  0
  3  4  1  0  0  0  0
  4  5  1  0  0  0  0
  5  6  1  0  0  0  0
  1  6  1  0  0  0  0
  4 35  1  1  0  0  0
  5  7  1  6  0  0  0
  3  8  1  6  0  0  0
 10 11  1  0  0  0  0
  9 10  1  0  0  0  0
 11 43  1  0  0  0  0
  6  9  1  1  0  0  0
  2 12  1  1  0  0  0
M  END
>  <cdx:fragmentId>
24731

$$$$
