476330.cdx
  Mrv1902 05222410192D          

 20 21  0  0  0  0            999 V2000
    8.5519   -5.5120    0.0000 C   0  0  2  0  0  0  0  0  0  0  0  0
    8.1400   -4.8125    0.0000 C   0  0  0  0  0  0  0  0  0  0  0  0
    7.0950   -4.8125    0.0000 C   0  0  0  0  0  0  0  0  0  0  0  0
    6.4075   -4.5650    0.0000 C   0  0  0  0  0  0  0  0  0  0  0  0
    5.4450   -5.0325    0.0000 C   0  0  0  0  0  0  0  0  0  0  0  0
    5.8575   -5.8850    0.0000 C   0  0  0  0  0  0  0  0  0  0  0  0
    6.4075   -6.2425    0.0000 C   0  0  0  0  0  0  0  0  0  0  0  0
    6.4350   -6.9025    0.0000 C   0  0  0  0  0  0  0  0  0  0  0  0
    7.3150   -7.3975    0.0000 C   0  0  0  0  0  0  0  0  0  0  0  0
    8.1400   -6.9850    0.0000 C   0  0  0  0  0  0  0  0  0  0  0  0
    8.5519   -6.3370    0.0000 C   0  0  1  0  0  0  0  0  0  0  0  0
    9.2664   -5.9245    0.0000 O   0  0  0  0  0  0  0  0  0  0  0  0
    5.8516   -7.5134    0.0000 C   0  0  0  0  0  0  0  0  0  0  0  0
    4.6481   -5.2460    0.0000 C   0  0  0  0  0  0  0  0  0  0  0  0
    4.7305   -4.6200    0.0000 C   0  0  0  0  0  0  0  0  0  0  0  0
    8.9644   -4.7975    0.0000 C   0  0  0  0  0  0  0  0  0  0  0  0
    8.9644   -7.0514    0.0000 H   0  0  0  0  0  0  0  0  0  0  0  0
    7.3085   -5.6094    0.0000 H   0  0  0  0  0  0  0  0  0  0  0  0
    6.1940   -3.7681    0.0000 H   0  0  0  0  0  0  0  0  0  0  0  0
    6.9909   -5.6591    0.0000 H   0  0  0  0  0  0  0  0  0  0  0  0
  1  2  1  0  0  0  0
  2  3  1  0  0  0  0
  3  4  2  0  0  0  0
  4  5  1  0  0  0  0
  5  6  1  0  0  0  0
  6  7  1  0  0  0  0
  7  8  2  0  0  0  0
  8  9  1  0  0  0  0
  9 10  1  0  0  0  0
 10 11  1  0  0  0  0
 11 12  1  0  0  0  0
  1 12  1  0  0  0  0
  1 11  1  0  0  0  0
  8 13  1  0  0  0  0
  5 14  1  0  0  0  0
  5 15  1  0  0  0  0
  1 16  1  6  0  0  0
 11 17  1  1  0  0  0
  3 18  1  0  0  0  0
  4 19  1  0  0  0  0
  7 20  1  0  0  0  0
M  END
>  <cdx:fragmentId>
5

$$$$
