4765.cdx
  Mrv1902 05222410232D          

 11 11  0  0  0  0            999 V2000
    7.4619   -5.4180    0.0000 C   0  0  0  0  0  0  0  0  0  0  0  0
    7.4619   -6.2430    0.0000 C   0  0  0  0  0  0  0  0  0  0  0  0
    6.7474   -6.6555    0.0000 C   0  0  0  0  0  0  0  0  0  0  0  0
    6.0329   -6.2430    0.0000 C   0  0  0  0  0  0  0  0  0  0  0  0
    6.0329   -5.4180    0.0000 C   0  0  0  0  0  0  0  0  0  0  0  0
    6.7474   -5.0055    0.0000 C   0  0  0  0  0  0  0  0  0  0  0  0
    8.1763   -5.0055    0.0000 S   0  0  0  0  0  0  0  0  0  0  0  0
    8.5888   -5.7200    0.0000 O   0  0  0  0  0  0  0  0  0  0  0  0
    7.7638   -4.2911    0.0000 O   0  0  0  0  0  0  0  0  0  0  0  0
    8.8908   -4.5930    0.0000 O   0  0  0  0  0  0  0  0  0  0  0  0
    5.3184   -6.6555    0.0000 O   0  0  0  0  0  0  0  0  0  0  0  0
  1  2  1  0  0  0  0
  2  3  2  0  0  0  0
  3  4  1  0  0  0  0
  4  5  2  0  0  0  0
  5  6  1  0  0  0  0
  1  6  2  0  0  0  0
  7  8  2  0  0  0  0
  7  9  2  0  0  0  0
  7 10  1  0  0  0  0
  1  7  1  0  0  0  0
  4 11  1  0  0  0  0
M  END
>  <cdx:fragmentId>
5

$$$$
