4768.cdx
  Mrv1902 05222410232D          

 20 23  0  0  0  0            999 V2000
    4.1902   -4.8469    0.0000 C   0  0  0  0  0  0  0  0  0  0  0  0
    4.1902   -5.6719    0.0000 C   0  0  0  0  0  0  0  0  0  0  0  0
    4.9046   -6.0844    0.0000 C   0  0  0  0  0  0  0  0  0  0  0  0
    5.6191   -5.6719    0.0000 C   0  0  0  0  0  0  0  0  0  0  0  0
    5.6191   -4.8469    0.0000 C   0  0  0  0  0  0  0  0  0  0  0  0
    4.9046   -4.4344    0.0000 C   0  0  0  0  0  0  0  0  0  0  0  0
    6.3336   -6.0844    0.0000 C   0  0  1  0  0  0  0  0  0  0  0  0
    7.0480   -5.6719    0.0000 C   0  0  1  0  0  0  0  0  0  0  0  0
    7.0480   -4.8469    0.0000 C   0  0  0  0  0  0  0  0  0  0  0  0
    6.3336   -4.4344    0.0000 O   0  0  0  0  0  0  0  0  0  0  0  0
    6.5051   -6.8913    0.0000 O   0  0  0  0  0  0  0  0  0  0  0  0
    7.3256   -6.9776    0.0000 C   0  0  0  0  0  0  0  0  0  0  0  0
    7.6611   -6.2239    0.0000 C   0  0  0  0  0  0  0  0  0  0  0  0
    7.8105   -7.6450    0.0000 C   0  0  0  0  0  0  0  0  0  0  0  0
    8.6310   -7.5588    0.0000 C   0  0  0  0  0  0  0  0  0  0  0  0
    8.9665   -6.8051    0.0000 C   0  0  0  0  0  0  0  0  0  0  0  0
    8.4816   -6.1377    0.0000 C   0  0  0  0  0  0  0  0  0  0  0  0
    3.4757   -4.4344    0.0000 O   0  0  0  0  0  0  0  0  0  0  0  0
    2.7612   -4.8469    0.0000 C   0  0  0  0  0  0  0  0  0  0  0  0
    9.2143   -8.1421    0.0000 O   0  0  0  0  0  0  0  0  0  0  0  0
  1  2  2  0  0  0  0
  2  3  1  0  0  0  0
  3  4  2  0  0  0  0
  4  5  1  0  0  0  0
  5  6  2  0  0  0  0
  6  1  1  0  0  0  0
  4  7  1  0  0  0  0
  7  8  1  0  0  0  0
  8  9  1  0  0  0  0
  9 10  1  0  0  0  0
 10  5  1  0  0  0  0
  7 11  1  1  0  0  0
 11 12  1  0  0  0  0
 12 13  2  0  0  0  0
  8 13  1  1  0  0  0
 12 14  1  0  0  0  0
 14 15  2  0  0  0  0
 15 16  1  0  0  0  0
 16 17  2  0  0  0  0
 17 13  1  0  0  0  0
  1 18  1  0  0  0  0
 18 19  1  0  0  0  0
 15 20  1  0  0  0  0
M  END
>  <cdx:fragmentId>
5

$$$$
