47698.cdx
  Mrv1902 05222410232D          

 31 32  0  0  0  0            999 V2000
    4.7580   -5.0737    0.0000 C   0  0  0  0  0  0  0  0  0  0  0  0
    4.7580   -5.8988    0.0000 C   0  0  0  0  0  0  0  0  0  0  0  0
    5.4725   -6.3113    0.0000 C   0  0  0  0  0  0  0  0  0  0  0  0
    6.1870   -5.8988    0.0000 C   0  0  0  0  0  0  0  0  0  0  0  0
    6.1870   -5.0737    0.0000 C   0  0  0  0  0  0  0  0  0  0  0  0
    5.4725   -4.6612    0.0000 C   0  0  0  0  0  0  0  0  0  0  0  0
    4.0436   -6.3113    0.0000 O   0  0  0  0  0  0  0  0  0  0  0  0
    6.9014   -4.6612    0.0000 C   0  0  1  0  0  0  0  0  0  0  0  0
    8.3304   -4.6612    0.0000 C   0  0  0  0  0  0  0  0  0  0  0  0
    7.6159   -5.0737    0.0000 C   0  0  1  0  0  0  0  0  0  0  0  0
    4.0436   -4.6612    0.0000 O   0  0  0  0  0  0  0  0  0  0  0  0
    3.3291   -5.0737    0.0000 C   0  0  0  0  0  0  0  0  0  0  0  0
    7.6159   -5.8987    0.0000 O   0  0  0  0  0  0  0  0  0  0  0  0
    8.3304   -6.3112    0.0000 C   0  0  0  0  0  0  0  0  0  0  0  0
    8.3304   -7.1362    0.0000 C   0  0  0  0  0  0  0  0  0  0  0  0
    9.0449   -7.5488    0.0000 C   0  0  0  0  0  0  0  0  0  0  0  0
    9.7593   -7.1362    0.0000 C   0  0  0  0  0  0  0  0  0  0  0  0
    9.7593   -6.3112    0.0000 C   0  0  0  0  0  0  0  0  0  0  0  0
    9.0449   -5.8987    0.0000 C   0  0  0  0  0  0  0  0  0  0  0  0
    9.0449   -5.0737    0.0000 O   0  0  0  0  0  0  0  0  0  0  0  0
    9.7593   -4.6612    0.0000 C   0  0  0  0  0  0  0  0  0  0  0  0
   10.4738   -7.5487    0.0000 C   0  0  0  0  0  0  0  0  0  0  0  0
   11.1883   -7.1362    0.0000 C   0  0  0  0  0  0  0  0  0  0  0  0
   11.9027   -7.5487    0.0000 C   0  0  0  0  0  0  0  0  0  0  0  0
    6.9014   -3.8362    0.0000 O   0  0  0  0  0  0  0  0  0  0  0  0
    3.3291   -5.8988    0.0000 C   0  0  0  0  0  0  0  0  0  0  0  0
    7.6159   -7.5487    0.0000 O   0  0  0  0  0  0  0  0  0  0  0  0
    6.9014   -7.1362    0.0000 C   0  0  0  0  0  0  0  0  0  0  0  0
    7.6159   -3.4237    0.0000 C   0  0  0  0  0  0  0  0  0  0  0  0
    7.6159   -2.5987    0.0000 O   0  0  0  0  0  0  0  0  0  0  0  0
    8.3304   -3.8362    0.0000 C   0  0  0  0  0  0  0  0  0  0  0  0
  1  2  2  0  0  0  0
  2  3  1  0  0  0  0
  3  4  2  0  0  0  0
  4  5  1  0  0  0  0
  5  6  2  0  0  0  0
  6  1  1  0  0  0  0
  2  7  1  0  0  0  0
  5  8  1  0  0  0  0
  8 10  1  0  0  0  0
 10  9  1  0  0  0  0
  1 11  1  0  0  0  0
 11 12  1  0  0  0  0
 10 13  1  1  0  0  0
 13 14  1  0  0  0  0
 14 15  2  0  0  0  0
 15 16  1  0  0  0  0
 16 17  2  0  0  0  0
 17 18  1  0  0  0  0
 18 19  2  0  0  0  0
 19 14  1  0  0  0  0
 19 20  1  0  0  0  0
 20 21  1  0  0  0  0
 17 22  1  0  0  0  0
 22 23  1  0  0  0  0
 23 24  2  0  0  0  0
  8 25  1  6  0  0  0
  7 26  1  0  0  0  0
 15 27  1  0  0  0  0
 27 28  1  0  0  0  0
 25 29  1  0  0  0  0
 29 30  2  0  0  0  0
 29 31  1  0  0  0  0
M  END
>  <cdx:fragmentId>
1129

$$$$
