47696.cdx
  Mrv1902 05222410222D          

 24 25  0  0  0  0            999 V2000
    4.7580   -5.0737    0.0000 C   0  0  0  0  0  0  0  0  0  0  0  0
    4.7580   -5.8988    0.0000 C   0  0  0  0  0  0  0  0  0  0  0  0
    5.4725   -6.3113    0.0000 C   0  0  0  0  0  0  0  0  0  0  0  0
    6.1870   -5.8988    0.0000 C   0  0  0  0  0  0  0  0  0  0  0  0
    6.1870   -5.0737    0.0000 C   0  0  0  0  0  0  0  0  0  0  0  0
    5.4725   -4.6612    0.0000 C   0  0  0  0  0  0  0  0  0  0  0  0
    4.0436   -6.3113    0.0000 O   0  0  0  0  0  0  0  0  0  0  0  0
    6.9014   -4.6612    0.0000 C   0  0  0  0  0  0  0  0  0  0  0  0
    9.0449   -5.8987    0.0000 C   0  0  0  0  0  0  0  0  0  0  0  0
    9.7593   -6.3112    0.0000 C   0  0  0  0  0  0  0  0  0  0  0  0
   10.4738   -5.8988    0.0000 C   0  0  0  0  0  0  0  0  0  0  0  0
   10.4738   -5.0737    0.0000 C   0  0  0  0  0  0  0  0  0  0  0  0
    9.7593   -4.6612    0.0000 C   0  0  0  0  0  0  0  0  0  0  0  0
    9.0449   -5.0737    0.0000 C   0  0  0  0  0  0  0  0  0  0  0  0
    8.3304   -4.6612    0.0000 C   0  0  1  0  0  0  0  0  0  0  0  0
    7.6159   -5.0737    0.0000 C   0  0  1  0  0  0  0  0  0  0  0  0
    4.0436   -4.6612    0.0000 O   0  0  0  0  0  0  0  0  0  0  0  0
    3.3291   -5.0737    0.0000 C   0  0  0  0  0  0  0  0  0  0  0  0
    7.6159   -5.8987    0.0000 C   0  0  0  0  0  0  0  0  0  0  0  0
    8.3304   -3.8362    0.0000 C   0  0  0  0  0  0  0  0  0  0  0  0
   11.1883   -6.3113    0.0000 O   0  0  0  0  0  0  0  0  0  0  0  0
   11.1883   -4.6612    0.0000 O   0  0  0  0  0  0  0  0  0  0  0  0
   11.9027   -5.0738    0.0000 C   0  0  0  0  0  0  0  0  0  0  0  0
    9.7593   -7.1362    0.0000 O   0  0  0  0  0  0  0  0  0  0  0  0
  1  2  2  0  0  0  0
  2  3  1  0  0  0  0
  3  4  2  0  0  0  0
  4  5  1  0  0  0  0
  5  6  2  0  0  0  0
  6  1  1  0  0  0  0
  2  7  1  0  0  0  0
  5  8  1  0  0  0  0
  9 14  1  0  0  0  0
  8 16  1  0  0  0  0
 10  9  2  0  0  0  0
 11 10  1  0  0  0  0
 12 11  2  0  0  0  0
 13 12  1  0  0  0  0
 14 13  2  0  0  0  0
 15 14  1  0  0  0  0
 16 15  1  0  0  0  0
  1 17  1  0  0  0  0
 17 18  1  0  0  0  0
 16 19  1  1  0  0  0
 15 20  1  1  0  0  0
 11 21  1  0  0  0  0
 12 22  1  0  0  0  0
 22 23  1  0  0  0  0
 10 24  1  0  0  0  0
M  END
>  <cdx:fragmentId>
1129

$$$$
