47693.cdx
  Mrv1902 05222410212D          

 26 28  0  0  0  0            999 V2000
    7.4484   -6.5968    0.0000 C   0  0  0  0  0  0  0  0  0  0  0  0
    7.7033   -7.3814    0.0000 C   0  0  2  0  0  0  0  0  0  0  0  0
    8.5283   -7.3815    0.0000 C   0  0  2  0  0  0  0  0  0  0  0  0
    8.7833   -6.5969    0.0000 C   0  0  1  0  0  0  0  0  0  0  0  0
    8.1160   -6.1119    0.0000 O   0  0  0  0  0  0  0  0  0  0  0  0
    9.5680   -6.3421    0.0000 C   0  0  0  0  0  0  0  0  0  0  0  0
   10.1810   -6.8942    0.0000 C   0  0  0  0  0  0  0  0  0  0  0  0
   10.9657   -6.6394    0.0000 C   0  0  0  0  0  0  0  0  0  0  0  0
   11.1373   -5.8324    0.0000 C   0  0  0  0  0  0  0  0  0  0  0  0
   10.5243   -5.2803    0.0000 C   0  0  0  0  0  0  0  0  0  0  0  0
    9.7396   -5.5352    0.0000 C   0  0  0  0  0  0  0  0  0  0  0  0
    7.4898   -8.1783    0.0000 H   0  0  0  0  0  0  0  0  0  0  0  0
    6.9064   -7.5949    0.0000 C   0  0  0  0  0  0  0  0  0  0  0  0
    9.0131   -8.0490    0.0000 C   0  0  0  0  0  0  0  0  0  0  0  0
   10.6959   -4.4734    0.0000 O   0  0  0  0  0  0  0  0  0  0  0  0
   11.4928   -4.2598    0.0000 C   0  0  0  0  0  0  0  0  0  0  0  0
   11.9219   -5.5776    0.0000 O   0  0  0  0  0  0  0  0  0  0  0  0
    6.6929   -8.3918    0.0000 C   0  0  0  0  0  0  0  0  0  0  0  0
    5.8960   -8.6054    0.0000 C   0  0  0  0  0  0  0  0  0  0  0  0
    5.6825   -9.4022    0.0000 C   0  0  0  0  0  0  0  0  0  0  0  0
    6.2658   -9.9856    0.0000 C   0  0  0  0  0  0  0  0  0  0  0  0
    7.0627   -9.7721    0.0000 C   0  0  0  0  0  0  0  0  0  0  0  0
    7.2762   -8.9752    0.0000 C   0  0  0  0  0  0  0  0  0  0  0  0
    6.0523  -10.7825    0.0000 O   0  0  0  0  0  0  0  0  0  0  0  0
    4.8856   -9.6158    0.0000 O   0  0  0  0  0  0  0  0  0  0  0  0
    4.6720  -10.4127    0.0000 C   0  0  0  0  0  0  0  0  0  0  0  0
  1  2  1  0  0  0  0
  2  3  1  0  0  0  0
  3  4  1  0  0  0  0
  4  5  1  0  0  0  0
  5  1  1  0  0  0  0
  4  6  1  1  0  0  0
  6  7  2  0  0  0  0
  7  8  1  0  0  0  0
  8  9  2  0  0  0  0
  9 10  1  0  0  0  0
 10 11  2  0  0  0  0
 11  6  1  0  0  0  0
  2 12  1  1  0  0  0
  2 13  1  0  0  0  0
  3 14  1  6  0  0  0
 10 15  1  0  0  0  0
 15 16  1  0  0  0  0
  9 17  1  0  0  0  0
 13 18  1  0  0  0  0
 18 19  2  0  0  0  0
 19 20  1  0  0  0  0
 20 21  2  0  0  0  0
 21 22  1  0  0  0  0
 22 23  2  0  0  0  0
 23 18  1  0  0  0  0
 21 24  1  0  0  0  0
 20 25  1  0  0  0  0
 25 26  1  0  0  0  0
M  END
>  <cdx:fragmentId>
1193

$$$$
