47695.cdx
  Mrv1902 05222410222D          

 21 23  0  0  0  0            999 V2000
    4.7580   -5.0737    0.0000 C   0  0  0  0  0  0  0  0  0  0  0  0
    4.7580   -5.8988    0.0000 C   0  0  0  0  0  0  0  0  0  0  0  0
    5.4725   -6.3113    0.0000 C   0  0  0  0  0  0  0  0  0  0  0  0
    6.1870   -5.8988    0.0000 C   0  0  0  0  0  0  0  0  0  0  0  0
    6.1870   -5.0737    0.0000 C   0  0  0  0  0  0  0  0  0  0  0  0
    5.4725   -4.6612    0.0000 C   0  0  0  0  0  0  0  0  0  0  0  0
    5.4725   -3.8363    0.0000 O   0  0  0  0  0  0  0  0  0  0  0  0
    4.0436   -6.3113    0.0000 O   0  0  0  0  0  0  0  0  0  0  0  0
    6.9014   -4.6612    0.0000 C   0  0  2  0  0  0  0  0  0  0  0  0
    7.6159   -5.0737    0.0000 C   0  0  0  0  0  0  0  0  0  0  0  0
    7.6159   -5.8987    0.0000 C   0  0  0  0  0  0  0  0  0  0  0  0
    8.3304   -6.3112    0.0000 C   0  0  0  0  0  0  0  0  0  0  0  0
    6.9014   -3.8362    0.0000 O   0  0  0  0  0  0  0  0  0  0  0  0
    8.3304   -7.1362    0.0000 C   0  0  0  0  0  0  0  0  0  0  0  0
    9.0449   -7.5487    0.0000 C   0  0  0  0  0  0  0  0  0  0  0  0
    9.7593   -7.1362    0.0000 C   0  0  0  0  0  0  0  0  0  0  0  0
    9.7593   -6.3112    0.0000 C   0  0  0  0  0  0  0  0  0  0  0  0
    9.0449   -5.8988    0.0000 C   0  0  0  0  0  0  0  0  0  0  0  0
   10.5439   -7.3912    0.0000 O   0  0  0  0  0  0  0  0  0  0  0  0
   11.0289   -6.7237    0.0000 C   0  0  0  0  0  0  0  0  0  0  0  0
   10.5439   -6.0563    0.0000 O   0  0  0  0  0  0  0  0  0  0  0  0
  1  2  2  0  0  0  0
  2  3  1  0  0  0  0
  3  4  2  0  0  0  0
  4  5  1  0  0  0  0
  5  6  2  0  0  0  0
  6  1  1  0  0  0  0
  6  7  1  0  0  0  0
  2  8  1  0  0  0  0
  5  9  1  0  0  0  0
  9 10  1  0  0  0  0
 10 11  1  0  0  0  0
 11 12  1  0  0  0  0
  9 13  1  1  0  0  0
 12 14  2  0  0  0  0
 14 15  1  0  0  0  0
 15 16  2  0  0  0  0
 16 17  1  0  0  0  0
 17 18  2  0  0  0  0
 18 12  1  0  0  0  0
 16 19  1  0  0  0  0
 19 20  1  0  0  0  0
 20 21  1  0  0  0  0
 21 17  1  0  0  0  0
M  END
>  <cdx:fragmentId>
1129

$$$$
