47690.cdx
  Mrv1902 05222410202D          

 25 28  0  0  0  0            999 V2000
    5.3768   -4.3106    0.0000 C   0  0  0  0  0  0  0  0  0  0  0  0
    5.3768   -5.1356    0.0000 C   0  0  0  0  0  0  0  0  0  0  0  0
    6.0912   -5.5481    0.0000 C   0  0  0  0  0  0  0  0  0  0  0  0
    6.8057   -5.1356    0.0000 C   0  0  0  0  0  0  0  0  0  0  0  0
    6.8057   -4.3106    0.0000 C   0  0  0  0  0  0  0  0  0  0  0  0
    6.0912   -3.8981    0.0000 C   0  0  0  0  0  0  0  0  0  0  0  0
    7.5202   -3.8981    0.0000 C   0  0  0  0  0  0  0  0  0  0  0  0
    8.2347   -4.3106    0.0000 C   0  0  0  0  0  0  0  0  0  0  0  0
    8.2347   -5.1356    0.0000 C   0  0  0  0  0  0  0  0  0  0  0  0
    8.9491   -3.8981    0.0000 C   0  0  0  0  0  0  0  0  0  0  0  0
    8.9491   -5.5481    0.0000 C   0  0  0  0  0  0  0  0  0  0  0  0
    7.5202   -5.5481    0.0000 C   0  0  0  0  0  0  0  0  0  0  0  0
    7.5202   -6.3731    0.0000 C   0  0  0  0  0  0  0  0  0  0  0  0
    6.8057   -6.7856    0.0000 C   0  0  0  0  0  0  0  0  0  0  0  0
    6.8057   -7.6106    0.0000 C   0  0  0  0  0  0  0  0  0  0  0  0
    7.5202   -8.0231    0.0000 C   0  0  0  0  0  0  0  0  0  0  0  0
    8.2347   -7.6106    0.0000 C   0  0  0  0  0  0  0  0  0  0  0  0
    8.2347   -6.7856    0.0000 C   0  0  0  0  0  0  0  0  0  0  0  0
    7.6917   -8.8301    0.0000 O   0  0  0  0  0  0  0  0  0  0  0  0
    8.5122   -8.9163    0.0000 C   0  0  0  0  0  0  0  0  0  0  0  0
    8.8478   -8.1627    0.0000 O   0  0  0  0  0  0  0  0  0  0  0  0
    4.5922   -4.0557    0.0000 O   0  0  0  0  0  0  0  0  0  0  0  0
    4.1072   -4.7231    0.0000 C   0  0  0  0  0  0  0  0  0  0  0  0
    4.5922   -5.3906    0.0000 O   0  0  0  0  0  0  0  0  0  0  0  0
    9.6636   -5.1356    0.0000 O   0  0  0  0  0  0  0  0  0  0  0  0
  1  2  2  0  0  0  0
  2  3  1  0  0  0  0
  3  4  2  0  0  0  0
  4  5  1  0  0  0  0
  5  6  2  0  0  0  0
  6  1  1  0  0  0  0
  5  7  1  0  0  0  0
  7  8  1  0  0  0  0
  8  9  1  0  0  0  0
  8 10  1  0  0  0  0
  9 11  1  0  0  0  0
  9 12  1  0  0  0  0
 12 13  1  0  0  0  0
 13 14  2  0  0  0  0
 14 15  1  0  0  0  0
 15 16  2  0  0  0  0
 16 17  1  0  0  0  0
 17 18  2  0  0  0  0
 18 13  1  0  0  0  0
 16 19  1  0  0  0  0
 19 20  1  0  0  0  0
 20 21  1  0  0  0  0
 21 17  1  0  0  0  0
  1 22  1  0  0  0  0
 22 23  1  0  0  0  0
 23 24  1  0  0  0  0
 24  2  1  0  0  0  0
 11 25  1  0  0  0  0
M  END
>  <cdx:fragmentId>
1098

$$$$
