4772.cdx
  Mrv1902 05222410222D          

 34 37  0  0  0  0            999 V2000
    6.9343   -8.4350    0.0000 O   0  0  0  0  0  0  0  0  0  0  0  0
    5.5414   -5.9396    0.0000 O   0  0  0  0  0  0  0  0  0  0  0  0
   11.9889   -4.7955    0.0000 O   0  0  0  0  0  0  0  0  0  0  0  0
   12.6854   -6.0432    0.0000 C   0  0  0  0  0  0  0  0  0  0  0  0
   11.9650   -6.4453    0.0000 O   0  0  0  0  0  0  0  0  0  0  0  0
    9.8398   -5.1768    0.0000 C   0  0  0  0  0  0  0  0  0  0  0  0
   10.5601   -4.7748    0.0000 C   0  0  0  0  0  0  0  0  0  0  0  0
   11.2685   -5.1976    0.0000 C   0  0  0  0  0  0  0  0  0  0  0  0
   11.2566   -6.0225    0.0000 C   0  0  0  0  0  0  0  0  0  0  0  0
   10.5362   -6.4246    0.0000 C   0  0  0  0  0  0  0  0  0  0  0  0
    9.8278   -6.0018    0.0000 C   0  0  0  0  0  0  0  0  0  0  0  0
    6.2139   -8.8371    0.0000 O   0  0  0  0  0  0  0  0  0  0  0  0
    4.7732   -9.6413    0.0000 O   0  0  0  0  0  0  0  0  0  0  0  0
    3.3563   -8.7957    0.0000 O   0  0  0  0  0  0  0  0  0  0  0  0
    2.6599   -7.5479    0.0000 O   0  0  0  0  0  0  0  0  0  0  0  0
    3.3803   -7.1458    0.0000 C   0  0  0  0  0  0  0  0  0  0  0  0
    4.0887   -7.5687    0.0000 C   0  0  2  0  0  0  0  0  0  0  0  0
    4.0767   -8.3936    0.0000 C   0  0  2  0  0  0  0  0  0  0  0  0
    4.7851   -8.8164    0.0000 C   0  0  1  0  0  0  0  0  0  0  0  0
    5.5055   -8.4143    0.0000 C   0  0  2  0  0  0  0  0  0  0  0  0
    5.5175   -7.5894    0.0000 C   0  0  1  0  0  0  0  0  0  0  0  0
    4.8091   -7.1666    0.0000 O   0  0  0  0  0  0  0  0  0  0  0  0
    8.3631   -8.4558    0.0000 O   0  0  0  0  0  0  0  0  0  0  0  0
    8.3990   -5.9810    0.0000 O   0  0  0  0  0  0  0  0  0  0  0  0
    7.6786   -6.3831    0.0000 C   0  0  0  0  0  0  0  0  0  0  0  0
    6.9702   -5.9603    0.0000 C   0  0  0  0  0  0  0  0  0  0  0  0
    6.2498   -6.3624    0.0000 C   0  0  0  0  0  0  0  0  0  0  0  0
    6.2379   -7.1873    0.0000 C   0  0  0  0  0  0  0  0  0  0  0  0
    6.9463   -7.6101    0.0000 C   0  0  0  0  0  0  0  0  0  0  0  0
    7.6666   -7.2080    0.0000 C   0  0  0  0  0  0  0  0  0  0  0  0
    8.3751   -7.6309    0.0000 C   0  0  0  0  0  0  0  0  0  0  0  0
    9.0954   -7.2288    0.0000 C   0  0  0  0  0  0  0  0  0  0  0  0
    9.1074   -6.4039    0.0000 C   0  0  0  0  0  0  0  0  0  0  0  0
    5.5175   -6.7644    0.0000 H   0  0  0  0  0  0  0  0  0  0  0  0
 29  1  1  0  0  0  0
 27  2  1  0  0  0  0
 33 11  1  0  0  0  0
  8  3  1  0  0  0  0
  9  5  1  0  0  0  0
  5  4  1  0  0  0  0
 11  6  2  0  0  0  0
  7  6  1  0  0  0  0
  8  7  2  0  0  0  0
  9  8  1  0  0  0  0
 10  9  2  0  0  0  0
 11 10  1  0  0  0  0
 21 28  1  0  0  0  0
 20 12  1  6  0  0  0
 19 13  1  1  0  0  0
 18 14  1  6  0  0  0
 17 16  1  1  0  0  0
 16 15  1  0  0  0  0
 22 17  1  0  0  0  0
 18 17  1  0  0  0  0
 19 18  1  0  0  0  0
 20 19  1  0  0  0  0
 21 20  1  0  0  0  0
 22 21  1  0  0  0  0
 31 23  2  0  0  0  0
 33 24  1  0  0  0  0
 25 24  1  0  0  0  0
 30 25  2  0  0  0  0
 26 25  1  0  0  0  0
 27 26  2  0  0  0  0
 28 27  1  0  0  0  0
 29 28  2  0  0  0  0
 30 29  1  0  0  0  0
 31 30  1  0  0  0  0
 32 31  1  0  0  0  0
 33 32  2  0  0  0  0
 21 34  1  6  0  0  0
M  END
>  <cdx:fragmentId>
11032

$$$$
