3047739.cdx
  Mrv1902 05222410242D          

 16 17  0  0  0  0            999 V2000
   17.1475  -12.4712    0.0000 C   0  0  0  0  0  0  0  0  0  0  0  0
   17.1475  -13.2962    0.0000 C   0  0  0  0  0  0  0  0  0  0  0  0
   16.4330  -13.7087    0.0000 C   0  0  0  0  0  0  0  0  0  0  0  0
   15.7186  -13.2962    0.0000 C   0  0  0  0  0  0  0  0  0  0  0  0
   15.7186  -12.4712    0.0000 C   0  0  0  0  0  0  0  0  0  0  0  0
   16.4330  -12.0587    0.0000 O   0  0  0  0  0  0  0  0  0  0  0  0
   15.0041  -12.0587    0.0000 C   0  0  0  0  0  0  0  0  0  0  0  0
   14.2896  -12.4712    0.0000 C   0  0  0  0  0  0  0  0  0  0  0  0
   14.2896  -13.2962    0.0000 C   0  0  0  0  0  0  0  0  0  0  0  0
   15.0041  -13.7087    0.0000 C   0  0  0  0  0  0  0  0  0  0  0  0
   17.8620  -12.0587    0.0000 O   0  0  0  0  0  0  0  0  0  0  0  0
   13.5751  -12.0587    0.0000 O   0  0  0  0  0  0  0  0  0  0  0  0
   13.5751  -13.7087    0.0000 O   0  0  0  0  0  0  0  0  0  0  0  0
   15.0041  -14.5337    0.0000 O   0  0  0  0  0  0  0  0  0  0  0  0
   12.8607  -12.4712    0.0000 C   0  0  0  0  0  0  0  0  0  0  0  0
   14.2896  -14.9462    0.0000 C   0  0  0  0  0  0  0  0  0  0  0  0
  1  2  1  0  0  0  0
  2  3  2  0  0  0  0
  3  4  1  0  0  0  0
  4  5  1  0  0  0  0
  5  6  1  0  0  0  0
  1  6  1  0  0  0  0
  7  8  1  0  0  0  0
  8  9  2  0  0  0  0
  9 10  1  0  0  0  0
 10  4  2  0  0  0  0
  7  5  2  0  0  0  0
  1 11  2  0  0  0  0
  8 12  1  0  0  0  0
  9 13  1  0  0  0  0
 10 14  1  0  0  0  0
 12 15  1  0  0  0  0
 14 16  1  0  0  0  0
M  END
>  <cdx:fragmentId>
380

$$$$
