4774.cdx
  Mrv1902 05222410212D          

 39 42  0  0  0  0            999 V2000
    7.8203   -7.8622    0.0000 C   0  0  0  0  0  0  0  0  0  0  0  0
    7.2683   -7.2491    0.0000 C   0  0  0  0  0  0  0  0  0  0  0  0
    3.9229   -9.7268    0.0000 C   0  0  0  0  0  0  0  0  0  0  0  0
    3.2084  -10.1393    0.0000 C   0  0  0  0  0  0  0  0  0  0  0  0
    3.2084  -10.9643    0.0000 C   0  0  1  0  0  0  0  0  0  0  0  0
    3.9229  -11.3768    0.0000 C   0  0  0  0  0  0  0  0  0  0  0  0
    4.6374  -10.9643    0.0000 C   0  0  2  0  0  0  0  0  0  0  0  0
    5.3518  -11.3768    0.0000 C   0  0  0  0  0  0  0  0  0  0  0  0
    6.0663  -10.9643    0.0000 C   0  0  1  0  0  0  0  0  0  0  0  0
    6.0663  -10.1393    0.0000 C   0  0  0  0  0  0  0  0  0  0  0  0
    6.7808   -9.7268    0.0000 C   0  0  2  0  0  0  0  0  0  0  0  0
    7.5654   -9.9817    0.0000 C   0  0  2  0  0  0  0  0  0  0  0  0
    8.0503   -9.3143    0.0000 C   0  0  0  0  0  0  0  0  0  0  0  0
    7.5654   -8.6468    0.0000 C   0  0  1  0  0  0  0  0  0  0  0  0
    6.7808   -8.9018    0.0000 C   0  0  1  0  0  0  0  0  0  0  0  0
    6.0663   -8.4893    0.0000 C   0  0  0  0  0  0  0  0  0  0  0  0
    5.3518   -8.9018    0.0000 C   0  0  0  0  0  0  0  0  0  0  0  0
    5.3518   -9.7268    0.0000 C   0  0  0  0  0  0  0  0  0  0  0  0
    4.6374  -10.1393    0.0000 C   0  0  1  0  0  0  0  0  0  0  0  0
    4.6374   -8.4893    0.0000 O   0  0  0  0  0  0  0  0  0  0  0  0
    6.7808  -10.6161    0.0000 C   0  0  0  0  0  0  0  0  0  0  0  0
    6.7808   -8.0848    0.0000 C   0  0  0  0  0  0  0  0  0  0  0  0
    4.6374   -9.3143    0.0000 C   0  0  0  0  0  0  0  0  0  0  0  0
    4.3354  -12.0912    0.0000 C   0  0  0  0  0  0  0  0  0  0  0  0
    3.5104  -12.0912    0.0000 C   0  0  0  0  0  0  0  0  0  0  0  0
    7.8203  -10.7663    0.0000 O   0  0  0  0  0  0  0  0  0  0  0  0
    6.7808  -11.3768    0.0000 O   0  0  0  0  0  0  0  0  0  0  0  0
    2.4939  -11.3768    0.0000 O   0  0  0  0  0  0  0  0  0  0  0  0
    9.3921   -5.3368    0.0000 C   0  0  0  0  0  0  0  0  0  0  0  0
    8.3302   -6.2930    0.0000 O   0  0  0  0  0  0  0  0  0  0  0  0
   11.0061   -4.9937    0.0000 O   0  0  0  0  0  0  0  0  0  0  0  0
   11.3032   -6.3915    0.0000 O   0  0  0  0  0  0  0  0  0  0  0  0
    8.6273   -7.6907    0.0000 C   0  0  0  0  0  0  0  0  0  0  0  0
    8.8822   -6.9060    0.0000 C   0  0  0  0  0  0  0  0  0  0  0  0
    9.6892   -6.7345    0.0000 C   0  0  0  0  0  0  0  0  0  0  0  0
    9.9442   -5.9499    0.0000 C   0  0  0  0  0  0  0  0  0  0  0  0
   10.7511   -5.7784    0.0000 C   0  0  0  0  0  0  0  0  0  0  0  0
    4.6374  -11.7893    0.0000 H   0  0  0  0  0  0  0  0  0  0  0  0
    8.3500   -8.3919    0.0000 H   0  0  0  0  0  0  0  0  0  0  0  0
 36 29  1  0  0  0  0
 34 30  2  0  0  0  0
 37 31  1  0  0  0  0
 37 32  2  0  0  0  0
 34 33  1  0  0  0  0
 35 34  1  0  0  0  0
 36 35  1  0  0  0  0
 37 36  1  0  0  0  0
 33  1  2  0  0  0  0
  1  2  1  0  0  0  0
  3  4  1  0  0  0  0
  4  5  1  0  0  0  0
  5  6  1  0  0  0  0
  6  7  1  0  0  0  0
  7  8  1  0  0  0  0
  8  9  1  0  0  0  0
  9 10  1  0  0  0  0
 10 11  1  0  0  0  0
 11 12  1  0  0  0  0
 12 13  1  0  0  0  0
 13 14  1  0  0  0  0
 14 15  1  0  0  0  0
 11 15  1  0  0  0  0
 15 16  1  0  0  0  0
 16 17  1  0  0  0  0
 17 18  1  0  0  0  0
 10 18  2  0  0  0  0
 18 19  1  0  0  0  0
  7 19  1  0  0  0  0
  3 19  1  0  0  0  0
 17 20  2  0  0  0  0
 11 21  1  6  0  0  0
 15 22  1  1  0  0  0
 19 23  1  1  0  0  0
  6 24  1  0  0  0  0
  6 25  1  0  0  0  0
 12 26  1  6  0  0  0
  9 27  1  1  0  0  0
  5 28  1  1  0  0  0
 14  1  1  0  0  0  0
  7 38  1  6  0  0  0
 14 39  1  6  0  0  0
M  END
>  <cdx:fragmentId>
2242

$$$$
