4775.cdx
  Mrv1902 05222410202D          

 39 42  0  0  0  0            999 V2000
    7.7211   -8.7807    0.0000 C   0  0  0  0  0  0  0  0  0  0  0  0
    7.1690   -8.1676    0.0000 C   0  0  0  0  0  0  0  0  0  0  0  0
    9.2929   -6.2553    0.0000 C   0  0  0  0  0  0  0  0  0  0  0  0
    3.8236  -10.6453    0.0000 C   0  0  0  0  0  0  0  0  0  0  0  0
    3.1092  -11.0578    0.0000 C   0  0  0  0  0  0  0  0  0  0  0  0
    3.1092  -11.8828    0.0000 C   0  0  0  0  0  0  0  0  0  0  0  0
    3.8236  -12.2953    0.0000 C   0  0  0  0  0  0  0  0  0  0  0  0
    4.5381  -11.8828    0.0000 C   0  0  2  0  0  0  0  0  0  0  0  0
    5.2526  -12.2953    0.0000 C   0  0  0  0  0  0  0  0  0  0  0  0
    5.9670  -11.8828    0.0000 C   0  0  1  0  0  0  0  0  0  0  0  0
    5.9670  -11.0578    0.0000 C   0  0  0  0  0  0  0  0  0  0  0  0
    6.6815  -10.6453    0.0000 C   0  0  2  0  0  0  0  0  0  0  0  0
    7.4661  -10.9002    0.0000 C   0  0  2  0  0  0  0  0  0  0  0  0
    7.9511  -10.2328    0.0000 C   0  0  0  0  0  0  0  0  0  0  0  0
    7.4661   -9.5653    0.0000 C   0  0  1  0  0  0  0  0  0  0  0  0
    6.6815   -9.8203    0.0000 C   0  0  1  0  0  0  0  0  0  0  0  0
    5.9670   -9.4078    0.0000 C   0  0  0  0  0  0  0  0  0  0  0  0
    5.2526   -9.8203    0.0000 C   0  0  0  0  0  0  0  0  0  0  0  0
    5.2526  -10.6453    0.0000 C   0  0  0  0  0  0  0  0  0  0  0  0
    4.5381  -11.0578    0.0000 C   0  0  1  0  0  0  0  0  0  0  0  0
    4.5381   -9.4078    0.0000 O   0  0  0  0  0  0  0  0  0  0  0  0
    2.3947  -12.2953    0.0000 O   0  0  0  0  0  0  0  0  0  0  0  0
    6.6815  -11.5225    0.0000 C   0  0  0  0  0  0  0  0  0  0  0  0
    6.6815   -9.0195    0.0000 C   0  0  0  0  0  0  0  0  0  0  0  0
    4.5381  -10.2328    0.0000 C   0  0  0  0  0  0  0  0  0  0  0  0
    4.2361  -13.0097    0.0000 C   0  0  0  0  0  0  0  0  0  0  0  0
    3.4111  -13.0097    0.0000 C   0  0  0  0  0  0  0  0  0  0  0  0
    7.7211  -11.6848    0.0000 O   0  0  0  0  0  0  0  0  0  0  0  0
    6.6815  -12.2953    0.0000 O   0  0  0  0  0  0  0  0  0  0  0  0
    8.2309   -7.2115    0.0000 O   0  0  0  0  0  0  0  0  0  0  0  0
   10.9068   -5.9122    0.0000 O   0  0  0  0  0  0  0  0  0  0  0  0
   11.2039   -7.3100    0.0000 O   0  0  0  0  0  0  0  0  0  0  0  0
    8.5280   -8.6092    0.0000 C   0  0  0  0  0  0  0  0  0  0  0  0
    8.7830   -7.8245    0.0000 C   0  0  0  0  0  0  0  0  0  0  0  0
    9.5900   -7.6530    0.0000 C   0  0  0  0  0  0  0  0  0  0  0  0
    9.8449   -6.8684    0.0000 C   0  0  0  0  0  0  0  0  0  0  0  0
   10.6519   -6.6969    0.0000 C   0  0  0  0  0  0  0  0  0  0  0  0
    4.5381  -12.7078    0.0000 H   0  0  0  0  0  0  0  0  0  0  0  0
    8.2508   -9.3104    0.0000 H   0  0  0  0  0  0  0  0  0  0  0  0
 36  3  1  0  0  0  0
 34 30  2  0  0  0  0
 37 31  1  0  0  0  0
 37 32  2  0  0  0  0
 34 33  1  0  0  0  0
 35 34  1  0  0  0  0
 36 35  1  0  0  0  0
 37 36  1  0  0  0  0
 33  1  2  0  0  0  0
  1  2  1  0  0  0  0
  4  5  1  0  0  0  0
  5  6  1  0  0  0  0
  6  7  1  0  0  0  0
  7  8  1  0  0  0  0
  8  9  1  0  0  0  0
  9 10  1  0  0  0  0
 10 11  1  0  0  0  0
 11 12  1  0  0  0  0
 12 13  1  0  0  0  0
 13 14  1  0  0  0  0
 14 15  1  0  0  0  0
 15 16  1  0  0  0  0
 12 16  1  0  0  0  0
 16 17  1  0  0  0  0
 17 18  1  0  0  0  0
 18 19  1  0  0  0  0
 11 19  2  0  0  0  0
 19 20  1  0  0  0  0
  8 20  1  0  0  0  0
  4 20  1  0  0  0  0
 18 21  2  0  0  0  0
  6 22  2  0  0  0  0
 12 23  1  6  0  0  0
 16 24  1  1  0  0  0
 20 25  1  1  0  0  0
  7 26  1  0  0  0  0
  7 27  1  0  0  0  0
 13 28  1  6  0  0  0
 10 29  1  1  0  0  0
 15  1  1  0  0  0  0
  8 38  1  6  0  0  0
 15 39  1  6  0  0  0
M  END
>  <cdx:groupId>
2687

>  <cdx:fragmentId>
2598

$$$$
