478125.cdx
  Mrv1902 05222410182D          

 25 27  0  0  0  0            999 V2000
    7.4250   -5.6136    0.0000 O   0  0  0  0  0  0  0  0  0  0  0  0
    8.0924   -6.0985    0.0000 C   0  0  0  0  0  0  0  0  0  0  0  0
    7.8375   -6.8831    0.0000 C   0  0  1  0  0  0  0  0  0  0  0  0
    7.0125   -6.8831    0.0000 C   0  0  0  0  0  0  0  0  0  0  0  0
    6.7576   -6.0985    0.0000 C   0  0  0  0  0  0  0  0  0  0  0  0
    8.3895   -7.4962    0.0000 C   0  0  0  0  0  0  0  0  0  0  0  0
    9.1965   -7.3247    0.0000 C   0  0  0  0  0  0  0  0  0  0  0  0
    9.4514   -6.5400    0.0000 C   0  0  0  0  0  0  0  0  0  0  0  0
    8.8994   -5.9270    0.0000 C   0  0  0  0  0  0  0  0  0  0  0  0
    5.9506   -5.9270    0.0000 C   0  0  0  0  0  0  0  0  0  0  0  0
    5.3986   -6.5400    0.0000 C   0  0  0  0  0  0  0  0  0  0  0  0
    5.6535   -7.3247    0.0000 C   0  0  0  0  0  0  0  0  0  0  0  0
    6.4605   -7.4962    0.0000 C   0  0  0  0  0  0  0  0  0  0  0  0
    8.1346   -8.2808    0.0000 O   0  0  0  0  0  0  0  0  0  0  0  0
    7.5019   -7.6368    0.0000 C   0  0  0  0  0  0  0  0  0  0  0  0
    5.1015   -7.9378    0.0000 C   0  0  0  0  0  0  0  0  0  0  0  0
    6.7154   -8.2808    0.0000 O   0  0  0  0  0  0  0  0  0  0  0  0
    4.5916   -6.3685    0.0000 O   0  0  0  0  0  0  0  0  0  0  0  0
   10.2584   -6.3685    0.0000 O   0  0  0  0  0  0  0  0  0  0  0  0
    5.6957   -5.1423    0.0000 C   0  0  0  0  0  0  0  0  0  0  0  0
    6.2790   -4.5590    0.0000 O   0  0  0  0  0  0  0  0  0  0  0  0
    4.8988   -4.9288    0.0000 C   0  0  0  0  0  0  0  0  0  0  0  0
    9.7485   -7.9378    0.0000 C   0  0  0  0  0  0  0  0  0  0  0  0
    9.4936   -8.7224    0.0000 O   0  0  0  0  0  0  0  0  0  0  0  0
   10.5555   -7.7662    0.0000 C   0  0  0  0  0  0  0  0  0  0  0  0
  1  2  1  0  0  0  0
  2  3  1  0  0  0  0
  3  4  1  0  0  0  0
  4  5  1  0  0  0  0
  1  5  1  0  0  0  0
  6  7  1  0  0  0  0
  7  8  2  0  0  0  0
  8  9  1  0  0  0  0
  9  2  2  0  0  0  0
  6  3  1  0  0  0  0
 10 11  1  0  0  0  0
 11 12  2  0  0  0  0
 12 13  1  0  0  0  0
 13  4  2  0  0  0  0
 10  5  2  0  0  0  0
  6 14  2  0  0  0  0
  3 15  1  1  0  0  0
 12 16  1  0  0  0  0
 13 17  1  0  0  0  0
 11 18  1  0  0  0  0
  8 19  1  0  0  0  0
 20 21  2  0  0  0  0
 20 22  1  0  0  0  0
 10 20  1  0  0  0  0
 23 24  2  0  0  0  0
 23 25  1  0  0  0  0
  7 23  1  0  0  0  0
M  END
>  <cdx:groupId>
79

>  <cdx:fragmentId>
5

$$$$
