102004781.cdx
  Mrv1902 05222410242D          

 58 63  0  0  0  0            999 V2000
    2.4496  -11.3387    0.0000 O   0  0  0  0  0  0  0  0  0  0  0  0
    3.1641  -11.7512    0.0000 C   0  0  2  0  0  0  0  0  0  0  0  0
    3.1641  -12.5762    0.0000 C   0  0  1  0  0  0  0  0  0  0  0  0
    2.4496  -12.9887    0.0000 C   0  0  2  0  0  0  0  0  0  0  0  0
    1.7351  -12.5762    0.0000 C   0  0  1  0  0  0  0  0  0  0  0  0
    1.7351  -11.7512    0.0000 C   0  0  1  0  0  0  0  0  0  0  0  0
    3.8786  -12.9887    0.0000 O   0  0  0  0  0  0  0  0  0  0  0  0
    2.4496  -13.8137    0.0000 O   0  0  0  0  0  0  0  0  0  0  0  0
    1.0207  -12.9887    0.0000 O   0  0  0  0  0  0  0  0  0  0  0  0
    1.0207  -11.3387    0.0000 C   0  0  0  0  0  0  0  0  0  0  0  0
    0.3062  -11.7512    0.0000 O   0  0  0  0  0  0  0  0  0  0  0  0
    3.8786  -11.3387    0.0000 O   0  0  0  0  0  0  0  0  0  0  0  0
    4.5930  -11.7512    0.0000 C   0  0  0  0  0  0  0  0  0  0  0  0
    6.0220  -11.7512    0.0000 O   0  0  0  0  0  0  0  0  0  0  0  0
    5.3075  -11.3387    0.0000 C   0  0  1  0  0  0  0  0  0  0  0  0
    5.3075  -10.5137    0.0000 C   0  0  2  0  0  0  0  0  0  0  0  0
    6.0220  -10.1012    0.0000 C   0  0  1  0  0  0  0  0  0  0  0  0
    6.7364  -10.5137    0.0000 C   0  0  2  0  0  0  0  0  0  0  0  0
    6.7364  -11.3387    0.0000 C   0  0  2  0  0  0  0  0  0  0  0  0
    7.4509  -10.1012    0.0000 O   0  0  0  0  0  0  0  0  0  0  0  0
    6.0220   -9.2762    0.0000 O   0  0  0  0  0  0  0  0  0  0  0  0
    4.5930  -10.1012    0.0000 O   0  0  0  0  0  0  0  0  0  0  0  0
    7.4509  -11.7512    0.0000 O   0  0  0  0  0  0  0  0  0  0  0  0
    8.8799  -10.1012    0.0000 C   0  0  0  0  0  0  0  0  0  0  0  0
    8.1654  -10.5137    0.0000 C   0  0  0  0  0  0  0  0  0  0  0  0
    8.1654  -11.3387    0.0000 C   0  0  1  0  0  0  0  0  0  0  0  0
    8.8799  -11.7512    0.0000 C   0  0  0  0  0  0  0  0  0  0  0  0
    9.5943  -11.3387    0.0000 C   0  0  0  0  0  0  0  0  0  0  0  0
   10.3088  -11.7512    0.0000 C   0  0  0  0  0  0  0  0  0  0  0  0
   11.0233  -11.3387    0.0000 C   0  0  0  0  0  0  0  0  0  0  0  0
   11.0233  -10.5137    0.0000 C   0  0  2  0  0  0  0  0  0  0  0  0
   11.7377  -10.1012    0.0000 C   0  0  2  0  0  0  0  0  0  0  0  0
   12.5224  -10.3561    0.0000 C   0  0  0  0  0  0  0  0  0  0  0  0
   13.0073   -9.6887    0.0000 C   0  0  0  0  0  0  0  0  0  0  0  0
   12.5224   -9.0212    0.0000 C   0  0  1  0  0  0  0  0  0  0  0  0
   11.7377   -9.2762    0.0000 C   0  0  1  0  0  0  0  0  0  0  0  0
   11.0233   -8.8637    0.0000 C   0  0  0  0  0  0  0  0  0  0  0  0
   10.3088   -9.2762    0.0000 C   0  0  2  0  0  0  0  0  0  0  0  0
   10.3088  -10.1012    0.0000 C   0  0  1  0  0  0  0  0  0  0  0  0
    9.5943  -10.5137    0.0000 C   0  0  2  0  0  0  0  0  0  0  0  0
   11.7377  -10.9262    0.0000 C   0  0  0  0  0  0  0  0  0  0  0  0
   11.8240   -8.4557    0.0000 C   0  0  0  0  0  0  0  0  0  0  0  0
   10.3088  -10.9262    0.0000 C   0  0  0  0  0  0  0  0  0  0  0  0
    9.2924  -12.4656    0.0000 C   0  0  0  0  0  0  0  0  0  0  0  0
    8.4674  -12.4656    0.0000 C   0  0  0  0  0  0  0  0  0  0  0  0
    9.5943   -8.8637    0.0000 O   0  0  0  0  0  0  0  0  0  0  0  0
   12.2253   -7.6235    0.0000 C   0  0  0  0  0  0  0  0  0  0  0  0
   12.7773   -8.2366    0.0000 C   0  0  2  0  0  0  0  0  0  0  0  0
   13.5843   -8.0651    0.0000 C   0  0  0  0  0  0  0  0  0  0  0  0
   13.8392   -7.2805    0.0000 C   0  0  0  0  0  0  0  0  0  0  0  0
   14.6462   -7.1089    0.0000 C   0  0  2  0  0  0  0  0  0  0  0  0
   14.9011   -6.3243    0.0000 C   0  0  0  0  0  0  0  0  0  0  0  0
   14.3491   -5.7112    0.0000 C   0  0  0  0  0  0  0  0  0  0  0  0
   15.7081   -6.1528    0.0000 C   0  0  0  0  0  0  0  0  0  0  0  0
   15.1561   -5.5397    0.0000 O   0  0  0  0  0  0  0  0  0  0  0  0
   15.1982   -7.7220    0.0000 O   0  0  0  0  0  0  0  0  0  0  0  0
   11.0233   -9.6887    0.0000 H   0  0  0  0  0  0  0  0  0  0  0  0
    9.5943   -9.6887    0.0000 H   0  0  0  0  0  0  0  0  0  0  0  0
  1  2  1  0  0  0  0
  2  3  1  0  0  0  0
  3  4  1  0  0  0  0
  4  5  1  0  0  0  0
  5  6  1  0  0  0  0
  1  6  1  0  0  0  0
  3  7  1  6  0  0  0
  4  8  1  1  0  0  0
  5  9  1  6  0  0  0
 10 11  1  0  0  0  0
  6 10  1  1  0  0  0
 12 13  1  0  0  0  0
 14 15  1  0  0  0  0
 15 16  1  0  0  0  0
 16 17  1  0  0  0  0
 17 18  1  0  0  0  0
 18 19  1  0  0  0  0
 14 19  1  0  0  0  0
 18 20  1  1  0  0  0
 17 21  1  6  0  0  0
 16 22  1  1  0  0  0
 24 25  1  0  0  0  0
 25 26  1  0  0  0  0
 26 27  1  0  0  0  0
 27 28  1  0  0  0  0
 28 29  2  0  0  0  0
 29 30  1  0  0  0  0
 30 31  1  0  0  0  0
 31 32  1  0  0  0  0
 32 33  1  0  0  0  0
 33 34  1  0  0  0  0
 35 34  1  1  0  0  0
 35 36  1  0  0  0  0
 32 36  1  0  0  0  0
 36 37  1  0  0  0  0
 37 38  1  0  0  0  0
 38 39  1  0  0  0  0
 31 39  1  0  0  0  0
 39 40  1  0  0  0  0
 28 40  1  0  0  0  0
 24 40  1  0  0  0  0
 32 41  1  6  0  0  0
 36 42  1  1  0  0  0
 39 43  1  1  0  0  0
 27 44  1  0  0  0  0
 27 45  1  0  0  0  0
 38 46  1  6  0  0  0
 48 47  1  6  0  0  0
 48 49  1  0  0  0  0
 49 50  1  0  0  0  0
 50 51  1  0  0  0  0
 51 52  1  0  0  0  0
 52 53  1  0  0  0  0
 52 54  1  0  0  0  0
 52 55  1  0  0  0  0
 51 56  1  6  0  0  0
 35 48  1  0  0  0  0
 26 23  1  1  0  0  0
 19 23  1  6  0  0  0
 15 13  1  6  0  0  0
  2 12  1  1  0  0  0
 31 57  1  6  0  0  0
 40 58  1  6  0  0  0
M  END
>  <cdx:groupId>
3361

>  <cdx:fragmentId>
3231

$$$$
