102004786.cdx
  Mrv1902 05222410252D          

 80 87  0  0  0  0            999 V2000
   23.5755  -18.0720    0.0000 O   0  0  0  0  0  0  0  0  0  0  0  0
   24.2899  -18.4845    0.0000 C   0  0  2  0  0  0  0  0  0  0  0  0
   24.2899  -19.3095    0.0000 C   0  0  1  0  0  0  0  0  0  0  0  0
   23.5755  -19.7220    0.0000 C   0  0  2  0  0  0  0  0  0  0  0  0
   22.8610  -19.3095    0.0000 C   0  0  1  0  0  0  0  0  0  0  0  0
   22.8610  -18.4845    0.0000 C   0  0  1  0  0  0  0  0  0  0  0  0
   25.0044  -19.7220    0.0000 O   0  0  0  0  0  0  0  0  0  0  0  0
   23.5755  -20.5470    0.0000 O   0  0  0  0  0  0  0  0  0  0  0  0
   22.1465  -19.7220    0.0000 O   0  0  0  0  0  0  0  0  0  0  0  0
   22.1465  -18.0720    0.0000 C   0  0  0  0  0  0  0  0  0  0  0  0
   21.4321  -18.4845    0.0000 O   0  0  0  0  0  0  0  0  0  0  0  0
   25.0044  -18.0720    0.0000 O   0  0  0  0  0  0  0  0  0  0  0  0
   25.7189  -18.4845    0.0000 C   0  0  0  0  0  0  0  0  0  0  0  0
   27.1478  -18.4845    0.0000 O   0  0  0  0  0  0  0  0  0  0  0  0
   26.4333  -18.0720    0.0000 C   0  0  1  0  0  0  0  0  0  0  0  0
   26.4333  -17.2470    0.0000 C   0  0  2  0  0  0  0  0  0  0  0  0
   27.1478  -16.8345    0.0000 C   0  0  1  0  0  0  0  0  0  0  0  0
   27.8623  -17.2470    0.0000 C   0  0  2  0  0  0  0  0  0  0  0  0
   27.8623  -18.0720    0.0000 C   0  0  2  0  0  0  0  0  0  0  0  0
   28.5768  -16.8345    0.0000 O   0  0  0  0  0  0  0  0  0  0  0  0
   27.1478  -16.0095    0.0000 O   0  0  0  0  0  0  0  0  0  0  0  0
   25.7189  -16.8345    0.0000 O   0  0  0  0  0  0  0  0  0  0  0  0
   28.5768  -18.4845    0.0000 O   0  0  0  0  0  0  0  0  0  0  0  0
   30.0057  -16.8345    0.0000 C   0  0  0  0  0  0  0  0  0  0  0  0
   29.2912  -17.2470    0.0000 C   0  0  0  0  0  0  0  0  0  0  0  0
   29.2912  -18.0720    0.0000 C   0  0  1  0  0  0  0  0  0  0  0  0
   30.0057  -18.4845    0.0000 C   0  0  0  0  0  0  0  0  0  0  0  0
   30.7202  -18.0720    0.0000 C   0  0  0  0  0  0  0  0  0  0  0  0
   31.4346  -18.4845    0.0000 C   0  0  0  0  0  0  0  0  0  0  0  0
   32.1491  -18.0720    0.0000 C   0  0  0  0  0  0  0  0  0  0  0  0
   32.1491  -17.2470    0.0000 C   0  0  2  0  0  0  0  0  0  0  0  0
   32.8636  -16.8345    0.0000 C   0  0  2  0  0  0  0  0  0  0  0  0
   33.6482  -17.0895    0.0000 C   0  0  0  0  0  0  0  0  0  0  0  0
   34.1331  -16.4220    0.0000 C   0  0  0  0  0  0  0  0  0  0  0  0
   33.6482  -15.7546    0.0000 C   0  0  1  0  0  0  0  0  0  0  0  0
   32.8636  -16.0095    0.0000 C   0  0  1  0  0  0  0  0  0  0  0  0
   32.1491  -15.5970    0.0000 C   0  0  0  0  0  0  0  0  0  0  0  0
   31.4346  -16.0095    0.0000 C   0  0  2  0  0  0  0  0  0  0  0  0
   31.4346  -16.8345    0.0000 C   0  0  1  0  0  0  0  0  0  0  0  0
   30.7202  -17.2470    0.0000 C   0  0  2  0  0  0  0  0  0  0  0  0
   32.8636  -17.6595    0.0000 C   0  0  0  0  0  0  0  0  0  0  0  0
   32.9498  -15.1890    0.0000 C   0  0  0  0  0  0  0  0  0  0  0  0
   31.4346  -17.6595    0.0000 C   0  0  0  0  0  0  0  0  0  0  0  0
   30.4182  -19.1990    0.0000 C   0  0  0  0  0  0  0  0  0  0  0  0
   29.5932  -19.1990    0.0000 C   0  0  0  0  0  0  0  0  0  0  0  0
   30.7202  -15.5970    0.0000 O   0  0  0  0  0  0  0  0  0  0  0  0
   33.3511  -14.3569    0.0000 C   0  0  0  0  0  0  0  0  0  0  0  0
   33.9031  -14.9700    0.0000 C   0  0  2  0  0  0  0  0  0  0  0  0
   34.7101  -14.7984    0.0000 C   0  0  0  0  0  0  0  0  0  0  0  0
   34.9651  -14.0138    0.0000 C   0  0  0  0  0  0  0  0  0  0  0  0
   35.7720  -13.8423    0.0000 C   0  0  2  0  0  0  0  0  0  0  0  0
   36.3241  -14.4554    0.0000 C   0  0  0  0  0  0  0  0  0  0  0  0
   37.1310  -14.2839    0.0000 C   0  0  0  0  0  0  0  0  0  0  0  0
   36.0691  -15.2400    0.0000 C   0  0  0  0  0  0  0  0  0  0  0  0
   36.8761  -15.0685    0.0000 O   0  0  0  0  0  0  0  0  0  0  0  0
   36.0270  -13.0577    0.0000 O   0  0  0  0  0  0  0  0  0  0  0  0
   37.3860  -13.4992    0.0000 O   0  0  0  0  0  0  0  0  0  0  0  0
   36.8339  -12.8861    0.0000 C   0  0  2  0  0  0  0  0  0  0  0  0
   37.0889  -12.1015    0.0000 C   0  0  1  0  0  0  0  0  0  0  0  0
   37.8959  -11.9300    0.0000 C   0  0  2  0  0  0  0  0  0  0  0  0
   38.4479  -12.5431    0.0000 C   0  0  1  0  0  0  0  0  0  0  0  0
   38.1929  -13.3277    0.0000 C   0  0  1  0  0  0  0  0  0  0  0  0
   36.5368  -11.4884    0.0000 O   0  0  0  0  0  0  0  0  0  0  0  0
   37.5988  -10.5323    0.0000 O   0  0  0  0  0  0  0  0  0  0  0  0
   36.7918  -10.7038    0.0000 C   0  0  2  0  0  0  0  0  0  0  0  0
   36.2398  -10.0907    0.0000 C   0  0  1  0  0  0  0  0  0  0  0  0
   36.4947   -9.3061    0.0000 C   0  0  2  0  0  0  0  0  0  0  0  0
   37.3017   -9.1346    0.0000 C   0  0  1  0  0  0  0  0  0  0  0  0
   37.8537   -9.7476    0.0000 C   0  0  1  0  0  0  0  0  0  0  0  0
   38.6607   -9.5761    0.0000 C   0  0  0  0  0  0  0  0  0  0  0  0
   39.2440  -10.1595    0.0000 O   0  0  0  0  0  0  0  0  0  0  0  0
   37.5566   -8.3499    0.0000 O   0  0  0  0  0  0  0  0  0  0  0  0
   35.9427   -8.6930    0.0000 O   0  0  0  0  0  0  0  0  0  0  0  0
   35.4328  -10.2622    0.0000 O   0  0  0  0  0  0  0  0  0  0  0  0
   38.7450  -13.9408    0.0000 C   0  0  0  0  0  0  0  0  0  0  0  0
   39.5519  -13.7693    0.0000 O   0  0  0  0  0  0  0  0  0  0  0  0
   39.2549  -12.3716    0.0000 O   0  0  0  0  0  0  0  0  0  0  0  0
   38.1508  -11.1454    0.0000 O   0  0  0  0  0  0  0  0  0  0  0  0
   32.1491  -16.4220    0.0000 H   0  0  0  0  0  0  0  0  0  0  0  0
   30.7202  -16.4220    0.0000 H   0  0  0  0  0  0  0  0  0  0  0  0
  1  2  1  0  0  0  0
  2  3  1  0  0  0  0
  3  4  1  0  0  0  0
  4  5  1  0  0  0  0
  5  6  1  0  0  0  0
  1  6  1  0  0  0  0
  3  7  1  6  0  0  0
  4  8  1  1  0  0  0
  5  9  1  6  0  0  0
 10 11  1  0  0  0  0
  6 10  1  1  0  0  0
 12 13  1  0  0  0  0
 14 15  1  0  0  0  0
 15 16  1  0  0  0  0
 16 17  1  0  0  0  0
 17 18  1  0  0  0  0
 18 19  1  0  0  0  0
 14 19  1  0  0  0  0
 18 20  1  1  0  0  0
 17 21  1  6  0  0  0
 16 22  1  1  0  0  0
 24 25  1  0  0  0  0
 25 26  1  0  0  0  0
 26 27  1  0  0  0  0
 27 28  1  0  0  0  0
 28 29  2  0  0  0  0
 29 30  1  0  0  0  0
 30 31  1  0  0  0  0
 31 32  1  0  0  0  0
 32 33  1  0  0  0  0
 33 34  1  0  0  0  0
 35 34  1  1  0  0  0
 35 36  1  0  0  0  0
 32 36  1  0  0  0  0
 36 37  1  0  0  0  0
 37 38  1  0  0  0  0
 38 39  1  0  0  0  0
 31 39  1  0  0  0  0
 39 40  1  0  0  0  0
 28 40  1  0  0  0  0
 24 40  1  0  0  0  0
 32 41  1  6  0  0  0
 36 42  1  1  0  0  0
 39 43  1  1  0  0  0
 27 44  1  0  0  0  0
 27 45  1  0  0  0  0
 38 46  1  6  0  0  0
 48 47  1  6  0  0  0
 48 49  1  0  0  0  0
 49 50  1  0  0  0  0
 50 51  1  0  0  0  0
 51 52  1  0  0  0  0
 52 53  1  0  0  0  0
 52 54  1  0  0  0  0
 52 55  1  0  0  0  0
 57 58  1  0  0  0  0
 58 59  1  0  0  0  0
 59 60  1  0  0  0  0
 60 61  1  0  0  0  0
 61 62  1  0  0  0  0
 57 62  1  0  0  0  0
 64 65  1  0  0  0  0
 65 66  1  0  0  0  0
 66 67  1  0  0  0  0
 67 68  1  0  0  0  0
 68 69  1  0  0  0  0
 64 69  1  0  0  0  0
 70 71  1  0  0  0  0
 69 70  1  1  0  0  0
 68 72  1  6  0  0  0
 67 73  1  1  0  0  0
 66 74  1  6  0  0  0
 65 63  1  1  0  0  0
 59 63  1  6  0  0  0
 75 76  1  0  0  0  0
 62 75  1  1  0  0  0
 61 77  1  6  0  0  0
 60 78  1  1  0  0  0
 58 56  1  1  0  0  0
 51 56  1  1  0  0  0
 35 48  1  0  0  0  0
 26 23  1  1  0  0  0
 19 23  1  6  0  0  0
 15 13  1  6  0  0  0
  2 12  1  1  0  0  0
 31 79  1  6  0  0  0
 40 80  1  6  0  0  0
M  END
>  <cdx:groupId>
12366

>  <cdx:fragmentId>
12248

$$$$
