4787.cdx
  Mrv1902 05222410262D          

 17 17  0  0  0  0            999 V2000
    7.7022   -7.2272    0.0000 O   0  0  0  0  0  0  0  0  0  0  0  0
    6.9878   -7.6397    0.0000 C   0  0  1  0  0  0  0  0  0  0  0  0
    6.9878   -8.4647    0.0000 C   0  0  2  0  0  0  0  0  0  0  0  0
    7.7022   -8.8772    0.0000 O   0  0  0  0  0  0  0  0  0  0  0  0
    6.2733   -8.8772    0.0000 C   0  0  1  0  0  0  0  0  0  0  0  0
    6.2733   -9.7022    0.0000 O   0  0  0  0  0  0  0  0  0  0  0  0
    5.5588   -8.4647    0.0000 C   0  0  2  0  0  0  0  0  0  0  0  0
    4.8443   -8.8772    0.0000 O   0  0  0  0  0  0  0  0  0  0  0  0
    5.5588   -7.6397    0.0000 C   0  0  2  0  0  0  0  0  0  0  0  0
    6.2733   -7.2272    0.0000 O   0  0  0  0  0  0  0  0  0  0  0  0
    4.8443   -7.2272    0.0000 C   0  0  0  0  0  0  0  0  0  0  0  0
    4.1299   -7.6397    0.0000 O   0  0  0  0  0  0  0  0  0  0  0  0
    8.4167   -7.6397    0.0000 C   0  0  0  0  0  0  0  0  0  0  0  0
    9.1312   -7.2272    0.0000 C   0  0  0  0  0  0  0  0  0  0  0  0
    9.8456   -7.6397    0.0000 C   0  0  0  0  0  0  0  0  0  0  0  0
   10.5601   -7.2272    0.0000 C   0  0  0  0  0  0  0  0  0  0  0  0
    9.8456   -8.4647    0.0000 C   0  0  0  0  0  0  0  0  0  0  0  0
  2  1  1  1  0  0  0
  2  3  1  0  0  0  0
  3  4  1  6  0  0  0
  3  5  1  0  0  0  0
  5  6  1  1  0  0  0
  5  7  1  0  0  0  0
  7  8  1  6  0  0  0
  7  9  1  0  0  0  0
  9 10  1  0  0  0  0
  9 11  1  1  0  0  0
 11 12  1  0  0  0  0
  2 10  1  0  0  0  0
 13 14  1  0  0  0  0
 14 15  2  0  0  0  0
 15 16  1  0  0  0  0
 15 17  1  0  0  0  0
  1 13  1  0  0  0  0
M  END
>  <cdx:fragmentId>
3

$$$$
