4788.cdx
  Mrv1902 05222410222D          

 20 21  0  0  0  0            999 V2000
    6.9237   -5.7208    0.0000 C   0  0  0  0  0  0  0  0  0  0  0  0
    7.6381   -6.1333    0.0000 C   0  0  0  0  0  0  0  0  0  0  0  0
    8.3526   -5.7208    0.0000 C   0  0  0  0  0  0  0  0  0  0  0  0
    6.9237   -4.8958    0.0000 O   0  0  0  0  0  0  0  0  0  0  0  0
    6.2092   -6.1333    0.0000 C   0  0  0  0  0  0  0  0  0  0  0  0
    6.2092   -6.9583    0.0000 C   0  0  0  0  0  0  0  0  0  0  0  0
    5.4947   -7.3708    0.0000 C   0  0  0  0  0  0  0  0  0  0  0  0
    4.7802   -6.9583    0.0000 C   0  0  0  0  0  0  0  0  0  0  0  0
    4.7802   -6.1333    0.0000 C   0  0  0  0  0  0  0  0  0  0  0  0
    5.4947   -5.7208    0.0000 C   0  0  0  0  0  0  0  0  0  0  0  0
    5.4947   -4.8958    0.0000 O   0  0  0  0  0  0  0  0  0  0  0  0
    4.0658   -7.3708    0.0000 O   0  0  0  0  0  0  0  0  0  0  0  0
    6.9237   -7.3708    0.0000 O   0  0  0  0  0  0  0  0  0  0  0  0
    9.0671   -6.1333    0.0000 C   0  0  0  0  0  0  0  0  0  0  0  0
    9.7815   -5.7208    0.0000 C   0  0  0  0  0  0  0  0  0  0  0  0
   10.4960   -6.1333    0.0000 C   0  0  0  0  0  0  0  0  0  0  0  0
   10.4960   -6.9583    0.0000 C   0  0  0  0  0  0  0  0  0  0  0  0
    9.7815   -7.3708    0.0000 C   0  0  0  0  0  0  0  0  0  0  0  0
    9.0671   -6.9583    0.0000 C   0  0  0  0  0  0  0  0  0  0  0  0
   11.2105   -7.3708    0.0000 O   0  0  0  0  0  0  0  0  0  0  0  0
  1  2  1  0  0  0  0
  2  3  1  0  0  0  0
  1  4  2  0  0  0  0
  5  6  1  0  0  0  0
  6  7  2  0  0  0  0
  7  8  1  0  0  0  0
  8  9  2  0  0  0  0
  9 10  1  0  0  0  0
  5 10  2  0  0  0  0
 10 11  1  0  0  0  0
  8 12  1  0  0  0  0
  6 13  1  0  0  0  0
  1  5  1  0  0  0  0
 14 15  1  0  0  0  0
 15 16  2  0  0  0  0
 16 17  1  0  0  0  0
 17 18  2  0  0  0  0
 18 19  1  0  0  0  0
 14 19  2  0  0  0  0
 17 20  1  0  0  0  0
  3 14  1  0  0  0  0
M  END
>  <cdx:fragmentId>
13

$$$$
