4789.cdx
  Mrv1902 05222410212D          

 13 12  0  0  0  0            999 V2000
    6.9440   -3.8749    0.0000 C   0  0  0  0  0  0  0  0  0  0  0  0
    6.2295   -4.2874    0.0000 C   0  0  0  0  0  0  0  0  0  0  0  0
    5.5151   -3.8749    0.0000 C   0  0  0  0  0  0  0  0  0  0  0  0
    4.8006   -4.2874    0.0000 C   0  0  0  0  0  0  0  0  0  0  0  0
    4.8006   -5.1124    0.0000 C   0  0  0  0  0  0  0  0  0  0  0  0
    6.9440   -3.0499    0.0000 O   0  0  0  0  0  0  0  0  0  0  0  0
    7.6585   -4.2874    0.0000 O   0  0  0  0  0  0  0  0  0  0  0  0
    4.0861   -3.8749    0.0000 C   0  0  0  0  0  0  0  0  0  0  0  0
    8.3730   -3.8749    0.0000 C   0  0  0  0  0  0  0  0  0  0  0  0
    9.0874   -4.2874    0.0000 C   0  0  0  0  0  0  0  0  0  0  0  0
    9.8019   -3.8749    0.0000 C   0  0  0  0  0  0  0  0  0  0  0  0
    9.8019   -3.0499    0.0000 C   0  0  0  0  0  0  0  0  0  0  0  0
   10.5164   -4.2874    0.0000 C   0  0  0  0  0  0  0  0  0  0  0  0
  1  2  1  0  0  0  0
  2  3  1  0  0  0  0
  3  4  1  0  0  0  0
  4  5  1  0  0  0  0
  1  6  2  0  0  0  0
  1  7  1  0  0  0  0
  4  8  1  0  0  0  0
  9 10  1  0  0  0  0
 10 11  1  0  0  0  0
 11 12  1  0  0  0  0
 11 13  1  0  0  0  0
  7  9  1  0  0  0  0
M  END
>  <cdx:fragmentId>
29024

$$$$
