4791.cdx
  Mrv1902 05222410242D          

 14 13  0  0  0  0            999 V2000
    7.1956   -9.1630    0.0000 C   0  0  0  0  0  0  0  0  0  0  0  0
    6.4812   -9.5755    0.0000 C   0  0  0  0  0  0  0  0  0  0  0  0
    5.7667   -9.1630    0.0000 C   0  0  0  0  0  0  0  0  0  0  0  0
    5.0522   -9.5755    0.0000 C   0  0  0  0  0  0  0  0  0  0  0  0
    4.3378   -9.1630    0.0000 C   0  0  0  0  0  0  0  0  0  0  0  0
    4.3378   -8.3380    0.0000 C   0  0  0  0  0  0  0  0  0  0  0  0
    7.1956   -8.3380    0.0000 O   0  0  0  0  0  0  0  0  0  0  0  0
    7.9101   -9.5755    0.0000 O   0  0  0  0  0  0  0  0  0  0  0  0
    3.6233   -9.5755    0.0000 C   0  0  0  0  0  0  0  0  0  0  0  0
    8.6246   -9.1630    0.0000 C   0  0  0  0  0  0  0  0  0  0  0  0
    9.3391   -9.5755    0.0000 C   0  0  0  0  0  0  0  0  0  0  0  0
   10.0535   -9.1630    0.0000 C   0  0  0  0  0  0  0  0  0  0  0  0
   10.7680   -9.5755    0.0000 C   0  0  0  0  0  0  0  0  0  0  0  0
   10.0535   -8.3380    0.0000 C   0  0  0  0  0  0  0  0  0  0  0  0
  1  2  1  0  0  0  0
  2  3  1  0  0  0  0
  3  4  1  0  0  0  0
  4  5  1  0  0  0  0
  5  6  1  0  0  0  0
  1  7  2  0  0  0  0
  1  8  1  0  0  0  0
  5  9  1  0  0  0  0
 10 11  1  0  0  0  0
 11 12  1  0  0  0  0
 12 13  1  0  0  0  0
 12 14  1  0  0  0  0
  8 10  1  0  0  0  0
M  END
>  <cdx:fragmentId>
5

$$$$
