479303.cdx
  Mrv1902 05222410222D          

 10  9  0  0  0  0            999 V2000
   10.2709   -6.8435    0.0000 S   0  0  0  0  0  0  0  0  0  0  0  0
    9.5564   -6.4310    0.0000 C   0  0  0  0  0  0  0  0  0  0  0  0
    8.8419   -6.0185    0.0000 N   0  0  0  0  0  0  0  0  0  0  0  0
    4.5551   -6.0185    0.0000 C   0  0  0  0  0  0  0  0  0  0  0  0
    5.2696   -7.2560    0.0000 O   0  0  0  0  0  0  0  0  0  0  0  0
    5.2696   -6.4310    0.0000 S   0  0  0  0  0  0  0  0  0  0  0  0
    8.1275   -6.4310    0.0000 C   0  0  0  0  0  0  0  0  0  0  0  0
    7.4130   -6.0185    0.0000 C   0  0  0  0  0  0  0  0  0  0  0  0
    6.6985   -6.4310    0.0000 C   0  0  0  0  0  0  0  0  0  0  0  0
    5.9841   -6.0185    0.0000 C   0  0  0  0  0  0  0  0  0  0  0  0
  7  3  1  0  0  0  0
  2  1  2  0  0  0  0
  3  2  2  0  0  0  0
 10  6  1  0  0  0  0
  6  4  1  0  0  0  0
  6  5  2  0  0  0  0
  8  7  1  0  0  0  0
  9  8  1  0  0  0  0
 10  9  2  0  0  0  0
M  END
>  <cdx:fragmentId>
5

$$$$
