479322.cdx
  Mrv1902 05222410252D          

 41 45  0  0  0  0            999 V2000
    4.8065   -4.3408    0.0000 O   0  0  0  0  0  0  0  0  0  0  0  0
    6.2343   -3.5137    0.0000 O   0  0  0  0  0  0  0  0  0  0  0  0
    7.6632   -3.5117    0.0000 O   0  0  0  0  0  0  0  0  0  0  0  0
    7.6644   -4.3367    0.0000 C   0  0  0  0  0  0  0  0  0  0  0  0
    6.9505   -4.7502    0.0000 C   0  0  2  0  0  0  0  0  0  0  0  0
    6.2354   -4.3387    0.0000 C   0  0  2  0  0  0  0  0  0  0  0  0
    5.5216   -4.7522    0.0000 C   0  0  1  0  0  0  0  0  0  0  0  0
    5.5227   -5.5772    0.0000 C   0  0  2  0  0  0  0  0  0  0  0  0
    6.2378   -5.9887    0.0000 C   0  0  1  0  0  0  0  0  0  0  0  0
    6.9517   -5.5752    0.0000 O   0  0  0  0  0  0  0  0  0  0  0  0
    6.2389   -6.8137    0.0000 O   0  0  0  0  0  0  0  0  0  0  0  0
    7.6400   -9.3046    0.0000 O   0  0  0  0  0  0  0  0  0  0  0  0
   12.6827   -5.6485    0.0000 O   0  0  0  0  0  0  0  0  0  0  0  0
   10.5348   -6.0369    0.0000 C   0  0  0  0  0  0  0  0  0  0  0  0
   11.2538   -5.6325    0.0000 C   0  0  0  0  0  0  0  0  0  0  0  0
   11.9636   -6.0530    0.0000 C   0  0  0  0  0  0  0  0  0  0  0  0
   11.9543   -6.8779    0.0000 C   0  0  0  0  0  0  0  0  0  0  0  0
   11.2353   -7.2824    0.0000 C   0  0  0  0  0  0  0  0  0  0  0  0
   10.5255   -6.8619    0.0000 C   0  0  0  0  0  0  0  0  0  0  0  0
    9.0688   -9.3207    0.0000 O   0  0  0  0  0  0  0  0  0  0  0  0
    9.0966   -6.8458    0.0000 O   0  0  0  0  0  0  0  0  0  0  0  0
    8.3776   -7.2503    0.0000 C   0  0  0  0  0  0  0  0  0  0  0  0
    7.6678   -6.8298    0.0000 C   0  0  0  0  0  0  0  0  0  0  0  0
    6.9487   -7.2342    0.0000 C   0  0  0  0  0  0  0  0  0  0  0  0
    6.9395   -8.0592    0.0000 C   0  0  0  0  0  0  0  0  0  0  0  0
    7.6492   -8.4797    0.0000 C   0  0  0  0  0  0  0  0  0  0  0  0
    8.3683   -8.0752    0.0000 C   0  0  0  0  0  0  0  0  0  0  0  0
    9.0781   -8.4957    0.0000 C   0  0  0  0  0  0  0  0  0  0  0  0
    9.7972   -8.0913    0.0000 C   0  0  0  0  0  0  0  0  0  0  0  0
    9.8064   -7.2663    0.0000 C   0  0  0  0  0  0  0  0  0  0  0  0
    4.8088   -5.9907    0.0000 O   0  0  0  0  0  0  0  0  0  0  0  0
    4.0938   -5.5793    0.0000 C   0  0  2  0  0  0  0  0  0  0  0  0
    4.0786   -4.7544    0.0000 O   0  0  0  0  0  0  0  0  0  0  0  0
    3.3590   -4.3510    0.0000 C   0  0  2  0  0  0  0  0  0  0  0  0
    2.6545   -4.7724    0.0000 C   0  0  1  0  0  0  0  0  0  0  0  0
    2.6625   -5.5932    0.0000 C   0  0  2  0  0  0  0  0  0  0  0  0
    3.3822   -5.9966    0.0000 C   0  0  1  0  0  0  0  0  0  0  0  0
    1.9349   -4.3690    0.0000 O   0  0  0  0  0  0  0  0  0  0  0  0
    3.3473   -3.5260    0.0000 C   0  0  0  0  0  0  0  0  0  0  0  0
    1.9527   -6.0137    0.0000 O   0  0  0  0  0  0  0  0  0  0  0  0
    3.3902   -6.8216    0.0000 O   0  0  0  0  0  0  0  0  0  0  0  0
 24 11  1  0  0  0  0
  9 11  1  1  0  0  0
  7  1  1  1  0  0  0
  6  2  1  6  0  0  0
  5  4  1  1  0  0  0
  4  3  1  0  0  0  0
 10  5  1  0  0  0  0
  6  5  1  0  0  0  0
  7  6  1  0  0  0  0
  8  7  1  0  0  0  0
  9  8  1  0  0  0  0
 10  9  1  0  0  0  0
 26 12  1  0  0  0  0
 30 19  1  0  0  0  0
 16 13  1  0  0  0  0
 19 14  2  0  0  0  0
 15 14  1  0  0  0  0
 16 15  2  0  0  0  0
 17 16  1  0  0  0  0
 18 17  2  0  0  0  0
 19 18  1  0  0  0  0
 28 20  2  0  0  0  0
 30 21  1  0  0  0  0
 22 21  1  0  0  0  0
 27 22  2  0  0  0  0
 23 22  1  0  0  0  0
 24 23  2  0  0  0  0
 25 24  1  0  0  0  0
 26 25  2  0  0  0  0
 27 26  1  0  0  0  0
 28 27  1  0  0  0  0
 29 28  1  0  0  0  0
 30 29  2  0  0  0  0
  8 31  1  6  0  0  0
 32 31  1  1  0  0  0
 32 33  1  0  0  0  0
 33 34  1  0  0  0  0
 34 35  1  0  0  0  0
 35 36  1  0  0  0  0
 36 37  1  0  0  0  0
 37 32  1  0  0  0  0
 35 38  1  1  0  0  0
 34 39  1  6  0  0  0
 36 40  1  6  0  0  0
 37 41  1  6  0  0  0
M  END
>  <cdx:fragmentId>
59

$$$$
