4794.cdx
  Mrv1902 05222410242D          

 18 17  0  0  0  0            999 V2000
    8.6246   -9.1630    0.0000 C   0  0  0  0  0  0  0  0  0  0  0  0
    7.9101   -9.5755    0.0000 C   0  0  0  0  0  0  0  0  0  0  0  0
    7.1956   -9.1630    0.0000 C   0  0  0  0  0  0  0  0  0  0  0  0
    6.4812   -9.5755    0.0000 C   0  0  0  0  0  0  0  0  0  0  0  0
    5.7667   -9.1630    0.0000 C   0  0  0  0  0  0  0  0  0  0  0  0
    5.0522   -9.5755    0.0000 C   0  0  0  0  0  0  0  0  0  0  0  0
    4.3378   -9.1630    0.0000 C   0  0  0  0  0  0  0  0  0  0  0  0
    3.6233   -9.5755    0.0000 C   0  0  0  0  0  0  0  0  0  0  0  0
    2.9088   -9.1630    0.0000 C   0  0  0  0  0  0  0  0  0  0  0  0
    2.9088   -8.3380    0.0000 C   0  0  0  0  0  0  0  0  0  0  0  0
    8.6246   -8.3380    0.0000 O   0  0  0  0  0  0  0  0  0  0  0  0
    9.3391   -9.5755    0.0000 O   0  0  0  0  0  0  0  0  0  0  0  0
    2.1944   -9.5755    0.0000 C   0  0  0  0  0  0  0  0  0  0  0  0
   10.0535   -9.1630    0.0000 C   0  0  0  0  0  0  0  0  0  0  0  0
   10.7680   -9.5755    0.0000 C   0  0  0  0  0  0  0  0  0  0  0  0
   11.4825   -9.1630    0.0000 C   0  0  0  0  0  0  0  0  0  0  0  0
   12.1969   -9.5755    0.0000 C   0  0  0  0  0  0  0  0  0  0  0  0
   11.4825   -8.3380    0.0000 C   0  0  0  0  0  0  0  0  0  0  0  0
  1  2  1  0  0  0  0
  2  3  1  0  0  0  0
  3  4  1  0  0  0  0
  4  5  1  0  0  0  0
  5  6  1  0  0  0  0
  6  7  1  0  0  0  0
  7  8  1  0  0  0  0
  8  9  1  0  0  0  0
  9 10  1  0  0  0  0
  1 11  2  0  0  0  0
  1 12  1  0  0  0  0
  9 13  1  0  0  0  0
 14 15  1  0  0  0  0
 15 16  1  0  0  0  0
 16 17  1  0  0  0  0
 16 18  1  0  0  0  0
 12 14  1  0  0  0  0
M  END
>  <cdx:fragmentId>
5

$$$$
