479503.cdx
  Mrv1902 05222410212D          

 21 22  0  0  0  0            999 V2000
    4.9278   -8.2907    0.0000 O   0  0  0  0  0  0  0  0  0  0  0  0
    4.9278   -4.9907    0.0000 O   0  0  0  0  0  0  0  0  0  0  0  0
    7.7857   -4.9907    0.0000 O   0  0  0  0  0  0  0  0  0  0  0  0
    9.9291   -7.0532    0.0000 C   0  0  0  0  0  0  0  0  0  0  0  0
   10.6436   -5.8157    0.0000 C   0  0  0  0  0  0  0  0  0  0  0  0
    9.9291   -6.2282    0.0000 C   0  0  0  0  0  0  0  0  0  0  0  0
    9.2146   -5.8157    0.0000 C   0  0  0  0  0  0  0  0  0  0  0  0
    8.5001   -6.2282    0.0000 C   0  0  0  0  0  0  0  0  0  0  0  0
    7.7857   -5.8157    0.0000 C   0  0  1  0  0  0  0  0  0  0  0  0
    6.3567   -8.2907    0.0000 O   0  0  0  0  0  0  0  0  0  0  0  0
    6.3567   -4.9907    0.0000 O   0  0  0  0  0  0  0  0  0  0  0  0
    5.6423   -6.2282    0.0000 C   0  0  0  0  0  0  0  0  0  0  0  0
    4.9278   -5.8157    0.0000 C   0  0  0  0  0  0  0  0  0  0  0  0
    4.2133   -6.2282    0.0000 C   0  0  0  0  0  0  0  0  0  0  0  0
    4.2133   -7.0532    0.0000 C   0  0  0  0  0  0  0  0  0  0  0  0
    4.9278   -7.4657    0.0000 C   0  0  0  0  0  0  0  0  0  0  0  0
    5.6423   -7.0532    0.0000 C   0  0  0  0  0  0  0  0  0  0  0  0
    6.3567   -7.4657    0.0000 C   0  0  0  0  0  0  0  0  0  0  0  0
    7.0712   -7.0532    0.0000 C   0  0  0  0  0  0  0  0  0  0  0  0
    7.0712   -6.2282    0.0000 C   0  0  0  0  0  0  0  0  0  0  0  0
    6.3567   -5.8157    0.0000 C   0  0  0  0  0  0  0  0  0  0  0  0
 16  1  1  0  0  0  0
 13  2  1  0  0  0  0
 20  9  1  0  0  0  0
  9  3  1  1  0  0  0
  6  4  1  0  0  0  0
  6  5  1  0  0  0  0
  7  6  2  0  0  0  0
  8  7  1  0  0  0  0
  9  8  1  0  0  0  0
 18 10  2  0  0  0  0
 21 11  2  0  0  0  0
 17 12  2  0  0  0  0
 21 12  1  0  0  0  0
 13 12  1  0  0  0  0
 14 13  2  0  0  0  0
 15 14  1  0  0  0  0
 16 15  2  0  0  0  0
 17 16  1  0  0  0  0
 18 17  1  0  0  0  0
 19 18  1  0  0  0  0
 20 19  2  0  0  0  0
 21 20  1  0  0  0  0
M  END
>  <cdx:fragmentId>
9

$$$$
