479500.cdx
  Mrv1902 05222410212D          

 38 38  0  0  0  0            999 V2000
    5.4460   -9.2559    0.0000 C   0  0  0  0  0  0  0  0  0  0  0  0
    4.7316   -9.6684    0.0000 C   0  0  0  0  0  0  0  0  0  0  0  0
    4.0171   -9.2559    0.0000 C   0  0  0  0  0  0  0  0  0  0  0  0
    5.4460   -8.4309    0.0000 O   0  0  0  0  0  0  0  0  0  0  0  0
    6.1605   -9.6684    0.0000 O   0  0  0  0  0  0  0  0  0  0  0  0
    3.3026   -9.6684    0.0000 C   0  0  0  0  0  0  0  0  0  0  0  0
    3.3026  -10.4934    0.0000 C   0  0  0  0  0  0  0  0  0  0  0  0
    2.5882  -10.9059    0.0000 C   0  0  0  0  0  0  0  0  0  0  0  0
    1.8737  -10.4934    0.0000 C   0  0  0  0  0  0  0  0  0  0  0  0
    1.8737   -9.6684    0.0000 C   0  0  0  0  0  0  0  0  0  0  0  0
    2.5882   -9.2559    0.0000 C   0  0  0  0  0  0  0  0  0  0  0  0
    1.1592  -10.9059    0.0000 O   0  0  0  0  0  0  0  0  0  0  0  0
    6.8750   -9.2559    0.0000 C   0  0  0  0  0  0  0  0  0  0  0  0
    7.5895   -9.6684    0.0000 C   0  0  0  0  0  0  0  0  0  0  0  0
    8.3039   -9.2559    0.0000 C   0  0  0  0  0  0  0  0  0  0  0  0
    9.0184   -9.6684    0.0000 C   0  0  0  0  0  0  0  0  0  0  0  0
    9.7329   -9.2559    0.0000 C   0  0  0  0  0  0  0  0  0  0  0  0
   10.4473   -9.6684    0.0000 C   0  0  0  0  0  0  0  0  0  0  0  0
   11.1618   -9.2559    0.0000 C   0  0  0  0  0  0  0  0  0  0  0  0
   11.8763   -9.6684    0.0000 C   0  0  0  0  0  0  0  0  0  0  0  0
   12.5907   -9.2559    0.0000 C   0  0  0  0  0  0  0  0  0  0  0  0
   13.3052   -9.6684    0.0000 C   0  0  0  0  0  0  0  0  0  0  0  0
   14.0197   -9.2559    0.0000 C   0  0  0  0  0  0  0  0  0  0  0  0
   14.7342   -9.6684    0.0000 C   0  0  0  0  0  0  0  0  0  0  0  0
   15.4486   -9.2559    0.0000 C   0  0  0  0  0  0  0  0  0  0  0  0
   16.1631   -9.6684    0.0000 C   0  0  0  0  0  0  0  0  0  0  0  0
   16.8776   -9.2559    0.0000 C   0  0  0  0  0  0  0  0  0  0  0  0
   17.5920   -9.6684    0.0000 C   0  0  0  0  0  0  0  0  0  0  0  0
   18.3065   -9.2559    0.0000 C   0  0  0  0  0  0  0  0  0  0  0  0
   19.0210   -9.6684    0.0000 C   0  0  0  0  0  0  0  0  0  0  0  0
   19.7355   -9.2559    0.0000 C   0  0  0  0  0  0  0  0  0  0  0  0
   20.4499   -9.6684    0.0000 C   0  0  0  0  0  0  0  0  0  0  0  0
   21.1644   -9.2559    0.0000 C   0  0  0  0  0  0  0  0  0  0  0  0
   21.8789   -9.6684    0.0000 C   0  0  0  0  0  0  0  0  0  0  0  0
   22.5933   -9.2559    0.0000 C   0  0  0  0  0  0  0  0  0  0  0  0
   23.3078   -9.6684    0.0000 C   0  0  0  0  0  0  0  0  0  0  0  0
   24.0223   -9.2559    0.0000 C   0  0  0  0  0  0  0  0  0  0  0  0
   24.7368   -9.6684    0.0000 C   0  0  0  0  0  0  0  0  0  0  0  0
  1  2  1  0  0  0  0
  2  3  2  0  0  0  0
  1  4  2  0  0  0  0
  1  5  1  0  0  0  0
  6  7  1  0  0  0  0
  7  8  2  0  0  0  0
  8  9  1  0  0  0  0
  9 10  2  0  0  0  0
 10 11  1  0  0  0  0
  6 11  2  0  0  0  0
  9 12  1  0  0  0  0
  3  6  1  0  0  0  0
 13 14  1  0  0  0  0
 14 15  1  0  0  0  0
 15 16  1  0  0  0  0
 16 17  1  0  0  0  0
 17 18  1  0  0  0  0
 18 19  1  0  0  0  0
 19 20  1  0  0  0  0
 20 21  1  0  0  0  0
 21 22  1  0  0  0  0
 22 23  1  0  0  0  0
 23 24  1  0  0  0  0
 24 25  1  0  0  0  0
 25 26  1  0  0  0  0
 26 27  1  0  0  0  0
 27 28  1  0  0  0  0
 28 29  1  0  0  0  0
 29 30  1  0  0  0  0
 30 31  1  0  0  0  0
 31 32  1  0  0  0  0
 32 33  1  0  0  0  0
 33 34  1  0  0  0  0
 34 35  1  0  0  0  0
 35 36  1  0  0  0  0
 36 37  1  0  0  0  0
 37 38  1  0  0  0  0
  5 13  1  0  0  0  0
M  END
>  <cdx:fragmentId>
24859

$$$$
