4795.cdx
  Mrv1902 05222410242D          

 14 13  0  0  0  0            999 V2000
    3.3990   -6.8475    0.0000 C   0  0  0  0  0  0  0  0  0  0  0  0
    4.1135   -6.4350    0.0000 C   0  0  0  0  0  0  0  0  0  0  0  0
    4.8279   -6.8475    0.0000 C   0  0  0  0  0  0  0  0  0  0  0  0
    5.5424   -6.4350    0.0000 C   0  0  0  0  0  0  0  0  0  0  0  0
    6.2569   -6.8475    0.0000 C   0  0  0  0  0  0  0  0  0  0  0  0
    6.9714   -6.4350    0.0000 C   0  0  0  0  0  0  0  0  0  0  0  0
    7.6858   -6.8475    0.0000 C   0  0  0  0  0  0  0  0  0  0  0  0
    8.4003   -6.4350    0.0000 O   0  0  0  0  0  0  0  0  0  0  0  0
    9.1148   -6.8475    0.0000 C   0  0  0  0  0  0  0  0  0  0  0  0
    9.8292   -6.4350    0.0000 C   0  0  0  0  0  0  0  0  0  0  0  0
   10.5437   -6.8475    0.0000 C   0  0  0  0  0  0  0  0  0  0  0  0
   11.2582   -6.4350    0.0000 C   0  0  0  0  0  0  0  0  0  0  0  0
    7.6858   -7.6725    0.0000 O   0  0  0  0  0  0  0  0  0  0  0  0
   10.5437   -7.6725    0.0000 C   0  0  0  0  0  0  0  0  0  0  0  0
  1  2  1  0  0  0  0
  2  3  1  0  0  0  0
  3  4  1  0  0  0  0
  4  5  1  0  0  0  0
  5  6  1  0  0  0  0
  6  7  1  0  0  0  0
  7  8  1  0  0  0  0
  8  9  1  0  0  0  0
  9 10  1  0  0  0  0
 10 11  1  0  0  0  0
 11 12  1  0  0  0  0
  7 13  2  0  0  0  0
 11 14  1  0  0  0  0
M  END
>  <cdx:fragmentId>
3

$$$$
