90479675.cdx
  Mrv1902 05222410212D          

 38 43  0  0  0  0            999 V2000
    5.4494   -9.7558    0.0000 C   0  0  2  0  0  0  0  0  0  0  0  0
    6.0944   -9.2415    0.0000 C   0  0  2  0  0  0  0  0  0  0  0  0
    6.8089   -9.6540    0.0000 C   0  0  0  0  0  0  0  0  0  0  0  0
    7.5234   -9.2415    0.0000 C   0  0  0  0  0  0  0  0  0  0  0  0
    7.5234   -8.4165    0.0000 C   0  0  1  0  0  0  0  0  0  0  0  0
    8.2379   -8.0040    0.0000 C   0  0  2  0  0  0  0  0  0  0  0  0
    8.9523   -8.4165    0.0000 C   0  0  0  0  0  0  0  0  0  0  0  0
    9.6668   -8.0040    0.0000 C   0  0  0  0  0  0  0  0  0  0  0  0
    9.6668   -7.1790    0.0000 C   0  0  1  0  0  0  0  0  0  0  0  0
   10.3813   -6.7665    0.0000 C   0  0  0  0  0  0  0  0  0  0  0  0
   10.3813   -5.9415    0.0000 C   0  0  2  0  0  0  0  0  0  0  0  0
    9.6668   -5.5290    0.0000 C   0  0  0  0  0  0  0  0  0  0  0  0
    8.9523   -5.9415    0.0000 C   0  0  0  0  0  0  0  0  0  0  0  0
    8.9523   -6.7665    0.0000 C   0  0  2  0  0  0  0  0  0  0  0  0
    8.2379   -7.1790    0.0000 C   0  0  1  0  0  0  0  0  0  0  0  0
    7.5234   -6.7665    0.0000 C   0  0  0  0  0  0  0  0  0  0  0  0
    6.8089   -7.1790    0.0000 C   0  0  0  0  0  0  0  0  0  0  0  0
    6.8089   -8.0040    0.0000 C   0  0  0  0  0  0  0  0  0  0  0  0
    6.0944   -8.4165    0.0000 C   0  0  2  0  0  0  0  0  0  0  0  0
    5.4494   -7.9021    0.0000 C   0  0  0  0  0  0  0  0  0  0  0  0
    4.6451   -8.0857    0.0000 C   0  0  1  0  0  0  0  0  0  0  0  0
    4.2872   -8.8290    0.0000 C   0  0  0  0  0  0  0  0  0  0  0  0
    4.6451   -9.5723    0.0000 O   0  0  0  0  0  0  0  0  0  0  0  0
    5.5285   -8.6879    0.0000 C   0  0  0  0  0  0  0  0  0  0  0  0
    7.5234   -5.9415    0.0000 O   0  0  0  0  0  0  0  0  0  0  0  0
    3.4622   -8.8290    0.0000 O   0  0  0  0  0  0  0  0  0  0  0  0
    4.1307   -7.4406    0.0000 C   0  0  0  0  0  0  0  0  0  0  0  0
    8.9523   -7.5915    0.0000 C   0  0  0  0  0  0  0  0  0  0  0  0
   11.2063   -6.7665    0.0000 C   0  0  0  0  0  0  0  0  0  0  0  0
   10.7938   -7.4809    0.0000 C   0  0  0  0  0  0  0  0  0  0  0  0
    8.2379   -8.8290    0.0000 C   0  0  0  0  0  0  0  0  0  0  0  0
    7.5234   -7.5915    0.0000 C   0  0  0  0  0  0  0  0  0  0  0  0
    6.0944  -10.0665    0.0000 C   0  0  0  0  0  0  0  0  0  0  0  0
   11.0957   -5.5290    0.0000 O   0  0  0  0  0  0  0  0  0  0  0  0
    5.6330  -10.5601    0.0000 H   0  0  0  0  0  0  0  0  0  0  0  0
   10.3813   -7.5915    0.0000 H   0  0  0  0  0  0  0  0  0  0  0  0
    8.2379   -6.3540    0.0000 H   0  0  0  0  0  0  0  0  0  0  0  0
    6.0944   -7.5915    0.0000 H   0  0  0  0  0  0  0  0  0  0  0  0
  1  2  1  0  0  0  0
  2  3  1  0  0  0  0
  3  4  1  0  0  0  0
  4  5  1  0  0  0  0
  5  6  1  0  0  0  0
  6  7  1  0  0  0  0
  7  8  1  0  0  0  0
  8  9  1  0  0  0  0
  9 10  1  0  0  0  0
 10 11  1  0  0  0  0
 11 12  1  0  0  0  0
 12 13  1  0  0  0  0
 13 14  1  0  0  0  0
 14 15  1  0  0  0  0
 15 16  1  0  0  0  0
 16 17  1  0  0  0  0
 17 18  2  0  0  0  0
 18 19  1  0  0  0  0
 19 20  1  0  0  0  0
 20 21  1  0  0  0  0
 21 22  1  0  0  0  0
 22 23  1  0  0  0  0
  1 23  1  0  0  0  0
  1 24  1  1  0  0  0
 21 24  1  1  0  0  0
  2 19  1  0  0  0  0
  5 18  1  0  0  0  0
  6 15  1  0  0  0  0
  9 14  1  0  0  0  0
 16 25  2  0  0  0  0
 22 26  2  0  0  0  0
 21 27  1  0  0  0  0
 14 28  1  6  0  0  0
 10 29  1  0  0  0  0
 10 30  1  0  0  0  0
  6 31  1  6  0  0  0
  5 32  1  1  0  0  0
  2 33  1  6  0  0  0
 11 34  1  6  0  0  0
  1 35  1  0  0  0  0
  9 36  1  1  0  0  0
 15 37  1  1  0  0  0
 19 38  1  6  0  0  0
M  END
>  <cdx:fragmentId>
212131

$$$$
