479638.cdx
  Mrv1902 05222410192D          

 52 58  0  0  0  0            999 V2000
    6.5761   -7.4801    0.0000 C   0  0  1  0  0  0  0  0  0  0  0  0
    6.5665   -8.3050    0.0000 C   0  0  0  0  0  0  0  0  0  0  0  0
    5.8473   -8.7092    0.0000 C   0  0  0  0  0  0  0  0  0  0  0  0
    5.1377   -8.2884    0.0000 C   0  0  0  0  0  0  0  0  0  0  0  0
    5.1473   -7.4634    0.0000 C   0  0  1  0  0  0  0  0  0  0  0  0
    5.8665   -7.0593    0.0000 C   0  0  1  0  0  0  0  0  0  0  0  0
    5.8377   -9.5341    0.0000 C   0  0  0  0  0  0  0  0  0  0  0  0
    4.4377   -7.0426    0.0000 C   0  0  0  0  0  0  0  0  0  0  0  0
    3.7185   -7.4468    0.0000 C   0  0  0  0  0  0  0  0  0  0  0  0
    3.0088   -7.0260    0.0000 C   0  0  0  0  0  0  0  0  0  0  0  0
    3.0184   -6.2010    0.0000 C   0  0  0  0  0  0  0  0  0  0  0  0
    3.7377   -5.7969    0.0000 C   0  0  0  0  0  0  0  0  0  0  0  0
    4.4473   -6.2177    0.0000 C   0  0  0  0  0  0  0  0  0  0  0  0
    2.3088   -5.7803    0.0000 O   0  0  0  0  0  0  0  0  0  0  0  0
    3.7088   -8.2717    0.0000 O   0  0  0  0  0  0  0  0  0  0  0  0
    5.8819   -5.7394    0.0000 C   0  0  0  0  0  0  0  0  0  0  0  0
    5.1723   -5.3186    0.0000 C   0  0  0  0  0  0  0  0  0  0  0  0
    5.1819   -4.4936    0.0000 C   0  0  0  0  0  0  0  0  0  0  0  0
    4.4723   -4.0728    0.0000 C   0  0  0  0  0  0  0  0  0  0  0  0
    3.7530   -4.4770    0.0000 C   0  0  0  0  0  0  0  0  0  0  0  0
    3.7434   -5.3019    0.0000 C   0  0  0  0  0  0  0  0  0  0  0  0
    4.4531   -5.7227    0.0000 C   0  0  0  0  0  0  0  0  0  0  0  0
    6.6011   -5.3352    0.0000 O   0  0  0  0  0  0  0  0  0  0  0  0
    3.0434   -4.0562    0.0000 O   0  0  0  0  0  0  0  0  0  0  0  0
    5.9011   -4.0895    0.0000 O   0  0  0  0  0  0  0  0  0  0  0  0
    7.9954   -8.3217    0.0000 O   0  0  0  0  0  0  0  0  0  0  0  0
    6.5954   -5.8302    0.0000 O   0  0  0  0  0  0  0  0  0  0  0  0
   13.4145   -5.8085    0.0000 O   0  0  0  0  0  0  0  0  0  0  0  0
   10.2297   -7.9306    0.0000 O   0  0  0  0  0  0  0  0  0  0  0  0
    9.0308   -3.6601    0.0000 C   0  0  0  0  0  0  0  0  0  0  0  0
   10.4500   -3.8260    0.0000 C   0  0  0  0  0  0  0  0  0  0  0  0
    9.6925   -4.1528    0.0000 C   0  0  0  0  0  0  0  0  0  0  0  0
    9.5967   -4.9722    0.0000 C   0  0  0  0  0  0  0  0  0  0  0  0
   10.2585   -5.4648    0.0000 C   0  0  0  0  0  0  0  0  0  0  0  0
    9.4242   -8.3383    0.0000 O   0  0  0  0  0  0  0  0  0  0  0  0
   11.4273   -6.7115    0.0000 C   0  0  0  0  0  0  0  0  0  0  0  0
   12.2488   -6.6349    0.0000 C   0  0  0  0  0  0  0  0  0  0  0  0
   12.5931   -5.8851    0.0000 C   0  0  0  0  0  0  0  0  0  0  0  0
   12.1160   -5.2121    0.0000 C   0  0  0  0  0  0  0  0  0  0  0  0
   11.2945   -5.2888    0.0000 C   0  0  0  0  0  0  0  0  0  0  0  0
   10.9502   -6.0385    0.0000 C   0  0  0  0  0  0  0  0  0  0  0  0
   10.9347   -7.3733    0.0000 O   0  0  0  0  0  0  0  0  0  0  0  0
    9.4531   -5.8635    0.0000 O   0  0  0  0  0  0  0  0  0  0  0  0
    8.7338   -6.2676    0.0000 C   0  0  0  0  0  0  0  0  0  0  0  0
    8.0242   -5.8468    0.0000 C   0  0  0  0  0  0  0  0  0  0  0  0
    7.3050   -6.2510    0.0000 C   0  0  0  0  0  0  0  0  0  0  0  0
    7.2954   -7.0759    0.0000 C   0  0  0  0  0  0  0  0  0  0  0  0
    8.0050   -7.4967    0.0000 C   0  0  0  0  0  0  0  0  0  0  0  0
    8.7242   -7.0926    0.0000 C   0  0  0  0  0  0  0  0  0  0  0  0
    9.4338   -7.5134    0.0000 C   0  0  0  0  0  0  0  0  0  0  0  0
   10.1531   -7.1092    0.0000 C   0  0  0  0  0  0  0  0  0  0  0  0
   10.1627   -6.2843    0.0000 C   0  0  0  0  0  0  0  0  0  0  0  0
  1 47  1  1  0  0  0
  1  2  1  0  0  0  0
  2  3  2  0  0  0  0
 48 26  1  0  0  0  0
 46 27  1  0  0  0  0
 38 28  1  0  0  0  0
 51 29  1  0  0  0  0
 52 34  1  0  0  0  0
 32 30  1  0  0  0  0
 32 31  1  0  0  0  0
 33 32  2  0  0  0  0
 34 33  1  0  0  0  0
 50 35  2  0  0  0  0
 42 51  1  0  0  0  0
 41 52  1  0  0  0  0
 42 36  1  0  0  0  0
 41 36  2  0  0  0  0
 37 36  1  0  0  0  0
 38 37  2  0  0  0  0
 39 38  1  0  0  0  0
 40 39  2  0  0  0  0
 41 40  1  0  0  0  0
 52 43  1  0  0  0  0
 44 43  1  0  0  0  0
 49 44  2  0  0  0  0
 45 44  1  0  0  0  0
 46 45  2  0  0  0  0
 47 46  1  0  0  0  0
 48 47  2  0  0  0  0
 49 48  1  0  0  0  0
 50 49  1  0  0  0  0
 51 50  1  0  0  0  0
 52 51  1  0  0  0  0
  3  4  1  0  0  0  0
  4  5  1  0  0  0  0
  5  6  1  0  0  0  0
  1  6  1  0  0  0  0
  3  7  1  0  0  0  0
  8  9  1  0  0  0  0
  9 10  2  0  0  0  0
 10 11  1  0  0  0  0
 11 12  2  0  0  0  0
 12 13  1  0  0  0  0
  8 13  2  0  0  0  0
 11 14  1  0  0  0  0
  9 15  1  0  0  0  0
  5  8  1  6  0  0  0
 16 17  1  0  0  0  0
 17 18  1  0  0  0  0
 18 19  2  0  0  0  0
 19 20  1  0  0  0  0
 20 21  2  0  0  0  0
 21 22  1  0  0  0  0
 17 22  2  0  0  0  0
 16 23  2  0  0  0  0
 20 24  1  0  0  0  0
 18 25  1  0  0  0  0
  6 16  1  1  0  0  0
M  END
>  <cdx:fragmentId>
5

$$$$
