5479776.cdx
  Mrv1902 05222410182D          

 22 24  0  0  0  0            999 V2000
    7.4512   -5.8565    0.0000 C   0  0  0  0  0  0  0  0  0  0  0  0
    8.1657   -6.2690    0.0000 C   0  0  0  0  0  0  0  0  0  0  0  0
    8.8802   -5.8565    0.0000 C   0  0  0  0  0  0  0  0  0  0  0  0
    9.5947   -6.2690    0.0000 C   0  0  0  0  0  0  0  0  0  0  0  0
    9.5947   -7.0940    0.0000 C   0  0  0  0  0  0  0  0  0  0  0  0
    8.8802   -7.5065    0.0000 C   0  0  0  0  0  0  0  0  0  0  0  0
    8.1657   -7.0940    0.0000 C   0  0  0  0  0  0  0  0  0  0  0  0
    7.4512   -7.5065    0.0000 O   0  0  0  0  0  0  0  0  0  0  0  0
    6.7368   -7.0940    0.0000 C   0  0  0  0  0  0  0  0  0  0  0  0
    6.0223   -7.5065    0.0000 C   0  0  0  0  0  0  0  0  0  0  0  0
    5.3078   -7.0940    0.0000 C   0  0  0  0  0  0  0  0  0  0  0  0
    5.3078   -6.2690    0.0000 C   0  0  0  0  0  0  0  0  0  0  0  0
    6.0223   -5.8565    0.0000 C   0  0  0  0  0  0  0  0  0  0  0  0
    6.7368   -6.2690    0.0000 C   0  0  0  0  0  0  0  0  0  0  0  0
    7.4512   -5.0315    0.0000 O   0  0  0  0  0  0  0  0  0  0  0  0
    4.5934   -5.8565    0.0000 O   0  0  0  0  0  0  0  0  0  0  0  0
    3.8789   -6.2690    0.0000 C   0  0  0  0  0  0  0  0  0  0  0  0
    6.0223   -8.3315    0.0000 O   0  0  0  0  0  0  0  0  0  0  0  0
    5.3078   -8.7440    0.0000 C   0  0  0  0  0  0  0  0  0  0  0  0
    4.5934   -7.5065    0.0000 O   0  0  0  0  0  0  0  0  0  0  0  0
   10.3091   -7.5065    0.0000 O   0  0  0  0  0  0  0  0  0  0  0  0
    8.8802   -5.0315    0.0000 O   0  0  0  0  0  0  0  0  0  0  0  0
  1  2  1  0  0  0  0
  2  3  1  0  0  0  0
  3  4  2  0  0  0  0
  4  5  1  0  0  0  0
  5  6  2  0  0  0  0
  6  7  1  0  0  0  0
  2  7  2  0  0  0  0
  7  8  1  0  0  0  0
  8  9  1  0  0  0  0
  9 10  1  0  0  0  0
 10 11  2  0  0  0  0
 11 12  1  0  0  0  0
 12 13  2  0  0  0  0
 13 14  1  0  0  0  0
  9 14  2  0  0  0  0
  1 14  1  0  0  0  0
  1 15  2  0  0  0  0
 16 17  1  0  0  0  0
 12 16  1  0  0  0  0
 18 19  1  0  0  0  0
 10 18  1  0  0  0  0
 11 20  1  0  0  0  0
  5 21  1  0  0  0  0
  3 22  1  0  0  0  0
M  END
>  <cdx:groupId>
2382

>  <cdx:fragmentId>
2317

$$$$
