45479757.cdx
  Mrv1902 05222410262D          

 46 49  0  0  0  0            999 V2000
    3.1535   -7.5344    0.0000 H   0  0  0  0  0  0  0  0  0  0  0  0
    3.8680   -7.1219    0.0000 O   0  0  0  0  0  0  0  0  0  0  0  0
    4.5825   -7.5344    0.0000 H   0  0  0  0  0  0  0  0  0  0  0  0
   10.7435   -5.5132    0.0000 O   0  0  0  0  0  0  0  0  0  0  0  0
   10.7435   -3.8632    0.0000 O   0  0  0  0  0  0  0  0  0  0  0  0
    8.6001   -4.2757    0.0000 C   0  0  0  0  0  0  0  0  0  0  0  0
    9.3146   -3.8632    0.0000 C   0  0  0  0  0  0  0  0  0  0  0  0
   10.0290   -4.2757    0.0000 C   0  0  0  0  0  0  0  0  0  0  0  0
   10.0290   -5.1007    0.0000 C   0  0  0  0  0  0  0  0  0  0  0  0
    9.3146   -5.5132    0.0000 C   0  0  0  0  0  0  0  0  0  0  0  0
    8.6001   -5.1007    0.0000 C   0  0  0  0  0  0  0  0  0  0  0  0
    5.7422   -7.5757    0.0000 O   0  0  0  0  0  0  0  0  0  0  0  0
    4.3133   -5.1007    0.0000 O   0  0  0  0  0  0  0  0  0  0  0  0
   10.0290   -7.5757    0.0000 O   0  0  0  0  0  0  0  0  0  0  0  0
   10.0290   -9.2257    0.0000 O   0  0  0  0  0  0  0  0  0  0  0  0
    8.6001  -10.0507    0.0000 O   0  0  0  0  0  0  0  0  0  0  0  0
    6.4567  -10.4632    0.0000 O   0  0  0  0  0  0  0  0  0  0  0  0
    5.0277  -11.2882    0.0000 O   0  0  0  0  0  0  0  0  0  0  0  0
    3.5988  -10.4632    0.0000 O   0  0  0  0  0  0  0  0  0  0  0  0
    3.5988   -8.8132    0.0000 C   0  0  0  0  0  0  0  0  0  0  0  0
    4.3133   -9.2257    0.0000 C   0  0  1  0  0  0  0  0  0  0  0  0
    4.3133  -10.0507    0.0000 C   0  0  1  0  0  0  0  0  0  0  0  0
    5.0277  -10.4632    0.0000 C   0  0  2  0  0  0  0  0  0  0  0  0
    5.7422  -10.0507    0.0000 C   0  0  2  0  0  0  0  0  0  0  0  0
    5.7422   -9.2257    0.0000 C   0  0  1  0  0  0  0  0  0  0  0  0
    5.0277   -8.8132    0.0000 O   0  0  0  0  0  0  0  0  0  0  0  0
    6.4567   -8.8132    0.0000 O   0  0  0  0  0  0  0  0  0  0  0  0
    7.1712   -9.2257    0.0000 C   0  0  0  0  0  0  0  0  0  0  0  0
    7.8856   -8.8132    0.0000 C   0  0  2  0  0  0  0  0  0  0  0  0
    8.6001   -9.2257    0.0000 C   0  0  2  0  0  0  0  0  0  0  0  0
    9.3146   -8.8132    0.0000 C   0  0  1  0  0  0  0  0  0  0  0  0
    9.3146   -7.9882    0.0000 C   0  0  2  0  0  0  0  0  0  0  0  0
    8.6001   -7.5757    0.0000 C   0  0  1  0  0  0  0  0  0  0  0  0
    7.8856   -7.9882    0.0000 O   0  0  0  0  0  0  0  0  0  0  0  0
    8.6001   -6.7507    0.0000 O   0  0  0  0  0  0  0  0  0  0  0  0
    7.1712   -7.5757    0.0000 O   0  0  0  0  0  0  0  0  0  0  0  0
    7.1712   -5.1007    0.0000 O   0  0  0  0  0  0  0  0  0  0  0  0
    6.4567   -5.5132    0.0000 C   0  0  0  0  0  0  0  0  0  0  0  0
    5.7422   -5.1007    0.0000 C   0  0  0  0  0  0  0  0  0  0  0  0
    5.0277   -5.5132    0.0000 C   0  0  0  0  0  0  0  0  0  0  0  0
    5.0277   -6.3382    0.0000 C   0  0  0  0  0  0  0  0  0  0  0  0
    5.7422   -6.7507    0.0000 C   0  0  0  0  0  0  0  0  0  0  0  0
    6.4567   -6.3382    0.0000 C   0  0  0  0  0  0  0  0  0  0  0  0
    7.1712   -6.7507    0.0000 C   0  0  0  0  0  0  0  0  0  0  0  0
    7.8856   -6.3382    0.0000 C   0  0  0  0  0  0  0  0  0  0  0  0
    7.8856   -5.5132    0.0000 C   0  0  0  0  0  0  0  0  0  0  0  0
  1  2  1  0  0  0  0
  2  3  1  0  0  0  0
 46 11  1  0  0  0  0
  9  4  1  0  0  0  0
  8  5  1  0  0  0  0
 11  6  2  0  0  0  0
  7  6  1  0  0  0  0
  8  7  2  0  0  0  0
  9  8  1  0  0  0  0
 10  9  2  0  0  0  0
 11 10  1  0  0  0  0
 42 12  1  0  0  0  0
 40 13  1  0  0  0  0
 45 35  1  0  0  0  0
 33 35  1  1  0  0  0
 32 14  1  6  0  0  0
 31 15  1  1  0  0  0
 30 16  1  6  0  0  0
 29 28  1  1  0  0  0
 28 27  1  0  0  0  0
 25 27  1  1  0  0  0
 24 17  1  6  0  0  0
 23 18  1  6  0  0  0
 22 19  1  1  0  0  0
 21 20  1  6  0  0  0
 26 21  1  0  0  0  0
 22 21  1  0  0  0  0
 23 22  1  0  0  0  0
 24 23  1  0  0  0  0
 25 24  1  0  0  0  0
 26 25  1  0  0  0  0
 34 29  1  0  0  0  0
 30 29  1  0  0  0  0
 31 30  1  0  0  0  0
 32 31  1  0  0  0  0
 33 32  1  0  0  0  0
 34 33  1  0  0  0  0
 44 36  2  0  0  0  0
 46 37  1  0  0  0  0
 38 37  1  0  0  0  0
 43 38  2  0  0  0  0
 39 38  1  0  0  0  0
 40 39  2  0  0  0  0
 41 40  1  0  0  0  0
 42 41  2  0  0  0  0
 43 42  1  0  0  0  0
 44 43  1  0  0  0  0
 45 44  1  0  0  0  0
 46 45  2  0  0  0  0
M  END
>  <cdx:groupId>
143

>  <cdx:fragmentId>
45

$$$$
