479915.cdx
  Mrv1902 05222410252D          

 27 28  0  0  0  0            999 V2000
    9.9364   -6.0934    0.0000 C   0  0  0  0  0  0  0  0  0  0  0  0
   10.6509   -6.5059    0.0000 C   0  0  0  0  0  0  0  0  0  0  0  0
   11.3653   -6.0934    0.0000 C   0  0  0  0  0  0  0  0  0  0  0  0
    7.7930   -6.5059    0.0000 O   0  0  0  0  0  0  0  0  0  0  0  0
    7.0785   -6.0934    0.0000 C   0  0  0  0  0  0  0  0  0  0  0  0
    6.3640   -6.5059    0.0000 C   0  0  0  0  0  0  0  0  0  0  0  0
    5.6496   -6.0934    0.0000 C   0  0  0  0  0  0  0  0  0  0  0  0
    7.0785   -5.2684    0.0000 O   0  0  0  0  0  0  0  0  0  0  0  0
    4.9351   -6.5059    0.0000 C   0  0  0  0  0  0  0  0  0  0  0  0
    4.2206   -6.0934    0.0000 C   0  0  0  0  0  0  0  0  0  0  0  0
    3.5061   -6.5059    0.0000 C   0  0  0  0  0  0  0  0  0  0  0  0
    3.5061   -7.3309    0.0000 C   0  0  0  0  0  0  0  0  0  0  0  0
    4.2206   -7.7434    0.0000 C   0  0  0  0  0  0  0  0  0  0  0  0
    4.9351   -7.3309    0.0000 C   0  0  0  0  0  0  0  0  0  0  0  0
    2.7917   -7.7434    0.0000 O   0  0  0  0  0  0  0  0  0  0  0  0
    2.7917   -6.0934    0.0000 O   0  0  0  0  0  0  0  0  0  0  0  0
   11.3653   -5.2684    0.0000 C   0  0  0  0  0  0  0  0  0  0  0  0
   10.6509   -4.8559    0.0000 C   0  0  0  0  0  0  0  0  0  0  0  0
    9.9364   -5.2684    0.0000 C   0  0  0  0  0  0  0  0  0  0  0  0
   12.0798   -4.8559    0.0000 O   0  0  0  0  0  0  0  0  0  0  0  0
   12.0798   -6.5059    0.0000 O   0  0  0  0  0  0  0  0  0  0  0  0
    9.2219   -4.0309    0.0000 C   0  0  0  0  0  0  0  0  0  0  0  0
    9.2219   -4.8559    0.0000 O   0  0  0  0  0  0  0  0  0  0  0  0
    7.7930   -4.8559    0.0000 O   0  0  0  0  0  0  0  0  0  0  0  0
    9.2219   -6.5059    0.0000 C   0  0  0  0  0  0  0  0  0  0  0  0
    8.5074   -6.0934    0.0000 C   0  0  2  0  0  0  0  0  0  0  0  0
    8.5074   -5.2684    0.0000 C   0  0  0  0  0  0  0  0  0  0  0  0
 23 22  1  0  0  0  0
 25  1  1  0  0  0  0
 27 23  1  0  0  0  0
 27 24  2  0  0  0  0
 26 25  1  0  0  0  0
 27 26  1  0  0  0  0
  1  2  1  0  0  0  0
  2  3  2  0  0  0  0
  3 17  1  0  0  0  0
  5  6  1  0  0  0  0
  6  7  2  0  0  0  0
  5  8  2  0  0  0  0
  9 10  1  0  0  0  0
 10 11  2  0  0  0  0
 11 12  1  0  0  0  0
 12 13  2  0  0  0  0
 13 14  1  0  0  0  0
  9 14  2  0  0  0  0
 12 15  1  0  0  0  0
 11 16  1  0  0  0  0
  7  9  1  0  0  0  0
  4  5  1  0  0  0  0
 26  4  1  1  0  0  0
 17 18  2  0  0  0  0
 18 19  1  0  0  0  0
  1 19  2  0  0  0  0
 17 20  1  0  0  0  0
  3 21  1  0  0  0  0
M  END
>  <cdx:fragmentId>
24981

$$$$
