4800.cdx
  Mrv1902 05222410252D          

 12 11  0  0  0  0            999 V2000
    3.2546   -7.4250    0.0000 C   0  0  0  0  0  0  0  0  0  0  0  0
    3.9691   -7.0125    0.0000 C   0  0  0  0  0  0  0  0  0  0  0  0
    4.6836   -7.4250    0.0000 C   0  0  0  0  0  0  0  0  0  0  0  0
    5.3980   -7.0125    0.0000 C   0  0  0  0  0  0  0  0  0  0  0  0
    6.1125   -7.4250    0.0000 C   0  0  0  0  0  0  0  0  0  0  0  0
    6.8270   -7.0125    0.0000 C   0  0  0  0  0  0  0  0  0  0  0  0
    7.5415   -7.4250    0.0000 C   0  0  0  0  0  0  0  0  0  0  0  0
    8.2559   -7.0125    0.0000 C   0  0  0  0  0  0  0  0  0  0  0  0
    8.9704   -7.4250    0.0000 C   0  0  0  0  0  0  0  0  0  0  0  0
    9.6849   -7.0125    0.0000 C   0  0  0  0  0  0  0  0  0  0  0  0
    8.2559   -6.1875    0.0000 C   0  0  0  0  0  0  0  0  0  0  0  0
    8.9704   -8.2500    0.0000 O   0  0  0  0  0  0  0  0  0  0  0  0
  1  2  1  0  0  0  0
  2  3  1  0  0  0  0
  3  4  1  0  0  0  0
  4  5  1  0  0  0  0
  5  6  1  0  0  0  0
  6  7  1  0  0  0  0
  7  8  1  0  0  0  0
  8  9  1  0  0  0  0
  9 10  1  0  0  0  0
  8 11  1  0  0  0  0
  9 12  2  0  0  0  0
M  END
>  <cdx:fragmentId>
3

$$$$
