4801.cdx
  Mrv1902 05222410252D          

 15 19  0  0  0  0            999 V2000
    6.2862   -5.7814    0.0000 C   0  0  0  0  0  0  0  0  0  0  0  0
    6.6295   -6.5316    0.0000 C   0  0  0  0  0  0  0  0  0  0  0  0
    7.4508   -6.6094    0.0000 C   0  0  0  0  0  0  0  0  0  0  0  0
    7.9289   -5.9370    0.0000 C   0  0  0  0  0  0  0  0  0  0  0  0
    7.5856   -5.1868    0.0000 C   0  0  0  0  0  0  0  0  0  0  0  0
    6.7642   -5.1090    0.0000 C   0  0  0  0  0  0  0  0  0  0  0  0
    8.7502   -6.0148    0.0000 C   0  0  0  0  0  0  0  0  0  0  0  0
    9.2282   -5.3424    0.0000 C   0  0  0  0  0  0  0  0  0  0  0  0
    8.8849   -4.5922    0.0000 C   0  0  0  0  0  0  0  0  0  0  0  0
    8.0636   -4.5144    0.0000 C   0  0  0  0  0  0  0  0  0  0  0  0
    5.4612   -5.7814    0.0000 C   0  0  0  0  0  0  0  0  0  0  0  0
    7.0831   -5.5679    0.0000 C   0  0  0  0  0  0  0  0  0  0  0  0
    8.1580   -6.9865    0.0000 C   0  0  0  0  0  0  0  0  0  0  0  0
    8.9962   -6.4296    0.0000 C   0  0  0  0  0  0  0  0  0  0  0  0
    7.6665   -6.0275    0.0000 C   0  0  0  0  0  0  0  0  0  0  0  0
  1  2  1  0  0  0  0
  2  3  1  0  0  0  0
  3  4  1  0  0  0  0
  4  5  1  0  0  0  0
  5  6  1  0  0  0  0
  6  1  1  0  0  0  0
  4  7  1  0  0  0  0
  7  8  1  0  0  0  0
  8  9  1  0  0  0  0
  9 10  1  0  0  0  0
 10  5  1  0  0  0  0
  1 11  1  0  0  0  0
  1 12  1  0  0  0  0
  3 13  1  0  0  0  0
 13 14  1  0  0  0  0
 14  8  1  0  0  0  0
 12 15  1  0  0  0  0
 15 13  1  0  0  0  0
 10 15  1  0  0  0  0
M  END
>  <cdx:fragmentId>
5

$$$$
