4802.cdx
  Mrv1902 05222410252D          

 14 13  0  0  0  0            999 V2000
    2.8215   -7.6313    0.0000 C   0  0  0  0  0  0  0  0  0  0  0  0
    3.5360   -7.2188    0.0000 C   0  0  0  0  0  0  0  0  0  0  0  0
    4.2504   -7.6313    0.0000 C   0  0  0  0  0  0  0  0  0  0  0  0
    4.9649   -7.2188    0.0000 C   0  0  0  0  0  0  0  0  0  0  0  0
    5.6794   -7.6313    0.0000 C   0  0  0  0  0  0  0  0  0  0  0  0
    6.3939   -7.2188    0.0000 C   0  0  0  0  0  0  0  0  0  0  0  0
    7.1083   -7.6313    0.0000 C   0  0  0  0  0  0  0  0  0  0  0  0
    7.8228   -7.2188    0.0000 C   0  0  0  0  0  0  0  0  0  0  0  0
    8.5373   -7.6313    0.0000 C   0  0  0  0  0  0  0  0  0  0  0  0
    9.2517   -7.2188    0.0000 C   0  0  0  0  0  0  0  0  0  0  0  0
    9.9662   -7.6313    0.0000 C   0  0  0  0  0  0  0  0  0  0  0  0
   10.6807   -7.2188    0.0000 C   0  0  0  0  0  0  0  0  0  0  0  0
    9.9662   -8.4563    0.0000 O   0  0  0  0  0  0  0  0  0  0  0  0
    9.2517   -6.3937    0.0000 C   0  0  0  0  0  0  0  0  0  0  0  0
  1  2  1  0  0  0  0
  2  3  1  0  0  0  0
  3  4  1  0  0  0  0
  4  5  1  0  0  0  0
  5  6  1  0  0  0  0
  6  7  1  0  0  0  0
  7  8  1  0  0  0  0
  8  9  1  0  0  0  0
  9 10  1  0  0  0  0
 10 11  1  0  0  0  0
 11 12  1  0  0  0  0
 11 13  2  0  0  0  0
 10 14  1  0  0  0  0
M  END
>  <cdx:fragmentId>
3

$$$$
