5480343.cdx
  Mrv1902 05222410252D          

 22 24  0  0  0  0            999 V2000
    7.0357   -5.8565    0.0000 C   0  0  0  0  0  0  0  0  0  0  0  0
    7.7502   -6.2690    0.0000 C   0  0  0  0  0  0  0  0  0  0  0  0
    8.4647   -5.8565    0.0000 C   0  0  0  0  0  0  0  0  0  0  0  0
    9.1792   -6.2690    0.0000 C   0  0  0  0  0  0  0  0  0  0  0  0
    9.1792   -7.0940    0.0000 C   0  0  0  0  0  0  0  0  0  0  0  0
    8.4647   -7.5065    0.0000 C   0  0  0  0  0  0  0  0  0  0  0  0
    7.7502   -7.0940    0.0000 C   0  0  0  0  0  0  0  0  0  0  0  0
    7.0357   -7.5065    0.0000 O   0  0  0  0  0  0  0  0  0  0  0  0
    6.3213   -7.0940    0.0000 C   0  0  0  0  0  0  0  0  0  0  0  0
    5.6068   -7.5065    0.0000 C   0  0  0  0  0  0  0  0  0  0  0  0
    4.8923   -7.0940    0.0000 C   0  0  0  0  0  0  0  0  0  0  0  0
    4.8923   -6.2690    0.0000 C   0  0  0  0  0  0  0  0  0  0  0  0
    5.6068   -5.8565    0.0000 C   0  0  0  0  0  0  0  0  0  0  0  0
    6.3213   -6.2690    0.0000 C   0  0  0  0  0  0  0  0  0  0  0  0
    7.0357   -5.0315    0.0000 O   0  0  0  0  0  0  0  0  0  0  0  0
    5.6068   -8.3315    0.0000 O   0  0  0  0  0  0  0  0  0  0  0  0
    4.8923   -8.7440    0.0000 C   0  0  0  0  0  0  0  0  0  0  0  0
    9.8936   -5.8565    0.0000 O   0  0  0  0  0  0  0  0  0  0  0  0
   10.6081   -6.2690    0.0000 C   0  0  0  0  0  0  0  0  0  0  0  0
    4.1779   -7.5065    0.0000 O   0  0  0  0  0  0  0  0  0  0  0  0
    9.8936   -7.5065    0.0000 O   0  0  0  0  0  0  0  0  0  0  0  0
    8.4647   -5.0315    0.0000 O   0  0  0  0  0  0  0  0  0  0  0  0
  1  2  1  0  0  0  0
  2  3  1  0  0  0  0
  3  4  2  0  0  0  0
  4  5  1  0  0  0  0
  5  6  2  0  0  0  0
  6  7  1  0  0  0  0
  2  7  2  0  0  0  0
  7  8  1  0  0  0  0
  8  9  1  0  0  0  0
  9 10  1  0  0  0  0
 10 11  2  0  0  0  0
 11 12  1  0  0  0  0
 12 13  2  0  0  0  0
 13 14  1  0  0  0  0
  9 14  2  0  0  0  0
  1 14  1  0  0  0  0
  1 15  2  0  0  0  0
 16 17  1  0  0  0  0
 10 16  1  0  0  0  0
 18 19  1  0  0  0  0
  4 18  1  0  0  0  0
 11 20  1  0  0  0  0
  5 21  1  0  0  0  0
  3 22  1  0  0  0  0
M  END
>  <cdx:groupId>
2456

>  <cdx:fragmentId>
2391

$$$$
