4803.cdx
  Mrv1902 05222410252D          

 12 11  0  0  0  0            999 V2000
   10.1931   -6.6778    0.0000 C   0  0  0  0  0  0  0  0  0  0  0  0
    9.4786   -6.2653    0.0000 C   0  0  0  0  0  0  0  0  0  0  0  0
    8.7641   -6.6778    0.0000 C   0  0  0  0  0  0  0  0  0  0  0  0
    8.0497   -6.2653    0.0000 C   0  0  0  0  0  0  0  0  0  0  0  0
    7.3352   -6.6778    0.0000 C   0  0  0  0  0  0  0  0  0  0  0  0
    6.6207   -6.2653    0.0000 C   0  0  0  0  0  0  0  0  0  0  0  0
    5.9063   -6.6778    0.0000 C   0  0  0  0  0  0  0  0  0  0  0  0
    5.1918   -6.2653    0.0000 C   0  0  0  0  0  0  0  0  0  0  0  0
    4.4773   -6.6778    0.0000 C   0  0  0  0  0  0  0  0  0  0  0  0
    3.7628   -6.2653    0.0000 C   0  0  0  0  0  0  0  0  0  0  0  0
    3.0484   -6.6778    0.0000 C   0  0  0  0  0  0  0  0  0  0  0  0
    4.4773   -7.5028    0.0000 C   0  0  0  0  0  0  0  0  0  0  0  0
  1  2  1  0  0  0  0
  2  3  1  0  0  0  0
  3  4  1  0  0  0  0
  4  5  1  0  0  0  0
  5  6  1  0  0  0  0
  6  7  1  0  0  0  0
  7  8  1  0  0  0  0
  8  9  1  0  0  0  0
  9 10  1  0  0  0  0
 10 11  1  0  0  0  0
  9 12  2  0  0  0  0
M  END
>  <cdx:fragmentId>
3

$$$$
