4805.cdx
  Mrv1902 05222410242D          

 18 17  0  0  0  0            999 V2000
    1.7077   -6.1050    0.0000 C   0  0  0  0  0  0  0  0  0  0  0  0
    2.4222   -6.5175    0.0000 C   0  0  0  0  0  0  0  0  0  0  0  0
    3.1367   -6.1050    0.0000 C   0  0  0  0  0  0  0  0  0  0  0  0
    3.8512   -6.5175    0.0000 C   0  0  0  0  0  0  0  0  0  0  0  0
    4.5656   -6.1050    0.0000 C   0  0  0  0  0  0  0  0  0  0  0  0
    5.2801   -6.5175    0.0000 C   0  0  0  0  0  0  0  0  0  0  0  0
    5.9946   -6.1050    0.0000 C   0  0  0  0  0  0  0  0  0  0  0  0
    6.7090   -6.5175    0.0000 C   0  0  0  0  0  0  0  0  0  0  0  0
    7.4235   -6.1050    0.0000 C   0  0  0  0  0  0  0  0  0  0  0  0
    8.1380   -6.5175    0.0000 C   0  0  0  0  0  0  0  0  0  0  0  0
    8.8525   -6.1050    0.0000 C   0  0  0  0  0  0  0  0  0  0  0  0
    9.5669   -6.5175    0.0000 C   0  0  0  0  0  0  0  0  0  0  0  0
   10.2814   -6.1050    0.0000 C   0  0  0  0  0  0  0  0  0  0  0  0
   10.9959   -6.5175    0.0000 C   0  0  0  0  0  0  0  0  0  0  0  0
   11.7103   -6.1050    0.0000 C   0  0  0  0  0  0  0  0  0  0  0  0
   12.4248   -6.5175    0.0000 C   0  0  0  0  0  0  0  0  0  0  0  0
    2.4222   -7.3425    0.0000 O   0  0  0  0  0  0  0  0  0  0  0  0
    3.1367   -5.2800    0.0000 C   0  0  0  0  0  0  0  0  0  0  0  0
  1  2  1  0  0  0  0
  2  3  1  0  0  0  0
  3  4  1  0  0  0  0
  4  5  1  0  0  0  0
  5  6  1  0  0  0  0
  6  7  1  0  0  0  0
  7  8  1  0  0  0  0
  8  9  1  0  0  0  0
  9 10  1  0  0  0  0
 10 11  1  0  0  0  0
 11 12  1  0  0  0  0
 12 13  1  0  0  0  0
 13 14  1  0  0  0  0
 14 15  1  0  0  0  0
 15 16  1  0  0  0  0
  2 17  2  0  0  0  0
  3 18  1  0  0  0  0
M  END
>  <cdx:fragmentId>
3

$$$$
