480505.cdx
  Mrv1902 05222410192D          

 20 22  0  0  0  0            999 V2000
    8.2562   -7.3533    0.0000 O   0  0  0  0  0  0  0  0  0  0  0  0
    7.4716   -7.6083    0.0000 C   0  0  2  0  0  0  0  0  0  0  0  0
    6.9867   -6.9408    0.0000 C   0  0  1  0  0  0  0  0  0  0  0  0
    7.4716   -6.2734    0.0000 C   0  0  1  0  0  0  0  0  0  0  0  0
    8.2562   -6.5283    0.0000 C   0  0  1  0  0  0  0  0  0  0  0  0
    6.1617   -6.9408    0.0000 O   0  0  0  0  0  0  0  0  0  0  0  0
    7.2167   -5.4888    0.0000 O   0  0  0  0  0  0  0  0  0  0  0  0
    8.9237   -6.0434    0.0000 C   0  0  0  0  0  0  0  0  0  0  0  0
    9.6774   -6.3790    0.0000 O   0  0  0  0  0  0  0  0  0  0  0  0
   10.3448   -5.8940    0.0000 C   0  0  0  0  0  0  0  0  0  0  0  0
    7.2167   -9.7278    0.0000 N   0  0  0  0  0  0  0  0  0  0  0  0
    7.7016   -9.0603    0.0000 C   0  0  0  0  0  0  0  0  0  0  0  0
    7.2167   -8.3929    0.0000 N   0  0  0  0  0  0  0  0  0  0  0  0
    6.4321   -8.6478    0.0000 C   0  0  0  0  0  0  0  0  0  0  0  0
    5.7176   -8.2353    0.0000 N   0  0  0  0  0  0  0  0  0  0  0  0
    5.0031   -8.6478    0.0000 C   0  0  0  0  0  0  0  0  0  0  0  0
    5.0031   -9.4728    0.0000 N   0  0  0  0  0  0  0  0  0  0  0  0
    5.7176   -9.8853    0.0000 C   0  0  0  0  0  0  0  0  0  0  0  0
    6.4321   -9.4728    0.0000 C   0  0  0  0  0  0  0  0  0  0  0  0
    5.7176  -10.7103    0.0000 N   0  0  0  0  0  0  0  0  0  0  0  0
  1  2  1  0  0  0  0
  2  3  1  0  0  0  0
  3  4  1  0  0  0  0
  4  5  1  0  0  0  0
  1  5  1  0  0  0  0
  3  6  1  6  0  0  0
  4  7  1  6  0  0  0
  9 10  1  0  0  0  0
  8  9  1  0  0  0  0
  5  8  1  1  0  0  0
 11 12  2  0  0  0  0
 12 13  1  0  0  0  0
 13 14  1  0  0  0  0
 14 15  2  0  0  0  0
 15 16  1  0  0  0  0
 16 17  2  0  0  0  0
 17 18  1  0  0  0  0
 18 19  2  0  0  0  0
 11 19  1  0  0  0  0
 14 19  1  0  0  0  0
 18 20  1  0  0  0  0
  2 13  1  1  0  0  0
M  END
>  <cdx:fragmentId>
25070

$$$$
