4806.cdx
  Mrv1902 05222410232D          

 20 19  0  0  0  0            999 V2000
    1.4190   -6.2287    0.0000 C   0  0  0  0  0  0  0  0  0  0  0  0
    2.1335   -6.6413    0.0000 C   0  0  0  0  0  0  0  0  0  0  0  0
    2.8479   -6.2287    0.0000 C   0  0  0  0  0  0  0  0  0  0  0  0
    3.5624   -6.6413    0.0000 C   0  0  0  0  0  0  0  0  0  0  0  0
    4.2769   -6.2287    0.0000 C   0  0  0  0  0  0  0  0  0  0  0  0
    4.9914   -6.6413    0.0000 C   0  0  0  0  0  0  0  0  0  0  0  0
    5.7058   -6.2287    0.0000 C   0  0  0  0  0  0  0  0  0  0  0  0
    6.4203   -6.6413    0.0000 C   0  0  0  0  0  0  0  0  0  0  0  0
    7.1348   -6.2287    0.0000 C   0  0  0  0  0  0  0  0  0  0  0  0
    7.8492   -6.6413    0.0000 C   0  0  0  0  0  0  0  0  0  0  0  0
    8.5637   -6.2287    0.0000 C   0  0  0  0  0  0  0  0  0  0  0  0
    9.2782   -6.6413    0.0000 C   0  0  0  0  0  0  0  0  0  0  0  0
    9.9927   -6.2287    0.0000 C   0  0  0  0  0  0  0  0  0  0  0  0
   10.7071   -6.6413    0.0000 C   0  0  0  0  0  0  0  0  0  0  0  0
   11.4216   -6.2287    0.0000 C   0  0  0  0  0  0  0  0  0  0  0  0
   12.1361   -6.6413    0.0000 C   0  0  0  0  0  0  0  0  0  0  0  0
   12.8505   -6.2287    0.0000 C   0  0  0  0  0  0  0  0  0  0  0  0
   13.5650   -6.6413    0.0000 C   0  0  0  0  0  0  0  0  0  0  0  0
    2.1335   -7.4663    0.0000 O   0  0  0  0  0  0  0  0  0  0  0  0
    2.8479   -5.4037    0.0000 C   0  0  0  0  0  0  0  0  0  0  0  0
  1  2  1  0  0  0  0
  2  3  1  0  0  0  0
  3  4  1  0  0  0  0
  4  5  1  0  0  0  0
  5  6  1  0  0  0  0
  6  7  1  0  0  0  0
  7  8  1  0  0  0  0
  8  9  1  0  0  0  0
  9 10  1  0  0  0  0
 10 11  1  0  0  0  0
 11 12  1  0  0  0  0
 12 13  1  0  0  0  0
 13 14  1  0  0  0  0
 14 15  1  0  0  0  0
 15 16  1  0  0  0  0
 16 17  1  0  0  0  0
 17 18  1  0  0  0  0
  2 19  2  0  0  0  0
  3 20  1  0  0  0  0
M  END
>  <cdx:fragmentId>
3

$$$$
