480780.cdx
  Mrv1902 05222410232D          

 26 28  0  0  0  0            999 V2000
   12.2966   -8.2488    0.0000 C   0  0  0  0  0  0  0  0  0  0  0  0
   13.0111   -7.8363    0.0000 O   0  0  0  0  0  0  0  0  0  0  0  0
   13.7255   -8.2488    0.0000 C   0  0  0  0  0  0  0  0  0  0  0  0
   14.4400   -7.8363    0.0000 C   0  0  0  0  0  0  0  0  0  0  0  0
   15.1545   -8.2488    0.0000 C   0  0  0  0  0  0  0  0  0  0  0  0
   15.8690   -7.8363    0.0000 O   0  0  0  0  0  0  0  0  0  0  0  0
   16.5834   -8.2488    0.0000 C   0  0  0  0  0  0  0  0  0  0  0  0
   16.5834   -9.0738    0.0000 C   0  0  0  0  0  0  0  0  0  0  0  0
   15.8690   -9.4863    0.0000 C   0  0  0  0  0  0  0  0  0  0  0  0
   15.8690  -10.3113    0.0000 O   0  0  0  0  0  0  0  0  0  0  0  0
   15.1545   -9.0738    0.0000 C   0  0  0  0  0  0  0  0  0  0  0  0
   14.4400   -9.4863    0.0000 C   0  0  0  0  0  0  0  0  0  0  0  0
   13.7255   -9.0738    0.0000 C   0  0  0  0  0  0  0  0  0  0  0  0
   13.0111   -9.4863    0.0000 C   0  0  0  0  0  0  0  0  0  0  0  0
   12.2966   -9.0738    0.0000 C   0  0  0  0  0  0  0  0  0  0  0  0
   11.5821   -9.4863    0.0000 C   0  0  0  0  0  0  0  0  0  0  0  0
   11.5821  -10.3113    0.0000 C   0  0  0  0  0  0  0  0  0  0  0  0
   10.8676   -9.0738    0.0000 C   0  0  0  0  0  0  0  0  0  0  0  0
   14.4400  -10.3113    0.0000 O   0  0  0  0  0  0  0  0  0  0  0  0
   17.2979   -9.4863    0.0000 C   0  0  0  0  0  0  0  0  0  0  0  0
   18.0124   -9.0738    0.0000 C   0  0  0  0  0  0  0  0  0  0  0  0
   18.7268   -9.4863    0.0000 C   0  0  0  0  0  0  0  0  0  0  0  0
   18.7268  -10.3113    0.0000 C   0  0  0  0  0  0  0  0  0  0  0  0
   18.0124  -10.7238    0.0000 C   0  0  0  0  0  0  0  0  0  0  0  0
   17.2979  -10.3113    0.0000 C   0  0  0  0  0  0  0  0  0  0  0  0
   19.4413  -10.7238    0.0000 O   0  0  0  0  0  0  0  0  0  0  0  0
  1  2  1  0  0  0  0
  2  3  1  0  0  0  0
  3 13  1  0  0  0  0
  3  4  2  0  0  0  0
  4  5  1  0  0  0  0
  5 11  2  0  0  0  0
  5  6  1  0  0  0  0
  6  7  1  0  0  0  0
  7  8  2  0  0  0  0
  8  9  1  0  0  0  0
  8 20  1  0  0  0  0
  9 10  2  0  0  0  0
  9 11  1  0  0  0  0
 11 12  1  0  0  0  0
 12 13  2  0  0  0  0
 12 19  1  0  0  0  0
 13 14  1  0  0  0  0
 14 15  1  0  0  0  0
 15 16  2  0  0  0  0
 16 17  1  0  0  0  0
 16 18  1  0  0  0  0
 20 25  1  0  0  0  0
 20 21  2  0  0  0  0
 21 22  1  0  0  0  0
 22 23  2  0  0  0  0
 23 24  1  0  0  0  0
 23 26  1  0  0  0  0
 24 25  2  0  0  0  0
M  END
>  <cdx:fragmentId>
19621

$$$$
