480741.cdx
  Mrv1902 05222410242D          

 16 17  0  0  0  0            999 V2000
    8.0291   -8.3119    0.0000 C   0  0  1  0  0  0  0  0  0  0  0  0
    7.6166   -7.5974    0.0000 C   0  0  0  0  0  0  0  0  0  0  0  0
    6.7916   -7.5974    0.0000 C   0  0  0  0  0  0  0  0  0  0  0  0
    6.3791   -8.3119    0.0000 C   0  0  0  0  0  0  0  0  0  0  0  0
    6.7916   -9.0264    0.0000 C   0  0  0  0  0  0  0  0  0  0  0  0
    7.6166   -9.0264    0.0000 C   0  0  0  0  0  0  0  0  0  0  0  0
    6.3791   -9.7408    0.0000 O   0  0  0  0  0  0  0  0  0  0  0  0
    5.5541   -8.3119    0.0000 C   0  0  0  0  0  0  0  0  0  0  0  0
    8.2591   -9.7640    0.0000 C   0  0  0  0  0  0  0  0  0  0  0  0
    7.4521   -6.6883    0.0000 C   0  0  0  0  0  0  0  0  0  0  0  0
    8.2591   -6.8598    0.0000 C   0  0  0  0  0  0  0  0  0  0  0  0
    8.8111   -6.2467    0.0000 C   0  0  0  0  0  0  0  0  0  0  0  0
    8.5140   -7.6445    0.0000 C   0  0  2  0  0  0  0  0  0  0  0  0
    9.2986   -7.8994    0.0000 C   0  0  0  0  0  0  0  0  0  0  0  0
    9.2986   -8.7244    0.0000 C   0  0  0  0  0  0  0  0  0  0  0  0
    8.5140   -8.9793    0.0000 C   0  0  1  0  0  0  0  0  0  0  0  0
 16  9  1  6  0  0  0
 13 11  1  6  0  0  0
 11 10  1  0  0  0  0
 12 11  1  0  0  0  0
 16  1  1  0  0  0  0
 13  1  1  0  0  0  0
 14 13  1  0  0  0  0
 15 14  1  0  0  0  0
 16 15  1  0  0  0  0
  1  2  1  0  0  0  0
  2  3  1  0  0  0  0
  3  4  2  0  0  0  0
  4  5  1  0  0  0  0
  5  6  1  0  0  0  0
  1  6  1  6  0  0  0
  5  7  2  0  0  0  0
  4  8  1  0  0  0  0
M  END
>  <cdx:fragmentId>
92975

$$$$
