480777.cdx
  Mrv1902 05222410212D          

 26 28  0  0  0  0            999 V2000
   11.4407  -10.4185    0.0000 C   0  0  0  0  0  0  0  0  0  0  0  0
   11.4407   -9.5935    0.0000 C   0  0  0  0  0  0  0  0  0  0  0  0
   10.7263   -9.1810    0.0000 C   0  0  0  0  0  0  0  0  0  0  0  0
   12.1552   -9.1810    0.0000 C   0  0  0  0  0  0  0  0  0  0  0  0
   12.8697   -9.5935    0.0000 C   0  0  0  0  0  0  0  0  0  0  0  0
   13.5841   -9.1810    0.0000 C   0  0  0  0  0  0  0  0  0  0  0  0
   13.5841   -8.3560    0.0000 C   0  0  0  0  0  0  0  0  0  0  0  0
   12.8697   -7.9435    0.0000 O   0  0  0  0  0  0  0  0  0  0  0  0
   12.1552   -8.3560    0.0000 C   0  0  0  0  0  0  0  0  0  0  0  0
   14.2986   -7.9435    0.0000 C   0  0  0  0  0  0  0  0  0  0  0  0
   15.0131   -8.3560    0.0000 C   0  0  0  0  0  0  0  0  0  0  0  0
   15.7977   -8.1011    0.0000 O   0  0  0  0  0  0  0  0  0  0  0  0
   16.2827   -8.7685    0.0000 C   0  0  0  0  0  0  0  0  0  0  0  0
   17.1077   -8.7685    0.0000 C   0  0  0  0  0  0  0  0  0  0  0  0
   17.5202   -8.0540    0.0000 C   0  0  0  0  0  0  0  0  0  0  0  0
   18.3452   -8.0540    0.0000 C   0  0  0  0  0  0  0  0  0  0  0  0
   18.7577   -8.7685    0.0000 C   0  0  0  0  0  0  0  0  0  0  0  0
   19.5827   -8.7685    0.0000 O   0  0  0  0  0  0  0  0  0  0  0  0
   18.3452   -9.4829    0.0000 C   0  0  0  0  0  0  0  0  0  0  0  0
   17.5202   -9.4829    0.0000 C   0  0  0  0  0  0  0  0  0  0  0  0
   17.1077  -10.1974    0.0000 O   0  0  0  0  0  0  0  0  0  0  0  0
   15.7977   -9.4359    0.0000 C   0  0  0  0  0  0  0  0  0  0  0  0
   15.0131   -9.1810    0.0000 C   0  0  0  0  0  0  0  0  0  0  0  0
   14.2986   -9.5935    0.0000 C   0  0  0  0  0  0  0  0  0  0  0  0
   14.2986  -10.4185    0.0000 O   0  0  0  0  0  0  0  0  0  0  0  0
   13.5841  -10.8310    0.0000 C   0  0  0  0  0  0  0  0  0  0  0  0
  1  2  1  0  0  0  0
  2  3  1  0  0  0  0
  2  4  2  0  0  0  0
  4  5  1  0  0  0  0
  5  6  1  0  0  0  0
  6  7  2  0  0  0  0
  7  8  1  0  0  0  0
  8  9  1  0  0  0  0
  7 10  1  0  0  0  0
 10 11  2  0  0  0  0
 11 12  1  0  0  0  0
 12 13  1  0  0  0  0
 13 14  1  0  0  0  0
 14 15  2  0  0  0  0
 15 16  1  0  0  0  0
 16 17  2  0  0  0  0
 17 18  1  0  0  0  0
 17 19  1  0  0  0  0
 19 20  2  0  0  0  0
 14 20  1  0  0  0  0
 20 21  1  0  0  0  0
 13 22  2  0  0  0  0
 11 23  1  0  0  0  0
 22 23  1  0  0  0  0
 23 24  2  0  0  0  0
  6 24  1  0  0  0  0
 24 25  1  0  0  0  0
 25 26  1  0  0  0  0
M  END
>  <cdx:fragmentId>
19560

$$$$
