480774.cdx
  Mrv1902 05222410222D          

 24 27  0  0  0  0            999 V2000
   17.0094  -10.0094    0.0000 C   0  0  0  0  0  0  0  0  0  0  0  0
   16.5969  -10.7239    0.0000 C   0  0  0  0  0  0  0  0  0  0  0  0
   17.4219  -10.7239    0.0000 C   0  0  0  0  0  0  0  0  0  0  0  0
   15.8825  -10.3114    0.0000 O   0  0  0  0  0  0  0  0  0  0  0  0
   15.1680  -10.7239    0.0000 C   0  0  0  0  0  0  0  0  0  0  0  0
   15.1680  -11.5489    0.0000 C   0  0  0  0  0  0  0  0  0  0  0  0
   15.8825  -11.9614    0.0000 C   0  0  0  0  0  0  0  0  0  0  0  0
   16.5969  -11.5489    0.0000 C   0  0  0  0  0  0  0  0  0  0  0  0
   14.4535  -11.9614    0.0000 C   0  0  0  0  0  0  0  0  0  0  0  0
   14.4535  -12.7863    0.0000 O   0  0  0  0  0  0  0  0  0  0  0  0
   13.7390  -11.5489    0.0000 C   0  0  0  0  0  0  0  0  0  0  0  0
   13.7390  -10.7239    0.0000 C   0  0  0  0  0  0  0  0  0  0  0  0
   14.4535  -10.3114    0.0000 C   0  0  0  0  0  0  0  0  0  0  0  0
   14.4535   -9.4864    0.0000 C   0  0  0  0  0  0  0  0  0  0  0  0
   15.1680   -9.0739    0.0000 C   0  0  0  0  0  0  0  0  0  0  0  0
   15.1680   -8.2489    0.0000 C   0  0  0  0  0  0  0  0  0  0  0  0
   14.4535   -7.8364    0.0000 C   0  0  0  0  0  0  0  0  0  0  0  0
   13.7390   -8.2489    0.0000 O   0  0  0  0  0  0  0  0  0  0  0  0
   13.7390   -9.0739    0.0000 C   0  0  0  0  0  0  0  0  0  0  0  0
   14.4535   -7.0114    0.0000 C   0  0  0  0  0  0  0  0  0  0  0  0
   15.1680   -6.5989    0.0000 C   0  0  0  0  0  0  0  0  0  0  0  0
   15.1680   -5.7739    0.0000 O   0  0  0  0  0  0  0  0  0  0  0  0
   15.8825   -7.0114    0.0000 C   0  0  0  0  0  0  0  0  0  0  0  0
   15.8825   -7.8364    0.0000 C   0  0  0  0  0  0  0  0  0  0  0  0
  1  2  1  0  0  0  0
  2  3  1  0  0  0  0
  2  4  1  0  0  0  0
  4  5  1  0  0  0  0
  5  6  2  0  0  0  0
  6  7  1  0  0  0  0
  7  8  2  0  0  0  0
  2  8  1  0  0  0  0
  6  9  1  0  0  0  0
  9 10  1  0  0  0  0
  9 11  2  0  0  0  0
 11 12  1  0  0  0  0
 12 13  2  0  0  0  0
  5 13  1  0  0  0  0
 13 14  1  0  0  0  0
 14 15  2  0  0  0  0
 15 16  1  0  0  0  0
 16 17  2  0  0  0  0
 17 18  1  0  0  0  0
 18 19  1  0  0  0  0
 14 19  1  0  0  0  0
 17 20  1  0  0  0  0
 20 21  2  0  0  0  0
 21 22  1  0  0  0  0
 21 23  1  0  0  0  0
 23 24  2  0  0  0  0
 16 24  1  0  0  0  0
M  END
>  <cdx:fragmentId>
19502

$$$$
