480770.cdx
  Mrv1902 05222410222D          

 31 33  0  0  0  0            999 V2000
   15.0686   -8.8412    0.0000 C   0  0  0  0  0  0  0  0  0  0  0  0
   15.0686   -8.0162    0.0000 C   0  0  0  0  0  0  0  0  0  0  0  0
   14.3541   -7.6037    0.0000 C   0  0  0  0  0  0  0  0  0  0  0  0
   13.6396   -8.0162    0.0000 C   0  0  0  0  0  0  0  0  0  0  0  0
   12.9252   -7.6037    0.0000 C   0  0  0  0  0  0  0  0  0  0  0  0
   12.2107   -8.0162    0.0000 C   0  0  0  0  0  0  0  0  0  0  0  0
   12.2107   -8.8412    0.0000 C   0  0  0  0  0  0  0  0  0  0  0  0
   12.9252   -9.2537    0.0000 C   0  0  0  0  0  0  0  0  0  0  0  0
   13.6396   -8.8412    0.0000 C   0  0  0  0  0  0  0  0  0  0  0  0
   14.3541   -9.2537    0.0000 O   0  0  0  0  0  0  0  0  0  0  0  0
   14.3541   -6.7787    0.0000 O   0  0  0  0  0  0  0  0  0  0  0  0
   12.9252  -10.0787    0.0000 C   0  0  0  0  0  0  0  0  0  0  0  0
   12.2107  -10.4912    0.0000 C   0  0  0  0  0  0  0  0  0  0  0  0
   12.2107  -11.3162    0.0000 C   0  0  0  0  0  0  0  0  0  0  0  0
   12.9252  -11.7287    0.0000 C   0  0  0  0  0  0  0  0  0  0  0  0
   11.4962  -11.7287    0.0000 C   0  0  0  0  0  0  0  0  0  0  0  0
   11.4962   -9.2537    0.0000 O   0  0  0  0  0  0  0  0  0  0  0  0
   12.9252   -6.7787    0.0000 O   0  0  0  0  0  0  0  0  0  0  0  0
   15.7830   -9.2537    0.0000 C   0  0  0  0  0  0  0  0  0  0  0  0
   15.7830  -10.0787    0.0000 C   0  0  0  0  0  0  0  0  0  0  0  0
   16.4975  -10.4912    0.0000 C   0  0  0  0  0  0  0  0  0  0  0  0
   17.2120  -10.0787    0.0000 C   0  0  0  0  0  0  0  0  0  0  0  0
   17.2120   -9.2537    0.0000 C   0  0  0  0  0  0  0  0  0  0  0  0
   16.4975   -8.8412    0.0000 C   0  0  0  0  0  0  0  0  0  0  0  0
   17.9265   -8.8412    0.0000 C   0  0  0  0  0  0  0  0  0  0  0  0
   18.6409   -9.2537    0.0000 C   0  0  0  0  0  0  0  0  0  0  0  0
   19.3554   -8.8412    0.0000 C   0  0  0  0  0  0  0  0  0  0  0  0
   19.3554   -8.0162    0.0000 C   0  0  0  0  0  0  0  0  0  0  0  0
   20.0699   -9.2537    0.0000 C   0  0  0  0  0  0  0  0  0  0  0  0
   17.9265  -10.4912    0.0000 O   0  0  0  0  0  0  0  0  0  0  0  0
   16.4975  -11.3162    0.0000 O   0  0  0  0  0  0  0  0  0  0  0  0
  1  2  1  0  0  0  0
  2  3  1  0  0  0  0
  3  4  1  0  0  0  0
  4  5  1  0  0  0  0
  5  6  2  0  0  0  0
  6  7  1  0  0  0  0
  7  8  2  0  0  0  0
  8  9  1  0  0  0  0
  4  9  2  0  0  0  0
  9 10  1  0  0  0  0
  1 10  1  0  0  0  0
  3 11  2  0  0  0  0
 12 13  1  0  0  0  0
 13 14  2  0  0  0  0
 14 15  1  0  0  0  0
 14 16  1  0  0  0  0
  8 12  1  0  0  0  0
  7 17  1  0  0  0  0
  5 18  1  0  0  0  0
 19 20  1  0  0  0  0
 20 21  2  0  0  0  0
 21 22  1  0  0  0  0
 22 23  2  0  0  0  0
 23 24  1  0  0  0  0
 19 24  2  0  0  0  0
 25 26  1  0  0  0  0
 26 27  2  0  0  0  0
 27 28  1  0  0  0  0
 27 29  1  0  0  0  0
 23 25  1  0  0  0  0
 22 30  1  0  0  0  0
 21 31  1  0  0  0  0
  1 19  1  0  0  0  0
M  END
>  <cdx:groupId>
19495

>  <cdx:fragmentId>
19403

$$$$
