480786.cdx
  Mrv1902 05222410242D          

 31 33  0  0  0  0            999 V2000
    7.5485   -6.9328    0.0000 C   0  0  0  0  0  0  0  0  0  0  0  0
    7.5485   -6.1078    0.0000 C   0  0  0  0  0  0  0  0  0  0  0  0
    6.8340   -5.6953    0.0000 C   0  0  0  0  0  0  0  0  0  0  0  0
    6.1195   -6.1078    0.0000 C   0  0  0  0  0  0  0  0  0  0  0  0
    5.4051   -5.6953    0.0000 C   0  0  0  0  0  0  0  0  0  0  0  0
    4.6906   -6.1078    0.0000 C   0  0  0  0  0  0  0  0  0  0  0  0
    4.6906   -6.9328    0.0000 C   0  0  0  0  0  0  0  0  0  0  0  0
    5.4051   -7.3453    0.0000 C   0  0  0  0  0  0  0  0  0  0  0  0
    6.1195   -6.9328    0.0000 C   0  0  0  0  0  0  0  0  0  0  0  0
    6.8340   -7.3453    0.0000 O   0  0  0  0  0  0  0  0  0  0  0  0
    6.8340   -4.8703    0.0000 O   0  0  0  0  0  0  0  0  0  0  0  0
    3.9761   -5.6953    0.0000 C   0  0  0  0  0  0  0  0  0  0  0  0
    3.2617   -6.1078    0.0000 C   0  0  0  0  0  0  0  0  0  0  0  0
    2.5472   -5.6953    0.0000 C   0  0  0  0  0  0  0  0  0  0  0  0
    2.5472   -4.8703    0.0000 C   0  0  0  0  0  0  0  0  0  0  0  0
    1.8327   -6.1078    0.0000 C   0  0  0  0  0  0  0  0  0  0  0  0
    3.9761   -7.3453    0.0000 O   0  0  0  0  0  0  0  0  0  0  0  0
    5.4051   -4.8703    0.0000 O   0  0  0  0  0  0  0  0  0  0  0  0
    8.2630   -5.6953    0.0000 C   0  0  0  0  0  0  0  0  0  0  0  0
    8.9774   -6.1078    0.0000 C   0  0  0  0  0  0  0  0  0  0  0  0
    9.6919   -5.6953    0.0000 C   0  0  0  0  0  0  0  0  0  0  0  0
    9.6919   -4.8703    0.0000 C   0  0  0  0  0  0  0  0  0  0  0  0
    8.9774   -4.4578    0.0000 C   0  0  0  0  0  0  0  0  0  0  0  0
    8.2630   -4.8703    0.0000 C   0  0  0  0  0  0  0  0  0  0  0  0
   10.4064   -6.1078    0.0000 C   0  0  0  0  0  0  0  0  0  0  0  0
   11.1208   -5.6953    0.0000 C   0  0  0  0  0  0  0  0  0  0  0  0
   11.8353   -6.1078    0.0000 C   0  0  0  0  0  0  0  0  0  0  0  0
   11.8353   -6.9328    0.0000 C   0  0  0  0  0  0  0  0  0  0  0  0
   12.5498   -5.6953    0.0000 C   0  0  0  0  0  0  0  0  0  0  0  0
   10.4064   -4.4578    0.0000 O   0  0  0  0  0  0  0  0  0  0  0  0
    8.9774   -6.9328    0.0000 O   0  0  0  0  0  0  0  0  0  0  0  0
  1  2  1  0  0  0  0
  2  3  1  0  0  0  0
  3  4  1  0  0  0  0
  4  5  1  0  0  0  0
  5  6  2  0  0  0  0
  6  7  1  0  0  0  0
  7  8  2  0  0  0  0
  8  9  1  0  0  0  0
  4  9  2  0  0  0  0
  9 10  1  0  0  0  0
  1 10  1  0  0  0  0
  3 11  2  0  0  0  0
 12 13  1  0  0  0  0
 13 14  2  0  0  0  0
 14 15  1  0  0  0  0
 14 16  1  0  0  0  0
  6 12  1  0  0  0  0
  7 17  1  0  0  0  0
  5 18  1  0  0  0  0
 19 20  1  0  0  0  0
 20 21  2  0  0  0  0
 21 22  1  0  0  0  0
 22 23  2  0  0  0  0
 23 24  1  0  0  0  0
 19 24  2  0  0  0  0
 25 26  1  0  0  0  0
 26 27  2  0  0  0  0
 27 28  1  0  0  0  0
 27 29  1  0  0  0  0
 21 25  1  0  0  0  0
 22 30  1  0  0  0  0
 20 31  1  0  0  0  0
  2 19  1  0  0  0  0
M  END
>  <cdx:fragmentId>
19786

$$$$
