4807.cdx
  Mrv1902 05222410232D          

 11 11  0  0  0  0            999 V2000
    5.7443   -5.5793    0.0000 O   0  0  0  0  0  0  0  0  0  0  0  0
    7.1732   -5.5882    0.0000 O   0  0  0  0  0  0  0  0  0  0  0  0
    6.4562   -5.9963    0.0000 C   0  0  0  0  0  0  0  0  0  0  0  0
    7.8697   -8.4801    0.0000 C   0  0  0  0  0  0  0  0  0  0  0  0
    6.4356   -9.2962    0.0000 O   0  0  0  0  0  0  0  0  0  0  0  0
    7.1578   -8.0632    0.0000 C   0  0  0  0  0  0  0  0  0  0  0  0
    7.1629   -7.2382    0.0000 C   0  0  0  0  0  0  0  0  0  0  0  0
    6.4510   -6.8213    0.0000 C   0  0  0  0  0  0  0  0  0  0  0  0
    5.7340   -7.2293    0.0000 C   0  0  0  0  0  0  0  0  0  0  0  0
    5.7289   -8.0543    0.0000 C   0  0  0  0  0  0  0  0  0  0  0  0
    6.4407   -8.4712    0.0000 C   0  0  0  0  0  0  0  0  0  0  0  0
  3  1  2  0  0  0  0
  3  2  1  0  0  0  0
  8  3  1  0  0  0  0
  6  4  1  0  0  0  0
 11  5  1  0  0  0  0
  6 11  1  0  0  0  0
  7  6  2  0  0  0  0
  8  7  1  0  0  0  0
  9  8  2  0  0  0  0
 10  9  1  0  0  0  0
 11 10  2  0  0  0  0
M  END
>  <cdx:fragmentId>
5

$$$$
