480872.cdx
  Mrv1902 05222410262D          

 33 36  0  0  0  0            999 V2000
    8.3042   -8.2412    0.0000 C   0  0  0  0  0  0  0  0  0  0  0  0
    7.7522   -7.6281    0.0000 C   0  0  2  0  0  0  0  0  0  0  0  0
    8.0071   -6.8435    0.0000 C   0  0  2  0  0  0  0  0  0  0  0  0
    8.8141   -6.6720    0.0000 C   0  0  0  0  0  0  0  0  0  0  0  0
    9.0690   -5.8874    0.0000 C   0  0  0  0  0  0  0  0  0  0  0  0
    9.8760   -5.7158    0.0000 C   0  0  0  0  0  0  0  0  0  0  0  0
   10.4280   -6.3289    0.0000 C   0  0  0  0  0  0  0  0  0  0  0  0
   10.1731   -7.1135    0.0000 C   0  0  0  0  0  0  0  0  0  0  0  0
    9.3661   -7.2851    0.0000 C   0  0  0  0  0  0  0  0  0  0  0  0
    9.1112   -8.0697    0.0000 O   0  0  0  0  0  0  0  0  0  0  0  0
    7.3397   -6.3586    0.0000 O   0  0  0  0  0  0  0  0  0  0  0  0
    6.9272   -7.6281    0.0000 C   0  0  0  0  0  0  0  0  0  0  0  0
    6.3752   -8.2412    0.0000 C   0  0  0  0  0  0  0  0  0  0  0  0
    5.5682   -8.0697    0.0000 C   0  0  0  0  0  0  0  0  0  0  0  0
    5.3132   -7.2851    0.0000 C   0  0  0  0  0  0  0  0  0  0  0  0
    5.8653   -6.6720    0.0000 C   0  0  0  0  0  0  0  0  0  0  0  0
    6.6722   -6.8435    0.0000 C   0  0  0  0  0  0  0  0  0  0  0  0
   11.2350   -6.1574    0.0000 O   0  0  0  0  0  0  0  0  0  0  0  0
    4.5063   -7.1135    0.0000 O   0  0  0  0  0  0  0  0  0  0  0  0
    5.0161   -8.6828    0.0000 C   0  0  0  0  0  0  0  0  0  0  0  0
    4.2092   -8.5113    0.0000 C   0  0  0  0  0  0  0  0  0  0  0  0
    3.6571   -9.1244    0.0000 C   0  0  0  0  0  0  0  0  0  0  0  0
    3.9121   -9.9090    0.0000 C   0  0  0  0  0  0  0  0  0  0  0  0
    2.8502   -8.9528    0.0000 C   0  0  0  0  0  0  0  0  0  0  0  0
   10.1309   -4.9312    0.0000 C   0  0  0  0  0  0  0  0  0  0  0  0
   10.9379   -4.7597    0.0000 C   0  0  0  0  0  0  0  0  0  0  0  0
   11.1929   -3.9751    0.0000 C   0  0  0  0  0  0  0  0  0  0  0  0
   10.6408   -3.3620    0.0000 C   0  0  0  0  0  0  0  0  0  0  0  0
   11.9998   -3.8035    0.0000 C   0  0  0  0  0  0  0  0  0  0  0  0
    8.5170   -5.2743    0.0000 O   0  0  0  0  0  0  0  0  0  0  0  0
    7.7100   -5.4458    0.0000 C   0  0  0  0  0  0  0  0  0  0  0  0
    7.4166   -8.3818    0.0000 H   0  0  0  0  0  0  0  0  0  0  0  0
    8.1787   -6.0365    0.0000 H   0  0  0  0  0  0  0  0  0  0  0  0
  1  2  1  0  0  0  0
  2  3  1  0  0  0  0
  3  4  1  0  0  0  0
  4  5  1  0  0  0  0
  5  6  2  0  0  0  0
  6  7  1  0  0  0  0
  7  8  2  0  0  0  0
  8  9  1  0  0  0  0
  4  9  2  0  0  0  0
  9 10  1  0  0  0  0
  1 10  1  0  0  0  0
 12 13  1  0  0  0  0
 13 14  2  0  0  0  0
 14 15  1  0  0  0  0
 15 16  2  0  0  0  0
 16 17  1  0  0  0  0
 12 17  2  0  0  0  0
 11 17  1  0  0  0  0
 12  2  1  0  0  0  0
 11  3  1  0  0  0  0
  7 18  1  0  0  0  0
 15 19  1  0  0  0  0
 20 21  1  0  0  0  0
 21 22  2  0  0  0  0
 22 23  1  0  0  0  0
 22 24  1  0  0  0  0
 14 20  1  0  0  0  0
 25 26  1  0  0  0  0
 26 27  2  0  0  0  0
 27 28  1  0  0  0  0
 27 29  1  0  0  0  0
  6 25  1  0  0  0  0
 30 31  1  0  0  0  0
  5 30  1  0  0  0  0
  2 32  1  6  0  0  0
  3 33  1  6  0  0  0
M  END
>  <cdx:groupId>
104

>  <cdx:fragmentId>
5

$$$$
