4808.cdx
  Mrv1902 05222410222D          

 15 14  0  0  0  0            999 V2000
    3.3784   -6.5794    0.0000 C   0  0  0  0  0  0  0  0  0  0  0  0
    4.0928   -6.9919    0.0000 C   0  0  0  0  0  0  0  0  0  0  0  0
    4.8073   -6.5794    0.0000 C   0  0  0  0  0  0  0  0  0  0  0  0
    5.5218   -6.9919    0.0000 C   0  0  0  0  0  0  0  0  0  0  0  0
    6.2363   -6.5794    0.0000 C   0  0  0  0  0  0  0  0  0  0  0  0
    6.9507   -6.9919    0.0000 C   0  0  0  0  0  0  0  0  0  0  0  0
    7.6652   -6.5794    0.0000 C   0  0  0  0  0  0  0  0  0  0  0  0
    8.3797   -6.9919    0.0000 C   0  0  0  0  0  0  0  0  0  0  0  0
    9.0941   -6.5794    0.0000 C   0  0  0  0  0  0  0  0  0  0  0  0
    9.8086   -6.9919    0.0000 C   0  0  0  0  0  0  0  0  0  0  0  0
   10.5231   -6.5794    0.0000 C   0  0  0  0  0  0  0  0  0  0  0  0
   11.2376   -6.9919    0.0000 C   0  0  0  0  0  0  0  0  0  0  0  0
   11.9520   -6.5794    0.0000 C   0  0  0  0  0  0  0  0  0  0  0  0
    4.0928   -7.8169    0.0000 O   0  0  0  0  0  0  0  0  0  0  0  0
    4.8073   -5.7544    0.0000 C   0  0  0  0  0  0  0  0  0  0  0  0
  1  2  1  0  0  0  0
  2  3  1  0  0  0  0
  3  4  1  0  0  0  0
  4  5  1  0  0  0  0
  5  6  1  0  0  0  0
  6  7  1  0  0  0  0
  7  8  1  0  0  0  0
  8  9  1  0  0  0  0
  9 10  1  0  0  0  0
 10 11  1  0  0  0  0
 11 12  1  0  0  0  0
 12 13  1  0  0  0  0
  2 14  2  0  0  0  0
  3 15  1  0  0  0  0
M  END
>  <cdx:fragmentId>
3

$$$$
