480859.cdx
  Mrv1902 05222410272D          

 26 28  0  0  0  0            999 V2000
   12.2107   -8.1153    0.0000 C   0  0  0  0  0  0  0  0  0  0  0  0
   12.9252   -7.7028    0.0000 C   0  0  0  0  0  0  0  0  0  0  0  0
   13.6396   -8.1153    0.0000 C   0  0  0  0  0  0  0  0  0  0  0  0
   13.6396   -8.9403    0.0000 C   0  0  0  0  0  0  0  0  0  0  0  0
   12.9252   -9.3528    0.0000 C   0  0  0  0  0  0  0  0  0  0  0  0
   12.2107   -8.9403    0.0000 C   0  0  0  0  0  0  0  0  0  0  0  0
   11.4962   -7.7028    0.0000 O   0  0  0  0  0  0  0  0  0  0  0  0
   14.3541   -7.7028    0.0000 O   0  0  0  0  0  0  0  0  0  0  0  0
   14.3541  -10.1778    0.0000 C   0  0  0  0  0  0  0  0  0  0  0  0
   14.3541   -9.3528    0.0000 C   0  0  2  0  0  0  0  0  0  0  0  0
   15.0686   -8.9403    0.0000 C   0  0  0  0  0  0  0  0  0  0  0  0
   15.7830   -9.3528    0.0000 C   0  0  0  0  0  0  0  0  0  0  0  0
   16.4975   -8.9403    0.0000 C   0  0  0  0  0  0  0  0  0  0  0  0
   17.2120   -9.3528    0.0000 C   0  0  0  0  0  0  0  0  0  0  0  0
   17.2120  -10.1778    0.0000 C   0  0  0  0  0  0  0  0  0  0  0  0
   16.4975  -10.5903    0.0000 C   0  0  0  0  0  0  0  0  0  0  0  0
   15.7830  -10.1778    0.0000 C   0  0  0  0  0  0  0  0  0  0  0  0
   15.0686  -10.5903    0.0000 O   0  0  0  0  0  0  0  0  0  0  0  0
   17.9265   -8.9403    0.0000 C   0  0  0  0  0  0  0  0  0  0  0  0
   18.6409   -9.3528    0.0000 C   0  0  0  0  0  0  0  0  0  0  0  0
   19.3554   -8.9403    0.0000 C   0  0  0  0  0  0  0  0  0  0  0  0
   19.3554   -8.1153    0.0000 C   0  0  0  0  0  0  0  0  0  0  0  0
   20.0699   -9.3528    0.0000 C   0  0  0  0  0  0  0  0  0  0  0  0
   16.4975   -8.1153    0.0000 O   0  0  0  0  0  0  0  0  0  0  0  0
   17.2120   -7.7028    0.0000 C   0  0  0  0  0  0  0  0  0  0  0  0
   17.9265  -10.5903    0.0000 O   0  0  0  0  0  0  0  0  0  0  0  0
  1  2  1  0  0  0  0
  2  3  2  0  0  0  0
  3  4  1  0  0  0  0
  4  5  2  0  0  0  0
  5  6  1  0  0  0  0
  1  6  2  0  0  0  0
  1  7  1  0  0  0  0
  3  8  1  0  0  0  0
  9 10  1  0  0  0  0
 10 11  1  0  0  0  0
 11 12  1  0  0  0  0
 12 13  1  0  0  0  0
 13 14  2  0  0  0  0
 14 15  1  0  0  0  0
 15 16  2  0  0  0  0
 16 17  1  0  0  0  0
 12 17  2  0  0  0  0
 17 18  1  0  0  0  0
  9 18  1  0  0  0  0
 19 20  1  0  0  0  0
 20 21  2  0  0  0  0
 21 22  1  0  0  0  0
 21 23  1  0  0  0  0
 14 19  1  0  0  0  0
 24 25  1  0  0  0  0
 13 24  1  0  0  0  0
 15 26  1  0  0  0  0
 10  4  1  1  0  0  0
M  END
>  <cdx:groupId>
20360

>  <cdx:fragmentId>
20299

$$$$
