480815.cdx
  Mrv1902 05222410252D          

 28 29  0  0  0  0            999 V2000
   16.1832  -11.8278    0.0000 C   0  0  0  0  0  0  0  0  0  0  0  0
   15.4688  -12.2403    0.0000 C   0  0  0  0  0  0  0  0  0  0  0  0
   14.7543  -11.8278    0.0000 C   0  0  0  0  0  0  0  0  0  0  0  0
   14.7543  -11.0028    0.0000 C   0  0  0  0  0  0  0  0  0  0  0  0
   15.4688  -10.5903    0.0000 C   0  0  0  0  0  0  0  0  0  0  0  0
   16.1832  -11.0028    0.0000 C   0  0  0  0  0  0  0  0  0  0  0  0
   16.8977  -12.2403    0.0000 O   0  0  0  0  0  0  0  0  0  0  0  0
   14.0398  -12.2403    0.0000 O   0  0  0  0  0  0  0  0  0  0  0  0
   16.8977  -10.5903    0.0000 C   0  0  0  0  0  0  0  0  0  0  0  0
   17.6122  -11.0028    0.0000 C   0  0  0  0  0  0  0  0  0  0  0  0
   18.3266  -10.5903    0.0000 C   0  0  0  0  0  0  0  0  0  0  0  0
   18.3266   -9.7653    0.0000 C   0  0  0  0  0  0  0  0  0  0  0  0
   19.0411  -11.0028    0.0000 C   0  0  0  0  0  0  0  0  0  0  0  0
   14.0398  -10.5903    0.0000 C   0  0  0  0  0  0  0  0  0  0  0  0
   13.3253  -11.0028    0.0000 C   0  0  0  0  0  0  0  0  0  0  0  0
   12.6109  -10.5903    0.0000 C   0  0  0  0  0  0  0  0  0  0  0  0
   12.6109   -9.7653    0.0000 C   0  0  0  0  0  0  0  0  0  0  0  0
   11.8964  -11.0028    0.0000 C   0  0  0  0  0  0  0  0  0  0  0  0
   15.4688   -9.7653    0.0000 C   0  0  0  0  0  0  0  0  0  0  0  0
   14.7543   -9.3528    0.0000 C   0  0  0  0  0  0  0  0  0  0  0  0
   14.7543   -8.5278    0.0000 C   0  0  0  0  0  0  0  0  0  0  0  0
   14.0398   -8.1153    0.0000 C   0  0  0  0  0  0  0  0  0  0  0  0
   14.0398   -7.2903    0.0000 C   0  0  0  0  0  0  0  0  0  0  0  0
   14.7543   -6.8778    0.0000 C   0  0  0  0  0  0  0  0  0  0  0  0
   15.4688   -7.2903    0.0000 C   0  0  0  0  0  0  0  0  0  0  0  0
   15.4688   -8.1153    0.0000 C   0  0  0  0  0  0  0  0  0  0  0  0
   14.7543   -6.0528    0.0000 O   0  0  0  0  0  0  0  0  0  0  0  0
   13.3253   -6.8778    0.0000 O   0  0  0  0  0  0  0  0  0  0  0  0
  1  2  1  0  0  0  0
  2  3  2  0  0  0  0
  3  4  1  0  0  0  0
  4  5  2  0  0  0  0
  5  6  1  0  0  0  0
  1  6  2  0  0  0  0
  1  7  1  0  0  0  0
  3  8  1  0  0  0  0
  9 10  1  0  0  0  0
 10 11  2  0  0  0  0
 11 12  1  0  0  0  0
 11 13  1  0  0  0  0
  6  9  1  0  0  0  0
 14 15  1  0  0  0  0
 15 16  2  0  0  0  0
 16 17  1  0  0  0  0
 16 18  1  0  0  0  0
  4 14  1  0  0  0  0
 19 20  1  0  0  0  0
 21 22  1  0  0  0  0
 22 23  2  0  0  0  0
 23 24  1  0  0  0  0
 24 25  2  0  0  0  0
 25 26  1  0  0  0  0
 21 26  2  0  0  0  0
 24 27  1  0  0  0  0
 23 28  1  0  0  0  0
 20 21  1  0  0  0  0
  5 19  1  0  0  0  0
M  END
>  <cdx:groupId>
20035

>  <cdx:fragmentId>
19953

$$$$
