480863.cdx
  Mrv1902 05222410282D          

 31 34  0  0  0  0            999 V2000
    5.0794   -8.4683    0.0000 C   0  0  0  0  0  0  0  0  0  0  0  0
    5.0794   -7.6433    0.0000 C   0  0  0  0  0  0  0  0  0  0  0  0
    5.7938   -7.2308    0.0000 C   0  0  0  0  0  0  0  0  0  0  0  0
    6.5083   -7.6433    0.0000 C   0  0  0  0  0  0  0  0  0  0  0  0
    6.5083   -8.4683    0.0000 C   0  0  0  0  0  0  0  0  0  0  0  0
    5.7938   -8.8808    0.0000 C   0  0  0  0  0  0  0  0  0  0  0  0
    4.3649   -8.8808    0.0000 O   0  0  0  0  0  0  0  0  0  0  0  0
    5.7938   -6.4058    0.0000 O   0  0  0  0  0  0  0  0  0  0  0  0
    4.3649   -7.2308    0.0000 C   0  0  0  0  0  0  0  0  0  0  0  0
    3.6504   -7.6433    0.0000 C   0  0  0  0  0  0  0  0  0  0  0  0
    2.9360   -7.2308    0.0000 C   0  0  0  0  0  0  0  0  0  0  0  0
    2.9360   -6.4058    0.0000 C   0  0  0  0  0  0  0  0  0  0  0  0
    2.2215   -7.6433    0.0000 C   0  0  0  0  0  0  0  0  0  0  0  0
   11.5096   -6.4058    0.0000 C   0  0  0  0  0  0  0  0  0  0  0  0
   11.5096   -7.2308    0.0000 C   0  0  0  0  0  0  0  0  0  0  0  0
   10.7951   -7.6433    0.0000 C   0  0  0  0  0  0  0  0  0  0  0  0
   10.0807   -7.2308    0.0000 C   0  0  0  0  0  0  0  0  0  0  0  0
    9.3662   -7.6433    0.0000 C   0  0  0  0  0  0  0  0  0  0  0  0
    8.6517   -7.2308    0.0000 C   0  0  0  0  0  0  0  0  0  0  0  0
    8.6517   -6.4058    0.0000 C   0  0  0  0  0  0  0  0  0  0  0  0
    9.3662   -5.9933    0.0000 C   0  0  0  0  0  0  0  0  0  0  0  0
   10.0807   -6.4058    0.0000 C   0  0  0  0  0  0  0  0  0  0  0  0
   10.7951   -5.9933    0.0000 O   0  0  0  0  0  0  0  0  0  0  0  0
    7.9373   -7.6433    0.0000 C   0  0  0  0  0  0  0  0  0  0  0  0
    7.2228   -7.2308    0.0000 C   0  0  1  0  0  0  0  0  0  0  0  0
    7.2228   -6.4058    0.0000 C   0  0  0  0  0  0  0  0  0  0  0  0
    7.9373   -5.9933    0.0000 O   0  0  0  0  0  0  0  0  0  0  0  0
   11.9221   -5.6914    0.0000 C   0  0  0  0  0  0  0  0  0  0  0  0
   12.3346   -6.4058    0.0000 C   0  0  0  0  0  0  0  0  0  0  0  0
    9.3662   -8.4683    0.0000 O   0  0  0  0  0  0  0  0  0  0  0  0
   10.0807   -8.8808    0.0000 C   0  0  0  0  0  0  0  0  0  0  0  0
  1  2  1  0  0  0  0
  2  3  2  0  0  0  0
  3  4  1  0  0  0  0
  4  5  2  0  0  0  0
  5  6  1  0  0  0  0
  1  6  2  0  0  0  0
  1  7  1  0  0  0  0
  3  8  1  0  0  0  0
  9 10  1  0  0  0  0
 10 11  2  0  0  0  0
 11 12  1  0  0  0  0
 11 13  1  0  0  0  0
  2  9  1  0  0  0  0
 14 15  1  0  0  0  0
 15 16  1  0  0  0  0
 16 17  1  0  0  0  0
 17 18  1  0  0  0  0
 18 19  2  0  0  0  0
 19 20  1  0  0  0  0
 20 21  2  0  0  0  0
 21 22  1  0  0  0  0
 17 22  2  0  0  0  0
 22 23  1  0  0  0  0
 14 23  1  0  0  0  0
 24 25  1  0  0  0  0
 25 26  1  0  0  0  0
 26 27  1  0  0  0  0
 24 19  1  0  0  0  0
 27 20  1  0  0  0  0
 14 28  1  0  0  0  0
 14 29  1  0  0  0  0
 30 31  1  0  0  0  0
 18 30  1  0  0  0  0
 25  4  1  6  0  0  0
M  END
>  <cdx:fragmentId>
20484

$$$$
