480819.cdx
  Mrv1902 05222410212D          

 42 49  0  0  0  0            999 V2000
    8.8157   -7.2373    0.0000 C   0  0  0  0  0  0  0  0  0  0  0  0
    9.5269   -6.8191    0.0000 O   0  0  0  0  0  0  0  0  0  0  0  0
   10.2446   -7.2259    0.0000 C   0  0  0  0  0  0  0  0  0  0  0  0
   10.9558   -6.8077    0.0000 C   0  0  0  0  0  0  0  0  0  0  0  0
   11.6735   -7.2145    0.0000 C   0  0  0  0  0  0  0  0  0  0  0  0
   11.6801   -8.0395    0.0000 C   0  0  0  0  0  0  0  0  0  0  0  0
   10.9690   -8.4577    0.0000 C   0  0  0  0  0  0  0  0  0  0  0  0
   10.2512   -8.0509    0.0000 C   0  0  0  0  0  0  0  0  0  0  0  0
    9.5401   -8.4691    0.0000 C   0  0  0  0  0  0  0  0  0  0  0  0
    9.5477   -9.2940    0.0000 C   0  0  0  0  0  0  0  0  0  0  0  0
    8.8364   -9.7120    0.0000 C   0  0  0  0  0  0  0  0  0  0  0  0
    8.1186   -9.3055    0.0000 C   0  0  0  0  0  0  0  0  0  0  0  0
    8.1112   -8.4805    0.0000 C   0  0  0  0  0  0  0  0  0  0  0  0
    7.3934   -8.0737    0.0000 C   0  0  0  0  0  0  0  0  0  0  0  0
    6.6823   -8.4919    0.0000 C   0  0  0  0  0  0  0  0  0  0  0  0
    5.9645   -8.0851    0.0000 C   0  0  0  0  0  0  0  0  0  0  0  0
    5.9579   -7.2601    0.0000 C   0  0  0  0  0  0  0  0  0  0  0  0
    6.6691   -6.8419    0.0000 C   0  0  0  0  0  0  0  0  0  0  0  0
    7.3868   -7.2487    0.0000 C   0  0  0  0  0  0  0  0  0  0  0  0
    8.0980   -6.8305    0.0000 O   0  0  0  0  0  0  0  0  0  0  0  0
    8.8223   -8.0623    0.0000 C   0  0  0  0  0  0  0  0  0  0  0  0
   12.3847   -6.7963    0.0000 O   0  0  0  0  0  0  0  0  0  0  0  0
    6.6889   -9.3169    0.0000 O   0  0  0  0  0  0  0  0  0  0  0  0
    8.8430  -10.5370    0.0000 C   0  0  0  0  0  0  0  0  0  0  0  0
    4.4892   -7.1949    0.0000 O   0  0  0  0  0  0  0  0  0  0  0  0
    5.2402   -6.8534    0.0000 C   0  0  0  0  0  0  0  0  0  0  0  0
    5.1474   -6.0336    0.0000 C   0  0  0  0  0  0  0  0  0  0  0  0
    4.3391   -5.8685    0.0000 C   0  0  0  0  0  0  0  0  0  0  0  0
    3.9323   -6.5863    0.0000 C   0  0  0  0  0  0  0  0  0  0  0  0
    3.1073   -6.5928    0.0000 C   0  0  0  0  0  0  0  0  0  0  0  0
    2.6892   -5.8817    0.0000 C   0  0  0  0  0  0  0  0  0  0  0  0
    3.0959   -5.1639    0.0000 C   0  0  0  0  0  0  0  0  0  0  0  0
    3.9209   -5.1574    0.0000 C   0  0  0  0  0  0  0  0  0  0  0  0
    1.8642   -5.8883    0.0000 O   0  0  0  0  0  0  0  0  0  0  0  0
   10.2380   -6.4009    0.0000 O   0  0  0  0  0  0  0  0  0  0  0  0
    8.7894   -3.9374    0.0000 O   0  0  0  0  0  0  0  0  0  0  0  0
    8.0914   -6.0056    0.0000 C   0  0  0  0  0  0  0  0  0  0  0  0
    8.0848   -5.1806    0.0000 C   0  0  0  0  0  0  0  0  0  0  0  0
    8.7960   -4.7624    0.0000 C   0  0  0  0  0  0  0  0  0  0  0  0
    9.5137   -5.1692    0.0000 C   0  0  0  0  0  0  0  0  0  0  0  0
    9.5203   -5.9942    0.0000 C   0  0  0  0  0  0  0  0  0  0  0  0
    8.8092   -6.4123    0.0000 C   0  0  0  0  0  0  0  0  0  0  0  0
 41 35  1  0  0  0  0
 39 36  1  0  0  0  0
 42 37  2  0  0  0  0
 38 37  1  0  0  0  0
 39 38  2  0  0  0  0
 40 39  1  0  0  0  0
 41 40  2  0  0  0  0
 42 41  1  0  0  0  0
  1  2  1  0  0  0  0
  2  3  1  0  0  0  0
  3  4  1  0  0  0  0
  4  5  2  0  0  0  0
  5  6  1  0  0  0  0
  6  7  2  0  0  0  0
  7  8  1  0  0  0  0
  8  9  1  0  0  0  0
  9 10  2  0  0  0  0
 10 11  1  0  0  0  0
 11 12  2  0  0  0  0
 12 13  1  0  0  0  0
 13 14  1  0  0  0  0
 14 15  2  0  0  0  0
 15 16  1  0  0  0  0
 16 17  2  0  0  0  0
 17 18  1  0  0  0  0
 18 19  2  0  0  0  0
 19 20  1  0  0  0  0
  1 20  1  0  0  0  0
  1 21  1  0  0  0  0
 13 21  2  0  0  0  0
  3  8  2  0  0  0  0
  9 21  1  0  0  0  0
 14 19  1  0  0  0  0
  5 22  1  0  0  0  0
 15 23  1  0  0  0  0
 11 24  1  0  0  0  0
 25 26  1  0  0  0  0
 26 27  2  0  0  0  0
 27 28  1  0  0  0  0
 28 29  1  0  0  0  0
 25 29  1  0  0  0  0
 30 31  1  0  0  0  0
 31 32  2  0  0  0  0
 32 33  1  0  0  0  0
 28 33  2  0  0  0  0
 29 30  2  0  0  0  0
 31 34  1  0  0  0  0
 17 26  1  0  0  0  0
  1 42  1  0  0  0  0
M  END
>  <cdx:fragmentId>
46146

$$$$
