5480966.cdx
  Mrv1902 05222410242D          

 37 42  0  0  0  0            999 V2000
    9.3363   -7.3679    0.0000 C   0  0  0  0  0  0  0  0  0  0  0  0
   10.0985   -7.0522    0.0000 C   0  0  0  0  0  0  0  0  0  0  0  0
   10.2062   -6.2342    0.0000 C   0  0  0  0  0  0  0  0  0  0  0  0
   10.9684   -5.9185    0.0000 C   0  0  0  0  0  0  0  0  0  0  0  0
   11.6229   -6.4207    0.0000 C   0  0  0  0  0  0  0  0  0  0  0  0
   11.5152   -7.2387    0.0000 C   0  0  0  0  0  0  0  0  0  0  0  0
   10.7530   -7.5544    0.0000 C   0  0  0  0  0  0  0  0  0  0  0  0
    9.2286   -8.1858    0.0000 O   0  0  0  0  0  0  0  0  0  0  0  0
    8.6818   -6.8656    0.0000 O   0  0  0  0  0  0  0  0  0  0  0  0
    5.9279   -7.1814    0.0000 C   0  0  0  0  0  0  0  0  0  0  0  0
    6.5112   -6.5980    0.0000 C   0  0  0  0  0  0  0  0  0  0  0  0
    6.0987   -5.8835    0.0000 C   0  0  0  0  0  0  0  0  0  0  0  0
    6.5112   -5.1690    0.0000 C   0  0  0  0  0  0  0  0  0  0  0  0
    6.2563   -4.3844    0.0000 O   0  0  0  0  0  0  0  0  0  0  0  0
    6.9237   -3.8995    0.0000 C   0  0  0  0  0  0  0  0  0  0  0  0
    7.5912   -4.3844    0.0000 O   0  0  0  0  0  0  0  0  0  0  0  0
    7.3362   -5.1690    0.0000 C   0  0  0  0  0  0  0  0  0  0  0  0
    7.7487   -5.8835    0.0000 C   0  0  0  0  0  0  0  0  0  0  0  0
    7.3362   -6.5980    0.0000 C   0  0  0  0  0  0  0  0  0  0  0  0
    7.9196   -7.1814    0.0000 C   0  0  0  0  0  0  0  0  0  0  0  0
    7.9196   -8.0064    0.0000 C   0  0  1  0  0  0  0  0  0  0  0  0
    7.3362   -8.5897    0.0000 C   0  0  2  0  0  0  0  0  0  0  0  0
    6.5112   -8.5897    0.0000 C   0  0  0  0  0  0  0  0  0  0  0  0
    5.9279   -8.0064    0.0000 C   0  0  0  0  0  0  0  0  0  0  0  0
    5.2134   -8.4189    0.0000 C   0  0  0  0  0  0  0  0  0  0  0  0
    4.4989   -8.0064    0.0000 C   0  0  0  0  0  0  0  0  0  0  0  0
    3.7143   -8.2613    0.0000 O   0  0  0  0  0  0  0  0  0  0  0  0
    3.2294   -7.5939    0.0000 C   0  0  0  0  0  0  0  0  0  0  0  0
    3.7143   -6.9264    0.0000 O   0  0  0  0  0  0  0  0  0  0  0  0
    4.4989   -7.1814    0.0000 C   0  0  0  0  0  0  0  0  0  0  0  0
    5.2134   -6.7689    0.0000 C   0  0  0  0  0  0  0  0  0  0  0  0
    7.6520   -9.3519    0.0000 C   0  0  0  0  0  0  0  0  0  0  0  0
    8.6818   -8.3221    0.0000 C   0  0  0  0  0  0  0  0  0  0  0  0
    4.9312   -5.9936    0.0000 O   0  0  0  0  0  0  0  0  0  0  0  0
    4.1188   -5.8503    0.0000 C   0  0  0  0  0  0  0  0  0  0  0  0
    5.3235   -5.6014    0.0000 O   0  0  0  0  0  0  0  0  0  0  0  0
    5.1802   -4.7889    0.0000 C   0  0  0  0  0  0  0  0  0  0  0  0
  1  2  1  0  0  0  0
  2  3  1  0  0  0  0
  3  4  2  0  0  0  0
  4  5  1  0  0  0  0
  5  6  2  0  0  0  0
  6  7  1  0  0  0  0
  2  7  2  0  0  0  0
  1  8  2  0  0  0  0
  1  9  1  0  0  0  0
 10 11  1  0  0  0  0
 11 12  2  0  0  0  0
 12 13  1  0  0  0  0
 13 14  1  0  0  0  0
 14 15  1  0  0  0  0
 15 16  1  0  0  0  0
 16 17  1  0  0  0  0
 17 18  1  0  0  0  0
 18 19  2  0  0  0  0
 19 20  1  0  0  0  0
 20 21  1  0  0  0  0
 21 22  1  0  0  0  0
 22 23  1  0  0  0  0
 23 24  1  0  0  0  0
 24 25  2  0  0  0  0
 25 26  1  0  0  0  0
 26 27  1  0  0  0  0
 27 28  1  0  0  0  0
 28 29  1  0  0  0  0
 29 30  1  0  0  0  0
 30 31  1  0  0  0  0
 10 31  2  0  0  0  0
 10 24  1  0  0  0  0
 26 30  2  0  0  0  0
 11 19  1  0  0  0  0
 13 17  2  0  0  0  0
 22 32  1  1  0  0  0
 21 33  1  6  0  0  0
 34 35  1  0  0  0  0
 31 34  1  0  0  0  0
 36 37  1  0  0  0  0
 12 36  1  0  0  0  0
  9 20  1  0  0  0  0
M  END
>  <cdx:groupId>
118

>  <cdx:fragmentId>
23

$$$$
