4811.cdx
  Mrv1902 05222410242D          

 35 39  0  0  0  0            999 V2000
    4.9945  -10.0444    0.0000 C   0  0  0  0  0  0  0  0  0  0  0  0
    4.9945  -10.8694    0.0000 C   0  0  0  0  0  0  0  0  0  0  0  0
    5.7090  -11.2819    0.0000 C   0  0  0  0  0  0  0  0  0  0  0  0
    6.4235  -10.8694    0.0000 C   0  0  0  0  0  0  0  0  0  0  0  0
    6.4235  -10.0444    0.0000 C   0  0  0  0  0  0  0  0  0  0  0  0
    5.7090   -9.6319    0.0000 C   0  0  0  0  0  0  0  0  0  0  0  0
    7.1379  -11.2819    0.0000 O   0  0  0  0  0  0  0  0  0  0  0  0
    7.8524  -10.8694    0.0000 C   0  0  0  0  0  0  0  0  0  0  0  0
    7.8524  -10.0444    0.0000 C   0  0  0  0  0  0  0  0  0  0  0  0
    7.1379   -9.6319    0.0000 N   0  0  0  0  0  0  0  0  0  0  0  0
    5.7090  -12.1069    0.0000 O   0  0  0  0  0  0  0  0  0  0  0  0
    4.9945  -12.5194    0.0000 C   0  0  0  0  0  0  0  0  0  0  0  0
    8.3400  -10.5806    0.0000 H   0  0  0  0  0  0  0  0  0  0  0  0
    8.5669   -9.6319    0.0000 O   0  0  0  0  0  0  0  0  0  0  0  0
    7.9580   -7.1710    0.0000 C   0  0  0  0  0  0  0  0  0  0  0  0
    7.7544   -8.1976    0.0000 C   0  0  0  0  0  0  0  0  0  0  0  0
    7.4545   -6.2574    0.0000 C   0  0  0  0  0  0  0  0  0  0  0  0
    6.4795   -5.8764    0.0000 C   0  0  0  0  0  0  0  0  0  0  0  0
    5.4930   -6.2154    0.0000 N   0  0  0  0  0  0  0  0  0  0  0  0
    4.9418   -7.1027    0.0000 C   0  0  0  0  0  0  0  0  0  0  0  0
    5.0954   -8.1368    0.0000 C   0  0  0  0  0  0  0  0  0  0  0  0
    5.8805   -8.8249    0.0000 C   0  0  0  0  0  0  0  0  0  0  0  0
    6.9244   -8.8350    0.0000 C   0  0  0  0  0  0  0  0  0  0  0  0
    4.9096   -5.6320    0.0000 C   0  0  0  0  0  0  0  0  0  0  0  0
    4.4221   -5.7630    0.0000 H   0  0  0  0  0  0  0  0  0  0  0  0
    5.1231   -4.8351    0.0000 C   0  0  0  0  0  0  0  0  0  0  0  0
    8.6678   -8.7085    0.0000 O   0  0  0  0  0  0  0  0  0  0  0  0
    9.4360   -7.9977    0.0000 C   0  0  0  0  0  0  0  0  0  0  0  0
    8.9973   -7.0474    0.0000 C   0  0  0  0  0  0  0  0  0  0  0  0
    8.2467   -6.6834    0.0000 H   0  0  0  0  0  0  0  0  0  0  0  0
    7.7544   -8.7751    0.0000 H   0  0  0  0  0  0  0  0  0  0  0  0
   10.2328   -8.2112    0.0000 C   0  0  0  0  0  0  0  0  0  0  0  0
    9.4098   -6.3330    0.0000 O   0  0  0  0  0  0  0  0  0  0  0  0
    9.5954   -7.0474    0.0000 H   0  0  0  0  0  0  0  0  0  0  0  0
    9.5876   -8.5264    0.0000 H   0  0  0  0  0  0  0  0  0  0  0  0
  1  2  2  0  0  0  0
  2  3  1  0  0  0  0
  3  4  2  0  0  0  0
  4  5  1  0  0  0  0
  5  6  2  0  0  0  0
  6  1  1  0  0  0  0
 22  6  1  0  0  0  0
  4  7  1  0  0  0  0
  7  8  1  0  0  0  0
  8  9  1  0  0  0  0
  9 10  1  0  0  0  0
 10  5  1  0  0  0  0
 10 23  1  0  0  0  0
  3 11  1  0  0  0  0
 11 12  1  0  0  0  0
  8 13  1  0  0  0  0
  9 14  2  0  0  0  0
 15 16  1  0  0  0  0
 15 17  1  0  0  0  0
 17 18  1  0  0  0  0
 18 19  1  0  0  0  0
 19 20  1  0  0  0  0
 20 21  1  0  0  0  0
 21 22  1  0  0  0  0
 22 23  2  0  0  0  0
 16 23  1  0  0  0  0
 19 24  1  0  0  0  0
 24 25  1  0  0  0  0
 24 26  2  0  0  0  0
 16 27  1  0  0  0  0
 27 28  1  0  0  0  0
 28 29  1  0  0  0  0
 29 15  1  0  0  0  0
 15 30  1  0  0  0  0
 16 31  1  0  0  0  0
 28 32  1  0  0  0  0
 29 33  1  0  0  0  0
 29 34  1  0  0  0  0
 28 35  1  0  0  0  0
M  END
>  <cdx:groupId>
738

>  <cdx:fragmentId>
739

$$$$
