11481130.cdx
  Mrv1902 05222410202D          

 17 18  0  0  0  0            999 V2000
    2.5294   -5.0160    0.0000 C   0  0  0  0  0  0  0  0  0  0  0  0
    2.5294   -5.8410    0.0000 C   0  0  2  0  0  0  0  0  0  0  0  0
    3.2439   -6.2535    0.0000 C   0  0  1  0  0  0  0  0  0  0  0  0
    3.9584   -5.8410    0.0000 C   0  0  1  0  0  0  0  0  0  0  0  0
    3.9584   -5.0160    0.0000 C   0  0  0  0  0  0  0  0  0  0  0  0
    3.2439   -4.6035    0.0000 C   0  0  0  0  0  0  0  0  0  0  0  0
    3.2439   -7.0785    0.0000 C   0  0  0  0  0  0  0  0  0  0  0  0
    3.9584   -7.4910    0.0000 C   0  0  0  0  0  0  0  0  0  0  0  0
    4.6728   -7.0785    0.0000 C   0  0  0  0  0  0  0  0  0  0  0  0
    4.6728   -6.2535    0.0000 C   0  0  0  0  0  0  0  0  0  0  0  0
    1.8150   -4.6035    0.0000 O   0  0  0  0  0  0  0  0  0  0  0  0
    2.5294   -7.4910    0.0000 C   0  0  0  0  0  0  0  0  0  0  0  0
    3.2439   -7.9035    0.0000 C   0  0  0  0  0  0  0  0  0  0  0  0
    3.2439   -5.4285    0.0000 C   0  0  0  0  0  0  0  0  0  0  0  0
    4.6728   -5.4285    0.0000 C   0  0  0  0  0  0  0  0  0  0  0  0
    1.8150   -6.2535    0.0000 C   0  0  0  0  0  0  0  0  0  0  0  0
    1.8150   -5.4285    0.0000 H   0  0  0  0  0  0  0  0  0  0  0  0
  1  2  1  0  0  0  0
  2  3  1  0  0  0  0
  3  4  1  0  0  0  0
  4  5  1  0  0  0  0
  5  6  2  0  0  0  0
  6  1  1  0  0  0  0
  3  7  1  0  0  0  0
  7  8  1  0  0  0  0
  8  9  1  0  0  0  0
  9 10  1  0  0  0  0
 10  4  1  0  0  0  0
  1 11  2  0  0  0  0
  7 12  1  0  0  0  0
  7 13  1  0  0  0  0
  3 14  1  6  0  0  0
  4 15  1  6  0  0  0
  2 16  1  0  0  0  0
  2 17  1  1  0  0  0
M  END
>  <cdx:fragmentId>
785

$$$$
