5481217.cdx
  Mrv1902 05222410272D          

 31 34  0  0  0  0            999 V2000
    7.6007   -8.2824    0.0000 C   0  0  0  0  0  0  0  0  0  0  0  0
    7.6007   -7.4574    0.0000 C   0  0  0  0  0  0  0  0  0  0  0  0
    6.8863   -7.0449    0.0000 C   0  0  0  0  0  0  0  0  0  0  0  0
    6.1718   -7.4574    0.0000 C   0  0  0  0  0  0  0  0  0  0  0  0
    5.4573   -7.0449    0.0000 C   0  0  0  0  0  0  0  0  0  0  0  0
    4.7429   -7.4574    0.0000 C   0  0  0  0  0  0  0  0  0  0  0  0
    4.7429   -8.2824    0.0000 C   0  0  0  0  0  0  0  0  0  0  0  0
    5.4573   -8.6949    0.0000 C   0  0  0  0  0  0  0  0  0  0  0  0
    6.1718   -8.2824    0.0000 C   0  0  0  0  0  0  0  0  0  0  0  0
    6.8863   -8.6949    0.0000 O   0  0  0  0  0  0  0  0  0  0  0  0
    6.8863   -6.2199    0.0000 O   0  0  0  0  0  0  0  0  0  0  0  0
    8.3152   -7.0449    0.0000 O   0  0  0  0  0  0  0  0  0  0  0  0
    7.6007   -5.8074    0.0000 O   0  0  0  0  0  0  0  0  0  0  0  0
    8.3152   -6.2199    0.0000 C   0  0  2  0  0  0  0  0  0  0  0  0
    9.0297   -5.8074    0.0000 C   0  0  2  0  0  0  0  0  0  0  0  0
    9.0297   -4.9824    0.0000 C   0  0  2  0  0  0  0  0  0  0  0  0
    8.3152   -4.5699    0.0000 C   0  0  1  0  0  0  0  0  0  0  0  0
    7.6007   -4.9824    0.0000 C   0  0  0  0  0  0  0  0  0  0  0  0
    8.3152   -3.7449    0.0000 O   0  0  0  0  0  0  0  0  0  0  0  0
    9.7441   -4.5699    0.0000 O   0  0  0  0  0  0  0  0  0  0  0  0
    9.7441   -6.2199    0.0000 O   0  0  0  0  0  0  0  0  0  0  0  0
    4.0284   -8.6949    0.0000 O   0  0  0  0  0  0  0  0  0  0  0  0
    5.4573   -6.2199    0.0000 O   0  0  0  0  0  0  0  0  0  0  0  0
    8.3152   -8.6949    0.0000 C   0  0  0  0  0  0  0  0  0  0  0  0
    9.0297   -8.2824    0.0000 C   0  0  0  0  0  0  0  0  0  0  0  0
    9.7441   -8.6949    0.0000 C   0  0  0  0  0  0  0  0  0  0  0  0
    9.7441   -9.5199    0.0000 C   0  0  0  0  0  0  0  0  0  0  0  0
    9.0297   -9.9324    0.0000 C   0  0  0  0  0  0  0  0  0  0  0  0
    8.3152   -9.5199    0.0000 C   0  0  0  0  0  0  0  0  0  0  0  0
   10.4586   -9.9324    0.0000 O   0  0  0  0  0  0  0  0  0  0  0  0
   10.4586   -8.2824    0.0000 O   0  0  0  0  0  0  0  0  0  0  0  0
  1  2  2  0  0  0  0
  2  3  1  0  0  0  0
  3  4  1  0  0  0  0
  4  5  1  0  0  0  0
  5  6  2  0  0  0  0
  6  7  1  0  0  0  0
  7  8  2  0  0  0  0
  8  9  1  0  0  0  0
  4  9  2  0  0  0  0
  9 10  1  0  0  0  0
  1 10  1  0  0  0  0
  3 11  2  0  0  0  0
 13 14  1  0  0  0  0
 14 15  1  0  0  0  0
 15 16  1  0  0  0  0
 16 17  1  0  0  0  0
 17 18  1  0  0  0  0
 13 18  1  0  0  0  0
 17 19  1  1  0  0  0
 16 20  1  6  0  0  0
 15 21  1  6  0  0  0
 14 12  1  6  0  0  0
  2 12  1  0  0  0  0
  7 22  1  0  0  0  0
  5 23  1  0  0  0  0
 24 25  1  0  0  0  0
 25 26  2  0  0  0  0
 26 27  1  0  0  0  0
 27 28  2  0  0  0  0
 28 29  1  0  0  0  0
 24 29  2  0  0  0  0
 27 30  1  0  0  0  0
 26 31  1  0  0  0  0
  1 24  1  0  0  0  0
M  END
>  <cdx:groupId>
2667

>  <cdx:fragmentId>
2574

$$$$
