5481234.cdx
  Mrv1902 05222410202D          

 26 29  0  0  0  0            999 V2000
    6.9839   -7.9617    0.0000 C   0  0  0  0  0  0  0  0  0  0  0  0
    6.9839   -7.1367    0.0000 C   0  0  0  0  0  0  0  0  0  0  0  0
    6.2695   -6.7242    0.0000 C   0  0  0  0  0  0  0  0  0  0  0  0
    5.5550   -7.1367    0.0000 C   0  0  0  0  0  0  0  0  0  0  0  0
    4.8405   -6.7242    0.0000 C   0  0  0  0  0  0  0  0  0  0  0  0
    4.1260   -7.1367    0.0000 C   0  0  0  0  0  0  0  0  0  0  0  0
    4.1260   -7.9617    0.0000 C   0  0  0  0  0  0  0  0  0  0  0  0
    4.8405   -8.3742    0.0000 C   0  0  0  0  0  0  0  0  0  0  0  0
    5.5550   -7.9617    0.0000 C   0  0  0  0  0  0  0  0  0  0  0  0
    6.2695   -8.3742    0.0000 O   0  0  0  0  0  0  0  0  0  0  0  0
    6.2695   -5.8992    0.0000 O   0  0  0  0  0  0  0  0  0  0  0  0
   10.5563   -5.8992    0.0000 C   0  0  0  0  0  0  0  0  0  0  0  0
   10.5563   -6.7242    0.0000 C   0  0  0  0  0  0  0  0  0  0  0  0
    9.8418   -7.1367    0.0000 C   0  0  0  0  0  0  0  0  0  0  0  0
    9.1273   -6.7242    0.0000 C   0  0  0  0  0  0  0  0  0  0  0  0
    8.4129   -7.1367    0.0000 C   0  0  0  0  0  0  0  0  0  0  0  0
    7.6984   -6.7242    0.0000 C   0  0  0  0  0  0  0  0  0  0  0  0
    7.6984   -5.8992    0.0000 C   0  0  0  0  0  0  0  0  0  0  0  0
    8.4129   -5.4867    0.0000 C   0  0  0  0  0  0  0  0  0  0  0  0
    9.1273   -5.8992    0.0000 C   0  0  0  0  0  0  0  0  0  0  0  0
    9.8418   -5.4867    0.0000 O   0  0  0  0  0  0  0  0  0  0  0  0
   10.9688   -5.1847    0.0000 C   0  0  0  0  0  0  0  0  0  0  0  0
   11.3813   -5.8992    0.0000 C   0  0  0  0  0  0  0  0  0  0  0  0
    8.4129   -7.9617    0.0000 O   0  0  0  0  0  0  0  0  0  0  0  0
    3.4116   -8.3742    0.0000 O   0  0  0  0  0  0  0  0  0  0  0  0
    4.8405   -5.8992    0.0000 O   0  0  0  0  0  0  0  0  0  0  0  0
  1  2  2  0  0  0  0
  2  3  1  0  0  0  0
  3  4  1  0  0  0  0
  4  5  1  0  0  0  0
  5  6  2  0  0  0  0
  6  7  1  0  0  0  0
  7  8  2  0  0  0  0
  8  9  1  0  0  0  0
  4  9  2  0  0  0  0
  9 10  1  0  0  0  0
  1 10  1  0  0  0  0
  3 11  2  0  0  0  0
 12 13  1  0  0  0  0
 13 14  2  0  0  0  0
 14 15  1  0  0  0  0
 15 16  1  0  0  0  0
 16 17  2  0  0  0  0
 17 18  1  0  0  0  0
 18 19  2  0  0  0  0
 19 20  1  0  0  0  0
 15 20  2  0  0  0  0
 20 21  1  0  0  0  0
 12 21  1  0  0  0  0
 12 22  1  0  0  0  0
 12 23  1  0  0  0  0
 16 24  1  0  0  0  0
  2 17  1  0  0  0  0
  7 25  1  0  0  0  0
  5 26  1  0  0  0  0
M  END
>  <cdx:fragmentId>
2700

$$$$
