481225.cdx
  Mrv1902 05222410182D          

 31 34  0  0  0  0            999 V2000
   10.6401   -3.5469    0.0000 O   0  0  0  0  0  0  0  0  0  0  0  0
    8.4967   -3.9594    0.0000 C   0  0  0  0  0  0  0  0  0  0  0  0
    9.2112   -3.5469    0.0000 C   0  0  0  0  0  0  0  0  0  0  0  0
    9.9256   -3.9594    0.0000 C   0  0  0  0  0  0  0  0  0  0  0  0
    9.9256   -4.7844    0.0000 C   0  0  0  0  0  0  0  0  0  0  0  0
    9.2112   -5.1969    0.0000 C   0  0  0  0  0  0  0  0  0  0  0  0
    8.4967   -4.7844    0.0000 C   0  0  0  0  0  0  0  0  0  0  0  0
    5.6388   -7.2594    0.0000 O   0  0  0  0  0  0  0  0  0  0  0  0
    4.2099   -4.7844    0.0000 O   0  0  0  0  0  0  0  0  0  0  0  0
    8.4967   -7.2594    0.0000 C   0  0  2  0  0  0  0  0  0  0  0  0
    8.4967   -6.4344    0.0000 O   0  0  0  0  0  0  0  0  0  0  0  0
    7.0678   -7.2594    0.0000 O   0  0  0  0  0  0  0  0  0  0  0  0
    7.0678   -4.7844    0.0000 O   0  0  0  0  0  0  0  0  0  0  0  0
    6.3533   -5.1969    0.0000 C   0  0  0  0  0  0  0  0  0  0  0  0
    5.6388   -4.7844    0.0000 C   0  0  0  0  0  0  0  0  0  0  0  0
    4.9244   -5.1969    0.0000 C   0  0  0  0  0  0  0  0  0  0  0  0
    4.9244   -6.0219    0.0000 C   0  0  0  0  0  0  0  0  0  0  0  0
    5.6388   -6.4344    0.0000 C   0  0  0  0  0  0  0  0  0  0  0  0
    6.3533   -6.0219    0.0000 C   0  0  0  0  0  0  0  0  0  0  0  0
    7.0678   -6.4344    0.0000 C   0  0  0  0  0  0  0  0  0  0  0  0
    7.7822   -6.0219    0.0000 C   0  0  0  0  0  0  0  0  0  0  0  0
    7.7822   -5.1969    0.0000 C   0  0  0  0  0  0  0  0  0  0  0  0
    9.2112   -2.7219    0.0000 O   0  0  0  0  0  0  0  0  0  0  0  0
    7.8293   -7.7443    0.0000 O   0  0  0  0  0  0  0  0  0  0  0  0
    8.0842   -8.5290    0.0000 C   0  0  2  0  0  0  0  0  0  0  0  0
    8.9092   -8.5290    0.0000 C   0  0  1  0  0  0  0  0  0  0  0  0
    9.1641   -7.7443    0.0000 C   0  0  1  0  0  0  0  0  0  0  0  0
    9.9488   -7.4894    0.0000 O   0  0  0  0  0  0  0  0  0  0  0  0
    9.3941   -9.1964    0.0000 O   0  0  0  0  0  0  0  0  0  0  0  0
    7.5993   -9.1964    0.0000 C   0  0  0  0  0  0  0  0  0  0  0  0
    7.9348   -9.9501    0.0000 O   0  0  0  0  0  0  0  0  0  0  0  0
 22  7  1  0  0  0  0
  4  1  1  0  0  0  0
  7  2  2  0  0  0  0
  3  2  1  0  0  0  0
  4  3  2  0  0  0  0
  5  4  1  0  0  0  0
  6  5  2  0  0  0  0
  7  6  1  0  0  0  0
 18  8  1  0  0  0  0
 16  9  1  0  0  0  0
 21 11  1  0  0  0  0
 10 11  1  1  0  0  0
 20 12  2  0  0  0  0
 22 13  1  0  0  0  0
 14 13  1  0  0  0  0
 19 14  2  0  0  0  0
 15 14  1  0  0  0  0
 16 15  2  0  0  0  0
 17 16  1  0  0  0  0
 18 17  2  0  0  0  0
 19 18  1  0  0  0  0
 20 19  1  0  0  0  0
 21 20  1  0  0  0  0
 22 21  2  0  0  0  0
  3 23  1  0  0  0  0
 10 24  1  0  0  0  0
 24 25  1  0  0  0  0
 25 26  1  0  0  0  0
 26 27  1  0  0  0  0
 27 10  1  0  0  0  0
 27 28  1  6  0  0  0
 26 29  1  1  0  0  0
 25 30  1  6  0  0  0
 30 31  1  0  0  0  0
M  END
>  <cdx:fragmentId>
5

$$$$
