481235.cdx
  Mrv1902 05222410202D          

 31 34  0  0  0  0            999 V2000
    7.9061   -7.9617    0.0000 C   0  0  0  0  0  0  0  0  0  0  0  0
    7.9061   -7.1367    0.0000 C   0  0  0  0  0  0  0  0  0  0  0  0
    7.1917   -6.7242    0.0000 C   0  0  0  0  0  0  0  0  0  0  0  0
    6.4772   -7.1367    0.0000 C   0  0  0  0  0  0  0  0  0  0  0  0
    5.7627   -6.7242    0.0000 C   0  0  0  0  0  0  0  0  0  0  0  0
    5.0483   -7.1367    0.0000 C   0  0  0  0  0  0  0  0  0  0  0  0
    5.0483   -7.9617    0.0000 C   0  0  0  0  0  0  0  0  0  0  0  0
    5.7627   -8.3742    0.0000 C   0  0  0  0  0  0  0  0  0  0  0  0
    6.4772   -7.9617    0.0000 C   0  0  0  0  0  0  0  0  0  0  0  0
    7.1917   -8.3742    0.0000 O   0  0  0  0  0  0  0  0  0  0  0  0
    7.1917   -5.8992    0.0000 O   0  0  0  0  0  0  0  0  0  0  0  0
    4.3338   -6.7242    0.0000 C   0  0  0  0  0  0  0  0  0  0  0  0
    3.6193   -7.1367    0.0000 C   0  0  0  0  0  0  0  0  0  0  0  0
    2.9048   -6.7242    0.0000 C   0  0  0  0  0  0  0  0  0  0  0  0
    2.9048   -5.8992    0.0000 C   0  0  0  0  0  0  0  0  0  0  0  0
    2.1904   -7.1367    0.0000 C   0  0  0  0  0  0  0  0  0  0  0  0
   11.4785   -5.8992    0.0000 C   0  0  0  0  0  0  0  0  0  0  0  0
   11.4785   -6.7242    0.0000 C   0  0  0  0  0  0  0  0  0  0  0  0
   10.7640   -7.1367    0.0000 C   0  0  0  0  0  0  0  0  0  0  0  0
   10.0496   -6.7242    0.0000 C   0  0  0  0  0  0  0  0  0  0  0  0
    9.3351   -7.1367    0.0000 C   0  0  0  0  0  0  0  0  0  0  0  0
    8.6206   -6.7242    0.0000 C   0  0  0  0  0  0  0  0  0  0  0  0
    8.6206   -5.8992    0.0000 C   0  0  0  0  0  0  0  0  0  0  0  0
    9.3351   -5.4867    0.0000 C   0  0  0  0  0  0  0  0  0  0  0  0
   10.0496   -5.8992    0.0000 C   0  0  0  0  0  0  0  0  0  0  0  0
   10.7640   -5.4867    0.0000 O   0  0  0  0  0  0  0  0  0  0  0  0
   11.8910   -5.1847    0.0000 C   0  0  0  0  0  0  0  0  0  0  0  0
   12.3035   -5.8992    0.0000 C   0  0  0  0  0  0  0  0  0  0  0  0
    9.3351   -7.9617    0.0000 O   0  0  0  0  0  0  0  0  0  0  0  0
    4.3338   -8.3742    0.0000 O   0  0  0  0  0  0  0  0  0  0  0  0
    5.7627   -5.8992    0.0000 O   0  0  0  0  0  0  0  0  0  0  0  0
  1  2  2  0  0  0  0
  2  3  1  0  0  0  0
  3  4  1  0  0  0  0
  4  5  1  0  0  0  0
  5  6  2  0  0  0  0
  6  7  1  0  0  0  0
  7  8  2  0  0  0  0
  8  9  1  0  0  0  0
  4  9  2  0  0  0  0
  9 10  1  0  0  0  0
  1 10  1  0  0  0  0
  3 11  2  0  0  0  0
 12 13  1  0  0  0  0
 13 14  2  0  0  0  0
 14 15  1  0  0  0  0
 14 16  1  0  0  0  0
  6 12  1  0  0  0  0
 17 18  1  0  0  0  0
 18 19  2  0  0  0  0
 19 20  1  0  0  0  0
 20 21  1  0  0  0  0
 21 22  2  0  0  0  0
 22 23  1  0  0  0  0
 23 24  2  0  0  0  0
 24 25  1  0  0  0  0
 20 25  2  0  0  0  0
 25 26  1  0  0  0  0
 17 26  1  0  0  0  0
 17 27  1  0  0  0  0
 17 28  1  0  0  0  0
 21 29  1  0  0  0  0
  2 22  1  0  0  0  0
  7 30  1  0  0  0  0
  5 31  1  0  0  0  0
M  END
>  <cdx:fragmentId>
2767

$$$$
