5481237.cdx
  Mrv1902 05222410192D          

 32 34  0  0  0  0            999 V2000
    5.9640   -6.4538    0.0000 C   0  0  0  0  0  0  0  0  0  0  0  0
    5.9640   -5.6288    0.0000 C   0  0  0  0  0  0  0  0  0  0  0  0
    6.6785   -5.2163    0.0000 C   0  0  0  0  0  0  0  0  0  0  0  0
    7.3930   -5.6288    0.0000 C   0  0  0  0  0  0  0  0  0  0  0  0
    8.1075   -5.2163    0.0000 C   0  0  0  0  0  0  0  0  0  0  0  0
    8.8219   -5.6288    0.0000 C   0  0  0  0  0  0  0  0  0  0  0  0
    8.8219   -6.4538    0.0000 C   0  0  0  0  0  0  0  0  0  0  0  0
    8.1075   -6.8663    0.0000 C   0  0  0  0  0  0  0  0  0  0  0  0
    7.3930   -6.4538    0.0000 C   0  0  0  0  0  0  0  0  0  0  0  0
    6.6785   -6.8663    0.0000 O   0  0  0  0  0  0  0  0  0  0  0  0
    6.6785   -4.3913    0.0000 O   0  0  0  0  0  0  0  0  0  0  0  0
    8.1075   -7.6913    0.0000 C   0  0  0  0  0  0  0  0  0  0  0  0
    8.8219   -8.1038    0.0000 C   0  0  1  0  0  0  0  0  0  0  0  0
    9.5364   -7.6913    0.0000 C   0  0  0  0  0  0  0  0  0  0  0  0
   10.2509   -8.1038    0.0000 C   0  0  0  0  0  0  0  0  0  0  0  0
   10.9653   -7.6913    0.0000 C   0  0  0  0  0  0  0  0  0  0  0  0
   10.9653   -6.8663    0.0000 C   0  0  0  0  0  0  0  0  0  0  0  0
    9.5364   -9.3413    0.0000 C   0  0  0  0  0  0  0  0  0  0  0  0
    8.8219   -8.9288    0.0000 C   0  0  0  0  0  0  0  0  0  0  0  0
    8.1075   -9.3413    0.0000 C   0  0  0  0  0  0  0  0  0  0  0  0
   11.6798   -8.1038    0.0000 C   0  0  0  0  0  0  0  0  0  0  0  0
    9.5364   -6.8663    0.0000 O   0  0  0  0  0  0  0  0  0  0  0  0
    8.1075   -4.3913    0.0000 O   0  0  0  0  0  0  0  0  0  0  0  0
    5.2496   -5.2163    0.0000 O   0  0  0  0  0  0  0  0  0  0  0  0
    5.2496   -6.8663    0.0000 C   0  0  0  0  0  0  0  0  0  0  0  0
    5.2496   -7.6913    0.0000 C   0  0  0  0  0  0  0  0  0  0  0  0
    4.5351   -8.1038    0.0000 C   0  0  0  0  0  0  0  0  0  0  0  0
    3.8206   -7.6913    0.0000 C   0  0  0  0  0  0  0  0  0  0  0  0
    3.8206   -6.8663    0.0000 C   0  0  0  0  0  0  0  0  0  0  0  0
    4.5351   -6.4538    0.0000 C   0  0  0  0  0  0  0  0  0  0  0  0
    3.1062   -8.1038    0.0000 O   0  0  0  0  0  0  0  0  0  0  0  0
    5.9640   -8.1038    0.0000 O   0  0  0  0  0  0  0  0  0  0  0  0
  1  2  2  0  0  0  0
  2  3  1  0  0  0  0
  3  4  1  0  0  0  0
  4  5  1  0  0  0  0
  5  6  2  0  0  0  0
  6  7  1  0  0  0  0
  7  8  2  0  0  0  0
  8  9  1  0  0  0  0
  4  9  2  0  0  0  0
  9 10  1  0  0  0  0
  1 10  1  0  0  0  0
  3 11  2  0  0  0  0
 12 13  1  0  0  0  0
 13 14  1  0  0  0  0
 14 15  1  0  0  0  0
 15 16  2  0  0  0  0
 16 17  1  0  0  0  0
 18 19  2  0  0  0  0
 19 20  1  0  0  0  0
 13 19  1  1  0  0  0
 16 21  1  0  0  0  0
  8 12  1  0  0  0  0
  7 22  1  0  0  0  0
  5 23  1  0  0  0  0
  2 24  1  0  0  0  0
 25 26  1  0  0  0  0
 26 27  2  0  0  0  0
 27 28  1  0  0  0  0
 28 29  2  0  0  0  0
 29 30  1  0  0  0  0
 25 30  2  0  0  0  0
 28 31  1  0  0  0  0
 26 32  1  0  0  0  0
  1 25  1  0  0  0  0
M  END
>  <cdx:groupId>
2966

>  <cdx:fragmentId>
2871

$$$$
