4813.cdx
  Mrv1902 05222410232D          

 18 19  0  0  0  0            999 V2000
    9.5166   -5.9727    0.0000 C   0  0  0  0  0  0  0  0  0  0  0  0
    9.5234   -6.7976    0.0000 C   0  0  0  0  0  0  0  0  0  0  0  0
    8.8123   -7.2160    0.0000 C   0  0  0  0  0  0  0  0  0  0  0  0
    8.0945   -6.8094    0.0000 C   0  0  0  0  0  0  0  0  0  0  0  0
    8.0877   -5.9844    0.0000 C   0  0  0  0  0  0  0  0  0  0  0  0
    8.7988   -5.5660    0.0000 C   0  0  0  0  0  0  0  0  0  0  0  0
   10.2277   -5.5543    0.0000 O   0  0  0  0  0  0  0  0  0  0  0  0
   10.2412   -7.2042    0.0000 O   0  0  0  0  0  0  0  0  0  0  0  0
    7.3835   -7.2277    0.0000 C   0  0  0  0  0  0  0  0  0  0  0  0
    6.6656   -6.8211    0.0000 C   0  0  0  0  0  0  0  0  0  0  0  0
    5.9546   -7.2394    0.0000 C   0  0  0  0  0  0  0  0  0  0  0  0
    5.9613   -8.0644    0.0000 C   0  0  0  0  0  0  0  0  0  0  0  0
    5.2503   -8.4828    0.0000 C   0  0  0  0  0  0  0  0  0  0  0  0
    4.5324   -8.0761    0.0000 C   0  0  0  0  0  0  0  0  0  0  0  0
    4.5257   -7.2512    0.0000 C   0  0  0  0  0  0  0  0  0  0  0  0
    5.2367   -6.8328    0.0000 C   0  0  0  0  0  0  0  0  0  0  0  0
    3.8078   -6.8445    0.0000 O   0  0  0  0  0  0  0  0  0  0  0  0
    5.2570   -9.3077    0.0000 O   0  0  0  0  0  0  0  0  0  0  0  0
  1  2  1  0  0  0  0
  2  3  2  0  0  0  0
  3  4  1  0  0  0  0
  4  5  2  0  0  0  0
  5  6  1  0  0  0  0
  1  6  2  0  0  0  0
  1  7  1  0  0  0  0
  2  8  1  0  0  0  0
  9 10  2  0  0  0  0
 11 12  1  0  0  0  0
 12 13  2  0  0  0  0
 13 14  1  0  0  0  0
 14 15  2  0  0  0  0
 15 16  1  0  0  0  0
 11 16  2  0  0  0  0
 15 17  1  0  0  0  0
 13 18  1  0  0  0  0
 10 11  1  0  0  0  0
  4  9  1  0  0  0  0
M  END
>  <cdx:fragmentId>
25

$$$$
