4816.cdx
  Mrv1902 05222410252D          

 27 30  0  0  0  0            999 V2000
    5.0977   -9.5861    0.0000 C   0  0  0  0  0  0  0  0  0  0  0  0
    5.0977   -8.7611    0.0000 C   0  0  0  0  0  0  0  0  0  0  0  0
    5.8121   -8.3486    0.0000 C   0  0  0  0  0  0  0  0  0  0  0  0
    6.5266   -8.7611    0.0000 C   0  0  0  0  0  0  0  0  0  0  0  0
    6.5266   -9.5861    0.0000 C   0  0  0  0  0  0  0  0  0  0  0  0
    5.8121   -9.9986    0.0000 O   0  0  0  0  0  0  0  0  0  0  0  0
    7.2411   -8.3486    0.0000 C   0  0  0  0  0  0  0  0  0  0  0  0
    7.9555   -8.7611    0.0000 C   0  0  0  0  0  0  0  0  0  0  0  0
    7.9555   -9.5861    0.0000 C   0  0  0  0  0  0  0  0  0  0  0  0
    7.2411   -9.9986    0.0000 C   0  0  0  0  0  0  0  0  0  0  0  0
    8.6700   -8.3486    0.0000 C   0  0  0  0  0  0  0  0  0  0  0  0
    9.3845   -8.7611    0.0000 C   0  0  0  0  0  0  0  0  0  0  0  0
    9.3845   -9.5861    0.0000 C   0  0  0  0  0  0  0  0  0  0  0  0
    8.6700   -9.9986    0.0000 O   0  0  0  0  0  0  0  0  0  0  0  0
    7.2411   -7.5236    0.0000 O   0  0  0  0  0  0  0  0  0  0  0  0
    8.6700   -7.5236    0.0000 O   0  0  0  0  0  0  0  0  0  0  0  0
   10.0990   -9.9986    0.0000 C   0  0  0  0  0  0  0  0  0  0  0  0
    4.6852  -10.3006    0.0000 C   0  0  0  0  0  0  0  0  0  0  0  0
    4.3008   -9.3726    0.0000 C   0  0  0  0  0  0  0  0  0  0  0  0
    4.3832   -8.3486    0.0000 O   0  0  0  0  0  0  0  0  0  0  0  0
    4.3832   -6.6986    0.0000 O   0  0  0  0  0  0  0  0  0  0  0  0
    4.2521   -5.7028    0.0000 C   0  0  0  0  0  0  0  0  0  0  0  0
    3.6687   -6.2861    0.0000 C   0  0  0  0  0  0  0  0  0  0  0  0
    5.0977   -7.1111    0.0000 O   0  0  0  0  0  0  0  0  0  0  0  0
    2.9542   -7.5236    0.0000 C   0  0  0  0  0  0  0  0  0  0  0  0
    3.6687   -7.1111    0.0000 C   0  0  0  0  0  0  0  0  0  0  0  0
    4.3832   -7.5236    0.0000 C   0  0  0  0  0  0  0  0  0  0  0  0
  1  2  1  0  0  0  0
  2  3  1  0  0  0  0
  3  4  1  0  0  0  0
  4  5  2  0  0  0  0
  5  6  1  0  0  0  0
  6  1  1  0  0  0  0
  4  7  1  0  0  0  0
  7  8  2  0  0  0  0
  8  9  1  0  0  0  0
  9 10  2  0  0  0  0
 10  5  1  0  0  0  0
  8 11  1  0  0  0  0
 11 12  1  0  0  0  0
 12 13  2  0  0  0  0
 13 14  1  0  0  0  0
 14  9  1  0  0  0  0
  7 15  1  0  0  0  0
 11 16  2  0  0  0  0
 13 17  1  0  0  0  0
  1 18  1  0  0  0  0
  1 19  1  0  0  0  0
  2 20  1  0  0  0  0
 23 21  1  0  0  0  0
 26 21  1  0  0  0  0
 20 27  1  0  0  0  0
 23 22  1  0  0  0  0
 26 23  1  0  0  0  0
 27 24  2  0  0  0  0
 26 25  1  0  0  0  0
 27 26  1  0  0  0  0
M  END
>  <cdx:fragmentId>
5

$$$$
