481825.cdx
  Mrv1902 05222410272D          

 29 30  0  0  0  0            999 V2000
    3.6539   -8.7450    0.0000 C   0  0  0  0  0  0  0  0  0  0  0  0
    3.6539   -9.5700    0.0000 C   0  0  0  0  0  0  0  0  0  0  0  0
    4.3684   -9.9825    0.0000 C   0  0  0  0  0  0  0  0  0  0  0  0
    5.0828   -9.5700    0.0000 C   0  0  0  0  0  0  0  0  0  0  0  0
    5.0828   -8.7450    0.0000 C   0  0  0  0  0  0  0  0  0  0  0  0
    4.3684   -8.3325    0.0000 C   0  0  0  0  0  0  0  0  0  0  0  0
    5.7973   -8.3325    0.0000 C   0  0  0  0  0  0  0  0  0  0  0  0
    6.5118   -8.7450    0.0000 C   0  0  0  0  0  0  0  0  0  0  0  0
    7.2263   -8.3325    0.0000 C   0  0  0  0  0  0  0  0  0  0  0  0
    7.9407   -8.7450    0.0000 O   0  0  0  0  0  0  0  0  0  0  0  0
    2.9394   -9.9825    0.0000 O   0  0  0  0  0  0  0  0  0  0  0  0
    7.2263   -7.5075    0.0000 O   0  0  0  0  0  0  0  0  0  0  0  0
    2.9394   -8.3325    0.0000 O   0  0  0  0  0  0  0  0  0  0  0  0
    8.6800   -8.2987    0.0000 C   0  0  1  0  0  0  0  0  0  0  0  0
    9.3944   -8.7112    0.0000 C   0  0  1  0  0  0  0  0  0  0  0  0
   10.1089   -8.2987    0.0000 C   0  0  1  0  0  0  0  0  0  0  0  0
   10.1089   -7.4737    0.0000 C   0  0  0  0  0  0  0  0  0  0  0  0
    9.3944   -7.0612    0.0000 C   0  0  2  0  0  0  0  0  0  0  0  0
    8.6800   -7.4737    0.0000 C   0  0  0  0  0  0  0  0  0  0  0  0
    9.8069   -6.3467    0.0000 C   0  0  0  0  0  0  0  0  0  0  0  0
   10.6319   -6.3467    0.0000 O   0  0  0  0  0  0  0  0  0  0  0  0
    9.3944   -9.5362    0.0000 O   0  0  0  0  0  0  0  0  0  0  0  0
   10.8234   -8.7112    0.0000 O   0  0  0  0  0  0  0  0  0  0  0  0
    8.9819   -6.3467    0.0000 O   0  0  0  0  0  0  0  0  0  0  0  0
    9.3944   -5.6322    0.0000 O   0  0  0  0  0  0  0  0  0  0  0  0
   11.0444   -5.6322    0.0000 C   0  0  0  0  0  0  0  0  0  0  0  0
   11.8694   -5.6322    0.0000 C   0  0  0  0  0  0  0  0  0  0  0  0
   12.2819   -4.9178    0.0000 C   0  0  0  0  0  0  0  0  0  0  0  0
   13.1069   -4.9178    0.0000 C   0  0  0  0  0  0  0  0  0  0  0  0
  1  2  2  0  0  0  0
  2  3  1  0  0  0  0
  3  4  2  0  0  0  0
  4  5  1  0  0  0  0
  5  6  2  0  0  0  0
  6  1  1  0  0  0  0
  5  7  1  0  0  0  0
  8  9  1  0  0  0  0
  9 10  1  0  0  0  0
  2 11  1  0  0  0  0
  9 12  2  0  0  0  0
  7  8  2  0  0  0  0
  1 13  1  0  0  0  0
 14 15  1  0  0  0  0
 15 16  1  0  0  0  0
 16 17  1  0  0  0  0
 17 18  1  0  0  0  0
 18 19  1  0  0  0  0
 19 14  1  0  0  0  0
 18 20  1  0  0  0  0
 20 21  1  0  0  0  0
 15 22  1  1  0  0  0
 16 23  1  1  0  0  0
 18 24  1  1  0  0  0
 20 25  2  0  0  0  0
 14 10  1  6  0  0  0
 21 26  1  0  0  0  0
 26 27  1  0  0  0  0
 27 28  1  0  0  0  0
 28 29  1  0  0  0  0
M  END
>  <cdx:fragmentId>
6

$$$$
