481969.cdx
  Mrv1902 05222410272D          

 31 35  0  0  0  0            999 V2000
    5.7393   -8.2229    0.0000 O   0  0  0  0  0  0  0  0  0  0  0  0
   10.7406   -4.5104    0.0000 O   0  0  0  0  0  0  0  0  0  0  0  0
    3.4853   -4.9229    0.0000 C   0  0  0  0  0  0  0  0  0  0  0  0
    3.8978   -4.2085    0.0000 C   0  0  0  0  0  0  0  0  0  0  0  0
    9.3116   -9.4604    0.0000 C   0  0  0  0  0  0  0  0  0  0  0  0
   10.0261   -8.2229    0.0000 C   0  0  0  0  0  0  0  0  0  0  0  0
    9.3116   -8.6354    0.0000 C   0  0  0  0  0  0  0  0  0  0  0  0
    8.5972   -8.2229    0.0000 C   0  0  0  0  0  0  0  0  0  0  0  0
    7.1682   -8.2229    0.0000 O   0  0  0  0  0  0  0  0  0  0  0  0
    8.5972   -5.7479    0.0000 C   0  0  0  0  0  0  0  0  0  0  0  0
    8.5972   -4.9229    0.0000 C   0  0  0  0  0  0  0  0  0  0  0  0
    9.3116   -4.5104    0.0000 C   0  0  0  0  0  0  0  0  0  0  0  0
   10.0261   -4.9229    0.0000 C   0  0  0  0  0  0  0  0  0  0  0  0
   10.0261   -5.7479    0.0000 C   0  0  0  0  0  0  0  0  0  0  0  0
    9.3116   -6.1604    0.0000 C   0  0  0  0  0  0  0  0  0  0  0  0
    9.3116   -6.9854    0.0000 O   0  0  0  0  0  0  0  0  0  0  0  0
    8.5972   -7.3979    0.0000 C   0  0  0  0  0  0  0  0  0  0  0  0
    7.8827   -6.9854    0.0000 C   0  0  0  0  0  0  0  0  0  0  0  0
    7.1682   -7.3979    0.0000 C   0  0  0  0  0  0  0  0  0  0  0  0
    6.4538   -6.9854    0.0000 C   0  0  0  0  0  0  0  0  0  0  0  0
    5.7393   -7.3979    0.0000 C   0  0  0  0  0  0  0  0  0  0  0  0
    5.0248   -6.9854    0.0000 C   0  0  0  0  0  0  0  0  0  0  0  0
    5.0248   -6.1604    0.0000 C   0  0  0  0  0  0  0  0  0  0  0  0
    4.3103   -5.7479    0.0000 O   0  0  0  0  0  0  0  0  0  0  0  0
    4.3103   -4.9229    0.0000 C   0  0  0  0  0  0  0  0  0  0  0  0
    5.0248   -4.5104    0.0000 C   0  0  0  0  0  0  0  0  0  0  0  0
    5.7393   -4.9229    0.0000 C   0  0  0  0  0  0  0  0  0  0  0  0
    5.7393   -5.7479    0.0000 C   0  0  0  0  0  0  0  0  0  0  0  0
    6.4538   -6.1604    0.0000 C   0  0  0  0  0  0  0  0  0  0  0  0
    7.1682   -5.7479    0.0000 O   0  0  0  0  0  0  0  0  0  0  0  0
    7.8827   -6.1604    0.0000 C   0  0  0  0  0  0  0  0  0  0  0  0
 21  1  1  0  0  0  0
 13  2  1  0  0  0  0
 25  3  1  0  0  0  0
 25  4  1  0  0  0  0
 17  8  1  0  0  0  0
  7  5  1  0  0  0  0
  7  6  1  0  0  0  0
  8  7  2  0  0  0  0
 19  9  2  0  0  0  0
 15 10  2  0  0  0  0
 28 23  2  0  0  0  0
 29 20  2  0  0  0  0
 31 18  2  0  0  0  0
 31 10  1  0  0  0  0
 11 10  1  0  0  0  0
 12 11  2  0  0  0  0
 13 12  1  0  0  0  0
 14 13  2  0  0  0  0
 15 14  1  0  0  0  0
 16 15  1  0  0  0  0
 17 16  1  0  0  0  0
 18 17  1  0  0  0  0
 19 18  1  0  0  0  0
 20 19  1  0  0  0  0
 21 20  1  0  0  0  0
 22 21  2  0  0  0  0
 23 22  1  0  0  0  0
 24 23  1  0  0  0  0
 25 24  1  0  0  0  0
 26 25  1  0  0  0  0
 27 26  2  0  0  0  0
 28 27  1  0  0  0  0
 29 28  1  0  0  0  0
 30 29  1  0  0  0  0
 31 30  1  0  0  0  0
M  END
>  <cdx:fragmentId>
3872

$$$$
