481958.cdx
  Mrv1902 05222410192D          

 31 33  0  0  0  0            999 V2000
    8.3004   -7.3271    0.0000 C   0  0  0  0  0  0  0  0  0  0  0  0
    8.2888   -8.1520    0.0000 C   0  0  0  0  0  0  0  0  0  0  0  0
    8.9974   -8.5745    0.0000 C   0  0  0  0  0  0  0  0  0  0  0  0
    9.7176   -8.1721    0.0000 C   0  0  0  0  0  0  0  0  0  0  0  0
    7.6266   -4.4298    0.0000 O   0  0  0  0  0  0  0  0  0  0  0  0
   10.4842   -4.4701    0.0000 O   0  0  0  0  0  0  0  0  0  0  0  0
    9.0322   -6.0998    0.0000 C   0  0  0  0  0  0  0  0  0  0  0  0
    9.7524   -5.6974    0.0000 C   0  0  0  0  0  0  0  0  0  0  0  0
    9.7640   -4.8725    0.0000 C   0  0  0  0  0  0  0  0  0  0  0  0
    9.0554   -4.4499    0.0000 C   0  0  0  0  0  0  0  0  0  0  0  0
    8.3352   -4.8524    0.0000 C   0  0  0  0  0  0  0  0  0  0  0  0
    8.3236   -5.6773    0.0000 C   0  0  0  0  0  0  0  0  0  0  0  0
    5.4312   -8.1118    0.0000 O   0  0  0  0  0  0  0  0  0  0  0  0
    4.0372   -5.6169    0.0000 O   0  0  0  0  0  0  0  0  0  0  0  0
    8.9857   -9.3995    0.0000 C   0  0  0  0  0  0  0  0  0  0  0  0
    4.0720   -3.1422    0.0000 C   0  0  0  0  0  0  0  0  0  0  0  0
    5.5008   -3.1623    0.0000 C   0  0  0  0  0  0  0  0  0  0  0  0
    4.7806   -3.5647    0.0000 C   0  0  0  0  0  0  0  0  0  0  0  0
    4.7690   -4.3896    0.0000 C   0  0  0  0  0  0  0  0  0  0  0  0
    5.4776   -4.8121    0.0000 C   0  0  0  0  0  0  0  0  0  0  0  0
    6.8600   -8.1319    0.0000 O   0  0  0  0  0  0  0  0  0  0  0  0
    6.8948   -5.6572    0.0000 O   0  0  0  0  0  0  0  0  0  0  0  0
    6.1746   -6.0596    0.0000 C   0  0  0  0  0  0  0  0  0  0  0  0
    5.4660   -5.6371    0.0000 C   0  0  0  0  0  0  0  0  0  0  0  0
    4.7458   -6.0395    0.0000 C   0  0  0  0  0  0  0  0  0  0  0  0
    4.7342   -6.8644    0.0000 C   0  0  0  0  0  0  0  0  0  0  0  0
    5.4428   -7.2869    0.0000 C   0  0  0  0  0  0  0  0  0  0  0  0
    6.1630   -6.8845    0.0000 C   0  0  0  0  0  0  0  0  0  0  0  0
    6.8716   -7.3070    0.0000 C   0  0  0  0  0  0  0  0  0  0  0  0
    7.5918   -6.9046    0.0000 C   0  0  0  0  0  0  0  0  0  0  0  0
    7.6034   -6.0797    0.0000 C   0  0  0  0  0  0  0  0  0  0  0  0
 31 12  1  0  0  0  0
 11  5  1  0  0  0  0
  9  6  1  0  0  0  0
 12  7  2  0  0  0  0
  8  7  1  0  0  0  0
  9  8  2  0  0  0  0
 10  9  1  0  0  0  0
 11 10  2  0  0  0  0
 12 11  1  0  0  0  0
 27 13  1  0  0  0  0
 25 14  1  0  0  0  0
 30  1  1  0  0  0  0
 24 20  1  0  0  0  0
 18 16  1  0  0  0  0
 18 17  1  0  0  0  0
 19 18  2  0  0  0  0
 20 19  1  0  0  0  0
 29 21  2  0  0  0  0
 31 22  1  0  0  0  0
 23 22  1  0  0  0  0
 28 23  2  0  0  0  0
 24 23  1  0  0  0  0
 25 24  2  0  0  0  0
 26 25  1  0  0  0  0
 27 26  2  0  0  0  0
 28 27  1  0  0  0  0
 29 28  1  0  0  0  0
 30 29  1  0  0  0  0
 31 30  2  0  0  0  0
  1  2  1  0  0  0  0
  2  3  2  0  0  0  0
  3  4  1  0  0  0  0
  3 15  1  0  0  0  0
M  END
>  <cdx:fragmentId>
3280

$$$$
