5481965.cdx
  Mrv1902 05222410192D          

 27 29  0  0  0  0            999 V2000
    8.8845   -5.7491    0.0000 C   0  0  0  0  0  0  0  0  0  0  0  0
    8.8845   -6.5741    0.0000 C   0  0  0  0  0  0  0  0  0  0  0  0
    9.5990   -6.9866    0.0000 O   0  0  0  0  0  0  0  0  0  0  0  0
    8.1701   -6.9866    0.0000 C   0  0  0  0  0  0  0  0  0  0  0  0
    8.1701   -7.8116    0.0000 O   0  0  0  0  0  0  0  0  0  0  0  0
    7.4556   -6.5741    0.0000 C   0  0  0  0  0  0  0  0  0  0  0  0
    6.7411   -6.9866    0.0000 C   0  0  0  0  0  0  0  0  0  0  0  0
    6.7411   -7.8116    0.0000 O   0  0  0  0  0  0  0  0  0  0  0  0
    6.0267   -6.5741    0.0000 C   0  0  0  0  0  0  0  0  0  0  0  0
    6.0267   -5.7491    0.0000 C   0  0  0  0  0  0  0  0  0  0  0  0
    5.3122   -5.3366    0.0000 O   0  0  0  0  0  0  0  0  0  0  0  0
    6.7411   -5.3366    0.0000 C   0  0  0  0  0  0  0  0  0  0  0  0
    7.4556   -5.7491    0.0000 C   0  0  0  0  0  0  0  0  0  0  0  0
    8.1701   -5.3366    0.0000 O   0  0  0  0  0  0  0  0  0  0  0  0
    9.5990   -5.3366    0.0000 C   0  0  0  0  0  0  0  0  0  0  0  0
    9.5990   -4.5116    0.0000 C   0  0  0  0  0  0  0  0  0  0  0  0
   10.3135   -4.0991    0.0000 C   0  0  0  0  0  0  0  0  0  0  0  0
   11.0280   -4.5116    0.0000 C   0  0  0  0  0  0  0  0  0  0  0  0
   11.7424   -4.0991    0.0000 O   0  0  0  0  0  0  0  0  0  0  0  0
   11.0280   -5.3366    0.0000 C   0  0  0  0  0  0  0  0  0  0  0  0
   10.3135   -5.7491    0.0000 C   0  0  0  0  0  0  0  0  0  0  0  0
    5.3122   -6.9866    0.0000 C   0  0  0  0  0  0  0  0  0  0  0  0
    4.5977   -6.5741    0.0000 C   0  0  0  0  0  0  0  0  0  0  0  0
    3.8833   -6.9866    0.0000 C   0  0  0  0  0  0  0  0  0  0  0  0
    3.8833   -7.8116    0.0000 C   0  0  0  0  0  0  0  0  0  0  0  0
    3.1688   -6.5741    0.0000 C   0  0  0  0  0  0  0  0  0  0  0  0
   10.3135   -6.5741    0.0000 C   0  0  0  0  0  0  0  0  0  0  0  0
  1  2  2  0  0  0  0
  2  3  1  0  0  0  0
  2  4  1  0  0  0  0
  4  5  2  0  0  0  0
  4  6  1  0  0  0  0
  6  7  1  0  0  0  0
  7  8  1  0  0  0  0
  7  9  2  0  0  0  0
  9 10  1  0  0  0  0
 10 11  1  0  0  0  0
 10 12  2  0  0  0  0
 12 13  1  0  0  0  0
  6 13  2  0  0  0  0
 13 14  1  0  0  0  0
  1 14  1  0  0  0  0
  1 15  1  0  0  0  0
 15 16  1  0  0  0  0
 16 17  2  0  0  0  0
 17 18  1  0  0  0  0
 18 19  1  0  0  0  0
 18 20  2  0  0  0  0
 20 21  1  0  0  0  0
 15 21  2  0  0  0  0
 22 23  1  0  0  0  0
 23 24  2  0  0  0  0
 24 25  1  0  0  0  0
 24 26  1  0  0  0  0
  9 22  1  0  0  0  0
  3 27  1  0  0  0  0
M  END
>  <cdx:fragmentId>
16

$$$$
