5481964.cdx
  Mrv1902 05222410192D          

 26 28  0  0  0  0            999 V2000
    8.5230   -7.0449    0.0000 C   0  0  0  0  0  0  0  0  0  0  0  0
    8.5230   -6.2199    0.0000 C   0  0  0  0  0  0  0  0  0  0  0  0
    7.8085   -5.8074    0.0000 C   0  0  0  0  0  0  0  0  0  0  0  0
    7.0940   -6.2199    0.0000 C   0  0  0  0  0  0  0  0  0  0  0  0
    6.3795   -5.8074    0.0000 C   0  0  0  0  0  0  0  0  0  0  0  0
    5.6651   -6.2199    0.0000 C   0  0  0  0  0  0  0  0  0  0  0  0
    5.6651   -7.0449    0.0000 C   0  0  0  0  0  0  0  0  0  0  0  0
    6.3795   -7.4574    0.0000 C   0  0  0  0  0  0  0  0  0  0  0  0
    7.0940   -7.0449    0.0000 C   0  0  0  0  0  0  0  0  0  0  0  0
    7.8085   -7.4574    0.0000 O   0  0  0  0  0  0  0  0  0  0  0  0
    7.8085   -4.9824    0.0000 O   0  0  0  0  0  0  0  0  0  0  0  0
    4.9506   -5.8074    0.0000 C   0  0  0  0  0  0  0  0  0  0  0  0
    4.2361   -6.2199    0.0000 C   0  0  0  0  0  0  0  0  0  0  0  0
    3.5217   -5.8074    0.0000 C   0  0  0  0  0  0  0  0  0  0  0  0
    3.5217   -4.9824    0.0000 C   0  0  0  0  0  0  0  0  0  0  0  0
    2.8072   -6.2199    0.0000 C   0  0  0  0  0  0  0  0  0  0  0  0
    9.2374   -7.4574    0.0000 C   0  0  0  0  0  0  0  0  0  0  0  0
    9.9519   -7.0449    0.0000 C   0  0  0  0  0  0  0  0  0  0  0  0
   10.6664   -7.4574    0.0000 C   0  0  0  0  0  0  0  0  0  0  0  0
   10.6664   -8.2824    0.0000 C   0  0  0  0  0  0  0  0  0  0  0  0
    9.9519   -8.6949    0.0000 C   0  0  0  0  0  0  0  0  0  0  0  0
    9.2374   -8.2824    0.0000 C   0  0  0  0  0  0  0  0  0  0  0  0
   11.3808   -8.6949    0.0000 O   0  0  0  0  0  0  0  0  0  0  0  0
    4.9506   -7.4574    0.0000 O   0  0  0  0  0  0  0  0  0  0  0  0
    6.3795   -4.9824    0.0000 O   0  0  0  0  0  0  0  0  0  0  0  0
    9.2374   -5.8074    0.0000 O   0  0  0  0  0  0  0  0  0  0  0  0
  1  2  2  0  0  0  0
  2  3  1  0  0  0  0
  3  4  1  0  0  0  0
  4  5  1  0  0  0  0
  5  6  2  0  0  0  0
  6  7  1  0  0  0  0
  7  8  2  0  0  0  0
  8  9  1  0  0  0  0
  4  9  2  0  0  0  0
  9 10  1  0  0  0  0
  1 10  1  0  0  0  0
  3 11  2  0  0  0  0
 12 13  1  0  0  0  0
 13 14  2  0  0  0  0
 14 15  1  0  0  0  0
 14 16  1  0  0  0  0
  6 12  1  0  0  0  0
 17 18  1  0  0  0  0
 18 19  2  0  0  0  0
 19 20  1  0  0  0  0
 20 21  2  0  0  0  0
 21 22  1  0  0  0  0
 17 22  2  0  0  0  0
 20 23  1  0  0  0  0
  1 17  1  0  0  0  0
  7 24  1  0  0  0  0
  5 25  1  0  0  0  0
  2 26  1  0  0  0  0
M  END
>  <cdx:fragmentId>
3590

$$$$
