481970.cdx
  Mrv1902 05222410192D          

 21 23  0  0  0  0            999 V2000
    7.6007   -6.6324    0.0000 C   0  0  0  0  0  0  0  0  0  0  0  0
    7.6007   -7.4574    0.0000 C   0  0  0  0  0  0  0  0  0  0  0  0
    6.8863   -7.8699    0.0000 C   0  0  0  0  0  0  0  0  0  0  0  0
    6.1718   -7.4574    0.0000 C   0  0  0  0  0  0  0  0  0  0  0  0
    5.4573   -7.8699    0.0000 C   0  0  0  0  0  0  0  0  0  0  0  0
    4.7429   -7.4574    0.0000 C   0  0  0  0  0  0  0  0  0  0  0  0
    4.7429   -6.6324    0.0000 C   0  0  0  0  0  0  0  0  0  0  0  0
    5.4573   -6.2199    0.0000 C   0  0  0  0  0  0  0  0  0  0  0  0
    6.1718   -6.6324    0.0000 C   0  0  0  0  0  0  0  0  0  0  0  0
    6.8863   -6.2199    0.0000 O   0  0  0  0  0  0  0  0  0  0  0  0
    6.8863   -8.6949    0.0000 O   0  0  0  0  0  0  0  0  0  0  0  0
    4.0284   -6.2199    0.0000 O   0  0  0  0  0  0  0  0  0  0  0  0
    5.4573   -8.6949    0.0000 O   0  0  0  0  0  0  0  0  0  0  0  0
    8.3152   -6.2199    0.0000 C   0  0  0  0  0  0  0  0  0  0  0  0
    8.3152   -5.3949    0.0000 C   0  0  0  0  0  0  0  0  0  0  0  0
    9.0297   -4.9824    0.0000 C   0  0  0  0  0  0  0  0  0  0  0  0
    9.7441   -5.3949    0.0000 C   0  0  0  0  0  0  0  0  0  0  0  0
    9.7441   -6.2199    0.0000 C   0  0  0  0  0  0  0  0  0  0  0  0
    9.0297   -6.6324    0.0000 C   0  0  0  0  0  0  0  0  0  0  0  0
   10.4586   -4.9824    0.0000 O   0  0  0  0  0  0  0  0  0  0  0  0
    7.6007   -4.9824    0.0000 O   0  0  0  0  0  0  0  0  0  0  0  0
  1  2  2  0  0  0  0
  2  3  1  0  0  0  0
  3  4  1  0  0  0  0
  4  5  1  0  0  0  0
  5  6  2  0  0  0  0
  6  7  1  0  0  0  0
  7  8  2  0  0  0  0
  8  9  1  0  0  0  0
  4  9  2  0  0  0  0
  9 10  1  0  0  0  0
  1 10  1  0  0  0  0
  3 11  2  0  0  0  0
  7 12  1  0  0  0  0
  5 13  1  0  0  0  0
 14 15  1  0  0  0  0
 15 16  2  0  0  0  0
 16 17  1  0  0  0  0
 17 18  2  0  0  0  0
 18 19  1  0  0  0  0
 14 19  2  0  0  0  0
 17 20  1  0  0  0  0
 15 21  1  0  0  0  0
  1 14  1  0  0  0  0
M  END
>  <cdx:fragmentId>
3982

$$$$
