5481963.cdx
  Mrv1902 05222410202D          

 31 33  0  0  0  0            999 V2000
    7.6007   -7.0449    0.0000 C   0  0  0  0  0  0  0  0  0  0  0  0
    7.6007   -6.2199    0.0000 C   0  0  0  0  0  0  0  0  0  0  0  0
    6.8863   -5.8074    0.0000 C   0  0  0  0  0  0  0  0  0  0  0  0
    6.1718   -6.2199    0.0000 C   0  0  0  0  0  0  0  0  0  0  0  0
    5.4573   -5.8074    0.0000 C   0  0  0  0  0  0  0  0  0  0  0  0
    4.7429   -6.2199    0.0000 C   0  0  0  0  0  0  0  0  0  0  0  0
    4.7429   -7.0449    0.0000 C   0  0  0  0  0  0  0  0  0  0  0  0
    5.4573   -7.4574    0.0000 C   0  0  0  0  0  0  0  0  0  0  0  0
    6.1718   -7.0449    0.0000 C   0  0  0  0  0  0  0  0  0  0  0  0
    6.8863   -7.4574    0.0000 O   0  0  0  0  0  0  0  0  0  0  0  0
    6.8863   -4.9824    0.0000 O   0  0  0  0  0  0  0  0  0  0  0  0
    4.0284   -5.8074    0.0000 C   0  0  0  0  0  0  0  0  0  0  0  0
    3.3139   -6.2199    0.0000 C   0  0  0  0  0  0  0  0  0  0  0  0
    2.5994   -5.8074    0.0000 C   0  0  0  0  0  0  0  0  0  0  0  0
    2.5994   -4.9824    0.0000 C   0  0  0  0  0  0  0  0  0  0  0  0
    1.8850   -6.2199    0.0000 C   0  0  0  0  0  0  0  0  0  0  0  0
    8.3152   -7.4574    0.0000 C   0  0  0  0  0  0  0  0  0  0  0  0
    9.0297   -7.0449    0.0000 C   0  0  0  0  0  0  0  0  0  0  0  0
    9.7441   -7.4574    0.0000 C   0  0  0  0  0  0  0  0  0  0  0  0
    9.7441   -8.2824    0.0000 C   0  0  0  0  0  0  0  0  0  0  0  0
    9.0297   -8.6949    0.0000 C   0  0  0  0  0  0  0  0  0  0  0  0
    8.3152   -8.2824    0.0000 C   0  0  0  0  0  0  0  0  0  0  0  0
   10.4586   -7.0449    0.0000 C   0  0  0  0  0  0  0  0  0  0  0  0
   11.1731   -7.4574    0.0000 C   0  0  0  0  0  0  0  0  0  0  0  0
   11.8876   -7.0449    0.0000 C   0  0  0  0  0  0  0  0  0  0  0  0
   11.8876   -6.2199    0.0000 C   0  0  0  0  0  0  0  0  0  0  0  0
   12.6020   -7.4574    0.0000 C   0  0  0  0  0  0  0  0  0  0  0  0
   10.4586   -8.6949    0.0000 O   0  0  0  0  0  0  0  0  0  0  0  0
    4.0284   -7.4574    0.0000 O   0  0  0  0  0  0  0  0  0  0  0  0
    5.4573   -4.9824    0.0000 O   0  0  0  0  0  0  0  0  0  0  0  0
    8.3152   -5.8074    0.0000 O   0  0  0  0  0  0  0  0  0  0  0  0
  1  2  2  0  0  0  0
  2  3  1  0  0  0  0
  3  4  1  0  0  0  0
  4  5  1  0  0  0  0
  5  6  2  0  0  0  0
  6  7  1  0  0  0  0
  7  8  2  0  0  0  0
  8  9  1  0  0  0  0
  4  9  2  0  0  0  0
  9 10  1  0  0  0  0
  1 10  1  0  0  0  0
  3 11  2  0  0  0  0
 12 13  1  0  0  0  0
 13 14  2  0  0  0  0
 14 15  1  0  0  0  0
 14 16  1  0  0  0  0
  6 12  1  0  0  0  0
 17 18  1  0  0  0  0
 18 19  2  0  0  0  0
 19 20  1  0  0  0  0
 20 21  2  0  0  0  0
 21 22  1  0  0  0  0
 17 22  2  0  0  0  0
 23 24  1  0  0  0  0
 24 25  2  0  0  0  0
 25 26  1  0  0  0  0
 25 27  1  0  0  0  0
 19 23  1  0  0  0  0
 20 28  1  0  0  0  0
  1 17  1  0  0  0  0
  7 29  1  0  0  0  0
  5 30  1  0  0  0  0
  2 31  1  0  0  0  0
M  END
>  <cdx:fragmentId>
3485

$$$$
