102004822.cdx
  Mrv1902 05222410232D          

 33 35  0  0  0  0            999 V2000
    8.3015   -9.4413    0.0000 C   0  0  2  0  0  0  0  0  0  0  0  0
    8.3015   -8.6163    0.0000 C   0  0  1  0  0  0  0  0  0  0  0  0
    9.0160   -8.2038    0.0000 C   0  0  0  0  0  0  0  0  0  0  0  0
    9.7305   -8.6163    0.0000 C   0  0  0  0  0  0  0  0  0  0  0  0
   10.4450   -8.2038    0.0000 C   0  0  0  0  0  0  0  0  0  0  0  0
   11.1594   -8.6163    0.0000 C   0  0  0  0  0  0  0  0  0  0  0  0
   11.1594   -9.4413    0.0000 C   0  0  0  0  0  0  0  0  0  0  0  0
   10.4450   -9.8538    0.0000 C   0  0  0  0  0  0  0  0  0  0  0  0
    9.7305   -9.4413    0.0000 C   0  0  0  0  0  0  0  0  0  0  0  0
    9.0160   -9.8538    0.0000 O   0  0  0  0  0  0  0  0  0  0  0  0
    9.0160   -7.3788    0.0000 O   0  0  0  0  0  0  0  0  0  0  0  0
   10.4450  -10.6788    0.0000 C   0  0  0  0  0  0  0  0  0  0  0  0
   11.1594  -11.0913    0.0000 C   0  0  1  0  0  0  0  0  0  0  0  0
   11.8739  -10.6788    0.0000 C   0  0  0  0  0  0  0  0  0  0  0  0
   12.5884  -11.0913    0.0000 C   0  0  0  0  0  0  0  0  0  0  0  0
   13.3028  -10.6788    0.0000 C   0  0  0  0  0  0  0  0  0  0  0  0
   13.3028   -9.8538    0.0000 C   0  0  0  0  0  0  0  0  0  0  0  0
   11.8739  -12.3288    0.0000 C   0  0  0  0  0  0  0  0  0  0  0  0
   11.1594  -11.9163    0.0000 C   0  0  0  0  0  0  0  0  0  0  0  0
   10.4450  -12.3288    0.0000 C   0  0  0  0  0  0  0  0  0  0  0  0
   14.0173  -11.0913    0.0000 C   0  0  0  0  0  0  0  0  0  0  0  0
   10.4450   -7.3788    0.0000 O   0  0  0  0  0  0  0  0  0  0  0  0
   11.1594   -6.9663    0.0000 C   0  0  0  0  0  0  0  0  0  0  0  0
   11.8739   -9.8538    0.0000 O   0  0  0  0  0  0  0  0  0  0  0  0
    7.5871   -8.2038    0.0000 O   0  0  0  0  0  0  0  0  0  0  0  0
    7.5871   -9.8538    0.0000 C   0  0  0  0  0  0  0  0  0  0  0  0
    7.5871  -10.6788    0.0000 C   0  0  0  0  0  0  0  0  0  0  0  0
    6.8726  -11.0913    0.0000 C   0  0  0  0  0  0  0  0  0  0  0  0
    6.1581  -10.6788    0.0000 C   0  0  0  0  0  0  0  0  0  0  0  0
    6.1581   -9.8538    0.0000 C   0  0  0  0  0  0  0  0  0  0  0  0
    6.8726   -9.4413    0.0000 C   0  0  0  0  0  0  0  0  0  0  0  0
    5.4437  -11.0913    0.0000 O   0  0  0  0  0  0  0  0  0  0  0  0
    8.3015  -11.0913    0.0000 O   0  0  0  0  0  0  0  0  0  0  0  0
  1  2  1  0  0  0  0
  2  3  1  0  0  0  0
  3  4  1  0  0  0  0
  4  5  1  0  0  0  0
  5  6  2  0  0  0  0
  6  7  1  0  0  0  0
  7  8  2  0  0  0  0
  8  9  1  0  0  0  0
  4  9  2  0  0  0  0
  9 10  1  0  0  0  0
  1 10  1  0  0  0  0
  3 11  2  0  0  0  0
 12 13  1  0  0  0  0
 13 14  1  0  0  0  0
 14 15  1  0  0  0  0
 15 16  2  0  0  0  0
 16 17  1  0  0  0  0
 18 19  2  0  0  0  0
 19 20  1  0  0  0  0
 13 19  1  1  0  0  0
 16 21  1  0  0  0  0
  8 12  1  0  0  0  0
 22 23  1  0  0  0  0
  5 22  1  0  0  0  0
  7 24  1  0  0  0  0
  2 25  1  6  0  0  0
 26 27  1  0  0  0  0
 27 28  2  0  0  0  0
 28 29  1  0  0  0  0
 29 30  2  0  0  0  0
 30 31  1  0  0  0  0
 26 31  2  0  0  0  0
 29 32  1  0  0  0  0
 27 33  1  0  0  0  0
  1 26  1  6  0  0  0
M  END
>  <cdx:groupId>
6237

>  <cdx:fragmentId>
6139

$$$$
