482323.cdx
  Mrv1902 05222410272D          

 38 41  0  0  0  0            999 V2000
    8.9442  -10.2406    0.0000 C   0  0  0  0  0  0  0  0  0  0  0  0
    8.2022   -8.9095    0.0000 C   0  0  0  0  0  0  0  0  0  0  0  0
    7.4947   -8.4852    0.0000 C   0  0  0  0  0  0  0  0  0  0  0  0
    6.7735   -8.8858    0.0000 C   0  0  0  0  0  0  0  0  0  0  0  0
    6.7598   -9.7107    0.0000 C   0  0  0  0  0  0  0  0  0  0  0  0
    7.4674  -10.1350    0.0000 C   0  0  0  0  0  0  0  0  0  0  0  0
    8.1886   -9.7344    0.0000 C   0  0  0  0  0  0  0  0  0  0  0  0
    6.0386  -10.1113    0.0000 O   0  0  0  0  0  0  0  0  0  0  0  0
    5.3037  -11.3368    0.0000 O   0  0  0  0  0  0  0  0  0  0  0  0
    6.0249  -10.9362    0.0000 C   0  0  2  0  0  0  0  0  0  0  0  0
    6.7325  -11.3605    0.0000 C   0  0  1  0  0  0  0  0  0  0  0  0
    6.7188  -12.1854    0.0000 C   0  0  2  0  0  0  0  0  0  0  0  0
    5.9976  -12.5860    0.0000 C   0  0  1  0  0  0  0  0  0  0  0  0
    5.2900  -12.1617    0.0000 C   0  0  1  0  0  0  0  0  0  0  0  0
    4.5688  -12.5623    0.0000 C   0  0  0  0  0  0  0  0  0  0  0  0
    4.5552  -13.3872    0.0000 O   0  0  0  0  0  0  0  0  0  0  0  0
    5.9839  -13.4109    0.0000 O   0  0  0  0  0  0  0  0  0  0  0  0
    7.4263  -12.6097    0.0000 O   0  0  0  0  0  0  0  0  0  0  0  0
    7.4537  -10.9599    0.0000 O   0  0  0  0  0  0  0  0  0  0  0  0
    6.0660   -8.4615    0.0000 O   0  0  0  0  0  0  0  0  0  0  0  0
    5.3680   -8.8645    0.0000 C   0  0  0  0  0  0  0  0  0  0  0  0
    9.5788   -8.0873    0.0000 O   0  0  0  0  0  0  0  0  0  0  0  0
    8.9340  -13.5406    0.0000 O   0  0  0  0  0  0  0  0  0  0  0  0
   10.3630  -13.5450    0.0000 C   0  0  0  0  0  0  0  0  0  0  0  0
   10.3655  -12.7200    0.0000 O   0  0  0  0  0  0  0  0  0  0  0  0
    8.2259  -11.4759    0.0000 C   0  0  0  0  0  0  0  0  0  0  0  0
    8.2234  -12.3009    0.0000 C   0  0  0  0  0  0  0  0  0  0  0  0
    8.9366  -12.7156    0.0000 C   0  0  0  0  0  0  0  0  0  0  0  0
    9.6523  -12.3053    0.0000 C   0  0  0  0  0  0  0  0  0  0  0  0
    9.6549  -11.4803    0.0000 C   0  0  0  0  0  0  0  0  0  0  0  0
    8.9417  -11.0656    0.0000 C   0  0  0  0  0  0  0  0  0  0  0  0
    8.8578   -8.5002    0.0000 C   0  0  0  0  0  0  0  0  0  0  0  0
   10.5334   -8.0470    0.0000 O   0  0  0  0  0  0  0  0  0  0  0  0
   10.3901   -9.9746    0.0000 C   0  0  0  0  0  0  0  0  0  0  0  0
    9.5994   -9.7392    0.0000 C   0  0  1  0  0  0  0  0  0  0  0  0
    9.5788   -8.9145    0.0000 C   0  0  1  0  0  0  0  0  0  0  0  0
   10.3569   -8.6401    0.0000 C   0  0  0  0  0  0  0  0  0  0  0  0
   10.8583   -9.2953    0.0000 O   0  0  0  0  0  0  0  0  0  0  0  0
 36 22  1  6  0  0  0
 35  1  1  6  0  0  0
 28 23  1  0  0  0  0
 29 25  1  0  0  0  0
 25 24  1  0  0  0  0
 31 26  2  0  0  0  0
 27 26  1  0  0  0  0
 28 27  2  0  0  0  0
 29 28  1  0  0  0  0
 30 29  2  0  0  0  0
 31 30  1  0  0  0  0
 36 32  1  1  0  0  0
 37 33  2  0  0  0  0
 38 34  1  0  0  0  0
 35 34  1  0  0  0  0
 36 35  1  0  0  0  0
 37 36  1  0  0  0  0
 38 37  1  0  0  0  0
  2  3  1  0  0  0  0
  3  4  2  0  0  0  0
  4  5  1  0  0  0  0
  5  6  2  0  0  0  0
  6  7  1  0  0  0  0
  2  7  2  0  0  0  0
  9 10  1  0  0  0  0
 10 11  1  0  0  0  0
 11 12  1  0  0  0  0
 12 13  1  0  0  0  0
 13 14  1  0  0  0  0
  9 14  1  0  0  0  0
 15 16  1  0  0  0  0
 14 15  1  1  0  0  0
 13 17  1  6  0  0  0
 12 18  1  1  0  0  0
 11 19  1  6  0  0  0
 10  8  1  1  0  0  0
  5  8  1  0  0  0  0
 20 21  1  0  0  0  0
  4 20  1  0  0  0  0
 32  2  1  0  0  0  0
  1 31  1  0  0  0  0
M  END
>  <cdx:groupId>
173554

>  <cdx:fragmentId>
173468

$$$$
