102004824.cdx
  Mrv1902 05222410212D          

 82 89  0  0  0  0            999 V2000
    6.3725  -12.2055    0.0000 O   0  0  0  0  0  0  0  0  0  0  0  0
    5.6580  -11.7930    0.0000 C   0  0  1  0  0  0  0  0  0  0  0  0
    5.6580  -10.9680    0.0000 C   0  0  2  0  0  0  0  0  0  0  0  0
    6.3725  -10.5555    0.0000 C   0  0  1  0  0  0  0  0  0  0  0  0
    7.0869  -10.9680    0.0000 C   0  0  2  0  0  0  0  0  0  0  0  0
    7.0869  -11.7930    0.0000 C   0  0  2  0  0  0  0  0  0  0  0  0
    4.9435  -12.2055    0.0000 C   0  0  0  0  0  0  0  0  0  0  0  0
    4.9435  -13.0305    0.0000 O   0  0  0  0  0  0  0  0  0  0  0  0
    4.2291  -11.7930    0.0000 O   0  0  0  0  0  0  0  0  0  0  0  0
    7.8014  -10.5555    0.0000 O   0  0  0  0  0  0  0  0  0  0  0  0
    7.0869   -9.3180    0.0000 O   0  0  0  0  0  0  0  0  0  0  0  0
    7.8014   -9.7305    0.0000 C   0  0  2  0  0  0  0  0  0  0  0  0
    8.5159   -9.3180    0.0000 C   0  0  1  0  0  0  0  0  0  0  0  0
    8.5159   -8.4930    0.0000 C   0  0  2  0  0  0  0  0  0  0  0  0
    7.8014   -8.0805    0.0000 C   0  0  1  0  0  0  0  0  0  0  0  0
    7.0869   -8.4930    0.0000 C   0  0  1  0  0  0  0  0  0  0  0  0
    6.3725   -8.0805    0.0000 C   0  0  0  0  0  0  0  0  0  0  0  0
    6.3725   -7.2555    0.0000 O   0  0  0  0  0  0  0  0  0  0  0  0
    7.8014   -7.2555    0.0000 O   0  0  0  0  0  0  0  0  0  0  0  0
    9.2304   -8.0805    0.0000 O   0  0  0  0  0  0  0  0  0  0  0  0
    9.2304   -9.7305    0.0000 O   0  0  0  0  0  0  0  0  0  0  0  0
    4.5148  -10.3080    0.0000 O   0  0  0  0  0  0  0  0  0  0  0  0
    5.2293   -9.0705    0.0000 O   0  0  0  0  0  0  0  0  0  0  0  0
    4.5148   -9.4830    0.0000 C   0  0  2  0  0  0  0  0  0  0  0  0
    3.8004   -9.0705    0.0000 C   0  0  1  0  0  0  0  0  0  0  0  0
    3.8004   -8.2455    0.0000 C   0  0  2  0  0  0  0  0  0  0  0  0
    4.5148   -7.8330    0.0000 C   0  0  1  0  0  0  0  0  0  0  0  0
    5.2293   -8.2455    0.0000 C   0  0  1  0  0  0  0  0  0  0  0  0
    5.9438   -7.8330    0.0000 C   0  0  0  0  0  0  0  0  0  0  0  0
    5.9438   -7.0080    0.0000 O   0  0  0  0  0  0  0  0  0  0  0  0
    4.5148   -7.0080    0.0000 O   0  0  0  0  0  0  0  0  0  0  0  0
    3.0859   -7.8330    0.0000 O   0  0  0  0  0  0  0  0  0  0  0  0
    3.0859   -9.4830    0.0000 O   0  0  0  0  0  0  0  0  0  0  0  0
    6.3725   -9.7305    0.0000 O   0  0  0  0  0  0  0  0  0  0  0  0
    7.8014  -12.2055    0.0000 O   0  0  0  0  0  0  0  0  0  0  0  0
    9.2304  -10.5555    0.0000 C   0  0  0  0  0  0  0  0  0  0  0  0
    8.5159  -10.9680    0.0000 C   0  0  0  0  0  0  0  0  0  0  0  0
    8.5159  -11.7930    0.0000 C   0  0  1  0  0  0  0  0  0  0  0  0
    9.2304  -12.2055    0.0000 C   0  0  1  0  0  0  0  0  0  0  0  0
    9.9448  -11.7930    0.0000 C   0  0  2  0  0  0  0  0  0  0  0  0
   10.6593  -12.2055    0.0000 C   0  0  0  0  0  0  0  0  0  0  0  0
   11.3738  -11.7930    0.0000 C   0  0  0  0  0  0  0  0  0  0  0  0
   11.3738  -10.9680    0.0000 C   0  0  1  0  0  0  0  0  0  0  0  0
   12.0882  -10.5555    0.0000 C   0  0  2  0  0  0  0  0  0  0  0  0
   12.8027  -10.9680    0.0000 C   0  0  0  0  0  0  0  0  0  0  0  0
   13.5172  -10.5555    0.0000 C   0  0  2  0  0  0  0  0  0  0  0  0
   13.5172   -9.7305    0.0000 C   0  0  1  0  0  0  0  0  0  0  0  0
   14.2317   -9.3180    0.0000 C   0  0  2  0  0  0  0  0  0  0  0  0
   14.2317   -8.4930    0.0000 C   0  0  1  0  0  0  0  0  0  0  0  0
   13.5172   -8.0805    0.0000 C   0  0  0  0  0  0  0  0  0  0  0  0
   12.8027   -8.4930    0.0000 C   0  0  0  0  0  0  0  0  0  0  0  0
   12.8027   -9.3180    0.0000 C   0  0  1  0  0  0  0  0  0  0  0  0
   12.0882   -9.7305    0.0000 C   0  0  0  0  0  0  0  0  0  0  0  0
   11.3738   -9.3180    0.0000 C   0  0  0  0  0  0  0  0  0  0  0  0
   10.6593   -9.7305    0.0000 C   0  0  0  0  0  0  0  0  0  0  0  0
   10.6593  -10.5555    0.0000 C   0  0  2  0  0  0  0  0  0  0  0  0
    9.9448  -10.9680    0.0000 C   0  0  1  0  0  0  0  0  0  0  0  0
   14.9461   -8.0805    0.0000 O   0  0  0  0  0  0  0  0  0  0  0  0
   14.9461   -7.2555    0.0000 C   0  0  0  0  0  0  0  0  0  0  0  0
   15.6606   -6.8430    0.0000 C   0  0  0  0  0  0  0  0  0  0  0  0
   15.6606   -6.0180    0.0000 C   0  0  0  0  0  0  0  0  0  0  0  0
   14.9461   -5.6055    0.0000 C   0  0  0  0  0  0  0  0  0  0  0  0
   14.2317   -6.8430    0.0000 O   0  0  0  0  0  0  0  0  0  0  0  0
   16.3751   -7.2555    0.0000 C   0  0  0  0  0  0  0  0  0  0  0  0
    9.9448  -10.1430    0.0000 C   0  0  0  0  0  0  0  0  0  0  0  0
   13.1047   -7.3660    0.0000 C   0  0  0  0  0  0  0  0  0  0  0  0
   13.9297   -7.3660    0.0000 C   0  0  0  0  0  0  0  0  0  0  0  0
   12.0882  -11.3805    0.0000 C   0  0  0  0  0  0  0  0  0  0  0  0
   11.3738  -10.1430    0.0000 C   0  0  0  0  0  0  0  0  0  0  0  0
    8.8179  -12.9200    0.0000 C   0  0  0  0  0  0  0  0  0  0  0  0
   14.6603  -10.3905    0.0000 C   0  0  0  0  0  0  0  0  0  0  0  0
   14.6603  -11.2155    0.0000 O   0  0  0  0  0  0  0  0  0  0  0  0
    9.6429  -12.9200    0.0000 C   0  0  0  0  0  0  0  0  0  0  0  0
    9.2304  -13.6344    0.0000 O   0  0  0  0  0  0  0  0  0  0  0  0
   14.2317  -10.9680    0.0000 O   0  0  0  0  0  0  0  0  0  0  0  0
   14.9461   -9.7305    0.0000 O   0  0  0  0  0  0  0  0  0  0  0  0
   15.6606   -9.3180    0.0000 C   0  0  0  0  0  0  0  0  0  0  0  0
   15.6606   -8.4930    0.0000 O   0  0  0  0  0  0  0  0  0  0  0  0
   16.3751   -9.7305    0.0000 C   0  0  0  0  0  0  0  0  0  0  0  0
    9.9448  -12.6180    0.0000 H   0  0  0  0  0  0  0  0  0  0  0  0
   12.8027  -10.1430    0.0000 H   0  0  0  0  0  0  0  0  0  0  0  0
   10.6593  -11.3805    0.0000 H   0  0  0  0  0  0  0  0  0  0  0  0
  1  2  1  0  0  0  0
  2  3  1  0  0  0  0
  3  4  1  0  0  0  0
  4  5  1  0  0  0  0
  5  6  1  0  0  0  0
  1  6  1  0  0  0  0
  7  8  2  0  0  0  0
  7  9  1  0  0  0  0
  2  7  1  6  0  0  0
 11 12  1  0  0  0  0
 12 13  1  0  0  0  0
 13 14  1  0  0  0  0
 14 15  1  0  0  0  0
 15 16  1  0  0  0  0
 11 16  1  0  0  0  0
 17 18  1  0  0  0  0
 16 17  1  6  0  0  0
 15 19  1  1  0  0  0
 14 20  1  6  0  0  0
 13 21  1  1  0  0  0
 12 10  1  6  0  0  0
  5 10  1  1  0  0  0
 23 24  1  0  0  0  0
 24 25  1  0  0  0  0
 25 26  1  0  0  0  0
 26 27  1  0  0  0  0
 27 28  1  0  0  0  0
 23 28  1  0  0  0  0
 29 30  1  0  0  0  0
 28 29  1  1  0  0  0
 27 31  1  6  0  0  0
 26 32  1  1  0  0  0
 25 33  1  6  0  0  0
 24 22  1  1  0  0  0
  3 22  1  1  0  0  0
  4 34  1  6  0  0  0
 36 37  1  0  0  0  0
 37 38  1  0  0  0  0
 38 39  1  0  0  0  0
 39 40  1  0  0  0  0
 40 41  1  0  0  0  0
 41 42  1  0  0  0  0
 42 43  1  0  0  0  0
 43 44  1  0  0  0  0
 44 45  1  0  0  0  0
 45 46  1  0  0  0  0
 46 47  1  0  0  0  0
 47 48  1  0  0  0  0
 48 49  1  0  0  0  0
 49 50  1  0  0  0  0
 50 51  1  0  0  0  0
 51 52  1  0  0  0  0
 47 52  1  0  0  0  0
 52 53  1  0  0  0  0
 44 53  1  0  0  0  0
 53 54  2  0  0  0  0
 54 55  1  0  0  0  0
 55 56  1  0  0  0  0
 43 56  1  0  0  0  0
 56 57  1  0  0  0  0
 40 57  1  0  0  0  0
 36 57  1  0  0  0  0
 59 60  1  0  0  0  0
 60 61  2  0  0  0  0
 61 62  1  0  0  0  0
 59 63  2  0  0  0  0
 60 64  1  0  0  0  0
 58 59  1  0  0  0  0
 49 58  1  1  0  0  0
 57 65  1  1  0  0  0
 50 66  1  0  0  0  0
 50 67  1  0  0  0  0
 44 68  1  6  0  0  0
 43 69  1  1  0  0  0
 39 70  1  1  0  0  0
 71 72  1  0  0  0  0
 47 71  1  1  0  0  0
 73 74  1  0  0  0  0
 39 73  1  6  0  0  0
 46 75  1  6  0  0  0
 77 78  2  0  0  0  0
 77 79  1  0  0  0  0
 76 77  1  0  0  0  0
 48 76  1  6  0  0  0
 38 35  1  1  0  0  0
  6 35  1  6  0  0  0
 40 80  1  6  0  0  0
 52 81  1  1  0  0  0
 56 82  1  6  0  0  0
M  END
>  <cdx:groupId>
6721

>  <cdx:fragmentId>
6541

$$$$
