4825.cdx
  Mrv1902 05222410212D          

 18 20  0  0  0  0            999 V2000
    2.0549   -2.6343    0.0000 C   0  0  0  0  0  0  0  0  0  0  0  0
    2.0549   -3.4593    0.0000 C   0  0  0  0  0  0  0  0  0  0  0  0
    2.7694   -3.8718    0.0000 C   0  0  0  0  0  0  0  0  0  0  0  0
    3.4838   -3.4593    0.0000 C   0  0  0  0  0  0  0  0  0  0  0  0
    4.1983   -3.8718    0.0000 C   0  0  0  0  0  0  0  0  0  0  0  0
    4.9128   -3.4593    0.0000 C   0  0  0  0  0  0  0  0  0  0  0  0
    4.9128   -2.6343    0.0000 C   0  0  0  0  0  0  0  0  0  0  0  0
    4.1983   -2.2218    0.0000 C   0  0  0  0  0  0  0  0  0  0  0  0
    3.4838   -2.6343    0.0000 C   0  0  0  0  0  0  0  0  0  0  0  0
    2.7694   -2.2218    0.0000 O   0  0  0  0  0  0  0  0  0  0  0  0
    5.5259   -2.0822    0.0000 O   0  0  0  0  0  0  0  0  0  0  0  0
    4.3698   -1.4148    0.0000 C   0  0  0  0  0  0  0  0  0  0  0  0
    5.1903   -1.3286    0.0000 C   0  0  0  0  0  0  0  0  0  0  0  0
    1.3404   -2.2218    0.0000 O   0  0  0  0  0  0  0  0  0  0  0  0
    5.6272   -3.8718    0.0000 O   0  0  0  0  0  0  0  0  0  0  0  0
    6.3417   -3.4593    0.0000 C   0  0  0  0  0  0  0  0  0  0  0  0
    4.1983   -4.6968    0.0000 O   0  0  0  0  0  0  0  0  0  0  0  0
    4.9128   -5.1093    0.0000 C   0  0  0  0  0  0  0  0  0  0  0  0
  1  2  1  0  0  0  0
  2  3  2  0  0  0  0
  3  4  1  0  0  0  0
  4  5  1  0  0  0  0
  5  6  2  0  0  0  0
  6  7  1  0  0  0  0
  7  8  2  0  0  0  0
  8  9  1  0  0  0  0
  4  9  2  0  0  0  0
  9 10  1  0  0  0  0
  1 10  1  0  0  0  0
 12 13  2  0  0  0  0
 11 13  1  0  0  0  0
 11  7  1  0  0  0  0
 12  8  1  0  0  0  0
  1 14  2  0  0  0  0
 15 16  1  0  0  0  0
  6 15  1  0  0  0  0
 17 18  1  0  0  0  0
  5 17  1  0  0  0  0
M  END
>  <cdx:groupId>
58

>  <cdx:fragmentId>
5

$$$$
