482788.cdx
  Mrv1902 05222410232D          

 21 23  0  0  0  0            999 V2000
    7.5250   -8.6515    0.0000 H   0  0  0  0  0  0  0  0  0  0  0  0
    6.8093   -7.4147    0.0000 H   0  0  0  0  0  0  0  0  0  0  0  0
    6.7255   -9.8852    0.0000 H   0  0  0  0  0  0  0  0  0  0  0  0
    9.6680   -8.2368    0.0000 O   0  0  0  0  0  0  0  0  0  0  0  0
    8.9540   -8.6500    0.0000 C   0  0  0  0  0  0  0  0  0  0  0  0
    5.7724  -10.1052    0.0000 C   0  0  0  0  0  0  0  0  0  0  0  0
    6.8085   -6.5897    0.0000 C   0  0  0  0  0  0  0  0  0  0  0  0
    4.7160   -8.6542    0.0000 O   0  0  0  0  0  0  0  0  0  0  0  0
    8.9532   -7.8251    0.0000 C   0  0  2  0  0  0  0  0  0  0  0  0
    8.9524   -7.0001    0.0000 C   0  0  0  0  0  0  0  0  0  0  0  0
    8.2375   -6.5883    0.0000 C   0  0  0  0  0  0  0  0  0  0  0  0
    7.5234   -7.0015    0.0000 C   0  0  0  0  0  0  0  0  0  0  0  0
    6.8102   -8.2397    0.0000 C   0  0  2  0  0  0  0  0  0  0  0  0
    7.5242   -7.8265    0.0000 C   0  0  2  0  0  0  0  0  0  0  0  0
    8.2391   -8.2383    0.0000 C   0  0  2  0  0  0  0  0  0  0  0  0
    8.2399   -9.0633    0.0000 C   0  0  0  0  0  0  0  0  0  0  0  0
    7.5259   -9.4765    0.0000 C   0  0  0  0  0  0  0  0  0  0  0  0
    6.8110   -9.0647    0.0000 C   0  0  1  0  0  0  0  0  0  0  0  0
    6.0266   -9.3204    0.0000 C   0  0  0  0  0  0  0  0  0  0  0  0
    5.5410   -8.6534    0.0000 C   0  0  0  0  0  0  0  0  0  0  0  0
    6.0253   -7.9855    0.0000 O   0  0  0  0  0  0  0  0  0  0  0  0
 13  1  1  1  0  0  0
 14  2  1  6  0  0  0
 18  3  1  6  0  0  0
  9  4  1  1  0  0  0
 15  5  1  1  0  0  0
 19  6  2  0  0  0  0
 12  7  2  0  0  0  0
 20  8  2  0  0  0  0
 12 14  1  0  0  0  0
  9 15  1  0  0  0  0
 10  9  1  0  0  0  0
 11 10  1  0  0  0  0
 12 11  1  0  0  0  0
 21 13  1  0  0  0  0
 18 13  1  0  0  0  0
 14 13  1  0  0  0  0
 15 14  1  0  0  0  0
 16 15  1  0  0  0  0
 17 16  1  0  0  0  0
 18 17  1  0  0  0  0
 19 18  1  0  0  0  0
 20 19  1  0  0  0  0
 21 20  1  0  0  0  0
M  END
>  <cdx:fragmentId>
5

$$$$
