482829.cdx
  Mrv1902 05222410232D          

 40 42  0  0  0  0            999 V2000
   11.9466   -7.7675    0.0000 O   0  0  0  0  0  0  0  0  0  0  0  0
   11.2495   -9.0149    0.0000 O   0  0  0  0  0  0  0  0  0  0  0  0
   11.2379   -8.1900    0.0000 C   0  0  0  0  0  0  0  0  0  0  0  0
   13.3638   -6.9226    0.0000 O   0  0  0  0  0  0  0  0  0  0  0  0
   13.3407   -5.2728    0.0000 O   0  0  0  0  0  0  0  0  0  0  0  0
   11.2033   -5.7153    0.0000 C   0  0  0  0  0  0  0  0  0  0  0  0
   11.9119   -5.2928    0.0000 C   0  0  0  0  0  0  0  0  0  0  0  0
   12.6321   -5.6952    0.0000 C   0  0  0  0  0  0  0  0  0  0  0  0
   12.6436   -6.5202    0.0000 C   0  0  0  0  0  0  0  0  0  0  0  0
   11.9350   -6.9426    0.0000 C   0  0  0  0  0  0  0  0  0  0  0  0
   11.2148   -6.5402    0.0000 C   0  0  0  0  0  0  0  0  0  0  0  0
   10.5062   -6.9626    0.0000 C   0  0  0  0  0  0  0  0  0  0  0  0
   10.5178   -7.7876    0.0000 C   0  0  1  0  0  0  0  0  0  0  0  0
    9.8091   -8.2100    0.0000 O   0  0  0  0  0  0  0  0  0  0  0  0
    9.0774   -6.9827    0.0000 O   0  0  0  0  0  0  0  0  0  0  0  0
    9.0890   -7.8076    0.0000 C   0  0  0  0  0  0  0  0  0  0  0  0
    8.3803   -8.2300    0.0000 C   0  0  0  0  0  0  0  0  0  0  0  0
    7.6602   -7.8276    0.0000 C   0  0  0  0  0  0  0  0  0  0  0  0
    4.8026   -7.8676    0.0000 O   0  0  0  0  0  0  0  0  0  0  0  0
    6.2545   -9.4974    0.0000 C   0  0  0  0  0  0  0  0  0  0  0  0
    6.9631   -9.0750    0.0000 C   0  0  0  0  0  0  0  0  0  0  0  0
    6.9515   -8.2501    0.0000 C   0  0  0  0  0  0  0  0  0  0  0  0
    6.2314   -7.8476    0.0000 C   0  0  0  0  0  0  0  0  0  0  0  0
    5.5227   -8.2701    0.0000 C   0  0  0  0  0  0  0  0  0  0  0  0
    5.5343   -9.0950    0.0000 C   0  0  0  0  0  0  0  0  0  0  0  0
    4.8257   -9.5175    0.0000 O   0  0  0  0  0  0  0  0  0  0  0  0
    1.2710  -10.8049    0.0000 O   0  0  0  0  0  0  0  0  0  0  0  0
    1.2479   -9.1550    0.0000 O   0  0  0  0  0  0  0  0  0  0  0  0
    3.3969   -9.5375    0.0000 C   0  0  0  0  0  0  0  0  0  0  0  0
    2.6767   -9.1350    0.0000 C   0  0  0  0  0  0  0  0  0  0  0  0
    1.9681   -9.5575    0.0000 C   0  0  0  0  0  0  0  0  0  0  0  0
    1.9796  -10.3824    0.0000 C   0  0  0  0  0  0  0  0  0  0  0  0
    2.6998  -10.7849    0.0000 C   0  0  0  0  0  0  0  0  0  0  0  0
    3.4084  -10.3624    0.0000 C   0  0  0  0  0  0  0  0  0  0  0  0
    4.1402  -11.5898    0.0000 O   0  0  0  0  0  0  0  0  0  0  0  0
    5.5690  -11.5697    0.0000 O   0  0  0  0  0  0  0  0  0  0  0  0
    6.2660  -10.3224    0.0000 O   0  0  0  0  0  0  0  0  0  0  0  0
    4.1286  -10.7648    0.0000 C   0  0  1  0  0  0  0  0  0  0  0  0
    4.8372  -10.3424    0.0000 C   0  0  2  0  0  0  0  0  0  0  0  0
    5.5574  -10.7448    0.0000 C   0  0  0  0  0  0  0  0  0  0  0  0
 39 26  1  0  0  0  0
 22 18  1  0  0  0  0
 16 14  1  0  0  0  0
 13  3  1  0  0  0  0
  3  1  1  0  0  0  0
  3  2  2  0  0  0  0
 12 11  1  0  0  0  0
  9  4  1  0  0  0  0
  8  5  1  0  0  0  0
 11  6  2  0  0  0  0
  7  6  1  0  0  0  0
  8  7  2  0  0  0  0
  9  8  1  0  0  0  0
 10  9  2  0  0  0  0
 11 10  1  0  0  0  0
 14 13  1  0  0  0  0
 13 12  1  6  0  0  0
 16 15  2  0  0  0  0
 17 16  1  0  0  0  0
 18 17  2  0  0  0  0
 24 19  1  0  0  0  0
 26 25  1  0  0  0  0
 25 20  2  0  0  0  0
 21 20  1  0  0  0  0
 22 21  2  0  0  0  0
 23 22  1  0  0  0  0
 24 23  2  0  0  0  0
 25 24  1  0  0  0  0
 38 34  1  0  0  0  0
 32 27  1  0  0  0  0
 31 28  1  0  0  0  0
 34 29  2  0  0  0  0
 30 29  1  0  0  0  0
 31 30  2  0  0  0  0
 32 31  1  0  0  0  0
 33 32  2  0  0  0  0
 34 33  1  0  0  0  0
 38 35  1  6  0  0  0
 40 36  1  0  0  0  0
 40 37  2  0  0  0  0
 39 38  1  0  0  0  0
 39 40  1  1  0  0  0
M  END
>  <cdx:fragmentId>
52194

$$$$
