4832.cdx
  Mrv1902 05222410202D          

 43 47  0  0  0  0            999 V2000
    4.7025   -9.2109    0.0000 O   0  0  0  0  0  0  0  0  0  0  0  0
    5.4130   -7.9711    0.0000 O   0  0  0  0  0  0  0  0  0  0  0  0
    4.6999   -8.3859    0.0000 C   0  0  2  0  0  0  0  0  0  0  0  0
    3.9841   -7.9757    0.0000 C   0  0  1  0  0  0  0  0  0  0  0  0
    3.9814   -7.1507    0.0000 C   0  0  2  0  0  0  0  0  0  0  0  0
    4.6946   -6.7359    0.0000 C   0  0  1  0  0  0  0  0  0  0  0  0
    5.4104   -7.1461    0.0000 C   0  0  1  0  0  0  0  0  0  0  0  0
    6.1209   -5.9063    0.0000 O   0  0  0  0  0  0  0  0  0  0  0  0
    7.5498   -5.9014    0.0000 O   0  0  0  0  0  0  0  0  0  0  0  0
    6.8339   -5.4914    0.0000 C   0  0  2  0  0  0  0  0  0  0  0  0
    6.8310   -4.6664    0.0000 C   0  0  1  0  0  0  0  0  0  0  0  0
    7.5441   -4.2514    0.0000 C   0  0  1  0  0  0  0  0  0  0  0  0
    8.2600   -4.6614    0.0000 C   0  0  2  0  0  0  0  0  0  0  0  0
    8.2628   -5.4864    0.0000 C   0  0  2  0  0  0  0  0  0  0  0  0
    8.9787   -5.8964    0.0000 C   0  0  0  0  0  0  0  0  0  0  0  0
    8.9730   -4.2464    0.0000 O   0  0  0  0  0  0  0  0  0  0  0  0
    7.5412   -3.4264    0.0000 O   0  0  0  0  0  0  0  0  0  0  0  0
    6.1151   -4.2563    0.0000 O   0  0  0  0  0  0  0  0  0  0  0  0
    4.6919   -5.9109    0.0000 O   0  0  0  0  0  0  0  0  0  0  0  0
    3.2657   -6.7405    0.0000 O   0  0  0  0  0  0  0  0  0  0  0  0
    3.2710   -8.3905    0.0000 O   0  0  0  0  0  0  0  0  0  0  0  0
    6.1315  -11.6859    0.0000 O   0  0  0  0  0  0  0  0  0  0  0  0
   11.1328   -7.9734    0.0000 O   0  0  0  0  0  0  0  0  0  0  0  0
    8.9894   -8.3859    0.0000 C   0  0  0  0  0  0  0  0  0  0  0  0
    9.7038   -7.9734    0.0000 C   0  0  0  0  0  0  0  0  0  0  0  0
   10.4183   -8.3859    0.0000 C   0  0  0  0  0  0  0  0  0  0  0  0
   10.4183   -9.2109    0.0000 C   0  0  0  0  0  0  0  0  0  0  0  0
    9.7038   -9.6234    0.0000 C   0  0  0  0  0  0  0  0  0  0  0  0
    8.9894   -9.2109    0.0000 C   0  0  0  0  0  0  0  0  0  0  0  0
    3.9881  -10.4484    0.0000 C   0  0  0  0  0  0  0  0  0  0  0  0
    4.7025  -10.8609    0.0000 O   0  0  0  0  0  0  0  0  0  0  0  0
    6.1235   -6.7313    0.0000 C   0  0  0  0  0  0  0  0  0  0  0  0
    7.5604  -11.6859    0.0000 O   0  0  0  0  0  0  0  0  0  0  0  0
    7.5604   -9.2109    0.0000 O   0  0  0  0  0  0  0  0  0  0  0  0
    6.8460   -9.6234    0.0000 C   0  0  0  0  0  0  0  0  0  0  0  0
    6.1315   -9.2109    0.0000 C   0  0  0  0  0  0  0  0  0  0  0  0
    5.4170   -9.6234    0.0000 C   0  0  0  0  0  0  0  0  0  0  0  0
    5.4170  -10.4484    0.0000 C   0  0  0  0  0  0  0  0  0  0  0  0
    6.1315  -10.8609    0.0000 C   0  0  0  0  0  0  0  0  0  0  0  0
    6.8460  -10.4484    0.0000 C   0  0  0  0  0  0  0  0  0  0  0  0
    7.5604  -10.8609    0.0000 C   0  0  0  0  0  0  0  0  0  0  0  0
    8.2749  -10.4484    0.0000 C   0  0  0  0  0  0  0  0  0  0  0  0
    8.2749   -9.6234    0.0000 C   0  0  0  0  0  0  0  0  0  0  0  0
 39 22  1  0  0  0  0
 43 29  1  0  0  0  0
 26 23  1  0  0  0  0
 29 24  2  0  0  0  0
 25 24  1  0  0  0  0
 26 25  2  0  0  0  0
 27 26  1  0  0  0  0
 28 27  2  0  0  0  0
 29 28  1  0  0  0  0
 38 31  1  0  0  0  0
 31 30  1  0  0  0  0
 37  1  1  0  0  0  0
 32  8  1  0  0  0  0
  2  3  1  0  0  0  0
 41 33  2  0  0  0  0
 43 34  1  0  0  0  0
 35 34  1  0  0  0  0
 40 35  2  0  0  0  0
 36 35  1  0  0  0  0
 37 36  2  0  0  0  0
 38 37  1  0  0  0  0
 39 38  2  0  0  0  0
 40 39  1  0  0  0  0
 41 40  1  0  0  0  0
 42 41  1  0  0  0  0
 43 42  2  0  0  0  0
  3  4  1  0  0  0  0
  4  5  1  0  0  0  0
  5  6  1  0  0  0  0
  6  7  1  0  0  0  0
  2  7  1  0  0  0  0
  9 10  1  0  0  0  0
 10 11  1  0  0  0  0
 11 12  1  0  0  0  0
 12 13  1  0  0  0  0
 13 14  1  0  0  0  0
  9 14  1  0  0  0  0
 14 15  1  6  0  0  0
 13 16  1  1  0  0  0
 12 17  1  6  0  0  0
 11 18  1  6  0  0  0
 10  8  1  1  0  0  0
  7 32  1  1  0  0  0
  6 19  1  6  0  0  0
  5 20  1  1  0  0  0
  4 21  1  6  0  0  0
  3  1  1  1  0  0  0
M  END
>  <cdx:fragmentId>
12506

$$$$
