4833.cdx
  Mrv1902 05222410212D          

 48 53  0  0  0  0            999 V2000
    3.2851   -5.9007    0.0000 O   0  0  0  0  0  0  0  0  0  0  0  0
    5.4319   -9.6112    0.0000 O   0  0  0  0  0  0  0  0  0  0  0  0
    3.2881   -9.2007    0.0000 C   0  0  0  0  0  0  0  0  0  0  0  0
    4.0029   -9.6125    0.0000 C   0  0  0  0  0  0  0  0  0  0  0  0
    4.7170   -9.1994    0.0000 C   0  0  0  0  0  0  0  0  0  0  0  0
    4.7163   -8.3744    0.0000 O   0  0  0  0  0  0  0  0  0  0  0  0
    2.5725   -7.9638    0.0000 C   0  0  0  0  0  0  0  0  0  0  0  0
    3.2874   -8.3757    0.0000 C   0  0  0  0  0  0  0  0  0  0  0  0
    4.0015   -7.9625    0.0000 C   0  0  0  0  0  0  0  0  0  0  0  0
    6.1464   -9.1987    0.0000 C   0  0  1  0  0  0  0  0  0  0  0  0
    6.1464   -8.3737    0.0000 C   0  0  2  0  0  0  0  0  0  0  0  0
    5.4319   -7.9612    0.0000 O   0  0  0  0  0  0  0  0  0  0  0  0
    4.0007   -7.1375    0.0000 C   0  0  0  0  0  0  0  0  0  0  0  0
    6.8608   -9.6112    0.0000 C   0  0  0  0  0  0  0  0  0  0  0  0
    7.5753   -9.1987    0.0000 C   0  0  1  0  0  0  0  0  0  0  0  0
    7.5753   -8.3737    0.0000 C   0  0  2  0  0  0  0  0  0  0  0  0
    6.8608   -7.9612    0.0000 C   0  0  0  0  0  0  0  0  0  0  0  0
    8.2898   -9.6112    0.0000 C   0  0  0  0  0  0  0  0  0  0  0  0
    9.0042   -9.1987    0.0000 C   0  0  0  0  0  0  0  0  0  0  0  0
    9.0042   -8.3737    0.0000 C   0  0  2  0  0  0  0  0  0  0  0  0
    8.2898   -7.9612    0.0000 C   0  0  2  0  0  0  0  0  0  0  0  0
    9.7187   -7.9612    0.0000 C   0  0  1  0  0  0  0  0  0  0  0  0
    9.7187   -7.1362    0.0000 C   0  0  0  0  0  0  0  0  0  0  0  0
    9.0042   -6.7237    0.0000 C   0  0  0  0  0  0  0  0  0  0  0  0
    8.2898   -7.1362    0.0000 C   0  0  0  0  0  0  0  0  0  0  0  0
   10.4332   -8.3737    0.0000 C   0  0  0  0  0  0  0  0  0  0  0  0
   11.1477   -7.9612    0.0000 C   0  0  0  0  0  0  0  0  0  0  0  0
   11.1477   -7.1362    0.0000 C   0  0  2  0  0  0  0  0  0  0  0  0
   10.4332   -6.7237    0.0000 C   0  0  1  0  0  0  0  0  0  0  0  0
   11.8621   -6.7237    0.0000 C   0  0  0  0  0  0  0  0  0  0  0  0
   11.8621   -5.8988    0.0000 C   0  0  0  0  0  0  0  0  0  0  0  0
   11.1477   -5.4863    0.0000 C   0  0  0  0  0  0  0  0  0  0  0  0
   10.4332   -5.8988    0.0000 C   0  0  0  0  0  0  0  0  0  0  0  0
    3.2859   -6.7257    0.0000 C   0  0  0  0  0  0  0  0  0  0  0  0
    2.5718   -7.1388    0.0000 C   0  0  0  0  0  0  0  0  0  0  0  0
   11.8621   -7.5488    0.0000 C   0  0  0  0  0  0  0  0  0  0  0  0
   12.5766   -7.1362    0.0000 O   0  0  0  0  0  0  0  0  0  0  0  0
   11.8621   -8.3737    0.0000 O   0  0  0  0  0  0  0  0  0  0  0  0
    6.4483  -10.3257    0.0000 C   0  0  0  0  0  0  0  0  0  0  0  0
    7.5753   -7.5488    0.0000 C   0  0  0  0  0  0  0  0  0  0  0  0
    9.0042   -7.5488    0.0000 C   0  0  0  0  0  0  0  0  0  0  0  0
   10.4332   -7.5488    0.0000 H   0  0  0  0  0  0  0  0  0  0  0  0
   10.7352   -4.7718    0.0000 C   0  0  0  0  0  0  0  0  0  0  0  0
    7.2733  -10.3257    0.0000 C   0  0  0  0  0  0  0  0  0  0  0  0
    7.5753  -10.0238    0.0000 H   0  0  0  0  0  0  0  0  0  0  0  0
    8.2898   -8.7862    0.0000 H   0  0  0  0  0  0  0  0  0  0  0  0
    9.7187   -8.7862    0.0000 C   0  0  0  0  0  0  0  0  0  0  0  0
   11.5602   -4.7718    0.0000 C   0  0  0  0  0  0  0  0  0  0  0  0
 34  1  1  0  0  0  0
  5  2  1  0  0  0  0
  3  8  1  0  0  0  0
  4  3  2  0  0  0  0
  5  4  1  0  0  0  0
  6  5  2  0  0  0  0
  7 35  1  0  0  0  0
  8  7  2  0  0  0  0
  9  8  1  0  0  0  0
 13  9  2  0  0  0  0
 34 13  1  0  0  0  0
 35 34  2  0  0  0  0
 10  2  1  1  0  0  0
 10 11  1  0  0  0  0
 11 12  1  6  0  0  0
 10 14  1  0  0  0  0
 14 15  1  0  0  0  0
 15 16  1  0  0  0  0
 16 17  1  0  0  0  0
 17 11  1  0  0  0  0
 15 18  1  0  0  0  0
 18 19  1  0  0  0  0
 19 20  1  0  0  0  0
 20 21  1  0  0  0  0
 21 16  1  0  0  0  0
 20 22  1  0  0  0  0
 22 23  1  0  0  0  0
 23 24  2  0  0  0  0
 24 25  1  0  0  0  0
 25 21  1  0  0  0  0
 22 26  1  0  0  0  0
 26 27  1  0  0  0  0
 27 28  1  0  0  0  0
 28 29  1  0  0  0  0
 29 23  1  0  0  0  0
 28 30  1  0  0  0  0
 30 31  1  0  0  0  0
 31 32  1  0  0  0  0
 32 33  1  0  0  0  0
 33 29  1  0  0  0  0
 28 36  1  1  0  0  0
 36 37  1  0  0  0  0
 36 38  2  0  0  0  0
 14 39  1  0  0  0  0
 16 40  1  1  0  0  0
 20 41  1  1  0  0  0
 29 42  1  1  0  0  0
 32 43  1  0  0  0  0
 14 44  1  0  0  0  0
 15 45  1  6  0  0  0
 21 46  1  6  0  0  0
 22 47  1  6  0  0  0
 32 48  1  0  0  0  0
M  END
>  <cdx:fragmentId>
5

$$$$
