4834.cdx
  Mrv1902 05222410222D          

 49 54  0  0  0  0            999 V2000
   10.9919   -8.1077    0.0000 C   0  0  1  0  0  0  0  0  0  0  0  0
   11.7063   -8.5202    0.0000 C   0  0  1  0  0  0  0  0  0  0  0  0
   11.7063   -9.3452    0.0000 C   0  0  0  0  0  0  0  0  0  0  0  0
   10.9919   -9.7577    0.0000 C   0  0  0  0  0  0  0  0  0  0  0  0
   10.2774   -9.3452    0.0000 C   0  0  1  0  0  0  0  0  0  0  0  0
    9.5629   -9.7577    0.0000 C   0  0  2  0  0  0  0  0  0  0  0  0
    9.5629  -10.5827    0.0000 C   0  0  0  0  0  0  0  0  0  0  0  0
    8.8484  -10.9952    0.0000 C   0  0  0  0  0  0  0  0  0  0  0  0
    8.1340  -10.5827    0.0000 C   0  0  1  0  0  0  0  0  0  0  0  0
    7.4195  -10.9952    0.0000 C   0  0  0  0  0  0  0  0  0  0  0  0
    6.7050  -10.5827    0.0000 C   0  0  2  0  0  0  0  0  0  0  0  0
    6.7050   -9.7577    0.0000 C   0  0  1  0  0  0  0  0  0  0  0  0
    7.4195   -9.3452    0.0000 C   0  0  0  0  0  0  0  0  0  0  0  0
    8.1340   -9.7577    0.0000 C   0  0  2  0  0  0  0  0  0  0  0  0
    8.8484   -9.3452    0.0000 C   0  0  1  0  0  0  0  0  0  0  0  0
    8.8484   -8.5202    0.0000 C   0  0  0  0  0  0  0  0  0  0  0  0
    9.5629   -8.1077    0.0000 C   0  0  0  0  0  0  0  0  0  0  0  0
   10.2774   -8.5202    0.0000 C   0  0  2  0  0  0  0  0  0  0  0  0
   12.3194   -7.9682    0.0000 C   0  0  0  0  0  0  0  0  0  0  0  0
   11.9839   -7.2145    0.0000 C   0  0  0  0  0  0  0  0  0  0  0  0
   11.1634   -7.3007    0.0000 C   0  0  1  0  0  0  0  0  0  0  0  0
   12.4600   -8.8558    0.0000 C   0  0  0  0  0  0  0  0  0  0  0  0
   12.4600   -9.6808    0.0000 O   0  0  0  0  0  0  0  0  0  0  0  0
   13.1274   -8.3708    0.0000 O   0  0  0  0  0  0  0  0  0  0  0  0
   10.8663   -5.9030    0.0000 C   0  0  0  0  0  0  0  0  0  0  0  0
   10.6114   -6.6876    0.0000 C   0  0  0  0  0  0  0  0  0  0  0  0
    9.8044   -6.8592    0.0000 C   0  0  0  0  0  0  0  0  0  0  0  0
    8.1340   -8.9327    0.0000 C   0  0  0  0  0  0  0  0  0  0  0  0
    7.8320  -11.7097    0.0000 C   0  0  0  0  0  0  0  0  0  0  0  0
    7.0070  -11.7097    0.0000 C   0  0  0  0  0  0  0  0  0  0  0  0
    9.5629   -8.9327    0.0000 C   0  0  0  0  0  0  0  0  0  0  0  0
   10.2774  -10.1702    0.0000 C   0  0  0  0  0  0  0  0  0  0  0  0
    5.9906   -9.3452    0.0000 O   0  0  0  0  0  0  0  0  0  0  0  0
    5.9906  -10.9952    0.0000 O   0  0  0  0  0  0  0  0  0  0  0  0
    8.1340  -11.4077    0.0000 H   0  0  0  0  0  0  0  0  0  0  0  0
    8.8484  -10.1702    0.0000 H   0  0  0  0  0  0  0  0  0  0  0  0
   10.2774   -7.6952    0.0000 H   0  0  0  0  0  0  0  0  0  0  0  0
   10.9919   -8.9327    0.0000 H   0  0  0  0  0  0  0  0  0  0  0  0
    5.2761  -10.5827    0.0000 C   0  0  0  0  0  0  0  0  0  0  0  0
    4.5616  -10.9952    0.0000 C   0  0  0  0  0  0  0  0  0  0  0  0
    5.2761   -9.7577    0.0000 O   0  0  0  0  0  0  0  0  0  0  0  0
    0.9893  -12.2327    0.0000 O   0  0  0  0  0  0  0  0  0  0  0  0
    2.4182  -10.5827    0.0000 C   0  0  0  0  0  0  0  0  0  0  0  0
    1.7037  -10.9952    0.0000 C   0  0  0  0  0  0  0  0  0  0  0  0
    1.7037  -11.8202    0.0000 C   0  0  0  0  0  0  0  0  0  0  0  0
    2.4182  -12.2327    0.0000 C   0  0  0  0  0  0  0  0  0  0  0  0
    3.1327  -11.8202    0.0000 C   0  0  0  0  0  0  0  0  0  0  0  0
    3.1327  -10.9952    0.0000 C   0  0  0  0  0  0  0  0  0  0  0  0
    3.8471  -10.5827    0.0000 C   0  0  0  0  0  0  0  0  0  0  0  0
  1  2  1  0  0  0  0
  2  3  1  0  0  0  0
  3  4  1  0  0  0  0
  4  5  1  0  0  0  0
  5  6  1  0  0  0  0
  6  7  1  0  0  0  0
  7  8  1  0  0  0  0
  8  9  1  0  0  0  0
  9 10  1  0  0  0  0
 10 11  1  0  0  0  0
 11 12  1  0  0  0  0
 12 13  1  0  0  0  0
 13 14  1  0  0  0  0
  9 14  1  0  0  0  0
 14 15  1  0  0  0  0
  6 15  1  0  0  0  0
 15 16  1  0  0  0  0
 16 17  1  0  0  0  0
 17 18  1  0  0  0  0
  5 18  1  0  0  0  0
  1 18  1  0  0  0  0
 19 20  1  0  0  0  0
 20 21  1  0  0  0  0
 21  1  1  0  0  0  0
 19  2  1  0  0  0  0
 22 23  2  0  0  0  0
 22 24  1  0  0  0  0
  2 22  1  1  0  0  0
 25 26  2  0  0  0  0
 26 27  1  0  0  0  0
 21 26  1  6  0  0  0
 14 28  1  1  0  0  0
 10 29  1  0  0  0  0
 10 30  1  0  0  0  0
  6 31  1  1  0  0  0
  5 32  1  6  0  0  0
 12 33  1  6  0  0  0
 11 34  1  1  0  0  0
  9 35  1  6  0  0  0
 15 36  1  6  0  0  0
 18 37  1  1  0  0  0
  1 38  1  6  0  0  0
 34 39  1  0  0  0  0
 39 40  1  0  0  0  0
 39 41  2  0  0  0  0
 45 42  1  0  0  0  0
 40 49  2  0  0  0  0
 43 48  1  0  0  0  0
 44 43  2  0  0  0  0
 45 44  1  0  0  0  0
 46 45  2  0  0  0  0
 47 46  1  0  0  0  0
 48 47  2  0  0  0  0
 49 48  1  0  0  0  0
M  END
>  <cdx:fragmentId>
67744

$$$$
