483514.cdx
  Mrv1902 05222410262D          

 23 25  0  0  0  0            999 V2000
    5.4077   -6.2450    0.0000 C   0  0  0  0  0  0  0  0  0  0  0  0
    5.4077   -7.0700    0.0000 C   0  0  0  0  0  0  0  0  0  0  0  0
    6.1222   -7.4825    0.0000 C   0  0  0  0  0  0  0  0  0  0  0  0
    6.8366   -7.0700    0.0000 C   0  0  0  0  0  0  0  0  0  0  0  0
    7.5511   -7.4825    0.0000 C   0  0  0  0  0  0  0  0  0  0  0  0
    8.2656   -7.0700    0.0000 C   0  0  0  0  0  0  0  0  0  0  0  0
    8.2656   -6.2450    0.0000 C   0  0  0  0  0  0  0  0  0  0  0  0
    7.5511   -5.8325    0.0000 C   0  0  0  0  0  0  0  0  0  0  0  0
    6.8366   -6.2450    0.0000 C   0  0  0  0  0  0  0  0  0  0  0  0
    6.1222   -5.8325    0.0000 O   0  0  0  0  0  0  0  0  0  0  0  0
    9.0502   -5.9901    0.0000 O   0  0  0  0  0  0  0  0  0  0  0  0
    9.0502   -7.3250    0.0000 C   0  0  0  0  0  0  0  0  0  0  0  0
    9.5351   -6.6575    0.0000 C   0  0  0  0  0  0  0  0  0  0  0  0
    4.6932   -5.8325    0.0000 O   0  0  0  0  0  0  0  0  0  0  0  0
    7.5511   -8.3075    0.0000 O   0  0  0  0  0  0  0  0  0  0  0  0
    8.2656   -8.7200    0.0000 C   0  0  0  0  0  0  0  0  0  0  0  0
    8.2656   -9.5450    0.0000 C   0  0  0  0  0  0  0  0  0  0  0  0
    8.9800   -9.9575    0.0000 C   0  0  0  0  0  0  0  0  0  0  0  0
    9.3925   -9.2431    0.0000 C   0  0  0  0  0  0  0  0  0  0  0  0
    9.8050   -9.9575    0.0000 C   0  0  0  0  0  0  0  0  0  0  0  0
    8.9800  -10.7825    0.0000 O   0  0  0  0  0  0  0  0  0  0  0  0
    9.6945  -11.1950    0.0000 C   0  0  0  0  0  0  0  0  0  0  0  0
    7.5511   -9.9575    0.0000 O   0  0  0  0  0  0  0  0  0  0  0  0
  1  2  1  0  0  0  0
  2  3  2  0  0  0  0
  3  4  1  0  0  0  0
  4  5  2  0  0  0  0
  5  6  1  0  0  0  0
  6  7  2  0  0  0  0
  7  8  1  0  0  0  0
  8  9  2  0  0  0  0
  4  9  1  0  0  0  0
  9 10  1  0  0  0  0
  1 10  1  0  0  0  0
 12 13  2  0  0  0  0
 11 13  1  0  0  0  0
 12  6  1  0  0  0  0
 11  7  1  0  0  0  0
  1 14  2  0  0  0  0
 16 17  1  0  0  0  0
 17 18  1  0  0  0  0
 18 19  1  0  0  0  0
 15 16  1  0  0  0  0
 18 20  1  0  0  0  0
 21 22  1  0  0  0  0
 18 21  1  0  0  0  0
 17 23  1  0  0  0  0
  5 15  1  0  0  0  0
M  END
>  <cdx:fragmentId>
5

$$$$
