4838.cdx
  Mrv1902 05222410242D          

107116  0  0  0  0            999 V2000
    4.9559  -13.0494    0.0000 C   0  0  1  0  0  0  0  0  0  0  0  0
    5.6704  -12.6369    0.0000 C   0  0  1  0  0  0  0  0  0  0  0  0
    5.6704  -11.8119    0.0000 C   0  0  1  0  0  0  0  0  0  0  0  0
    4.9559  -11.3994    0.0000 C   0  0  0  0  0  0  0  0  0  0  0  0
    4.2414  -11.8119    0.0000 C   0  0  0  0  0  0  0  0  0  0  0  0
    4.2414  -12.6369    0.0000 O   0  0  0  0  0  0  0  0  0  0  0  0
    6.4550  -11.5569    0.0000 C   0  0  0  0  0  0  0  0  0  0  0  0
    6.9399  -12.2244    0.0000 C   0  0  1  0  0  0  0  0  0  0  0  0
    6.4550  -12.8918    0.0000 C   0  0  2  0  0  0  0  0  0  0  0  0
    4.9559  -10.5744    0.0000 C   0  0  0  0  0  0  0  0  0  0  0  0
    5.6704  -10.1619    0.0000 O   0  0  0  0  0  0  0  0  0  0  0  0
    4.2414  -10.1619    0.0000 O   0  0  0  0  0  0  0  0  0  0  0  0
    4.9559  -13.8744    0.0000 O   0  0  0  0  0  0  0  0  0  0  0  0
    3.5269  -13.8744    0.0000 O   0  0  0  0  0  0  0  0  0  0  0  0
    4.2414  -14.2869    0.0000 C   0  0  2  0  0  0  0  0  0  0  0  0
    4.2414  -15.1119    0.0000 C   0  0  1  0  0  0  0  0  0  0  0  0
    3.5269  -15.5244    0.0000 C   0  0  2  0  0  0  0  0  0  0  0  0
    2.8125  -15.1119    0.0000 C   0  0  1  0  0  0  0  0  0  0  0  0
    2.8125  -14.2869    0.0000 C   0  0  1  0  0  0  0  0  0  0  0  0
    2.0980  -13.8744    0.0000 C   0  0  0  0  0  0  0  0  0  0  0  0
    1.3835  -14.2869    0.0000 O   0  0  0  0  0  0  0  0  0  0  0  0
    2.0980  -15.5244    0.0000 O   0  0  0  0  0  0  0  0  0  0  0  0
    3.5269  -16.3494    0.0000 O   0  0  0  0  0  0  0  0  0  0  0  0
    4.9559  -15.5244    0.0000 O   0  0  0  0  0  0  0  0  0  0  0  0
    6.7099  -13.6764    0.0000 C   0  0  0  0  0  0  0  0  0  0  0  0
    7.7649  -12.2244    0.0000 O   0  0  0  0  0  0  0  0  0  0  0  0
    8.1774  -11.5099    0.0000 C   0  0  0  0  0  0  0  0  0  0  0  0
    7.7649  -10.7954    0.0000 O   0  0  0  0  0  0  0  0  0  0  0  0
   10.6524  -11.5099    0.0000 C   0  0  1  0  0  0  0  0  0  0  0  0
   10.2399  -10.7954    0.0000 C   0  0  1  0  0  0  0  0  0  0  0  0
    9.4149  -10.7954    0.0000 C   0  0  1  0  0  0  0  0  0  0  0  0
    9.0024  -11.5099    0.0000 C   0  0  0  0  0  0  0  0  0  0  0  0
    9.4149  -12.2244    0.0000 C   0  0  0  0  0  0  0  0  0  0  0  0
   10.2399  -12.2244    0.0000 O   0  0  0  0  0  0  0  0  0  0  0  0
   10.6524  -10.0809    0.0000 C   0  0  0  0  0  0  0  0  0  0  0  0
   11.4774  -10.0809    0.0000 C   0  0  0  0  0  0  0  0  0  0  0  0
    9.0024  -10.0809    0.0000 C   0  0  0  0  0  0  0  0  0  0  0  0
    8.1774  -10.0815    0.0000 C   0  0  0  0  0  0  0  0  0  0  0  0
    7.7649   -9.3670    0.0000 C   0  0  0  0  0  0  0  0  0  0  0  0
    6.9399   -9.3670    0.0000 C   0  0  0  0  0  0  0  0  0  0  0  0
    6.5274  -10.0815    0.0000 O   0  0  0  0  0  0  0  0  0  0  0  0
    9.4149   -7.9381    0.0000 C   0  0  1  0  0  0  0  0  0  0  0  0
    9.0024   -8.6525    0.0000 C   0  0  1  0  0  0  0  0  0  0  0  0
    8.1774   -8.6525    0.0000 C   0  0  1  0  0  0  0  0  0  0  0  0
    7.7649   -7.9381    0.0000 C   0  0  0  0  0  0  0  0  0  0  0  0
    8.1774   -7.2236    0.0000 C   0  0  0  0  0  0  0  0  0  0  0  0
    9.0024   -7.2236    0.0000 O   0  0  0  0  0  0  0  0  0  0  0  0
    9.4149   -9.3670    0.0000 C   0  0  0  0  0  0  0  0  0  0  0  0
   10.2399   -9.3670    0.0000 C   0  0  0  0  0  0  0  0  0  0  0  0
    6.9399   -7.9381    0.0000 C   0  0  0  0  0  0  0  0  0  0  0  0
    6.5274   -8.6525    0.0000 O   0  0  0  0  0  0  0  0  0  0  0  0
    6.5274   -7.2236    0.0000 O   0  0  0  0  0  0  0  0  0  0  0  0
    3.7184   -6.3986    0.0000 C   0  0  1  0  0  0  0  0  0  0  0  0
    4.4329   -6.8111    0.0000 C   0  0  1  0  0  0  0  0  0  0  0  0
    4.4329   -7.6361    0.0000 C   0  0  1  0  0  0  0  0  0  0  0  0
    3.7184   -8.0486    0.0000 C   0  0  0  0  0  0  0  0  0  0  0  0
    3.0039   -7.6361    0.0000 C   0  0  0  0  0  0  0  0  0  0  0  0
    3.0039   -6.8111    0.0000 O   0  0  0  0  0  0  0  0  0  0  0  0
    5.2175   -7.8910    0.0000 C   0  0  0  0  0  0  0  0  0  0  0  0
    5.7024   -7.2236    0.0000 C   0  0  2  0  0  0  0  0  0  0  0  0
    5.2175   -6.5562    0.0000 C   0  0  1  0  0  0  0  0  0  0  0  0
    5.4724   -5.7715    0.0000 C   0  0  0  0  0  0  0  0  0  0  0  0
    3.7184   -8.8736    0.0000 C   0  0  0  0  0  0  0  0  0  0  0  0
    3.0039   -9.2861    0.0000 O   0  0  0  0  0  0  0  0  0  0  0  0
    4.4329   -9.2861    0.0000 O   0  0  0  0  0  0  0  0  0  0  0  0
    5.7566  -10.9914    0.0000 H   0  0  0  0  0  0  0  0  0  0  0  0
    5.7566  -13.4573    0.0000 H   0  0  0  0  0  0  0  0  0  0  0  0
    4.5191   -8.4566    0.0000 H   0  0  0  0  0  0  0  0  0  0  0  0
    4.5191   -5.9906    0.0000 H   0  0  0  0  0  0  0  0  0  0  0  0
   13.1274  -11.5138    0.0000 O   0  0  0  0  0  0  0  0  0  0  0  0
   13.9490  -12.9447    0.0000 O   0  0  0  0  0  0  0  0  0  0  0  0
   13.1207  -14.3717    0.0000 O   0  0  0  0  0  0  0  0  0  0  0  0
   11.8832  -15.0822    0.0000 O   0  0  0  0  0  0  0  0  0  0  0  0
   11.4707  -14.3678    0.0000 C   0  0  0  0  0  0  0  0  0  0  0  0
   11.8848  -13.6543    0.0000 C   0  0  2  0  0  0  0  0  0  0  0  0
   12.7098  -13.6562    0.0000 C   0  0  2  0  0  0  0  0  0  0  0  0
   13.1240  -12.9427    0.0000 C   0  0  1  0  0  0  0  0  0  0  0  0
   12.7132  -12.2273    0.0000 C   0  0  2  0  0  0  0  0  0  0  0  0
   11.8882  -12.2253    0.0000 C   0  0  1  0  0  0  0  0  0  0  0  0
   11.4740  -12.9388    0.0000 O   0  0  0  0  0  0  0  0  0  0  0  0
   11.4774  -11.5099    0.0000 O   0  0  0  0  0  0  0  0  0  0  0  0
    9.3923   -6.5224    0.0000 O   0  0  0  0  0  0  0  0  0  0  0  0
   10.1944   -5.0805    0.0000 O   0  0  0  0  0  0  0  0  0  0  0  0
   11.8442   -5.0543    0.0000 O   0  0  0  0  0  0  0  0  0  0  0  0
   13.1043   -5.7554    0.0000 O   0  0  0  0  0  0  0  0  0  0  0  0
   12.6918   -6.4699    0.0000 C   0  0  0  0  0  0  0  0  0  0  0  0
   11.8669   -6.4830    0.0000 C   0  0  2  0  0  0  0  0  0  0  0  0
   11.4431   -5.7752    0.0000 C   0  0  2  0  0  0  0  0  0  0  0  0
   10.6182   -5.7884    0.0000 C   0  0  1  0  0  0  0  0  0  0  0  0
   10.2172   -6.5093    0.0000 C   0  0  2  0  0  0  0  0  0  0  0  0
   10.6410   -7.2171    0.0000 C   0  0  1  0  0  0  0  0  0  0  0  0
   11.4659   -7.2040    0.0000 O   0  0  0  0  0  0  0  0  0  0  0  0
   10.2399   -7.9381    0.0000 O   0  0  0  0  0  0  0  0  0  0  0  0
    2.2766   -6.3760    0.0000 O   0  0  0  0  0  0  0  0  0  0  0  0
    0.8609   -5.5286    0.0000 O   0  0  0  0  0  0  0  0  0  0  0  0
    0.8868   -3.8788    0.0000 O   0  0  0  0  0  0  0  0  0  0  0  0
    1.6207   -2.6527    0.0000 O   0  0  0  0  0  0  0  0  0  0  0  0
    2.3286   -3.0764    0.0000 C   0  0  0  0  0  0  0  0  0  0  0  0
    2.3156   -3.9013    0.0000 C   0  0  2  0  0  0  0  0  0  0  0  0
    1.5947   -4.3025    0.0000 C   0  0  2  0  0  0  0  0  0  0  0  0
    1.5817   -5.1274    0.0000 C   0  0  1  0  0  0  0  0  0  0  0  0
    2.2896   -5.5511    0.0000 C   0  0  2  0  0  0  0  0  0  0  0  0
    3.0105   -5.1499    0.0000 C   0  0  1  0  0  0  0  0  0  0  0  0
    3.0235   -4.3250    0.0000 O   0  0  0  0  0  0  0  0  0  0  0  0
    3.7184   -5.5736    0.0000 O   0  0  0  0  0  0  0  0  0  0  0  0
    5.6704   -9.3369    0.0000 C   0  0  0  0  0  0  0  0  0  0  0  0
    3.0039  -10.1111    0.0000 C   0  0  0  0  0  0  0  0  0  0  0  0
 79 81  1  1  0  0  0
 78 70  1  6  0  0  0
 77 71  1  1  0  0  0
 76 72  1  6  0  0  0
 75 74  1  1  0  0  0
 74 73  1  0  0  0  0
 80 75  1  0  0  0  0
 76 75  1  0  0  0  0
 77 76  1  0  0  0  0
 78 77  1  0  0  0  0
 79 78  1  0  0  0  0
 80 79  1  0  0  0  0
 91 93  1  1  0  0  0
 90 82  1  6  0  0  0
 89 83  1  1  0  0  0
 88 84  1  6  0  0  0
 87 86  1  1  0  0  0
 86 85  1  0  0  0  0
 92 87  1  0  0  0  0
 88 87  1  0  0  0  0
 89 88  1  0  0  0  0
 90 89  1  0  0  0  0
 91 90  1  0  0  0  0
 92 91  1  0  0  0  0
103105  1  1  0  0  0
102 94  1  6  0  0  0
101 95  1  1  0  0  0
100 96  1  6  0  0  0
 99 98  1  1  0  0  0
 98 97  1  0  0  0  0
104 99  1  0  0  0  0
100 99  1  0  0  0  0
101100  1  0  0  0  0
102101  1  0  0  0  0
103102  1  0  0  0  0
104103  1  0  0  0  0
  1  2  1  0  0  0  0
  2  3  1  0  0  0  0
  3  4  1  0  0  0  0
  4  5  2  0  0  0  0
  5  6  1  0  0  0  0
  1  6  1  0  0  0  0
  7  8  1  0  0  0  0
  8  9  1  0  0  0  0
  9  2  1  0  0  0  0
  7  3  1  0  0  0  0
 10 11  1  0  0  0  0
 10 12  2  0  0  0  0
  4 10  1  0  0  0  0
 14 15  1  0  0  0  0
 15 16  1  0  0  0  0
 16 17  1  0  0  0  0
 17 18  1  0  0  0  0
 18 19  1  0  0  0  0
 14 19  1  0  0  0  0
 20 21  1  0  0  0  0
 19 20  1  1  0  0  0
 18 22  1  6  0  0  0
 17 23  1  1  0  0  0
 16 24  1  6  0  0  0
 15 13  1  1  0  0  0
  1 13  1  6  0  0  0
  9 25  1  6  0  0  0
 27 28  2  0  0  0  0
 29 30  1  0  0  0  0
 30 31  1  0  0  0  0
 31 32  1  0  0  0  0
 32 33  2  0  0  0  0
 33 34  1  0  0  0  0
 29 34  1  0  0  0  0
 27 32  1  0  0  0  0
 29 81  1  6  0  0  0
 35 36  2  0  0  0  0
 30 35  1  1  0  0  0
 38 39  2  0  0  0  0
 39 40  1  0  0  0  0
 40 41  2  0  0  0  0
 42 43  1  0  0  0  0
 43 44  1  0  0  0  0
 44 45  1  0  0  0  0
 45 46  2  0  0  0  0
 46 47  1  0  0  0  0
 42 47  1  0  0  0  0
 42 93  1  1  0  0  0
 48 49  2  0  0  0  0
 43 48  1  6  0  0  0
 50 51  2  0  0  0  0
 53 54  1  0  0  0  0
 54 55  1  0  0  0  0
 55 56  1  0  0  0  0
 56 57  2  0  0  0  0
 57 58  1  0  0  0  0
 53 58  1  0  0  0  0
 59 60  1  0  0  0  0
 60 61  1  0  0  0  0
 61 54  1  0  0  0  0
 59 55  1  0  0  0  0
 53105  1  1  0  0  0
 61 62  1  6  0  0  0
 63 64  1  0  0  0  0
 63 65  2  0  0  0  0
 56 63  1  0  0  0  0
 60 52  1  6  0  0  0
 50 52  1  0  0  0  0
 45 50  1  0  0  0  0
 44 39  1  6  0  0  0
 31 37  1  1  0  0  0
 26 27  1  0  0  0  0
  8 26  1  6  0  0  0
  3 66  1  6  0  0  0
  2 67  1  6  0  0  0
 55 68  1  1  0  0  0
 54 69  1  1  0  0  0
 37 38  1  0  0  0  0
 11106  1  0  0  0  0
 64107  1  0  0  0  0
M  END
>  <cdx:fragmentId>
12979

$$$$
