10483858.cdx
  Mrv1902 05222410232D          

 45 48  0  0  0  0            999 V2000
   10.2925  -14.0850    0.0000 N   0  0  0  0  0  0  0  0  0  0  0  0
    9.5780  -13.6725    0.0000 C   0  0  0  0  0  0  0  0  0  0  0  0
    9.5780  -12.8475    0.0000 C   0  0  1  0  0  0  0  0  0  0  0  0
    8.8635  -12.4350    0.0000 N   0  0  0  0  0  0  0  0  0  0  0  0
    8.1490  -12.8475    0.0000 C   0  0  0  0  0  0  0  0  0  0  0  0
    7.4346  -12.4350    0.0000 C   0  0  0  0  0  0  0  0  0  0  0  0
    6.7201  -12.8475    0.0000 N   0  0  0  0  0  0  0  0  0  0  0  0
    6.7201  -13.6725    0.0000 C   0  0  0  0  0  0  0  0  0  0  0  0
    6.0056  -14.0850    0.0000 C   0  0  1  0  0  0  0  0  0  0  0  0
    6.0056  -14.9100    0.0000 N   0  0  0  0  0  0  0  0  0  0  0  0
    6.7201  -15.3225    0.0000 C   0  0  0  0  0  0  0  0  0  0  0  0
    6.7201  -16.1475    0.0000 C   0  0  1  0  0  0  0  0  0  0  0  0
    7.4346  -16.5600    0.0000 N   0  0  0  0  0  0  0  0  0  0  0  0
    8.1490  -16.1475    0.0000 C   0  0  0  0  0  0  0  0  0  0  0  0
    8.8635  -16.5600    0.0000 C   0  0  1  0  0  0  0  0  0  0  0  0
    9.5780  -16.1475    0.0000 N   0  0  0  0  0  0  0  0  0  0  0  0
    9.5780  -15.3225    0.0000 C   0  0  0  0  0  0  0  0  0  0  0  0
   10.2925  -14.9100    0.0000 C   0  0  2  0  0  0  0  0  0  0  0  0
   11.0771  -15.1650    0.0000 C   0  0  0  0  0  0  0  0  0  0  0  0
   11.5620  -14.4975    0.0000 C   0  0  0  0  0  0  0  0  0  0  0  0
   11.0771  -13.8301    0.0000 C   0  0  0  0  0  0  0  0  0  0  0  0
    8.8635  -14.0850    0.0000 O   0  0  0  0  0  0  0  0  0  0  0  0
    8.1490  -13.6725    0.0000 O   0  0  0  0  0  0  0  0  0  0  0  0
    7.4346  -14.0850    0.0000 O   0  0  0  0  0  0  0  0  0  0  0  0
    7.4346  -14.9100    0.0000 O   0  0  0  0  0  0  0  0  0  0  0  0
    8.1490  -15.3225    0.0000 O   0  0  0  0  0  0  0  0  0  0  0  0
    8.8635  -14.9100    0.0000 O   0  0  0  0  0  0  0  0  0  0  0  0
    8.1490  -17.7975    0.0000 C   0  0  0  0  0  0  0  0  0  0  0  0
    8.8635  -17.3850    0.0000 C   0  0  0  0  0  0  0  0  0  0  0  0
    9.5780  -17.7975    0.0000 C   0  0  0  0  0  0  0  0  0  0  0  0
   10.2925  -11.6100    0.0000 C   0  0  0  0  0  0  0  0  0  0  0  0
   10.2925  -12.4350    0.0000 C   0  0  0  0  0  0  0  0  0  0  0  0
   11.0069  -12.8475    0.0000 C   0  0  0  0  0  0  0  0  0  0  0  0
    5.2912  -13.6725    0.0000 C   0  0  0  0  0  0  0  0  0  0  0  0
    6.0056  -16.5600    0.0000 C   0  0  0  0  0  0  0  0  0  0  0  0
    4.3979  -15.1555    0.0000 N   0  0  0  0  0  0  0  0  0  0  0  0
    5.2049  -15.3271    0.0000 C   0  0  0  0  0  0  0  0  0  0  0  0
    5.2912  -16.1475    0.0000 C   0  0  0  0  0  0  0  0  0  0  0  0
    4.5375  -16.4831    0.0000 C   0  0  0  0  0  0  0  0  0  0  0  0
    4.2825  -17.2677    0.0000 C   0  0  0  0  0  0  0  0  0  0  0  0
    3.4756  -17.4393    0.0000 C   0  0  0  0  0  0  0  0  0  0  0  0
    2.9235  -16.8262    0.0000 C   0  0  0  0  0  0  0  0  0  0  0  0
    3.1785  -16.0415    0.0000 C   0  0  0  0  0  0  0  0  0  0  0  0
    3.9854  -15.8700    0.0000 C   0  0  0  0  0  0  0  0  0  0  0  0
   10.3787  -15.7305    0.0000 H   0  0  0  0  0  0  0  0  0  0  0  0
  1  2  1  0  0  0  0
  2  3  1  0  0  0  0
  3  4  1  0  0  0  0
  4  5  1  0  0  0  0
  5  6  1  0  0  0  0
  6  7  1  0  0  0  0
  7  8  1  0  0  0  0
  8  9  1  0  0  0  0
  9 10  1  0  0  0  0
 10 11  1  0  0  0  0
 11 12  1  0  0  0  0
 12 13  1  0  0  0  0
 13 14  1  0  0  0  0
 14 15  1  0  0  0  0
 15 16  1  0  0  0  0
 16 17  1  0  0  0  0
 17 18  1  0  0  0  0
 18 19  1  0  0  0  0
 19 20  1  0  0  0  0
 20 21  1  0  0  0  0
  1 21  1  0  0  0  0
  1 18  1  0  0  0  0
  2 22  2  0  0  0  0
  5 23  2  0  0  0  0
  8 24  2  0  0  0  0
 11 25  2  0  0  0  0
 14 26  2  0  0  0  0
 17 27  2  0  0  0  0
 28 29  1  0  0  0  0
 29 30  1  0  0  0  0
 15 29  1  1  0  0  0
 31 32  1  0  0  0  0
 32 33  1  0  0  0  0
  3 32  1  1  0  0  0
  9 34  1  1  0  0  0
 36 37  1  0  0  0  0
 37 38  2  0  0  0  0
 38 39  1  0  0  0  0
 39 40  1  0  0  0  0
 40 41  2  0  0  0  0
 41 42  1  0  0  0  0
 42 43  2  0  0  0  0
 43 44  1  0  0  0  0
 36 44  1  0  0  0  0
 39 44  2  0  0  0  0
 35 38  1  0  0  0  0
 12 35  1  1  0  0  0
 18 45  1  6  0  0  0
M  END
>  <cdx:groupId>
52402

>  <cdx:fragmentId>
52267

$$$$
