483998.cdx
  Mrv1902 05222410202D          

 33 35  0  0  0  0            999 V2000
   10.1901   -8.6589    0.0000 N   0  0  0  0  0  0  0  0  0  0  0  0
    9.4756   -9.0714    0.0000 C   0  0  0  0  0  0  0  0  0  0  0  0
    8.7611   -8.6589    0.0000 C   0  0  0  0  0  0  0  0  0  0  0  0
    8.0467   -9.0714    0.0000 C   0  0  0  0  0  0  0  0  0  0  0  0
    7.3322   -8.6589    0.0000 C   0  0  0  0  0  0  0  0  0  0  0  0
    7.3322   -7.8339    0.0000 C   0  0  0  0  0  0  0  0  0  0  0  0
    8.0467   -7.4214    0.0000 C   0  0  0  0  0  0  0  0  0  0  0  0
    8.7611   -7.8339    0.0000 C   0  0  0  0  0  0  0  0  0  0  0  0
    9.4756   -9.8964    0.0000 O   0  0  0  0  0  0  0  0  0  0  0  0
    1.5747   -6.1215    0.0000 N   0  0  0  0  0  0  0  0  0  0  0  0
    4.4325   -8.5965    0.0000 C   0  0  0  0  0  0  0  0  0  0  0  0
    3.0036   -8.5965    0.0000 O   0  0  0  0  0  0  0  0  0  0  0  0
    3.7181   -6.5340    0.0000 C   0  0  0  0  0  0  0  0  0  0  0  0
    4.4325   -6.1215    0.0000 N   0  0  0  0  0  0  0  0  0  0  0  0
    5.1470   -6.5340    0.0000 C   0  0  0  0  0  0  0  0  0  0  0  0
    5.1470   -7.3590    0.0000 C   0  0  0  0  0  0  0  0  0  0  0  0
    4.4325   -7.7715    0.0000 N   0  0  0  0  0  0  0  0  0  0  0  0
    3.7181   -7.3590    0.0000 C   0  0  0  0  0  0  0  0  0  0  0  0
    3.0036   -7.7715    0.0000 C   0  0  0  0  0  0  0  0  0  0  0  0
    2.2891   -7.3590    0.0000 N   0  0  0  0  0  0  0  0  0  0  0  0
    2.2891   -6.5340    0.0000 C   0  0  0  0  0  0  0  0  0  0  0  0
    3.0036   -6.1215    0.0000 N   0  0  0  0  0  0  0  0  0  0  0  0
   12.3349  -11.5454    0.0000 O   0  0  0  0  0  0  0  0  0  0  0  0
   10.9060  -11.5460    0.0000 O   0  0  0  0  0  0  0  0  0  0  0  0
   12.3337   -9.0704    0.0000 O   0  0  0  0  0  0  0  0  0  0  0  0
   11.6186   -7.8332    0.0000 O   0  0  0  0  0  0  0  0  0  0  0  0
   11.6202  -11.1332    0.0000 C   0  0  0  0  0  0  0  0  0  0  0  0
   11.6198  -10.3082    0.0000 C   0  0  0  0  0  0  0  0  0  0  0  0
   10.9052   -9.8960    0.0000 C   0  0  0  0  0  0  0  0  0  0  0  0
   10.9048   -9.0710    0.0000 C   0  0  2  0  0  0  0  0  0  0  0  0
   11.6190   -8.6582    0.0000 C   0  0  0  0  0  0  0  0  0  0  0  0
    5.8615   -7.7715    0.0000 C   0  0  0  0  0  0  0  0  0  0  0  0
    6.5760   -7.3590    0.0000 N   0  0  0  0  0  0  0  0  0  0  0  0
 30  1  1  1  0  0  0
 27 23  1  0  0  0  0
 27 24  2  0  0  0  0
 21 10  1  0  0  0  0
 17 11  1  0  0  0  0
 19 12  2  0  0  0  0
 18 13  2  0  0  0  0
 22 13  1  0  0  0  0
 14 13  1  0  0  0  0
 15 14  1  0  0  0  0
 16 15  1  0  0  0  0
 17 16  1  0  0  0  0
 18 17  1  0  0  0  0
 19 18  1  0  0  0  0
 20 19  1  0  0  0  0
 21 20  1  0  0  0  0
 22 21  2  0  0  0  0
 31 25  1  0  0  0  0
 31 26  2  0  0  0  0
 28 27  1  0  0  0  0
 29 28  1  0  0  0  0
 30 29  1  0  0  0  0
 30 31  1  0  0  0  0
  2  3  1  0  0  0  0
  3  4  1  0  0  0  0
  4  5  2  0  0  0  0
  5  6  1  0  0  0  0
  6  7  2  0  0  0  0
  7  8  1  0  0  0  0
  3  8  2  0  0  0  0
  2  9  2  0  0  0  0
  1  2  1  0  0  0  0
 16 32  1  0  0  0  0
 32 33  1  0  0  0  0
  6 33  1  0  0  0  0
M  END
>  <cdx:fragmentId>
45

$$$$
