484010.cdx
  Mrv1902 05222410192D          

 41 46  0  0  0  0            999 V2000
    5.4951   -4.9165    0.0000 O   0  0  0  0  0  0  0  0  0  0  0  0
    4.0617   -7.3879    0.0000 O   0  0  0  0  0  0  0  0  0  0  0  0
    9.0525  -11.9387    0.0000 O   0  0  0  0  0  0  0  0  0  0  0  0
   11.1992   -9.8818    0.0000 C   0  0  0  0  0  0  0  0  0  0  0  0
   10.4857   -9.4672    0.0000 O   0  0  0  0  0  0  0  0  0  0  0  0
    7.6241  -11.9349    0.0000 O   0  0  0  0  0  0  0  0  0  0  0  0
    9.7692  -10.7030    0.0000 C   0  0  0  0  0  0  0  0  0  0  0  0
    9.7707   -9.8778    0.0000 C   0  0  0  0  0  0  0  0  0  0  0  0
    9.0573   -9.4635    0.0000 C   0  0  0  0  0  0  0  0  0  0  0  0
    9.0541  -11.1137    0.0000 C   0  0  0  0  0  0  0  0  0  0  0  0
    7.6288   -9.4597    0.0000 O   0  0  0  0  0  0  0  0  0  0  0  0
    8.3423   -9.8741    0.0000 C   0  0  0  0  0  0  0  0  0  0  0  0
    8.3406  -10.6991    0.0000 C   0  0  0  0  0  0  0  0  0  0  0  0
    7.6256  -11.1097    0.0000 C   0  0  0  0  0  0  0  0  0  0  0  0
    6.9138   -9.8703    0.0000 C   0  0  0  0  0  0  0  0  0  0  0  0
    6.9122  -10.6954    0.0000 C   0  0  0  0  0  0  0  0  0  0  0  0
    4.0600   -8.2129    0.0000 O   0  0  0  0  0  0  0  0  0  0  0  0
    6.2020   -8.6310    0.0000 C   0  0  0  0  0  0  0  0  0  0  0  0
    6.2005   -9.4560    0.0000 C   0  0  0  0  0  0  0  0  0  0  0  0
    5.4853   -9.8668    0.0000 C   0  0  0  0  0  0  0  0  0  0  0  0
    4.7718   -9.4523    0.0000 C   0  0  0  0  0  0  0  0  0  0  0  0
    5.4887   -8.2165    0.0000 C   0  0  0  0  0  0  0  0  0  0  0  0
    4.7734   -8.6273    0.0000 C   0  0  0  0  0  0  0  0  0  0  0  0
   10.4873   -8.6422    0.0000 O   0  0  0  0  0  0  0  0  0  0  0  0
    9.0621   -6.9884    0.0000 C   0  0  0  0  0  0  0  0  0  0  0  0
    9.7756   -7.4028    0.0000 C   0  0  0  0  0  0  0  0  0  0  0  0
    9.7739   -8.2277    0.0000 C   0  0  0  0  0  0  0  0  0  0  0  0
    9.0589   -8.6384    0.0000 C   0  0  0  0  0  0  0  0  0  0  0  0
    8.3471   -7.3990    0.0000 C   0  0  0  0  0  0  0  0  0  0  0  0
    8.3455   -8.2241    0.0000 C   0  0  0  0  0  0  0  0  0  0  0  0
    6.9236   -4.9202    0.0000 O   0  0  0  0  0  0  0  0  0  0  0  0
    4.7769   -6.9771    0.0000 C   0  0  0  0  0  0  0  0  0  0  0  0
    4.7785   -6.1522    0.0000 C   0  0  0  0  0  0  0  0  0  0  0  0
    5.4935   -5.7416    0.0000 C   0  0  0  0  0  0  0  0  0  0  0  0
    5.4902   -7.3915    0.0000 C   0  0  0  0  0  0  0  0  0  0  0  0
    6.9187   -7.3953    0.0000 O   0  0  0  0  0  0  0  0  0  0  0  0
    6.2052   -6.9809    0.0000 C   0  0  0  0  0  0  0  0  0  0  0  0
    6.2069   -6.1559    0.0000 C   0  0  0  0  0  0  0  0  0  0  0  0
    6.9219   -5.7452    0.0000 C   0  0  0  0  0  0  0  0  0  0  0  0
    7.6337   -6.9847    0.0000 C   0  0  0  0  0  0  0  0  0  0  0  0
    7.6353   -6.1596    0.0000 C   0  0  0  0  0  0  0  0  0  0  0  0
 34  1  1  0  0  0  0
 32  2  1  0  0  0  0
 35 22  1  0  0  0  0
 19 15  1  0  0  0  0
 10  3  1  0  0  0  0
  8  5  1  0  0  0  0
  5  4  1  0  0  0  0
 14  6  2  0  0  0  0
 10  7  1  0  0  0  0
  8  7  2  0  0  0  0
  9  8  1  0  0  0  0
 12  9  2  0  0  0  0
 13 10  2  0  0  0  0
 15 11  1  0  0  0  0
 12 11  1  0  0  0  0
 13 12  1  0  0  0  0
 14 13  1  0  0  0  0
 16 14  1  0  0  0  0
 16 15  2  0  0  0  0
 23 17  1  0  0  0  0
 22 18  2  0  0  0  0
 19 18  1  0  0  0  0
 20 19  2  0  0  0  0
 21 20  1  0  0  0  0
 23 21  2  0  0  0  0
 23 22  1  0  0  0  0
 40 29  1  0  0  0  0
 27 24  1  0  0  0  0
 29 25  2  0  0  0  0
 26 25  1  0  0  0  0
 27 26  2  0  0  0  0
 28 27  1  0  0  0  0
 30 28  2  0  0  0  0
 30 29  1  0  0  0  0
 39 31  2  0  0  0  0
 35 32  1  0  0  0  0
 33 32  2  0  0  0  0
 34 33  1  0  0  0  0
 38 34  2  0  0  0  0
 37 35  2  0  0  0  0
 40 36  1  0  0  0  0
 37 36  1  0  0  0  0
 38 37  1  0  0  0  0
 39 38  1  0  0  0  0
 41 39  1  0  0  0  0
 41 40  2  0  0  0  0
M  END
>  <cdx:fragmentId>
18576

$$$$
