484182.cdx
  Mrv1902 05222410272D          

 30 35  0  0  0  0            999 V2000
    9.1730   -7.6163    0.0000 H   0  0  0  0  0  0  0  0  0  0  0  0
    7.0426   -6.3555    0.0000 H   0  0  0  0  0  0  0  0  0  0  0  0
    8.4455   -8.8454    0.0000 O   0  0  0  0  0  0  0  0  0  0  0  0
    9.1647   -8.4413    0.0000 O   0  0  0  0  0  0  0  0  0  0  0  0
    7.0517   -5.5311    0.0000 O   0  0  0  0  0  0  0  0  0  0  0  0
   10.0067   -6.8002    0.0000 C   0  0  0  0  0  0  0  0  0  0  0  0
    9.5866   -7.5102    0.0000 C   0  0  0  0  0  0  0  0  0  0  0  0
    7.7617   -5.9512    0.0000 C   0  0  1  0  0  0  0  0  0  0  0  0
    8.4806   -5.5463    0.0000 C   0  0  0  0  0  0  0  0  0  0  0  0
    9.1906   -5.9664    0.0000 C   0  0  0  0  0  0  0  0  0  0  0  0
    9.1818   -6.7914    0.0000 C   0  0  0  0  0  0  0  0  0  0  0  0
    8.4629   -7.1962    0.0000 C   0  0  1  0  0  0  0  0  0  0  0  0
    8.4547   -8.0212    0.0000 C   0  0  1  0  0  0  0  0  0  0  0  0
    7.7354   -8.4253    0.0000 C   0  0  2  0  0  0  0  0  0  0  0  0
    7.7000   -7.5900    0.0000 O   0  0  0  0  0  0  0  0  0  0  0  0
    7.0338   -7.1805    0.0000 C   0  0  1  0  0  0  0  0  0  0  0  0
    7.7529   -6.7761    0.0000 C   0  0  1  0  0  0  0  0  0  0  0  0
    6.3193   -7.5930    0.0000 O   0  0  0  0  0  0  0  0  0  0  0  0
    7.0210   -8.8378    0.0000 C   0  0  2  0  0  0  0  0  0  0  0  0
    6.3193   -8.4180    0.0000 C   0  0  2  0  0  0  0  0  0  0  0  0
    5.7032   -8.9555    0.0000 C   0  0  0  0  0  0  0  0  0  0  0  0
    6.0241   -9.7076    0.0000 C   0  0  0  0  0  0  0  0  0  0  0  0
    6.8385   -9.6348    0.0000 C   0  0  0  0  0  0  0  0  0  0  0  0
    5.5683   -8.0766    0.0000 H   0  0  0  0  0  0  0  0  0  0  0  0
    5.6005  -10.4155    0.0000 C   0  0  0  0  0  0  0  0  0  0  0  0
    7.3809  -10.2565    0.0000 O   0  0  0  0  0  0  0  0  0  0  0  0
    7.1225   -9.6250    0.0000 C   0  0  1  0  0  0  0  0  0  0  0  0
    6.5391  -10.2084    0.0000 C   0  0  0  0  0  0  0  0  0  0  0  0
    5.7475   -9.7625    0.0000 C   0  0  0  0  0  0  0  0  0  0  0  0
    7.9034   -9.8912    0.0000 H   0  0  0  0  0  0  0  0  0  0  0  0
 12  1  1  6  0  0  0
 16  2  1  1  0  0  0
 14  3  1  1  0  0  0
 13  4  1  6  0  0  0
  8  5  1  1  0  0  0
 11  6  1  0  0  0  0
 11  7  1  0  0  0  0
 16 15  1  0  0  0  0
 15 14  1  0  0  0  0
 17 12  1  0  0  0  0
 17  8  1  6  0  0  0
  9  8  1  0  0  0  0
 10  9  1  0  0  0  0
 11 10  1  0  0  0  0
 12 11  1  0  0  0  0
 13 12  1  0  0  0  0
 14 13  1  0  0  0  0
 17 16  1  0  0  0  0
 16 18  1  0  0  0  0
 14 19  1  0  0  0  0
 18 20  1  0  0  0  0
 20 19  1  0  0  0  0
 20 21  1  0  0  0  0
 21 22  1  0  0  0  0
 22 23  1  0  0  0  0
 19 23  1  1  0  0  0
 20 24  1  1  0  0  0
 22 25  2  0  0  0  0
 23 26  2  0  0  0  0
 19 27  1  0  0  0  0
 27 28  1  0  0  0  0
 28 29  1  0  0  0  0
 21 29  1  0  0  0  0
 27 30  1  1  0  0  0
 27 17  1  0  0  0  0
M  END
>  <cdx:fragmentId>
136

$$$$
