4841.cdx
  Mrv1902 05222410202D          

 33 36  0  0  0  0            999 V2000
    4.5965   -7.3184    0.0000 C   0  0  0  0  0  0  0  0  0  0  0  0
    5.3110   -7.7308    0.0000 C   0  0  0  0  0  0  0  0  0  0  0  0
    6.0254   -7.3182    0.0000 C   0  0  0  0  0  0  0  0  0  0  0  0
    6.0253   -6.4932    0.0000 C   0  0  0  0  0  0  0  0  0  0  0  0
    5.3108   -6.0808    0.0000 C   0  0  0  0  0  0  0  0  0  0  0  0
    4.5964   -6.4934    0.0000 C   0  0  0  0  0  0  0  0  0  0  0  0
    6.7400   -7.7306    0.0000 C   0  0  0  0  0  0  0  0  0  0  0  0
    7.4544   -7.3180    0.0000 C   0  0  0  0  0  0  0  0  0  0  0  0
    7.4543   -6.4930    0.0000 C   0  0  0  0  0  0  0  0  0  0  0  0
    6.7397   -6.0806    0.0000 O   0  0  0  0  0  0  0  0  0  0  0  0
    8.1687   -6.0804    0.0000 C   0  0  0  0  0  0  0  0  0  0  0  0
    8.1686   -5.2554    0.0000 C   0  0  0  0  0  0  0  0  0  0  0  0
    8.8832   -6.4928    0.0000 C   0  0  0  0  0  0  0  0  0  0  0  0
    9.5976   -6.0802    0.0000 C   0  0  0  0  0  0  0  0  0  0  0  0
    9.5975   -5.2552    0.0000 C   0  0  0  0  0  0  0  0  0  0  0  0
    8.8830   -4.8428    0.0000 C   0  0  0  0  0  0  0  0  0  0  0  0
    6.7401   -8.5556    0.0000 O   0  0  0  0  0  0  0  0  0  0  0  0
    7.4546   -8.9680    0.0000 O   0  0  0  0  0  0  0  0  0  0  0  0
    8.1690   -8.5554    0.0000 C   0  0  1  0  0  0  0  0  0  0  0  0
    8.1689   -7.7304    0.0000 O   0  0  0  0  0  0  0  0  0  0  0  0
    7.4547   -9.7930    0.0000 C   0  0  1  0  0  0  0  0  0  0  0  0
    8.1692  -10.2054    0.0000 C   0  0  2  0  0  0  0  0  0  0  0  0
    8.8837   -9.7928    0.0000 C   0  0  1  0  0  0  0  0  0  0  0  0
    8.8835   -8.9678    0.0000 C   0  0  1  0  0  0  0  0  0  0  0  0
    5.3111   -8.5558    0.0000 O   0  0  0  0  0  0  0  0  0  0  0  0
    3.8819   -6.0810    0.0000 O   0  0  0  0  0  0  0  0  0  0  0  0
    8.8829   -4.0178    0.0000 O   0  0  0  0  0  0  0  0  0  0  0  0
   10.3119   -4.8426    0.0000 O   0  0  0  0  0  0  0  0  0  0  0  0
    6.7403  -10.2056    0.0000 C   0  0  0  0  0  0  0  0  0  0  0  0
    6.7404  -11.0306    0.0000 O   0  0  0  0  0  0  0  0  0  0  0  0
    9.5982  -10.2052    0.0000 O   0  0  0  0  0  0  0  0  0  0  0  0
    8.1693  -11.0304    0.0000 O   0  0  0  0  0  0  0  0  0  0  0  0
    9.5980   -8.5552    0.0000 O   0  0  0  0  0  0  0  0  0  0  0  0
  1  2  1  0  0  0  0
  2  3  2  0  0  0  0
  3  4  1  0  0  0  0
  4  5  2  0  0  0  0
  5  6  1  0  0  0  0
  6  1  2  0  0  0  0
  3  7  1  0  0  0  0
  7  8  1  0  0  0  0
  8  9  2  0  0  0  0
  9 10  1  0  0  0  0
 10  4  1  0  0  0  0
  9 11  1  0  0  0  0
 11 12  2  0  0  0  0
 11 13  1  0  0  0  0
 13 14  2  0  0  0  0
 14 15  1  0  0  0  0
 15 16  2  0  0  0  0
 16 12  1  0  0  0  0
  7 17  2  0  0  0  0
 18 19  1  0  0  0  0
 19 20  1  1  0  0  0
 20  8  1  0  0  0  0
 18 21  1  0  0  0  0
 21 22  1  0  0  0  0
 22 23  1  0  0  0  0
 23 24  1  0  0  0  0
 24 19  1  0  0  0  0
  2 25  1  0  0  0  0
  6 26  1  0  0  0  0
 16 27  1  0  0  0  0
 15 28  1  0  0  0  0
 21 29  1  1  0  0  0
 29 30  1  0  0  0  0
 23 31  1  1  0  0  0
 22 32  1  6  0  0  0
 24 33  1  6  0  0  0
M  END
>  <cdx:fragmentId>
5

$$$$
