484222.cdx
  Mrv1902 05222410272D          

 19 19  0  0  0  0            999 V2000
    9.4316   -5.6805    0.0000 C   0  0  2  0  0  0  0  0  0  0  0  0
   10.1552   -6.0766    0.0000 C   0  0  0  0  0  0  0  0  0  0  0  0
   10.8697   -5.6641    0.0000 C   0  0  0  0  0  0  0  0  0  0  0  0
    9.4128   -4.8557    0.0000 O   0  0  0  0  0  0  0  0  0  0  0  0
    5.8883   -6.9989    0.0000 C   0  0  0  0  0  0  0  0  0  0  0  0
    5.1834   -7.4276    0.0000 C   0  0  0  0  0  0  0  0  0  0  0  0
    7.9842   -4.8882    0.0000 C   0  0  0  0  0  0  0  0  0  0  0  0
    8.6704   -3.6348    0.0000 O   0  0  0  0  0  0  0  0  0  0  0  0
    8.6891   -4.4596    0.0000 C   0  0  0  0  0  0  0  0  0  0  0  0
    7.3448   -8.5998    0.0000 C   0  0  0  0  0  0  0  0  0  0  0  0
    8.0593   -8.1873    0.0000 O   0  0  0  0  0  0  0  0  0  0  0  0
    7.2981   -6.1416    0.0000 C   0  0  0  0  0  0  0  0  0  0  0  0
    8.0030   -5.7130    0.0000 C   0  0  0  0  0  0  0  0  0  0  0  0
    8.7267   -6.1091    0.0000 C   0  0  0  0  0  0  0  0  0  0  0  0
    8.7454   -6.9339    0.0000 C   0  0  0  0  0  0  0  0  0  0  0  0
    8.0405   -7.3626    0.0000 C   0  0  0  0  0  0  0  0  0  0  0  0
    7.3169   -6.9664    0.0000 C   0  0  0  0  0  0  0  0  0  0  0  0
    6.6120   -7.3951    0.0000 O   0  0  0  0  0  0  0  0  0  0  0  0
    5.8695   -6.1741    0.0000 O   0  0  0  0  0  0  0  0  0  0  0  0
 18 17  1  0  0  0  0
 14  1  1  0  0  0  0
  9  7  1  0  0  0  0
  9  8  2  0  0  0  0
 16 11  1  0  0  0  0
 11 10  1  0  0  0  0
 17 12  2  0  0  0  0
 13 12  1  0  0  0  0
 14 13  2  0  0  0  0
 15 14  1  0  0  0  0
 16 15  2  0  0  0  0
 17 16  1  0  0  0  0
  5 18  1  0  0  0  0
  1  2  1  0  0  0  0
  2  3  2  0  0  0  0
  4  9  1  0  0  0  0
  1  4  1  1  0  0  0
  5  6  1  0  0  0  0
  5 19  2  0  0  0  0
M  END
>  <cdx:groupId>
5813

>  <cdx:fragmentId>
5767

$$$$
