484423.cdx
  Mrv1902 05222410282D          

 25 27  0  0  0  0            999 V2000
    8.7045   -6.1209    0.0000 C   0  0  2  0  0  0  0  0  0  0  0  0
    8.7045   -6.9459    0.0000 C   0  0  0  0  0  0  0  0  0  0  0  0
    7.9900   -7.3584    0.0000 C   0  0  0  0  0  0  0  0  0  0  0  0
    7.2755   -6.9459    0.0000 C   0  0  0  0  0  0  0  0  0  0  0  0
    6.5610   -7.3584    0.0000 C   0  0  0  0  0  0  0  0  0  0  0  0
    5.8466   -6.9459    0.0000 C   0  0  0  0  0  0  0  0  0  0  0  0
    5.8466   -6.1209    0.0000 C   0  0  0  0  0  0  0  0  0  0  0  0
    6.5610   -5.7084    0.0000 C   0  0  0  0  0  0  0  0  0  0  0  0
    7.2755   -6.1209    0.0000 C   0  0  0  0  0  0  0  0  0  0  0  0
    7.9900   -5.7084    0.0000 O   0  0  0  0  0  0  0  0  0  0  0  0
    7.9900   -8.1834    0.0000 O   0  0  0  0  0  0  0  0  0  0  0  0
    4.4176   -9.4209    0.0000 C   0  0  0  0  0  0  0  0  0  0  0  0
    5.1321   -5.7084    0.0000 O   0  0  0  0  0  0  0  0  0  0  0  0
    4.4176   -6.1209    0.0000 C   0  0  0  0  0  0  0  0  0  0  0  0
    9.4189   -5.7084    0.0000 C   0  0  0  0  0  0  0  0  0  0  0  0
   10.1334   -6.1209    0.0000 C   0  0  0  0  0  0  0  0  0  0  0  0
   10.8479   -5.7084    0.0000 C   0  0  0  0  0  0  0  0  0  0  0  0
   10.8479   -4.8834    0.0000 C   0  0  0  0  0  0  0  0  0  0  0  0
   10.1334   -4.4709    0.0000 C   0  0  0  0  0  0  0  0  0  0  0  0
    9.4189   -4.8834    0.0000 C   0  0  0  0  0  0  0  0  0  0  0  0
   11.5623   -4.4709    0.0000 O   0  0  0  0  0  0  0  0  0  0  0  0
    3.7032   -8.1834    0.0000 C   0  0  0  0  0  0  0  0  0  0  0  0
    4.4176   -8.5959    0.0000 C   0  0  0  0  0  0  0  0  0  0  0  0
    5.1321   -8.1834    0.0000 C   0  0  0  0  0  0  0  0  0  0  0  0
    5.1321   -7.3584    0.0000 C   0  0  0  0  0  0  0  0  0  0  0  0
 23 12  1  0  0  0  0
 23 22  1  0  0  0  0
 24 23  2  0  0  0  0
 25 24  1  0  0  0  0
  1  2  1  0  0  0  0
  2  3  1  0  0  0  0
  3  4  1  0  0  0  0
  4  5  1  0  0  0  0
  5  6  2  0  0  0  0
  6  7  1  0  0  0  0
  7  8  2  0  0  0  0
  8  9  1  0  0  0  0
  4  9  2  0  0  0  0
  9 10  1  0  0  0  0
  1 10  1  0  0  0  0
  3 11  2  0  0  0  0
  6 25  1  0  0  0  0
 13 14  1  0  0  0  0
  7 13  1  0  0  0  0
 15 16  1  0  0  0  0
 16 17  2  0  0  0  0
 17 18  1  0  0  0  0
 18 19  2  0  0  0  0
 19 20  1  0  0  0  0
 15 20  2  0  0  0  0
 18 21  1  0  0  0  0
  1 15  1  6  0  0  0
M  END
>  <cdx:groupId>
79

>  <cdx:fragmentId>
5

$$$$
