102004844.cdx
  Mrv1902 05222410182D          

 49 54  0  0  0  0            999 V2000
   11.3602  -13.3658    0.0000 O   0  0  0  0  0  0  0  0  0  0  0  0
   10.8081  -13.9789    0.0000 C   0  0  1  0  0  0  0  0  0  0  0  0
   10.0545  -13.6433    0.0000 C   0  0  0  0  0  0  0  0  0  0  0  0
   10.1407  -12.8228    0.0000 C   0  0  0  0  0  0  0  0  0  0  0  0
   10.9477  -12.6513    0.0000 C   0  0  0  0  0  0  0  0  0  0  0  0
    9.3400  -14.0558    0.0000 O   0  0  0  0  0  0  0  0  0  0  0  0
   12.0981  -11.7686    0.0000 C   0  0  0  0  0  0  0  0  0  0  0  0
   11.2832  -11.8976    0.0000 C   0  0  0  0  0  0  0  0  0  0  0  0
   10.7983  -11.2302    0.0000 C   0  0  0  0  0  0  0  0  0  0  0  0
   11.3602  -14.5919    0.0000 C   0  0  0  0  0  0  0  0  0  0  0  0
    6.9107  -15.8434    0.0000 C   0  0  0  0  0  0  0  0  0  0  0  0
    6.1962  -16.2559    0.0000 C   0  0  1  0  0  0  0  0  0  0  0  0
    6.1962  -17.0809    0.0000 C   0  0  2  0  0  0  0  0  0  0  0  0
    6.9107  -17.4934    0.0000 C   0  0  0  0  0  0  0  0  0  0  0  0
    7.6252  -17.0809    0.0000 C   0  0  0  0  0  0  0  0  0  0  0  0
    8.3396  -17.4934    0.0000 C   0  0  0  0  0  0  0  0  0  0  0  0
    9.0541  -17.0809    0.0000 C   0  0  0  0  0  0  0  0  0  0  0  0
    9.0541  -16.2559    0.0000 C   0  0  1  0  0  0  0  0  0  0  0  0
    9.7686  -15.8434    0.0000 C   0  0  2  0  0  0  0  0  0  0  0  0
   10.5532  -16.0984    0.0000 C   0  0  0  0  0  0  0  0  0  0  0  0
   11.0381  -15.4309    0.0000 C   0  0  2  0  0  0  0  0  0  0  0  0
   10.5532  -14.7635    0.0000 C   0  0  1  0  0  0  0  0  0  0  0  0
    9.7686  -15.0184    0.0000 C   0  0  1  0  0  0  0  0  0  0  0  0
    9.0541  -14.6059    0.0000 C   0  0  0  0  0  0  0  0  0  0  0  0
    8.3396  -15.0184    0.0000 C   0  0  0  0  0  0  0  0  0  0  0  0
    8.3396  -15.8434    0.0000 C   0  0  1  0  0  0  0  0  0  0  0  0
    7.6252  -16.2559    0.0000 C   0  0  2  0  0  0  0  0  0  0  0  0
    5.4818  -15.8434    0.0000 O   0  0  0  0  0  0  0  0  0  0  0  0
    4.7673  -17.0809    0.0000 O   0  0  0  0  0  0  0  0  0  0  0  0
    4.7673  -16.2559    0.0000 C   0  0  2  0  0  0  0  0  0  0  0  0
    4.0528  -15.8434    0.0000 C   0  0  1  0  0  0  0  0  0  0  0  0
    3.3383  -16.2559    0.0000 C   0  0  2  0  0  0  0  0  0  0  0  0
    3.3383  -17.0809    0.0000 C   0  0  1  0  0  0  0  0  0  0  0  0
    4.0528  -17.4934    0.0000 C   0  0  1  0  0  0  0  0  0  0  0  0
    4.0528  -18.3184    0.0000 C   0  0  0  0  0  0  0  0  0  0  0  0
    3.3383  -18.7309    0.0000 O   0  0  0  0  0  0  0  0  0  0  0  0
    2.6239  -17.4934    0.0000 O   0  0  0  0  0  0  0  0  0  0  0  0
    2.6239  -15.8434    0.0000 O   0  0  0  0  0  0  0  0  0  0  0  0
    4.0528  -15.0184    0.0000 O   0  0  0  0  0  0  0  0  0  0  0  0
    7.6252  -14.6059    0.0000 O   0  0  0  0  0  0  0  0  0  0  0  0
    9.7686  -16.6684    0.0000 C   0  0  0  0  0  0  0  0  0  0  0  0
    9.8548  -14.1979    0.0000 C   0  0  0  0  0  0  0  0  0  0  0  0
    8.3396  -16.6684    0.0000 C   0  0  0  0  0  0  0  0  0  0  0  0
    7.3232  -18.2079    0.0000 C   0  0  0  0  0  0  0  0  0  0  0  0
    6.4982  -18.2079    0.0000 C   0  0  0  0  0  0  0  0  0  0  0  0
   11.8631  -15.4309    0.0000 O   0  0  0  0  0  0  0  0  0  0  0  0
    5.4818  -17.4934    0.0000 O   0  0  0  0  0  0  0  0  0  0  0  0
    9.0541  -15.4309    0.0000 H   0  0  0  0  0  0  0  0  0  0  0  0
    7.6252  -15.4309    0.0000 H   0  0  0  0  0  0  0  0  0  0  0  0
  1  2  1  0  0  0  0
  2  3  1  0  0  0  0
  3  4  1  0  0  0  0
  4  5  2  0  0  0  0
  1  5  1  0  0  0  0
  3  6  2  0  0  0  0
  7  8  1  0  0  0  0
  8  9  1  0  0  0  0
  5  8  1  0  0  0  0
  2 10  1  6  0  0  0
 11 12  1  0  0  0  0
 12 13  1  0  0  0  0
 13 14  1  0  0  0  0
 14 15  1  0  0  0  0
 15 16  2  0  0  0  0
 16 17  1  0  0  0  0
 17 18  1  0  0  0  0
 18 19  1  0  0  0  0
 19 20  1  0  0  0  0
 20 21  1  0  0  0  0
 22 21  1  1  0  0  0
 22 23  1  0  0  0  0
 19 23  1  0  0  0  0
 23 24  1  0  0  0  0
 24 25  1  0  0  0  0
 25 26  1  0  0  0  0
 18 26  1  0  0  0  0
 26 27  1  0  0  0  0
 15 27  1  0  0  0  0
 11 27  1  0  0  0  0
 29 30  1  0  0  0  0
 30 31  1  0  0  0  0
 31 32  1  0  0  0  0
 32 33  1  0  0  0  0
 33 34  1  0  0  0  0
 29 34  1  0  0  0  0
 35 36  1  0  0  0  0
 34 35  1  6  0  0  0
 33 37  1  1  0  0  0
 32 38  1  6  0  0  0
 31 39  1  1  0  0  0
 30 28  1  6  0  0  0
 12 28  1  1  0  0  0
 25 40  2  0  0  0  0
 19 41  1  6  0  0  0
 23 42  1  1  0  0  0
 26 43  1  1  0  0  0
 14 44  1  0  0  0  0
 14 45  1  0  0  0  0
 21 46  1  6  0  0  0
 13 47  1  6  0  0  0
  2 22  1  0  0  0  0
 18 48  1  1  0  0  0
 27 49  1  6  0  0  0
M  END
>  <cdx:groupId>
13320

>  <cdx:fragmentId>
13191

$$$$
